=
 OpenBabel11062408333D

 32 35  0  0  1  0  0  0  0  0999 V2000
  160.9610  210.1410  152.3180 C   0  0  0  0  0  2  0  0  0  0  0  0
  159.7630  210.6900  153.0270 N   0  0  0  0  0  0  0  0  0  0  0  0
  161.4870  209.0650  153.2810 C   0  0  1  0  0  3  0  0  0  0  0  0
  160.7460  209.1060  154.5040 N   0  0  0  0  0  0  0  0  0  0  0  0
  158.5610  210.0820  154.9940 C   0  0  0  0  0  1  0  0  0  0  0  0
  159.9610  210.3570  154.4170 C   0  0  2  0  0  3  0  0  0  0  0  0
  161.2760  207.6590  152.7140 C   0  0  0  0  0  0  0  0  0  0  0  0
  161.3570  206.5360  153.5570 C   0  0  0  0  0  3  0  0  0  0  0  0
  160.9230  204.7000  148.9030 C   0  0  0  0  0  3  0  0  0  0  0  0
  161.1620  207.4590  151.3480 C   0  0  0  0  0  3  0  0  0  0  0  0
  161.0280  203.7920  151.1350 C   0  0  0  0  0  3  0  0  0  0  0  0
  161.0890  205.0830  151.6950 C   0  0  0  0  0  0  0  0  0  0  0  0
  161.2260  205.2570  153.0430 C   0  0  0  0  0  3  0  0  0  0  0  0
  161.0640  206.1720  150.8060 C   0  0  0  0  0  0  0  0  0  0  0  0
  160.9290  203.6150  149.7880 C   0  0  0  0  0  3  0  0  0  0  0  0
  160.9640  205.9860  149.4400 C   0  0  0  0  0  3  0  0  0  0  0  0
  159.6870  212.1630  152.7450 C   0  0  2  0  0  3  0  0  0  0  0  0
  159.8400  212.8580  153.8750 O   0  0  0  0  0  1  0  0  0  0  0  0
  158.4510  212.6360  151.8890 C   0  0  0  0  0  2  0  0  0  0  0  0
  158.7620  213.1050  150.4440 C   0  0  1  0  0  3  0  0  0  0  0  0
  157.8490  214.1510  150.1170 O   0  0  0  0  0  0  0  0  0  0  0  0
  156.7540  213.6550  149.3310 C   0  0  0  0  0  2  0  0  0  0  0  0
  157.0510  213.7110  147.8370 C   0  0  0  0  0  2  0  0  0  0  0  0
  157.1870  212.3930  147.2920 O   0  0  0  0  0  1  0  0  0  0  0  0
  160.1610  213.5660  150.2820 N   0  0  0  0  0  2  0  0  0  0  0  0
  161.7820  211.9690  149.1190 N   0  0  0  0  0  1  0  0  0  0  0  0
  160.7840  214.1160  147.8350 S   0  0  0  0  0  0  0  0  0  0  0  0
  160.9290  213.1410  149.1160 C   0  0  0  0  0  0  0  0  0  0  0  0
  161.6450  209.2050  155.6580 C   0  0  0  0  0  2  0  0  0  0  0  0
  161.9440  210.6690  155.8710 C   0  0  1  0  0  3  0  0  0  0  0  0
  162.8290  211.0750  156.9770 C   0  0  0  0  0  2  0  0  0  0  0  0
  163.3540  210.7430  155.7220 O   0  0  0  0  0  0  0  0  0  0  0  0
  1  2  1  0  0  0  0
  1  3  1  0  0  0  0
  2  6  1  0  0  0  0
  3  7  1  6  0  0  0
  3  4  1  0  0  0  0
  4 29  1  0  0  0  0
  6  4  1  0  0  0  0
  6  5  1  6  0  0  0
  7  8  1  0  0  0  0
  9 16  2  0  0  0  0
  9 15  1  0  0  0  0
 10  7  2  0  0  0  0
 11 12  1  0  0  0  0
 12 13  1  0  0  0  0
 13  8  2  0  0  0  0
 14 10  1  0  0  0  0
 14 12  2  0  0  0  0
 15 11  2  0  0  0  0
 16 14  1  0  0  0  0
 17  2  1  0  0  0  0
 17 18  1  1  0  0  0
 19 17  1  0  0  0  0
 20 19  1  1  0  0  0
 21 20  1  0  0  0  0
 22 21  1  0  0  0  0
 23 22  1  0  0  0  0
 24 23  1  0  0  0  0
 25 20  1  0  0  0  0
 27 28  2  0  0  0  0
 28 26  1  0  0  0  0
 28 25  1  0  0  0  0
 30 29  1  1  0  0  0
 30 31  1  0  0  0  0
 32 30  1  0  0  0  0
 32 31  1  0  0  0  0
M  END
>  <MODEL>
1

>  <REMARK>
 VINA RESULT:      -6.9      0.000      0.000
  Name = 
  11 active torsions:
  status: ('A' for Active; 'I' for Inactive)
    1  A    between atoms: C_2  and  C_5
    2  A    between atoms: C_3  and  O_8
    3  A    between atoms: C_3  and  C_22
    4  A    between atoms: N_4  and  C_24
    5  A    between atoms: O_8  and  C_20
    6  A    between atoms: C_13  and  C_18
    7  A    between atoms: N_14  and  C_18
    8  A    between atoms: N_15  and  C_20
    9  A    between atoms: N_15  and  C_26
   10  A    between atoms: C_16  and  C_20
   11  A    between atoms: C_16  and  C_24
                            x       y       z     vdW  Elec       q    Type
                         _______ _______ _______ _____ _____    ______ ____

>  <TORSDO>
F 11

$$$$
=
 OpenBabel11062408333D

 32 35  0  0  1  0  0  0  0  0999 V2000
  160.8240  210.4730  152.5530 C   0  0  0  0  0  2  0  0  0  0  0  0
  159.5770  210.9580  153.2230 N   0  0  0  0  0  0  0  0  0  0  0  0
  161.3320  209.3700  153.4940 C   0  0  1  0  0  3  0  0  0  0  0  0
  160.5300  209.3360  154.6780 N   0  0  0  0  0  0  0  0  0  0  0  0
  158.2950  210.2300  155.0980 C   0  0  0  0  0  1  0  0  0  0  0  0
  159.7140  210.5680  154.6050 C   0  0  2  0  0  3  0  0  0  0  0  0
  161.1900  207.9850  152.8560 C   0  0  0  0  0  0  0  0  0  0  0  0
  161.3330  206.8260  153.6410 C   0  0  0  0  0  3  0  0  0  0  0  0
  160.9680  205.2100  148.8990 C   0  0  0  0  0  3  0  0  0  0  0  0
  161.0780  207.8500  151.4820 C   0  0  0  0  0  3  0  0  0  0  0  0
  161.1310  204.1960  151.0820 C   0  0  0  0  0  3  0  0  0  0  0  0
  161.1290  205.4580  151.7070 C   0  0  0  0  0  0  0  0  0  0  0  0
  161.2650  205.5700  153.0610 C   0  0  0  0  0  3  0  0  0  0  0  0
  161.0440  206.5890  150.8750 C   0  0  0  0  0  0  0  0  0  0  0  0
  161.0340  204.0830  149.7280 C   0  0  0  0  0  3  0  0  0  0  0  0
  160.9460  206.4680  149.5020 C   0  0  0  0  0  3  0  0  0  0  0  0
  159.4720  212.4390  153.0020 C   0  0  2  0  0  3  0  0  0  0  0  0
  159.5850  213.0890  154.1630 O   0  0  0  0  0  1  0  0  0  0  0  0
  158.2440  212.9210  152.1410 C   0  0  0  0  0  2  0  0  0  0  0  0
  158.5800  213.5250  150.7520 C   0  0  1  0  0  3  0  0  0  0  0  0
  159.9330  213.1920  150.4470 O   0  0  0  0  0  0  0  0  0  0  0  0
  160.4560  214.0460  149.4170 C   0  0  0  0  0  2  0  0  0  0  0  0
  161.5510  213.3620  148.6070 C   0  0  0  0  0  2  0  0  0  0  0  0
  161.5940  211.9570  148.8880 O   0  0  0  0  0  1  0  0  0  0  0  0
  157.6730  213.0430  149.6850 N   0  0  0  0  0  2  0  0  0  0  0  0
  155.3650  214.0010  150.2230 N   0  0  0  0  0  1  0  0  0  0  0  0
  156.5380  214.4530  147.8400 S   0  0  0  0  0  0  0  0  0  0  0  0
  156.4950  213.8290  149.3310 C   0  0  0  0  0  0  0  0  0  0  0  0
  161.3670  209.4060  155.8800 C   0  0  0  0  0  2  0  0  0  0  0  0
  161.8090  210.8400  156.0350 C   0  0  1  0  0  3  0  0  0  0  0  0
  162.5180  211.2520  157.2610 C   0  0  0  0  0  2  0  0  0  0  0  0
  163.2200  210.7390  156.1630 O   0  0  0  0  0  0  0  0  0  0  0  0
  1  2  1  0  0  0  0
  1  3  1  0  0  0  0
  2  6  1  0  0  0  0
  3  7  1  6  0  0  0
  3  4  1  0  0  0  0
  4 29  1  0  0  0  0
  6  4  1  0  0  0  0
  6  5  1  6  0  0  0
  7  8  1  0  0  0  0
  9 16  2  0  0  0  0
  9 15  1  0  0  0  0
 10  7  2  0  0  0  0
 11 12  1  0  0  0  0
 12 13  1  0  0  0  0
 13  8  2  0  0  0  0
 14 10  1  0  0  0  0
 14 12  2  0  0  0  0
 15 11  2  0  0  0  0
 16 14  1  0  0  0  0
 17  2  1  0  0  0  0
 17 18  1  1  0  0  0
 19 17  1  0  0  0  0
 20 19  1  1  0  0  0
 21 20  1  0  0  0  0
 22 21  1  0  0  0  0
 23 24  1  0  0  0  0
 23 22  1  0  0  0  0
 25 20  1  0  0  0  0
 27 28  2  0  0  0  0
 28 25  1  0  0  0  0
 28 26  1  0  0  0  0
 30 29  1  1  0  0  0
 30 32  1  0  0  0  0
 30 31  1  0  0  0  0
 32 31  1  0  0  0  0
M  END
>  <MODEL>
2

>  <REMARK>
 VINA RESULT:      -6.8      1.581      2.223
  Name = 
  11 active torsions:
  status: ('A' for Active; 'I' for Inactive)
    1  A    between atoms: C_2  and  C_5
    2  A    between atoms: C_3  and  O_8
    3  A    between atoms: C_3  and  C_22
    4  A    between atoms: N_4  and  C_24
    5  A    between atoms: O_8  and  C_20
    6  A    between atoms: C_13  and  C_18
    7  A    between atoms: N_14  and  C_18
    8  A    between atoms: N_15  and  C_20
    9  A    between atoms: N_15  and  C_26
   10  A    between atoms: C_16  and  C_20
   11  A    between atoms: C_16  and  C_24
                            x       y       z     vdW  Elec       q    Type
                         _______ _______ _______ _____ _____    ______ ____

>  <TORSDO>
F 11

$$$$
=
 OpenBabel11062408333D

 32 35  0  0  1  0  0  0  0  0999 V2000
  160.8450  210.0490  152.5180 C   0  0  0  0  0  2  0  0  0  0  0  0
  159.6890  210.5430  153.3310 N   0  0  0  0  0  0  0  0  0  0  0  0
  161.4770  208.9700  153.4120 C   0  0  1  0  0  3  0  0  0  0  0  0
  160.8310  208.9590  154.6880 N   0  0  0  0  0  0  0  0  0  0  0  0
  158.6610  209.8520  155.3680 C   0  0  0  0  0  1  0  0  0  0  0  0
  160.0040  210.1850  154.6920 C   0  0  2  0  0  3  0  0  0  0  0  0
  161.2660  207.5700  152.8280 C   0  0  0  0  0  0  0  0  0  0  0  0
  161.3160  206.4400  153.6640 C   0  0  0  0  0  3  0  0  0  0  0  0
  160.9770  204.6450  148.9850 C   0  0  0  0  0  3  0  0  0  0  0  0
  161.1830  207.3830  151.4580 C   0  0  0  0  0  3  0  0  0  0  0  0
  161.0190  203.7180  151.2120 C   0  0  0  0  0  3  0  0  0  0  0  0
  161.0790  205.0040  151.7830 C   0  0  0  0  0  0  0  0  0  0  0  0
  161.1850  205.1660  153.1360 C   0  0  0  0  0  3  0  0  0  0  0  0
  161.0860  206.1010  150.9030 C   0  0  0  0  0  0  0  0  0  0  0  0
  160.9510  203.5530  149.8610 C   0  0  0  0  0  3  0  0  0  0  0  0
  161.0170  205.9270  149.5340 C   0  0  0  0  0  3  0  0  0  0  0  0
  159.5460  212.0180  153.0910 C   0  0  2  0  0  3  0  0  0  0  0  0
  159.8660  212.6980  154.1950 O   0  0  0  0  0  1  0  0  0  0  0  0
  158.1820  212.4820  152.4520 C   0  0  0  0  0  2  0  0  0  0  0  0
  157.9190  214.0100  152.4440 C   0  0  1  0  0  3  0  0  0  0  0  0
  157.3080  214.3430  151.1990 O   0  0  0  0  0  0  0  0  0  0  0  0
  157.8850  213.5870  150.1220 C   0  0  0  0  0  2  0  0  0  0  0  0
  156.8380  213.1460  149.1070 C   0  0  0  0  0  2  0  0  0  0  0  0
  157.4370  212.8910  147.8310 O   0  0  0  0  0  1  0  0  0  0  0  0
  157.0670  214.4490  153.5740 N   0  0  0  0  0  2  0  0  0  0  0  0
  154.6740  213.6800  153.1100 N   0  0  0  0  0  1  0  0  0  0  0  0
  155.9960  212.8630  155.3100 S   0  0  0  0  0  0  0  0  0  0  0  0
  155.8760  213.6790  153.9200 C   0  0  0  0  0  0  0  0  0  0  0  0
  161.8140  209.0620  155.7730 C   0  0  0  0  0  2  0  0  0  0  0  0
  162.0520  210.5300  156.0250 C   0  0  1  0  0  3  0  0  0  0  0  0
  163.0780  210.9410  157.0000 C   0  0  0  0  0  2  0  0  0  0  0  0
  163.4120  210.7110  155.6600 O   0  0  0  0  0  0  0  0  0  0  0  0
  1  2  1  0  0  0  0
  1  3  1  0  0  0  0
  2  6  1  0  0  0  0
  3  7  1  6  0  0  0
  3  4  1  0  0  0  0
  4  6  1  0  0  0  0
  4 29  1  0  0  0  0
  6  5  1  1  0  0  0
  7  8  1  0  0  0  0
  9 16  2  0  0  0  0
  9 15  1  0  0  0  0
 10  7  2  0  0  0  0
 11 12  1  0  0  0  0
 12 13  1  0  0  0  0
 13  8  2  0  0  0  0
 14 10  1  0  0  0  0
 14 12  2  0  0  0  0
 15 11  2  0  0  0  0
 16 14  1  0  0  0  0
 17  2  1  0  0  0  0
 17 18  1  1  0  0  0
 19 17  1  0  0  0  0
 20 19  1  6  0  0  0
 20 25  1  0  0  0  0
 21 20  1  0  0  0  0
 22 21  1  0  0  0  0
 23 22  1  0  0  0  0
 24 23  1  0  0  0  0
 25 28  1  0  0  0  0
 26 28  1  0  0  0  0
 28 27  2  0  0  0  0
 30 29  1  1  0  0  0
 30 31  1  0  0  0  0
 32 30  1  0  0  0  0
 32 31  1  0  0  0  0
M  END
>  <MODEL>
3

>  <REMARK>
 VINA RESULT:      -6.7      2.207      2.698
  Name = 
  11 active torsions:
  status: ('A' for Active; 'I' for Inactive)
    1  A    between atoms: C_2  and  C_5
    2  A    between atoms: C_3  and  O_8
    3  A    between atoms: C_3  and  C_22
    4  A    between atoms: N_4  and  C_24
    5  A    between atoms: O_8  and  C_20
    6  A    between atoms: C_13  and  C_18
    7  A    between atoms: N_14  and  C_18
    8  A    between atoms: N_15  and  C_20
    9  A    between atoms: N_15  and  C_26
   10  A    between atoms: C_16  and  C_20
   11  A    between atoms: C_16  and  C_24
                            x       y       z     vdW  Elec       q    Type
                         _______ _______ _______ _____ _____    ______ ____

>  <TORSDO>
F 11

$$$$
=
 OpenBabel11062408333D

 32 35  0  0  1  0  0  0  0  0999 V2000
  161.9940  210.1200  150.7350 C   0  0  0  0  0  2  0  0  0  0  0  0
  160.8320  211.0530  150.8740 N   0  0  0  0  0  0  0  0  0  0  0  0
  162.0550  209.4150  152.0990 C   0  0  1  0  0  3  0  0  0  0  0  0
  161.1070  210.0070  152.9920 N   0  0  0  0  0  0  0  0  0  0  0  0
  159.1450  211.3870  152.5260 C   0  0  0  0  0  1  0  0  0  0  0  0
  160.6590  211.2320  152.2950 C   0  0  2  0  0  3  0  0  0  0  0  0
  161.6520  207.9420  151.9830 C   0  0  0  0  0  0  0  0  0  0  0  0
  161.5950  207.1310  153.1310 C   0  0  0  0  0  3  0  0  0  0  0  0
  160.8630  204.0290  149.2480 C   0  0  0  0  0  3  0  0  0  0  0  0
  161.4950  207.3500  150.7400 C   0  0  0  0  0  3  0  0  0  0  0  0
  160.8750  203.8440  151.6540 C   0  0  0  0  0  3  0  0  0  0  0  0
  161.1140  205.2250  151.7940 C   0  0  0  0  0  0  0  0  0  0  0  0
  161.2890  205.7840  153.0280 C   0  0  0  0  0  3  0  0  0  0  0  0
  161.2210  205.9830  150.6150 C   0  0  0  0  0  0  0  0  0  0  0  0
  160.7370  203.2770  150.4230 C   0  0  0  0  0  3  0  0  0  0  0  0
  161.0810  205.4020  149.3690 C   0  0  0  0  0  3  0  0  0  0  0  0
  161.1500  212.3120  150.1220 C   0  0  2  0  0  3  0  0  0  0  0  0
  160.0410  213.0330  149.9380 O   0  0  0  0  0  1  0  0  0  0  0  0
  161.9950  212.1310  148.8040 C   0  0  0  0  0  2  0  0  0  0  0  0
  161.4160  212.7930  147.5270 C   0  0  1  0  0  3  0  0  0  0  0  0
  162.4950  213.0130  146.6200 O   0  0  0  0  0  0  0  0  0  0  0  0
  162.4210  214.3220  146.0350 C   0  0  0  0  0  2  0  0  0  0  0  0
  162.4640  214.2720  144.5120 C   0  0  0  0  0  2  0  0  0  0  0  0
  163.5850  213.5050  144.0570 O   0  0  0  0  0  1  0  0  0  0  0  0
  160.3590  211.9750  146.8880 N   0  0  0  0  0  2  0  0  0  0  0  0
  158.1560  213.2380  147.1730 N   0  0  0  0  0  1  0  0  0  0  0  0
  159.0700  212.5710  144.7290 S   0  0  0  0  0  0  0  0  0  0  0  0
  159.1740  212.6280  146.3410 C   0  0  0  0  0  0  0  0  0  0  0  0
  161.7480  210.4000  154.2520 C   0  0  0  0  0  2  0  0  0  0  0  0
  160.9390  209.7960  155.3740 C   0  0  1  0  0  3  0  0  0  0  0  0
  161.6150  208.9760  156.3950 C   0  0  0  0  0  2  0  0  0  0  0  0
  161.5160  210.3650  156.5390 O   0  0  0  0  0  0  0  0  0  0  0  0
  1  2  1  0  0  0  0
  1  3  1  0  0  0  0
  2  6  1  0  0  0  0
  3  7  1  6  0  0  0
  3  4  1  0  0  0  0
  4 29  1  0  0  0  0
  6  5  1  6  0  0  0
  6  4  1  0  0  0  0
  7  8  1  0  0  0  0
  9 16  2  0  0  0  0
  9 15  1  0  0  0  0
 10  7  2  0  0  0  0
 11 12  1  0  0  0  0
 12 13  1  0  0  0  0
 13  8  2  0  0  0  0
 14 10  1  0  0  0  0
 14 12  2  0  0  0  0
 15 11  2  0  0  0  0
 16 14  1  0  0  0  0
 17 18  1  6  0  0  0
 17  2  1  0  0  0  0
 19 17  1  0  0  0  0
 20 19  1  1  0  0  0
 21 20  1  0  0  0  0
 22 21  1  0  0  0  0
 23 22  1  0  0  0  0
 24 23  1  0  0  0  0
 25 20  1  0  0  0  0
 27 28  2  0  0  0  0
 28 25  1  0  0  0  0
 28 26  1  0  0  0  0
 30 29  1  6  0  0  0
 30 31  1  0  0  0  0
 30 32  1  0  0  0  0
 31 32  1  0  0  0  0
M  END
>  <MODEL>
4

>  <REMARK>
 VINA RESULT:      -6.6      2.520      3.266
  Name = 
  11 active torsions:
  status: ('A' for Active; 'I' for Inactive)
    1  A    between atoms: C_2  and  C_5
    2  A    between atoms: C_3  and  O_8
    3  A    between atoms: C_3  and  C_22
    4  A    between atoms: N_4  and  C_24
    5  A    between atoms: O_8  and  C_20
    6  A    between atoms: C_13  and  C_18
    7  A    between atoms: N_14  and  C_18
    8  A    between atoms: N_15  and  C_20
    9  A    between atoms: N_15  and  C_26
   10  A    between atoms: C_16  and  C_20
   11  A    between atoms: C_16  and  C_24
                            x       y       z     vdW  Elec       q    Type
                         _______ _______ _______ _____ _____    ______ ____

>  <TORSDO>
F 11

$$$$
=
 OpenBabel11062408333D

 32 35  0  0  1  0  0  0  0  0999 V2000
  159.6310  209.6330  152.9870 C   0  0  0  0  0  2  0  0  0  0  0  0
  160.3890  210.2820  154.1020 N   0  0  0  0  0  0  0  0  0  0  0  0
  160.7380  209.1160  152.0530 C   0  0  1  0  0  3  0  0  0  0  0  0
  162.0130  209.5700  152.5180 N   0  0  0  0  0  0  0  0  0  0  0  0
  162.6910  210.4000  154.7130 C   0  0  0  0  0  1  0  0  0  0  0  0
  161.6910  210.5740  153.5550 C   0  0  2  0  0  3  0  0  0  0  0  0
  160.8100  207.5870  152.0680 C   0  0  0  0  0  0  0  0  0  0  0  0
  161.1410  206.9060  153.2530 C   0  0  0  0  0  3  0  0  0  0  0  0
  160.9870  203.3880  149.6710 C   0  0  0  0  0  3  0  0  0  0  0  0
  160.7060  206.8650  150.8900 C   0  0  0  0  0  3  0  0  0  0  0  0
  161.3310  203.4350  152.0580 C   0  0  0  0  0  3  0  0  0  0  0  0
  161.1360  204.8300  152.0940 C   0  0  0  0  0  0  0  0  0  0  0  0
  161.2660  205.5260  153.2620 C   0  0  0  0  0  3  0  0  0  0  0  0
  160.8650  205.4740  150.8740 C   0  0  0  0  0  0  0  0  0  0  0  0
  161.2390  202.7440  150.8880 C   0  0  0  0  0  3  0  0  0  0  0  0
  160.7740  204.7660  149.6900 C   0  0  0  0  0  3  0  0  0  0  0  0
  159.6170  211.4890  154.5510 C   0  0  2  0  0  3  0  0  0  0  0  0
  159.3130  211.3880  155.8470 O   0  0  0  0  0  1  0  0  0  0  0  0
  158.3830  211.8890  153.6560 C   0  0  0  0  0  2  0  0  0  0  0  0
  157.5480  213.0990  154.1480 C   0  0  1  0  0  3  0  0  0  0  0  0
  157.6080  214.1100  153.1430 O   0  0  0  0  0  0  0  0  0  0  0  0
  157.9600  213.5510  151.8680 C   0  0  0  0  0  2  0  0  0  0  0  0
  157.0470  214.0490  150.7530 C   0  0  0  0  0  2  0  0  0  0  0  0
  157.1040  213.1770  149.6180 O   0  0  0  0  0  1  0  0  0  0  0  0
  156.1410  212.7410  154.4410 N   0  0  0  0  0  2  0  0  0  0  0  0
  155.4610  210.3710  155.1140 N   0  0  0  0  0  1  0  0  0  0  0  0
  155.9540  212.2560  156.9720 S   0  0  0  0  0  0  0  0  0  0  0  0
  155.8500  211.7260  155.4490 C   0  0  0  0  0  0  0  0  0  0  0  0
  162.7550  210.2370  151.4430 C   0  0  0  0  0  2  0  0  0  0  0  0
  161.7610  210.5860  150.3620 C   0  0  1  0  0  3  0  0  0  0  0  0
  162.2330  211.2330  149.1240 C   0  0  0  0  0  2  0  0  0  0  0  0
  162.2140  209.8380  149.2430 O   0  0  0  0  0  0  0  0  0  0  0  0
  1  2  1  0  0  0  0
  2 17  1  0  0  0  0
  3  7  1  1  0  0  0
  3  4  1  0  0  0  0
  3  1  1  0  0  0  0
  4  6  1  0  0  0  0
  6  2  1  0  0  0  0
  6  5  1  1  0  0  0
  7  8  1  0  0  0  0
  8 13  2  0  0  0  0
  9 16  2  0  0  0  0
  9 15  1  0  0  0  0
 10  7  2  0  0  0  0
 11 12  1  0  0  0  0
 12 13  1  0  0  0  0
 14 10  1  0  0  0  0
 14 12  2  0  0  0  0
 15 11  2  0  0  0  0
 16 14  1  0  0  0  0
 17 18  1  1  0  0  0
 19 17  1  0  0  0  0
 20 19  1  6  0  0  0
 20 25  1  0  0  0  0
 21 20  1  0  0  0  0
 22 21  1  0  0  0  0
 23 22  1  0  0  0  0
 24 23  1  0  0  0  0
 25 28  1  0  0  0  0
 26 28  1  0  0  0  0
 28 27  2  0  0  0  0
 29  4  1  0  0  0  0
 30 29  1  1  0  0  0
 31 32  1  0  0  0  0
 31 30  1  0  0  0  0
 32 30  1  0  0  0  0
M  END
>  <MODEL>
5

>  <REMARK>
 VINA RESULT:      -6.3      2.860      4.148
  Name = 
  11 active torsions:
  status: ('A' for Active; 'I' for Inactive)
    1  A    between atoms: C_2  and  C_5
    2  A    between atoms: C_3  and  O_8
    3  A    between atoms: C_3  and  C_22
    4  A    between atoms: N_4  and  C_24
    5  A    between atoms: O_8  and  C_20
    6  A    between atoms: C_13  and  C_18
    7  A    between atoms: N_14  and  C_18
    8  A    between atoms: N_15  and  C_20
    9  A    between atoms: N_15  and  C_26
   10  A    between atoms: C_16  and  C_20
   11  A    between atoms: C_16  and  C_24
                            x       y       z     vdW  Elec       q    Type
                         _______ _______ _______ _____ _____    ______ ____

>  <TORSDO>
F 11

$$$$
=
 OpenBabel11062408333D

 32 35  0  0  1  0  0  0  0  0999 V2000
  162.7110  207.3710  151.3880 C   0  0  0  0  0  2  0  0  0  0  0  0
  161.7680  208.5270  151.4980 N   0  0  0  0  0  0  0  0  0  0  0  0
  162.2050  206.3910  152.4590 C   0  0  1  0  0  3  0  0  0  0  0  0
  161.1590  207.0030  153.2190 N   0  0  0  0  0  0  0  0  0  0  0  0
  159.7480  208.9290  152.7010 C   0  0  0  0  0  1  0  0  0  0  0  0
  161.1990  208.4270  152.8200 C   0  0  2  0  0  3  0  0  0  0  0  0
  161.5810  205.1450  151.8220 C   0  0  0  0  0  0  0  0  0  0  0  0
  161.0950  204.1050  152.6340 C   0  0  0  0  0  3  0  0  0  0  0  0
  160.7890  202.3970  147.9200 C   0  0  0  0  0  3  0  0  0  0  0  0
  161.6300  204.9540  150.4510 C   0  0  0  0  0  3  0  0  0  0  0  0
  160.1730  201.5970  150.1110 C   0  0  0  0  0  3  0  0  0  0  0  0
  160.6180  202.7910  150.7110 C   0  0  0  0  0  0  0  0  0  0  0  0
  160.5830  202.9490  152.0670 C   0  0  0  0  0  3  0  0  0  0  0  0
  161.1500  203.7780  149.8630 C   0  0  0  0  0  0  0  0  0  0  0  0
  160.2420  201.4210  148.7620 C   0  0  0  0  0  3  0  0  0  0  0  0
  161.2180  203.5940  148.4950 C   0  0  0  0  0  3  0  0  0  0  0  0
  162.5430  209.7890  151.2480 C   0  0  2  0  0  3  0  0  0  0  0  0
  162.7970  210.4110  152.4020 O   0  0  0  0  0  1  0  0  0  0  0  0
  161.9580  210.7480  150.1430 C   0  0  0  0  0  2  0  0  0  0  0  0
  162.0840  210.2560  148.6780 C   0  0  1  0  0  3  0  0  0  0  0  0
  161.4580  208.9780  148.5900 O   0  0  0  0  0  0  0  0  0  0  0  0
  162.2980  208.0360  147.9040 C   0  0  0  0  0  2  0  0  0  0  0  0
  161.4890  206.9440  147.2130 C   0  0  0  0  0  2  0  0  0  0  0  0
  162.3300  206.1290  146.3890 O   0  0  0  0  0  1  0  0  0  0  0  0
  161.4820  211.1980  147.7050 N   0  0  0  0  0  2  0  0  0  0  0  0
  163.0570  213.2040  147.8720 N   0  0  0  0  0  1  0  0  0  0  0  0
  160.3850  213.5180  148.0090 S   0  0  0  0  0  0  0  0  0  0  0  0
  161.7260  212.6300  147.8430 C   0  0  0  0  0  0  0  0  0  0  0  0
  161.4390  206.9190  154.6570 C   0  0  0  0  0  2  0  0  0  0  0  0
  160.1120  206.9500  155.3740 C   0  0  1  0  0  3  0  0  0  0  0  0
  160.0840  206.9540  156.8480 C   0  0  0  0  0  2  0  0  0  0  0  0
  160.1730  208.1510  156.1280 O   0  0  0  0  0  0  0  0  0  0  0  0
  1  2  1  0  0  0  0
  1  3  1  0  0  0  0
  2  6  1  0  0  0  0
  3  7  1  6  0  0  0
  3  4  1  0  0  0  0
  4 29  1  0  0  0  0
  6  5  1  6  0  0  0
  6  4  1  0  0  0  0
  7  8  1  0  0  0  0
  9 16  2  0  0  0  0
  9 15  1  0  0  0  0
 10  7  2  0  0  0  0
 11 12  1  0  0  0  0
 12 13  1  0  0  0  0
 13  8  2  0  0  0  0
 14 10  1  0  0  0  0
 14 12  2  0  0  0  0
 15 11  2  0  0  0  0
 16 14  1  0  0  0  0
 17  2  1  0  0  0  0
 17 18  1  1  0  0  0
 19 17  1  0  0  0  0
 20 19  1  1  0  0  0
 21 20  1  0  0  0  0
 22 21  1  0  0  0  0
 23 22  1  0  0  0  0
 24 23  1  0  0  0  0
 25 28  1  0  0  0  0
 25 20  1  0  0  0  0
 28 26  1  0  0  0  0
 28 27  2  0  0  0  0
 30 29  1  1  0  0  0
 30 32  1  0  0  0  0
 30 31  1  0  0  0  0
 32 31  1  0  0  0  0
M  END
>  <MODEL>
6

>  <REMARK>
 VINA RESULT:      -6.2      3.105      4.031
  Name = 
  11 active torsions:
  status: ('A' for Active; 'I' for Inactive)
    1  A    between atoms: C_2  and  C_5
    2  A    between atoms: C_3  and  O_8
    3  A    between atoms: C_3  and  C_22
    4  A    between atoms: N_4  and  C_24
    5  A    between atoms: O_8  and  C_20
    6  A    between atoms: C_13  and  C_18
    7  A    between atoms: N_14  and  C_18
    8  A    between atoms: N_15  and  C_20
    9  A    between atoms: N_15  and  C_26
   10  A    between atoms: C_16  and  C_20
   11  A    between atoms: C_16  and  C_24
                            x       y       z     vdW  Elec       q    Type
                         _______ _______ _______ _____ _____    ______ ____

>  <TORSDO>
F 11

$$$$
=
 OpenBabel11062408333D

 32 35  0  0  1  0  0  0  0  0999 V2000
  159.7060  209.6500  152.9610 C   0  0  0  0  0  2  0  0  0  0  0  0
  160.4860  210.2690  154.0790 N   0  0  0  0  0  0  0  0  0  0  0  0
  160.7940  209.1250  152.0120 C   0  0  1  0  0  3  0  0  0  0  0  0
  162.0820  209.5460  152.4710 N   0  0  0  0  0  0  0  0  0  0  0  0
  162.7950  210.3320  154.6710 C   0  0  0  0  0  1  0  0  0  0  0  0
  161.7890  210.5420  153.5250 C   0  0  2  0  0  3  0  0  0  0  0  0
  160.8350  207.5940  152.0050 C   0  0  0  0  0  0  0  0  0  0  0  0
  161.1090  206.8880  153.1910 C   0  0  0  0  0  3  0  0  0  0  0  0
  161.0180  203.4290  149.5500 C   0  0  0  0  0  3  0  0  0  0  0  0
  160.7610  206.8920  150.8130 C   0  0  0  0  0  3  0  0  0  0  0  0
  161.2740  203.4330  151.9490 C   0  0  0  0  0  3  0  0  0  0  0  0
  161.1060  204.8310  151.9990 C   0  0  0  0  0  0  0  0  0  0  0  0
  161.2060  205.5070  153.1820 C   0  0  0  0  0  3  0  0  0  0  0  0
  160.8920  205.4980  150.7800 C   0  0  0  0  0  0  0  0  0  0  0  0
  161.2120  202.7610  150.7660 C   0  0  0  0  0  3  0  0  0  0  0  0
  160.8310  204.8100  149.5830 C   0  0  0  0  0  3  0  0  0  0  0  0
  159.7430  211.4850  154.5510 C   0  0  2  0  0  3  0  0  0  0  0  0
  160.0490  211.7490  155.8230 O   0  0  0  0  0  1  0  0  0  0  0  0
  158.1910  211.4930  154.2740 C   0  0  0  0  0  2  0  0  0  0  0  0
  157.5610  212.8770  153.9680 C   0  0  1  0  0  3  0  0  0  0  0  0
  157.2200  213.4870  155.2110 O   0  0  0  0  0  0  0  0  0  0  0  0
  155.8510  213.2250  155.5580 C   0  0  0  0  0  2  0  0  0  0  0  0
  155.7320  212.3700  156.8140 C   0  0  0  0  0  2  0  0  0  0  0  0
  155.2040  211.0750  156.5040 O   0  0  0  0  0  1  0  0  0  0  0  0
  158.4640  213.7560  153.1880 N   0  0  0  0  0  2  0  0  0  0  0  0
  157.0340  214.0750  151.0930 N   0  0  0  0  0  1  0  0  0  0  0  0
  159.6800  213.6060  150.9130 S   0  0  0  0  0  0  0  0  0  0  0  0
  158.3110  213.8410  151.7390 C   0  0  0  0  0  0  0  0  0  0  0  0
  162.8280  210.2130  151.3980 C   0  0  0  0  0  2  0  0  0  0  0  0
  161.8450  210.5260  150.2970 C   0  0  1  0  0  3  0  0  0  0  0  0
  162.3250  211.1650  149.0580 C   0  0  0  0  0  2  0  0  0  0  0  0
  162.3310  209.7720  149.1970 O   0  0  0  0  0  0  0  0  0  0  0  0
  1  2  1  0  0  0  0
  2 17  1  0  0  0  0
  3  7  1  1  0  0  0
  3  4  1  0  0  0  0
  3  1  1  0  0  0  0
  4  6  1  0  0  0  0
  6  2  1  0  0  0  0
  6  5  1  1  0  0  0
  7  8  1  0  0  0  0
  9 16  2  0  0  0  0
  9 15  1  0  0  0  0
 10  7  2  0  0  0  0
 11 12  1  0  0  0  0
 12 13  1  0  0  0  0
 13  8  2  0  0  0  0
 14 10  1  0  0  0  0
 14 12  2  0  0  0  0
 15 11  2  0  0  0  0
 16 14  1  0  0  0  0
 17 18  1  1  0  0  0
 19 17  1  0  0  0  0
 20 19  1  1  0  0  0
 20 21  1  0  0  0  0
 21 22  1  0  0  0  0
 22 23  1  0  0  0  0
 24 23  1  0  0  0  0
 25 20  1  0  0  0  0
 26 28  1  0  0  0  0
 27 28  2  0  0  0  0
 28 25  1  0  0  0  0
 29  4  1  0  0  0  0
 30 29  1  1  0  0  0
 31 32  1  0  0  0  0
 31 30  1  0  0  0  0
 32 30  1  0  0  0  0
M  END
>  <MODEL>
7

>  <REMARK>
 VINA RESULT:      -6.0      2.474      4.111
  Name = 
  11 active torsions:
  status: ('A' for Active; 'I' for Inactive)
    1  A    between atoms: C_2  and  C_5
    2  A    between atoms: C_3  and  O_8
    3  A    between atoms: C_3  and  C_22
    4  A    between atoms: N_4  and  C_24
    5  A    between atoms: O_8  and  C_20
    6  A    between atoms: C_13  and  C_18
    7  A    between atoms: N_14  and  C_18
    8  A    between atoms: N_15  and  C_20
    9  A    between atoms: N_15  and  C_26
   10  A    between atoms: C_16  and  C_20
   11  A    between atoms: C_16  and  C_24
                            x       y       z     vdW  Elec       q    Type
                         _______ _______ _______ _____ _____    ______ ____

>  <TORSDO>
F 11

$$$$
=
 OpenBabel11062408333D

 32 35  0  0  1  0  0  0  0  0999 V2000
  161.6480  204.7170  151.5900 C   0  0  0  0  0  2  0  0  0  0  0  0
  160.6840  204.6230  150.4500 N   0  0  0  0  0  0  0  0  0  0  0  0
  162.1030  206.1850  151.5560 C   0  0  1  0  0  3  0  0  0  0  0  0
  161.5630  206.8320  150.3990 N   0  0  0  0  0  0  0  0  0  0  0  0
  159.6840  206.2030  148.9700 C   0  0  0  0  0  1  0  0  0  0  0  0
  161.0140  205.7280  149.5830 C   0  0  2  0  0  3  0  0  0  0  0  0
  161.5610  206.9640  152.7580 C   0  0  0  0  0  0  0  0  0  0  0  0
  161.2020  206.2860  153.9370 C   0  0  0  0  0  3  0  0  0  0  0  0
  159.7540  211.0460  154.6220 C   0  0  0  0  0  3  0  0  0  0  0  0
  161.2700  208.3140  152.6500 C   0  0  0  0  0  3  0  0  0  0  0  0
  159.7770  209.0220  155.9340 C   0  0  0  0  0  3  0  0  0  0  0  0
  160.3990  208.3110  154.8900 C   0  0  0  0  0  0  0  0  0  0  0  0
  160.6560  206.9740  155.0070 C   0  0  0  0  0  3  0  0  0  0  0  0
  160.6850  209.0190  153.7090 C   0  0  0  0  0  0  0  0  0  0  0  0
  159.4850  210.3460  155.8050 C   0  0  0  0  0  3  0  0  0  0  0  0
  160.3860  210.3620  153.5850 C   0  0  0  0  0  3  0  0  0  0  0  0
  160.8360  203.2690  149.8190 C   0  0  2  0  0  3  0  0  0  0  0  0
  161.1770  202.3660  150.7420 O   0  0  0  0  0  1  0  0  0  0  0  0
  161.7410  203.2090  148.5300 C   0  0  0  0  0  2  0  0  0  0  0  0
  161.0400  202.7430  147.2270 C   0  0  1  0  0  3  0  0  0  0  0  0
  161.7790  203.2650  146.1240 O   0  0  0  0  0  0  0  0  0  0  0  0
  162.3350  204.5520  146.4340 C   0  0  0  0  0  2  0  0  0  0  0  0
  161.6880  205.6670  145.6200 C   0  0  0  0  0  2  0  0  0  0  0  0
  161.2120  205.1720  144.3630 O   0  0  0  0  0  1  0  0  0  0  0  0
  160.9330  201.2690  147.1310 N   0  0  0  0  0  2  0  0  0  0  0  0
  159.7130  201.2910  144.8860 N   0  0  0  0  0  1  0  0  0  0  0  0
  161.2060  199.1790  145.6360 S   0  0  0  0  0  0  0  0  0  0  0  0
  160.5820  200.6540  145.8560 C   0  0  0  0  0  0  0  0  0  0  0  0
  162.6210  207.4940  149.6290 C   0  0  0  0  0  2  0  0  0  0  0  0
  161.9490  208.4510  148.6750 C   0  0  1  0  0  3  0  0  0  0  0  0
  161.9570  209.8950  148.9720 C   0  0  0  0  0  2  0  0  0  0  0  0
  163.0070  209.3020  148.2610 O   0  0  0  0  0  0  0  0  0  0  0  0
  2  1  1  0  0  0  0
  3  1  1  0  0  0  0
  3  7  1  1  0  0  0
  4  3  1  0  0  0  0
  6  5  1  1  0  0  0
  6  4  1  0  0  0  0
  6  2  1  0  0  0  0
  7  8  1  0  0  0  0
  8 13  2  0  0  0  0
  9 15  1  0  0  0  0
 10  7  2  0  0  0  0
 10 14  1  0  0  0  0
 12 13  1  0  0  0  0
 12 11  1  0  0  0  0
 14 12  2  0  0  0  0
 15 11  2  0  0  0  0
 16 14  1  0  0  0  0
 16  9  2  0  0  0  0
 17  2  1  0  0  0  0
 17 18  1  1  0  0  0
 19 17  1  0  0  0  0
 20 19  1  1  0  0  0
 21 22  1  0  0  0  0
 21 20  1  0  0  0  0
 23 22  1  0  0  0  0
 24 23  1  0  0  0  0
 25 20  1  0  0  0  0
 26 28  1  0  0  0  0
 27 28  2  0  0  0  0
 28 25  1  0  0  0  0
 29  4  1  0  0  0  0
 30 31  1  0  0  0  0
 30 29  1  1  0  0  0
 32 30  1  0  0  0  0
 32 31  1  0  0  0  0
M  END
>  <MODEL>
8

>  <REMARK>
 VINA RESULT:      -5.9      5.485      8.480
  Name = 
  11 active torsions:
  status: ('A' for Active; 'I' for Inactive)
    1  A    between atoms: C_2  and  C_5
    2  A    between atoms: C_3  and  O_8
    3  A    between atoms: C_3  and  C_22
    4  A    between atoms: N_4  and  C_24
    5  A    between atoms: O_8  and  C_20
    6  A    between atoms: C_13  and  C_18
    7  A    between atoms: N_14  and  C_18
    8  A    between atoms: N_15  and  C_20
    9  A    between atoms: N_15  and  C_26
   10  A    between atoms: C_16  and  C_20
   11  A    between atoms: C_16  and  C_24
                            x       y       z     vdW  Elec       q    Type
                         _______ _______ _______ _____ _____    ______ ____

>  <TORSDO>
F 11

$$$$
=
 OpenBabel11062408333D

 32 35  0  0  1  0  0  0  0  0999 V2000
  161.7220  210.7460  150.6600 C   0  0  0  0  0  2  0  0  0  0  0  0
  160.5060  211.5660  150.9520 N   0  0  0  0  0  0  0  0  0  0  0  0
  161.8350  209.8220  151.8830 C   0  0  1  0  0  3  0  0  0  0  0  0
  160.8590  210.1920  152.8610 N   0  0  0  0  0  0  0  0  0  0  0  0
  158.8130  211.5080  152.6310 C   0  0  0  0  0  1  0  0  0  0  0  0
  160.3320  211.4890  152.3820 C   0  0  2  0  0  3  0  0  0  0  0  0
  161.5240  208.3690  151.5140 C   0  0  0  0  0  0  0  0  0  0  0  0
  161.4290  207.3890  152.5190 C   0  0  0  0  0  3  0  0  0  0  0  0
  161.1490  204.8950  148.1680 C   0  0  0  0  0  3  0  0  0  0  0  0
  161.4890  207.9700  150.1880 C   0  0  0  0  0  3  0  0  0  0  0  0
  160.9990  204.3410  150.5110 C   0  0  0  0  0  3  0  0  0  0  0  0
  161.1500  205.6930  150.8760 C   0  0  0  0  0  0  0  0  0  0  0  0
  161.2060  206.0620  152.1900 C   0  0  0  0  0  3  0  0  0  0  0  0
  161.3010  206.6280  149.8370 C   0  0  0  0  0  0  0  0  0  0  0  0
  160.9810  203.9660  149.2010 C   0  0  0  0  0  3  0  0  0  0  0  0
  161.2820  206.2410  148.5110 C   0  0  0  0  0  3  0  0  0  0  0  0
  160.7400  212.9530  150.4280 C   0  0  2  0  0  3  0  0  0  0  0  0
  159.7250  213.7520  150.7640 O   0  0  0  0  0  1  0  0  0  0  0  0
  161.1300  213.0560  148.9040 C   0  0  0  0  0  2  0  0  0  0  0  0
  160.0700  212.5450  147.8940 C   0  0  1  0  0  3  0  0  0  0  0  0
  159.1730  213.6200  147.6200 O   0  0  0  0  0  0  0  0  0  0  0  0
  157.8510  213.1330  147.3450 C   0  0  0  0  0  2  0  0  0  0  0  0
  156.8010  213.7980  148.2270 C   0  0  0  0  0  2  0  0  0  0  0  0
  156.7960  213.2230  149.5390 O   0  0  0  0  0  1  0  0  0  0  0  0
  160.6740  212.0390  146.6390 N   0  0  0  0  0  2  0  0  0  0  0  0
  159.9860  213.0590  144.3990 N   0  0  0  0  0  1  0  0  0  0  0  0
  162.2610  213.8110  145.6290 S   0  0  0  0  0  0  0  0  0  0  0  0
  160.8940  212.9550  145.5250 C   0  0  0  0  0  0  0  0  0  0  0  0
  161.4830  210.4030  154.1720 C   0  0  0  0  0  2  0  0  0  0  0  0
  160.6530  209.6580  155.1880 C   0  0  1  0  0  3  0  0  0  0  0  0
  160.8890  209.8870  156.6250 C   0  0  0  0  0  2  0  0  0  0  0  0
  160.0010  210.6960  155.9050 O   0  0  0  0  0  0  0  0  0  0  0  0
  1  2  1  0  0  0  0
  1  3  1  0  0  0  0
  2  6  1  0  0  0  0
  3  7  1  6  0  0  0
  3  4  1  0  0  0  0
  4 29  1  0  0  0  0
  6  5  1  6  0  0  0
  6  4  1  0  0  0  0
  7  8  1  0  0  0  0
  9 16  2  0  0  0  0
  9 15  1  0  0  0  0
 10  7  2  0  0  0  0
 11 12  1  0  0  0  0
 12 13  1  0  0  0  0
 13  8  2  0  0  0  0
 14 10  1  0  0  0  0
 14 12  2  0  0  0  0
 15 11  2  0  0  0  0
 16 14  1  0  0  0  0
 17 18  1  6  0  0  0
 17  2  1  0  0  0  0
 19 17  1  0  0  0  0
 20 19  1  1  0  0  0
 21 20  1  0  0  0  0
 22 21  1  0  0  0  0
 22 23  1  0  0  0  0
 23 24  1  0  0  0  0
 25 20  1  0  0  0  0
 26 28  1  0  0  0  0
 28 27  2  0  0  0  0
 28 25  1  0  0  0  0
 30 29  1  6  0  0  0
 30 32  1  0  0  0  0
 30 31  1  0  0  0  0
 32 31  1  0  0  0  0
M  END
>  <MODEL>
9

>  <REMARK>
 VINA RESULT:      -5.9      1.832      2.432
  Name = 
  11 active torsions:
  status: ('A' for Active; 'I' for Inactive)
    1  A    between atoms: C_2  and  C_5
    2  A    between atoms: C_3  and  O_8
    3  A    between atoms: C_3  and  C_22
    4  A    between atoms: N_4  and  C_24
    5  A    between atoms: O_8  and  C_20
    6  A    between atoms: C_13  and  C_18
    7  A    between atoms: N_14  and  C_18
    8  A    between atoms: N_15  and  C_20
    9  A    between atoms: N_15  and  C_26
   10  A    between atoms: C_16  and  C_20
   11  A    between atoms: C_16  and  C_24
                            x       y       z     vdW  Elec       q    Type
                         _______ _______ _______ _____ _____    ______ ____

>  <TORSDO>
F 11

$$$$
