=
 OpenBabel11062409393D

 34 37  0  0  0  0  0  0  0  0999 V2000
  161.3150  207.4090  150.5460 C   0  0  0  0  0  0  0  0  0  0  0  0
  161.2230  204.3390  148.4510 C   0  0  0  0  0  3  0  0  0  0  0  0
  161.8890  206.5690  147.9500 N   0  0  0  0  0  0  0  0  0  0  0  0
  161.3160  208.7710  152.6250 C   0  0  0  0  0  0  0  0  0  0  0  0
  160.9080  207.7970  151.8700 N   0  0  0  0  0  0  0  0  0  0  0  0
  162.6800  210.1400  151.0540 C   0  0  0  0  0  3  0  0  0  0  0  0
  161.8750  210.7070  148.8170 C   0  0  0  0  0  1  0  0  0  0  0  0
  162.3890  209.7090  152.2740 C   0  0  0  0  0  3  0  0  0  0  0  0
  162.0760  207.8680  148.2900 C   0  0  0  0  0  3  0  0  0  0  0  0
  161.7960  208.3280  149.5860 C   0  0  0  0  0  0  0  0  0  0  0  0
  161.9860  209.7200  149.8820 N   0  0  0  0  0  0  0  0  0  0  0  0
  160.7240  203.4040  149.3620 C   0  0  0  0  0  0  0  0  0  0  0  0
  160.4270  203.7930  150.6710 C   0  0  0  0  0  3  0  0  0  0  0  0
  161.4190  205.6650  148.8440 C   0  0  0  0  0  0  0  0  0  0  0  0
  160.6180  205.1180  151.0680 C   0  0  0  0  0  3  0  0  0  0  0  0
  161.1150  206.0680  150.1620 C   0  0  0  0  0  0  0  0  0  0  0  0
  160.6220  208.9100  154.2670 S   0  0  0  0  0  0  0  0  0  0  0  0
  158.7930  211.9350  152.3650 C   0  0  0  0  0  3  0  0  0  0  0  0
  159.8510  211.4920  154.8870 C   0  0  0  0  0  3  0  0  0  0  0  0
  158.7370  212.9570  153.3170 C   0  0  0  0  0  0  0  0  0  0  0  0
  159.2780  212.7380  154.5930 C   0  0  0  0  0  0  0  0  0  0  0  0
  159.8830  210.4980  153.9070 C   0  0  0  0  0  0  0  0  0  0  0  0
  159.3580  210.7380  152.6760 N   0  0  0  0  0  0  0  0  0  0  0  0
  159.2420  213.7620  155.5460 O   0  0  0  0  0  0  0  0  0  0  0  0
  160.0140  213.7300  156.7390 C   0  0  0  0  0  1  0  0  0  0  0  0
  158.1390  214.2720  152.9500 C   0  0  0  0  0  2  0  0  0  0  0  0
  157.6130  214.2100  151.5960 N   0  0  0  0  0  2  0  0  0  0  0  0
  156.2160  214.2940  151.3240 C   0  0  0  0  0  0  0  0  0  0  0  0
  155.7340  214.2020  149.9210 C   0  0  0  0  0  1  0  0  0  0  0  0
  155.3880  214.4530  152.2590 O   0  0  0  0  0  0  0  0  0  0  0  0
  160.5320  201.9870  148.9440 C   0  0  0  0  0  2  0  0  0  0  0  0
  161.7300  200.2780  147.9000 C   0  0  0  0  0  1  0  0  0  0  0  0
  160.5460  201.8210  146.6220 C   0  0  0  0  0  1  0  0  0  0  0  0
  161.3770  201.6830  147.8030 N   0  0  0  0  0  0  0  0  0  0  0  0
  1  5  1  0  0  0  0
  2 14  2  0  0  0  0
  2 12  1  0  0  0  0
  3  9  2  0  0  0  0
  3 14  1  0  0  0  0
  4 17  1  0  0  0  0
  5  4  2  0  0  0  0
  6  8  2  0  0  0  0
  7 11  1  0  0  0  0
  8  4  1  0  0  0  0
  9 10  1  0  0  0  0
 10 11  1  0  0  0  0
 10  1  2  0  0  0  0
 11  6  1  0  0  0  0
 12 13  2  0  0  0  0
 13 15  1  0  0  0  0
 14 16  1  0  0  0  0
 16  1  1  0  0  0  0
 16 15  2  0  0  0  0
 18 23  2  0  0  0  0
 18 20  1  0  0  0  0
 20 21  2  0  0  0  0
 21 19  1  0  0  0  0
 21 24  1  0  0  0  0
 22 17  1  0  0  0  0
 22 19  2  0  0  0  0
 23 22  1  0  0  0  0
 24 25  1  0  0  0  0
 26 20  1  0  0  0  0
 27 26  1  0  0  0  0
 28 27  1  0  0  0  0
 28 30  2  0  0  0  0
 29 28  1  0  0  0  0
 31 12  1  0  0  0  0
 33 34  1  0  0  0  0
 34 32  1  0  0  0  0
 34 31  1  0  0  0  0
M  END
>  <MODEL>
1

>  <REMARK>
 VINA RESULT:      -7.9      0.000      0.000
  Name = 
  7 active torsions:
  status: ('A' for Active; 'I' for Inactive)
    1  A    between atoms: N_7  and  C_14
    2  A    between atoms: C_8  and  S_18
    3  A    between atoms: C_14  and  C_16
    4  A    between atoms: S_18  and  C_30
    5  A    between atoms: C_23  and  N_24
    6  A    between atoms: C_23  and  C_25
    7  A    between atoms: O_26  and  C_28
                            x       y       z     vdW  Elec       q    Type
                         _______ _______ _______ _____ _____    ______ ____

>  <TORSDO>
F 7

$$$$
=
 OpenBabel11062409393D

 34 37  0  0  0  0  0  0  0  0999 V2000
  160.8910  208.7930  152.7150 C   0  0  0  0  0  0  0  0  0  0  0  0
  159.6250  210.9410  155.4720 C   0  0  0  0  0  3  0  0  0  0  0  0
  160.2790  208.6520  155.4310 N   0  0  0  0  0  0  0  0  0  0  0  0
  161.8780  208.2420  150.5010 C   0  0  0  0  0  0  0  0  0  0  0  0
  161.0950  208.9070  151.2960 N   0  0  0  0  0  0  0  0  0  0  0  0
  162.6410  206.3600  151.9410 C   0  0  0  0  0  3  0  0  0  0  0  0
  161.0760  205.0810  153.3150 C   0  0  0  0  0  1  0  0  0  0  0  0
  162.8180  207.2000  150.9310 C   0  0  0  0  0  3  0  0  0  0  0  0
  160.7310  207.5470  154.7890 C   0  0  0  0  0  3  0  0  0  0  0  0
  161.0470  207.5790  153.4210 C   0  0  0  0  0  0  0  0  0  0  0  0
  161.4940  206.3710  152.7870 N   0  0  0  0  0  0  0  0  0  0  0  0
  159.4310  212.1540  154.8040 C   0  0  0  0  0  0  0  0  0  0  0  0
  159.7290  212.2570  153.4440 C   0  0  0  0  0  3  0  0  0  0  0  0
  160.1090  209.8280  154.7800 C   0  0  0  0  0  0  0  0  0  0  0  0
  160.2110  211.1470  152.7450 C   0  0  0  0  0  3  0  0  0  0  0  0
  160.4060  209.9220  153.4030 C   0  0  0  0  0  0  0  0  0  0  0  0
  161.9200  208.7120  148.7760 S   0  0  0  0  0  0  0  0  0  0  0  0
  160.9090  204.8280  148.6970 C   0  0  0  0  0  3  0  0  0  0  0  0
  162.0320  206.6500  146.9370 C   0  0  0  0  0  3  0  0  0  0  0  0
  161.2610  204.4070  147.4110 C   0  0  0  0  0  0  0  0  0  0  0  0
  161.8360  205.3260  146.5190 C   0  0  0  0  0  0  0  0  0  0  0  0
  161.6630  207.0290  148.2290 C   0  0  0  0  0  0  0  0  0  0  0  0
  161.1140  206.1170  149.0760 N   0  0  0  0  0  0  0  0  0  0  0  0
  162.2070  204.9070  145.2360 O   0  0  0  0  0  0  0  0  0  0  0  0
  161.4520  205.2260  144.0760 C   0  0  0  0  0  1  0  0  0  0  0  0
  161.0540  202.9820  147.0210 C   0  0  0  0  0  2  0  0  0  0  0  0
  161.4930  202.1110  148.0990 N   0  0  0  0  0  2  0  0  0  0  0  0
  160.5730  201.5150  149.0100 C   0  0  0  0  0  0  0  0  0  0  0  0
  161.0800  200.6500  150.1070 C   0  0  0  0  0  1  0  0  0  0  0  0
  159.3340  201.7060  148.8900 O   0  0  0  0  0  0  0  0  0  0  0  0
  158.9310  213.3430  155.5500 C   0  0  0  0  0  2  0  0  0  0  0  0
  157.2120  213.8440  157.0470 C   0  0  0  0  0  1  0  0  0  0  0  0
  156.8660  214.0680  154.7560 C   0  0  0  0  0  1  0  0  0  0  0  0
  157.4980  213.2340  155.7610 N   0  0  0  0  0  0  0  0  0  0  0  0
  1 16  2  0  0  0  0
  1 10  1  0  0  0  0
  4  8  1  0  0  0  0
  4  5  2  0  0  0  0
  5  1  1  0  0  0  0
  6 11  1  0  0  0  0
  8  6  2  0  0  0  0
  9  3  1  0  0  0  0
 10  9  2  0  0  0  0
 11  7  1  0  0  0  0
 11 10  1  0  0  0  0
 12  2  2  0  0  0  0
 12 31  1  0  0  0  0
 13 12  1  0  0  0  0
 14  3  2  0  0  0  0
 14  2  1  0  0  0  0
 15 16  1  0  0  0  0
 15 13  2  0  0  0  0
 16 14  1  0  0  0  0
 17  4  1  0  0  0  0
 18 23  1  0  0  0  0
 19 22  1  0  0  0  0
 20 18  2  0  0  0  0
 21 19  2  0  0  0  0
 21 20  1  0  0  0  0
 22 17  1  0  0  0  0
 22 23  2  0  0  0  0
 24 21  1  0  0  0  0
 25 24  1  0  0  0  0
 26 20  1  0  0  0  0
 26 27  1  0  0  0  0
 27 28  1  0  0  0  0
 28 29  1  0  0  0  0
 30 28  2  0  0  0  0
 31 34  1  0  0  0  0
 33 34  1  0  0  0  0
 34 32  1  0  0  0  0
M  END
>  <MODEL>
2

>  <REMARK>
 VINA RESULT:      -7.6      3.972     10.028
  Name = 
  7 active torsions:
  status: ('A' for Active; 'I' for Inactive)
    1  A    between atoms: N_7  and  C_14
    2  A    between atoms: C_8  and  S_18
    3  A    between atoms: C_14  and  C_16
    4  A    between atoms: S_18  and  C_30
    5  A    between atoms: C_23  and  N_24
    6  A    between atoms: C_23  and  C_25
    7  A    between atoms: O_26  and  C_28
                            x       y       z     vdW  Elec       q    Type
                         _______ _______ _______ _____ _____    ______ ____

>  <TORSDO>
F 7

$$$$
=
 OpenBabel11062409393D

 34 37  0  0  0  0  0  0  0  0999 V2000
  161.4250  207.7650  150.6330 C   0  0  0  0  0  0  0  0  0  0  0  0
  161.5740  205.1480  147.9960 C   0  0  0  0  0  3  0  0  0  0  0  0
  162.0790  207.4740  147.9380 N   0  0  0  0  0  0  0  0  0  0  0  0
  161.3100  208.7050  152.9300 C   0  0  0  0  0  0  0  0  0  0  0  0
  160.9800  207.8650  151.9970 N   0  0  0  0  0  0  0  0  0  0  0  0
  162.5820  210.4390  151.6760 C   0  0  0  0  0  3  0  0  0  0  0  0
  161.7550  211.3610  149.5680 C   0  0  0  0  0  1  0  0  0  0  0  0
  162.3140  209.7660  152.7860 C   0  0  0  0  0  3  0  0  0  0  0  0
  162.1680  208.6950  148.5200 C   0  0  0  0  0  3  0  0  0  0  0  0
  161.8440  208.8810  149.8740 C   0  0  0  0  0  0  0  0  0  0  0  0
  161.9300  210.2010  150.4300 N   0  0  0  0  0  0  0  0  0  0  0  0
  161.1380  204.0250  148.7040 C   0  0  0  0  0  0  0  0  0  0  0  0
  160.8030  204.1370  150.0550 C   0  0  0  0  0  3  0  0  0  0  0  0
  161.6690  206.3870  148.6350 C   0  0  0  0  0  0  0  0  0  0  0  0
  160.8940  205.3730  150.6990 C   0  0  0  0  0  3  0  0  0  0  0  0
  161.3260  206.5100  149.9990 C   0  0  0  0  0  0  0  0  0  0  0  0
  160.5940  208.4810  154.5540 S   0  0  0  0  0  0  0  0  0  0  0  0
  160.0150  212.2440  155.8240 C   0  0  0  0  0  3  0  0  0  0  0  0
  159.2950  210.7350  153.6150 C   0  0  0  0  0  3  0  0  0  0  0  0
  159.2470  212.8340  154.8150 C   0  0  0  0  0  0  0  0  0  0  0  0
  158.8750  212.0700  153.6980 C   0  0  0  0  0  0  0  0  0  0  0  0
  160.0630  210.1860  154.6430 C   0  0  0  0  0  0  0  0  0  0  0  0
  160.4040  210.9470  155.7190 N   0  0  0  0  0  0  0  0  0  0  0  0
  158.0910  212.6480  152.6930 O   0  0  0  0  0  0  0  0  0  0  0  0
  158.6040  212.9650  151.4060 C   0  0  0  0  0  1  0  0  0  0  0  0
  158.8050  214.2510  154.9600 C   0  0  0  0  0  2  0  0  0  0  0  0
  157.8610  214.3590  156.0610 N   0  0  0  0  0  2  0  0  0  0  0  0
  156.4510  214.3160  155.8530 C   0  0  0  0  0  0  0  0  0  0  0  0
  155.5320  214.4530  157.0130 C   0  0  0  0  0  1  0  0  0  0  0  0
  155.9760  214.1530  154.6980 O   0  0  0  0  0  0  0  0  0  0  0  0
  161.0530  202.7020  148.0220 C   0  0  0  0  0  2  0  0  0  0  0  0
  159.5510  201.3520  149.1920 C   0  0  0  0  0  1  0  0  0  0  0  0
  161.5470  200.4570  148.3960 C   0  0  0  0  0  1  0  0  0  0  0  0
  160.9630  201.6370  149.0060 N   0  0  0  0  0  0  0  0  0  0  0  0
  1  5  1  0  0  0  0
  2 14  2  0  0  0  0
  2 12  1  0  0  0  0
  3  9  2  0  0  0  0
  3 14  1  0  0  0  0
  4 17  1  0  0  0  0
  5  4  2  0  0  0  0
  6  8  2  0  0  0  0
  7 11  1  0  0  0  0
  8  4  1  0  0  0  0
  9 10  1  0  0  0  0
 10 11  1  0  0  0  0
 10  1  2  0  0  0  0
 11  6  1  0  0  0  0
 12 13  2  0  0  0  0
 13 15  1  0  0  0  0
 14 16  1  0  0  0  0
 16  1  1  0  0  0  0
 16 15  2  0  0  0  0
 17 22  1  0  0  0  0
 19 21  2  0  0  0  0
 19 22  1  0  0  0  0
 20 26  1  0  0  0  0
 20 18  2  0  0  0  0
 21 20  1  0  0  0  0
 22 23  2  0  0  0  0
 23 18  1  0  0  0  0
 24 21  1  0  0  0  0
 25 24  1  0  0  0  0
 26 27  1  0  0  0  0
 28 27  1  0  0  0  0
 28 29  1  0  0  0  0
 30 28  2  0  0  0  0
 31 12  1  0  0  0  0
 31 34  1  0  0  0  0
 33 34  1  0  0  0  0
 34 32  1  0  0  0  0
M  END
>  <MODEL>
3

>  <REMARK>
 VINA RESULT:      -7.5      1.720      2.426
  Name = 
  7 active torsions:
  status: ('A' for Active; 'I' for Inactive)
    1  A    between atoms: N_7  and  C_14
    2  A    between atoms: C_8  and  S_18
    3  A    between atoms: C_14  and  C_16
    4  A    between atoms: S_18  and  C_30
    5  A    between atoms: C_23  and  N_24
    6  A    between atoms: C_23  and  C_25
    7  A    between atoms: O_26  and  C_28
                            x       y       z     vdW  Elec       q    Type
                         _______ _______ _______ _____ _____    ______ ____

>  <TORSDO>
F 7

$$$$
=
 OpenBabel11062409393D

 34 37  0  0  0  0  0  0  0  0999 V2000
  160.8400  208.6930  152.7750 C   0  0  0  0  0  0  0  0  0  0  0  0
  159.6540  210.8800  155.5380 C   0  0  0  0  0  3  0  0  0  0  0  0
  160.3950  208.6170  155.5260 N   0  0  0  0  0  0  0  0  0  0  0  0
  161.7150  208.1090  150.5230 C   0  0  0  0  0  0  0  0  0  0  0  0
  160.9550  208.7700  151.3430 N   0  0  0  0  0  0  0  0  0  0  0  0
  162.6360  206.3050  151.9700 C   0  0  0  0  0  3  0  0  0  0  0  0
  161.2070  205.0120  153.4730 C   0  0  0  0  0  1  0  0  0  0  0  0
  162.7190  207.1180  150.9260 C   0  0  0  0  0  3  0  0  0  0  0  0
  160.8510  207.5100  154.8910 C   0  0  0  0  0  3  0  0  0  0  0  0
  161.0850  207.5100  153.5060 C   0  0  0  0  0  0  0  0  0  0  0  0
  161.5420  206.3000  152.8830 N   0  0  0  0  0  0  0  0  0  0  0  0
  159.3730  212.0620  154.8470 C   0  0  0  0  0  0  0  0  0  0  0  0
  159.5860  212.1330  153.4680 C   0  0  0  0  0  3  0  0  0  0  0  0
  160.1400  209.7640  154.8510 C   0  0  0  0  0  0  0  0  0  0  0  0
  160.0690  211.0200  152.7760 C   0  0  0  0  0  3  0  0  0  0  0  0
  160.3510  209.8250  153.4570 C   0  0  0  0  0  0  0  0  0  0  0  0
  161.6360  208.5240  148.7860 S   0  0  0  0  0  0  0  0  0  0  0  0
  162.4820  205.1550  146.7750 C   0  0  0  0  0  3  0  0  0  0  0  0
  161.0280  205.8380  149.0320 C   0  0  0  0  0  3  0  0  0  0  0  0
  161.8220  204.1520  147.4910 C   0  0  0  0  0  0  0  0  0  0  0  0
  161.0790  204.4950  148.6310 C   0  0  0  0  0  0  0  0  0  0  0  0
  161.7050  206.8070  148.2900 C   0  0  0  0  0  0  0  0  0  0  0  0
  162.4120  206.4490  147.1850 N   0  0  0  0  0  0  0  0  0  0  0  0
  160.4010  203.4990  149.3430 O   0  0  0  0  0  0  0  0  0  0  0  0
  160.9610  202.8460  150.4720 C   0  0  0  0  0  1  0  0  0  0  0  0
  161.8870  202.7410  147.0110 C   0  0  0  0  0  2  0  0  0  0  0  0
  160.8900  202.5300  145.9730 N   0  0  0  0  0  2  0  0  0  0  0  0
  160.4600  201.2250  145.5940 C   0  0  0  0  0  0  0  0  0  0  0  0
  159.4540  201.0690  144.5120 C   0  0  0  0  0  1  0  0  0  0  0  0
  160.9170  200.2040  146.1720 O   0  0  0  0  0  0  0  0  0  0  0  0
  158.8710  213.2550  155.5860 C   0  0  0  0  0  2  0  0  0  0  0  0
  156.9560  213.7000  156.8440 C   0  0  0  0  0  1  0  0  0  0  0  0
  157.0790  214.3890  154.6240 C   0  0  0  0  0  1  0  0  0  0  0  0
  157.4200  213.3050  155.5260 N   0  0  0  0  0  0  0  0  0  0  0  0
  1 16  2  0  0  0  0
  1 10  1  0  0  0  0
  4  8  1  0  0  0  0
  4  5  2  0  0  0  0
  5  1  1  0  0  0  0
  6 11  1  0  0  0  0
  8  6  2  0  0  0  0
  9  3  1  0  0  0  0
 10  9  2  0  0  0  0
 11  7  1  0  0  0  0
 11 10  1  0  0  0  0
 12  2  2  0  0  0  0
 12 31  1  0  0  0  0
 13 12  1  0  0  0  0
 14  3  2  0  0  0  0
 14  2  1  0  0  0  0
 15 16  1  0  0  0  0
 15 13  2  0  0  0  0
 16 14  1  0  0  0  0
 17  4  1  0  0  0  0
 18 23  2  0  0  0  0
 18 20  1  0  0  0  0
 20 21  2  0  0  0  0
 21 19  1  0  0  0  0
 21 24  1  0  0  0  0
 22 17  1  0  0  0  0
 22 19  2  0  0  0  0
 23 22  1  0  0  0  0
 24 25  1  0  0  0  0
 26 20  1  0  0  0  0
 27 26  1  0  0  0  0
 28 27  1  0  0  0  0
 28 30  2  0  0  0  0
 29 28  1  0  0  0  0
 33 34  1  0  0  0  0
 34 31  1  0  0  0  0
 34 32  1  0  0  0  0
M  END
>  <MODEL>
4

>  <REMARK>
 VINA RESULT:      -7.2      4.028     10.051
  Name = 
  7 active torsions:
  status: ('A' for Active; 'I' for Inactive)
    1  A    between atoms: N_7  and  C_14
    2  A    between atoms: C_8  and  S_18
    3  A    between atoms: C_14  and  C_16
    4  A    between atoms: S_18  and  C_30
    5  A    between atoms: C_23  and  N_24
    6  A    between atoms: C_23  and  C_25
    7  A    between atoms: O_26  and  C_28
                            x       y       z     vdW  Elec       q    Type
                         _______ _______ _______ _____ _____    ______ ____

>  <TORSDO>
F 7

$$$$
=
 OpenBabel11062409393D

 34 37  0  0  0  0  0  0  0  0999 V2000
  161.2490  207.5060  152.1230 C   0  0  0  0  0  0  0  0  0  0  0  0
  161.4550  204.4520  150.0130 C   0  0  0  0  0  3  0  0  0  0  0  0
  161.8600  206.7430  149.5120 N   0  0  0  0  0  0  0  0  0  0  0  0
  161.1410  208.8530  154.2090 C   0  0  0  0  0  0  0  0  0  0  0  0
  160.8280  207.8420  153.4560 N   0  0  0  0  0  0  0  0  0  0  0  0
  162.3140  210.3690  152.6200 C   0  0  0  0  0  3  0  0  0  0  0  0
  161.4070  210.8510  150.4020 C   0  0  0  0  0  1  0  0  0  0  0  0
  162.0960  209.9050  153.8430 C   0  0  0  0  0  3  0  0  0  0  0  0
  161.9100  208.0540  149.8550 C   0  0  0  0  0  3  0  0  0  0  0  0
  161.6060  208.4760  151.1590 C   0  0  0  0  0  0  0  0  0  0  0  0
  161.6480  209.8800  151.4590 N   0  0  0  0  0  0  0  0  0  0  0  0
  161.0800  203.4640  150.9290 C   0  0  0  0  0  0  0  0  0  0  0  0
  160.7680  203.8130  152.2440 C   0  0  0  0  0  3  0  0  0  0  0  0
  161.5110  205.7900  150.4090 C   0  0  0  0  0  0  0  0  0  0  0  0
  160.8200  205.1510  152.6450 C   0  0  0  0  0  3  0  0  0  0  0  0
  161.1900  206.1530  151.7350 C   0  0  0  0  0  0  0  0  0  0  0  0
  160.4680  208.9080  155.8650 S   0  0  0  0  0  0  0  0  0  0  0  0
  159.5170  212.7420  155.1480 C   0  0  0  0  0  3  0  0  0  0  0  0
  158.1520  210.3430  155.3910 C   0  0  0  0  0  3  0  0  0  0  0  0
  158.1260  212.7300  155.0050 C   0  0  0  0  0  0  0  0  0  0  0  0
  157.4310  211.5180  155.1340 C   0  0  0  0  0  0  0  0  0  0  0  0
  159.5400  210.3990  155.5240 C   0  0  0  0  0  0  0  0  0  0  0  0
  160.1890  211.5880  155.4020 N   0  0  0  0  0  0  0  0  0  0  0  0
  156.0370  211.5010  155.0090 O   0  0  0  0  0  0  0  0  0  0  0  0
  155.2720  210.3080  155.1010 C   0  0  0  0  0  1  0  0  0  0  0  0
  157.4020  214.0100  154.7550 C   0  0  0  0  0  2  0  0  0  0  0  0
  157.2720  214.2270  153.3240 N   0  0  0  0  0  2  0  0  0  0  0  0
  156.0030  214.2480  152.6750 C   0  0  0  0  0  0  0  0  0  0  0  0
  155.9310  214.4530  151.2050 C   0  0  0  0  0  1  0  0  0  0  0  0
  154.9410  214.1040  153.3360 O   0  0  0  0  0  0  0  0  0  0  0  0
  161.0370  202.0360  150.5060 C   0  0  0  0  0  2  0  0  0  0  0  0
  161.1680  200.9320  148.4540 C   0  0  0  0  0  1  0  0  0  0  0  0
  159.0940  201.3470  149.4240 C   0  0  0  0  0  1  0  0  0  0  0  0
  160.4090  201.9180  149.2020 N   0  0  0  0  0  0  0  0  0  0  0  0
  1  5  1  0  0  0  0
  2 14  2  0  0  0  0
  2 12  1  0  0  0  0
  3  9  2  0  0  0  0
  3 14  1  0  0  0  0
  4 17  1  0  0  0  0
  5  4  2  0  0  0  0
  6  8  2  0  0  0  0
  7 11  1  0  0  0  0
  8  4  1  0  0  0  0
  9 10  1  0  0  0  0
 10 11  1  0  0  0  0
 10  1  2  0  0  0  0
 11  6  1  0  0  0  0
 12 13  2  0  0  0  0
 13 15  1  0  0  0  0
 14 16  1  0  0  0  0
 16  1  1  0  0  0  0
 16 15  2  0  0  0  0
 18 23  1  0  0  0  0
 19 22  1  0  0  0  0
 20 21  1  0  0  0  0
 20 18  2  0  0  0  0
 21 19  2  0  0  0  0
 22 17  1  0  0  0  0
 23 22  2  0  0  0  0
 24 25  1  0  0  0  0
 24 21  1  0  0  0  0
 26 20  1  0  0  0  0
 27 26  1  0  0  0  0
 28 27  1  0  0  0  0
 28 30  2  0  0  0  0
 29 28  1  0  0  0  0
 31 12  1  0  0  0  0
 32 34  1  0  0  0  0
 34 33  1  0  0  0  0
 34 31  1  0  0  0  0
M  END
>  <MODEL>
5

>  <REMARK>
 VINA RESULT:      -7.1      1.812      2.158
  Name = 
  7 active torsions:
  status: ('A' for Active; 'I' for Inactive)
    1  A    between atoms: N_7  and  C_14
    2  A    between atoms: C_8  and  S_18
    3  A    between atoms: C_14  and  C_16
    4  A    between atoms: S_18  and  C_30
    5  A    between atoms: C_23  and  N_24
    6  A    between atoms: C_23  and  C_25
    7  A    between atoms: O_26  and  C_28
                            x       y       z     vdW  Elec       q    Type
                         _______ _______ _______ _____ _____    ______ ____

>  <TORSDO>
F 7

$$$$
=
 OpenBabel11062409393D

 34 37  0  0  0  0  0  0  0  0999 V2000
  158.8360  213.4910  148.7690 C   0  0  0  0  0  0  0  0  0  0  0  0
  156.2640  214.3080  151.3260 C   0  0  0  0  0  3  0  0  0  0  0  0
  156.1900  214.3510  148.9470 N   0  0  0  0  0  0  0  0  0  0  0  0
  160.9300  212.5200  147.8470 C   0  0  0  0  0  0  0  0  0  0  0  0
  160.2300  213.1400  148.7480 N   0  0  0  0  0  0  0  0  0  0  0  0
  159.3800  212.4680  145.8980 C   0  0  0  0  0  3  0  0  0  0  0  0
  158.1380  214.4530  145.1960 C   0  0  0  0  0  1  0  0  0  0  0  0
  160.3870  211.9670  146.6000 C   0  0  0  0  0  3  0  0  0  0  0  0
  156.7600  214.1890  147.7270 C   0  0  0  0  0  3  0  0  0  0  0  0
  158.0910  213.7590  147.5980 C   0  0  0  0  0  0  0  0  0  0  0  0
  158.6510  213.6310  146.2830 N   0  0  0  0  0  0  0  0  0  0  0  0
  156.9750  214.0800  152.5080 C   0  0  0  0  0  0  0  0  0  0  0  0
  158.3010  213.6470  152.4520 C   0  0  0  0  0  3  0  0  0  0  0  0
  156.8810  214.1130  150.0870 C   0  0  0  0  0  0  0  0  0  0  0  0
  158.9240  213.4530  151.2170 C   0  0  0  0  0  3  0  0  0  0  0  0
  158.2240  213.6830  150.0230 C   0  0  0  0  0  0  0  0  0  0  0  0
  162.6520  212.1920  148.1980 S   0  0  0  0  0  0  0  0  0  0  0  0
  161.7670  209.7950  151.2930 C   0  0  0  0  0  3  0  0  0  0  0  0
  162.1680  209.4950  148.5680 C   0  0  0  0  0  3  0  0  0  0  0  0
  161.6620  208.5220  150.7240 C   0  0  0  0  0  0  0  0  0  0  0  0
  161.8710  208.3660  149.3450 C   0  0  0  0  0  0  0  0  0  0  0  0
  162.2610  210.7470  149.1770 C   0  0  0  0  0  0  0  0  0  0  0  0
  162.0600  210.8710  150.5160 N   0  0  0  0  0  0  0  0  0  0  0  0
  161.7840  207.0920  148.7710 O   0  0  0  0  0  0  0  0  0  0  0  0
  162.3310  206.7860  147.4960 C   0  0  0  0  0  1  0  0  0  0  0  0
  161.3660  207.3490  151.5950 C   0  0  0  0  0  2  0  0  0  0  0  0
  160.9790  207.8080  152.9200 N   0  0  0  0  0  2  0  0  0  0  0  0
  160.8700  206.9150  154.0260 C   0  0  0  0  0  0  0  0  0  0  0  0
  160.4490  207.4370  155.3530 C   0  0  0  0  0  1  0  0  0  0  0  0
  161.1370  205.6920  153.8940 O   0  0  0  0  0  0  0  0  0  0  0  0
  156.3080  214.2730  153.8260 C   0  0  0  0  0  2  0  0  0  0  0  0
  156.9620  214.1370  156.0620 C   0  0  0  0  0  1  0  0  0  0  0  0
  155.9480  212.3130  155.0310 C   0  0  0  0  0  1  0  0  0  0  0  0
  156.8960  213.3910  154.8180 N   0  0  0  0  0  0  0  0  0  0  0  0
  1 16  1  0  0  0  0
  2 12  1  0  0  0  0
  3 14  1  0  0  0  0
  4 17  1  0  0  0  0
  4  5  2  0  0  0  0
  5  1  1  0  0  0  0
  6 11  1  0  0  0  0
  6  8  2  0  0  0  0
  7 11  1  0  0  0  0
  8  4  1  0  0  0  0
  9  3  2  0  0  0  0
 10  9  1  0  0  0  0
 10  1  2  0  0  0  0
 11 10  1  0  0  0  0
 12 31  1  0  0  0  0
 13 12  2  0  0  0  0
 14  2  2  0  0  0  0
 15 13  1  0  0  0  0
 16 14  1  0  0  0  0
 16 15  2  0  0  0  0
 17 22  1  0  0  0  0
 19 22  2  0  0  0  0
 19 21  1  0  0  0  0
 20 18  1  0  0  0  0
 20 26  1  0  0  0  0
 21 20  2  0  0  0  0
 22 23  1  0  0  0  0
 23 18  2  0  0  0  0
 24 21  1  0  0  0  0
 25 24  1  0  0  0  0
 26 27  1  0  0  0  0
 27 28  1  0  0  0  0
 28 29  1  0  0  0  0
 30 28  2  0  0  0  0
 31 34  1  0  0  0  0
 34 33  1  0  0  0  0
 34 32  1  0  0  0  0
M  END
>  <MODEL>
6

>  <REMARK>
 VINA RESULT:      -6.8      4.025      9.193
  Name = 
  7 active torsions:
  status: ('A' for Active; 'I' for Inactive)
    1  A    between atoms: N_7  and  C_14
    2  A    between atoms: C_8  and  S_18
    3  A    between atoms: C_14  and  C_16
    4  A    between atoms: S_18  and  C_30
    5  A    between atoms: C_23  and  N_24
    6  A    between atoms: C_23  and  C_25
    7  A    between atoms: O_26  and  C_28
                            x       y       z     vdW  Elec       q    Type
                         _______ _______ _______ _____ _____    ______ ____

>  <TORSDO>
F 7

$$$$
=
 OpenBabel11062409393D

 34 37  0  0  0  0  0  0  0  0999 V2000
  160.9550  208.5140  153.5610 C   0  0  0  0  0  0  0  0  0  0  0  0
  161.8110  206.6230  150.4770 C   0  0  0  0  0  3  0  0  0  0  0  0
  161.2060  205.8880  152.6590 N   0  0  0  0  0  0  0  0  0  0  0  0
  160.2780  210.4640  154.9450 C   0  0  0  0  0  0  0  0  0  0  0  0
  160.9380  209.8880  153.9870 N   0  0  0  0  0  0  0  0  0  0  0  0
  159.3620  208.5280  156.2150 C   0  0  0  0  0  3  0  0  0  0  0  0
  160.7540  206.6060  156.8010 C   0  0  0  0  0  1  0  0  0  0  0  0
  159.3070  209.7920  155.8160 C   0  0  0  0  0  3  0  0  0  0  0  0
  160.8610  206.1220  153.9500 C   0  0  0  0  0  3  0  0  0  0  0  0
  160.7280  207.4310  154.4400 C   0  0  0  0  0  0  0  0  0  0  0  0
  160.3880  207.6200  155.8220 N   0  0  0  0  0  0  0  0  0  0  0  0
  162.0710  207.6650  149.5830 C   0  0  0  0  0  0  0  0  0  0  0  0
  161.9530  208.9910  150.0040 C   0  0  0  0  0  3  0  0  0  0  0  0
  161.4410  206.9040  151.7950 C   0  0  0  0  0  0  0  0  0  0  0  0
  161.5860  209.2790  151.3200 C   0  0  0  0  0  3  0  0  0  0  0  0
  161.3270  208.2420  152.2300 C   0  0  0  0  0  0  0  0  0  0  0  0
  160.4560  212.2330  155.1420 S   0  0  0  0  0  0  0  0  0  0  0  0
  159.4740  212.6420  151.2720 C   0  0  0  0  0  3  0  0  0  0  0  0
  158.2260  213.0310  153.7140 C   0  0  0  0  0  3  0  0  0  0  0  0
  158.1530  213.1000  151.2980 C   0  0  0  0  0  0  0  0  0  0  0  0
  157.5210  213.3050  152.5340 C   0  0  0  0  0  0  0  0  0  0  0  0
  159.5420  212.5720  153.6430 C   0  0  0  0  0  0  0  0  0  0  0  0
  160.1350  212.3890  152.4320 N   0  0  0  0  0  0  0  0  0  0  0  0
  156.2050  213.7800  152.5680 O   0  0  0  0  0  0  0  0  0  0  0  0
  155.3910  213.7040  153.7300 C   0  0  0  0  0  1  0  0  0  0  0  0
  157.4530  213.3990  150.0160 C   0  0  0  0  0  2  0  0  0  0  0  0
  158.4310  213.7030  148.9830 N   0  0  0  0  0  2  0  0  0  0  0  0
  158.2820  213.2390  147.6430 C   0  0  0  0  0  0  0  0  0  0  0  0
  159.3240  213.5620  146.6340 C   0  0  0  0  0  1  0  0  0  0  0  0
  157.2730  212.5670  147.3030 O   0  0  0  0  0  0  0  0  0  0  0  0
  162.4490  207.3600  148.1740 C   0  0  0  0  0  2  0  0  0  0  0  0
  160.6690  206.5790  146.8820 C   0  0  0  0  0  1  0  0  0  0  0  0
  162.7060  205.4530  146.8630 C   0  0  0  0  0  1  0  0  0  0  0  0
  161.7730  206.1560  147.7250 N   0  0  0  0  0  0  0  0  0  0  0  0
  1  5  1  0  0  0  0
  1 10  1  0  0  0  0
  2 14  1  0  0  0  0
  3  9  1  0  0  0  0
  4 17  1  0  0  0  0
  4  8  1  0  0  0  0
  5  4  2  0  0  0  0
  8  6  2  0  0  0  0
  9 10  2  0  0  0  0
 10 11  1  0  0  0  0
 11  6  1  0  0  0  0
 11  7  1  0  0  0  0
 12 13  1  0  0  0  0
 12  2  2  0  0  0  0
 13 15  2  0  0  0  0
 14 16  1  0  0  0  0
 14  3  2  0  0  0  0
 15 16  1  0  0  0  0
 16  1  2  0  0  0  0
 18 20  2  0  0  0  0
 18 23  1  0  0  0  0
 20 21  1  0  0  0  0
 21 24  1  0  0  0  0
 21 19  2  0  0  0  0
 22 19  1  0  0  0  0
 22 17  1  0  0  0  0
 23 22  2  0  0  0  0
 24 25  1  0  0  0  0
 26 20  1  0  0  0  0
 27 26  1  0  0  0  0
 28 27  1  0  0  0  0
 29 28  1  0  0  0  0
 30 28  2  0  0  0  0
 31 12  1  0  0  0  0
 32 34  1  0  0  0  0
 33 34  1  0  0  0  0
 34 31  1  0  0  0  0
M  END
>  <MODEL>
7

>  <REMARK>
 VINA RESULT:      -6.6      2.578      4.510
  Name = 
  7 active torsions:
  status: ('A' for Active; 'I' for Inactive)
    1  A    between atoms: N_7  and  C_14
    2  A    between atoms: C_8  and  S_18
    3  A    between atoms: C_14  and  C_16
    4  A    between atoms: S_18  and  C_30
    5  A    between atoms: C_23  and  N_24
    6  A    between atoms: C_23  and  C_25
    7  A    between atoms: O_26  and  C_28
                            x       y       z     vdW  Elec       q    Type
                         _______ _______ _______ _____ _____    ______ ____

>  <TORSDO>
F 7

$$$$
=
 OpenBabel11062409393D

 34 37  0  0  0  0  0  0  0  0999 V2000
  158.5770  213.5690  149.3660 C   0  0  0  0  0  0  0  0  0  0  0  0
  156.3660  214.2370  152.2790 C   0  0  0  0  0  3  0  0  0  0  0  0
  155.9360  214.2550  149.9370 N   0  0  0  0  0  0  0  0  0  0  0  0
  160.5700  212.7290  148.1410 C   0  0  0  0  0  0  0  0  0  0  0  0
  159.9730  213.3100  149.1380 N   0  0  0  0  0  0  0  0  0  0  0  0
  158.7550  212.5610  146.4450 C   0  0  0  0  0  3  0  0  0  0  0  0
  157.2940  214.4530  145.9390 C   0  0  0  0  0  1  0  0  0  0  0  0
  159.8860  212.1320  146.9880 C   0  0  0  0  0  3  0  0  0  0  0  0
  156.3280  214.1200  148.6460 C   0  0  0  0  0  3  0  0  0  0  0  0
  157.6500  213.7780  148.3200 C   0  0  0  0  0  0  0  0  0  0  0  0
  158.0160  213.6760  146.9360 N   0  0  0  0  0  0  0  0  0  0  0  0
  157.2580  214.0650  153.3410 C   0  0  0  0  0  0  0  0  0  0  0  0
  158.5870  213.7200  153.0890 C   0  0  0  0  0  3  0  0  0  0  0  0
  156.8030  214.0720  150.9620 C   0  0  0  0  0  0  0  0  0  0  0  0
  159.0310  213.5570  151.7740 C   0  0  0  0  0  3  0  0  0  0  0  0
  158.1470  213.7300  150.6980 C   0  0  0  0  0  0  0  0  0  0  0  0
  162.3440  212.5190  148.2310 S   0  0  0  0  0  0  0  0  0  0  0  0
  162.1850  208.5660  148.9130 C   0  0  0  0  0  3  0  0  0  0  0  0
  161.9660  210.8770  150.4240 C   0  0  0  0  0  3  0  0  0  0  0  0
  161.9580  208.4630  150.2890 C   0  0  0  0  0  0  0  0  0  0  0  0
  161.8400  209.6320  151.0560 C   0  0  0  0  0  0  0  0  0  0  0  0
  162.1940  210.9350  149.0490 C   0  0  0  0  0  0  0  0  0  0  0  0
  162.2980  209.7870  148.3270 N   0  0  0  0  0  0  0  0  0  0  0  0
  161.5960  209.5370  152.4310 O   0  0  0  0  0  0  0  0  0  0  0  0
  160.6000  210.3060  153.0890 C   0  0  0  0  0  1  0  0  0  0  0  0
  161.8090  207.1150  150.9100 C   0  0  0  0  0  2  0  0  0  0  0  0
  161.3550  206.1620  149.9100 N   0  0  0  0  0  2  0  0  0  0  0  0
  161.3000  204.7620  150.1720 C   0  0  0  0  0  0  0  0  0  0  0  0
  160.8480  203.8320  149.1050 C   0  0  0  0  0  1  0  0  0  0  0  0
  161.6210  204.3060  151.3010 O   0  0  0  0  0  0  0  0  0  0  0  0
  156.7830  214.2250  154.7450 C   0  0  0  0  0  2  0  0  0  0  0  0
  156.0280  212.1030  155.3550 C   0  0  0  0  0  1  0  0  0  0  0  0
  154.9120  214.0000  156.1130 C   0  0  0  0  0  1  0  0  0  0  0  0
  155.5870  213.4300  154.9620 N   0  0  0  0  0  0  0  0  0  0  0  0
  1 16  1  0  0  0  0
  2 12  1  0  0  0  0
  3 14  1  0  0  0  0
  4 17  1  0  0  0  0
  4  5  2  0  0  0  0
  5  1  1  0  0  0  0
  6 11  1  0  0  0  0
  6  8  2  0  0  0  0
  7 11  1  0  0  0  0
  8  4  1  0  0  0  0
  9  3  2  0  0  0  0
 10  9  1  0  0  0  0
 10  1  2  0  0  0  0
 11 10  1  0  0  0  0
 12 31  1  0  0  0  0
 13 12  2  0  0  0  0
 14  2  2  0  0  0  0
 15 13  1  0  0  0  0
 16 14  1  0  0  0  0
 16 15  2  0  0  0  0
 17 22  1  0  0  0  0
 18 20  1  0  0  0  0
 19 21  1  0  0  0  0
 20 26  1  0  0  0  0
 20 21  2  0  0  0  0
 21 24  1  0  0  0  0
 22 19  2  0  0  0  0
 23 18  2  0  0  0  0
 23 22  1  0  0  0  0
 24 25  1  0  0  0  0
 27 28  1  0  0  0  0
 27 26  1  0  0  0  0
 28 30  2  0  0  0  0
 29 28  1  0  0  0  0
 31 34  1  0  0  0  0
 34 32  1  0  0  0  0
 34 33  1  0  0  0  0
M  END
>  <MODEL>
8

>  <REMARK>
 VINA RESULT:      -6.6      3.369      9.222
  Name = 
  7 active torsions:
  status: ('A' for Active; 'I' for Inactive)
    1  A    between atoms: N_7  and  C_14
    2  A    between atoms: C_8  and  S_18
    3  A    between atoms: C_14  and  C_16
    4  A    between atoms: S_18  and  C_30
    5  A    between atoms: C_23  and  N_24
    6  A    between atoms: C_23  and  C_25
    7  A    between atoms: O_26  and  C_28
                            x       y       z     vdW  Elec       q    Type
                         _______ _______ _______ _____ _____    ______ ____

>  <TORSDO>
F 7

$$$$
=
 OpenBabel11062409393D

 34 37  0  0  0  0  0  0  0  0999 V2000
  158.9240  212.3910  153.5070 C   0  0  0  0  0  0  0  0  0  0  0  0
  157.5380  213.9850  150.4480 C   0  0  0  0  0  3  0  0  0  0  0  0
  156.5670  213.5530  152.5780 N   0  0  0  0  0  0  0  0  0  0  0  0
  160.6630  211.5340  155.0630 C   0  0  0  0  0  0  0  0  0  0  0  0
  160.1360  211.7180  153.8900 N   0  0  0  0  0  0  0  0  0  0  0  0
  158.8280  212.2300  156.5960 C   0  0  0  0  0  3  0  0  0  0  0  0
  156.5260  211.4810  156.2630 C   0  0  0  0  0  1  0  0  0  0  0  0
  160.1140  212.0590  156.3190 C   0  0  0  0  0  3  0  0  0  0  0  0
  156.6190  213.0630  153.8420 C   0  0  0  0  0  3  0  0  0  0  0  0
  157.7880  212.4690  154.3430 C   0  0  0  0  0  0  0  0  0  0  0  0
  157.7770  211.9420  155.6780 N   0  0  0  0  0  0  0  0  0  0  0  0
  158.6310  213.9030  149.5800 C   0  0  0  0  0  0  0  0  0  0  0  0
  159.8260  213.3270  150.0150 C   0  0  0  0  0  3  0  0  0  0  0  0
  157.6350  213.4840  151.7480 C   0  0  0  0  0  0  0  0  0  0  0  0
  159.9290  212.8230  151.3140 C   0  0  0  0  0  3  0  0  0  0  0  0
  158.8380  212.8940  152.1940 C   0  0  0  0  0  0  0  0  0  0  0  0
  162.2400  210.6970  155.1540 S   0  0  0  0  0  0  0  0  0  0  0  0
  160.8070  207.6150  153.0180 C   0  0  0  0  0  3  0  0  0  0  0  0
  162.2380  209.9290  152.4970 C   0  0  0  0  0  3  0  0  0  0  0  0
  161.1930  207.8990  151.7040 C   0  0  0  0  0  0  0  0  0  0  0  0
  161.9230  209.0670  151.4380 C   0  0  0  0  0  0  0  0  0  0  0  0
  161.8320  209.6100  153.7940 C   0  0  0  0  0  0  0  0  0  0  0  0
  161.1310  208.4680  154.0250 N   0  0  0  0  0  0  0  0  0  0  0  0
  162.3270  209.3490  150.1280 O   0  0  0  0  0  0  0  0  0  0  0  0
  161.9550  210.5400  149.4490 C   0  0  0  0  0  1  0  0  0  0  0  0
  160.8530  206.9380  150.6150 C   0  0  0  0  0  2  0  0  0  0  0  0
  160.8830  205.5800  151.1330 N   0  0  0  0  0  2  0  0  0  0  0  0
  160.8890  204.4430  150.2720 C   0  0  0  0  0  0  0  0  0  0  0  0
  160.8980  203.0780  150.8570 C   0  0  0  0  0  1  0  0  0  0  0  0
  160.8970  204.5850  149.0200 O   0  0  0  0  0  0  0  0  0  0  0  0
  158.5270  214.4530  148.1990 C   0  0  0  0  0  2  0  0  0  0  0  0
  157.4520  212.9000  146.8290 C   0  0  0  0  0  1  0  0  0  0  0  0
  159.3260  214.0390  146.0520 C   0  0  0  0  0  1  0  0  0  0  0  0
  158.7560  213.4020  147.2240 N   0  0  0  0  0  0  0  0  0  0  0  0
  1  5  1  0  0  0  0
  1 10  1  0  0  0  0
  2 14  1  0  0  0  0
  3  9  1  0  0  0  0
  4 17  1  0  0  0  0
  4  8  1  0  0  0  0
  5  4  2  0  0  0  0
  8  6  2  0  0  0  0
  9 10  2  0  0  0  0
 10 11  1  0  0  0  0
 11  7  1  0  0  0  0
 11  6  1  0  0  0  0
 12 13  1  0  0  0  0
 12  2  2  0  0  0  0
 13 15  2  0  0  0  0
 14 16  1  0  0  0  0
 14  3  2  0  0  0  0
 15 16  1  0  0  0  0
 16  1  2  0  0  0  0
 18 23  1  0  0  0  0
 19 22  1  0  0  0  0
 20 18  2  0  0  0  0
 21 20  1  0  0  0  0
 21 19  2  0  0  0  0
 22 23  2  0  0  0  0
 22 17  1  0  0  0  0
 24 21  1  0  0  0  0
 25 24  1  0  0  0  0
 26 27  1  0  0  0  0
 26 20  1  0  0  0  0
 28 29  1  0  0  0  0
 28 27  1  0  0  0  0
 30 28  2  0  0  0  0
 31 12  1  0  0  0  0
 32 34  1  0  0  0  0
 33 34  1  0  0  0  0
 34 31  1  0  0  0  0
M  END
>  <MODEL>
9

>  <REMARK>
 VINA RESULT:      -6.5      3.239      8.565
  Name = 
  7 active torsions:
  status: ('A' for Active; 'I' for Inactive)
    1  A    between atoms: N_7  and  C_14
    2  A    between atoms: C_8  and  S_18
    3  A    between atoms: C_14  and  C_16
    4  A    between atoms: S_18  and  C_30
    5  A    between atoms: C_23  and  N_24
    6  A    between atoms: C_23  and  C_25
    7  A    between atoms: O_26  and  C_28
                            x       y       z     vdW  Elec       q    Type
                         _______ _______ _______ _____ _____    ______ ____

>  <TORSDO>
F 7

$$$$
