=
 OpenBabel11062408253D

 32 37  0  0  1  0  0  0  0  0999 V2000
  160.3700  208.7920  155.3030 C   0  0  0  0  0  0  0  0  0  0  0  0
  159.9230  211.2050  155.1380 C   0  0  0  0  0  0  0  0  0  0  0  0
  160.1730  207.5330  156.1260 C   0  0  0  0  0  2  0  0  0  0  0  0
  160.3220  210.0930  155.9760 N   0  0  0  0  0  0  0  0  0  0  0  0
  159.3290  212.3720  155.6760 C   0  0  0  0  0  0  0  0  0  0  0  0
  159.0440  212.9990  150.6570 C   0  0  0  0  0  2  0  0  0  0  0  0
  160.1350  211.1230  153.7360 C   0  0  0  0  0  0  0  0  0  0  0  0
  158.8560  214.4530  152.6110 N   0  0  0  0  0  0  0  0  0  0  0  0
  159.2120  213.3550  153.4610 C   0  0  0  0  0  0  0  0  0  0  0  0
  158.9840  213.4330  154.8330 C   0  0  0  0  0  3  0  0  0  0  0  0
  160.6830  209.9280  153.1540 N   0  0  0  0  0  2  0  0  0  0  0  0
  161.1150  208.7890  153.9620 C   0  0  2  0  0  3  0  0  0  0  0  0
  159.7770  212.1950  152.9070 C   0  0  0  0  0  0  0  0  0  0  0  0
  159.0150  208.1090  155.3180 C   0  0  0  0  0  2  0  0  0  0  0  0
  158.8120  214.3310  151.3170 C   0  0  0  0  0  3  0  0  0  0  0  0
  160.0760  212.1760  151.4320 C   0  0  0  0  0  2  0  0  0  0  0  0
  161.9540  206.9330  150.9750 C   0  0  0  0  0  0  0  0  0  0  0  0
  161.5320  203.2360  151.5670 C   0  0  0  0  0  1  0  0  0  0  0  0
  162.7050  207.6550  150.2660 O   0  0  0  0  0  0  0  0  0  0  0  0
  161.1890  204.9950  153.1880 C   0  0  0  0  0  3  0  0  0  0  0  0
  161.0680  207.5000  153.1790 C   0  0  0  0  0  0  0  0  0  0  0  0
  162.1990  205.5610  151.0480 O   0  0  0  0  0  0  0  0  0  0  0  0
  161.1800  206.3300  153.8170 C   0  0  0  0  0  3  0  0  0  0  0  0
  160.8080  207.5450  151.7080 C   0  0  1  0  0  3  0  0  0  0  0  0
  160.5740  208.8390  151.2690 F   0  0  0  0  0  0  0  0  0  0  0  0
  161.6120  204.6670  151.9580 C   0  0  0  0  0  0  0  0  0  0  0  0
  161.2600  210.3660  157.0710 C   0  0  0  0  0  3  0  0  0  0  0  0
  162.4040  210.9830  156.6090 O   0  0  0  0  0  0  0  0  0  0  0  0
  162.4340  209.6710  156.8700 O   0  0  0  0  0  0  0  0  0  0  0  0
  158.9660  212.4920  157.1180 C   0  0  0  0  0  2  0  0  0  0  0  0
  157.5050  212.7560  157.2610 C   0  0  0  0  0  3  0  0  0  0  0  0
  156.7030  211.8550  157.0890 O   0  0  0  0  0  0  0  0  0  0  0  0
  1 14  1  0  0  0  0
  1  4  1  0  0  0  0
  1  3  1  0  0  0  0
  2  5  1  0  0  0  0
  2  4  1  0  0  0  0
  4 27  1  0  0  0  0
  5 30  1  0  0  0  0
  6 15  1  0  0  0  0
  6 16  1  0  0  0  0
  7  2  2  0  0  0  0
  8  9  1  0  0  0  0
  9 10  1  0  0  0  0
 10  5  2  0  0  0  0
 11  7  1  0  0  0  0
 11 12  1  0  0  0  0
 12 21  1  6  0  0  0
 12  1  1  0  0  0  0
 13  9  2  0  0  0  0
 13  7  1  0  0  0  0
 14  3  1  0  0  0  0
 15  8  2  0  0  0  0
 16 13  1  0  0  0  0
 17 22  1  0  0  0  0
 17 24  1  0  0  0  0
 18 26  1  0  0  0  0
 19 17  2  0  0  0  0
 20 23  1  0  0  0  0
 21 23  2  0  0  0  0
 22 26  1  0  0  0  0
 24 25  1  6  0  0  0
 24 21  1  0  0  0  0
 26 20  2  0  0  0  0
 28 29  1  0  0  0  0
 28 27  1  0  0  0  0
 29 27  1  0  0  0  0
 30 31  1  0  0  0  0
 32 31  2  0  0  0  0
M  END
>  <MODEL>
1

>  <REMARK>
 VINA RESULT:      -6.4      0.000      0.000
  Name = 
  4 active torsions:
  status: ('A' for Active; 'I' for Inactive)
    1  A    between atoms: N_5  and  C_14
    2  A    between atoms: C_6  and  C_29
    3  A    between atoms: C_13  and  C_29
    4  A    between atoms: C_16  and  C_27
                            x       y       z     vdW  Elec       q    Type
                         _______ _______ _______ _____ _____    ______ ____

>  <TORSDO>
F 4

$$$$
=
 OpenBabel11062408253D

 32 37  0  0  1  0  0  0  0  0999 V2000
  161.0410  205.5040  150.7350 C   0  0  0  0  0  0  0  0  0  0  0  0
  161.4720  207.8310  151.4000 C   0  0  0  0  0  0  0  0  0  0  0  0
  160.3670  204.1970  151.1080 C   0  0  0  0  0  2  0  0  0  0  0  0
  161.4060  206.4420  151.8000 N   0  0  0  0  0  0  0  0  0  0  0  0
  161.2880  208.8870  152.3250 C   0  0  0  0  0  0  0  0  0  0  0  0
  161.5560  211.1840  147.8190 C   0  0  0  0  0  2  0  0  0  0  0  0
  161.7300  208.1460  150.0390 C   0  0  0  0  0  0  0  0  0  0  0  0
  161.7630  211.8850  150.1500 N   0  0  0  0  0  0  0  0  0  0  0  0
  161.6600  210.5170  150.5690 C   0  0  0  0  0  0  0  0  0  0  0  0
  161.3880  210.2150  151.9010 C   0  0  0  0  0  3  0  0  0  0  0  0
  161.8640  207.0970  149.0650 N   0  0  0  0  0  2  0  0  0  0  0  0
  161.8210  205.6810  149.4260 C   0  0  2  0  0  3  0  0  0  0  0  0
  161.8200  209.4840  149.6320 C   0  0  0  0  0  0  0  0  0  0  0  0
  159.5350  205.3700  150.6040 C   0  0  0  0  0  2  0  0  0  0  0  0
  161.7610  212.2170  148.8920 C   0  0  0  0  0  3  0  0  0  0  0  0
  162.1860  209.8480  148.2170 C   0  0  0  0  0  2  0  0  0  0  0  0
  161.7920  205.0350  145.8690 C   0  0  0  0  0  0  0  0  0  0  0  0
  160.6520  201.5090  145.1870 C   0  0  0  0  0  1  0  0  0  0  0  0
  162.5740  205.8540  145.3180 O   0  0  0  0  0  0  0  0  0  0  0  0
  160.9430  202.5260  147.3600 C   0  0  0  0  0  3  0  0  0  0  0  0
  161.3790  204.8230  148.2670 C   0  0  0  0  0  0  0  0  0  0  0  0
  161.7350  203.7230  145.3960 O   0  0  0  0  0  0  0  0  0  0  0  0
  161.3200  203.4940  148.4080 C   0  0  0  0  0  3  0  0  0  0  0  0
  160.9270  205.4770  147.0010 C   0  0  1  0  0  3  0  0  0  0  0  0
  160.9240  206.8590  147.1120 F   0  0  0  0  0  0  0  0  0  0  0  0
  161.1020  202.6440  146.0330 C   0  0  0  0  0  0  0  0  0  0  0  0
  162.3090  205.9940  152.8670 C   0  0  0  0  0  3  0  0  0  0  0  0
  161.7300  204.9990  153.6270 O   0  0  0  0  0  0  0  0  0  0  0  0
  161.7460  206.2510  154.0990 O   0  0  0  0  0  0  0  0  0  0  0  0
  160.9000  208.6450  153.7450 C   0  0  0  0  0  2  0  0  0  0  0  0
  161.2540  209.8260  154.5840 C   0  0  0  0  0  3  0  0  0  0  0  0
  161.7250  209.6650  155.6970 O   0  0  0  0  0  0  0  0  0  0  0  0
  1  3  1  0  0  0  0
  1  4  1  0  0  0  0
  2  4  1  0  0  0  0
  2  5  1  0  0  0  0
  4 27  1  0  0  0  0
  5 30  1  0  0  0  0
  6 16  1  0  0  0  0
  6 15  1  0  0  0  0
  7  2  2  0  0  0  0
  8  9  1  0  0  0  0
  9 10  1  0  0  0  0
 10  5  2  0  0  0  0
 11 12  1  0  0  0  0
 11  7  1  0  0  0  0
 12 21  1  6  0  0  0
 12  1  1  0  0  0  0
 13  7  1  0  0  0  0
 13  9  2  0  0  0  0
 14  1  1  0  0  0  0
 14  3  1  0  0  0  0
 15  8  2  0  0  0  0
 16 13  1  0  0  0  0
 17 24  1  0  0  0  0
 18 26  1  0  0  0  0
 19 17  2  0  0  0  0
 20 23  1  0  0  0  0
 21 23  2  0  0  0  0
 22 17  1  0  0  0  0
 22 26  1  0  0  0  0
 24 25  1  1  0  0  0
 24 21  1  0  0  0  0
 26 20  2  0  0  0  0
 27 28  1  0  0  0  0
 27 29  1  0  0  0  0
 28 29  1  0  0  0  0
 30 31  1  0  0  0  0
 31 32  2  0  0  0  0
M  END
>  <MODEL>
2

>  <REMARK>
 VINA RESULT:      -5.6      3.580      5.428
  Name = 
  4 active torsions:
  status: ('A' for Active; 'I' for Inactive)
    1  A    between atoms: N_5  and  C_14
    2  A    between atoms: C_6  and  C_29
    3  A    between atoms: C_13  and  C_29
    4  A    between atoms: C_16  and  C_27
                            x       y       z     vdW  Elec       q    Type
                         _______ _______ _______ _____ _____    ______ ____

>  <TORSDO>
F 4

$$$$
=
 OpenBabel11062408253D

 32 37  0  0  1  0  0  0  0  0999 V2000
  161.4460  204.8790  151.2160 C   0  0  0  0  0  0  0  0  0  0  0  0
  161.1720  203.7560  149.0450 C   0  0  0  0  0  0  0  0  0  0  0  0
  162.0110  204.7740  152.6200 C   0  0  0  0  0  2  0  0  0  0  0  0
  161.1240  203.6480  150.4880 N   0  0  0  0  0  0  0  0  0  0  0  0
  161.4110  202.6330  148.2170 C   0  0  0  0  0  0  0  0  0  0  0  0
  161.4290  206.5770  145.0400 C   0  0  0  0  0  2  0  0  0  0  0  0
  160.9730  205.0270  148.4420 C   0  0  0  0  0  0  0  0  0  0  0  0
  161.2160  204.1540  144.8130 N   0  0  0  0  0  0  0  0  0  0  0  0
  161.2060  204.0230  146.2400 C   0  0  0  0  0  0  0  0  0  0  0  0
  161.4210  202.7780  146.8270 C   0  0  0  0  0  3  0  0  0  0  0  0
  160.7860  206.1960  149.2580 N   0  0  0  0  0  2  0  0  0  0  0  0
  160.7140  206.1310  150.7160 C   0  0  2  0  0  3  0  0  0  0  0  0
  160.9930  205.1530  147.0460 C   0  0  0  0  0  0  0  0  0  0  0  0
  162.9400  205.0200  151.4370 C   0  0  0  0  0  2  0  0  0  0  0  0
  161.2750  205.3180  144.2330 C   0  0  0  0  0  3  0  0  0  0  0  0
  160.6910  206.4660  146.3750 C   0  0  0  0  0  2  0  0  0  0  0  0
  161.9200  209.5200  150.3610 C   0  0  0  0  0  0  0  0  0  0  0  0
  161.3530  211.4530  153.5460 C   0  0  0  0  0  1  0  0  0  0  0  0
  161.9560  209.7950  149.1320 O   0  0  0  0  0  0  0  0  0  0  0  0
  160.7120  209.1610  153.1270 C   0  0  0  0  0  3  0  0  0  0  0  0
  161.1210  207.4360  151.3530 C   0  0  0  0  0  0  0  0  0  0  0  0
  161.5210  210.5050  151.2670 O   0  0  0  0  0  0  0  0  0  0  0  0
  160.4560  207.8910  152.4210 C   0  0  0  0  0  3  0  0  0  0  0  0
  162.3190  208.1630  150.8340 C   0  0  1  0  0  3  0  0  0  0  0  0
  162.9510  207.4530  149.8240 F   0  0  0  0  0  0  0  0  0  0  0  0
  161.2080  210.3000  152.6210 C   0  0  0  0  0  0  0  0  0  0  0  0
  160.1640  202.7040  151.0710 C   0  0  0  0  0  3  0  0  0  0  0  0
  160.4550  202.4470  152.3950 O   0  0  0  0  0  0  0  0  0  0  0  0
  160.8140  201.5530  151.4650 O   0  0  0  0  0  0  0  0  0  0  0  0
  161.7440  201.2880  148.7720 C   0  0  0  0  0  2  0  0  0  0  0  0
  161.2060  200.2180  147.8840 C   0  0  0  0  0  3  0  0  0  0  0  0
  161.9560  199.6070  147.1420 O   0  0  0  0  0  0  0  0  0  0  0  0
  1 14  1  0  0  0  0
  1  3  1  0  0  0  0
  2  4  1  0  0  0  0
  4 27  1  0  0  0  0
  4  1  1  0  0  0  0
  5 30  1  0  0  0  0
  5  2  2  0  0  0  0
  6 16  1  0  0  0  0
  7  2  1  0  0  0  0
  7 11  1  0  0  0  0
  8  9  1  0  0  0  0
  9 10  2  0  0  0  0
  9 13  1  0  0  0  0
 10  5  1  0  0  0  0
 11 12  1  0  0  0  0
 12  1  1  0  0  0  0
 12 21  1  1  0  0  0
 13  7  2  0  0  0  0
 14  3  1  0  0  0  0
 15  8  2  0  0  0  0
 15  6  1  0  0  0  0
 16 13  1  0  0  0  0
 17 24  1  0  0  0  0
 17 22  1  0  0  0  0
 19 17  2  0  0  0  0
 21 23  2  0  0  0  0
 22 26  1  0  0  0  0
 23 20  1  0  0  0  0
 24 25  1  6  0  0  0
 24 21  1  0  0  0  0
 26 20  2  0  0  0  0
 26 18  1  0  0  0  0
 27 29  1  0  0  0  0
 27 28  1  0  0  0  0
 29 28  1  0  0  0  0
 31 30  1  0  0  0  0
 32 31  2  0  0  0  0
M  END
>  <MODEL>
3

>  <REMARK>
 VINA RESULT:      -5.6      4.164      9.009
  Name = 
  4 active torsions:
  status: ('A' for Active; 'I' for Inactive)
    1  A    between atoms: N_5  and  C_14
    2  A    between atoms: C_6  and  C_29
    3  A    between atoms: C_13  and  C_29
    4  A    between atoms: C_16  and  C_27
                            x       y       z     vdW  Elec       q    Type
                         _______ _______ _______ _____ _____    ______ ____

>  <TORSDO>
F 4

$$$$
=
 OpenBabel11062408253D

 32 37  0  0  1  0  0  0  0  0999 V2000
  161.0050  208.1870  153.9900 C   0  0  0  0  0  0  0  0  0  0  0  0
  160.3340  210.5050  154.4600 C   0  0  0  0  0  0  0  0  0  0  0  0
  160.9640  206.7470  154.4670 C   0  0  0  0  0  2  0  0  0  0  0  0
  160.8720  209.2640  154.9750 N   0  0  0  0  0  0  0  0  0  0  0  0
  159.6630  211.4330  155.2920 C   0  0  0  0  0  0  0  0  0  0  0  0
  159.0820  213.2760  150.6100 C   0  0  0  0  0  2  0  0  0  0  0  0
  160.4850  210.8020  153.0790 C   0  0  0  0  0  0  0  0  0  0  0  0
  158.8560  214.1630  152.8750 N   0  0  0  0  0  0  0  0  0  0  0  0
  159.3510  212.9270  153.4070 C   0  0  0  0  0  0  0  0  0  0  0  0
  159.1830  212.6330  154.7580 C   0  0  0  0  0  3  0  0  0  0  0  0
  161.1100  209.8530  152.1980 N   0  0  0  0  0  2  0  0  0  0  0  0
  161.6830  208.5970  152.6760 C   0  0  2  0  0  3  0  0  0  0  0  0
  159.9920  212.0080  152.5610 C   0  0  0  0  0  0  0  0  0  0  0  0
  159.7210  207.3890  153.8610 C   0  0  0  0  0  2  0  0  0  0  0  0
  158.7620  214.3680  151.5930 C   0  0  0  0  0  3  0  0  0  0  0  0
  160.2200  212.3920  151.1230 C   0  0  0  0  0  2  0  0  0  0  0  0
  161.5470  205.1160  151.7090 C   0  0  0  0  0  0  0  0  0  0  0  0
  160.9200  204.8080  148.0060 C   0  0  0  0  0  1  0  0  0  0  0  0
  161.2650  204.4380  152.7330 O   0  0  0  0  0  0  0  0  0  0  0  0
  161.0560  206.8630  149.2710 C   0  0  0  0  0  3  0  0  0  0  0  0
  161.7150  207.5500  151.5910 C   0  0  0  0  0  0  0  0  0  0  0  0
  160.9990  204.7510  150.4780 O   0  0  0  0  0  0  0  0  0  0  0  0
  161.1370  207.7970  150.4100 C   0  0  0  0  0  3  0  0  0  0  0  0
  162.4720  206.2810  151.8190 C   0  0  1  0  0  3  0  0  0  0  0  0
  163.1200  206.2850  153.0450 F   0  0  0  0  0  0  0  0  0  0  0  0
  161.0240  205.5230  149.3050 C   0  0  0  0  0  0  0  0  0  0  0  0
  161.8330  209.3430  156.0820 C   0  0  0  0  0  3  0  0  0  0  0  0
  162.0470  208.1030  156.6480 O   0  0  0  0  0  0  0  0  0  0  0  0
  161.2260  208.9640  157.2600 O   0  0  0  0  0  0  0  0  0  0  0  0
  159.3610  211.1480  156.7250 C   0  0  0  0  0  2  0  0  0  0  0  0
  158.2670  212.0400  157.2070 C   0  0  0  0  0  3  0  0  0  0  0  0
  157.1210  211.6260  157.2600 O   0  0  0  0  0  0  0  0  0  0  0  0
  1  3  1  0  0  0  0
  1  4  1  0  0  0  0
  2  4  1  0  0  0  0
  2  5  1  0  0  0  0
  4 27  1  0  0  0  0
  5 30  1  0  0  0  0
  6 16  1  0  0  0  0
  6 15  1  0  0  0  0
  7  2  2  0  0  0  0
  8  9  1  0  0  0  0
  9 10  1  0  0  0  0
 10  5  2  0  0  0  0
 11 12  1  0  0  0  0
 11  7  1  0  0  0  0
 12 21  1  6  0  0  0
 12  1  1  0  0  0  0
 13  7  1  0  0  0  0
 13  9  2  0  0  0  0
 14  1  1  0  0  0  0
 14  3  1  0  0  0  0
 15  8  2  0  0  0  0
 16 13  1  0  0  0  0
 17 24  1  0  0  0  0
 17 19  2  0  0  0  0
 18 26  1  0  0  0  0
 20 26  2  0  0  0  0
 20 23  1  0  0  0  0
 21 24  1  0  0  0  0
 22 17  1  0  0  0  0
 23 21  2  0  0  0  0
 24 25  1  1  0  0  0
 26 22  1  0  0  0  0
 27 28  1  0  0  0  0
 27 29  1  0  0  0  0
 28 29  1  0  0  0  0
 30 31  1  0  0  0  0
 31 32  2  0  0  0  0
M  END
>  <MODEL>
4

>  <REMARK>
 VINA RESULT:      -5.5      1.513      2.094
  Name = 
  4 active torsions:
  status: ('A' for Active; 'I' for Inactive)
    1  A    between atoms: N_5  and  C_14
    2  A    between atoms: C_6  and  C_29
    3  A    between atoms: C_13  and  C_29
    4  A    between atoms: C_16  and  C_27
                            x       y       z     vdW  Elec       q    Type
                         _______ _______ _______ _____ _____    ______ ____

>  <TORSDO>
F 4

$$$$
=
 OpenBabel11062408253D

 32 37  0  0  1  0  0  0  0  0999 V2000
  161.4400  206.2580  149.7140 C   0  0  0  0  0  0  0  0  0  0  0  0
  161.5850  208.4910  150.7330 C   0  0  0  0  0  0  0  0  0  0  0  0
  160.9570  204.8300  149.8840 C   0  0  0  0  0  2  0  0  0  0  0  0
  161.7160  207.0600  150.9090 N   0  0  0  0  0  0  0  0  0  0  0  0
  161.2960  209.3550  151.8160 C   0  0  0  0  0  0  0  0  0  0  0  0
  161.1060  212.3380  147.7260 C   0  0  0  0  0  2  0  0  0  0  0  0
  161.7530  209.0440  149.4350 C   0  0  0  0  0  0  0  0  0  0  0  0
  161.2980  212.6900  150.1360 N   0  0  0  0  0  0  0  0  0  0  0  0
  161.3910  211.2740  150.3350 C   0  0  0  0  0  0  0  0  0  0  0  0
  161.2060  210.7350  151.6060 C   0  0  0  0  0  3  0  0  0  0  0  0
  161.9890  208.1860  148.3060 N   0  0  0  0  0  2  0  0  0  0  0  0
  162.1450  206.7390  148.4400 C   0  0  2  0  0  3  0  0  0  0  0  0
  161.6520  210.4290  149.2440 C   0  0  0  0  0  0  0  0  0  0  0  0
  159.9620  205.9440  149.5840 C   0  0  0  0  0  2  0  0  0  0  0  0
  161.2090  213.2110  148.9470 C   0  0  0  0  0  3  0  0  0  0  0  0
  161.9190  211.0540  147.9000 C   0  0  0  0  0  2  0  0  0  0  0  0
  161.8220  203.6440  146.6010 C   0  0  0  0  0  0  0  0  0  0  0  0
  159.7120  204.1620  143.5220 C   0  0  0  0  0  1  0  0  0  0  0  0
  162.0380  202.6920  147.3990 O   0  0  0  0  0  0  0  0  0  0  0  0
  160.2450  205.8260  145.1910 C   0  0  0  0  0  3  0  0  0  0  0  0
  161.7800  206.0200  147.1660 C   0  0  0  0  0  0  0  0  0  0  0  0
  160.8280  203.5050  145.6300 O   0  0  0  0  0  0  0  0  0  0  0  0
  160.7440  206.4450  146.4340 C   0  0  0  0  0  3  0  0  0  0  0  0
  162.6360  204.8900  146.6900 C   0  0  1  0  0  3  0  0  0  0  0  0
  163.7390  204.7040  147.5100 F   0  0  0  0  0  0  0  0  0  0  0  0
  160.3110  204.5360  144.8290 C   0  0  0  0  0  0  0  0  0  0  0  0
  162.7060  206.5780  151.8800 C   0  0  0  0  0  3  0  0  0  0  0  0
  162.5270  205.2380  152.1540 O   0  0  0  0  0  0  0  0  0  0  0  0
  162.0710  206.1460  153.0250 O   0  0  0  0  0  0  0  0  0  0  0  0
  160.9920  208.8460  153.1850 C   0  0  0  0  0  2  0  0  0  0  0  0
  161.4350  209.8340  154.2110 C   0  0  0  0  0  3  0  0  0  0  0  0
  161.5660  209.4880  155.3730 O   0  0  0  0  0  0  0  0  0  0  0  0
  1  3  1  0  0  0  0
  1  4  1  0  0  0  0
  2  4  1  0  0  0  0
  2  5  1  0  0  0  0
  4 27  1  0  0  0  0
  5 30  1  0  0  0  0
  6 16  1  0  0  0  0
  6 15  1  0  0  0  0
  7  2  2  0  0  0  0
  8  9  1  0  0  0  0
  9 10  1  0  0  0  0
 10  5  2  0  0  0  0
 11 12  1  0  0  0  0
 11  7  1  0  0  0  0
 12 21  1  6  0  0  0
 12  1  1  0  0  0  0
 13  7  1  0  0  0  0
 13  9  2  0  0  0  0
 14  1  1  0  0  0  0
 14  3  1  0  0  0  0
 15  8  2  0  0  0  0
 16 13  1  0  0  0  0
 17 24  1  0  0  0  0
 17 19  2  0  0  0  0
 18 26  1  0  0  0  0
 20 23  1  0  0  0  0
 22 17  1  0  0  0  0
 23 21  2  0  0  0  0
 24 21  1  0  0  0  0
 24 25  1  1  0  0  0
 26 20  2  0  0  0  0
 26 22  1  0  0  0  0
 27 28  1  0  0  0  0
 27 29  1  0  0  0  0
 28 29  1  0  0  0  0
 30 31  1  0  0  0  0
 31 32  2  0  0  0  0
M  END
>  <MODEL>
5

>  <REMARK>
 VINA RESULT:      -5.5      3.932      5.878
  Name = 
  4 active torsions:
  status: ('A' for Active; 'I' for Inactive)
    1  A    between atoms: N_5  and  C_14
    2  A    between atoms: C_6  and  C_29
    3  A    between atoms: C_13  and  C_29
    4  A    between atoms: C_16  and  C_27
                            x       y       z     vdW  Elec       q    Type
                         _______ _______ _______ _____ _____    ______ ____

>  <TORSDO>
F 4

$$$$
=
 OpenBabel11062408253D

 32 37  0  0  1  0  0  0  0  0999 V2000
  161.6380  204.7960  146.5090 C   0  0  0  0  0  0  0  0  0  0  0  0
  161.3190  206.3260  148.4080 C   0  0  0  0  0  0  0  0  0  0  0  0
  162.2710  204.6060  145.1440 C   0  0  0  0  0  2  0  0  0  0  0  0
  161.3430  206.1550  146.9700 N   0  0  0  0  0  0  0  0  0  0  0  0
  161.5730  207.5780  149.0180 C   0  0  0  0  0  0  0  0  0  0  0  0
  161.2550  204.3240  152.8860 C   0  0  0  0  0  2  0  0  0  0  0  0
  161.0310  205.2050  149.2300 C   0  0  0  0  0  0  0  0  0  0  0  0
  161.1490  206.7510  152.6340 N   0  0  0  0  0  0  0  0  0  0  0  0
  161.2100  206.6050  151.2100 C   0  0  0  0  0  0  0  0  0  0  0  0
  161.5120  207.7040  150.4090 C   0  0  0  0  0  3  0  0  0  0  0  0
  160.8260  203.9080  148.6440 N   0  0  0  0  0  2  0  0  0  0  0  0
  160.8250  203.6930  147.1980 C   0  0  2  0  0  3  0  0  0  0  0  0
  160.9810  205.3500  150.6240 C   0  0  0  0  0  0  0  0  0  0  0  0
  163.1330  204.5580  146.4010 C   0  0  0  0  0  2  0  0  0  0  0  0
  161.1250  205.7200  153.4280 C   0  0  0  0  0  3  0  0  0  0  0  0
  160.5850  204.2030  151.5150 C   0  0  0  0  0  2  0  0  0  0  0  0
  161.5030  200.3030  148.2540 C   0  0  0  0  0  0  0  0  0  0  0  0
  161.4050  197.9660  145.2990 C   0  0  0  0  0  1  0  0  0  0  0  0
  161.2390  200.2160  149.4830 O   0  0  0  0  0  0  0  0  0  0  0  0
  160.9740  200.3430  145.2610 C   0  0  0  0  0  3  0  0  0  0  0  0
  161.1970  202.2750  146.8450 C   0  0  0  0  0  0  0  0  0  0  0  0
  161.1920  199.2310  147.4140 O   0  0  0  0  0  0  0  0  0  0  0  0
  160.7280  201.7240  145.7200 C   0  0  0  0  0  3  0  0  0  0  0  0
  162.1570  201.5300  147.7160 C   0  0  1  0  0  3  0  0  0  0  0  0
  162.6380  202.3260  148.7450 F   0  0  0  0  0  0  0  0  0  0  0  0
  161.2060  199.2550  146.0100 C   0  0  0  0  0  0  0  0  0  0  0  0
  160.4570  207.0060  146.1660 C   0  0  0  0  0  3  0  0  0  0  0  0
  159.4120  206.2780  145.6360 O   0  0  0  0  0  0  0  0  0  0  0  0
  160.4560  206.5780  144.8550 O   0  0  0  0  0  0  0  0  0  0  0  0
  161.9960  208.7760  148.2360 C   0  0  0  0  0  2  0  0  0  0  0  0
  161.9560  209.9930  149.0970 C   0  0  0  0  0  3  0  0  0  0  0  0
  161.9930  211.1010  148.5900 O   0  0  0  0  0  0  0  0  0  0  0  0
  1  4  1  0  0  0  0
  1 12  1  0  0  0  0
  2  5  2  0  0  0  0
  2  7  1  0  0  0  0
  3 14  1  0  0  0  0
  3  1  1  0  0  0  0
  4  2  1  0  0  0  0
  5 10  1  0  0  0  0
  6 15  1  0  0  0  0
  7 13  2  0  0  0  0
  8 15  2  0  0  0  0
  9  8  1  0  0  0  0
 10  9  2  0  0  0  0
 11  7  1  0  0  0  0
 12 21  1  1  0  0  0
 12 11  1  0  0  0  0
 13  9  1  0  0  0  0
 13 16  1  0  0  0  0
 14  1  1  0  0  0  0
 16  6  1  0  0  0  0
 17 19  2  0  0  0  0
 18 26  1  0  0  0  0
 20 23  1  0  0  0  0
 20 26  2  0  0  0  0
 21 24  1  0  0  0  0
 22 17  1  0  0  0  0
 23 21  2  0  0  0  0
 24 17  1  0  0  0  0
 24 25  1  1  0  0  0
 26 22  1  0  0  0  0
 27  4  1  0  0  0  0
 28 27  1  0  0  0  0
 29 28  1  0  0  0  0
 29 27  1  0  0  0  0
 30  5  1  0  0  0  0
 30 31  1  0  0  0  0
 32 31  2  0  0  0  0
M  END
>  <MODEL>
6

>  <REMARK>
 VINA RESULT:      -5.4      5.485      9.025
  Name = 
  4 active torsions:
  status: ('A' for Active; 'I' for Inactive)
    1  A    between atoms: N_5  and  C_14
    2  A    between atoms: C_6  and  C_29
    3  A    between atoms: C_13  and  C_29
    4  A    between atoms: C_16  and  C_27
                            x       y       z     vdW  Elec       q    Type
                         _______ _______ _______ _____ _____    ______ ____

>  <TORSDO>
F 4

$$$$
=
 OpenBabel11062408253D

 32 37  0  0  1  0  0  0  0  0999 V2000
  161.1470  202.9990  150.8250 C   0  0  0  0  0  0  0  0  0  0  0  0
  160.9820  202.6600  148.3950 C   0  0  0  0  0  0  0  0  0  0  0  0
  161.5820  202.3980  152.1490 C   0  0  0  0  0  2  0  0  0  0  0  0
  160.8050  202.1010  149.7180 N   0  0  0  0  0  0  0  0  0  0  0  0
  161.2130  201.8440  147.2610 C   0  0  0  0  0  0  0  0  0  0  0  0
  161.7730  206.5780  145.5500 C   0  0  0  0  0  2  0  0  0  0  0  0
  160.9230  204.0700  148.2280 C   0  0  0  0  0  0  0  0  0  0  0  0
  161.4140  204.3860  144.5330 N   0  0  0  0  0  0  0  0  0  0  0  0
  161.2730  203.8060  145.8370 C   0  0  0  0  0  0  0  0  0  0  0  0
  161.3520  202.4240  145.9970 C   0  0  0  0  0  3  0  0  0  0  0  0
  160.7490  204.9280  149.3680 N   0  0  0  0  0  2  0  0  0  0  0  0
  160.5480  204.4070  150.7190 C   0  0  2  0  0  3  0  0  0  0  0  0
  161.0710  204.6330  146.9530 C   0  0  0  0  0  0  0  0  0  0  0  0
  162.6230  202.9220  151.1670 C   0  0  0  0  0  2  0  0  0  0  0  0
  161.6020  205.6630  144.3690 C   0  0  0  0  0  3  0  0  0  0  0  0
  160.9180  206.1140  146.7310 C   0  0  0  0  0  2  0  0  0  0  0  0
  161.4350  207.7930  151.6220 C   0  0  0  0  0  0  0  0  0  0  0  0
  161.3910  208.2040  155.3680 C   0  0  0  0  0  1  0  0  0  0  0  0
  161.2060  208.5340  150.6300 O   0  0  0  0  0  0  0  0  0  0  0  0
  160.8310  206.2000  154.1400 C   0  0  0  0  0  3  0  0  0  0  0  0
  160.9880  205.3960  151.7690 C   0  0  0  0  0  0  0  0  0  0  0  0
  161.1620  208.2710  152.9060 O   0  0  0  0  0  0  0  0  0  0  0  0
  160.5220  205.2910  153.0190 C   0  0  0  0  0  3  0  0  0  0  0  0
  162.0080  206.4310  151.4200 C   0  0  1  0  0  3  0  0  0  0  0  0
  162.4700  206.2770  150.1210 F   0  0  0  0  0  0  0  0  0  0  0  0
  161.1400  207.5040  154.0820 C   0  0  0  0  0  0  0  0  0  0  0  0
  159.7350  201.1130  149.9040 C   0  0  0  0  0  3  0  0  0  0  0  0
  158.7040  201.3170  149.0110 O   0  0  0  0  0  0  0  0  0  0  0  0
  158.5670  201.7470  150.2710 O   0  0  0  0  0  0  0  0  0  0  0  0
  161.4040  200.3680  147.3660 C   0  0  0  0  0  2  0  0  0  0  0  0
  161.2060  199.7280  146.0330 C   0  0  0  0  0  3  0  0  0  0  0  0
  161.5750  198.5810  145.8470 O   0  0  0  0  0  0  0  0  0  0  0  0
  1 14  1  0  0  0  0
  1  3  1  0  0  0  0
  2  4  1  0  0  0  0
  4 27  1  0  0  0  0
  4  1  1  0  0  0  0
  5 30  1  0  0  0  0
  5  2  2  0  0  0  0
  6 16  1  0  0  0  0
  7  2  1  0  0  0  0
  7 11  1  0  0  0  0
  8  9  1  0  0  0  0
  9 10  2  0  0  0  0
  9 13  1  0  0  0  0
 10  5  1  0  0  0  0
 11 12  1  0  0  0  0
 12  1  1  0  0  0  0
 12 21  1  1  0  0  0
 13  7  2  0  0  0  0
 14  3  1  0  0  0  0
 15  8  2  0  0  0  0
 15  6  1  0  0  0  0
 16 13  1  0  0  0  0
 17 22  1  0  0  0  0
 19 17  2  0  0  0  0
 21 23  2  0  0  0  0
 22 26  1  0  0  0  0
 23 20  1  0  0  0  0
 24 25  1  6  0  0  0
 24 17  1  0  0  0  0
 24 21  1  0  0  0  0
 26 20  2  0  0  0  0
 26 18  1  0  0  0  0
 27 29  1  0  0  0  0
 28 27  1  0  0  0  0
 28 29  1  0  0  0  0
 31 30  1  0  0  0  0
 32 31  2  0  0  0  0
M  END
>  <MODEL>
7

>  <REMARK>
 VINA RESULT:      -5.3      4.667      9.695
  Name = 
  4 active torsions:
  status: ('A' for Active; 'I' for Inactive)
    1  A    between atoms: N_5  and  C_14
    2  A    between atoms: C_6  and  C_29
    3  A    between atoms: C_13  and  C_29
    4  A    between atoms: C_16  and  C_27
                            x       y       z     vdW  Elec       q    Type
                         _______ _______ _______ _____ _____    ______ ____

>  <TORSDO>
F 4

$$$$
=
 OpenBabel11062408253D

 32 37  0  0  1  0  0  0  0  0999 V2000
  161.2450  208.5910  152.4840 C   0  0  0  0  0  0  0  0  0  0  0  0
  161.0250  210.9850  151.9670 C   0  0  0  0  0  0  0  0  0  0  0  0
  160.8290  207.4640  153.4110 C   0  0  0  0  0  2  0  0  0  0  0  0
  161.2070  209.9690  152.9820 N   0  0  0  0  0  0  0  0  0  0  0  0
  160.4560  212.2470  152.2640 C   0  0  0  0  0  0  0  0  0  0  0  0
  160.9490  212.2330  147.2230 C   0  0  0  0  0  2  0  0  0  0  0  0
  161.4290  210.7080  150.6340 C   0  0  0  0  0  0  0  0  0  0  0  0
  160.6010  213.9380  148.9380 N   0  0  0  0  0  0  0  0  0  0  0  0
  160.7400  212.9390  149.9570 C   0  0  0  0  0  0  0  0  0  0  0  0
  160.3240  213.2090  151.2590 C   0  0  0  0  0  3  0  0  0  0  0  0
  161.9550  209.4150  150.2890 N   0  0  0  0  0  2  0  0  0  0  0  0
  162.1720  208.3660  151.2830 C   0  0  2  0  0  3  0  0  0  0  0  0
  161.2820  211.6840  149.6380 C   0  0  0  0  0  0  0  0  0  0  0  0
  159.8510  208.0010  152.3730 C   0  0  0  0  0  2  0  0  0  0  0  0
  160.7340  213.6510  147.6760 C   0  0  0  0  0  3  0  0  0  0  0  0
  161.7880  211.4550  148.2390 C   0  0  0  0  0  2  0  0  0  0  0  0
  161.6410  204.8080  151.6370 C   0  0  0  0  0  0  0  0  0  0  0  0
  161.2070  203.2060  148.2540 C   0  0  0  0  0  1  0  0  0  0  0  0
  161.2100  204.5920  152.8010 O   0  0  0  0  0  0  0  0  0  0  0  0
  161.5330  205.5590  148.6940 C   0  0  0  0  0  3  0  0  0  0  0  0
  162.1340  206.9930  150.6620 C   0  0  0  0  0  0  0  0  0  0  0  0
  161.1260  204.0670  150.5720 O   0  0  0  0  0  0  0  0  0  0  0  0
  161.6660  206.8380  149.4190 C   0  0  0  0  0  3  0  0  0  0  0  0
  162.7020  205.8320  151.4130 C   0  0  1  0  0  3  0  0  0  0  0  0
  163.2690  206.2280  152.6150 F   0  0  0  0  0  0  0  0  0  0  0  0
  161.3240  204.3380  149.2080 C   0  0  0  0  0  0  0  0  0  0  0  0
  161.9960  210.3210  154.1680 C   0  0  0  0  0  3  0  0  0  0  0  0
  161.8380  209.3870  155.1710 O   0  0  0  0  0  0  0  0  0  0  0  0
  161.1600  210.5380  155.2430 O   0  0  0  0  0  0  0  0  0  0  0  0
  159.9000  212.5760  153.6100 C   0  0  0  0  0  2  0  0  0  0  0  0
  158.4290  212.3330  153.6320 C   0  0  0  0  0  3  0  0  0  0  0  0
  158.0000  211.2030  153.7940 O   0  0  0  0  0  0  0  0  0  0  0  0
  1  4  1  0  0  0  0
  1  3  1  0  0  0  0
  2  5  1  0  0  0  0
  2  4  1  0  0  0  0
  4 27  1  0  0  0  0
  5 30  1  0  0  0  0
  6 15  1  0  0  0  0
  6 16  1  0  0  0  0
  7  2  2  0  0  0  0
  8  9  1  0  0  0  0
  9 10  1  0  0  0  0
 10  5  2  0  0  0  0
 11  7  1  0  0  0  0
 11 12  1  0  0  0  0
 12 21  1  6  0  0  0
 12  1  1  0  0  0  0
 13  9  2  0  0  0  0
 13  7  1  0  0  0  0
 14  1  1  0  0  0  0
 14  3  1  0  0  0  0
 15  8  2  0  0  0  0
 16 13  1  0  0  0  0
 17 19  2  0  0  0  0
 18 26  1  0  0  0  0
 20 26  2  0  0  0  0
 20 23  1  0  0  0  0
 21 24  1  0  0  0  0
 22 17  1  0  0  0  0
 23 21  2  0  0  0  0
 24 17  1  0  0  0  0
 24 25  1  1  0  0  0
 26 22  1  0  0  0  0
 27 28  1  0  0  0  0
 27 29  1  0  0  0  0
 28 29  1  0  0  0  0
 30 31  1  0  0  0  0
 31 32  2  0  0  0  0
M  END
>  <MODEL>
8

>  <REMARK>
 VINA RESULT:      -5.0      2.317      3.409
  Name = 
  4 active torsions:
  status: ('A' for Active; 'I' for Inactive)
    1  A    between atoms: N_5  and  C_14
    2  A    between atoms: C_6  and  C_29
    3  A    between atoms: C_13  and  C_29
    4  A    between atoms: C_16  and  C_27
                            x       y       z     vdW  Elec       q    Type
                         _______ _______ _______ _____ _____    ______ ____

>  <TORSDO>
F 4

$$$$
=
 OpenBabel11062408253D

 32 37  0  0  1  0  0  0  0  0999 V2000
  161.2530  205.9100  146.7100 C   0  0  0  0  0  0  0  0  0  0  0  0
  161.2500  203.5220  147.2960 C   0  0  0  0  0  0  0  0  0  0  0  0
  160.8300  206.9530  145.6930 C   0  0  0  0  0  2  0  0  0  0  0  0
  161.4390  204.5250  146.2690 N   0  0  0  0  0  0  0  0  0  0  0  0
  160.8740  202.1930  146.9840 C   0  0  0  0  0  0  0  0  0  0  0  0
  160.7240  202.4020  152.0430 C   0  0  0  0  0  2  0  0  0  0  0  0
  161.4480  203.8810  148.6560 C   0  0  0  0  0  0  0  0  0  0  0  0
  160.7940  200.6220  150.3710 N   0  0  0  0  0  0  0  0  0  0  0  0
  160.9440  201.6020  149.3360 C   0  0  0  0  0  0  0  0  0  0  0  0
  160.7290  201.2490  148.0060 C   0  0  0  0  0  3  0  0  0  0  0  0
  161.7730  205.2370  149.0070 N   0  0  0  0  0  2  0  0  0  0  0  0
  161.9900  206.2770  148.0040 C   0  0  2  0  0  3  0  0  0  0  0  0
  161.2920  202.9220  149.6660 C   0  0  0  0  0  0  0  0  0  0  0  0
  159.7980  206.3300  146.6250 C   0  0  0  0  0  2  0  0  0  0  0  0
  160.7330  200.9570  151.6270 C   0  0  0  0  0  3  0  0  0  0  0  0
  161.5870  203.2480  151.1050 C   0  0  0  0  0  2  0  0  0  0  0  0
  161.7230  208.4840  150.8550 C   0  0  0  0  0  0  0  0  0  0  0  0
  161.7450  212.0810  149.7340 C   0  0  0  0  0  1  0  0  0  0  0  0
  162.1110  207.8530  151.8740 O   0  0  0  0  0  0  0  0  0  0  0  0
  161.9560  210.1370  148.3150 C   0  0  0  0  0  3  0  0  0  0  0  0
  161.7140  207.6520  148.5580 C   0  0  0  0  0  0  0  0  0  0  0  0
  162.0470  209.8360  150.7280 O   0  0  0  0  0  0  0  0  0  0  0  0
  162.1200  208.7350  147.8850 C   0  0  0  0  0  3  0  0  0  0  0  0
  160.9130  207.7900  149.8120 C   0  0  1  0  0  3  0  0  0  0  0  0
  160.4640  206.5610  150.2710 F   0  0  0  0  0  0  0  0  0  0  0  0
  161.8950  210.6130  149.5670 C   0  0  0  0  0  0  0  0  0  0  0  0
  162.4070  204.2380  145.2040 C   0  0  0  0  0  3  0  0  0  0  0  0
  163.7030  204.3270  145.6680 O   0  0  0  0  0  0  0  0  0  0  0  0
  163.1910  205.3470  144.9690 O   0  0  0  0  0  0  0  0  0  0  0  0
  160.5340  201.7630  145.5970 C   0  0  0  0  0  2  0  0  0  0  0  0
  160.2740  200.2950  145.5620 C   0  0  0  0  0  3  0  0  0  0  0  0
  161.2050  199.5100  145.6160 O   0  0  0  0  0  0  0  0  0  0  0  0
  1 12  1  0  0  0  0
  2  7  1  0  0  0  0
  3 14  1  0  0  0  0
  3  1  1  0  0  0  0
  4  1  1  0  0  0  0
  4  2  1  0  0  0  0
  5  2  2  0  0  0  0
  5 10  1  0  0  0  0
  7 11  1  0  0  0  0
  7 13  2  0  0  0  0
  8 15  2  0  0  0  0
  9 13  1  0  0  0  0
  9  8  1  0  0  0  0
 10  9  2  0  0  0  0
 12 21  1  1  0  0  0
 12 11  1  0  0  0  0
 13 16  1  0  0  0  0
 14  1  1  0  0  0  0
 15  6  1  0  0  0  0
 16  6  1  0  0  0  0
 17 19  2  0  0  0  0
 20 26  2  0  0  0  0
 21 24  1  0  0  0  0
 22 17  1  0  0  0  0
 23 20  1  0  0  0  0
 23 21  2  0  0  0  0
 24 25  1  1  0  0  0
 24 17  1  0  0  0  0
 26 18  1  0  0  0  0
 26 22  1  0  0  0  0
 27 28  1  0  0  0  0
 27  4  1  0  0  0  0
 29 27  1  0  0  0  0
 29 28  1  0  0  0  0
 30  5  1  0  0  0  0
 31 30  1  0  0  0  0
 31 32  2  0  0  0  0
M  END
>  <MODEL>
9

>  <REMARK>
 VINA RESULT:      -3.9      5.201     10.508
  Name = 
  4 active torsions:
  status: ('A' for Active; 'I' for Inactive)
    1  A    between atoms: N_5  and  C_14
    2  A    between atoms: C_6  and  C_29
    3  A    between atoms: C_13  and  C_29
    4  A    between atoms: C_16  and  C_27
                            x       y       z     vdW  Elec       q    Type
                         _______ _______ _______ _____ _____    ______ ____

>  <TORSDO>
F 4

$$$$
