=
 OpenBabel11062408473D

 55 60  0  0  1  0  0  0  0  0999 V2000
  161.1740  205.6170  148.8760 C   0  0  0  0  0  3  0  0  0  0  0  0
  161.9520  205.4550  146.1920 C   0  0  0  0  0  0  0  0  0  0  0  0
  162.1530  206.6400  146.9120 C   0  0  0  0  0  3  0  0  0  0  0  0
  160.9780  204.4320  148.1620 C   0  0  0  0  0  3  0  0  0  0  0  0
  161.7630  206.7230  148.2530 C   0  0  0  0  0  0  0  0  0  0  0  0
  161.3710  204.3500  146.8220 C   0  0  0  0  0  3  0  0  0  0  0  0
  162.3680  205.3610  144.7620 C   0  0  0  0  0  2  0  0  0  0  0  0
  161.4120  206.1230  143.8520 C   0  0  0  0  0  2  0  0  0  0  0  0
  161.5730  205.6940  142.4000 C   0  0  0  0  0  2  0  0  0  0  0  0
  161.8570  206.8910  141.5030 C   0  0  0  0  0  2  0  0  0  0  0  0
  162.5520  206.4570  140.2250 C   0  0  0  0  0  2  0  0  0  0  0  0
  161.8620  207.0820  139.0310 C   0  0  0  0  0  2  0  0  0  0  0  0
  161.3210  208.3240  139.3930 O   0  0  0  0  0  0  0  0  0  0  0  0
  161.4570  209.2100  138.3020 C   0  0  1  0  0  3  0  0  0  0  0  0
  160.7700  208.7560  137.0110 C   0  0  0  0  0  1  0  0  0  0  0  0
  163.5900  211.7320  138.5960 O   0  0  0  0  0  1  0  0  0  0  0  0
  161.3820  210.7140  138.6570 C   0  0  1  0  0  0  0  0  0  0  0  0
  161.2160  212.1840  142.9970 C   0  0  0  0  0  3  0  0  0  0  0  0
  163.1100  210.3320  140.3230 F   0  0  0  0  0  0  0  0  0  0  0  0
  162.5830  211.2680  139.4480 C   0  0  1  0  0  0  0  0  0  0  0  0
  162.3430  212.8070  142.6710 C   0  0  0  0  0  3  0  0  0  0  0  0
  162.8070  212.8070  141.3510 O   0  0  0  0  0  0  0  0  0  0  0  0
  160.5600  212.0270  140.5900 C   0  0  2  0  0  3  0  0  0  0  0  0
  161.9950  212.4280  140.2290 C   0  0  2  0  0  3  0  0  0  0  0  0
  161.2530  211.4340  137.4750 F   0  0  0  0  0  0  0  0  0  0  0  0
  160.4850  211.3790  141.9720 C   0  0  0  0  0  2  0  0  0  0  0  0
  160.1650  210.9730  139.5610 C   0  0  1  0  0  3  0  0  0  0  0  0
  158.9270  211.3640  138.8050 C   0  0  0  0  0  3  0  0  0  0  0  0
  157.8440  212.0320  139.4690 S   0  0  0  0  0  0  0  0  0  0  0  0
  162.0170  207.9790  149.0170 C   0  0  0  0  0  2  0  0  0  0  0  0
  161.2880  207.9620  150.3550 C   0  0  0  0  0  2  0  0  0  0  0  0
  162.2710  207.8550  151.5130 C   0  0  0  0  0  2  0  0  0  0  0  0
  161.6200  208.3120  152.8180 C   0  0  1  0  0  3  0  0  0  0  0  0
  161.4420  210.8280  154.4080 C   0  0  0  0  0  2  0  0  0  0  0  0
  159.6590  212.2190  154.6720 C   0  0  2  0  0  3  0  0  0  0  0  0
  160.3850  210.4230  153.4210 C   0  0  1  0  0  0  0  0  0  0  0  0
  160.4080  209.1920  152.5260 C   0  0  1  0  0  3  0  0  0  0  0  0
  159.1490  211.1960  153.6700 C   0  0  0  0  0  2  0  0  0  0  0  0
  160.8420  211.7490  155.2940 O   0  0  0  0  0  0  0  0  0  0  0  0
  160.8620  210.5480  151.9910 C   0  0  0  0  0  2  0  0  0  0  0  0
  158.6110  212.5200  155.6910 C   0  0  0  0  0  0  0  0  0  0  0  0
  157.6910  213.5340  155.4460 O   0  0  0  0  0  0  0  0  0  0  0  0
  158.5330  211.8420  156.7550 O   0  0  0  0  0  1  0  0  0  0  0  0
  161.2480  207.1510  153.7550 C   0  0  1  0  0  3  0  0  0  0  0  0
  161.4550  207.8100  156.0750 O   0  0  0  0  0  1  0  0  0  0  0  0
  160.5380  207.5890  155.0410 C   0  0  0  0  0  2  0  0  0  0  0  0
  160.4900  206.0500  153.0250 C   0  0  0  0  0  2  0  0  0  0  0  0
  161.1830  204.8150  153.1540 O   0  0  0  0  0  0  0  0  0  0  0  0
  162.4380  204.3290  151.2980 O   0  0  0  0  0  0  0  0  0  0  0  0
  161.4860  204.0070  152.0560 C   0  0  0  0  0  0  0  0  0  0  0  0
  160.7400  202.7410  151.7810 C   0  0  0  0  0  2  0  0  0  0  0  0
  160.9870  200.9750  150.0700 C   0  0  2  0  0  3  0  0  0  0  0  0
  161.5700  200.7800  148.6890 C   0  0  0  0  0  1  0  0  0  0  0  0
  159.5820  201.5310  149.9510 C   0  0  0  0  0  2  0  0  0  0  0  0
  160.7330  202.4540  150.2900 C   0  0  1  0  0  3  0  0  0  0  0  0
  2  6  2  0  0  0  0
  2  3  1  0  0  0  0
  3  5  2  0  0  0  0
  4  1  2  0  0  0  0
  5  1  1  0  0  0  0
  5 30  1  0  0  0  0
  6  4  1  0  0  0  0
  7  2  1  0  0  0  0
  8  7  1  0  0  0  0
  9  8  1  0  0  0  0
 10  9  1  0  0  0  0
 11 10  1  0  0  0  0
 12 13  1  0  0  0  0
 12 11  1  0  0  0  0
 14 15  1  6  0  0  0
 14 17  1  0  0  0  0
 14 13  1  0  0  0  0
 17 25  1  6  0  0  0
 17 20  1  0  0  0  0
 17 27  1  0  0  0  0
 20 16  1  6  0  0  0
 20 24  1  0  0  0  0
 20 19  1  0  0  0  0
 21 18  2  0  0  0  0
 22 21  1  0  0  0  0
 23 26  1  1  0  0  0
 24 23  1  0  0  0  0
 24 22  1  1  0  0  0
 26 18  1  0  0  0  0
 27 28  1  6  0  0  0
 27 23  1  0  0  0  0
 28 29  2  0  0  0  0
 30 31  1  0  0  0  0
 31 32  1  0  0  0  0
 33 32  1  6  0  0  0
 33 44  1  0  0  0  0
 34 39  1  0  0  0  0
 35 39  1  0  0  0  0
 35 41  1  1  0  0  0
 36 40  1  6  0  0  0
 36 38  1  0  0  0  0
 36 34  1  0  0  0  0
 37 33  1  1  0  0  0
 37 36  1  0  0  0  0
 38 35  1  0  0  0  0
 40 37  1  0  0  0  0
 41 43  1  0  0  0  0
 42 41  2  0  0  0  0
 44 47  1  6  0  0  0
 44 46  1  0  0  0  0
 46 45  1  0  0  0  0
 47 48  1  0  0  0  0
 49 50  2  0  0  0  0
 50 48  1  0  0  0  0
 51 50  1  0  0  0  0
 52 53  1  6  0  0  0
 52 55  1  0  0  0  0
 54 52  1  0  0  0  0
 54 55  1  0  0  0  0
 55 51  1  1  0  0  0
M  END
>  <MODEL>
1

>  <REMARK>
 VINA RESULT:      -6.7      0.000      0.000
  Name = 
  23 active torsions:
  status: ('A' for Active; 'I' for Inactive)
    1  A    between atoms: C_1  and  C_53
    2  A    between atoms: C_2  and  C_28
    3  A    between atoms: C_2  and  C_44
    4  A    between atoms: C_6  and  C_20
    5  A    between atoms: O_7  and  C_20
    6  A    between atoms: O_7  and  C_22
    7  A    between atoms: C_8  and  C_22
    8  A    between atoms: C_8  and  C_35
    9  A    between atoms: C_10  and  C_32
   10  A    between atoms: C_16  and  C_17
   11  A    between atoms: C_16  and  O_26
   12  A    between atoms: C_17  and  C_23
   13  A    between atoms: C_17  and  C_33
   14  A    between atoms: C_19  and  C_40
   15  A    between atoms: C_19  and  C_45
   16  A    between atoms: O_26  and  C_45
   17  A    between atoms: C_27  and  C_54
   18  A    between atoms: C_28  and  C_49
   19  A    between atoms: C_33  and  C_36
   20  A    between atoms: C_33  and  C_49
   21  A    between atoms: C_35  and  C_43
   22  A    between atoms: C_43  and  C_51
   23  A    between atoms: C_51  and  C_54
                            x       y       z     vdW  Elec       q    Type
                         _______ _______ _______ _____ _____    ______ ____

>  <TORSDO>
F 23

$$$$
=
 OpenBabel11062408473D

 55 60  0  0  1  0  0  0  0  0999 V2000
  160.5160  211.9830  147.9050 C   0  0  0  0  0  3  0  0  0  0  0  0
  161.9870  213.4110  146.0000 C   0  0  0  0  0  0  0  0  0  0  0  0
  162.6370  212.8190  147.0910 C   0  0  0  0  0  3  0  0  0  0  0  0
  159.8670  212.5680  146.8150 C   0  0  0  0  0  3  0  0  0  0  0  0
  161.9030  212.1060  148.0450 C   0  0  0  0  0  0  0  0  0  0  0  0
  160.6030  213.2770  145.8600 C   0  0  0  0  0  3  0  0  0  0  0  0
  162.7680  214.1710  144.9790 C   0  0  0  0  0  2  0  0  0  0  0  0
  163.1940  213.2730  143.8230 C   0  0  0  0  0  2  0  0  0  0  0  0
  162.1480  213.2640  142.7170 C   0  0  0  0  0  2  0  0  0  0  0  0
  162.2100  211.9720  141.9140 C   0  0  0  0  0  2  0  0  0  0  0  0
  161.7950  212.2100  140.4730 C   0  0  0  0  0  2  0  0  0  0  0  0
  160.4640  212.9320  140.4380 C   0  0  0  0  0  2  0  0  0  0  0  0
  159.4240  212.0210  140.6760 O   0  0  0  0  0  0  0  0  0  0  0  0
  158.1980  212.6420  140.3500 C   0  0  1  0  0  3  0  0  0  0  0  0
  158.1340  214.1420  140.6480 C   0  0  0  0  0  1  0  0  0  0  0  0
  155.7850  213.6770  138.3250 O   0  0  0  0  0  1  0  0  0  0  0  0
  157.5320  212.1460  139.0450 C   0  0  1  0  0  0  0  0  0  0  0  0
  154.2370  208.9560  139.0570 C   0  0  0  0  0  3  0  0  0  0  0  0
  155.3770  212.3740  140.1450 F   0  0  0  0  0  0  0  0  0  0  0  0
  156.0230  212.4340  138.9210 C   0  0  1  0  0  0  0  0  0  0  0  0
  153.5130  209.9180  138.4960 C   0  0  0  0  0  3  0  0  0  0  0  0
  154.0980  211.1320  138.1210 O   0  0  0  0  0  0  0  0  0  0  0  0
  156.3530  210.0820  138.3460 C   0  0  2  0  0  3  0  0  0  0  0  0
  155.5170  211.3250  138.0190 C   0  0  2  0  0  3  0  0  0  0  0  0
  158.1910  212.7310  137.9710 F   0  0  0  0  0  0  0  0  0  0  0  0
  155.6720  209.2040  139.3950 C   0  0  0  0  0  2  0  0  0  0  0  0
  157.6460  210.6140  138.9550 C   0  0  1  0  0  3  0  0  0  0  0  0
  158.8560  210.1460  138.1990 C   0  0  0  0  0  3  0  0  0  0  0  0
  158.7610  209.0570  137.2680 S   0  0  0  0  0  0  0  0  0  0  0  0
  162.6130  211.4500  149.1820 C   0  0  0  0  0  2  0  0  0  0  0  0
  161.6240  210.9540  150.2300 C   0  0  0  0  0  2  0  0  0  0  0  0
  162.1540  209.7160  150.9400 C   0  0  0  0  0  2  0  0  0  0  0  0
  161.0030  208.8780  151.4950 C   0  0  1  0  0  3  0  0  0  0  0  0
  161.8470  208.2280  148.7100 C   0  0  0  0  0  2  0  0  0  0  0  0
  161.8830  206.2030  147.6730 C   0  0  2  0  0  3  0  0  0  0  0  0
  161.6150  207.1690  149.7490 C   0  0  1  0  0  0  0  0  0  0  0  0
  161.2360  207.3990  151.2060 C   0  0  1  0  0  3  0  0  0  0  0  0
  161.4690  205.8520  149.0930 C   0  0  0  0  0  2  0  0  0  0  0  0
  161.7490  207.5950  147.4530 O   0  0  0  0  0  0  0  0  0  0  0  0
  162.6920  207.1660  150.8110 C   0  0  0  0  0  2  0  0  0  0  0  0
  161.0720  205.4310  146.6860 C   0  0  0  0  0  0  0  0  0  0  0  0
  160.2770  206.1140  145.7710 O   0  0  0  0  0  0  0  0  0  0  0  0
  161.1270  204.1680  146.6540 O   0  0  0  0  0  1  0  0  0  0  0  0
  160.7410  209.1150  152.9920 C   0  0  1  0  0  3  0  0  0  0  0  0
  160.0420  207.6400  154.7800 O   0  0  0  0  0  1  0  0  0  0  0  0
  161.0810  207.9150  153.8830 C   0  0  0  0  0  2  0  0  0  0  0  0
  161.3900  210.4020  153.4870 C   0  0  0  0  0  2  0  0  0  0  0  0
  160.4200  211.4390  153.5560 O   0  0  0  0  0  0  0  0  0  0  0  0
  159.5910  210.8570  155.6130 O   0  0  0  0  0  0  0  0  0  0  0  0
  159.7320  211.7450  154.7320 C   0  0  0  0  0  0  0  0  0  0  0  0
  159.1970  213.1160  154.9960 C   0  0  0  0  0  2  0  0  0  0  0  0
  156.9500  214.1280  154.8270 C   0  0  2  0  0  3  0  0  0  0  0  0
  155.7580  214.4440  155.7010 C   0  0  0  0  0  1  0  0  0  0  0  0
  156.8450  212.6990  154.3290 C   0  0  0  0  0  2  0  0  0  0  0  0
  157.7630  213.0310  155.4860 C   0  0  1  0  0  3  0  0  0  0  0  0
  1  5  1  0  0  0  0
  2  3  1  0  0  0  0
  3  5  2  0  0  0  0
  4  1  2  0  0  0  0
  5 30  1  0  0  0  0
  6  2  2  0  0  0  0
  6  4  1  0  0  0  0
  7  2  1  0  0  0  0
  8  7  1  0  0  0  0
  9  8  1  0  0  0  0
 10  9  1  0  0  0  0
 11 10  1  0  0  0  0
 12 11  1  0  0  0  0
 12 13  1  0  0  0  0
 14 15  1  6  0  0  0
 14 13  1  0  0  0  0
 17 25  1  6  0  0  0
 17 14  1  0  0  0  0
 18 26  1  0  0  0  0
 20 16  1  6  0  0  0
 20 17  1  0  0  0  0
 20 19  1  0  0  0  0
 21 18  2  0  0  0  0
 22 21  1  0  0  0  0
 23 27  1  0  0  0  0
 23 26  1  1  0  0  0
 24 22  1  1  0  0  0
 24 23  1  0  0  0  0
 24 20  1  0  0  0  0
 27 28  1  6  0  0  0
 27 17  1  0  0  0  0
 29 28  2  0  0  0  0
 30 31  1  0  0  0  0
 31 32  1  0  0  0  0
 33 32  1  1  0  0  0
 33 44  1  0  0  0  0
 35 41  1  6  0  0  0
 35 38  1  0  0  0  0
 36 34  1  6  0  0  0
 36 40  1  0  0  0  0
 36 37  1  0  0  0  0
 37 33  1  6  0  0  0
 38 36  1  0  0  0  0
 39 35  1  0  0  0  0
 39 34  1  0  0  0  0
 40 37  1  0  0  0  0
 42 41  2  0  0  0  0
 43 41  1  0  0  0  0
 44 47  1  1  0  0  0
 44 46  1  0  0  0  0
 46 45  1  0  0  0  0
 47 48  1  0  0  0  0
 48 50  1  0  0  0  0
 50 51  1  0  0  0  0
 50 49  2  0  0  0  0
 52 55  1  0  0  0  0
 52 53  1  1  0  0  0
 54 52  1  0  0  0  0
 54 55  1  0  0  0  0
 55 51  1  6  0  0  0
M  END
>  <MODEL>
2

>  <REMARK>
 VINA RESULT:      -5.1      3.260      7.654
  Name = 
  23 active torsions:
  status: ('A' for Active; 'I' for Inactive)
    1  A    between atoms: C_1  and  C_53
    2  A    between atoms: C_2  and  C_28
    3  A    between atoms: C_2  and  C_44
    4  A    between atoms: C_6  and  C_20
    5  A    between atoms: O_7  and  C_20
    6  A    between atoms: O_7  and  C_22
    7  A    between atoms: C_8  and  C_22
    8  A    between atoms: C_8  and  C_35
    9  A    between atoms: C_10  and  C_32
   10  A    between atoms: C_16  and  C_17
   11  A    between atoms: C_16  and  O_26
   12  A    between atoms: C_17  and  C_23
   13  A    between atoms: C_17  and  C_33
   14  A    between atoms: C_19  and  C_40
   15  A    between atoms: C_19  and  C_45
   16  A    between atoms: O_26  and  C_45
   17  A    between atoms: C_27  and  C_54
   18  A    between atoms: C_28  and  C_49
   19  A    between atoms: C_33  and  C_36
   20  A    between atoms: C_33  and  C_49
   21  A    between atoms: C_35  and  C_43
   22  A    between atoms: C_43  and  C_51
   23  A    between atoms: C_51  and  C_54
                            x       y       z     vdW  Elec       q    Type
                         _______ _______ _______ _____ _____    ______ ____

>  <TORSDO>
F 23

$$$$
=
 OpenBabel11062408473D

 55 60  0  0  1  0  0  0  0  0999 V2000
  163.1930  212.3560  148.2600 C   0  0  0  0  0  3  0  0  0  0  0  0
  160.8580  212.6710  146.7490 C   0  0  0  0  0  0  0  0  0  0  0  0
  160.8110  212.0220  147.9900 C   0  0  0  0  0  3  0  0  0  0  0  0
  163.2420  213.0080  147.0250 C   0  0  0  0  0  3  0  0  0  0  0  0
  161.9770  211.8620  148.7460 C   0  0  0  0  0  0  0  0  0  0  0  0
  162.0740  213.1700  146.2730 C   0  0  0  0  0  3  0  0  0  0  0  0
  159.6150  212.8450  145.9410 C   0  0  0  0  0  2  0  0  0  0  0  0
  159.5820  214.2090  145.2600 C   0  0  0  0  0  2  0  0  0  0  0  0
  159.6010  214.0670  143.7440 C   0  0  0  0  0  2  0  0  0  0  0  0
  159.4820  212.6070  143.3280 C   0  0  0  0  0  2  0  0  0  0  0  0
  160.8530  211.9690  143.1910 C   0  0  0  0  0  2  0  0  0  0  0  0
  161.4420  212.3120  141.8390 C   0  0  0  0  0  2  0  0  0  0  0  0
  160.7550  211.6160  140.8330 O   0  0  0  0  0  0  0  0  0  0  0  0
  161.4980  211.7060  139.6350 C   0  0  1  0  0  3  0  0  0  0  0  0
  162.9650  211.2850  139.7520 C   0  0  0  0  0  1  0  0  0  0  0  0
  160.0600  213.2500  137.0770 O   0  0  0  0  0  1  0  0  0  0  0  0
  160.7380  211.2940  138.3520 C   0  0  1  0  0  0  0  0  0  0  0  0
  156.2790  210.2230  138.4040 C   0  0  0  0  0  3  0  0  0  0  0  0
  158.9510  212.8030  139.0130 F   0  0  0  0  0  0  0  0  0  0  0  0
  159.5980  212.2380  137.9250 C   0  0  1  0  0  0  0  0  0  0  0  0
  156.1790  211.2450  137.5600 C   0  0  0  0  0  3  0  0  0  0  0  0
  157.3220  211.8860  137.0690 O   0  0  0  0  0  0  0  0  0  0  0  0
  158.7060  209.9640  137.8610 C   0  0  2  0  0  3  0  0  0  0  0  0
  158.6430  211.3330  137.1730 C   0  0  2  0  0  3  0  0  0  0  0  0
  161.6570  211.2010  137.3140 F   0  0  0  0  0  0  0  0  0  0  0  0
  157.6200  209.8160  138.9260 C   0  0  0  0  0  2  0  0  0  0  0  0
  160.0560  209.9310  138.5690 C   0  0  1  0  0  3  0  0  0  0  0  0
  160.8930  208.7650  138.1280 C   0  0  0  0  0  3  0  0  0  0  0  0
  161.4740  207.8750  139.0930 S   0  0  0  0  0  0  0  0  0  0  0  0
  161.9050  211.2020  150.0820 C   0  0  0  0  0  2  0  0  0  0  0  0
  162.6200  209.8570  150.0660 C   0  0  0  0  0  2  0  0  0  0  0  0
  161.6750  208.7290  150.4580 C   0  0  0  0  0  2  0  0  0  0  0  0
  162.3620  207.3720  150.3090 C   0  0  1  0  0  3  0  0  0  0  0  0
  160.5530  208.4370  152.4260 C   0  0  0  0  0  2  0  0  0  0  0  0
  160.6080  208.0510  154.6690 C   0  0  2  0  0  3  0  0  0  0  0  0
  161.5180  207.3160  152.6810 C   0  0  1  0  0  0  0  0  0  0  0  0
  162.4420  206.6680  151.6590 C   0  0  1  0  0  3  0  0  0  0  0  0
  161.7060  207.1420  154.1380 C   0  0  0  0  0  2  0  0  0  0  0  0
  160.2340  208.9970  153.6820 O   0  0  0  0  0  0  0  0  0  0  0  0
  161.0950  206.0330  152.0000 C   0  0  0  0  0  2  0  0  0  0  0  0
  161.0550  208.7370  155.9160 C   0  0  0  0  0  0  0  0  0  0  0  0
  160.2800  209.7640  156.4470 O   0  0  0  0  0  0  0  0  0  0  0  0
  162.1090  208.3710  156.5100 O   0  0  0  0  0  1  0  0  0  0  0  0
  161.7070  206.4690  149.2500 C   0  0  1  0  0  3  0  0  0  0  0  0
  159.8860  206.1880  147.6800 O   0  0  0  0  0  1  0  0  0  0  0  0
  160.4530  207.0710  148.6050 C   0  0  0  0  0  2  0  0  0  0  0  0
  162.7120  205.9840  148.2140 C   0  0  0  0  0  2  0  0  0  0  0  0
  162.2730  206.3380  146.9090 O   0  0  0  0  0  0  0  0  0  0  0  0
  162.0110  205.8190  144.6920 O   0  0  0  0  0  0  0  0  0  0  0  0
  162.1900  205.4100  145.8680 C   0  0  0  0  0  0  0  0  0  0  0  0
  162.3560  203.9440  146.1060 C   0  0  0  0  0  2  0  0  0  0  0  0
  160.9610  202.0370  145.3820 C   0  0  2  0  0  3  0  0  0  0  0  0
  159.5240  201.7260  145.0340 C   0  0  0  0  0  1  0  0  0  0  0  0
  161.1560  201.9160  146.8810 C   0  0  0  0  0  2  0  0  0  0  0  0
  160.9980  203.2820  146.2470 C   0  0  1  0  0  3  0  0  0  0  0  0
  1  5  1  0  0  0  0
  2  3  1  0  0  0  0
  3  5  2  0  0  0  0
  4  1  2  0  0  0  0
  5 30  1  0  0  0  0
  6  2  2  0  0  0  0
  6  4  1  0  0  0  0
  7  2  1  0  0  0  0
  8  7  1  0  0  0  0
  9  8  1  0  0  0  0
 10  9  1  0  0  0  0
 11 10  1  0  0  0  0
 12 11  1  0  0  0  0
 13 12  1  0  0  0  0
 14 15  1  1  0  0  0
 14 13  1  0  0  0  0
 17 25  1  6  0  0  0
 17 27  1  0  0  0  0
 17 14  1  0  0  0  0
 18 26  1  0  0  0  0
 20 16  1  6  0  0  0
 20 17  1  0  0  0  0
 20 19  1  0  0  0  0
 21 18  2  0  0  0  0
 22 21  1  0  0  0  0
 23 27  1  0  0  0  0
 23 26  1  1  0  0  0
 24 22  1  1  0  0  0
 24 23  1  0  0  0  0
 24 20  1  0  0  0  0
 27 28  1  6  0  0  0
 28 29  2  0  0  0  0
 31 30  1  0  0  0  0
 31 32  1  0  0  0  0
 33 32  1  1  0  0  0
 34 36  1  0  0  0  0
 34 39  1  0  0  0  0
 35 41  1  1  0  0  0
 36 40  1  6  0  0  0
 36 38  1  0  0  0  0
 37 33  1  6  0  0  0
 37 40  1  0  0  0  0
 37 36  1  0  0  0  0
 38 35  1  0  0  0  0
 39 35  1  0  0  0  0
 41 42  2  0  0  0  0
 41 43  1  0  0  0  0
 44 47  1  6  0  0  0
 44 33  1  0  0  0  0
 45 46  1  0  0  0  0
 46 44  1  0  0  0  0
 48 47  1  0  0  0  0
 49 50  2  0  0  0  0
 50 51  1  0  0  0  0
 50 48  1  0  0  0  0
 52 53  1  1  0  0  0
 52 55  1  0  0  0  0
 52 54  1  0  0  0  0
 55 51  1  6  0  0  0
 55 54  1  0  0  0  0
M  END
>  <MODEL>
3

>  <REMARK>
 VINA RESULT:      -4.3      2.750      5.418
  Name = 
  23 active torsions:
  status: ('A' for Active; 'I' for Inactive)
    1  A    between atoms: C_1  and  C_53
    2  A    between atoms: C_2  and  C_28
    3  A    between atoms: C_2  and  C_44
    4  A    between atoms: C_6  and  C_20
    5  A    between atoms: O_7  and  C_20
    6  A    between atoms: O_7  and  C_22
    7  A    between atoms: C_8  and  C_22
    8  A    between atoms: C_8  and  C_35
    9  A    between atoms: C_10  and  C_32
   10  A    between atoms: C_16  and  C_17
   11  A    between atoms: C_16  and  O_26
   12  A    between atoms: C_17  and  C_23
   13  A    between atoms: C_17  and  C_33
   14  A    between atoms: C_19  and  C_40
   15  A    between atoms: C_19  and  C_45
   16  A    between atoms: O_26  and  C_45
   17  A    between atoms: C_27  and  C_54
   18  A    between atoms: C_28  and  C_49
   19  A    between atoms: C_33  and  C_36
   20  A    between atoms: C_33  and  C_49
   21  A    between atoms: C_35  and  C_43
   22  A    between atoms: C_43  and  C_51
   23  A    between atoms: C_51  and  C_54
                            x       y       z     vdW  Elec       q    Type
                         _______ _______ _______ _____ _____    ______ ____

>  <TORSDO>
F 23

$$$$
=
 OpenBabel11062408473D

 55 60  0  0  1  0  0  0  0  0999 V2000
  162.1950  209.4910  152.8380 C   0  0  0  0  0  3  0  0  0  0  0  0
  161.8800  210.4300  150.2210 C   0  0  0  0  0  0  0  0  0  0  0  0
  161.1470  209.3220  150.6630 C   0  0  0  0  0  3  0  0  0  0  0  0
  162.9240  210.6000  152.4010 C   0  0  0  0  0  3  0  0  0  0  0  0
  161.3040  208.8500  151.9700 C   0  0  0  0  0  0  0  0  0  0  0  0
  162.7620  211.0720  151.0950 C   0  0  0  0  0  3  0  0  0  0  0  0
  161.7130  210.9380  148.8270 C   0  0  0  0  0  2  0  0  0  0  0  0
  162.4350  212.2660  148.6280 C   0  0  0  0  0  2  0  0  0  0  0  0
  161.4610  213.4350  148.6760 C   0  0  0  0  0  2  0  0  0  0  0  0
  160.2070  213.0720  149.4610 C   0  0  0  0  0  2  0  0  0  0  0  0
  160.1010  213.9050  150.7250 C   0  0  0  0  0  2  0  0  0  0  0  0
  158.6830  213.8470  151.2560 C   0  0  0  0  0  2  0  0  0  0  0  0
  158.6970  213.9500  152.6540 O   0  0  0  0  0  0  0  0  0  0  0  0
  158.1480  212.7680  153.1980 C   0  0  1  0  0  3  0  0  0  0  0  0
  158.3850  211.5040  152.3670 C   0  0  0  0  0  1  0  0  0  0  0  0
  159.9800  214.0970  155.6220 O   0  0  0  0  0  1  0  0  0  0  0  0
  158.2480  212.6370  154.7370 C   0  0  1  0  0  0  0  0  0  0  0  0
  160.5860  209.2400  156.7410 C   0  0  0  0  0  3  0  0  0  0  0  0
  160.6320  212.2440  154.4750 F   0  0  0  0  0  0  0  0  0  0  0  0
  159.6680  212.7670  155.3210 C   0  0  1  0  0  0  0  0  0  0  0  0
  161.2960  210.2360  157.2600 C   0  0  0  0  0  3  0  0  0  0  0  0
  160.9080  211.5680  157.0710 O   0  0  0  0  0  0  0  0  0  0  0  0
  158.6600  210.7780  156.3210 C   0  0  2  0  0  3  0  0  0  0  0  0
  159.6080  211.9510  156.5980 C   0  0  2  0  0  3  0  0  0  0  0  0
  157.4360  213.6090  155.3090 F   0  0  0  0  0  0  0  0  0  0  0  0
  159.4200  209.5370  155.8550 C   0  0  0  0  0  2  0  0  0  0  0  0
  157.7730  211.2390  155.1700 C   0  0  1  0  0  3  0  0  0  0  0  0
  156.3160  211.1840  155.5280 C   0  0  0  0  0  3  0  0  0  0  0  0
  155.4640  210.1710  154.9720 S   0  0  0  0  0  0  0  0  0  0  0  0
  160.4900  207.6910  152.4390 C   0  0  0  0  0  2  0  0  0  0  0  0
  161.3830  206.5450  152.8980 C   0  0  0  0  0  2  0  0  0  0  0  0
  162.3970  206.1770  151.8250 C   0  0  0  0  0  2  0  0  0  0  0  0
  161.6950  205.6350  150.5800 C   0  0  1  0  0  3  0  0  0  0  0  0
  160.3090  206.4140  148.0580 C   0  0  0  0  0  2  0  0  0  0  0  0
  161.0930  206.3340  145.9230 C   0  0  2  0  0  3  0  0  0  0  0  0
  161.7840  206.1390  148.1140 C   0  0  1  0  0  0  0  0  0  0  0  0
  162.5920  205.7880  149.3560 C   0  0  1  0  0  3  0  0  0  0  0  0
  162.3010  205.9180  146.7470 C   0  0  0  0  0  2  0  0  0  0  0  0
  159.9170  206.2700  146.7100 O   0  0  0  0  0  0  0  0  0  0  0  0
  162.5390  207.2260  148.8460 C   0  0  0  0  0  2  0  0  0  0  0  0
  160.9660  205.4740  144.7110 C   0  0  0  0  0  0  0  0  0  0  0  0
  161.4180  205.9490  143.4840 O   0  0  0  0  0  0  0  0  0  0  0  0
  160.4830  204.3080  144.7960 O   0  0  0  0  0  1  0  0  0  0  0  0
  161.2130  204.1830  150.7350 C   0  0  1  0  0  3  0  0  0  0  0  0
  160.9580  202.9740  152.8170 O   0  0  0  0  0  1  0  0  0  0  0  0
  160.3670  203.9360  151.9910 C   0  0  0  0  0  2  0  0  0  0  0  0
  160.5320  203.6700  149.4730 C   0  0  0  0  0  2  0  0  0  0  0  0
  160.9960  202.3620  149.1670 O   0  0  0  0  0  0  0  0  0  0  0  0
  161.7550  202.6420  147.0220 O   0  0  0  0  0  0  0  0  0  0  0  0
  161.1590  201.9110  147.8560 C   0  0  0  0  0  0  0  0  0  0  0  0
  160.6860  200.5600  147.4240 C   0  0  0  0  0  2  0  0  0  0  0  0
  160.8740  198.7880  145.7130 C   0  0  2  0  0  3  0  0  0  0  0  0
  161.9100  198.1660  144.8040 C   0  0  0  0  0  1  0  0  0  0  0  0
  160.2800  200.0100  145.0390 C   0  0  0  0  0  2  0  0  0  0  0  0
  161.3390  200.1750  146.1090 C   0  0  1  0  0  3  0  0  0  0  0  0
  2  3  2  0  0  0  0
  2  6  1  0  0  0  0
  3  5  1  0  0  0  0
  4  1  1  0  0  0  0
  5 30  1  0  0  0  0
  5  1  2  0  0  0  0
  6  4  2  0  0  0  0
  7  2  1  0  0  0  0
  8  9  1  0  0  0  0
  8  7  1  0  0  0  0
  9 10  1  0  0  0  0
 10 11  1  0  0  0  0
 11 12  1  0  0  0  0
 12 13  1  0  0  0  0
 13 14  1  0  0  0  0
 14 15  1  6  0  0  0
 14 17  1  0  0  0  0
 17 27  1  0  0  0  0
 17 25  1  1  0  0  0
 17 20  1  0  0  0  0
 18 21  2  0  0  0  0
 20 19  1  6  0  0  0
 20 16  1  0  0  0  0
 20 24  1  0  0  0  0
 22 21  1  0  0  0  0
 23 26  1  6  0  0  0
 23 24  1  0  0  0  0
 24 22  1  6  0  0  0
 26 18  1  0  0  0  0
 27 28  1  1  0  0  0
 27 23  1  0  0  0  0
 29 28  2  0  0  0  0
 30 31  1  0  0  0  0
 32 31  1  0  0  0  0
 33 44  1  0  0  0  0
 33 32  1  1  0  0  0
 34 36  1  0  0  0  0
 35 41  1  6  0  0  0
 35 39  1  0  0  0  0
 35 38  1  0  0  0  0
 36 38  1  6  0  0  0
 36 40  1  0  0  0  0
 36 37  1  0  0  0  0
 37 33  1  1  0  0  0
 39 34  1  0  0  0  0
 40 37  1  0  0  0  0
 41 43  1  0  0  0  0
 42 41  2  0  0  0  0
 44 47  1  6  0  0  0
 44 46  1  0  0  0  0
 46 45  1  0  0  0  0
 48 47  1  0  0  0  0
 49 50  2  0  0  0  0
 50 48  1  0  0  0  0
 51 50  1  0  0  0  0
 52 53  1  6  0  0  0
 52 55  1  0  0  0  0
 54 52  1  0  0  0  0
 54 55  1  0  0  0  0
 55 51  1  1  0  0  0
M  END
>  <MODEL>
4

>  <REMARK>
 VINA RESULT:      -4.1      5.547     10.939
  Name = 
  23 active torsions:
  status: ('A' for Active; 'I' for Inactive)
    1  A    between atoms: C_1  and  C_53
    2  A    between atoms: C_2  and  C_28
    3  A    between atoms: C_2  and  C_44
    4  A    between atoms: C_6  and  C_20
    5  A    between atoms: O_7  and  C_20
    6  A    between atoms: O_7  and  C_22
    7  A    between atoms: C_8  and  C_22
    8  A    between atoms: C_8  and  C_35
    9  A    between atoms: C_10  and  C_32
   10  A    between atoms: C_16  and  C_17
   11  A    between atoms: C_16  and  O_26
   12  A    between atoms: C_17  and  C_23
   13  A    between atoms: C_17  and  C_33
   14  A    between atoms: C_19  and  C_40
   15  A    between atoms: C_19  and  C_45
   16  A    between atoms: O_26  and  C_45
   17  A    between atoms: C_27  and  C_54
   18  A    between atoms: C_28  and  C_49
   19  A    between atoms: C_33  and  C_36
   20  A    between atoms: C_33  and  C_49
   21  A    between atoms: C_35  and  C_43
   22  A    between atoms: C_43  and  C_51
   23  A    between atoms: C_51  and  C_54
                            x       y       z     vdW  Elec       q    Type
                         _______ _______ _______ _____ _____    ______ ____

>  <TORSDO>
F 23

$$$$
=
 OpenBabel11062408473D

 55 60  0  0  1  0  0  0  0  0999 V2000
  162.5780  206.7120  152.8210 C   0  0  0  0  0  3  0  0  0  0  0  0
  160.8480  204.8640  151.6260 C   0  0  0  0  0  0  0  0  0  0  0  0
  160.3360  206.0270  152.2160 C   0  0  0  0  0  3  0  0  0  0  0  0
  163.0910  205.5550  152.2290 C   0  0  0  0  0  3  0  0  0  0  0  0
  161.1990  206.9510  152.8140 C   0  0  0  0  0  0  0  0  0  0  0  0
  162.2270  204.6340  151.6270 C   0  0  0  0  0  3  0  0  0  0  0  0
  159.9310  203.8770  150.9840 C   0  0  0  0  0  2  0  0  0  0  0  0
  160.6910  202.6510  150.4890 C   0  0  0  0  0  2  0  0  0  0  0  0
  159.7870  201.7360  149.6740 C   0  0  0  0  0  2  0  0  0  0  0  0
  160.3740  200.3340  149.5730 C   0  0  0  0  0  2  0  0  0  0  0  0
  161.6310  200.3340  148.7220 C   0  0  0  0  0  2  0  0  0  0  0  0
  161.3350  200.9600  147.3750 C   0  0  0  0  0  2  0  0  0  0  0  0
  162.0060  202.1860  147.2660 O   0  0  0  0  0  0  0  0  0  0  0  0
  161.7120  202.7510  146.0050 C   0  0  1  0  0  3  0  0  0  0  0  0
  160.4300  202.2300  145.3480 C   0  0  0  0  0  1  0  0  0  0  0  0
  164.3240  204.7360  146.4850 O   0  0  0  0  0  1  0  0  0  0  0  0
  162.0210  204.2600  145.8660 C   0  0  1  0  0  0  0  0  0  0  0  0
  160.8940  207.2840  149.1240 C   0  0  0  0  0  3  0  0  0  0  0  0
  162.8570  204.2250  148.1470 F   0  0  0  0  0  0  0  0  0  0  0  0
  162.9950  204.8350  146.9110 C   0  0  1  0  0  0  0  0  0  0  0  0
  162.2030  207.5080  149.1570 C   0  0  0  0  0  3  0  0  0  0  0  0
  163.0580  206.9130  148.2220 O   0  0  0  0  0  0  0  0  0  0  0  0
  161.0760  206.3440  146.8140 C   0  0  2  0  0  3  0  0  0  0  0  0
  162.5950  206.2950  147.0120 C   0  0  2  0  0  3  0  0  0  0  0  0
  162.5420  204.4820  144.5960 F   0  0  0  0  0  0  0  0  0  0  0  0
  160.3310  206.3030  148.1470 C   0  0  0  0  0  2  0  0  0  0  0  0
  160.7270  205.0730  146.0480 C   0  0  1  0  0  3  0  0  0  0  0  0
  160.0190  205.3720  144.7570 C   0  0  0  0  0  3  0  0  0  0  0  0
  160.7590  205.5430  143.5390 S   0  0  0  0  0  0  0  0  0  0  0  0
  160.6430  208.2030  153.4060 C   0  0  0  0  0  2  0  0  0  0  0  0
  160.4350  209.2680  152.3370 C   0  0  0  0  0  2  0  0  0  0  0  0
  160.8290  210.6450  152.8530 C   0  0  0  0  0  2  0  0  0  0  0  0
  159.5940  211.5300  153.0270 C   0  0  1  0  0  3  0  0  0  0  0  0
  157.2160  211.0800  154.7690 C   0  0  0  0  0  2  0  0  0  0  0  0
  156.5880  212.2180  156.6370 C   0  0  2  0  0  3  0  0  0  0  0  0
  158.3520  211.9750  155.1720 C   0  0  1  0  0  0  0  0  0  0  0  0
  159.6290  212.2270  154.3830 C   0  0  1  0  0  3  0  0  0  0  0  0
  157.9250  212.8510  156.2850 C   0  0  0  0  0  2  0  0  0  0  0  0
  156.1000  211.4620  155.5430 O   0  0  0  0  0  0  0  0  0  0  0  0
  159.6040  211.1930  155.5050 C   0  0  0  0  0  2  0  0  0  0  0  0
  155.6040  213.2670  157.0360 C   0  0  0  0  0  0  0  0  0  0  0  0
  154.2650  212.9220  157.1990 O   0  0  0  0  0  0  0  0  0  0  0  0
  155.9800  214.4530  157.2590 O   0  0  0  0  0  1  0  0  0  0  0  0
  159.4030  212.5440  151.8870 C   0  0  1  0  0  3  0  0  0  0  0  0
  157.4980  214.0160  151.6360 O   0  0  0  0  0  1  0  0  0  0  0  0
  158.7090  213.8420  152.3150 C   0  0  0  0  0  2  0  0  0  0  0  0
  160.7010  212.8070  151.1340 C   0  0  0  0  0  2  0  0  0  0  0  0
  160.4350  213.5440  149.9490 O   0  0  0  0  0  0  0  0  0  0  0  0
  162.0780  212.5000  148.7390 O   0  0  0  0  0  0  0  0  0  0  0  0
  161.1220  213.3180  148.7540 C   0  0  0  0  0  0  0  0  0  0  0  0
  160.7230  213.9870  147.4780 C   0  0  0  0  0  2  0  0  0  0  0  0
  159.1730  213.8970  145.5550 C   0  0  2  0  0  3  0  0  0  0  0  0
  157.6900  213.8350  145.2710 C   0  0  0  0  0  1  0  0  0  0  0  0
  159.7030  212.4940  145.7800 C   0  0  0  0  0  2  0  0  0  0  0  0
  159.4230  213.3950  146.9640 C   0  0  1  0  0  3  0  0  0  0  0  0
  2  6  2  0  0  0  0
  2  3  1  0  0  0  0
  3  5  2  0  0  0  0
  4  1  2  0  0  0  0
  5  1  1  0  0  0  0
  5 30  1  0  0  0  0
  6  4  1  0  0  0  0
  7  2  1  0  0  0  0
  8  7  1  0  0  0  0
  9  8  1  0  0  0  0
 10  9  1  0  0  0  0
 11 10  1  0  0  0  0
 12 11  1  0  0  0  0
 13 12  1  0  0  0  0
 14 15  1  1  0  0  0
 14 13  1  0  0  0  0
 17 25  1  6  0  0  0
 17 14  1  0  0  0  0
 17 27  1  0  0  0  0
 17 20  1  0  0  0  0
 18 21  2  0  0  0  0
 20 16  1  6  0  0  0
 20 24  1  0  0  0  0
 20 19  1  0  0  0  0
 22 21  1  0  0  0  0
 23 24  1  0  0  0  0
 23 26  1  1  0  0  0
 24 22  1  1  0  0  0
 26 18  1  0  0  0  0
 27 28  1  6  0  0  0
 27 23  1  0  0  0  0
 29 28  2  0  0  0  0
 31 32  1  0  0  0  0
 31 30  1  0  0  0  0
 33 32  1  6  0  0  0
 34 39  1  0  0  0  0
 35 41  1  6  0  0  0
 36 34  1  6  0  0  0
 36 40  1  0  0  0  0
 36 38  1  0  0  0  0
 37 33  1  6  0  0  0
 37 36  1  0  0  0  0
 37 40  1  0  0  0  0
 38 35  1  0  0  0  0
 39 35  1  0  0  0  0
 41 42  2  0  0  0  0
 41 43  1  0  0  0  0
 44 47  1  1  0  0  0
 44 46  1  0  0  0  0
 44 33  1  0  0  0  0
 45 46  1  0  0  0  0
 48 47  1  0  0  0  0
 49 50  2  0  0  0  0
 50 48  1  0  0  0  0
 51 50  1  0  0  0  0
 52 53  1  1  0  0  0
 52 54  1  0  0  0  0
 52 55  1  0  0  0  0
 54 55  1  0  0  0  0
 55 51  1  6  0  0  0
M  END
>  <MODEL>
5

>  <REMARK>
 VINA RESULT:      -3.8      4.565      8.073
  Name = 
  23 active torsions:
  status: ('A' for Active; 'I' for Inactive)
    1  A    between atoms: C_1  and  C_53
    2  A    between atoms: C_2  and  C_28
    3  A    between atoms: C_2  and  C_44
    4  A    between atoms: C_6  and  C_20
    5  A    between atoms: O_7  and  C_20
    6  A    between atoms: O_7  and  C_22
    7  A    between atoms: C_8  and  C_22
    8  A    between atoms: C_8  and  C_35
    9  A    between atoms: C_10  and  C_32
   10  A    between atoms: C_16  and  C_17
   11  A    between atoms: C_16  and  O_26
   12  A    between atoms: C_17  and  C_23
   13  A    between atoms: C_17  and  C_33
   14  A    between atoms: C_19  and  C_40
   15  A    between atoms: C_19  and  C_45
   16  A    between atoms: O_26  and  C_45
   17  A    between atoms: C_27  and  C_54
   18  A    between atoms: C_28  and  C_49
   19  A    between atoms: C_33  and  C_36
   20  A    between atoms: C_33  and  C_49
   21  A    between atoms: C_35  and  C_43
   22  A    between atoms: C_43  and  C_51
   23  A    between atoms: C_51  and  C_54
                            x       y       z     vdW  Elec       q    Type
                         _______ _______ _______ _____ _____    ______ ____

>  <TORSDO>
F 23

$$$$
