=
 OpenBabel11062407403D

 27 30  0  0  1  0  0  0  0  0999 V2000
  162.4610  206.3130  148.4010 C   0  0  0  0  0  2  0  0  0  0  0  0
  161.1340  203.5680  149.2590 C   0  0  1  0  0  3  0  0  0  0  0  0
  161.8770  205.1600  150.9670 N   0  0  0  0  0  2  0  0  0  0  0  0
  160.7050  201.2070  148.3910 C   0  0  1  0  0  3  0  0  0  0  0  0
  160.2030  202.3630  149.2490 C   0  0  0  0  0  2  0  0  0  0  0  0
  161.6110  205.8660  145.4800 C   0  0  0  0  0  2  0  0  0  0  0  0
  160.9720  204.3090  147.9140 C   0  0  2  0  0  3  0  0  0  0  0  0
  161.6000  208.7880  151.8530 N   0  0  0  0  0  2  0  0  0  0  0  0
  161.8990  203.7630  146.8050 C   0  0  2  0  0  3  0  0  0  0  0  0
  161.8360  209.4120  150.5870 C   0  0  0  0  0  0  0  0  0  0  0  0
  161.0710  205.8470  147.9580 C   0  0  2  0  0  3  0  0  0  0  0  0
  160.9370  201.5830  146.9260 C   0  0  2  0  0  3  0  0  0  0  0  0
  162.4190  207.1700  149.6670 C   0  0  1  0  0  3  0  0  0  0  0  0
  160.7370  204.4080  150.4700 C   0  0  0  0  0  2  0  0  0  0  0  0
  161.7870  207.3560  152.0770 C   0  0  2  0  0  3  0  0  0  0  0  0
  161.8610  200.6550  148.9440 O   0  0  0  0  0  1  0  0  0  0  0  0
  161.8500  210.6670  150.5040 O   0  0  0  0  0  0  0  0  0  0  0  0
  161.5330  204.3410  145.4390 C   0  0  0  0  0  2  0  0  0  0  0  0
  161.9660  208.5880  149.3420 C   0  0  0  0  0  2  0  0  0  0  0  0
  162.1120  202.3620  146.7530 O   0  0  0  0  0  0  0  0  0  0  0  0
  161.5540  206.5680  150.7820 C   0  0  2  0  0  3  0  0  0  0  0  0
  160.7160  206.4340  146.5880 C   0  0  0  0  0  2  0  0  0  0  0  0
  159.6900  201.4690  145.0980 C   0  0  0  0  0  1  0  0  0  0  0  0
  159.7970  202.1300  146.3220 O   0  0  0  0  0  0  0  0  0  0  0  0
  160.8390  206.9040  153.1760 C   0  0  0  0  0  2  0  0  0  0  0  0
  160.1380  207.2510  155.7340 C   0  0  0  0  0  1  0  0  0  0  0  0
  160.9010  208.0510  154.5640 S   0  0  0  0  0  0  0  0  0  0  0  0
  1 13  1  0  0  0  0
  2  5  1  6  0  0  0
  2 14  1  0  0  0  0
  4 16  1  1  0  0  0
  4  5  1  0  0  0  0
  6 22  1  0  0  0  0
  7 11  1  0  0  0  0
  7  2  1  0  0  0  0
  8 15  1  0  0  0  0
  9  7  1  0  0  0  0
 10  8  1  0  0  0  0
 11  1  1  0  0  0  0
 12  4  1  0  0  0  0
 13 21  1  0  0  0  0
 14  3  1  0  0  0  0
 15 25  1  0  0  0  0
 17 10  2  0  0  0  0
 18  6  1  0  0  0  0
 18  9  1  0  0  0  0
 19 13  1  0  0  0  0
 19 10  1  0  0  0  0
 20  9  1  0  0  0  0
 20 12  1  0  0  0  0
 21  3  1  0  0  0  0
 21 15  1  0  0  0  0
 22 11  1  0  0  0  0
 23 24  1  0  0  0  0
 24 12  1  0  0  0  0
 25 27  1  0  0  0  0
 27 26  1  0  0  0  0
M  END
>  <MODEL>
1

>  <REMARK>
 VINA RESULT:      -8.0      0.000      0.000
  Name = 
  3 active torsions:
  status: ('A' for Active; 'I' for Inactive)
    1  A    between atoms: S_12  and  C_14
    2  A    between atoms: C_14  and  C_20
    3  A    between atoms: O_16  and  C_17
                            x       y       z     vdW  Elec       q    Type
                         _______ _______ _______ _____ _____    ______ ____

>  <TORSDO>
F 3

$$$$
=
 OpenBabel11062407403D

 27 30  0  0  1  0  0  0  0  0999 V2000
  162.4400  206.8820  148.4590 C   0  0  0  0  0  2  0  0  0  0  0  0
  161.3250  204.8300  150.5990 C   0  0  1  0  0  3  0  0  0  0  0  0
  162.2080  206.9980  151.3210 N   0  0  0  0  0  2  0  0  0  0  0  0
  160.8800  202.3390  150.9250 C   0  0  1  0  0  3  0  0  0  0  0  0
  160.4430  203.7650  151.2370 C   0  0  0  0  0  2  0  0  0  0  0  0
  161.2650  205.2030  146.1670 C   0  0  0  0  0  2  0  0  0  0  0  0
  160.9770  204.9010  149.0960 C   0  0  2  0  0  3  0  0  0  0  0  0
  161.9080  210.6470  150.5360 N   0  0  0  0  0  2  0  0  0  0  0  0
  161.7840  203.9010  148.2390 C   0  0  2  0  0  3  0  0  0  0  0  0
  161.9690  210.6410  149.1060 C   0  0  0  0  0  0  0  0  0  0  0  0
  161.0260  206.2960  148.4420 C   0  0  2  0  0  3  0  0  0  0  0  0
  160.9230  202.0210  149.4290 C   0  0  2  0  0  3  0  0  0  0  0  0
  162.5190  208.2110  149.2100 C   0  0  1  0  0  3  0  0  0  0  0  0
  161.0440  206.1280  151.3520 C   0  0  0  0  0  2  0  0  0  0  0  0
  162.1720  209.4600  151.3460 C   0  0  2  0  0  3  0  0  0  0  0  0
  162.1130  202.0640  151.5190 O   0  0  0  0  0  1  0  0  0  0  0  0
  161.9290  211.7280  148.4760 O   0  0  0  0  0  0  0  0  0  0  0  0
  161.2380  203.8200  146.8140 C   0  0  0  0  0  2  0  0  0  0  0  0
  161.9800  209.3480  148.3490 C   0  0  0  0  0  2  0  0  0  0  0  0
  162.0400  202.6170  148.7870 O   0  0  0  0  0  0  0  0  0  0  0  0
  161.8150  208.1850  150.5730 C   0  0  2  0  0  3  0  0  0  0  0  0
  160.4890  206.2220  147.0090 C   0  0  0  0  0  2  0  0  0  0  0  0
  158.8830  201.1980  149.1600 C   0  0  0  0  0  1  0  0  0  0  0  0
  159.6990  202.2670  148.7900 O   0  0  0  0  0  0  0  0  0  0  0  0
  161.3790  209.5630  152.6390 C   0  0  0  0  0  2  0  0  0  0  0  0
  160.4350  211.5090  154.2100 C   0  0  0  0  0  1  0  0  0  0  0  0
  160.4110  211.0820  152.6590 S   0  0  0  0  0  0  0  0  0  0  0  0
  1 13  1  0  0  0  0
  2  5  1  1  0  0  0
  2 14  1  0  0  0  0
  3 14  1  0  0  0  0
  4  5  1  0  0  0  0
  4 16  1  6  0  0  0
  6 18  1  0  0  0  0
  6 22  1  0  0  0  0
  7  2  1  0  0  0  0
  8 15  1  0  0  0  0
  9 20  1  0  0  0  0
  9  7  1  0  0  0  0
 10  8  1  0  0  0  0
 11  1  1  0  0  0  0
 11  7  1  0  0  0  0
 12  4  1  0  0  0  0
 13 21  1  0  0  0  0
 15 25  1  0  0  0  0
 17 10  2  0  0  0  0
 18  9  1  0  0  0  0
 19 10  1  0  0  0  0
 19 13  1  0  0  0  0
 20 12  1  0  0  0  0
 21  3  1  0  0  0  0
 21 15  1  0  0  0  0
 22 11  1  0  0  0  0
 24 23  1  0  0  0  0
 24 12  1  0  0  0  0
 25 27  1  0  0  0  0
 27 26  1  0  0  0  0
M  END
>  <MODEL>
2

>  <REMARK>
 VINA RESULT:      -7.7      1.850      2.290
  Name = 
  3 active torsions:
  status: ('A' for Active; 'I' for Inactive)
    1  A    between atoms: S_12  and  C_14
    2  A    between atoms: C_14  and  C_20
    3  A    between atoms: O_16  and  C_17
                            x       y       z     vdW  Elec       q    Type
                         _______ _______ _______ _____ _____    ______ ____

>  <TORSDO>
F 3

$$$$
=
 OpenBabel11062407403D

 27 30  0  0  1  0  0  0  0  0999 V2000
  160.6580  207.7550  150.2140 C   0  0  0  0  0  2  0  0  0  0  0  0
  160.8570  206.7010  153.1950 C   0  0  1  0  0  3  0  0  0  0  0  0
  160.3910  205.1360  151.3680 N   0  0  0  0  0  2  0  0  0  0  0  0
  160.6390  207.5030  155.6070 C   0  0  1  0  0  3  0  0  0  0  0  0
  161.3350  206.5590  154.6340 C   0  0  0  0  0  2  0  0  0  0  0  0
  161.8020  210.4830  151.0500 C   0  0  0  0  0  2  0  0  0  0  0  0
  161.4770  207.9890  152.6110 C   0  0  2  0  0  3  0  0  0  0  0  0
  161.6730  204.1810  147.9830 N   0  0  0  0  0  2  0  0  0  0  0  0
  160.6270  209.2500  152.8830 C   0  0  2  0  0  3  0  0  0  0  0  0
  161.8720  205.4620  147.3770 C   0  0  0  0  0  0  0  0  0  0  0  0
  161.8760  207.9490  151.1220 C   0  0  2  0  0  3  0  0  0  0  0  0
  160.7950  208.9820  155.2480 C   0  0  2  0  0  3  0  0  0  0  0  0
  160.7590  206.4930  149.3560 C   0  0  1  0  0  3  0  0  0  0  0  0
  161.2930  205.4320  152.4700 C   0  0  0  0  0  2  0  0  0  0  0  0
  160.9970  204.0070  149.2670 C   0  0  2  0  0  3  0  0  0  0  0  0
  159.2910  207.1690  155.7330 O   0  0  0  0  0  1  0  0  0  0  0  0
  162.2790  205.5340  146.1900 O   0  0  0  0  0  0  0  0  0  0  0  0
  161.3880  210.5250  152.5200 C   0  0  0  0  0  2  0  0  0  0  0  0
  161.6950  206.7180  148.1750 C   0  0  0  0  0  2  0  0  0  0  0  0
  159.9830  209.3530  154.1440 O   0  0  0  0  0  0  0  0  0  0  0  0
  161.1790  205.2480  150.1490 C   0  0  2  0  0  3  0  0  0  0  0  0
  162.6300  209.2290  150.7470 C   0  0  0  0  0  2  0  0  0  0  0  0
  162.3790  210.1730  156.2400 C   0  0  0  0  0  1  0  0  0  0  0  0
  162.1370  209.3700  155.1250 O   0  0  0  0  0  0  0  0  0  0  0  0
  161.5450  202.7620  149.9440 C   0  0  0  0  0  2  0  0  0  0  0  0
  161.3230  200.6420  148.3290 C   0  0  0  0  0  1  0  0  0  0  0  0
  160.5250  201.3320  149.5430 S   0  0  0  0  0  0  0  0  0  0  0  0
  1 11  1  0  0  0  0
  2 14  1  6  0  0  0
  2  5  1  0  0  0  0
  3 14  1  0  0  0  0
  4 16  1  6  0  0  0
  5  4  1  0  0  0  0
  6 18  1  0  0  0  0
  7  9  1  0  0  0  0
  7  2  1  0  0  0  0
  8 15  1  0  0  0  0
  9 20  1  0  0  0  0
 10  8  1  0  0  0  0
 10 19  1  0  0  0  0
 11  7  1  0  0  0  0
 12  4  1  0  0  0  0
 13 21  1  0  0  0  0
 13  1  1  0  0  0  0
 15 25  1  0  0  0  0
 15 21  1  0  0  0  0
 17 10  2  0  0  0  0
 18  9  1  0  0  0  0
 19 13  1  0  0  0  0
 20 12  1  0  0  0  0
 21  3  1  0  0  0  0
 22  6  1  0  0  0  0
 22 11  1  0  0  0  0
 24 12  1  0  0  0  0
 24 23  1  0  0  0  0
 26 27  1  0  0  0  0
 27 25  1  0  0  0  0
M  END
>  <MODEL>
3

>  <REMARK>
 VINA RESULT:      -7.3      2.913      7.394
  Name = 
  3 active torsions:
  status: ('A' for Active; 'I' for Inactive)
    1  A    between atoms: S_12  and  C_14
    2  A    between atoms: C_14  and  C_20
    3  A    between atoms: O_16  and  C_17
                            x       y       z     vdW  Elec       q    Type
                         _______ _______ _______ _____ _____    ______ ____

>  <TORSDO>
F 3

$$$$
=
 OpenBabel11062407403D

 27 30  0  0  1  0  0  0  0  0999 V2000
  160.2580  205.2700  150.3860 C   0  0  0  0  0  2  0  0  0  0  0  0
  161.2080  204.6240  147.4340 C   0  0  1  0  0  3  0  0  0  0  0  0
  160.9210  206.9500  148.1500 N   0  0  0  0  0  2  0  0  0  0  0  0
  161.1530  202.7640  145.6880 C   0  0  1  0  0  3  0  0  0  0  0  0
  161.9250  203.9390  146.2790 C   0  0  0  0  0  2  0  0  0  0  0  0
  160.7050  202.3450  151.2210 C   0  0  0  0  0  2  0  0  0  0  0  0
  161.3410  203.7240  148.6810 C   0  0  2  0  0  3  0  0  0  0  0  0
  161.8760  209.2520  150.9450 N   0  0  0  0  0  2  0  0  0  0  0  0
  160.2240  202.6620  148.7860 C   0  0  2  0  0  3  0  0  0  0  0  0
  161.6090  208.4390  152.0920 C   0  0  0  0  0  0  0  0  0  0  0  0
  161.4980  204.4420  150.0370 C   0  0  2  0  0  3  0  0  0  0  0  0
  160.8280  201.6670  146.7030 C   0  0  2  0  0  3  0  0  0  0  0  0
  160.5750  206.7550  150.5720 C   0  0  1  0  0  3  0  0  0  0  0  0
  161.8640  205.9920  147.5960 C   0  0  0  0  0  2  0  0  0  0  0  0
  161.4850  208.8640  149.5910 C   0  0  2  0  0  3  0  0  0  0  0  0
  159.9890  203.2110  145.0610 O   0  0  0  0  0  1  0  0  0  0  0  0
  161.7890  208.9090  153.2440 O   0  0  0  0  0  0  0  0  0  0  0  0
  160.5300  201.6380  149.8790 C   0  0  0  0  0  2  0  0  0  0  0  0
  161.2130  207.0020  151.9340 C   0  0  0  0  0  2  0  0  0  0  0  0
  159.7830  202.0470  147.5860 O   0  0  0  0  0  0  0  0  0  0  0  0
  161.4460  207.3380  149.4520 C   0  0  2  0  0  3  0  0  0  0  0  0
  161.7930  203.4210  151.1400 C   0  0  0  0  0  2  0  0  0  0  0  0
  161.8670  199.7870  147.2490 C   0  0  0  0  0  1  0  0  0  0  0  0
  161.9700  201.1750  147.3500 O   0  0  0  0  0  0  0  0  0  0  0  0
  162.4590  209.4850  148.6030 C   0  0  0  0  0  2  0  0  0  0  0  0
  161.2390  211.6800  147.6860 C   0  0  0  0  0  1  0  0  0  0  0  0
  162.4070  211.2820  148.7190 S   0  0  0  0  0  0  0  0  0  0  0  0
  1 13  1  0  0  0  0
  2  5  1  6  0  0  0
  2 14  1  0  0  0  0
  2  7  1  0  0  0  0
  3 21  1  0  0  0  0
  4 16  1  1  0  0  0
  4  5  1  0  0  0  0
  4 12  1  0  0  0  0
  7  9  1  0  0  0  0
  7 11  1  0  0  0  0
  8 10  1  0  0  0  0
  9 18  1  0  0  0  0
 10 17  2  0  0  0  0
 11  1  1  0  0  0  0
 11 22  1  0  0  0  0
 12 24  1  0  0  0  0
 12 20  1  0  0  0  0
 13 19  1  0  0  0  0
 14  3  1  0  0  0  0
 15  8  1  0  0  0  0
 18  6  1  0  0  0  0
 19 10  1  0  0  0  0
 20  9  1  0  0  0  0
 21 15  1  0  0  0  0
 21 13  1  0  0  0  0
 22  6  1  0  0  0  0
 23 24  1  0  0  0  0
 25 27  1  0  0  0  0
 25 15  1  0  0  0  0
 26 27  1  0  0  0  0
M  END
>  <MODEL>
4

>  <REMARK>
 VINA RESULT:      -6.7      2.082      4.020
  Name = 
  3 active torsions:
  status: ('A' for Active; 'I' for Inactive)
    1  A    between atoms: S_12  and  C_14
    2  A    between atoms: C_14  and  C_20
    3  A    between atoms: O_16  and  C_17
                            x       y       z     vdW  Elec       q    Type
                         _______ _______ _______ _____ _____    ______ ____

>  <TORSDO>
F 3

$$$$
=
 OpenBabel11062407403D

 27 30  0  0  1  0  0  0  0  0999 V2000
  160.4560  205.7330  152.2180 C   0  0  0  0  0  2  0  0  0  0  0  0
  161.3030  206.9590  149.4230 C   0  0  1  0  0  3  0  0  0  0  0  0
  160.5950  208.4340  151.2460 N   0  0  0  0  0  2  0  0  0  0  0  0
  161.5080  206.3370  146.9570 C   0  0  1  0  0  3  0  0  0  0  0  0
  162.0620  207.1570  148.1170 C   0  0  0  0  0  2  0  0  0  0  0  0
  161.5560  202.9810  151.3990 C   0  0  0  0  0  2  0  0  0  0  0  0
  161.7090  205.5900  150.0090 C   0  0  2  0  0  3  0  0  0  0  0  0
  161.2530  209.0590  154.8790 N   0  0  0  0  0  2  0  0  0  0  0  0
  160.8470  204.4220  149.4800 C   0  0  2  0  0  3  0  0  0  0  0  0
  161.2430  207.7290  155.4070 C   0  0  0  0  0  0  0  0  0  0  0  0
  161.8110  205.5000  151.5450 C   0  0  2  0  0  3  0  0  0  0  0  0
  161.4900  204.8300  147.2190 C   0  0  2  0  0  3  0  0  0  0  0  0
  160.4710  206.9240  153.1770 C   0  0  1  0  0  3  0  0  0  0  0  0
  161.6730  208.1390  150.3170 C   0  0  0  0  0  2  0  0  0  0  0  0
  160.8540  209.3710  153.5080 C   0  0  2  0  0  3  0  0  0  0  0  0
  160.2350  206.7870  146.6040 O   0  0  0  0  0  1  0  0  0  0  0  0
  161.4050  207.5470  156.6410 O   0  0  0  0  0  0  0  0  0  0  0  0
  161.4340  203.0700  149.8790 C   0  0  0  0  0  2  0  0  0  0  0  0
  161.1420  206.5460  154.4930 C   0  0  0  0  0  2  0  0  0  0  0  0
  160.4560  204.4550  148.1170 O   0  0  0  0  0  0  0  0  0  0  0  0
  161.1210  208.1800  152.5800 C   0  0  2  0  0  3  0  0  0  0  0  0
  162.3900  204.1420  151.9530 C   0  0  0  0  0  2  0  0  0  0  0  0
  163.4910  204.3790  146.3810 C   0  0  0  0  0  1  0  0  0  0  0  0
  162.7540  204.3280  147.5630 O   0  0  0  0  0  0  0  0  0  0  0  0
  161.6050  210.6090  153.0490 C   0  0  0  0  0  2  0  0  0  0  0  0
  159.0290  211.3160  152.9290 C   0  0  0  0  0  1  0  0  0  0  0  0
  160.4560  211.8290  152.3890 S   0  0  0  0  0  0  0  0  0  0  0  0
  1 13  1  0  0  0  0
  2  5  1  6  0  0  0
  2  7  1  0  0  0  0
  2 14  1  0  0  0  0
  3 21  1  0  0  0  0
  4 16  1  1  0  0  0
  4 12  1  0  0  0  0
  4  5  1  0  0  0  0
  6 22  1  0  0  0  0
  7 11  1  0  0  0  0
  8 10  1  0  0  0  0
  9 18  1  0  0  0  0
  9  7  1  0  0  0  0
 10 17  2  0  0  0  0
 11 22  1  0  0  0  0
 11  1  1  0  0  0  0
 12 24  1  0  0  0  0
 12 20  1  0  0  0  0
 13 19  1  0  0  0  0
 14  3  1  0  0  0  0
 15  8  1  0  0  0  0
 18  6  1  0  0  0  0
 19 10  1  0  0  0  0
 20  9  1  0  0  0  0
 21 13  1  0  0  0  0
 21 15  1  0  0  0  0
 23 24  1  0  0  0  0
 25 15  1  0  0  0  0
 27 26  1  0  0  0  0
 27 25  1  0  0  0  0
M  END
>  <MODEL>
5

>  <REMARK>
 VINA RESULT:      -6.1      2.536      4.526
  Name = 
  3 active torsions:
  status: ('A' for Active; 'I' for Inactive)
    1  A    between atoms: S_12  and  C_14
    2  A    between atoms: C_14  and  C_20
    3  A    between atoms: O_16  and  C_17
                            x       y       z     vdW  Elec       q    Type
                         _______ _______ _______ _____ _____    ______ ____

>  <TORSDO>
F 3

$$$$
=
 OpenBabel11062407403D

 27 30  0  0  1  0  0  0  0  0999 V2000
  161.9280  203.2340  149.0630 C   0  0  0  0  0  2  0  0  0  0  0  0
  161.4490  206.3510  149.3560 C   0  0  1  0  0  3  0  0  0  0  0  0
  161.7920  205.3650  147.1400 N   0  0  0  0  0  2  0  0  0  0  0  0
  161.6550  208.2460  151.0530 C   0  0  1  0  0  3  0  0  0  0  0  0
  160.8880  207.6720  149.8670 C   0  0  0  0  0  2  0  0  0  0  0  0
  161.1170  202.7850  151.9950 C   0  0  0  0  0  2  0  0  0  0  0  0
  161.0340  205.2410  150.3450 C   0  0  2  0  0  3  0  0  0  0  0  0
  160.5580  202.5420  145.0110 N   0  0  0  0  0  2  0  0  0  0  0  0
  162.0290  205.0650  151.5130 C   0  0  2  0  0  3  0  0  0  0  0  0
  160.5600  201.4560  145.9430 C   0  0  0  0  0  0  0  0  0  0  0  0
  160.7050  203.8630  149.7370 C   0  0  2  0  0  3  0  0  0  0  0  0
  161.7150  207.3090  152.2600 C   0  0  2  0  0  3  0  0  0  0  0  0
  161.7030  202.9510  147.5770 C   0  0  1  0  0  3  0  0  0  0  0  0
  160.8850  206.1600  147.9510 C   0  0  0  0  0  2  0  0  0  0  0  0
  161.1420  203.8470  145.3130 C   0  0  2  0  0  3  0  0  0  0  0  0
  162.9400  208.6270  150.6650 O   0  0  0  0  0  1  0  0  0  0  0  0
  160.2230  200.3060  145.5600 O   0  0  0  0  0  0  0  0  0  0  0  0
  161.4620  204.1460  152.5950 C   0  0  0  0  0  2  0  0  0  0  0  0
  160.8620  201.6940  147.3910 C   0  0  0  0  0  2  0  0  0  0  0  0
  162.6200  206.2340  152.0600 O   0  0  0  0  0  0  0  0  0  0  0  0
  161.0840  204.1330  146.8190 C   0  0  2  0  0  3  0  0  0  0  0  0
  160.1460  202.9330  150.8170 C   0  0  0  0  0  2  0  0  0  0  0  0
  160.4360  207.1770  154.0660 C   0  0  0  0  0  1  0  0  0  0  0  0
  160.4430  206.9090  152.6970 O   0  0  0  0  0  0  0  0  0  0  0  0
  160.4030  204.9110  144.5200 C   0  0  0  0  0  2  0  0  0  0  0  0
  161.5620  205.8750  142.3110 C   0  0  0  0  0  1  0  0  0  0  0  0
  161.5600  206.1440  143.8970 S   0  0  0  0  0  0  0  0  0  0  0  0
  1 11  1  0  0  0  0
  2 14  1  6  0  0  0
  2  5  1  0  0  0  0
  2  7  1  0  0  0  0
  3 14  1  0  0  0  0
  4 16  1  6  0  0  0
  4 12  1  0  0  0  0
  5  4  1  0  0  0  0
  6 18  1  0  0  0  0
  7  9  1  0  0  0  0
  8 15  1  0  0  0  0
  8 10  1  0  0  0  0
  9 20  1  0  0  0  0
  9 18  1  0  0  0  0
 10 19  1  0  0  0  0
 11  7  1  0  0  0  0
 11 22  1  0  0  0  0
 12 24  1  0  0  0  0
 13  1  1  0  0  0  0
 15 21  1  0  0  0  0
 17 10  2  0  0  0  0
 19 13  1  0  0  0  0
 20 12  1  0  0  0  0
 21  3  1  0  0  0  0
 21 13  1  0  0  0  0
 22  6  1  0  0  0  0
 24 23  1  0  0  0  0
 25 15  1  0  0  0  0
 26 27  1  0  0  0  0
 27 25  1  0  0  0  0
M  END
>  <MODEL>
6

>  <REMARK>
 VINA RESULT:      -5.7      3.167      7.442
  Name = 
  3 active torsions:
  status: ('A' for Active; 'I' for Inactive)
    1  A    between atoms: S_12  and  C_14
    2  A    between atoms: C_14  and  C_20
    3  A    between atoms: O_16  and  C_17
                            x       y       z     vdW  Elec       q    Type
                         _______ _______ _______ _____ _____    ______ ____

>  <TORSDO>
F 3

$$$$
=
 OpenBabel11062407403D

 27 30  0  0  1  0  0  0  0  0999 V2000
  161.9880  206.8320  150.2150 C   0  0  0  0  0  2  0  0  0  0  0  0
  161.1880  203.9720  151.3160 C   0  0  1  0  0  3  0  0  0  0  0  0
  161.8160  205.7550  152.8740 N   0  0  0  0  0  2  0  0  0  0  0  0
  161.0610  201.5260  150.5980 C   0  0  1  0  0  3  0  0  0  0  0  0
  160.4600  202.6400  151.4470 C   0  0  0  0  0  2  0  0  0  0  0  0
  160.9700  206.0900  147.4110 C   0  0  0  0  0  2  0  0  0  0  0  0
  160.7960  204.5990  149.9610 C   0  0  2  0  0  3  0  0  0  0  0  0
  161.0500  209.3440  153.6200 N   0  0  0  0  0  2  0  0  0  0  0  0
  161.6980  204.1370  148.7940 C   0  0  2  0  0  3  0  0  0  0  0  0
  161.0760  209.9220  152.3110 C   0  0  0  0  0  0  0  0  0  0  0  0
  160.6560  206.1340  149.9260 C   0  0  2  0  0  3  0  0  0  0  0  0
  161.1050  201.8460  149.1020 C   0  0  2  0  0  3  0  0  0  0  0  0
  161.9220  207.7440  151.4400 C   0  0  1  0  0  3  0  0  0  0  0  0
  160.7690  204.8100  152.5200 C   0  0  0  0  0  2  0  0  0  0  0  0
  161.4780  207.9720  153.8890 C   0  0  2  0  0  3  0  0  0  0  0  0
  162.3330  201.1890  151.0630 O   0  0  0  0  0  1  0  0  0  0  0  0
  160.8850  211.1570  152.1720 O   0  0  0  0  0  0  0  0  0  0  0  0
  161.1300  204.5710  147.4440 C   0  0  0  0  0  2  0  0  0  0  0  0
  161.2260  209.0560  151.0970 C   0  0  0  0  0  2  0  0  0  0  0  0
  162.1230  202.7830  148.7850 O   0  0  0  0  0  0  0  0  0  0  0  0
  161.2610  207.0840  152.6580 C   0  0  2  0  0  3  0  0  0  0  0  0
  160.0970  206.5790  148.5720 C   0  0  0  0  0  2  0  0  0  0  0  0
  159.0040  201.1480  149.0090 C   0  0  0  0  0  1  0  0  0  0  0  0
  159.8440  202.1770  148.5850 O   0  0  0  0  0  0  0  0  0  0  0  0
  160.7120  207.4470  155.0910 C   0  0  0  0  0  2  0  0  0  0  0  0
  160.4620  209.1830  157.1100 C   0  0  0  0  0  1  0  0  0  0  0  0
  161.4700  208.0300  156.6180 S   0  0  0  0  0  0  0  0  0  0  0  0
  1 13  1  0  0  0  0
  2  5  1  1  0  0  0
  2 14  1  0  0  0  0
  4 16  1  1  0  0  0
  4  5  1  0  0  0  0
  6 18  1  0  0  0  0
  6 22  1  0  0  0  0
  7  2  1  0  0  0  0
  8 15  1  0  0  0  0
  9  7  1  0  0  0  0
 10  8  1  0  0  0  0
 11  7  1  0  0  0  0
 11  1  1  0  0  0  0
 12  4  1  0  0  0  0
 13 21  1  0  0  0  0
 14  3  1  0  0  0  0
 15 25  1  0  0  0  0
 17 10  2  0  0  0  0
 18  9  1  0  0  0  0
 19 13  1  0  0  0  0
 19 10  1  0  0  0  0
 20  9  1  0  0  0  0
 20 12  1  0  0  0  0
 21  3  1  0  0  0  0
 21 15  1  0  0  0  0
 22 11  1  0  0  0  0
 24 23  1  0  0  0  0
 24 12  1  0  0  0  0
 25 27  1  0  0  0  0
 27 26  1  0  0  0  0
M  END
>  <MODEL>
7

>  <REMARK>
 VINA RESULT:      -5.7      1.687      2.178
  Name = 
  3 active torsions:
  status: ('A' for Active; 'I' for Inactive)
    1  A    between atoms: S_12  and  C_14
    2  A    between atoms: C_14  and  C_20
    3  A    between atoms: O_16  and  C_17
                            x       y       z     vdW  Elec       q    Type
                         _______ _______ _______ _____ _____    ______ ____

>  <TORSDO>
F 3

$$$$
=
 OpenBabel11062407403D

 27 30  0  0  1  0  0  0  0  0999 V2000
  161.6130  207.0160  154.2940 C   0  0  0  0  0  2  0  0  0  0  0  0
  160.3110  209.8030  153.5390 C   0  0  1  0  0  3  0  0  0  0  0  0
  161.4030  208.4510  151.8130 N   0  0  0  0  0  2  0  0  0  0  0  0
  159.6290  212.0290  154.5850 C   0  0  1  0  0  3  0  0  0  0  0  0
  159.3330  210.9700  153.5290 C   0  0  0  0  0  2  0  0  0  0  0  0
  160.2740  207.0840  157.0600 C   0  0  0  0  0  2  0  0  0  0  0  0
  159.9670  208.9020  154.7450 C   0  0  2  0  0  3  0  0  0  0  0  0
  161.4560  204.9490  150.4880 N   0  0  0  0  0  2  0  0  0  0  0  0
  160.6710  209.3380  156.0500 C   0  0  2  0  0  3  0  0  0  0  0  0
  161.5110  204.1850  151.6970 C   0  0  0  0  0  0  0  0  0  0  0  0
  160.1490  207.3840  154.5450 C   0  0  2  0  0  3  0  0  0  0  0  0
  159.6350  211.4870  156.0150 C   0  0  2  0  0  3  0  0  0  0  0  0
  161.8230  206.3170  152.9500 C   0  0  1  0  0  3  0  0  0  0  0  0
  160.1610  209.1040  152.1920 C   0  0  0  0  0  2  0  0  0  0  0  0
  161.6050  206.4030  150.4620 C   0  0  2  0  0  3  0  0  0  0  0  0
  160.8310  212.6780  154.3020 O   0  0  0  0  0  1  0  0  0  0  0  0
  161.5740  202.9300  151.6370 O   0  0  0  0  0  0  0  0  0  0  0  0
  160.1140  208.5900  157.2600 C   0  0  0  0  0  2  0  0  0  0  0  0
  161.3940  204.8570  153.0310 C   0  0  0  0  0  2  0  0  0  0  0  0
  160.8030  210.7290  156.2950 O   0  0  0  0  0  0  0  0  0  0  0  0
  161.1240  207.0220  151.7800 C   0  0  2  0  0  3  0  0  0  0  0  0
  159.6030  206.6270  155.7590 C   0  0  0  0  0  2  0  0  0  0  0  0
  157.5830  211.8590  156.7650 C   0  0  0  0  0  1  0  0  0  0  0  0
  158.4390  210.8380  156.3520 O   0  0  0  0  0  0  0  0  0  0  0  0
  160.8310  206.9540  149.2770 C   0  0  0  0  0  2  0  0  0  0  0  0
  160.9570  206.1950  146.7160 C   0  0  0  0  0  1  0  0  0  0  0  0
  161.8660  206.9590  147.8020 S   0  0  0  0  0  0  0  0  0  0  0  0
  1 11  1  0  0  0  0
  2 14  1  6  0  0  0
  2  7  1  0  0  0  0
  3 14  1  0  0  0  0
  4 16  1  6  0  0  0
  4 12  1  0  0  0  0
  5  2  1  0  0  0  0
  5  4  1  0  0  0  0
  6 18  1  0  0  0  0
  7  9  1  0  0  0  0
  8 10  1  0  0  0  0
  9 20  1  0  0  0  0
  9 18  1  0  0  0  0
 10 19  1  0  0  0  0
 11  7  1  0  0  0  0
 11 22  1  0  0  0  0
 12 20  1  0  0  0  0
 12 24  1  0  0  0  0
 13 19  1  0  0  0  0
 13  1  1  0  0  0  0
 15  8  1  0  0  0  0
 15 21  1  0  0  0  0
 17 10  2  0  0  0  0
 21  3  1  0  0  0  0
 21 13  1  0  0  0  0
 22  6  1  0  0  0  0
 24 23  1  0  0  0  0
 25 15  1  0  0  0  0
 26 27  1  0  0  0  0
 27 25  1  0  0  0  0
M  END
>  <MODEL>
8

>  <REMARK>
 VINA RESULT:      -5.6      3.301      9.109
  Name = 
  3 active torsions:
  status: ('A' for Active; 'I' for Inactive)
    1  A    between atoms: S_12  and  C_14
    2  A    between atoms: C_14  and  C_20
    3  A    between atoms: O_16  and  C_17
                            x       y       z     vdW  Elec       q    Type
                         _______ _______ _______ _____ _____    ______ ____

>  <TORSDO>
F 3

$$$$
