=
 OpenBabel11062408313D

 32 34  0  0  1  0  0  0  0  0999 V2000
  161.2370  207.4910  151.1190 C   0  0  0  0  0  3  0  0  0  0  0  0
  161.6550  208.8220  151.0500 C   0  0  0  0  0  0  0  0  0  0  0  0
  161.2340  206.6890  149.9720 C   0  0  0  0  0  0  0  0  0  0  0  0
  161.6560  207.2480  148.7390 C   0  0  0  0  0  0  0  0  0  0  0  0
  162.0530  208.5870  148.7180 C   0  0  0  0  0  3  0  0  0  0  0  0
  162.0470  209.3350  149.8520 N   0  0  0  0  0  0  0  0  0  0  0  0
  160.7370  205.2800  150.0950 C   0  0  2  0  0  3  0  0  0  0  0  0
  161.4230  204.5480  151.2520 C   0  0  0  0  0  2  0  0  0  0  0  0
  161.2300  201.1860  147.4430 C   0  0  0  0  0  3  0  0  0  0  0  0
  160.9030  204.5640  148.8250 N   0  0  0  0  0  0  0  0  0  0  0  0
  161.1380  201.1220  149.8910 C   0  0  0  0  0  3  0  0  0  0  0  0
  161.0340  202.4500  149.9900 C   0  0  0  0  0  0  0  0  0  0  0  0
  160.9130  203.1100  151.3280 C   0  0  0  0  0  2  0  0  0  0  0  0
  160.9950  203.2700  148.7590 C   0  0  0  0  0  0  0  0  0  0  0  0
  161.2430  200.4650  148.5710 C   0  0  0  0  0  3  0  0  0  0  0  0
  161.1130  202.6150  147.4930 N   0  0  0  0  0  2  0  0  0  0  0  0
  161.6580  209.6740  152.2510 C   0  0  0  0  0  0  0  0  0  0  0  0
  162.6920  210.3280  152.5520 O   0  0  0  0  0  0  0  0  0  0  0  0
  160.4610  209.7580  153.1470 C   0  0  0  0  0  2  0  0  0  0  0  0
  160.6660  211.0530  155.2890 C   0  0  0  0  0  0  0  0  0  0  0  0
  160.4610  212.1400  154.6840 O   0  0  0  0  0  0  0  0  0  0  0  0
  160.8770  209.8410  154.5430 N   0  0  0  0  0  0  0  0  0  0  0  0
  160.6250  211.0380  156.7800 C   0  0  0  0  0  2  0  0  0  0  0  0
  159.1920  210.8880  157.2510 C   0  0  0  0  0  1  0  0  0  0  0  0
  161.3830  208.6320  155.1840 C   0  0  0  0  0  2  0  0  0  0  0  0
  160.0220  207.0900  156.3600 F   0  0  0  0  0  0  0  0  0  0  0  0
  160.9040  206.4330  154.3810 O   0  0  0  0  0  1  0  0  0  0  0  0
  160.3650  207.5070  155.0880 C   0  0  2  0  0  3  0  0  0  0  0  0
  161.6880  206.5530  147.5180 O   0  0  0  0  0  0  0  0  0  0  0  0
  160.6390  206.5240  146.5560 C   0  0  0  0  0  2  0  0  0  0  0  0
  162.4650  205.2000  145.5020 C   0  0  0  0  0  1  0  0  0  0  0  0
  161.0920  205.8080  145.2940 C   0  0  0  0  0  2  0  0  0  0  0  0
  2  1  1  0  0  0  0
  2 17  1  0  0  0  0
  3  1  2  0  0  0  0
  4  3  1  0  0  0  0
  5  4  2  0  0  0  0
  5  6  1  0  0  0  0
  6  2  2  0  0  0  0
  7  3  1  6  0  0  0
  7  8  1  0  0  0  0
  8 13  1  0  0  0  0
  9 16  1  0  0  0  0
  9 15  2  0  0  0  0
 10  7  1  0  0  0  0
 11 12  2  0  0  0  0
 12 13  1  0  0  0  0
 14 10  2  0  0  0  0
 14 12  1  0  0  0  0
 15 11  1  0  0  0  0
 16 14  1  0  0  0  0
 17 18  2  0  0  0  0
 17 19  1  0  0  0  0
 19 22  1  0  0  0  0
 20 23  1  0  0  0  0
 21 20  2  0  0  0  0
 22 25  1  0  0  0  0
 22 20  1  0  0  0  0
 23 24  1  0  0  0  0
 28 27  1  6  0  0  0
 28 25  1  0  0  0  0
 28 26  1  0  0  0  0
 29  4  1  0  0  0  0
 30 29  1  0  0  0  0
 32 31  1  0  0  0  0
 32 30  1  0  0  0  0
M  END
>  <MODEL>
1

>  <REMARK>
 VINA RESULT:      -8.5      0.000      0.000
  Name = 
  10 active torsions:
  status: ('A' for Active; 'I' for Inactive)
    1  A    between atoms: C_2  and  C_5
    2  A    between atoms: C_3  and  C_22
    3  A    between atoms: C_4  and  C_24
    4  A    between atoms: C_13  and  O_18
    5  A    between atoms: C_13  and  C_29
    6  A    between atoms: C_14  and  O_18
    7  A    between atoms: C_15  and  N_20
    8  A    between atoms: C_15  and  C_26
    9  A    between atoms: C_16  and  N_20
   10  A    between atoms: C_16  and  C_24
                            x       y       z     vdW  Elec       q    Type
                         _______ _______ _______ _____ _____    ______ ____

>  <TORSDO>
F 10

$$$$
=
 OpenBabel11062408313D

 32 34  0  0  1  0  0  0  0  0999 V2000
  161.0280  207.7270  151.2480 C   0  0  0  0  0  3  0  0  0  0  0  0
  161.4250  209.0590  151.1210 C   0  0  0  0  0  0  0  0  0  0  0  0
  161.2090  206.8290  150.1900 C   0  0  0  0  0  0  0  0  0  0  0  0
  161.7950  207.2930  148.9850 C   0  0  0  0  0  0  0  0  0  0  0  0
  162.1650  208.6380  148.9020 C   0  0  0  0  0  3  0  0  0  0  0  0
  161.9790  209.4800  149.9520 N   0  0  0  0  0  0  0  0  0  0  0  0
  160.7260  205.4210  150.3660 C   0  0  2  0  0  3  0  0  0  0  0  0
  161.4960  204.7050  151.4800 C   0  0  0  0  0  2  0  0  0  0  0  0
  161.0430  201.2940  147.7370 C   0  0  0  0  0  3  0  0  0  0  0  0
  160.8040  204.6890  149.0960 N   0  0  0  0  0  0  0  0  0  0  0  0
  161.1270  201.2620  150.1860 C   0  0  0  0  0  3  0  0  0  0  0  0
  161.0250  202.5910  150.2760 C   0  0  0  0  0  0  0  0  0  0  0  0
  160.9970  203.2670  151.6110 C   0  0  0  0  0  2  0  0  0  0  0  0
  160.8950  203.3940  149.0400 C   0  0  0  0  0  0  0  0  0  0  0  0
  161.1390  200.5870  148.8700 C   0  0  0  0  0  3  0  0  0  0  0  0
  160.9240  202.7230  147.7780 N   0  0  0  0  0  2  0  0  0  0  0  0
  161.2360  210.0110  152.2290 C   0  0  0  0  0  0  0  0  0  0  0  0
  160.6460  211.1050  152.0210 O   0  0  0  0  0  0  0  0  0  0  0  0
  161.7610  209.7200  153.6010 C   0  0  0  0  0  2  0  0  0  0  0  0
  160.4670  208.0560  154.9660 C   0  0  0  0  0  0  0  0  0  0  0  0
  160.9890  207.0940  154.3410 O   0  0  0  0  0  0  0  0  0  0  0  0
  160.6620  209.4050  154.5070 N   0  0  0  0  0  0  0  0  0  0  0  0
  159.7000  207.7740  156.2140 C   0  0  0  0  0  2  0  0  0  0  0  0
  160.6240  207.1840  157.2610 C   0  0  0  0  0  1  0  0  0  0  0  0
  159.8630  210.5090  155.0300 C   0  0  0  0  0  2  0  0  0  0  0  0
  161.4930  210.8060  156.7230 F   0  0  0  0  0  0  0  0  0  0  0  0
  159.9440  212.4340  156.4450 O   0  0  0  0  0  1  0  0  0  0  0  0
  160.7380  211.4920  155.7900 C   0  0  2  0  0  3  0  0  0  0  0  0
  162.0190  206.4970  147.8490 O   0  0  0  0  0  0  0  0  0  0  0  0
  161.2230  206.4980  146.6690 C   0  0  0  0  0  2  0  0  0  0  0  0
  163.0540  204.8990  146.1350 C   0  0  0  0  0  1  0  0  0  0  0  0
  161.9000  205.7010  145.5670 C   0  0  0  0  0  2  0  0  0  0  0  0
  2  1  1  0  0  0  0
  2 17  1  0  0  0  0
  3  1  2  0  0  0  0
  4  3  1  0  0  0  0
  5  4  2  0  0  0  0
  5  6  1  0  0  0  0
  6  2  2  0  0  0  0
  7  3  1  6  0  0  0
  7  8  1  0  0  0  0
  8 13  1  0  0  0  0
  9 16  1  0  0  0  0
  9 15  2  0  0  0  0
 10  7  1  0  0  0  0
 11 12  2  0  0  0  0
 12 13  1  0  0  0  0
 14 10  2  0  0  0  0
 14 12  1  0  0  0  0
 15 11  1  0  0  0  0
 16 14  1  0  0  0  0
 17 19  1  0  0  0  0
 18 17  2  0  0  0  0
 19 22  1  0  0  0  0
 20 23  1  0  0  0  0
 21 20  2  0  0  0  0
 22 20  1  0  0  0  0
 22 25  1  0  0  0  0
 23 24  1  0  0  0  0
 25 28  1  0  0  0  0
 28 27  1  1  0  0  0
 28 26  1  0  0  0  0
 29  4  1  0  0  0  0
 30 29  1  0  0  0  0
 32 31  1  0  0  0  0
 32 30  1  0  0  0  0
M  END
>  <MODEL>
2

>  <REMARK>
 VINA RESULT:      -8.5      1.110      2.190
  Name = 
  10 active torsions:
  status: ('A' for Active; 'I' for Inactive)
    1  A    between atoms: C_2  and  C_5
    2  A    between atoms: C_3  and  C_22
    3  A    between atoms: C_4  and  C_24
    4  A    between atoms: C_13  and  O_18
    5  A    between atoms: C_13  and  C_29
    6  A    between atoms: C_14  and  O_18
    7  A    between atoms: C_15  and  N_20
    8  A    between atoms: C_15  and  C_26
    9  A    between atoms: C_16  and  N_20
   10  A    between atoms: C_16  and  C_24
                            x       y       z     vdW  Elec       q    Type
                         _______ _______ _______ _____ _____    ______ ____

>  <TORSDO>
F 10

$$$$
=
 OpenBabel11062408313D

 32 34  0  0  1  0  0  0  0  0999 V2000
  160.9400  207.2970  152.5390 C   0  0  0  0  0  3  0  0  0  0  0  0
  161.3460  208.6210  152.7230 C   0  0  0  0  0  0  0  0  0  0  0  0
  161.1400  206.6590  151.3100 C   0  0  0  0  0  0  0  0  0  0  0  0
  161.7540  207.3770  150.2520 C   0  0  0  0  0  0  0  0  0  0  0  0
  162.1320  208.7030  150.4820 C   0  0  0  0  0  3  0  0  0  0  0  0
  161.9270  209.2880  151.6900 N   0  0  0  0  0  0  0  0  0  0  0  0
  160.6470  205.2520  151.1540 C   0  0  2  0  0  3  0  0  0  0  0  0
  161.3550  204.3050  152.1280 C   0  0  0  0  0  2  0  0  0  0  0  0
  161.1000  201.7790  147.7220 C   0  0  0  0  0  3  0  0  0  0  0  0
  160.7920  204.8070  149.7630 N   0  0  0  0  0  0  0  0  0  0  0  0
  161.0520  201.2230  150.1090 C   0  0  0  0  0  3  0  0  0  0  0  0
  160.9470  202.5030  150.4750 C   0  0  0  0  0  0  0  0  0  0  0  0
  160.8490  202.8780  151.9210 C   0  0  0  0  0  2  0  0  0  0  0  0
  160.8850  203.5530  149.4360 C   0  0  0  0  0  0  0  0  0  0  0  0
  161.1350  200.8460  148.6810 C   0  0  0  0  0  3  0  0  0  0  0  0
  160.9810  203.1680  148.0620 N   0  0  0  0  0  2  0  0  0  0  0  0
  161.1370  209.3010  154.0130 C   0  0  0  0  0  0  0  0  0  0  0  0
  161.1560  208.6340  155.0820 O   0  0  0  0  0  0  0  0  0  0  0  0
  160.8690  210.7730  154.0800 C   0  0  0  0  0  2  0  0  0  0  0  0
  158.6800  211.1670  155.2460 C   0  0  0  0  0  0  0  0  0  0  0  0
  159.1460  210.7270  156.3310 O   0  0  0  0  0  0  0  0  0  0  0  0
  159.4340  211.0290  154.0290 N   0  0  0  0  0  0  0  0  0  0  0  0
  157.3690  211.8790  155.2600 C   0  0  0  0  0  2  0  0  0  0  0  0
  156.2400  210.8710  155.3300 C   0  0  0  0  0  1  0  0  0  0  0  0
  158.8240  211.2700  152.7260 C   0  0  0  0  0  2  0  0  0  0  0  0
  159.3530  213.5500  153.0970 F   0  0  0  0  0  0  0  0  0  0  0  0
  158.5140  212.9710  151.0750 O   0  0  0  0  0  1  0  0  0  0  0  0
  159.3400  212.5680  152.1240 C   0  0  2  0  0  3  0  0  0  0  0  0
  162.0000  206.8550  148.9710 O   0  0  0  0  0  0  0  0  0  0  0  0
  161.6520  207.4840  147.7420 C   0  0  0  0  0  2  0  0  0  0  0  0
  162.3130  205.7930  146.0390 C   0  0  0  0  0  1  0  0  0  0  0  0
  161.1460  206.4580  146.7420 C   0  0  0  0  0  2  0  0  0  0  0  0
  1  2  1  0  0  0  0
  2 17  1  0  0  0  0
  3  1  2  0  0  0  0
  4  5  2  0  0  0  0
  4  3  1  0  0  0  0
  5  6  1  0  0  0  0
  6  2  2  0  0  0  0
  7  3  1  6  0  0  0
  7  8  1  0  0  0  0
  9 16  1  0  0  0  0
  9 15  2  0  0  0  0
 10  7  1  0  0  0  0
 11 12  2  0  0  0  0
 12 13  1  0  0  0  0
 13  8  1  0  0  0  0
 14 10  2  0  0  0  0
 14 12  1  0  0  0  0
 15 11  1  0  0  0  0
 16 14  1  0  0  0  0
 17 19  1  0  0  0  0
 17 18  2  0  0  0  0
 20 23  1  0  0  0  0
 20 21  2  0  0  0  0
 22 19  1  0  0  0  0
 22 20  1  0  0  0  0
 23 24  1  0  0  0  0
 25 22  1  0  0  0  0
 28 27  1  6  0  0  0
 28 25  1  0  0  0  0
 28 26  1  0  0  0  0
 29  4  1  0  0  0  0
 30 29  1  0  0  0  0
 31 32  1  0  0  0  0
 32 30  1  0  0  0  0
M  END
>  <MODEL>
3

>  <REMARK>
 VINA RESULT:      -8.3      2.149      2.821
  Name = 
  10 active torsions:
  status: ('A' for Active; 'I' for Inactive)
    1  A    between atoms: C_2  and  C_5
    2  A    between atoms: C_3  and  C_22
    3  A    between atoms: C_4  and  C_24
    4  A    between atoms: C_13  and  O_18
    5  A    between atoms: C_13  and  C_29
    6  A    between atoms: C_14  and  O_18
    7  A    between atoms: C_15  and  N_20
    8  A    between atoms: C_15  and  C_26
    9  A    between atoms: C_16  and  N_20
   10  A    between atoms: C_16  and  C_24
                            x       y       z     vdW  Elec       q    Type
                         _______ _______ _______ _____ _____    ______ ____

>  <TORSDO>
F 10

$$$$
=
 OpenBabel11062408313D

 32 34  0  0  1  0  0  0  0  0999 V2000
  161.0250  207.1030  152.2500 C   0  0  0  0  0  3  0  0  0  0  0  0
  161.4150  208.4340  152.4130 C   0  0  0  0  0  0  0  0  0  0  0  0
  161.1840  206.4640  151.0150 C   0  0  0  0  0  0  0  0  0  0  0  0
  161.7420  207.1880  149.9310 C   0  0  0  0  0  0  0  0  0  0  0  0
  162.1060  208.5210  150.1410 C   0  0  0  0  0  3  0  0  0  0  0  0
  161.9410  209.1080  151.3550 N   0  0  0  0  0  0  0  0  0  0  0  0
  160.7100  205.0480  150.8850 C   0  0  2  0  0  3  0  0  0  0  0  0
  161.4730  204.1170  151.8310 C   0  0  0  0  0  2  0  0  0  0  0  0
  161.0800  201.5710  147.4480 C   0  0  0  0  0  3  0  0  0  0  0  0
  160.8050  204.6010  149.4900 N   0  0  0  0  0  0  0  0  0  0  0  0
  161.1400  201.0220  149.8360 C   0  0  0  0  0  3  0  0  0  0  0  0
  161.0290  202.3020  150.2020 C   0  0  0  0  0  0  0  0  0  0  0  0
  160.9840  202.6810  151.6500 C   0  0  0  0  0  2  0  0  0  0  0  0
  160.9050  203.3470  149.1630 C   0  0  0  0  0  0  0  0  0  0  0  0
  161.1700  200.6410  148.4070 C   0  0  0  0  0  3  0  0  0  0  0  0
  160.9510  202.9580  147.7880 N   0  0  0  0  0  2  0  0  0  0  0  0
  161.2480  209.1150  153.7090 C   0  0  0  0  0  0  0  0  0  0  0  0
  160.5020  208.6100  154.5900 O   0  0  0  0  0  0  0  0  0  0  0  0
  161.9250  210.4200  153.9930 C   0  0  0  0  0  2  0  0  0  0  0  0
  160.1100  212.0230  154.6580 C   0  0  0  0  0  0  0  0  0  0  0  0
  160.0000  212.4360  153.4720 O   0  0  0  0  0  0  0  0  0  0  0  0
  161.1980  211.1550  155.0210 N   0  0  0  0  0  0  0  0  0  0  0  0
  159.0660  212.4030  155.6530 C   0  0  0  0  0  2  0  0  0  0  0  0
  157.7580  211.7180  155.3090 C   0  0  0  0  0  1  0  0  0  0  0  0
  161.5170  210.8810  156.4190 C   0  0  0  0  0  2  0  0  0  0  0  0
  162.9900  209.2220  157.2470 F   0  0  0  0  0  0  0  0  0  0  0  0
  163.7000  211.3710  157.2590 O   0  0  0  0  0  1  0  0  0  0  0  0
  162.9590  210.4200  156.5590 C   0  0  2  0  0  3  0  0  0  0  0  0
  161.9430  206.6660  148.6430 O   0  0  0  0  0  0  0  0  0  0  0  0
  161.5890  207.3120  147.4250 C   0  0  0  0  0  2  0  0  0  0  0  0
  162.1700  205.6940  145.6240 C   0  0  0  0  0  1  0  0  0  0  0  0
  161.0390  206.3070  146.4260 C   0  0  0  0  0  2  0  0  0  0  0  0
  1  2  1  0  0  0  0
  2 17  1  0  0  0  0
  3  1  2  0  0  0  0
  4  5  2  0  0  0  0
  4  3  1  0  0  0  0
  5  6  1  0  0  0  0
  6  2  2  0  0  0  0
  7  3  1  6  0  0  0
  7  8  1  0  0  0  0
  9 16  1  0  0  0  0
  9 15  2  0  0  0  0
 10  7  1  0  0  0  0
 11 12  2  0  0  0  0
 12 13  1  0  0  0  0
 13  8  1  0  0  0  0
 14 10  2  0  0  0  0
 14 12  1  0  0  0  0
 15 11  1  0  0  0  0
 16 14  1  0  0  0  0
 17 19  1  0  0  0  0
 17 18  2  0  0  0  0
 19 22  1  0  0  0  0
 20 22  1  0  0  0  0
 20 23  1  0  0  0  0
 21 20  2  0  0  0  0
 22 25  1  0  0  0  0
 24 23  1  0  0  0  0
 25 28  1  0  0  0  0
 28 26  1  1  0  0  0
 28 27  1  0  0  0  0
 29  4  1  0  0  0  0
 30 29  1  0  0  0  0
 31 32  1  0  0  0  0
 32 30  1  0  0  0  0
M  END
>  <MODEL>
4

>  <REMARK>
 VINA RESULT:      -8.2      1.573      2.036
  Name = 
  10 active torsions:
  status: ('A' for Active; 'I' for Inactive)
    1  A    between atoms: C_2  and  C_5
    2  A    between atoms: C_3  and  C_22
    3  A    between atoms: C_4  and  C_24
    4  A    between atoms: C_13  and  O_18
    5  A    between atoms: C_13  and  C_29
    6  A    between atoms: C_14  and  O_18
    7  A    between atoms: C_15  and  N_20
    8  A    between atoms: C_15  and  C_26
    9  A    between atoms: C_16  and  N_20
   10  A    between atoms: C_16  and  C_24
                            x       y       z     vdW  Elec       q    Type
                         _______ _______ _______ _____ _____    ______ ____

>  <TORSDO>
F 10

$$$$
=
 OpenBabel11062408313D

 32 34  0  0  1  0  0  0  0  0999 V2000
  161.2140  207.3870  151.4540 C   0  0  0  0  0  3  0  0  0  0  0  0
  161.6290  208.7200  151.4890 C   0  0  0  0  0  0  0  0  0  0  0  0
  161.1180  206.7070  150.2350 C   0  0  0  0  0  0  0  0  0  0  0  0
  161.4420  207.3920  149.0360 C   0  0  0  0  0  0  0  0  0  0  0  0
  161.8410  208.7280  149.1220 C   0  0  0  0  0  3  0  0  0  0  0  0
  161.9280  209.3560  150.3240 N   0  0  0  0  0  0  0  0  0  0  0  0
  160.6270  205.2910  150.2510 C   0  0  2  0  0  3  0  0  0  0  0  0
  161.2800  204.4890  151.3810 C   0  0  0  0  0  2  0  0  0  0  0  0
  161.2360  201.3770  147.3600 C   0  0  0  0  0  3  0  0  0  0  0  0
  160.8400  204.6580  148.9440 N   0  0  0  0  0  0  0  0  0  0  0  0
  161.0650  201.1570  149.7950 C   0  0  0  0  0  3  0  0  0  0  0  0
  160.9480  202.4750  149.9750 C   0  0  0  0  0  0  0  0  0  0  0  0
  160.7790  203.0470  151.3490 C   0  0  0  0  0  2  0  0  0  0  0  0
  160.9430  203.3710  148.7990 C   0  0  0  0  0  0  0  0  0  0  0  0
  161.2180  200.5860  148.4400 C   0  0  0  0  0  3  0  0  0  0  0  0
  161.1070  202.7990  147.4980 N   0  0  0  0  0  2  0  0  0  0  0  0
  161.7300  209.4440  152.7680 C   0  0  0  0  0  0  0  0  0  0  0  0
  162.6030  210.3420  152.9120 O   0  0  0  0  0  0  0  0  0  0  0  0
  160.8320  209.1150  153.9200 C   0  0  0  0  0  2  0  0  0  0  0  0
  161.6920  209.9420  156.1300 C   0  0  0  0  0  0  0  0  0  0  0  0
  162.0100  208.7730  156.4760 O   0  0  0  0  0  0  0  0  0  0  0  0
  160.9130  210.1550  154.9400 N   0  0  0  0  0  0  0  0  0  0  0  0
  162.1870  211.0930  156.9390 C   0  0  0  0  0  2  0  0  0  0  0  0
  163.6890  210.9890  157.1130 C   0  0  0  0  0  1  0  0  0  0  0  0
  160.2980  211.4470  154.6550 C   0  0  0  0  0  2  0  0  0  0  0  0
  158.4970  210.2720  155.6520 F   0  0  0  0  0  0  0  0  0  0  0  0
  158.1170  211.3250  153.6830 O   0  0  0  0  0  1  0  0  0  0  0  0
  158.7980  211.3920  154.8990 C   0  0  2  0  0  3  0  0  0  0  0  0
  161.3760  206.8260  147.7520 O   0  0  0  0  0  0  0  0  0  0  0  0
  162.4690  206.2490  147.0450 C   0  0  0  0  0  2  0  0  0  0  0  0
  160.5480  206.0430  145.4760 C   0  0  0  0  0  1  0  0  0  0  0  0
  162.0330  205.8000  145.6600 C   0  0  0  0  0  2  0  0  0  0  0  0
  1  2  1  0  0  0  0
  2 17  1  0  0  0  0
  3  1  2  0  0  0  0
  4  5  2  0  0  0  0
  4  3  1  0  0  0  0
  5  6  1  0  0  0  0
  6  2  2  0  0  0  0
  7  3  1  6  0  0  0
  7  8  1  0  0  0  0
  9 16  1  0  0  0  0
  9 15  2  0  0  0  0
 10  7  1  0  0  0  0
 11 12  2  0  0  0  0
 12 13  1  0  0  0  0
 13  8  1  0  0  0  0
 14 10  2  0  0  0  0
 14 12  1  0  0  0  0
 15 11  1  0  0  0  0
 16 14  1  0  0  0  0
 17 18  2  0  0  0  0
 17 19  1  0  0  0  0
 19 22  1  0  0  0  0
 20 21  2  0  0  0  0
 20 23  1  0  0  0  0
 22 20  1  0  0  0  0
 23 24  1  0  0  0  0
 25 28  1  0  0  0  0
 25 22  1  0  0  0  0
 28 27  1  6  0  0  0
 28 26  1  0  0  0  0
 29  4  1  0  0  0  0
 30 29  1  0  0  0  0
 31 32  1  0  0  0  0
 32 30  1  0  0  0  0
M  END
>  <MODEL>
5

>  <REMARK>
 VINA RESULT:      -8.0      1.348      1.994
  Name = 
  10 active torsions:
  status: ('A' for Active; 'I' for Inactive)
    1  A    between atoms: C_2  and  C_5
    2  A    between atoms: C_3  and  C_22
    3  A    between atoms: C_4  and  C_24
    4  A    between atoms: C_13  and  O_18
    5  A    between atoms: C_13  and  C_29
    6  A    between atoms: C_14  and  O_18
    7  A    between atoms: C_15  and  N_20
    8  A    between atoms: C_15  and  C_26
    9  A    between atoms: C_16  and  N_20
   10  A    between atoms: C_16  and  C_24
                            x       y       z     vdW  Elec       q    Type
                         _______ _______ _______ _____ _____    ______ ____

>  <TORSDO>
F 10

$$$$
=
 OpenBabel11062408313D

 32 34  0  0  1  0  0  0  0  0999 V2000
  161.3090  207.2980  151.1900 C   0  0  0  0  0  3  0  0  0  0  0  0
  161.5020  206.5440  150.0310 C   0  0  0  0  0  0  0  0  0  0  0  0
  161.5290  208.6800  151.1810 C   0  0  0  0  0  0  0  0  0  0  0  0
  161.9560  209.3020  149.9800 C   0  0  0  0  0  0  0  0  0  0  0  0
  162.1460  208.5020  148.8490 C   0  0  0  0  0  3  0  0  0  0  0  0
  161.9190  207.1640  148.8940 N   0  0  0  0  0  0  0  0  0  0  0  0
  161.3480  209.4350  152.4630 C   0  0  2  0  0  3  0  0  0  0  0  0
  161.2040  208.4810  153.6530 C   0  0  0  0  0  2  0  0  0  0  0  0
  157.7520  212.1350  154.4180 C   0  0  0  0  0  3  0  0  0  0  0  0
  160.2070  210.3520  152.3620 N   0  0  0  0  0  0  0  0  0  0  0  0
  159.1720  210.6970  155.8040 C   0  0  0  0  0  3  0  0  0  0  0  0
  159.8690  210.2560  154.7530 C   0  0  0  0  0  0  0  0  0  0  0  0
  160.9930  209.2830  154.9360 C   0  0  0  0  0  2  0  0  0  0  0  0
  159.5520  210.7710  153.4040 C   0  0  0  0  0  0  0  0  0  0  0  0
  158.0720  211.6700  155.6310 C   0  0  0  0  0  3  0  0  0  0  0  0
  158.4740  211.6990  153.2570 N   0  0  0  0  0  2  0  0  0  0  0  0
  161.2760  205.0880  150.0330 C   0  0  0  0  0  0  0  0  0  0  0  0
  161.8270  204.3700  150.9100 O   0  0  0  0  0  0  0  0  0  0  0  0
  160.4250  204.4330  148.9900 C   0  0  0  0  0  2  0  0  0  0  0  0
  160.9020  202.0680  148.2930 C   0  0  0  0  0  0  0  0  0  0  0  0
  160.2150  201.6170  149.2490 O   0  0  0  0  0  0  0  0  0  0  0  0
  161.2110  203.4710  148.2250 N   0  0  0  0  0  0  0  0  0  0  0  0
  161.3320  201.1340  147.2120 C   0  0  0  0  0  2  0  0  0  0  0  0
  160.3580  201.2100  146.0530 C   0  0  0  0  0  1  0  0  0  0  0  0
  162.2170  203.9830  147.3010 C   0  0  0  0  0  2  0  0  0  0  0  0
  161.2620  204.0120  145.1330 F   0  0  0  0  0  0  0  0  0  0  0  0
  162.4390  205.8280  145.7970 O   0  0  0  0  0  1  0  0  0  0  0  0
  161.5670  204.8210  146.2110 C   0  0  2  0  0  3  0  0  0  0  0  0
  162.2210  210.6750  149.8430 O   0  0  0  0  0  0  0  0  0  0  0  0
  161.9040  211.4690  148.7040 C   0  0  0  0  0  2  0  0  0  0  0  0
  162.7050  213.6780  147.8840 C   0  0  0  0  0  1  0  0  0  0  0  0
  163.1170  212.2680  148.2560 C   0  0  0  0  0  2  0  0  0  0  0  0
  2 17  1  0  0  0  0
  2  1  2  0  0  0  0
  3  1  1  0  0  0  0
  4  3  2  0  0  0  0
  5  6  2  0  0  0  0
  5  4  1  0  0  0  0
  6  2  1  0  0  0  0
  7  3  1  6  0  0  0
  7  8  1  0  0  0  0
  8 13  1  0  0  0  0
  9 15  2  0  0  0  0
 10  7  1  0  0  0  0
 10 14  2  0  0  0  0
 12 13  1  0  0  0  0
 12 11  2  0  0  0  0
 14 12  1  0  0  0  0
 15 11  1  0  0  0  0
 16 14  1  0  0  0  0
 16  9  1  0  0  0  0
 17 18  2  0  0  0  0
 19 17  1  0  0  0  0
 20 21  2  0  0  0  0
 22 20  1  0  0  0  0
 22 19  1  0  0  0  0
 23 20  1  0  0  0  0
 24 23  1  0  0  0  0
 25 22  1  0  0  0  0
 27 28  1  0  0  0  0
 28 26  1  6  0  0  0
 28 25  1  0  0  0  0
 29  4  1  0  0  0  0
 30 29  1  0  0  0  0
 31 32  1  0  0  0  0
 32 30  1  0  0  0  0
M  END
>  <MODEL>
6

>  <REMARK>
 VINA RESULT:      -7.8      3.090      8.647
  Name = 
  10 active torsions:
  status: ('A' for Active; 'I' for Inactive)
    1  A    between atoms: C_2  and  C_5
    2  A    between atoms: C_3  and  C_22
    3  A    between atoms: C_4  and  C_24
    4  A    between atoms: C_13  and  O_18
    5  A    between atoms: C_13  and  C_29
    6  A    between atoms: C_14  and  O_18
    7  A    between atoms: C_15  and  N_20
    8  A    between atoms: C_15  and  C_26
    9  A    between atoms: C_16  and  N_20
   10  A    between atoms: C_16  and  C_24
                            x       y       z     vdW  Elec       q    Type
                         _______ _______ _______ _____ _____    ______ ____

>  <TORSDO>
F 10

$$$$
=
 OpenBabel11062408313D

 32 34  0  0  1  0  0  0  0  0999 V2000
  161.3480  207.8180  152.0040 C   0  0  0  0  0  3  0  0  0  0  0  0
  161.2310  206.5040  152.4620 C   0  0  0  0  0  0  0  0  0  0  0  0
  161.2260  208.8920  152.8930 C   0  0  0  0  0  0  0  0  0  0  0  0
  160.9770  208.6280  154.2630 C   0  0  0  0  0  0  0  0  0  0  0  0
  160.8550  207.2970  154.6710 C   0  0  0  0  0  3  0  0  0  0  0  0
  160.9840  206.2790  153.7810 N   0  0  0  0  0  0  0  0  0  0  0  0
  161.3200  210.2820  152.3400 C   0  0  2  0  0  3  0  0  0  0  0  0
  159.9540  210.9760  152.3490 C   0  0  0  0  0  2  0  0  0  0  0  0
  162.0700  212.2020  147.8910 C   0  0  0  0  0  3  0  0  0  0  0  0
  161.9100  210.2630  150.9960 N   0  0  0  0  0  0  0  0  0  0  0  0
  160.5540  213.2570  149.5020 C   0  0  0  0  0  3  0  0  0  0  0  0
  160.7590  212.3080  150.4200 C   0  0  0  0  0  0  0  0  0  0  0  0
  160.0820  212.3770  151.7540 C   0  0  0  0  0  2  0  0  0  0  0  0
  161.6980  211.2040  150.1260 C   0  0  0  0  0  0  0  0  0  0  0  0
  161.2310  213.2020  148.1880 C   0  0  0  0  0  3  0  0  0  0  0  0
  162.3300  211.1620  148.8440 N   0  0  0  0  0  2  0  0  0  0  0  0
  161.3540  205.3680  151.5330 C   0  0  0  0  0  0  0  0  0  0  0  0
  162.3300  204.5780  151.6360 O   0  0  0  0  0  0  0  0  0  0  0  0
  160.3550  205.1460  150.4400 C   0  0  0  0  0  2  0  0  0  0  0  0
  160.8190  203.0050  149.2140 C   0  0  0  0  0  0  0  0  0  0  0  0
  160.4780  202.3230  150.2180 O   0  0  0  0  0  0  0  0  0  0  0  0
  160.9700  204.4300  149.3280 N   0  0  0  0  0  0  0  0  0  0  0  0
  161.0010  202.3160  147.9030 C   0  0  0  0  0  2  0  0  0  0  0  0
  161.2060  200.8310  148.1290 C   0  0  0  0  0  1  0  0  0  0  0  0
  161.6190  205.2120  148.2810 C   0  0  0  0  0  2  0  0  0  0  0  0
  160.4500  206.5090  146.6800 F   0  0  0  0  0  0  0  0  0  0  0  0
  161.6430  207.6020  148.2640 O   0  0  0  0  0  1  0  0  0  0  0  0
  160.8430  206.4890  148.0050 C   0  0  2  0  0  3  0  0  0  0  0  0
  160.8230  209.6150  155.2510 O   0  0  0  0  0  0  0  0  0  0  0  0
  159.7040  209.7470  156.1210 C   0  0  0  0  0  2  0  0  0  0  0  0
  160.0830  212.1870  155.8060 C   0  0  0  0  0  1  0  0  0  0  0  0
  159.0360  211.0980  155.9310 C   0  0  0  0  0  2  0  0  0  0  0  0
  1  2  2  0  0  0  0
  1  3  1  0  0  0  0
  2  6  1  0  0  0  0
  3  4  2  0  0  0  0
  4  5  1  0  0  0  0
  4 29  1  0  0  0  0
  6  5  2  0  0  0  0
  7  8  1  0  0  0  0
  7  3  1  6  0  0  0
  9 15  2  0  0  0  0
  9 16  1  0  0  0  0
 10  7  1  0  0  0  0
 11 12  2  0  0  0  0
 12 13  1  0  0  0  0
 13  8  1  0  0  0  0
 14 12  1  0  0  0  0
 14 10  2  0  0  0  0
 15 11  1  0  0  0  0
 16 14  1  0  0  0  0
 17 18  2  0  0  0  0
 17  2  1  0  0  0  0
 19 17  1  0  0  0  0
 20 22  1  0  0  0  0
 20 21  2  0  0  0  0
 22 19  1  0  0  0  0
 23 24  1  0  0  0  0
 23 20  1  0  0  0  0
 25 22  1  0  0  0  0
 28 26  1  6  0  0  0
 28 27  1  0  0  0  0
 28 25  1  0  0  0  0
 29 30  1  0  0  0  0
 31 32  1  0  0  0  0
 32 30  1  0  0  0  0
M  END
>  <MODEL>
7

>  <REMARK>
 VINA RESULT:      -7.7      2.913      8.685
  Name = 
  10 active torsions:
  status: ('A' for Active; 'I' for Inactive)
    1  A    between atoms: C_2  and  C_5
    2  A    between atoms: C_3  and  C_22
    3  A    between atoms: C_4  and  C_24
    4  A    between atoms: C_13  and  O_18
    5  A    between atoms: C_13  and  C_29
    6  A    between atoms: C_14  and  O_18
    7  A    between atoms: C_15  and  N_20
    8  A    between atoms: C_15  and  C_26
    9  A    between atoms: C_16  and  N_20
   10  A    between atoms: C_16  and  C_24
                            x       y       z     vdW  Elec       q    Type
                         _______ _______ _______ _____ _____    ______ ____

>  <TORSDO>
F 10

$$$$
=
 OpenBabel11062408313D

 32 34  0  0  1  0  0  0  0  0999 V2000
  161.2500  207.8120  151.8370 C   0  0  0  0  0  3  0  0  0  0  0  0
  161.5740  206.9650  150.7750 C   0  0  0  0  0  0  0  0  0  0  0  0
  161.4110  209.1970  151.7130 C   0  0  0  0  0  0  0  0  0  0  0  0
  161.9130  209.7260  150.4970 C   0  0  0  0  0  0  0  0  0  0  0  0
  162.2350  208.8370  149.4680 C   0  0  0  0  0  3  0  0  0  0  0  0
  162.0610  207.4980  149.6220 N   0  0  0  0  0  0  0  0  0  0  0  0
  161.0860  210.0560  152.8970 C   0  0  2  0  0  3  0  0  0  0  0  0
  161.1630  209.2560  154.2010 C   0  0  0  0  0  2  0  0  0  0  0  0
  157.0180  212.1700  154.6380 C   0  0  0  0  0  3  0  0  0  0  0  0
  159.7740  210.6920  152.7270 N   0  0  0  0  0  0  0  0  0  0  0  0
  158.7290  211.2550  156.1370 C   0  0  0  0  0  3  0  0  0  0  0  0
  159.4920  210.8380  155.1230 C   0  0  0  0  0  0  0  0  0  0  0  0
  160.7990  210.1560  155.3810 C   0  0  0  0  0  2  0  0  0  0  0  0
  159.0570  211.0940  153.7330 C   0  0  0  0  0  0  0  0  0  0  0  0
  157.4440  211.9430  155.8870 C   0  0  0  0  0  3  0  0  0  0  0  0
  157.8040  211.7480  153.5140 N   0  0  0  0  0  2  0  0  0  0  0  0
  161.4120  205.5060  150.8990 C   0  0  0  0  0  0  0  0  0  0  0  0
  162.1940  204.8490  151.6360 O   0  0  0  0  0  0  0  0  0  0  0  0
  160.3480  204.7760  150.1380 C   0  0  0  0  0  2  0  0  0  0  0  0
  161.1250  204.7740  147.7500 C   0  0  0  0  0  0  0  0  0  0  0  0
  160.4940  205.8390  147.5130 O   0  0  0  0  0  0  0  0  0  0  0  0
  160.9300  204.0810  148.9950 N   0  0  0  0  0  0  0  0  0  0  0  0
  162.1140  204.2840  146.7460 C   0  0  0  0  0  2  0  0  0  0  0  0
  162.5920  205.4410  145.8910 C   0  0  0  0  0  1  0  0  0  0  0  0
  161.4220  202.7220  149.1940 C   0  0  0  0  0  2  0  0  0  0  0  0
  159.4410  201.4240  149.2820 F   0  0  0  0  0  0  0  0  0  0  0  0
  161.2380  200.5460  148.2210 O   0  0  0  0  0  1  0  0  0  0  0  0
  160.5290  201.7180  148.4810 C   0  0  2  0  0  3  0  0  0  0  0  0
  162.1300  211.0920  150.2510 O   0  0  0  0  0  0  0  0  0  0  0  0
  161.6280  211.8220  149.1360 C   0  0  0  0  0  2  0  0  0  0  0  0
  162.2240  213.0860  147.0760 C   0  0  0  0  0  1  0  0  0  0  0  0
  162.7690  212.3110  148.2600 C   0  0  0  0  0  2  0  0  0  0  0  0
  2 17  1  0  0  0  0
  2  1  2  0  0  0  0
  3  1  1  0  0  0  0
  4  3  2  0  0  0  0
  5  6  2  0  0  0  0
  5  4  1  0  0  0  0
  6  2  1  0  0  0  0
  7  3  1  6  0  0  0
  7  8  1  0  0  0  0
  8 13  1  0  0  0  0
  9 15  2  0  0  0  0
 10  7  1  0  0  0  0
 10 14  2  0  0  0  0
 12 13  1  0  0  0  0
 12 11  2  0  0  0  0
 14 12  1  0  0  0  0
 15 11  1  0  0  0  0
 16 14  1  0  0  0  0
 16  9  1  0  0  0  0
 17 18  2  0  0  0  0
 19 17  1  0  0  0  0
 20 22  1  0  0  0  0
 21 20  2  0  0  0  0
 22 25  1  0  0  0  0
 22 19  1  0  0  0  0
 23 20  1  0  0  0  0
 24 23  1  0  0  0  0
 28 27  1  1  0  0  0
 28 25  1  0  0  0  0
 28 26  1  0  0  0  0
 29  4  1  0  0  0  0
 30 29  1  0  0  0  0
 31 32  1  0  0  0  0
 32 30  1  0  0  0  0
M  END
>  <MODEL>
8

>  <REMARK>
 VINA RESULT:      -7.5      2.813      8.303
  Name = 
  10 active torsions:
  status: ('A' for Active; 'I' for Inactive)
    1  A    between atoms: C_2  and  C_5
    2  A    between atoms: C_3  and  C_22
    3  A    between atoms: C_4  and  C_24
    4  A    between atoms: C_13  and  O_18
    5  A    between atoms: C_13  and  C_29
    6  A    between atoms: C_14  and  O_18
    7  A    between atoms: C_15  and  N_20
    8  A    between atoms: C_15  and  C_26
    9  A    between atoms: C_16  and  N_20
   10  A    between atoms: C_16  and  C_24
                            x       y       z     vdW  Elec       q    Type
                         _______ _______ _______ _____ _____    ______ ____

>  <TORSDO>
F 10

$$$$
=
 OpenBabel11062408313D

 32 34  0  0  1  0  0  0  0  0999 V2000
  161.3370  207.8350  152.0440 C   0  0  0  0  0  3  0  0  0  0  0  0
  161.2110  206.5220  152.5030 C   0  0  0  0  0  0  0  0  0  0  0  0
  161.2150  208.9100  152.9310 C   0  0  0  0  0  0  0  0  0  0  0  0
  160.9560  208.6480  154.3000 C   0  0  0  0  0  0  0  0  0  0  0  0
  160.8260  207.3180  154.7090 C   0  0  0  0  0  3  0  0  0  0  0  0
  160.9550  206.2990  153.8200 N   0  0  0  0  0  0  0  0  0  0  0  0
  161.3180  210.3000  152.3780 C   0  0  2  0  0  3  0  0  0  0  0  0
  159.9600  211.0080  152.4000 C   0  0  0  0  0  2  0  0  0  0  0  0
  162.0460  212.2130  147.9220 C   0  0  0  0  0  3  0  0  0  0  0  0
  161.8940  210.2740  151.0290 N   0  0  0  0  0  0  0  0  0  0  0  0
  160.5560  213.2830  149.5480 C   0  0  0  0  0  3  0  0  0  0  0  0
  160.7600  212.3320  150.4640 C   0  0  0  0  0  0  0  0  0  0  0  0
  160.0970  212.4080  151.8040 C   0  0  0  0  0  2  0  0  0  0  0  0
  161.6840  211.2180  150.1610 C   0  0  0  0  0  0  0  0  0  0  0  0
  161.2200  213.2210  148.2280 C   0  0  0  0  0  3  0  0  0  0  0  0
  162.3040  211.1700  148.8730 N   0  0  0  0  0  2  0  0  0  0  0  0
  161.3350  205.3840  151.5750 C   0  0  0  0  0  0  0  0  0  0  0  0
  162.3520  204.6430  151.6260 O   0  0  0  0  0  0  0  0  0  0  0  0
  160.2850  205.1050  150.5440 C   0  0  0  0  0  2  0  0  0  0  0  0
  161.3060  206.0170  148.4390 C   0  0  0  0  0  0  0  0  0  0  0  0
  160.8320  207.1620  148.6700 O   0  0  0  0  0  0  0  0  0  0  0  0
  160.9010  204.8930  149.2390 N   0  0  0  0  0  0  0  0  0  0  0  0
  162.3330  205.8660  147.3680 C   0  0  0  0  0  2  0  0  0  0  0  0
  161.6570  205.8390  146.0110 C   0  0  0  0  0  1  0  0  0  0  0  0
  161.2080  203.5240  148.8380 C   0  0  0  0  0  2  0  0  0  0  0  0
  161.2290  201.8600  150.5230 F   0  0  0  0  0  0  0  0  0  0  0  0
  159.7780  201.6090  148.8040 O   0  0  0  0  0  1  0  0  0  0  0  0
  160.3930  202.5310  149.6510 C   0  0  2  0  0  3  0  0  0  0  0  0
  160.8010  209.6370  155.2860 O   0  0  0  0  0  0  0  0  0  0  0  0
  159.6660  209.7910  156.1320 C   0  0  0  0  0  2  0  0  0  0  0  0
  157.6760  211.0420  155.3100 C   0  0  0  0  0  1  0  0  0  0  0  0
  159.0460  211.1660  155.9490 C   0  0  0  0  0  2  0  0  0  0  0  0
  1  2  2  0  0  0  0
  1  3  1  0  0  0  0
  2  6  1  0  0  0  0
  3  4  2  0  0  0  0
  4  5  1  0  0  0  0
  4 29  1  0  0  0  0
  6  5  2  0  0  0  0
  7  8  1  0  0  0  0
  7  3  1  6  0  0  0
  9 15  2  0  0  0  0
  9 16  1  0  0  0  0
 10  7  1  0  0  0  0
 11 12  2  0  0  0  0
 12 13  1  0  0  0  0
 13  8  1  0  0  0  0
 14 12  1  0  0  0  0
 14 10  2  0  0  0  0
 15 11  1  0  0  0  0
 16 14  1  0  0  0  0
 17 18  2  0  0  0  0
 17  2  1  0  0  0  0
 19 17  1  0  0  0  0
 20 21  2  0  0  0  0
 20 22  1  0  0  0  0
 22 19  1  0  0  0  0
 23 20  1  0  0  0  0
 24 23  1  0  0  0  0
 25 22  1  0  0  0  0
 25 28  1  0  0  0  0
 28 27  1  6  0  0  0
 28 26  1  0  0  0  0
 29 30  1  0  0  0  0
 31 32  1  0  0  0  0
 32 30  1  0  0  0  0
M  END
>  <MODEL>
9

>  <REMARK>
 VINA RESULT:      -7.4      2.780      8.390
  Name = 
  10 active torsions:
  status: ('A' for Active; 'I' for Inactive)
    1  A    between atoms: C_2  and  C_5
    2  A    between atoms: C_3  and  C_22
    3  A    between atoms: C_4  and  C_24
    4  A    between atoms: C_13  and  O_18
    5  A    between atoms: C_13  and  C_29
    6  A    between atoms: C_14  and  O_18
    7  A    between atoms: C_15  and  N_20
    8  A    between atoms: C_15  and  C_26
    9  A    between atoms: C_16  and  N_20
   10  A    between atoms: C_16  and  C_24
                            x       y       z     vdW  Elec       q    Type
                         _______ _______ _______ _____ _____    ______ ____

>  <TORSDO>
F 10

$$$$
