=
 OpenBabel11062407443D

 34 39  0  0  1  0  0  0  0  0999 V2000
  160.8400  208.0920  154.6390 C   0  0  0  0  0  0  0  0  0  0  0  0
  162.1170  210.0320  153.9420 C   0  0  0  0  0  0  0  0  0  0  0  0
  161.5170  208.2260  152.2890 C   0  0  0  0  0  0  0  0  0  0  0  0
  161.8670  208.2860  149.8920 C   0  0  0  0  0  0  0  0  0  0  0  0
  161.1500  209.9420  156.1640 C   0  0  0  0  0  3  0  0  0  0  0  0
  161.9080  210.6040  155.2000 C   0  0  0  0  0  3  0  0  0  0  0  0
  161.4170  210.7000  150.8370 S   0  0  0  0  0  0  0  0  0  0  0  0
  161.4720  208.8150  153.5920 C   0  0  0  0  0  0  0  0  0  0  0  0
  162.0140  209.1350  148.6860 C   0  0  0  0  0  2  0  0  0  0  0  0
  160.6470  208.6720  155.8940 C   0  0  0  0  0  3  0  0  0  0  0  0
  161.2470  206.8310  152.1570 C   0  0  0  0  0  0  0  0  0  0  0  0
  160.4580  206.7680  154.4550 C   0  0  0  0  0  3  0  0  0  0  0  0
  163.0570  210.6310  153.1140 O   0  0  0  0  0  1  0  0  0  0  0  0
  161.7430  206.9420  149.8150 N   0  0  0  0  0  0  0  0  0  0  0  0
  161.4410  206.1860  150.9060 C   0  0  0  0  0  0  0  0  0  0  0  0
  162.1980  210.5610  149.1890 C   0  0  1  0  0  3  0  0  0  0  0  0
  161.7210  208.9540  151.0890 C   0  0  0  0  0  0  0  0  0  0  0  0
  160.6930  206.1360  153.2410 C   0  0  0  0  0  3  0  0  0  0  0  0
  160.7680  202.7950  149.3130 C   0  0  0  0  0  0  0  0  0  0  0  0
  160.9510  201.9440  150.4050 C   0  0  0  0  0  3  0  0  0  0  0  0
  161.2960  204.7190  150.7090 C   0  0  0  0  0  0  0  0  0  0  0  0
  161.2960  202.4740  151.6510 C   0  0  0  0  0  3  0  0  0  0  0  0
  160.9340  204.1740  149.4660 C   0  0  0  0  0  3  0  0  0  0  0  0
  161.4630  203.8540  151.8020 C   0  0  0  0  0  3  0  0  0  0  0  0
  160.4270  202.2840  148.1060 F   0  0  0  0  0  0  0  0  0  0  0  0
  162.3270  212.4170  147.5830 C   0  0  0  0  0  3  0  0  0  0  0  0
  161.5790  211.5190  148.2290 C   0  0  0  0  0  3  0  0  0  0  0  0
  162.7570  213.8280  145.5500 C   0  0  0  0  0  2  0  0  0  0  0  0
  161.7340  213.3960  146.6150 C   0  0  1  0  0  3  0  0  0  0  0  0
  162.5630  213.0650  144.2400 C   0  0  0  0  0  2  0  0  0  0  0  0
  161.1610  213.2860  143.6550 C   0  0  1  0  0  3  0  0  0  0  0  0
  160.0840  213.5570  144.7140 C   0  0  0  0  0  2  0  0  0  0  0  0
  160.4160  212.8630  146.0320 C   0  0  0  0  0  2  0  0  0  0  0  0
  161.1910  214.3440  142.7460 O   0  0  0  0  0  1  0  0  0  0  0  0
  1 10  2  0  0  0  0
  2  6  1  0  0  0  0
  3  8  1  0  0  0  0
  4 17  1  0  0  0  0
  6  5  2  0  0  0  0
  7 17  1  0  0  0  0
  8  2  2  0  0  0  0
  8  1  1  0  0  0  0
  9 16  1  0  0  0  0
  9  4  1  0  0  0  0
 10  5  1  0  0  0  0
 11  3  1  0  0  0  0
 11 18  1  0  0  0  0
 12  1  1  0  0  0  0
 13  2  1  0  0  0  0
 14  4  2  0  0  0  0
 14 15  1  0  0  0  0
 15 11  2  0  0  0  0
 16 27  1  6  0  0  0
 16  7  1  0  0  0  0
 17  3  2  0  0  0  0
 18 12  2  0  0  0  0
 19 23  2  0  0  0  0
 19 20  1  0  0  0  0
 20 22  2  0  0  0  0
 21 15  1  0  0  0  0
 21 24  2  0  0  0  0
 22 24  1  0  0  0  0
 23 21  1  0  0  0  0
 25 19  1  0  0  0  0
 26 27  2  0  0  0  0
 28 29  1  0  0  0  0
 29 26  1  6  0  0  0
 30 28  1  0  0  0  0
 31 34  1  6  0  0  0
 31 30  1  0  0  0  0
 31 32  1  0  0  0  0
 32 33  1  0  0  0  0
 33 29  1  0  0  0  0
M  END
>  <MODEL>
1

>  <REMARK>
 VINA RESULT:     -10.0      0.000      0.000
  Name = 
  3 active torsions:
  status: ('A' for Active; 'I' for Inactive)
    1  A    between atoms: C_3  and  C_13
    2  A    between atoms: C_12  and  C_28
    3  A    between atoms: C_17  and  C_29
                            x       y       z     vdW  Elec       q    Type
                         _______ _______ _______ _____ _____    ______ ____

>  <TORSDO>
F 3

$$$$
=
 OpenBabel11062407443D

 34 39  0  0  1  0  0  0  0  0999 V2000
  160.7050  208.0330  154.8000 C   0  0  0  0  0  0  0  0  0  0  0  0
  161.9970  210.0170  154.2740 C   0  0  0  0  0  0  0  0  0  0  0  0
  161.4650  208.3200  152.4880 C   0  0  0  0  0  0  0  0  0  0  0  0
  161.8990  208.5350  150.1140 C   0  0  0  0  0  0  0  0  0  0  0  0
  160.9520  209.7820  156.4500 C   0  0  0  0  0  3  0  0  0  0  0  0
  161.7400  210.5060  155.5590 C   0  0  0  0  0  3  0  0  0  0  0  0
  161.4040  210.8820  151.1960 S   0  0  0  0  0  0  0  0  0  0  0  0
  161.3700  208.8240  153.8240 C   0  0  0  0  0  0  0  0  0  0  0  0
  162.0840  209.4600  148.9720 C   0  0  0  0  0  2  0  0  0  0  0  0
  160.4640  208.5310  156.0820 C   0  0  0  0  0  3  0  0  0  0  0  0
  161.2050  206.9350  152.2580 C   0  0  0  0  0  0  0  0  0  0  0  0
  160.3360  206.7230  154.5170 C   0  0  0  0  0  3  0  0  0  0  0  0
  162.9620  210.6700  153.5200 O   0  0  0  0  0  1  0  0  0  0  0  0
  161.7840  207.1980  149.9470 N   0  0  0  0  0  0  0  0  0  0  0  0
  161.4470  206.3720  150.9760 C   0  0  0  0  0  0  0  0  0  0  0  0
  162.2440  210.8510  149.5710 C   0  0  1  0  0  3  0  0  0  0  0  0
  161.7070  209.1240  151.3460 C   0  0  0  0  0  0  0  0  0  0  0  0
  160.6170  206.1710  153.2740 C   0  0  0  0  0  3  0  0  0  0  0  0
  161.5920  202.5830  151.2990 C   0  0  0  0  0  0  0  0  0  0  0  0
  161.1290  202.1890  150.0410 C   0  0  0  0  0  3  0  0  0  0  0  0
  161.3160  204.9210  150.6790 C   0  0  0  0  0  0  0  0  0  0  0  0
  160.7670  203.1540  149.0980 C   0  0  0  0  0  3  0  0  0  0  0  0
  161.6900  203.9410  151.6130 C   0  0  0  0  0  3  0  0  0  0  0  0
  160.8640  204.5110  149.4150 C   0  0  0  0  0  3  0  0  0  0  0  0
  161.9490  201.6490  152.2120 F   0  0  0  0  0  0  0  0  0  0  0  0
  160.5870  212.5810  149.0190 C   0  0  0  0  0  3  0  0  0  0  0  0
  161.6550  211.8680  148.6530 C   0  0  0  0  0  3  0  0  0  0  0  0
  160.1960  213.2640  146.6340 C   0  0  0  0  0  2  0  0  0  0  0  0
  159.9700  213.6060  148.1170 C   0  0  1  0  0  3  0  0  0  0  0  0
  158.9670  212.6010  146.0160 C   0  0  0  0  0  2  0  0  0  0  0  0
  157.7290  213.5060  146.1000 C   0  0  1  0  0  3  0  0  0  0  0  0
  157.7370  214.4530  147.3070 C   0  0  0  0  0  2  0  0  0  0  0  0
  158.4970  213.8470  148.4830 C   0  0  0  0  0  2  0  0  0  0  0  0
  157.6090  214.2520  144.9280 O   0  0  0  0  0  1  0  0  0  0  0  0
  1 10  2  0  0  0  0
  2  6  1  0  0  0  0
  3  8  1  0  0  0  0
  4 17  1  0  0  0  0
  6  5  2  0  0  0  0
  7 17  1  0  0  0  0
  8  2  2  0  0  0  0
  8  1  1  0  0  0  0
  9 16  1  0  0  0  0
  9  4  1  0  0  0  0
 10  5  1  0  0  0  0
 11  3  1  0  0  0  0
 11 18  1  0  0  0  0
 12  1  1  0  0  0  0
 13  2  1  0  0  0  0
 14  4  2  0  0  0  0
 14 15  1  0  0  0  0
 15 11  2  0  0  0  0
 16 27  1  6  0  0  0
 16  7  1  0  0  0  0
 17  3  2  0  0  0  0
 18 12  2  0  0  0  0
 19 23  1  0  0  0  0
 19 25  1  0  0  0  0
 20 19  2  0  0  0  0
 21 15  1  0  0  0  0
 21 23  2  0  0  0  0
 22 24  2  0  0  0  0
 22 20  1  0  0  0  0
 24 21  1  0  0  0  0
 27 26  2  0  0  0  0
 28 29  1  0  0  0  0
 29 33  1  0  0  0  0
 29 26  1  1  0  0  0
 30 31  1  0  0  0  0
 30 28  1  0  0  0  0
 31 34  1  6  0  0  0
 31 32  1  0  0  0  0
 32 33  1  0  0  0  0
M  END
>  <MODEL>
2

>  <REMARK>
 VINA RESULT:      -8.8      1.536      2.026
  Name = 
  3 active torsions:
  status: ('A' for Active; 'I' for Inactive)
    1  A    between atoms: C_3  and  C_13
    2  A    between atoms: C_12  and  C_28
    3  A    between atoms: C_17  and  C_29
                            x       y       z     vdW  Elec       q    Type
                         _______ _______ _______ _____ _____    ______ ____

>  <TORSDO>
F 3

$$$$
=
 OpenBabel11062407443D

 34 39  0  0  1  0  0  0  0  0999 V2000
  161.2830  206.1870  149.2600 C   0  0  0  0  0  0  0  0  0  0  0  0
  161.7960  205.7580  151.5910 C   0  0  0  0  0  0  0  0  0  0  0  0
  161.5200  208.1180  150.7480 C   0  0  0  0  0  0  0  0  0  0  0  0
  161.4640  210.1350  152.0900 C   0  0  0  0  0  0  0  0  0  0  0  0
  161.2520  203.9220  150.1040 C   0  0  0  0  0  3  0  0  0  0  0  0
  161.6190  204.3900  151.3630 C   0  0  0  0  0  3  0  0  0  0  0  0
  160.4600  208.0960  153.4160 S   0  0  0  0  0  0  0  0  0  0  0  0
  161.5000  206.6990  150.5670 C   0  0  0  0  0  0  0  0  0  0  0  0
  161.1630  210.7300  153.4130 C   0  0  0  0  0  2  0  0  0  0  0  0
  161.1180  204.8170  149.0460 C   0  0  0  0  0  3  0  0  0  0  0  0
  161.6640  208.9530  149.6000 C   0  0  0  0  0  0  0  0  0  0  0  0
  161.2920  207.0340  148.1570 C   0  0  0  0  0  3  0  0  0  0  0  0
  162.3730  206.1390  152.7940 O   0  0  0  0  0  1  0  0  0  0  0  0
  161.7390  210.8930  151.0040 N   0  0  0  0  0  0  0  0  0  0  0  0
  161.8480  210.3530  149.7600 C   0  0  0  0  0  0  0  0  0  0  0  0
  160.9850  209.5620  154.3750 C   0  0  1  0  0  3  0  0  0  0  0  0
  161.3090  208.7680  151.9900 C   0  0  0  0  0  0  0  0  0  0  0  0
  161.5170  208.3940  148.3240 C   0  0  0  0  0  3  0  0  0  0  0  0
  161.3680  212.6560  146.7670 C   0  0  0  0  0  0  0  0  0  0  0  0
  162.6930  212.9580  146.4460 C   0  0  0  0  0  3  0  0  0  0  0  0
  162.1220  211.2790  148.6280 C   0  0  0  0  0  0  0  0  0  0  0  0
  163.7350  212.4190  147.2050 C   0  0  0  0  0  3  0  0  0  0  0  0
  161.0850  211.8160  147.8480 C   0  0  0  0  0  3  0  0  0  0  0  0
  163.4500  211.5810  148.2870 C   0  0  0  0  0  3  0  0  0  0  0  0
  160.3580  213.1720  146.0280 F   0  0  0  0  0  0  0  0  0  0  0  0
  159.1010  210.9050  155.2050 C   0  0  0  0  0  3  0  0  0  0  0  0
  159.9680  209.9100  155.4080 C   0  0  0  0  0  3  0  0  0  0  0  0
  158.1830  212.7610  156.6260 C   0  0  0  0  0  2  0  0  0  0  0  0
  158.0690  211.2800  156.2250 C   0  0  1  0  0  3  0  0  0  0  0  0
  157.1560  213.6230  155.8940 C   0  0  0  0  0  2  0  0  0  0  0  0
  155.7190  213.1710  156.1910 C   0  0  1  0  0  3  0  0  0  0  0  0
  155.5930  211.6720  156.4950 C   0  0  0  0  0  2  0  0  0  0  0  0
  156.6630  210.8660  155.7650 C   0  0  0  0  0  2  0  0  0  0  0  0
  155.2050  213.9040  157.2610 O   0  0  0  0  0  1  0  0  0  0  0  0
  1  8  1  0  0  0  0
  2 13  1  0  0  0  0
  3 17  1  0  0  0  0
  4  9  1  0  0  0  0
  5  6  2  0  0  0  0
  6  2  1  0  0  0  0
  7 16  1  0  0  0  0
  8  3  1  0  0  0  0
  8  2  2  0  0  0  0
  9 16  1  0  0  0  0
 10  1  2  0  0  0  0
 10  5  1  0  0  0  0
 11 15  1  0  0  0  0
 11  3  2  0  0  0  0
 12 18  2  0  0  0  0
 12  1  1  0  0  0  0
 14  4  1  0  0  0  0
 15 14  2  0  0  0  0
 16 27  1  1  0  0  0
 17  4  2  0  0  0  0
 17  7  1  0  0  0  0
 18 11  1  0  0  0  0
 19 23  1  0  0  0  0
 20 19  2  0  0  0  0
 20 22  1  0  0  0  0
 21 15  1  0  0  0  0
 22 24  2  0  0  0  0
 23 21  2  0  0  0  0
 24 21  1  0  0  0  0
 25 19  1  0  0  0  0
 26 27  2  0  0  0  0
 29 26  1  6  0  0  0
 29 28  1  0  0  0  0
 30 31  1  0  0  0  0
 30 28  1  0  0  0  0
 31 32  1  0  0  0  0
 31 34  1  1  0  0  0
 33 29  1  0  0  0  0
 33 32  1  0  0  0  0
M  END
>  <MODEL>
3

>  <REMARK>
 VINA RESULT:      -8.6      3.645      8.422
  Name = 
  3 active torsions:
  status: ('A' for Active; 'I' for Inactive)
    1  A    between atoms: C_3  and  C_13
    2  A    between atoms: C_12  and  C_28
    3  A    between atoms: C_17  and  C_29
                            x       y       z     vdW  Elec       q    Type
                         _______ _______ _______ _____ _____    ______ ____

>  <TORSDO>
F 3

$$$$
=
 OpenBabel11062407443D

 34 39  0  0  1  0  0  0  0  0999 V2000
  160.4440  212.7260  150.8700 C   0  0  0  0  0  0  0  0  0  0  0  0
  161.8860  212.1560  149.0050 C   0  0  0  0  0  0  0  0  0  0  0  0
  161.3930  210.4680  150.8110 C   0  0  0  0  0  0  0  0  0  0  0  0
  162.0180  208.1270  150.8120 C   0  0  0  0  0  0  0  0  0  0  0  0
  160.6660  214.2520  149.0080 C   0  0  0  0  0  3  0  0  0  0  0  0
  161.5610  213.3740  148.4010 C   0  0  0  0  0  3  0  0  0  0  0  0
  161.5810  208.9820  148.3620 S   0  0  0  0  0  0  0  0  0  0  0  0
  161.2270  211.7500  150.1970 C   0  0  0  0  0  0  0  0  0  0  0  0
  162.3450  206.9360  149.9930 C   0  0  0  0  0  2  0  0  0  0  0  0
  160.1360  213.9420  150.2580 C   0  0  0  0  0  3  0  0  0  0  0  0
  161.0710  210.3240  152.1940 C   0  0  0  0  0  0  0  0  0  0  0  0
  160.0210  212.5150  152.1780 C   0  0  0  0  0  3  0  0  0  0  0  0
  162.9430  211.4350  148.4670 O   0  0  0  0  0  1  0  0  0  0  0  0
  161.8380  208.0540  152.1500 N   0  0  0  0  0  0  0  0  0  0  0  0
  161.3760  209.1120  152.8710 C   0  0  0  0  0  0  0  0  0  0  0  0
  162.5390  207.4380  148.5680 C   0  0  1  0  0  3  0  0  0  0  0  0
  161.7680  209.2910  150.1160 C   0  0  0  0  0  0  0  0  0  0  0  0
  160.3630  211.3450  152.8420 C   0  0  0  0  0  3  0  0  0  0  0  0
  160.2190  207.7150  156.2170 C   0  0  0  0  0  0  0  0  0  0  0  0
  160.7770  208.6410  157.1020 C   0  0  0  0  0  3  0  0  0  0  0  0
  161.1830  208.9180  154.3330 C   0  0  0  0  0  0  0  0  0  0  0  0
  161.5290  209.7100  156.6080 C   0  0  0  0  0  3  0  0  0  0  0  0
  160.4170  207.8570  154.8400 C   0  0  0  0  0  3  0  0  0  0  0  0
  161.7270  209.8490  155.2320 C   0  0  0  0  0  3  0  0  0  0  0  0
  159.4840  206.6820  156.6930 F   0  0  0  0  0  0  0  0  0  0  0  0
  162.7400  206.1990  146.4550 C   0  0  0  0  0  3  0  0  0  0  0  0
  162.0830  206.4000  147.6000 C   0  0  0  0  0  3  0  0  0  0  0  0
  162.6370  203.7430  145.9400 C   0  0  0  0  0  2  0  0  0  0  0  0
  162.3030  205.1660  145.4600 C   0  0  1  0  0  3  0  0  0  0  0  0
  161.4180  203.0540  146.5510 C   0  0  0  0  0  2  0  0  0  0  0  0
  160.2620  202.9470  145.5450 C   0  0  1  0  0  3  0  0  0  0  0  0
  160.2400  204.0760  144.5060 C   0  0  0  0  0  2  0  0  0  0  0  0
  160.8290  205.3630  145.0730 C   0  0  0  0  0  2  0  0  0  0  0  0
  160.3190  201.7170  144.8900 O   0  0  0  0  0  1  0  0  0  0  0  0
  1 12  1  0  0  0  0
  2  8  1  0  0  0  0
  3 11  1  0  0  0  0
  4 14  2  0  0  0  0
  5 10  2  0  0  0  0
  6  2  2  0  0  0  0
  6  5  1  0  0  0  0
  7 16  1  0  0  0  0
  7 17  1  0  0  0  0
  8  3  1  0  0  0  0
  8  1  2  0  0  0  0
  9  4  1  0  0  0  0
 10  1  1  0  0  0  0
 11 18  1  0  0  0  0
 11 15  2  0  0  0  0
 12 18  2  0  0  0  0
 13  2  1  0  0  0  0
 14 15  1  0  0  0  0
 15 21  1  0  0  0  0
 16 27  1  6  0  0  0
 16  9  1  0  0  0  0
 17  3  2  0  0  0  0
 17  4  1  0  0  0  0
 19 25  1  0  0  0  0
 19 20  1  0  0  0  0
 21 23  1  0  0  0  0
 21 24  2  0  0  0  0
 22 20  2  0  0  0  0
 23 19  2  0  0  0  0
 24 22  1  0  0  0  0
 26 27  2  0  0  0  0
 28 30  1  0  0  0  0
 29 28  1  0  0  0  0
 29 26  1  1  0  0  0
 31 34  1  6  0  0  0
 31 30  1  0  0  0  0
 32 33  1  0  0  0  0
 32 31  1  0  0  0  0
 33 29  1  0  0  0  0
M  END
>  <MODEL>
4

>  <REMARK>
 VINA RESULT:      -7.5      3.781      6.958
  Name = 
  3 active torsions:
  status: ('A' for Active; 'I' for Inactive)
    1  A    between atoms: C_3  and  C_13
    2  A    between atoms: C_12  and  C_28
    3  A    between atoms: C_17  and  C_29
                            x       y       z     vdW  Elec       q    Type
                         _______ _______ _______ _____ _____    ______ ____

>  <TORSDO>
F 3

$$$$
=
 OpenBabel11062407443D

 34 39  0  0  1  0  0  0  0  0999 V2000
  160.2940  212.7150  150.3160 C   0  0  0  0  0  0  0  0  0  0  0  0
  162.0400  211.0770  149.9320 C   0  0  0  0  0  0  0  0  0  0  0  0
  160.6210  210.9790  152.0130 C   0  0  0  0  0  0  0  0  0  0  0  0
  160.6120  209.2150  153.6740 C   0  0  0  0  0  0  0  0  0  0  0  0
  161.4410  212.6520  148.1890 C   0  0  0  0  0  3  0  0  0  0  0  0
  162.2280  211.5990  148.6490 C   0  0  0  0  0  3  0  0  0  0  0  0
  161.1600  208.2540  151.2870 S   0  0  0  0  0  0  0  0  0  0  0  0
  160.9740  211.5430  150.7460 C   0  0  0  0  0  0  0  0  0  0  0  0
  160.8600  207.7820  153.9560 C   0  0  0  0  0  2  0  0  0  0  0  0
  160.4990  213.2310  149.0350 C   0  0  0  0  0  3  0  0  0  0  0  0
  159.8730  211.7730  152.9330 C   0  0  0  0  0  0  0  0  0  0  0  0
  159.4590  213.4090  151.1850 C   0  0  0  0  0  3  0  0  0  0  0  0
  162.9940  210.1880  150.4080 O   0  0  0  0  0  1  0  0  0  0  0  0
  160.0250  210.0350  154.5760 N   0  0  0  0  0  0  0  0  0  0  0  0
  159.6470  211.3020  154.2550 C   0  0  0  0  0  0  0  0  0  0  0  0
  161.5940  207.2300  152.7400 C   0  0  1  0  0  3  0  0  0  0  0  0
  160.8820  209.6370  152.3900 C   0  0  0  0  0  0  0  0  0  0  0  0
  159.2820  212.9620  152.4880 C   0  0  0  0  0  3  0  0  0  0  0  0
  156.9900  212.8170  156.5210 C   0  0  0  0  0  0  0  0  0  0  0  0
  157.7530  213.7230  157.2610 C   0  0  0  0  0  3  0  0  0  0  0  0
  158.9810  212.1110  155.3110 C   0  0  0  0  0  0  0  0  0  0  0  0
  159.1260  213.8340  157.0240 C   0  0  0  0  0  3  0  0  0  0  0  0
  157.6000  212.0200  155.5480 C   0  0  0  0  0  3  0  0  0  0  0  0
  159.7340  213.0350  156.0520 C   0  0  0  0  0  3  0  0  0  0  0  0
  155.6580  212.7120  156.7430 F   0  0  0  0  0  0  0  0  0  0  0  0
  160.8580  205.3770  151.3020 C   0  0  0  0  0  3  0  0  0  0  0  0
  161.2060  205.8080  152.5180 C   0  0  0  0  0  3  0  0  0  0  0  0
  160.0670  203.7310  149.5780 C   0  0  0  0  0  2  0  0  0  0  0  0
  160.4600  203.9550  151.0490 C   0  0  1  0  0  3  0  0  0  0  0  0
  161.2100  203.1070  148.7790 C   0  0  0  0  0  2  0  0  0  0  0  0
  161.6330  201.7490  149.3570 C   0  0  1  0  0  3  0  0  0  0  0  0
  161.4120  201.6260  150.8710 C   0  0  0  0  0  2  0  0  0  0  0  0
  161.5340  202.9820  151.5610 C   0  0  0  0  0  2  0  0  0  0  0  0
  160.9470  200.7240  148.7060 O   0  0  0  0  0  1  0  0  0  0  0  0
  1  8  2  0  0  0  0
  1 12  1  0  0  0  0
  2 13  1  0  0  0  0
  2  8  1  0  0  0  0
  3 17  2  0  0  0  0
  3 11  1  0  0  0  0
  4  9  1  0  0  0  0
  4 14  2  0  0  0  0
  5  6  1  0  0  0  0
  5 10  2  0  0  0  0
  6  2  2  0  0  0  0
  7 17  1  0  0  0  0
  7 16  1  0  0  0  0
  8  3  1  0  0  0  0
 10  1  1  0  0  0  0
 11 15  2  0  0  0  0
 12 18  2  0  0  0  0
 15 14  1  0  0  0  0
 15 21  1  0  0  0  0
 16 27  1  6  0  0  0
 16  9  1  0  0  0  0
 17  4  1  0  0  0  0
 18 11  1  0  0  0  0
 19 25  1  0  0  0  0
 19 20  1  0  0  0  0
 21 23  1  0  0  0  0
 21 24  2  0  0  0  0
 22 20  2  0  0  0  0
 23 19  2  0  0  0  0
 24 22  1  0  0  0  0
 26 27  2  0  0  0  0
 28 29  1  0  0  0  0
 29 26  1  6  0  0  0
 29 33  1  0  0  0  0
 30 31  1  0  0  0  0
 30 28  1  0  0  0  0
 31 34  1  6  0  0  0
 31 32  1  0  0  0  0
 32 33  1  0  0  0  0
M  END
>  <MODEL>
5

>  <REMARK>
 VINA RESULT:      -7.5      4.121      9.011
  Name = 
  3 active torsions:
  status: ('A' for Active; 'I' for Inactive)
    1  A    between atoms: C_3  and  C_13
    2  A    between atoms: C_12  and  C_28
    3  A    between atoms: C_17  and  C_29
                            x       y       z     vdW  Elec       q    Type
                         _______ _______ _______ _____ _____    ______ ____

>  <TORSDO>
F 3

$$$$
=
 OpenBabel11062407443D

 34 39  0  0  1  0  0  0  0  0999 V2000
  160.6130  212.8710  149.9530 C   0  0  0  0  0  0  0  0  0  0  0  0
  162.1020  211.4860  148.6320 C   0  0  0  0  0  0  0  0  0  0  0  0
  161.2330  210.6800  150.8560 C   0  0  0  0  0  0  0  0  0  0  0  0
  161.5170  208.4680  151.8040 C   0  0  0  0  0  0  0  0  0  0  0  0
  161.1960  213.5350  147.7030 C   0  0  0  0  0  3  0  0  0  0  0  0
  162.0030  212.4050  147.5830 C   0  0  0  0  0  3  0  0  0  0  0  0
  161.4010  208.3570  149.1770 S   0  0  0  0  0  0  0  0  0  0  0  0
  161.3000  211.6370  149.7940 C   0  0  0  0  0  0  0  0  0  0  0  0
  161.7350  207.0270  151.5340 C   0  0  0  0  0  2  0  0  0  0  0  0
  160.5300  213.7840  148.9000 C   0  0  0  0  0  3  0  0  0  0  0  0
  160.7860  211.1110  152.1410 C   0  0  0  0  0  0  0  0  0  0  0  0
  160.0620  213.2230  151.1800 C   0  0  0  0  0  3  0  0  0  0  0  0
  163.0850  210.5100  148.5380 O   0  0  0  0  0  1  0  0  0  0  0  0
  161.2240  208.9330  153.0390 N   0  0  0  0  0  0  0  0  0  0  0  0
  160.8610  210.2280  153.2520 C   0  0  0  0  0  0  0  0  0  0  0  0
  162.1110  206.9220  150.0610 C   0  0  1  0  0  3  0  0  0  0  0  0
  161.4910  209.2950  150.7000 C   0  0  0  0  0  0  0  0  0  0  0  0
  160.1810  212.3690  152.2690 C   0  0  0  0  0  3  0  0  0  0  0  0
  158.9070  211.1220  156.3930 C   0  0  0  0  0  0  0  0  0  0  0  0
  159.9430  211.4780  157.2610 C   0  0  0  0  0  3  0  0  0  0  0  0
  160.5270  210.6300  154.6440 C   0  0  0  0  0  0  0  0  0  0  0  0
  161.2690  211.4210  156.8240 C   0  0  0  0  0  3  0  0  0  0  0  0
  159.1990  210.7060  155.0910 C   0  0  0  0  0  3  0  0  0  0  0  0
  161.5580  211.0030  155.5220 C   0  0  0  0  0  3  0  0  0  0  0  0
  157.6210  211.1840  156.8130 F   0  0  0  0  0  0  0  0  0  0  0  0
  160.9210  204.7810  150.2670 C   0  0  0  0  0  3  0  0  0  0  0  0
  161.5890  205.6440  149.4970 C   0  0  0  0  0  3  0  0  0  0  0  0
  160.7140  203.3170  148.2360 C   0  0  0  0  0  2  0  0  0  0  0  0
  160.3880  203.4870  149.7300 C   0  0  1  0  0  3  0  0  0  0  0  0
  161.9280  202.4140  148.0230 C   0  0  0  0  0  2  0  0  0  0  0  0
  161.7050  201.0140  148.6110 C   0  0  1  0  0  3  0  0  0  0  0  0
  160.7610  200.9940  149.8220 C   0  0  0  0  0  2  0  0  0  0  0  0
  160.8340  202.3030  150.6030 C   0  0  0  0  0  2  0  0  0  0  0  0
  161.2080  200.1610  147.6250 O   0  0  0  0  0  1  0  0  0  0  0  0
  1 12  1  0  0  0  0
  2  8  1  0  0  0  0
  3 11  1  0  0  0  0
  4 14  2  0  0  0  0
  5 10  2  0  0  0  0
  6  5  1  0  0  0  0
  6  2  2  0  0  0  0
  7 16  1  0  0  0  0
  7 17  1  0  0  0  0
  8  1  2  0  0  0  0
  8  3  1  0  0  0  0
  9  4  1  0  0  0  0
 10  1  1  0  0  0  0
 11 18  1  0  0  0  0
 11 15  2  0  0  0  0
 12 18  2  0  0  0  0
 13  2  1  0  0  0  0
 14 15  1  0  0  0  0
 15 21  1  0  0  0  0
 16 27  1  6  0  0  0
 16  9  1  0  0  0  0
 17  3  2  0  0  0  0
 17  4  1  0  0  0  0
 19 25  1  0  0  0  0
 19 20  1  0  0  0  0
 21 23  1  0  0  0  0
 21 24  2  0  0  0  0
 22 20  2  0  0  0  0
 23 19  2  0  0  0  0
 24 22  1  0  0  0  0
 27 26  2  0  0  0  0
 28 29  1  0  0  0  0
 29 26  1  1  0  0  0
 29 33  1  0  0  0  0
 30 28  1  0  0  0  0
 30 31  1  0  0  0  0
 31 34  1  6  0  0  0
 31 32  1  0  0  0  0
 32 33  1  0  0  0  0
M  END
>  <MODEL>
6

>  <REMARK>
 VINA RESULT:      -7.4      3.611      8.471
  Name = 
  3 active torsions:
  status: ('A' for Active; 'I' for Inactive)
    1  A    between atoms: C_3  and  C_13
    2  A    between atoms: C_12  and  C_28
    3  A    between atoms: C_17  and  C_29
                            x       y       z     vdW  Elec       q    Type
                         _______ _______ _______ _____ _____    ______ ____

>  <TORSDO>
F 3

$$$$
