=
 OpenBabel11062409183D

 37 44  0  0  1  0  0  0  0  0999 V2000
  161.3520  209.2190  149.9730 C   0  0  1  0  0  3  0  0  0  0  0  0
  161.2010  209.7760  154.7780 C   0  0  0  0  0  0  0  0  0  0  0  0
  159.8040  211.9770  151.0970 C   0  0  1  0  0  3  0  0  0  0  0  0
  162.7560  212.8710  148.7090 C   0  0  0  0  0  2  0  0  0  0  0  0
  160.4710  211.9420  153.5900 C   0  0  1  0  0  3  0  0  0  0  0  0
  160.7610  211.7030  149.9150 C   0  0  1  0  0  3  0  0  0  0  0  0
  161.4490  207.1890  151.2580 O   0  0  0  0  0  0  0  0  0  0  0  0
  160.3620  211.1790  152.2750 C   0  0  2  0  0  3  0  0  0  0  0  0
  161.3600  213.0000  149.3220 C   0  0  2  0  0  3  0  0  0  0  0  0
  159.1630  212.6610  153.8750 C   0  0  0  0  0  2  0  0  0  0  0  0
  161.7350  210.6580  151.8970 C   0  0  1  0  0  3  0  0  0  0  0  0
  161.0380  208.8580  153.5920 C   0  0  0  0  0  2  0  0  0  0  0  0
  158.8350  214.2870  150.3600 C   0  0  0  0  0  2  0  0  0  0  0  0
  161.5980  208.4010  151.2080 C   0  0  0  0  0  0  0  0  0  0  0  0
  158.8090  213.6650  152.7680 C   0  0  0  0  0  2  0  0  0  0  0  0
  161.9420  209.2210  152.3990 C   0  0  1  0  0  3  0  0  0  0  0  0
  163.2070  211.4250  148.7020 C   0  0  0  0  0  2  0  0  0  0  0  0
  159.5670  213.4740  151.4420 C   0  0  1  0  0  3  0  0  0  0  0  0
  161.7960  210.6450  150.3740 C   0  0  1  0  0  0  0  0  0  0  0  0
  160.9000  211.0930  154.7690 C   0  0  0  0  0  3  0  0  0  0  0  0
  160.3700  213.7190  148.3830 C   0  0  2  0  0  3  0  0  0  0  0  0
  161.6270  209.1660  156.0670 C   0  0  0  0  0  1  0  0  0  0  0  0
  163.1450  210.9140  150.0090 O   0  0  0  0  0  0  0  0  0  0  0  0
  158.9400  213.7430  148.9340 C   0  0  0  0  0  2  0  0  0  0  0  0
  159.2260  212.4510  146.5500 C   0  0  0  0  0  3  0  0  0  0  0  0
  160.3610  213.1370  146.9970 C   0  0  0  0  0  0  0  0  0  0  0  0
  161.4630  213.2850  146.1400 C   0  0  0  0  0  3  0  0  0  0  0  0
  162.7990  212.9610  143.7830 Cl  0  0  0  0  0  0  0  0  0  0  0  0
  160.2890  212.0740  144.4060 C   0  0  0  0  0  3  0  0  0  0  0  0
  161.4260  212.7580  144.8480 C   0  0  0  0  0  0  0  0  0  0  0  0
  159.1910  211.9190  145.2570 C   0  0  0  0  0  3  0  0  0  0  0  0
  160.9560  208.8570  147.5020 C   0  0  0  0  0  2  0  0  0  0  0  0
  161.3210  207.4910  148.0520 C   0  0  2  0  0  3  0  0  0  0  0  0
  161.9600  208.7420  148.6320 C   0  0  2  0  0  3  0  0  0  0  0  0
  162.3140  206.8210  147.1260 C   0  0  0  0  0  2  0  0  0  0  0  0
  162.0730  205.3250  147.1200 C   0  0  0  0  0  2  0  0  0  0  0  0
  161.2300  204.9460  148.3190 C   0  0  0  0  0  1  0  0  0  0  0  0
  1 19  1  0  0  0  0
  1 14  1  1  0  0  0
  2 22  1  0  0  0  0
  3 18  1  0  0  0  0
  3  8  1  0  0  0  0
  4  9  1  0  0  0  0
  5 10  1  0  0  0  0
  5 20  1  0  0  0  0
  6 19  1  0  0  0  0
  6  3  1  0  0  0  0
  8  5  1  0  0  0  0
  9  6  1  0  0  0  0
 11  8  1  0  0  0  0
 11 16  1  0  0  0  0
 12  2  1  0  0  0  0
 13 18  1  0  0  0  0
 14  7  2  0  0  0  0
 14 16  1  0  0  0  0
 15 10  1  0  0  0  0
 16 12  1  0  0  0  0
 17  4  1  0  0  0  0
 17 23  1  0  0  0  0
 18 15  1  0  0  0  0
 19 11  1  0  0  0  0
 20  2  2  0  0  0  0
 21 24  1  0  0  0  0
 21  9  1  0  0  0  0
 23 19  1  0  0  0  0
 24 13  1  0  0  0  0
 25 26  1  0  0  0  0
 26 21  1  0  0  0  0
 27 26  2  0  0  0  0
 28 30  1  0  0  0  0
 29 30  2  0  0  0  0
 29 31  1  0  0  0  0
 30 27  1  0  0  0  0
 31 25  2  0  0  0  0
 32 33  1  0  0  0  0
 32 34  1  0  0  0  0
 33 34  1  0  0  0  0
 34  1  1  0  0  0  0
 35 33  1  0  0  0  0
 36 35  1  0  0  0  0
 36 37  1  0  0  0  0
M  END
>  <MODEL>
1

>  <REMARK>
 VINA RESULT:      -2.1      0.000      0.000
  Name = 
  4 active torsions:
  status: ('A' for Active; 'I' for Inactive)
    1  A    between atoms: C_1  and  C_36
    2  A    between atoms: C_6  and  C_31
    3  A    between atoms: C_11  and  C_26
    4  A    between atoms: C_17  and  C_26
                            x       y       z     vdW  Elec       q    Type
                         _______ _______ _______ _____ _____    ______ ____

>  <TORSDO>
F 4

$$$$
=
 OpenBabel11062409183D

 37 44  0  0  1  0  0  0  0  0999 V2000
  160.8030  208.8520  150.6700 C   0  0  1  0  0  3  0  0  0  0  0  0
  161.4130  209.0540  155.4660 C   0  0  0  0  0  0  0  0  0  0  0  0
  159.6920  211.6310  152.1880 C   0  0  1  0  0  3  0  0  0  0  0  0
  162.3280  212.4650  149.4370 C   0  0  0  0  0  2  0  0  0  0  0  0
  160.7130  211.3550  154.5420 C   0  0  1  0  0  3  0  0  0  0  0  0
  160.4350  211.3720  150.8590 C   0  0  1  0  0  3  0  0  0  0  0  0
  160.9050  206.7290  151.7950 O   0  0  0  0  0  0  0  0  0  0  0  0
  160.3430  210.7040  153.2150 C   0  0  2  0  0  3  0  0  0  0  0  0
  161.0550  212.6580  150.2640 C   0  0  2  0  0  3  0  0  0  0  0  0
  159.5310  212.1520  155.0690 C   0  0  0  0  0  2  0  0  0  0  0  0
  161.5930  210.1060  152.5980 C   0  0  1  0  0  3  0  0  0  0  0  0
  160.9950  208.2440  154.2640 C   0  0  0  0  0  2  0  0  0  0  0  0
  158.8360  214.0600  151.7560 C   0  0  0  0  0  2  0  0  0  0  0  0
  161.1540  207.9260  151.7990 C   0  0  0  0  0  0  0  0  0  0  0  0
  159.1100  213.2610  154.0950 C   0  0  0  0  0  2  0  0  0  0  0  0
  161.7420  208.6240  152.9720 C   0  0  1  0  0  3  0  0  0  0  0  0
  162.6410  210.9930  149.2700 C   0  0  0  0  0  2  0  0  0  0  0  0
  159.6430  213.1120  152.6600 C   0  0  1  0  0  3  0  0  0  0  0  0
  161.4270  210.2030  151.0870 C   0  0  1  0  0  0  0  0  0  0  0  0
  161.2340  210.3870  155.5870 C   0  0  0  0  0  3  0  0  0  0  0  0
  160.0050  213.5230  149.5350 C   0  0  2  0  0  3  0  0  0  0  0  0
  161.9670  208.3160  156.6340 C   0  0  0  0  0  1  0  0  0  0  0  0
  162.7270  210.3910  150.5370 O   0  0  0  0  0  0  0  0  0  0  0  0
  158.6800  213.6180  150.2990 C   0  0  0  0  0  2  0  0  0  0  0  0
  158.4630  212.5870  147.7960 C   0  0  0  0  0  3  0  0  0  0  0  0
  159.7400  213.0500  148.1330 C   0  0  0  0  0  0  0  0  0  0  0  0
  160.7450  213.0810  147.1530 C   0  0  0  0  0  3  0  0  0  0  0  0
  161.7290  212.7150  144.6340 Cl  0  0  0  0  0  0  0  0  0  0  0  0
  159.1940  212.1990  145.5200 C   0  0  0  0  0  3  0  0  0  0  0  0
  160.4720  212.6590  145.8510 C   0  0  0  0  0  0  0  0  0  0  0  0
  158.1910  212.1610  146.4920 C   0  0  0  0  0  3  0  0  0  0  0  0
  160.5490  207.0890  148.8750 C   0  0  0  0  0  2  0  0  0  0  0  0
  162.0430  207.1970  149.1190 C   0  0  2  0  0  3  0  0  0  0  0  0
  161.1610  208.4310  149.2240 C   0  0  2  0  0  3  0  0  0  0  0  0
  162.7710  207.2300  147.7930 C   0  0  0  0  0  2  0  0  0  0  0  0
  162.0600  206.3300  146.8010 C   0  0  0  0  0  2  0  0  0  0  0  0
  162.8790  205.0770  146.5810 C   0  0  0  0  0  1  0  0  0  0  0  0
  1 19  1  0  0  0  0
  1 14  1  1  0  0  0
  2 20  2  0  0  0  0
  2 22  1  0  0  0  0
  3 18  1  0  0  0  0
  3  8  1  0  0  0  0
  4  9  1  0  0  0  0
  5 10  1  0  0  0  0
  5 20  1  0  0  0  0
  6 19  1  0  0  0  0
  6  3  1  0  0  0  0
  7 14  2  0  0  0  0
  8  5  1  0  0  0  0
  9  6  1  0  0  0  0
 11 16  1  0  0  0  0
 11  8  1  0  0  0  0
 12  2  1  0  0  0  0
 13 18  1  0  0  0  0
 14 16  1  0  0  0  0
 15 10  1  0  0  0  0
 16 12  1  0  0  0  0
 17  4  1  0  0  0  0
 17 23  1  0  0  0  0
 18 15  1  0  0  0  0
 19 11  1  0  0  0  0
 21  9  1  0  0  0  0
 21 24  1  0  0  0  0
 23 19  1  0  0  0  0
 24 13  1  0  0  0  0
 25 26  1  0  0  0  0
 26 21  1  0  0  0  0
 27 26  2  0  0  0  0
 28 30  1  0  0  0  0
 29 30  2  0  0  0  0
 29 31  1  0  0  0  0
 30 27  1  0  0  0  0
 31 25  2  0  0  0  0
 32 33  1  0  0  0  0
 32 34  1  0  0  0  0
 33 34  1  0  0  0  0
 34  1  1  0  0  0  0
 35 33  1  0  0  0  0
 36 35  1  0  0  0  0
 37 36  1  0  0  0  0
M  END
>  <MODEL>
2

>  <REMARK>
 VINA RESULT:      -2.1      1.057      1.257
  Name = 
  4 active torsions:
  status: ('A' for Active; 'I' for Inactive)
    1  A    between atoms: C_1  and  C_36
    2  A    between atoms: C_6  and  C_31
    3  A    between atoms: C_11  and  C_26
    4  A    between atoms: C_17  and  C_26
                            x       y       z     vdW  Elec       q    Type
                         _______ _______ _______ _____ _____    ______ ____

>  <TORSDO>
F 4

$$$$
=
 OpenBabel11062409183D

 37 44  0  0  1  0  0  0  0  0999 V2000
  160.7670  208.7030  150.8450 C   0  0  1  0  0  3  0  0  0  0  0  0
  161.3180  208.8220  155.6510 C   0  0  0  0  0  0  0  0  0  0  0  0
  159.7020  211.4860  152.3890 C   0  0  1  0  0  3  0  0  0  0  0  0
  162.3940  212.2960  149.6840 C   0  0  0  0  0  2  0  0  0  0  0  0
  160.6850  211.1520  154.7520 C   0  0  1  0  0  3  0  0  0  0  0  0
  160.4570  211.2280  151.0650 C   0  0  1  0  0  3  0  0  0  0  0  0
  160.8030  206.5630  151.9400 O   0  0  0  0  0  0  0  0  0  0  0  0
  160.3180  210.5300  153.4100 C   0  0  2  0  0  3  0  0  0  0  0  0
  161.1140  212.5070  150.4970 C   0  0  2  0  0  3  0  0  0  0  0  0
  159.5160  211.9700  155.2750 C   0  0  0  0  0  2  0  0  0  0  0  0
  161.5610  209.9100  152.8010 C   0  0  1  0  0  3  0  0  0  0  0  0
  160.8970  208.0400  154.4320 C   0  0  0  0  0  2  0  0  0  0  0  0
  158.9110  213.9410  151.9810 C   0  0  0  0  0  2  0  0  0  0  0  0
  161.0800  207.7530  151.9650 C   0  0  0  0  0  0  0  0  0  0  0  0
  159.1340  213.1030  154.3120 C   0  0  0  0  0  2  0  0  0  0  0  0
  161.6690  208.4200  153.1550 C   0  0  1  0  0  3  0  0  0  0  0  0
  162.6730  210.8190  149.5000 C   0  0  0  0  0  2  0  0  0  0  0  0
  159.6830  212.9610  152.8810 C   0  0  1  0  0  3  0  0  0  0  0  0
  161.4180  210.0330  151.2890 C   0  0  1  0  0  0  0  0  0  0  0  0
  161.1690  210.1580  155.7880 C   0  0  0  0  0  3  0  0  0  0  0  0
  160.0950  213.4070  149.7680 C   0  0  2  0  0  3  0  0  0  0  0  0
  161.8390  208.0550  156.8150 C   0  0  0  0  0  1  0  0  0  0  0  0
  162.7280  210.1980  150.7590 O   0  0  0  0  0  0  0  0  0  0  0  0
  158.7630  213.5240  150.5160 C   0  0  0  0  0  2  0  0  0  0  0  0
  160.9210  212.6660  147.5210 C   0  0  0  0  0  3  0  0  0  0  0  0
  159.8370  212.9610  148.3550 C   0  0  0  0  0  0  0  0  0  0  0  0
  158.5290  212.8180  147.8670 C   0  0  0  0  0  3  0  0  0  0  0  0
  156.6750  212.1920  145.9650 Cl  0  0  0  0  0  0  0  0  0  0  0  0
  159.3960  212.0860  145.7300 C   0  0  0  0  0  3  0  0  0  0  0  0
  158.3090  212.3800  146.5590 C   0  0  0  0  0  0  0  0  0  0  0  0
  160.7010  212.2300  146.2110 C   0  0  0  0  0  3  0  0  0  0  0  0
  160.5120  206.9620  149.0290 C   0  0  0  0  0  2  0  0  0  0  0  0
  162.0050  207.0540  149.2880 C   0  0  2  0  0  3  0  0  0  0  0  0
  161.1340  208.2940  149.3980 C   0  0  2  0  0  3  0  0  0  0  0  0
  162.7450  207.0930  147.9680 C   0  0  0  0  0  2  0  0  0  0  0  0
  162.0390  206.2050  146.9630 C   0  0  0  0  0  2  0  0  0  0  0  0
  162.9490  205.0580  146.5770 C   0  0  0  0  0  1  0  0  0  0  0  0
  1 19  1  0  0  0  0
  1 14  1  1  0  0  0
  2 20  2  0  0  0  0
  2 22  1  0  0  0  0
  3 18  1  0  0  0  0
  3  8  1  0  0  0  0
  4  9  1  0  0  0  0
  5 10  1  0  0  0  0
  5 20  1  0  0  0  0
  6 19  1  0  0  0  0
  6  3  1  0  0  0  0
  7 14  2  0  0  0  0
  8  5  1  0  0  0  0
  9  6  1  0  0  0  0
 11 16  1  0  0  0  0
 11  8  1  0  0  0  0
 12  2  1  0  0  0  0
 13 18  1  0  0  0  0
 14 16  1  0  0  0  0
 15 10  1  0  0  0  0
 16 12  1  0  0  0  0
 17  4  1  0  0  0  0
 17 23  1  0  0  0  0
 18 15  1  0  0  0  0
 19 11  1  0  0  0  0
 21  9  1  0  0  0  0
 21 24  1  0  0  0  0
 23 19  1  0  0  0  0
 24 13  1  0  0  0  0
 25 26  1  0  0  0  0
 26 21  1  0  0  0  0
 27 26  2  0  0  0  0
 28 30  1  0  0  0  0
 29 31  1  0  0  0  0
 29 30  2  0  0  0  0
 30 27  1  0  0  0  0
 31 25  2  0  0  0  0
 32 33  1  0  0  0  0
 32 34  1  0  0  0  0
 33 34  1  0  0  0  0
 34  1  1  0  0  0  0
 35 33  1  0  0  0  0
 36 35  1  0  0  0  0
 37 36  1  0  0  0  0
M  END
>  <MODEL>
3

>  <REMARK>
 VINA RESULT:      -1.9      1.549      1.944
  Name = 
  4 active torsions:
  status: ('A' for Active; 'I' for Inactive)
    1  A    between atoms: C_1  and  C_36
    2  A    between atoms: C_6  and  C_31
    3  A    between atoms: C_11  and  C_26
    4  A    between atoms: C_17  and  C_26
                            x       y       z     vdW  Elec       q    Type
                         _______ _______ _______ _____ _____    ______ ____

>  <TORSDO>
F 4

$$$$
=
 OpenBabel11062409183D

 37 44  0  0  1  0  0  0  0  0999 V2000
  160.8710  210.4330  151.3180 C   0  0  1  0  0  3  0  0  0  0  0  0
  162.4150  206.4230  149.0940 C   0  0  0  0  0  0  0  0  0  0  0  0
  160.5480  207.5690  153.0370 C   0  0  1  0  0  3  0  0  0  0  0  0
  162.7080  210.1670  154.9860 C   0  0  0  0  0  2  0  0  0  0  0  0
  161.9420  205.9550  151.5830 C   0  0  1  0  0  3  0  0  0  0  0  0
  160.9690  209.0030  153.4310 C   0  0  1  0  0  3  0  0  0  0  0  0
  160.8330  210.4980  148.9150 O   0  0  0  0  0  0  0  0  0  0  0  0
  161.2220  207.2940  151.6930 C   0  0  2  0  0  3  0  0  0  0  0  0
  161.6670  209.0590  154.8100 C   0  0  2  0  0  3  0  0  0  0  0  0
  161.0320  204.8420  152.0740 C   0  0  0  0  0  2  0  0  0  0  0  0
  162.2130  208.4080  151.4140 C   0  0  1  0  0  3  0  0  0  0  0  0
  161.6460  207.7180  149.0060 C   0  0  0  0  0  2  0  0  0  0  0  0
  160.0400  206.5860  155.4020 C   0  0  0  0  0  2  0  0  0  0  0  0
  161.2730  209.9970  149.9390 C   0  0  0  0  0  0  0  0  0  0  0  0
  160.6220  205.0440  153.5400 C   0  0  0  0  0  2  0  0  0  0  0  0
  162.1830  208.8220  149.9360 C   0  0  1  0  0  3  0  0  0  0  0  0
  162.7340  211.0750  153.7750 C   0  0  0  0  0  2  0  0  0  0  0  0
  160.8370  206.4640  154.0920 C   0  0  1  0  0  3  0  0  0  0  0  0
  161.7790  209.6030  152.2540 C   0  0  1  0  0  0  0  0  0  0  0  0
  162.4860  205.6520  150.2010 C   0  0  0  0  0  3  0  0  0  0  0  0
  160.6550  209.0120  155.9730 C   0  0  2  0  0  3  0  0  0  0  0  0
  163.0540  205.9150  147.8490 C   0  0  0  0  0  1  0  0  0  0  0  0
  162.9610  210.3040  152.6230 O   0  0  0  0  0  0  0  0  0  0  0  0
  159.5360  207.9890  155.7460 C   0  0  0  0  0  2  0  0  0  0  0  0
  160.7920  211.2970  156.9930 C   0  0  0  0  0  3  0  0  0  0  0  0
  160.0510  210.3560  156.2690 C   0  0  0  0  0  0  0  0  0  0  0  0
  158.7640  210.6890  155.8160 C   0  0  0  0  0  3  0  0  0  0  0  0
  156.6300  212.3610  155.5000 Cl  0  0  0  0  0  0  0  0  0  0  0  0
  158.9750  212.8870  156.8040 C   0  0  0  0  0  3  0  0  0  0  0  0
  158.2290  211.9510  156.0810 C   0  0  0  0  0  0  0  0  0  0  0  0
  160.2540  212.5600  157.2610 C   0  0  0  0  0  3  0  0  0  0  0  0
  159.8140  212.2810  152.6830 C   0  0  0  0  0  2  0  0  0  0  0  0
  159.6090  212.6870  151.2360 C   0  0  2  0  0  3  0  0  0  0  0  0
  160.8690  211.9450  151.6480 C   0  0  2  0  0  3  0  0  0  0  0  0
  159.9380  214.1560  151.0700 C   0  0  0  0  0  2  0  0  0  0  0  0
  160.2230  214.4500  149.6110 C   0  0  0  0  0  2  0  0  0  0  0  0
  159.3000  213.6240  148.7410 C   0  0  0  0  0  1  0  0  0  0  0  0
  1 14  1  6  0  0  0
  1 34  1  0  0  0  0
  1 19  1  0  0  0  0
  2 20  2  0  0  0  0
  3  6  1  0  0  0  0
  3 18  1  0  0  0  0
  5  8  1  0  0  0  0
  5 10  1  0  0  0  0
  6  9  1  0  0  0  0
  7 14  2  0  0  0  0
  8  3  1  0  0  0  0
  9  4  1  0  0  0  0
  9 21  1  0  0  0  0
 10 15  1  0  0  0  0
 11  8  1  0  0  0  0
 11 19  1  0  0  0  0
 12  2  1  0  0  0  0
 12 16  1  0  0  0  0
 13 24  1  0  0  0  0
 15 18  1  0  0  0  0
 16 14  1  0  0  0  0
 16 11  1  0  0  0  0
 17  4  1  0  0  0  0
 18 13  1  0  0  0  0
 19 23  1  0  0  0  0
 19  6  1  0  0  0  0
 20  5  1  0  0  0  0
 21 26  1  0  0  0  0
 22  2  1  0  0  0  0
 23 17  1  0  0  0  0
 24 21  1  0  0  0  0
 25 31  1  0  0  0  0
 26 25  2  0  0  0  0
 27 30  2  0  0  0  0
 27 26  1  0  0  0  0
 28 30  1  0  0  0  0
 29 31  2  0  0  0  0
 30 29  1  0  0  0  0
 33 34  1  0  0  0  0
 33 32  1  0  0  0  0
 34 32  1  0  0  0  0
 35 33  1  0  0  0  0
 36 35  1  0  0  0  0
 37 36  1  0  0  0  0
M  END
>  <MODEL>
4

>  <REMARK>
 VINA RESULT:      -0.9      3.006      7.703
  Name = 
  4 active torsions:
  status: ('A' for Active; 'I' for Inactive)
    1  A    between atoms: C_1  and  C_36
    2  A    between atoms: C_6  and  C_31
    3  A    between atoms: C_11  and  C_26
    4  A    between atoms: C_17  and  C_26
                            x       y       z     vdW  Elec       q    Type
                         _______ _______ _______ _____ _____    ______ ____

>  <TORSDO>
F 4

$$$$
=
 OpenBabel11062409183D

 37 44  0  0  1  0  0  0  0  0999 V2000
  159.0230  211.5760  152.8430 C   0  0  1  0  0  3  0  0  0  0  0  0
  160.5600  213.2650  148.5770 C   0  0  0  0  0  0  0  0  0  0  0  0
  160.9500  209.5050  151.0390 C   0  0  1  0  0  3  0  0  0  0  0  0
  162.5020  210.2010  154.5490 C   0  0  0  0  0  2  0  0  0  0  0  0
  161.8100  211.0990  149.1990 C   0  0  1  0  0  3  0  0  0  0  0  0
  160.8730  209.8420  152.5440 C   0  0  1  0  0  3  0  0  0  0  0  0
  157.6250  213.2440  151.8210 O   0  0  0  0  0  0  0  0  0  0  0  0
  160.7960  210.8380  150.3070 C   0  0  2  0  0  3  0  0  0  0  0  0
  162.1210  209.3660  153.3250 C   0  0  2  0  0  3  0  0  0  0  0  0
  161.8980  209.8850  148.2900 C   0  0  0  0  0  2  0  0  0  0  0  0
  160.8840  211.9590  151.3250 C   0  0  1  0  0  3  0  0  0  0  0  0
  159.4190  213.0990  149.5500 C   0  0  0  0  0  2  0  0  0  0  0  0
  162.3210  207.2850  151.1470 C   0  0  0  0  0  2  0  0  0  0  0  0
  158.7220  212.7130  151.9100 C   0  0  0  0  0  0  0  0  0  0  0  0
  162.3400  208.6290  149.0550 C   0  0  0  0  0  2  0  0  0  0  0  0
  159.8620  213.0650  151.0240 C   0  0  1  0  0  3  0  0  0  0  0  0
  161.4640  211.2710  154.8110 C   0  0  0  0  0  2  0  0  0  0  0  0
  162.2100  208.7130  150.5850 C   0  0  1  0  0  3  0  0  0  0  0  0
  160.5440  211.3500  152.6800 C   0  0  1  0  0  0  0  0  0  0  0  0
  161.5520  212.3640  148.4050 C   0  0  0  0  0  3  0  0  0  0  0  0
  162.0680  207.8560  153.6360 C   0  0  2  0  0  3  0  0  0  0  0  0
  160.5320  214.4520  147.6790 C   0  0  0  0  0  1  0  0  0  0  0  0
  161.3030  212.0540  153.6560 O   0  0  0  0  0  0  0  0  0  0  0  0
  161.5660  207.0220  152.4510 C   0  0  0  0  0  2  0  0  0  0  0  0
  161.7310  207.8750  156.1190 C   0  0  0  0  0  3  0  0  0  0  0  0
  161.2380  207.5450  154.8510 C   0  0  0  0  0  0  0  0  0  0  0  0
  159.9730  206.9470  154.7340 C   0  0  0  0  0  3  0  0  0  0  0  0
  157.6280  205.9560  155.7140 Cl  0  0  0  0  0  0  0  0  0  0  0  0
  159.7050  207.0200  157.1370 C   0  0  0  0  0  3  0  0  0  0  0  0
  159.2090  206.6880  155.8730 C   0  0  0  0  0  0  0  0  0  0  0  0
  160.9660  207.6110  157.2600 C   0  0  0  0  0  3  0  0  0  0  0  0
  158.5230  210.3270  154.9840 C   0  0  0  0  0  2  0  0  0  0  0  0
  157.2340  211.0460  154.6310 C   0  0  2  0  0  3  0  0  0  0  0  0
  158.5760  211.6890  154.3200 C   0  0  2  0  0  3  0  0  0  0  0  0
  156.6580  211.6930  155.8730 C   0  0  0  0  0  2  0  0  0  0  0  0
  155.1970  211.3140  156.0110 C   0  0  0  0  0  2  0  0  0  0  0  0
  154.9650  209.9600  155.3750 C   0  0  0  0  0  1  0  0  0  0  0  0
  1 14  1  6  0  0  0
  1 34  1  0  0  0  0
  2 12  1  0  0  0  0
  3  6  1  0  0  0  0
  4 17  1  0  0  0  0
  5  8  1  0  0  0  0
  6 19  1  0  0  0  0
  6  9  1  0  0  0  0
  7 14  2  0  0  0  0
  8  3  1  0  0  0  0
  8 11  1  0  0  0  0
  9 21  1  0  0  0  0
  9  4  1  0  0  0  0
 10 15  1  0  0  0  0
 10  5  1  0  0  0  0
 11 19  1  0  0  0  0
 12 16  1  0  0  0  0
 13 24  1  0  0  0  0
 15 18  1  0  0  0  0
 16 11  1  0  0  0  0
 16 14  1  0  0  0  0
 18  3  1  0  0  0  0
 18 13  1  0  0  0  0
 19  1  1  0  0  0  0
 19 23  1  0  0  0  0
 20  2  2  0  0  0  0
 20  5  1  0  0  0  0
 21 26  1  0  0  0  0
 22  2  1  0  0  0  0
 23 17  1  0  0  0  0
 24 21  1  0  0  0  0
 25 31  1  0  0  0  0
 26 25  2  0  0  0  0
 27 26  1  0  0  0  0
 27 30  2  0  0  0  0
 28 30  1  0  0  0  0
 29 31  2  0  0  0  0
 30 29  1  0  0  0  0
 33 32  1  0  0  0  0
 33 35  1  0  0  0  0
 34 33  1  0  0  0  0
 34 32  1  0  0  0  0
 35 36  1  0  0  0  0
 37 36  1  0  0  0  0
M  END
>  <MODEL>
5

>  <REMARK>
 VINA RESULT:       0.2      3.350      8.243
  Name = 
  4 active torsions:
  status: ('A' for Active; 'I' for Inactive)
    1  A    between atoms: C_1  and  C_36
    2  A    between atoms: C_6  and  C_31
    3  A    between atoms: C_11  and  C_26
    4  A    between atoms: C_17  and  C_26
                            x       y       z     vdW  Elec       q    Type
                         _______ _______ _______ _____ _____    ______ ____

>  <TORSDO>
F 4

$$$$
