=
 OpenBabel11062407483D

 34 39  0  0  1  0  0  0  0  0999 V2000
  160.7780  208.0060  154.4040 C   0  0  0  0  0  0  0  0  0  0  0  0
  160.6860  209.9800  152.9640 C   0  0  0  0  0  0  0  0  0  0  0  0
  161.4410  207.8420  152.0590 C   0  0  0  0  0  0  0  0  0  0  0  0
  161.9500  207.9100  149.4890 C   0  0  1  0  0  0  0  0  0  0  0  0
  160.0250  210.1320  155.2910 C   0  0  0  0  0  3  0  0  0  0  0  0
  160.2160  210.7340  154.0420 C   0  0  0  0  0  3  0  0  0  0  0  0
  161.3610  209.8790  150.6350 C   0  0  0  0  0  0  0  0  0  0  0  0
  160.9690  208.6070  153.1420 C   0  0  0  0  0  0  0  0  0  0  0  0
  162.0950  209.1050  148.5320 C   0  0  0  0  0  2  0  0  0  0  0  0
  160.3030  208.7720  155.4730 C   0  0  0  0  0  3  0  0  0  0  0  0
  161.7350  206.4860  152.2500 C   0  0  0  0  0  3  0  0  0  0  0  0
  161.0620  206.6480  154.5760 C   0  0  0  0  0  3  0  0  0  0  0  0
  160.8940  210.6160  151.6480 C   0  0  0  0  0  3  0  0  0  0  0  0
  163.2720  207.1570  149.5380 C   0  0  0  0  0  1  0  0  0  0  0  0
  161.5970  210.3610  149.2550 C   0  0  2  0  0  3  0  0  0  0  0  0
  161.6200  208.4940  150.7840 N   0  0  0  0  0  0  0  0  0  0  0  0
  161.5420  205.8920  153.5030 C   0  0  0  0  0  3  0  0  0  0  0  0
  162.6900  211.4190  149.2200 C   0  0  0  0  0  2  0  0  0  0  0  0
  162.9070  211.8370  147.8990 O   0  0  0  0  0  0  0  0  0  0  0  0
  162.3860  213.7790  146.4510 C   0  0  0  0  0  2  0  0  0  0  0  0
  162.0720  212.9440  147.6760 C   0  0  1  0  0  0  0  0  0  0  0  0
  161.2270  212.7870  146.4070 C   0  0  1  0  0  3  0  0  0  0  0  0
  159.2090  213.3460  147.8020 C   0  0  0  0  0  2  0  0  0  0  0  0
  160.0940  213.8190  148.9160 C   0  0  0  0  0  3  0  0  0  0  0  0
  161.4150  213.6200  148.8640 C   0  0  0  0  0  3  0  0  0  0  0  0
  159.9060  213.5590  146.4610 C   0  0  0  0  0  2  0  0  0  0  0  0
  160.8050  207.0370  148.9680 C   0  0  0  0  0  2  0  0  0  0  0  0
  161.1010  206.4500  147.7300 O   0  0  0  0  0  0  0  0  0  0  0  0
  160.9100  205.0740  147.9240 C   0  0  1  0  0  3  0  0  0  0  0  0
  161.9670  204.2240  147.2060 C   0  0  0  0  0  2  0  0  0  0  0  0
  162.8490  205.0460  146.2790 C   0  0  0  0  0  1  0  0  0  0  0  0
  160.7550  204.7260  149.4080 C   0  0  0  0  0  2  0  0  0  0  0  0
  160.8040  203.2310  149.7060 C   0  0  0  0  0  2  0  0  0  0  0  0
  161.0360  202.9740  151.1830 C   0  0  0  0  0  1  0  0  0  0  0  0
  1 12  1  0  0  0  0
  1 10  2  0  0  0  0
  2  8  2  0  0  0  0
  2  6  1  0  0  0  0
  3 11  2  0  0  0  0
  3  8  1  0  0  0  0
  4 14  1  1  0  0  0
  4 16  1  0  0  0  0
  5 10  1  0  0  0  0
  6  5  2  0  0  0  0
  7 16  1  0  0  0  0
  7 13  2  0  0  0  0
  8  1  1  0  0  0  0
  9 15  1  0  0  0  0
  9  4  1  0  0  0  0
 11 17  1  0  0  0  0
 13  2  1  0  0  0  0
 15 18  1  1  0  0  0
 15  7  1  0  0  0  0
 16  3  1  0  0  0  0
 17 12  2  0  0  0  0
 19 18  1  0  0  0  0
 20 21  1  0  0  0  0
 21 19  1  1  0  0  0
 21 25  1  0  0  0  0
 22 20  1  6  0  0  0
 22 26  1  0  0  0  0
 22 21  1  0  0  0  0
 23 24  1  0  0  0  0
 25 24  2  0  0  0  0
 26 23  1  0  0  0  0
 27  4  1  0  0  0  0
 28 29  1  0  0  0  0
 28 27  1  0  0  0  0
 29 30  1  1  0  0  0
 29 32  1  0  0  0  0
 31 30  1  0  0  0  0
 32 33  1  0  0  0  0
 33 34  1  0  0  0  0
M  END
>  <MODEL>
1

>  <REMARK>
 VINA RESULT:      -7.2      0.000      0.000
  Name = 
  9 active torsions:
  status: ('A' for Active; 'I' for Inactive)
    1  A    between atoms: O_3  and  C_13
    2  A    between atoms: O_3  and  C_17
    3  A    between atoms: C_5  and  C_27
    4  A    between atoms: C_7  and  C_8
    5  A    between atoms: C_8  and  O_16
    6  A    between atoms: C_8  and  C_23
    7  A    between atoms: C_12  and  C_23
    8  A    between atoms: O_16  and  C_27
    9  A    between atoms: C_17  and  C_29
                            x       y       z     vdW  Elec       q    Type
                         _______ _______ _______ _____ _____    ______ ____

>  <TORSDO>
F 9

$$$$
=
 OpenBabel11062407483D

 34 39  0  0  1  0  0  0  0  0999 V2000
  160.1190  208.8460  155.5900 C   0  0  0  0  0  0  0  0  0  0  0  0
  160.1060  210.0960  153.4890 C   0  0  0  0  0  0  0  0  0  0  0  0
  160.9880  207.8200  153.5510 C   0  0  0  0  0  0  0  0  0  0  0  0
  161.7180  206.9120  151.2030 C   0  0  1  0  0  0  0  0  0  0  0  0
  159.2400  211.1040  155.5170 C   0  0  0  0  0  3  0  0  0  0  0  0
  159.5260  211.1820  154.1480 C   0  0  0  0  0  3  0  0  0  0  0  0
  160.9850  209.1360  151.4410 C   0  0  0  0  0  0  0  0  0  0  0  0
  160.4050  208.9190  154.2100 C   0  0  0  0  0  0  0  0  0  0  0  0
  161.9180  207.6480  149.8680 C   0  0  0  0  0  2  0  0  0  0  0  0
  159.5350  209.9390  156.2360 C   0  0  0  0  0  3  0  0  0  0  0  0
  161.2960  206.6640  154.2780 C   0  0  0  0  0  3  0  0  0  0  0  0
  160.4190  207.6800  156.3010 C   0  0  0  0  0  3  0  0  0  0  0  0
  160.4130  210.1810  152.0480 C   0  0  0  0  0  3  0  0  0  0  0  0
  163.0480  206.3140  151.6380 C   0  0  0  0  0  1  0  0  0  0  0  0
  161.3280  209.0560  150.0020 C   0  0  2  0  0  3  0  0  0  0  0  0
  161.2630  207.9350  152.1390 N   0  0  0  0  0  0  0  0  0  0  0  0
  161.0090  206.5940  155.6470 C   0  0  0  0  0  3  0  0  0  0  0  0
  162.3950  210.0760  149.6330 C   0  0  0  0  0  2  0  0  0  0  0  0
  162.1540  210.5740  148.3440 O   0  0  0  0  0  0  0  0  0  0  0  0
  163.3390  212.7260  148.0210 C   0  0  0  0  0  2  0  0  0  0  0  0
  162.0950  211.9730  148.4480 C   0  0  1  0  0  0  0  0  0  0  0  0
  162.1410  212.6590  147.0780 C   0  0  1  0  0  3  0  0  0  0  0  0
  160.0900  213.9460  147.7660 C   0  0  0  0  0  2  0  0  0  0  0  0
  160.2820  213.5170  149.1900 C   0  0  0  0  0  3  0  0  0  0  0  0
  161.1990  212.5940  149.5030 C   0  0  0  0  0  3  0  0  0  0  0  0
  161.4410  214.0210  147.0610 C   0  0  0  0  0  2  0  0  0  0  0  0
  160.6440  205.8430  150.9860 C   0  0  0  0  0  2  0  0  0  0  0  0
  160.5670  205.4260  149.6500 O   0  0  0  0  0  0  0  0  0  0  0  0
  161.2390  204.1960  149.6120 C   0  0  1  0  0  3  0  0  0  0  0  0
  160.7390  203.2160  150.6830 C   0  0  0  0  0  2  0  0  0  0  0  0
  160.5920  201.7980  150.1550 C   0  0  0  0  0  1  0  0  0  0  0  0
  161.2520  203.6000  148.2000 C   0  0  0  0  0  2  0  0  0  0  0  0
  162.0330  204.4260  147.1830 C   0  0  0  0  0  2  0  0  0  0  0  0
  161.7090  203.9960  145.7640 C   0  0  0  0  0  1  0  0  0  0  0  0
  1 10  1  0  0  0  0
  1 12  1  0  0  0  0
  2  6  2  0  0  0  0
  2  8  1  0  0  0  0
  3  8  1  0  0  0  0
  3 11  2  0  0  0  0
  4 14  1  1  0  0  0
  4 16  1  0  0  0  0
  5 10  2  0  0  0  0
  6  5  1  0  0  0  0
  7 13  2  0  0  0  0
  7 16  1  0  0  0  0
  8  1  2  0  0  0  0
  9 15  1  0  0  0  0
  9  4  1  0  0  0  0
 11 17  1  0  0  0  0
 13  2  1  0  0  0  0
 15 18  1  1  0  0  0
 15  7  1  0  0  0  0
 16  3  1  0  0  0  0
 17 12  2  0  0  0  0
 19 18  1  0  0  0  0
 20 21  1  0  0  0  0
 21 19  1  1  0  0  0
 21 25  1  0  0  0  0
 22 26  1  1  0  0  0
 22 20  1  0  0  0  0
 22 21  1  0  0  0  0
 23 24  1  0  0  0  0
 24 25  2  0  0  0  0
 26 23  1  0  0  0  0
 27  4  1  0  0  0  0
 28 27  1  0  0  0  0
 29 32  1  6  0  0  0
 29 28  1  0  0  0  0
 29 30  1  0  0  0  0
 31 30  1  0  0  0  0
 33 32  1  0  0  0  0
 34 33  1  0  0  0  0
M  END
>  <MODEL>
2

>  <REMARK>
 VINA RESULT:      -7.0      1.144      2.210
  Name = 
  9 active torsions:
  status: ('A' for Active; 'I' for Inactive)
    1  A    between atoms: O_3  and  C_13
    2  A    between atoms: O_3  and  C_17
    3  A    between atoms: C_5  and  C_27
    4  A    between atoms: C_7  and  C_8
    5  A    between atoms: C_8  and  O_16
    6  A    between atoms: C_8  and  C_23
    7  A    between atoms: C_12  and  C_23
    8  A    between atoms: O_16  and  C_27
    9  A    between atoms: C_17  and  C_29
                            x       y       z     vdW  Elec       q    Type
                         _______ _______ _______ _____ _____    ______ ____

>  <TORSDO>
F 9

$$$$
=
 OpenBabel11062407483D

 34 39  0  0  1  0  0  0  0  0999 V2000
  161.2690  205.1970  149.7870 C   0  0  0  0  0  0  0  0  0  0  0  0
  162.0200  207.1290  148.4900 C   0  0  0  0  0  0  0  0  0  0  0  0
  161.2140  207.4310  150.7750 C   0  0  0  0  0  0  0  0  0  0  0  0
  161.3990  209.8990  151.6370 C   0  0  1  0  0  0  0  0  0  0  0  0
  162.0760  204.9080  147.5200 C   0  0  0  0  0  3  0  0  0  0  0  0
  162.3040  206.2850  147.4140 C   0  0  0  0  0  3  0  0  0  0  0  0
  161.9590  209.3730  149.4120 C   0  0  0  0  0  0  0  0  0  0  0  0
  161.5000  206.5860  149.6860 C   0  0  0  0  0  0  0  0  0  0  0  0
  161.6830  211.2030  150.8740 C   0  0  0  0  0  2  0  0  0  0  0  0
  161.5610  204.3650  148.7040 C   0  0  0  0  0  3  0  0  0  0  0  0
  160.6830  206.8850  151.9500 C   0  0  0  0  0  3  0  0  0  0  0  0
  160.7520  204.6640  150.9720 C   0  0  0  0  0  3  0  0  0  0  0  0
  162.2540  208.5820  148.3750 C   0  0  0  0  0  3  0  0  0  0  0  0
  160.0120  209.9870  152.2570 C   0  0  0  0  0  1  0  0  0  0  0  0
  162.1610  210.8390  149.4630 C   0  0  2  0  0  3  0  0  0  0  0  0
  161.4670  208.8440  150.6310 N   0  0  0  0  0  0  0  0  0  0  0  0
  160.4570  205.5070  152.0480 C   0  0  0  0  0  3  0  0  0  0  0  0
  161.2830  211.5520  148.4450 C   0  0  0  0  0  2  0  0  0  0  0  0
  162.0840  212.1790  147.4800 O   0  0  0  0  0  0  0  0  0  0  0  0
  161.7050  214.2980  146.2520 C   0  0  0  0  0  2  0  0  0  0  0  0
  161.2250  212.9170  146.6490 C   0  0  1  0  0  0  0  0  0  0  0  0
  161.8220  213.1480  145.2570 C   0  0  1  0  0  3  0  0  0  0  0  0
  159.6700  212.2640  144.2970 C   0  0  0  0  0  2  0  0  0  0  0  0
  159.0100  212.3770  145.6390 C   0  0  0  0  0  3  0  0  0  0  0  0
  159.7310  212.6650  146.7280 C   0  0  0  0  0  3  0  0  0  0  0  0
  160.7610  213.3220  144.1660 C   0  0  0  0  0  2  0  0  0  0  0  0
  162.4960  209.7310  152.6910 C   0  0  0  0  0  2  0  0  0  0  0  0
  162.3540  210.6290  153.7570 O   0  0  0  0  0  0  0  0  0  0  0  0
  162.3840  209.8320  154.9110 C   0  0  1  0  0  3  0  0  0  0  0  0
  163.0010  210.5580  156.1150 C   0  0  0  0  0  2  0  0  0  0  0  0
  161.9630  210.9630  157.1490 C   0  0  0  0  0  1  0  0  0  0  0  0
  161.0130  209.2150  155.2100 C   0  0  0  0  0  2  0  0  0  0  0  0
  161.0460  207.7090  155.4450 C   0  0  0  0  0  2  0  0  0  0  0  0
  159.8770  207.2620  156.3030 C   0  0  0  0  0  1  0  0  0  0  0  0
  1 12  1  0  0  0  0
  2  8  1  0  0  0  0
  3 11  2  0  0  0  0
  4 14  1  1  0  0  0
  4 27  1  0  0  0  0
  5 10  2  0  0  0  0
  6  5  1  0  0  0  0
  6  2  2  0  0  0  0
  7 15  1  0  0  0  0
  7 16  1  0  0  0  0
  8  1  2  0  0  0  0
  8  3  1  0  0  0  0
  9  4  1  0  0  0  0
 10  1  1  0  0  0  0
 11 17  1  0  0  0  0
 12 17  2  0  0  0  0
 13  2  1  0  0  0  0
 13  7  2  0  0  0  0
 15 18  1  6  0  0  0
 15  9  1  0  0  0  0
 16  3  1  0  0  0  0
 16  4  1  0  0  0  0
 19 18  1  0  0  0  0
 20 21  1  0  0  0  0
 21 25  1  0  0  0  0
 21 19  1  1  0  0  0
 22 26  1  6  0  0  0
 22 20  1  0  0  0  0
 22 21  1  0  0  0  0
 23 24  1  0  0  0  0
 24 25  2  0  0  0  0
 26 23  1  0  0  0  0
 27 28  1  0  0  0  0
 28 29  1  0  0  0  0
 29 32  1  1  0  0  0
 29 30  1  0  0  0  0
 30 31  1  0  0  0  0
 32 33  1  0  0  0  0
 33 34  1  0  0  0  0
M  END
>  <MODEL>
3

>  <REMARK>
 VINA RESULT:      -6.0      1.811      5.480
  Name = 
  9 active torsions:
  status: ('A' for Active; 'I' for Inactive)
    1  A    between atoms: O_3  and  C_13
    2  A    between atoms: O_3  and  C_17
    3  A    between atoms: C_5  and  C_27
    4  A    between atoms: C_7  and  C_8
    5  A    between atoms: C_8  and  O_16
    6  A    between atoms: C_8  and  C_23
    7  A    between atoms: C_12  and  C_23
    8  A    between atoms: O_16  and  C_27
    9  A    between atoms: C_17  and  C_29
                            x       y       z     vdW  Elec       q    Type
                         _______ _______ _______ _____ _____    ______ ____

>  <TORSDO>
F 9

$$$$
=
 OpenBabel11062407483D

 34 39  0  0  1  0  0  0  0  0999 V2000
  161.4300  203.4990  147.5330 C   0  0  0  0  0  0  0  0  0  0  0  0
  160.7070  204.1090  149.7870 C   0  0  0  0  0  0  0  0  0  0  0  0
  161.8200  205.7600  148.3740 C   0  0  0  0  0  0  0  0  0  0  0  0
  161.9790  208.1380  149.4620 C   0  0  1  0  0  0  0  0  0  0  0  0
  160.3200  201.8700  148.9420 C   0  0  0  0  0  3  0  0  0  0  0  0
  160.2110  202.8160  149.9680 C   0  0  0  0  0  3  0  0  0  0  0  0
  161.0950  206.3300  150.6830 C   0  0  0  0  0  0  0  0  0  0  0  0
  161.3200  204.4570  148.5630 C   0  0  0  0  0  0  0  0  0  0  0  0
  161.7250  208.5920  150.9090 C   0  0  0  0  0  2  0  0  0  0  0  0
  160.9260  202.2100  147.7270 C   0  0  0  0  0  3  0  0  0  0  0  0
  162.4410  206.0900  147.1630 C   0  0  0  0  0  3  0  0  0  0  0  0
  162.0400  203.8480  146.3240 C   0  0  0  0  0  3  0  0  0  0  0  0
  160.5980  205.1030  150.8720 C   0  0  0  0  0  3  0  0  0  0  0  0
  163.4360  208.4090  149.1130 C   0  0  0  0  0  1  0  0  0  0  0  0
  161.0410  207.4420  151.6590 C   0  0  2  0  0  3  0  0  0  0  0  0
  161.6850  206.7090  149.4510 N   0  0  0  0  0  0  0  0  0  0  0  0
  162.5470  205.1380  146.1410 C   0  0  0  0  0  3  0  0  0  0  0  0
  161.8460  207.1190  152.9090 C   0  0  0  0  0  2  0  0  0  0  0  0
  161.0110  206.5490  153.8810 O   0  0  0  0  0  0  0  0  0  0  0  0
  159.4990  207.2970  155.6960 C   0  0  0  0  0  2  0  0  0  0  0  0
  160.6820  207.5690  154.7890 C   0  0  1  0  0  0  0  0  0  0  0  0
  160.9150  207.1470  156.2440 C   0  0  1  0  0  3  0  0  0  0  0  0
  162.2410  209.2650  156.5410 C   0  0  0  0  0  2  0  0  0  0  0  0
  161.7090  209.7950  155.2420 C   0  0  0  0  0  3  0  0  0  0  0  0
  161.0010  209.0070  154.4260 C   0  0  0  0  0  3  0  0  0  0  0  0
  161.2190  208.3250  157.1730 C   0  0  0  0  0  2  0  0  0  0  0  0
  161.0130  208.9090  148.5590 C   0  0  0  0  0  2  0  0  0  0  0  0
  161.6690  209.8490  147.7540 O   0  0  0  0  0  0  0  0  0  0  0  0
  161.1840  211.0950  148.1780 C   0  0  1  0  0  3  0  0  0  0  0  0
  162.2460  211.9240  148.9140 C   0  0  0  0  0  2  0  0  0  0  0  0
  163.3440  212.4220  147.9880 C   0  0  0  0  0  1  0  0  0  0  0  0
  160.5010  211.8560  147.0360 C   0  0  0  0  0  2  0  0  0  0  0  0
  159.5250  212.9320  147.5020 C   0  0  0  0  0  2  0  0  0  0  0  0
  158.1490  212.7220  146.8980 C   0  0  0  0  0  1  0  0  0  0  0  0
  1 10  2  0  0  0  0
  1  8  1  0  0  0  0
  2  6  1  0  0  0  0
  2 13  1  0  0  0  0
  3  8  1  0  0  0  0
  3 16  1  0  0  0  0
  4 14  1  6  0  0  0
  4  9  1  0  0  0  0
  5  6  2  0  0  0  0
  7 13  2  0  0  0  0
  7 15  1  0  0  0  0
  8  2  2  0  0  0  0
  9 15  1  0  0  0  0
 10  5  1  0  0  0  0
 11  3  2  0  0  0  0
 12  1  1  0  0  0  0
 15 18  1  1  0  0  0
 16  4  1  0  0  0  0
 16  7  1  0  0  0  0
 17 12  2  0  0  0  0
 17 11  1  0  0  0  0
 18 19  1  0  0  0  0
 21 19  1  6  0  0  0
 21 20  1  0  0  0  0
 21 22  1  0  0  0  0
 22 20  1  1  0  0  0
 22 26  1  0  0  0  0
 23 26  1  0  0  0  0
 24 23  1  0  0  0  0
 25 21  1  0  0  0  0
 25 24  2  0  0  0  0
 27  4  1  0  0  0  0
 28 29  1  0  0  0  0
 28 27  1  0  0  0  0
 29 32  1  6  0  0  0
 29 30  1  0  0  0  0
 31 30  1  0  0  0  0
 32 33  1  0  0  0  0
 34 33  1  0  0  0  0
M  END
>  <MODEL>
4

>  <REMARK>
 VINA RESULT:      -5.2      1.742      7.563
  Name = 
  9 active torsions:
  status: ('A' for Active; 'I' for Inactive)
    1  A    between atoms: O_3  and  C_13
    2  A    between atoms: O_3  and  C_17
    3  A    between atoms: C_5  and  C_27
    4  A    between atoms: C_7  and  C_8
    5  A    between atoms: C_8  and  O_16
    6  A    between atoms: C_8  and  C_23
    7  A    between atoms: C_12  and  C_23
    8  A    between atoms: O_16  and  C_27
    9  A    between atoms: C_17  and  C_29
                            x       y       z     vdW  Elec       q    Type
                         _______ _______ _______ _____ _____    ______ ____

>  <TORSDO>
F 9

$$$$
=
 OpenBabel11062407483D

 34 39  0  0  1  0  0  0  0  0999 V2000
  161.4160  204.8660  148.4880 C   0  0  0  0  0  0  0  0  0  0  0  0
  160.8810  205.9650  150.6060 C   0  0  0  0  0  0  0  0  0  0  0  0
  161.7920  207.2660  148.7510 C   0  0  0  0  0  0  0  0  0  0  0  0
  161.9550  209.8330  149.2500 C   0  0  1  0  0  0  0  0  0  0  0  0
  160.5070  203.5850  150.3340 C   0  0  0  0  0  3  0  0  0  0  0  0
  160.4560  204.7400  151.1240 C   0  0  0  0  0  3  0  0  0  0  0  0
  161.2620  208.3400  150.9310 C   0  0  0  0  0  0  0  0  0  0  0  0
  161.3630  206.0340  149.2800 C   0  0  0  0  0  0  0  0  0  0  0  0
  161.8180  210.6030  150.5740 C   0  0  0  0  0  2  0  0  0  0  0  0
  160.9840  203.6480  149.0190 C   0  0  0  0  0  3  0  0  0  0  0  0
  162.2840  207.3200  147.4420 C   0  0  0  0  0  3  0  0  0  0  0  0
  161.8970  204.9380  147.1770 C   0  0  0  0  0  3  0  0  0  0  0  0
  160.8340  207.1810  151.4420 C   0  0  0  0  0  3  0  0  0  0  0  0
  163.3610  210.0420  148.7050 C   0  0  0  0  0  1  0  0  0  0  0  0
  161.2540  209.6450  151.6290 C   0  0  2  0  0  3  0  0  0  0  0  0
  161.7190  208.4350  149.5930 N   0  0  0  0  0  0  0  0  0  0  0  0
  162.3320  206.1610  146.6570 C   0  0  0  0  0  3  0  0  0  0  0  0
  162.1840  209.6320  152.8330 C   0  0  0  0  0  2  0  0  0  0  0  0
  161.5440  210.2140  153.9370 O   0  0  0  0  0  0  0  0  0  0  0  0
  162.2840  209.7150  156.2490 C   0  0  0  0  0  2  0  0  0  0  0  0
  161.5850  209.2740  154.9800 C   0  0  1  0  0  0  0  0  0  0  0  0
  160.7590  209.7160  156.1930 C   0  0  1  0  0  3  0  0  0  0  0  0
  159.6320  207.4670  156.1190 C   0  0  0  0  0  2  0  0  0  0  0  0
  160.6800  206.9580  155.1740 C   0  0  0  0  0  3  0  0  0  0  0  0
  161.5730  207.7960  154.6360 C   0  0  0  0  0  3  0  0  0  0  0  0
  160.2280  208.5430  157.0220 C   0  0  0  0  0  2  0  0  0  0  0  0
  160.8790  210.3590  148.2960 C   0  0  0  0  0  2  0  0  0  0  0  0
  161.3370  211.4260  147.5110 O   0  0  0  0  0  0  0  0  0  0  0  0
  160.3870  212.4430  147.6880 C   0  0  1  0  0  3  0  0  0  0  0  0
  160.8490  213.5150  148.6850 C   0  0  0  0  0  2  0  0  0  0  0  0
  159.8570  213.7280  149.8160 C   0  0  0  0  0  1  0  0  0  0  0  0
  159.9170  213.0200  146.3480 C   0  0  0  0  0  2  0  0  0  0  0  0
  158.5160  212.5780  145.9370 C   0  0  0  0  0  2  0  0  0  0  0  0
  157.5700  212.5850  147.1240 C   0  0  0  0  0  1  0  0  0  0  0  0
  1 10  2  0  0  0  0
  1  8  1  0  0  0  0
  2  6  1  0  0  0  0
  2 13  1  0  0  0  0
  3  8  1  0  0  0  0
  3 16  1  0  0  0  0
  4 14  1  6  0  0  0
  4 16  1  0  0  0  0
  4  9  1  0  0  0  0
  5  6  2  0  0  0  0
  7 13  2  0  0  0  0
  7 15  1  0  0  0  0
  8  2  2  0  0  0  0
  9 15  1  0  0  0  0
 10  5  1  0  0  0  0
 11  3  2  0  0  0  0
 12  1  1  0  0  0  0
 15 18  1  1  0  0  0
 16  7  1  0  0  0  0
 17 12  2  0  0  0  0
 17 11  1  0  0  0  0
 18 19  1  0  0  0  0
 21 19  1  6  0  0  0
 21 22  1  0  0  0  0
 21 20  1  0  0  0  0
 22 20  1  1  0  0  0
 22 26  1  0  0  0  0
 23 26  1  0  0  0  0
 24 23  1  0  0  0  0
 25 21  1  0  0  0  0
 25 24  2  0  0  0  0
 27  4  1  0  0  0  0
 28 29  1  0  0  0  0
 28 27  1  0  0  0  0
 29 32  1  6  0  0  0
 29 30  1  0  0  0  0
 30 31  1  0  0  0  0
 33 32  1  0  0  0  0
 33 34  1  0  0  0  0
M  END
>  <MODEL>
5

>  <REMARK>
 VINA RESULT:      -4.9      1.710      7.221
  Name = 
  9 active torsions:
  status: ('A' for Active; 'I' for Inactive)
    1  A    between atoms: O_3  and  C_13
    2  A    between atoms: O_3  and  C_17
    3  A    between atoms: C_5  and  C_27
    4  A    between atoms: C_7  and  C_8
    5  A    between atoms: C_8  and  O_16
    6  A    between atoms: C_8  and  C_23
    7  A    between atoms: C_12  and  C_23
    8  A    between atoms: O_16  and  C_27
    9  A    between atoms: C_17  and  C_29
                            x       y       z     vdW  Elec       q    Type
                         _______ _______ _______ _____ _____    ______ ____

>  <TORSDO>
F 9

$$$$
=
 OpenBabel11062407483D

 34 39  0  0  1  0  0  0  0  0999 V2000
  161.4960  205.7860  149.0750 C   0  0  0  0  0  0  0  0  0  0  0  0
  160.7660  205.6100  151.4020 C   0  0  0  0  0  0  0  0  0  0  0  0
  161.5540  207.7490  150.5270 C   0  0  0  0  0  0  0  0  0  0  0  0
  161.3750  209.7180  152.2480 C   0  0  1  0  0  0  0  0  0  0  0  0
  160.7070  203.6690  149.9520 C   0  0  0  0  0  3  0  0  0  0  0  0
  160.4880  204.2560  151.2030 C   0  0  0  0  0  3  0  0  0  0  0  0
  160.8320  207.5220  152.8960 C   0  0  0  0  0  0  0  0  0  0  0  0
  161.2730  206.3840  150.3340 C   0  0  0  0  0  0  0  0  0  0  0  0
  161.1040  209.6980  153.7610 C   0  0  0  0  0  2  0  0  0  0  0  0
  161.2090  204.4310  148.8900 C   0  0  0  0  0  3  0  0  0  0  0  0
  162.0720  208.5030  149.4670 C   0  0  0  0  0  3  0  0  0  0  0  0
  161.9990  206.5550  148.0210 C   0  0  0  0  0  3  0  0  0  0  0  0
  160.5420  206.2280  152.7240 C   0  0  0  0  0  3  0  0  0  0  0  0
  162.7570  210.3080  152.0040 C   0  0  0  0  0  1  0  0  0  0  0  0
  160.6380  208.2900  154.1470 C   0  0  2  0  0  3  0  0  0  0  0  0
  161.3100  208.3220  151.8290 N   0  0  0  0  0  0  0  0  0  0  0  0
  162.2890  207.9080  148.2180 C   0  0  0  0  0  3  0  0  0  0  0  0
  161.5280  207.7620  155.2620 C   0  0  0  0  0  2  0  0  0  0  0  0
  162.5420  208.6890  155.5420 O   0  0  0  0  0  0  0  0  0  0  0  0
  163.0600  210.4020  157.2560 C   0  0  0  0  0  2  0  0  0  0  0  0
  162.0350  209.5720  156.5100 C   0  0  1  0  0  0  0  0  0  0  0  0
  162.2550  211.0400  156.1270 C   0  0  1  0  0  3  0  0  0  0  0  0
  159.8050  211.4160  156.5610 C   0  0  0  0  0  2  0  0  0  0  0  0
  159.7090  210.0850  157.2450 C   0  0  0  0  0  3  0  0  0  0  0  0
  160.7340  209.2270  157.2090 C   0  0  0  0  0  3  0  0  0  0  0  0
  161.2110  211.9840  156.7290 C   0  0  0  0  0  2  0  0  0  0  0  0
  160.2670  210.5460  151.5910 C   0  0  0  0  0  2  0  0  0  0  0  0
  160.6890  211.8420  151.2670 O   0  0  0  0  0  0  0  0  0  0  0  0
  159.7600  212.6930  151.8820 C   0  0  1  0  0  3  0  0  0  0  0  0
  159.3410  213.8620  150.9790 C   0  0  0  0  0  2  0  0  0  0  0  0
  158.3650  213.4410  149.8930 C   0  0  0  0  0  1  0  0  0  0  0  0
  158.5720  211.9140  152.4590 C   0  0  0  0  0  2  0  0  0  0  0  0
  158.1140  212.4020  153.8290 C   0  0  0  0  0  2  0  0  0  0  0  0
  156.9510  213.3690  153.7050 C   0  0  0  0  0  1  0  0  0  0  0  0
  1  8  1  0  0  0  0
  2 13  1  0  0  0  0
  3 16  1  0  0  0  0
  4 14  1  6  0  0  0
  4  9  1  0  0  0  0
  5  6  2  0  0  0  0
  6  2  1  0  0  0  0
  7 15  1  0  0  0  0
  8  3  1  0  0  0  0
  8  2  2  0  0  0  0
  9 15  1  0  0  0  0
 10  1  2  0  0  0  0
 10  5  1  0  0  0  0
 11  3  2  0  0  0  0
 12 17  2  0  0  0  0
 12  1  1  0  0  0  0
 13  7  2  0  0  0  0
 15 18  1  1  0  0  0
 16  4  1  0  0  0  0
 16  7  1  0  0  0  0
 17 11  1  0  0  0  0
 18 19  1  0  0  0  0
 21 19  1  6  0  0  0
 21 25  1  0  0  0  0
 21 20  1  0  0  0  0
 22 21  1  0  0  0  0
 22 26  1  1  0  0  0
 22 20  1  0  0  0  0
 23 26  1  0  0  0  0
 23 24  1  0  0  0  0
 25 24  2  0  0  0  0
 27  4  1  0  0  0  0
 28 27  1  0  0  0  0
 28 29  1  0  0  0  0
 29 30  1  6  0  0  0
 29 32  1  0  0  0  0
 31 30  1  0  0  0  0
 32 33  1  0  0  0  0
 34 33  1  0  0  0  0
M  END
>  <MODEL>
6

>  <REMARK>
 VINA RESULT:      -4.8      2.495      7.514
  Name = 
  9 active torsions:
  status: ('A' for Active; 'I' for Inactive)
    1  A    between atoms: O_3  and  C_13
    2  A    between atoms: O_3  and  C_17
    3  A    between atoms: C_5  and  C_27
    4  A    between atoms: C_7  and  C_8
    5  A    between atoms: C_8  and  O_16
    6  A    between atoms: C_8  and  C_23
    7  A    between atoms: C_12  and  C_23
    8  A    between atoms: O_16  and  C_27
    9  A    between atoms: C_17  and  C_29
                            x       y       z     vdW  Elec       q    Type
                         _______ _______ _______ _____ _____    ______ ____

>  <TORSDO>
F 9

$$$$
=
 OpenBabel11062407483D

 34 39  0  0  1  0  0  0  0  0999 V2000
  161.1230  206.1530  153.8050 C   0  0  0  0  0  0  0  0  0  0  0  0
  160.9770  208.4330  152.9330 C   0  0  0  0  0  0  0  0  0  0  0  0
  161.5010  206.5820  151.4300 C   0  0  0  0  0  0  0  0  0  0  0  0
  161.7130  207.2970  148.9180 C   0  0  1  0  0  0  0  0  0  0  0  0
  160.5990  207.9970  155.2880 C   0  0  0  0  0  3  0  0  0  0  0  0
  160.6780  208.8950  154.2170 C   0  0  0  0  0  3  0  0  0  0  0  0
  161.3730  208.9180  150.5890 C   0  0  0  0  0  0  0  0  0  0  0  0
  161.2010  207.0540  152.7210 C   0  0  0  0  0  0  0  0  0  0  0  0
  161.8140  208.6940  148.2830 C   0  0  0  0  0  2  0  0  0  0  0  0
  160.8190  206.6290  155.0830 C   0  0  0  0  0  3  0  0  0  0  0  0
  161.7380  205.2160  151.2330 C   0  0  0  0  0  3  0  0  0  0  0  0
  161.3480  204.7900  153.5910 C   0  0  0  0  0  3  0  0  0  0  0  0
  161.0680  209.3810  151.8060 C   0  0  0  0  0  3  0  0  0  0  0  0
  162.9880  206.5240  148.6080 C   0  0  0  0  0  1  0  0  0  0  0  0
  161.4740  209.7340  149.3570 C   0  0  2  0  0  3  0  0  0  0  0  0
  161.5690  207.5360  150.3490 N   0  0  0  0  0  0  0  0  0  0  0  0
  161.6570  204.3240  152.3100 C   0  0  0  0  0  3  0  0  0  0  0  0
  162.6140  210.7370  149.4520 C   0  0  0  0  0  2  0  0  0  0  0  0
  162.8290  211.3360  148.2020 O   0  0  0  0  0  0  0  0  0  0  0  0
  163.1080  213.7760  147.8760 C   0  0  0  0  0  2  0  0  0  0  0  0
  162.2230  212.6020  148.2430 C   0  0  1  0  0  0  0  0  0  0  0  0
  162.1130  213.2370  146.8530 C   0  0  1  0  0  3  0  0  0  0  0  0
  159.6740  213.6290  147.3360 C   0  0  0  0  0  2  0  0  0  0  0  0
  159.8990  213.3230  148.7870 C   0  0  0  0  0  3  0  0  0  0  0  0
  161.0720  212.8350  149.2040 C   0  0  0  0  0  3  0  0  0  0  0  0
  160.9430  214.2180  146.7280 C   0  0  0  0  0  2  0  0  0  0  0  0
  160.4680  206.6170  148.3410 C   0  0  0  0  0  2  0  0  0  0  0  0
  160.5340  206.4720  146.9490 O   0  0  0  0  0  0  0  0  0  0  0  0
  161.1660  205.2380  146.7400 C   0  0  1  0  0  3  0  0  0  0  0  0
  160.4200  204.0720  147.4040 C   0  0  0  0  0  2  0  0  0  0  0  0
  161.3180  203.2430  148.3080 C   0  0  0  0  0  1  0  0  0  0  0  0
  161.4690  205.0000  145.2560 C   0  0  0  0  0  2  0  0  0  0  0  0
  162.9560  204.9860  144.9190 C   0  0  0  0  0  2  0  0  0  0  0  0
  163.7600  204.3110  146.0150 C   0  0  0  0  0  1  0  0  0  0  0  0
  1 10  2  0  0  0  0
  2  6  1  0  0  0  0
  3  8  1  0  0  0  0
  4 14  1  6  0  0  0
  4 16  1  0  0  0  0
  6  5  2  0  0  0  0
  7 13  2  0  0  0  0
  8  2  2  0  0  0  0
  8  1  1  0  0  0  0
  9  4  1  0  0  0  0
  9 15  1  0  0  0  0
 10  5  1  0  0  0  0
 11  3  2  0  0  0  0
 11 17  1  0  0  0  0
 12  1  1  0  0  0  0
 13  2  1  0  0  0  0
 15 18  1  1  0  0  0
 15  7  1  0  0  0  0
 16  7  1  0  0  0  0
 16  3  1  0  0  0  0
 17 12  2  0  0  0  0
 19 18  1  0  0  0  0
 20 21  1  0  0  0  0
 21 19  1  1  0  0  0
 21 25  1  0  0  0  0
 22 26  1  1  0  0  0
 22 20  1  0  0  0  0
 22 21  1  0  0  0  0
 23 24  1  0  0  0  0
 24 25  2  0  0  0  0
 26 23  1  0  0  0  0
 27  4  1  0  0  0  0
 28 27  1  0  0  0  0
 29 32  1  6  0  0  0
 29 28  1  0  0  0  0
 29 30  1  0  0  0  0
 30 31  1  0  0  0  0
 33 32  1  0  0  0  0
 33 34  1  0  0  0  0
M  END
>  <MODEL>
7

>  <REMARK>
 VINA RESULT:      -4.7      1.092      2.101
  Name = 
  9 active torsions:
  status: ('A' for Active; 'I' for Inactive)
    1  A    between atoms: O_3  and  C_13
    2  A    between atoms: O_3  and  C_17
    3  A    between atoms: C_5  and  C_27
    4  A    between atoms: C_7  and  C_8
    5  A    between atoms: C_8  and  O_16
    6  A    between atoms: C_8  and  C_23
    7  A    between atoms: C_12  and  C_23
    8  A    between atoms: O_16  and  C_27
    9  A    between atoms: C_17  and  C_29
                            x       y       z     vdW  Elec       q    Type
                         _______ _______ _______ _____ _____    ______ ____

>  <TORSDO>
F 9

$$$$
=
 OpenBabel11062407483D

 34 39  0  0  1  0  0  0  0  0999 V2000
  161.6060  208.7860  148.6230 C   0  0  0  0  0  0  0  0  0  0  0  0
  161.9920  208.9140  151.0330 C   0  0  0  0  0  0  0  0  0  0  0  0
  161.1370  206.8530  150.0410 C   0  0  0  0  0  0  0  0  0  0  0  0
  160.8630  204.8950  151.7600 C   0  0  1  0  0  0  0  0  0  0  0  0
  162.4580  210.8250  149.6170 C   0  0  0  0  0  3  0  0  0  0  0  0
  162.4300  210.2320  150.8850 C   0  0  0  0  0  3  0  0  0  0  0  0
  161.5160  207.0330  152.4920 C   0  0  0  0  0  0  0  0  0  0  0  0
  161.5780  208.1830  149.8980 C   0  0  0  0  0  0  0  0  0  0  0  0
  160.9040  204.9030  153.2970 C   0  0  0  0  0  2  0  0  0  0  0  0
  162.0490  210.1050  148.4890 C   0  0  0  0  0  3  0  0  0  0  0  0
  160.7130  206.1420  148.9110 C   0  0  0  0  0  3  0  0  0  0  0  0
  161.1920  208.0600  147.5020 C   0  0  0  0  0  3  0  0  0  0  0  0
  161.9550  208.2910  152.3710 C   0  0  0  0  0  3  0  0  0  0  0  0
  159.4810  204.4410  151.3100 C   0  0  0  0  0  1  0  0  0  0  0  0
  161.4450  206.2630  153.7550 C   0  0  2  0  0  3  0  0  0  0  0  0
  161.1270  206.2730  151.3620 N   0  0  0  0  0  0  0  0  0  0  0  0
  160.7440  206.7430  147.6470 C   0  0  0  0  0  3  0  0  0  0  0  0
  160.4540  206.8870  154.7260 C   0  0  0  0  0  2  0  0  0  0  0  0
  161.1350  207.4010  155.8390 O   0  0  0  0  0  0  0  0  0  0  0  0
  161.1330  209.4320  157.2590 C   0  0  0  0  0  2  0  0  0  0  0  0
  160.7750  208.7540  155.9520 C   0  0  1  0  0  0  0  0  0  0  0  0
  161.9970  209.6760  156.0250 C   0  0  1  0  0  3  0  0  0  0  0  0
  160.9620  211.0290  154.1720 C   0  0  0  0  0  2  0  0  0  0  0  0
  159.6540  210.3210  154.3690 C   0  0  0  0  0  3  0  0  0  0  0  0
  159.5710  209.2610  155.1800 C   0  0  0  0  0  3  0  0  0  0  0  0
  161.7230  211.0850  155.4940 C   0  0  0  0  0  2  0  0  0  0  0  0
  161.9690  203.9550  151.2730 C   0  0  0  0  0  2  0  0  0  0  0  0
  161.5810  202.6090  151.3080 O   0  0  0  0  0  0  0  0  0  0  0  0
  161.7480  202.1470  149.9950 C   0  0  1  0  0  3  0  0  0  0  0  0
  160.8890  200.9120  149.6900 C   0  0  0  0  0  2  0  0  0  0  0  0
  159.3990  201.2110  149.7290 C   0  0  0  0  0  1  0  0  0  0  0  0
  161.5780  203.2740  148.9700 C   0  0  0  0  0  2  0  0  0  0  0  0
  161.2110  202.7930  147.5710 C   0  0  0  0  0  2  0  0  0  0  0  0
  161.8050  203.6980  146.5070 C   0  0  0  0  0  1  0  0  0  0  0  0
  1  8  1  0  0  0  0
  2 13  1  0  0  0  0
  3 16  1  0  0  0  0
  4 14  1  6  0  0  0
  4  9  1  0  0  0  0
  5  6  2  0  0  0  0
  6  2  1  0  0  0  0
  7 15  1  0  0  0  0
  8  3  1  0  0  0  0
  8  2  2  0  0  0  0
  9 15  1  0  0  0  0
 10  1  2  0  0  0  0
 10  5  1  0  0  0  0
 11  3  2  0  0  0  0
 12 17  2  0  0  0  0
 12  1  1  0  0  0  0
 13  7  2  0  0  0  0
 15 18  1  1  0  0  0
 16  4  1  0  0  0  0
 16  7  1  0  0  0  0
 17 11  1  0  0  0  0
 18 19  1  0  0  0  0
 21 19  1  6  0  0  0
 21 22  1  0  0  0  0
 21 20  1  0  0  0  0
 22 26  1  6  0  0  0
 22 20  1  0  0  0  0
 23 24  1  0  0  0  0
 23 26  1  0  0  0  0
 24 25  2  0  0  0  0
 25 21  1  0  0  0  0
 27 28  1  0  0  0  0
 27  4  1  0  0  0  0
 29 32  1  6  0  0  0
 29 28  1  0  0  0  0
 30 31  1  0  0  0  0
 30 29  1  0  0  0  0
 33 32  1  0  0  0  0
 34 33  1  0  0  0  0
M  END
>  <MODEL>
8

>  <REMARK>
 VINA RESULT:      -4.7      2.732      6.105
  Name = 
  9 active torsions:
  status: ('A' for Active; 'I' for Inactive)
    1  A    between atoms: O_3  and  C_13
    2  A    between atoms: O_3  and  C_17
    3  A    between atoms: C_5  and  C_27
    4  A    between atoms: C_7  and  C_8
    5  A    between atoms: C_8  and  O_16
    6  A    between atoms: C_8  and  C_23
    7  A    between atoms: C_12  and  C_23
    8  A    between atoms: O_16  and  C_27
    9  A    between atoms: C_17  and  C_29
                            x       y       z     vdW  Elec       q    Type
                         _______ _______ _______ _____ _____    ______ ____

>  <TORSDO>
F 9

$$$$
=
 OpenBabel11062407483D

 34 39  0  0  1  0  0  0  0  0999 V2000
  161.6060  208.8730  148.6360 C   0  0  0  0  0  0  0  0  0  0  0  0
  161.9780  208.9790  151.0500 C   0  0  0  0  0  0  0  0  0  0  0  0
  161.1320  206.9260  150.0340 C   0  0  0  0  0  0  0  0  0  0  0  0
  160.8510  204.9510  151.7330 C   0  0  1  0  0  0  0  0  0  0  0  0
  162.4490  210.9040  149.6540 C   0  0  0  0  0  3  0  0  0  0  0  0
  162.4140  210.2990  150.9160 C   0  0  0  0  0  3  0  0  0  0  0  0
  161.4960  207.0850  152.4880 C   0  0  0  0  0  0  0  0  0  0  0  0
  161.5710  208.2580  149.9060 C   0  0  0  0  0  0  0  0  0  0  0  0
  160.8830  204.9460  153.2710 C   0  0  0  0  0  2  0  0  0  0  0  0
  162.0470  210.1930  148.5170 C   0  0  0  0  0  3  0  0  0  0  0  0
  160.7150  206.2250  148.8950 C   0  0  0  0  0  3  0  0  0  0  0  0
  161.2000  208.1560  147.5060 C   0  0  0  0  0  3  0  0  0  0  0  0
  161.9330  208.3440  152.3820 C   0  0  0  0  0  3  0  0  0  0  0  0
  159.4720  204.4990  151.2700 C   0  0  0  0  0  1  0  0  0  0  0  0
  161.4180  206.3030  153.7440 C   0  0  2  0  0  3  0  0  0  0  0  0
  161.1150  206.3340  151.3490 N   0  0  0  0  0  0  0  0  0  0  0  0
  160.7530  206.8380  147.6360 C   0  0  0  0  0  3  0  0  0  0  0  0
  160.4200  206.9160  154.7140 C   0  0  0  0  0  2  0  0  0  0  0  0
  161.0880  207.3730  155.8600 O   0  0  0  0  0  0  0  0  0  0  0  0
  161.2940  209.4100  157.2560 C   0  0  0  0  0  2  0  0  0  0  0  0
  160.7780  208.7360  156.0010 C   0  0  1  0  0  0  0  0  0  0  0  0
  162.0240  209.6240  155.9330 C   0  0  1  0  0  3  0  0  0  0  0  0
  160.8290  210.9950  154.1930 C   0  0  0  0  0  2  0  0  0  0  0  0
  159.5330  210.3240  154.5360 C   0  0  0  0  0  3  0  0  0  0  0  0
  159.5110  209.2700  155.3610 C   0  0  0  0  0  3  0  0  0  0  0  0
  161.7310  211.0380  155.4230 C   0  0  0  0  0  2  0  0  0  0  0  0
  161.9610  204.0190  151.2440 C   0  0  0  0  0  2  0  0  0  0  0  0
  161.4960  202.7220  150.9880 O   0  0  0  0  0  0  0  0  0  0  0  0
  160.9870  202.7680  149.6810 C   0  0  1  0  0  3  0  0  0  0  0  0
  161.9560  203.4310  148.6930 C   0  0  0  0  0  2  0  0  0  0  0  0
  161.3900  203.5130  147.2840 C   0  0  0  0  0  1  0  0  0  0  0  0
  160.4900  201.3940  149.2170 C   0  0  0  0  0  2  0  0  0  0  0  0
  161.5780  200.5090  148.6180 C   0  0  0  0  0  2  0  0  0  0  0  0
  161.2160  200.0730  147.2100 C   0  0  0  0  0  1  0  0  0  0  0  0
  1  8  1  0  0  0  0
  2 13  1  0  0  0  0
  3 16  1  0  0  0  0
  4 14  1  6  0  0  0
  4  9  1  0  0  0  0
  5  6  2  0  0  0  0
  6  2  1  0  0  0  0
  7 15  1  0  0  0  0
  8  3  1  0  0  0  0
  8  2  2  0  0  0  0
  9 15  1  0  0  0  0
 10  1  2  0  0  0  0
 10  5  1  0  0  0  0
 11  3  2  0  0  0  0
 12 17  2  0  0  0  0
 12  1  1  0  0  0  0
 13  7  2  0  0  0  0
 15 18  1  1  0  0  0
 16  4  1  0  0  0  0
 16  7  1  0  0  0  0
 17 11  1  0  0  0  0
 18 19  1  0  0  0  0
 21 19  1  6  0  0  0
 21 20  1  0  0  0  0
 22 26  1  6  0  0  0
 22 21  1  0  0  0  0
 22 20  1  0  0  0  0
 23 24  1  0  0  0  0
 23 26  1  0  0  0  0
 24 25  2  0  0  0  0
 25 21  1  0  0  0  0
 27  4  1  0  0  0  0
 28 27  1  0  0  0  0
 29 30  1  6  0  0  0
 29 28  1  0  0  0  0
 31 30  1  0  0  0  0
 32 29  1  0  0  0  0
 33 32  1  0  0  0  0
 34 33  1  0  0  0  0
M  END
>  <MODEL>
9

>  <REMARK>
 VINA RESULT:      -4.4      2.711      5.999
  Name = 
  9 active torsions:
  status: ('A' for Active; 'I' for Inactive)
    1  A    between atoms: O_3  and  C_13
    2  A    between atoms: O_3  and  C_17
    3  A    between atoms: C_5  and  C_27
    4  A    between atoms: C_7  and  C_8
    5  A    between atoms: C_8  and  O_16
    6  A    between atoms: C_8  and  C_23
    7  A    between atoms: C_12  and  C_23
    8  A    between atoms: O_16  and  C_27
    9  A    between atoms: C_17  and  C_29
                            x       y       z     vdW  Elec       q    Type
                         _______ _______ _______ _____ _____    ______ ____

>  <TORSDO>
F 9

$$$$
