=
 OpenBabel11062408413D

 55 59  0  0  1  0  0  0  0  0999 V2000
  160.3600  208.6090  152.9150 C   0  0  0  0  0  3  0  0  0  0  0  0
  159.7320  213.2710  152.8250 C   0  0  0  0  0  2  0  0  0  0  0  0
  157.7770  214.4530  150.6160 C   0  0  0  0  0  1  0  0  0  0  0  0
  158.8950  211.6610  155.3120 C   0  0  0  0  0  2  0  0  0  0  0  0
  159.8010  213.4550  156.6490 O   0  0  0  0  0  0  0  0  0  0  0  0
  160.2320  213.6790  148.7830 O   0  0  0  0  0  1  0  0  0  0  0  0
  155.6240  214.4530  155.7710 C   0  0  0  0  0  2  0  0  0  0  0  0
  155.1100  211.5920  154.6100 C   0  0  2  0  0  3  0  0  0  0  0  0
  161.3670  211.7310  149.6650 C   0  0  2  0  0  3  0  0  0  0  0  0
  158.7300  210.7060  150.2140 C   0  0  0  0  0  2  0  0  0  0  0  0
  157.4080  213.0200  156.7920 C   0  0  1  0  0  3  0  0  0  0  0  0
  158.5310  214.0580  156.7700 C   0  0  0  0  0  2  0  0  0  0  0  0
  160.4540  208.7600  156.1690 S   0  0  0  0  0  0  0  0  0  0  0  0
  156.0860  213.7380  157.0300 C   0  0  0  0  0  2  0  0  0  0  0  0
  160.2340  212.7770  149.8500 C   0  0  2  0  0  3  0  0  0  0  0  0
  162.4090  210.2370  154.8100 C   0  0  2  0  0  3  0  0  0  0  0  0
  159.5560  208.8530  151.6820 C   0  0  2  0  0  3  0  0  0  0  0  0
  154.2680  213.9330  155.3170 C   0  0  0  0  0  2  0  0  0  0  0  0
  163.8260  210.7900  154.7740 C   0  0  0  0  0  1  0  0  0  0  0  0
  161.8670  209.2380  149.9580 C   0  0  2  0  0  3  0  0  0  0  0  0
  159.8840  207.8650  150.5980 C   0  0  0  0  0  3  0  0  0  0  0  0
  159.7890  213.8350  154.2390 C   0  0  0  0  0  2  0  0  0  0  0  0
  161.2140  210.4910  150.5850 C   0  0  2  0  0  3  0  0  0  0  0  0
  158.3160  212.8280  152.4800 C   0  0  0  0  0  2  0  0  0  0  0  0
  157.9450  212.9900  151.0000 C   0  0  2  0  0  3  0  0  0  0  0  0
  160.9080  207.4520  154.9890 C   0  0  0  0  0  2  0  0  0  0  0  0
  157.4560  212.1660  155.4990 C   0  0  2  0  0  3  0  0  0  0  0  0
  159.9260  212.8060  155.3930 C   0  0  2  0  0  0  0  0  0  0  0  0
  160.0970  207.6010  153.7440 C   0  0  0  0  0  3  0  0  0  0  0  0
  158.8070  212.2100  149.9910 C   0  0  2  0  0  3  0  0  0  0  0  0
  159.8060  210.2810  151.1940 C   0  0  1  0  0  3  0  0  0  0  0  0
  154.1210  212.4150  155.4540 C   0  0  0  0  0  2  0  0  0  0  0  0
  161.3370  212.2060  155.3540 C   0  0  0  0  0  2  0  0  0  0  0  0
  160.9340  208.0590  149.7930 C   0  0  0  0  0  3  0  0  0  0  0  0
  156.3750  211.0320  155.3390 C   0  0  1  0  0  0  0  0  0  0  0  0
  161.4510  211.1880  154.3850 O   0  0  0  0  0  0  0  0  0  0  0  0
  162.0970  209.5560  156.1490 C   0  0  0  0  0  2  0  0  0  0  0  0
  156.0480  210.3970  156.6820 C   0  0  0  0  0  0  0  0  0  0  0  0
  154.7900  210.5570  157.2580 O   0  0  0  0  0  1  0  0  0  0  0  0
  156.8890  209.6460  157.2490 O   0  0  0  0  0  0  0  0  0  0  0  0
  163.2600  213.2170  148.7620 C   0  0  0  0  0  1  0  0  0  0  0  0
  162.7560  212.3700  149.9200 C   0  0  2  0  0  3  0  0  0  0  0  0
  163.7110  211.3810  150.1640 O   0  0  0  0  0  1  0  0  0  0  0  0
  156.9230  209.9130  154.4190 C   0  0  0  0  0  2  0  0  0  0  0  0
  156.8510  208.5120  155.0190 C   0  0  0  0  0  1  0  0  0  0  0  0
  155.4320  212.2330  153.4010 O   0  0  0  0  0  0  0  0  0  0  0  0
  154.7890  214.0210  152.1190 O   0  0  0  0  0  1  0  0  0  0  0  0
  154.4610  213.2210  153.2160 C   0  0  0  0  0  2  0  0  0  0  0  0
  163.0740  208.8320  150.7930 C   0  0  0  0  0  2  0  0  0  0  0  0
  163.7230  207.5860  150.2170 C   0  0  0  0  0  2  0  0  0  0  0  0
  162.0050  205.9620  149.9390 O   0  0  0  0  0  0  0  0  0  0  0  0
  162.7310  206.8430  149.3980 C   0  0  0  0  0  0  0  0  0  0  0  0
  162.6060  207.1250  148.0050 N   0  0  0  0  0  2  0  0  0  0  0  0
  161.6210  206.4570  147.1710 C   0  0  0  0  0  2  0  0  0  0  0  0
  161.8360  204.9590  147.2380 C   0  0  0  0  0  1  0  0  0  0  0  0
  1 29  2  0  0  0  0
  2 22  1  0  0  0  0
  3 25  1  0  0  0  0
  4 28  1  0  0  0  0
  4 27  1  0  0  0  0
  5 12  1  0  0  0  0
  7 14  1  0  0  0  0
  8 46  1  6  0  0  0
  8 35  1  0  0  0  0
  8 32  1  0  0  0  0
  9 15  1  0  0  0  0
  9 42  1  1  0  0  0
  9 23  1  0  0  0  0
 10 31  1  0  0  0  0
 11 12  1  6  0  0  0
 11 14  1  0  0  0  0
 15  6  1  6  0  0  0
 15 30  1  0  0  0  0
 16 19  1  1  0  0  0
 16 37  1  0  0  0  0
 17 21  1  6  0  0  0
 17  1  1  0  0  0  0
 18 32  1  0  0  0  0
 18  7  1  0  0  0  0
 20 23  1  0  0  0  0
 20 49  1  1  0  0  0
 22 28  1  0  0  0  0
 23 31  1  0  0  0  0
 24  2  1  0  0  0  0
 25 24  1  0  0  0  0
 26 13  1  0  0  0  0
 27 11  1  0  0  0  0
 28  5  1  0  0  0  0
 29 26  1  0  0  0  0
 30 10  1  0  0  0  0
 30 25  1  0  0  0  0
 31 17  1  0  0  0  0
 33 28  1  0  0  0  0
 34 20  1  0  0  0  0
 34 21  2  0  0  0  0
 35 27  1  0  0  0  0
 35 38  1  0  0  0  0
 36 16  1  0  0  0  0
 36 33  1  0  0  0  0
 37 13  1  0  0  0  0
 38 40  2  0  0  0  0
 38 39  1  0  0  0  0
 41 42  1  0  0  0  0
 42 43  1  0  0  0  0
 44 45  1  0  0  0  0
 44 35  1  0  0  0  0
 47 48  1  0  0  0  0
 48 46  1  0  0  0  0
 50 49  1  0  0  0  0
 52 51  2  0  0  0  0
 52 50  1  0  0  0  0
 53 52  1  0  0  0  0
 54 55  1  0  0  0  0
 54 53  1  0  0  0  0
M  END
>  <MODEL>
1

>  <REMARK>
 VINA RESULT:      31.7      0.000      0.000
  Name = 
  9 active torsions:
  status: ('A' for Active; 'I' for Inactive)
    1  A    between atoms: C_1  and  C_53
    2  A    between atoms: C_6  and  C_53
    3  A    between atoms: O_12  and  C_14
    4  A    between atoms: O_12  and  C_38
    5  A    between atoms: C_13  and  C_33
    6  A    between atoms: C_13  and  C_48
    7  A    between atoms: C_16  and  C_17
    8  A    between atoms: C_18  and  N_39
    9  A    between atoms: C_32  and  C_48
                            x       y       z     vdW  Elec       q    Type
                         _______ _______ _______ _____ _____    ______ ____

>  <TORSDO>
F 9

$$$$
