=
 OpenBabel11052423023D

 28 31  0  0  1  0  0  0  0  0999 V2000
  159.8560  208.2830  155.8100 O   0  0  0  0  0  1  0  0  0  0  0  0
  160.8490  209.2210  153.1210 C   0  0  2  0  0  3  0  0  0  0  0  0
  161.4570  207.0530  153.9530 F   0  0  0  0  0  0  0  0  0  0  0  0
  161.2540  210.2830  155.8650 C   0  0  1  0  0  0  0  0  0  0  0  0
  161.0410  210.7170  153.3580 C   0  0  0  0  0  2  0  0  0  0  0  0
  162.6070  210.6290  155.8570 O   0  0  0  0  0  1  0  0  0  0  0  0
  161.1500  208.7660  155.5900 C   0  0  2  0  0  3  0  0  0  0  0  0
  160.7300  210.5940  157.2600 C   0  0  0  0  0  1  0  0  0  0  0  0
  161.6160  208.4110  154.1730 C   0  0  2  0  0  3  0  0  0  0  0  0
  160.5420  211.1140  154.7560 C   0  0  1  0  0  3  0  0  0  0  0  0
  159.0090  211.4460  154.8760 C   0  0  1  0  0  0  0  0  0  0  0  0
  159.7080  213.9480  155.1480 C   0  0  0  0  0  2  0  0  0  0  0  0
  158.7710  212.8230  155.5430 C   0  0  0  0  0  0  0  0  0  0  0  0
  156.6170  213.2190  154.0510 C   0  0  1  0  0  3  0  0  0  0  0  0
  159.7700  213.3530  156.5510 C   0  0  0  0  0  2  0  0  0  0  0  0
  156.8400  211.7950  153.5660 C   0  0  0  0  0  2  0  0  0  0  0  0
  158.3320  211.4820  153.4920 C   0  0  0  0  0  2  0  0  0  0  0  0
  154.8730  213.6630  153.8300 S   0  0  0  0  0  1  0  0  0  0  0  0
  158.3590  210.4710  155.6360 O   0  0  0  0  0  1  0  0  0  0  0  0
  157.0560  213.3720  155.8130 S   0  0  0  0  0  0  0  0  0  0  0  0
  161.8840  209.7970  150.8920 C   0  0  0  0  0  3  0  0  0  0  0  0
  161.0090  207.5630  151.2400 C   0  0  0  0  0  0  0  0  0  0  0  0
  162.0070  208.1590  149.1150 C   0  0  0  0  0  0  0  0  0  0  0  0
  161.2600  208.8560  151.7260 C   0  0  0  0  0  0  0  0  0  0  0  0
  161.3830  207.2180  149.9390 C   0  0  0  0  0  3  0  0  0  0  0  0
  160.4030  206.6370  152.0260 F   0  0  0  0  0  0  0  0  0  0  0  0
  162.3680  207.8210  147.8540 F   0  0  0  0  0  0  0  0  0  0  0  0
  162.2570  209.4490  149.5910 C   0  0  0  0  0  3  0  0  0  0  0  0
  2 24  1  6  0  0  0
  2  5  1  0  0  0  0
  2  9  1  0  0  0  0
  4  8  1  1  0  0  0
  6  4  1  0  0  0  0
  7  1  1  6  0  0  0
  7  4  1  0  0  0  0
  9  3  1  6  0  0  0
  9  7  1  0  0  0  0
 10  5  1  6  0  0  0
 10 11  1  0  0  0  0
 10  4  1  0  0  0  0
 11 13  1  0  0  0  0
 11 19  1  1  0  0  0
 12 13  1  0  0  0  0
 12 15  1  0  0  0  0
 13 20  1  0  0  0  0
 13 15  1  0  0  0  0
 14 18  1  1  0  0  0
 14 20  1  0  0  0  0
 16 14  1  0  0  0  0
 17 16  1  0  0  0  0
 17 11  1  0  0  0  0
 21 24  1  0  0  0  0
 22 24  2  0  0  0  0
 22 26  1  0  0  0  0
 23 28  1  0  0  0  0
 23 25  2  0  0  0  0
 25 22  1  0  0  0  0
 27 23  1  0  0  0  0
 28 21  2  0  0  0  0
M  END
>  <MODEL>
1

>  <REMARK>
 VINA RESULT:      -5.9      0.000      0.000
  Name = 
  2 active torsions:
  status: ('A' for Active; 'I' for Inactive)
    1  A    between atoms: C_1  and  C_27
    2  A    between atoms: C_10  and  C_13
                            x       y       z     vdW  Elec       q    Type
                         _______ _______ _______ _____ _____    ______ ____

>  <TORSDO>
F 2

$$$$
=
 OpenBabel11052423023D

 28 31  0  0  1  0  0  0  0  0999 V2000
  162.1660  211.4130  155.6940 O   0  0  0  0  0  1  0  0  0  0  0  0
  159.2590  211.3710  154.8930 C   0  0  2  0  0  3  0  0  0  0  0  0
  160.0690  213.0100  156.4480 F   0  0  0  0  0  0  0  0  0  0  0  0
  160.9660  209.3650  156.2640 C   0  0  1  0  0  0  0  0  0  0  0  0
  158.9980  209.8770  154.7200 C   0  0  0  0  0  2  0  0  0  0  0  0
  160.1170  208.8790  157.2610 O   0  0  0  0  0  1  0  0  0  0  0  0
  161.1520  210.8810  156.4960 C   0  0  2  0  0  3  0  0  0  0  0  0
  162.2990  208.6480  156.4340 C   0  0  0  0  0  1  0  0  0  0  0  0
  159.8450  211.6540  156.2810 C   0  0  2  0  0  3  0  0  0  0  0  0
  160.3000  209.0760  154.8870 C   0  0  1  0  0  3  0  0  0  0  0  0
  161.1850  208.9170  153.5950 C   0  0  1  0  0  0  0  0  0  0  0  0
  160.2210  206.4980  153.3940 C   0  0  0  0  0  2  0  0  0  0  0  0
  161.4070  207.4270  153.2330 C   0  0  0  0  0  0  0  0  0  0  0  0
  161.4230  208.0170  150.6490 C   0  0  1  0  0  3  0  0  0  0  0  0
  161.4210  206.3810  154.3280 C   0  0  0  0  0  2  0  0  0  0  0  0
  161.3610  209.4670  151.1030 C   0  0  0  0  0  2  0  0  0  0  0  0
  160.5280  209.5940  152.3770 C   0  0  0  0  0  2  0  0  0  0  0  0
  162.1420  207.9390  148.9870 S   0  0  0  0  0  1  0  0  0  0  0  0
  162.4330  209.5140  153.7860 O   0  0  0  0  0  1  0  0  0  0  0  0
  162.4460  207.0310  151.7910 S   0  0  0  0  0  0  0  0  0  0  0  0
  156.9390  212.1090  155.5610 C   0  0  0  0  0  3  0  0  0  0  0  0
  157.8810  212.9280  153.4820 C   0  0  0  0  0  0  0  0  0  0  0  0
  155.6570  213.6080  154.1600 C   0  0  0  0  0  0  0  0  0  0  0  0
  158.0030  212.1520  154.6460 C   0  0  0  0  0  0  0  0  0  0  0  0
  156.7100  213.6530  153.2430 C   0  0  0  0  0  3  0  0  0  0  0  0
  158.8930  212.9820  152.5800 F   0  0  0  0  0  0  0  0  0  0  0  0
  154.5240  214.3130  153.9250 F   0  0  0  0  0  0  0  0  0  0  0  0
  155.7710  212.8360  155.3190 C   0  0  0  0  0  3  0  0  0  0  0  0
  2 24  1  1  0  0  0
  2  9  1  0  0  0  0
  4  8  1  1  0  0  0
  4  7  1  0  0  0  0
  4  6  1  0  0  0  0
  5  2  1  0  0  0  0
  7  1  1  6  0  0  0
  9  3  1  6  0  0  0
  9  7  1  0  0  0  0
 10  5  1  6  0  0  0
 10  4  1  0  0  0  0
 11 19  1  1  0  0  0
 11 10  1  0  0  0  0
 12 15  1  0  0  0  0
 13 12  1  0  0  0  0
 13 11  1  0  0  0  0
 13 15  1  0  0  0  0
 14 18  1  6  0  0  0
 14 16  1  0  0  0  0
 14 20  1  0  0  0  0
 16 17  1  0  0  0  0
 17 11  1  0  0  0  0
 20 13  1  0  0  0  0
 22 24  1  0  0  0  0
 23 28  2  0  0  0  0
 24 21  2  0  0  0  0
 25 22  2  0  0  0  0
 25 23  1  0  0  0  0
 26 22  1  0  0  0  0
 27 23  1  0  0  0  0
 28 21  1  0  0  0  0
M  END
>  <MODEL>
2

>  <REMARK>
 VINA RESULT:      -5.0      3.856      6.479
  Name = 
  2 active torsions:
  status: ('A' for Active; 'I' for Inactive)
    1  A    between atoms: C_1  and  C_27
    2  A    between atoms: C_10  and  C_13
                            x       y       z     vdW  Elec       q    Type
                         _______ _______ _______ _____ _____    ______ ____

>  <TORSDO>
F 2

$$$$
=
 OpenBabel11052423023D

 28 31  0  0  1  0  0  0  0  0999 V2000
  160.4990  209.1840  157.2610 O   0  0  0  0  0  1  0  0  0  0  0  0
  160.9620  208.5710  154.3440 C   0  0  2  0  0  3  0  0  0  0  0  0
  161.5410  206.9650  156.0320 F   0  0  0  0  0  0  0  0  0  0  0  0
  162.0460  210.6890  156.1220 C   0  0  1  0  0  0  0  0  0  0  0  0
  161.3330  209.9430  153.7860 C   0  0  0  0  0  2  0  0  0  0  0  0
  163.3900  210.7380  155.7450 O   0  0  0  0  0  1  0  0  0  0  0  0
  161.7510  209.2650  156.6440 C   0  0  2  0  0  3  0  0  0  0  0  0
  161.8670  211.7010  157.2450 C   0  0  0  0  0  1  0  0  0  0  0  0
  161.8640  208.2150  155.5320 C   0  0  2  0  0  3  0  0  0  0  0  0
  161.1870  211.0260  154.8670 C   0  0  1  0  0  3  0  0  0  0  0  0
  159.7510  211.6490  155.0330 C   0  0  1  0  0  0  0  0  0  0  0  0
  159.4540  211.3180  152.4600 C   0  0  0  0  0  2  0  0  0  0  0  0
  159.1940  212.1710  153.6850 C   0  0  0  0  0  0  0  0  0  0  0  0
  156.7280  211.5250  154.4110 C   0  0  1  0  0  3  0  0  0  0  0  0
  160.1470  212.6680  152.6190 C   0  0  0  0  0  2  0  0  0  0  0  0
  157.3430  211.1840  155.7590 C   0  0  0  0  0  2  0  0  0  0  0  0
  158.7480  210.6140  155.5780 C   0  0  0  0  0  2  0  0  0  0  0  0
  154.9670  211.8970  154.6320 S   0  0  0  0  0  1  0  0  0  0  0  0
  159.7880  212.7150  155.9350 O   0  0  0  0  0  1  0  0  0  0  0  0
  157.5580  212.9710  153.6750 S   0  0  0  0  0  0  0  0  0  0  0  0
  160.9600  206.1660  153.5770 C   0  0  0  0  0  3  0  0  0  0  0  0
  161.1630  207.9280  151.9230 C   0  0  0  0  0  0  0  0  0  0  0  0
  161.1600  205.6070  151.2310 C   0  0  0  0  0  0  0  0  0  0  0  0
  161.0250  207.5330  153.2630 C   0  0  0  0  0  0  0  0  0  0  0  0
  161.2290  206.9660  150.9120 C   0  0  0  0  0  3  0  0  0  0  0  0
  161.2330  209.2430  151.5960 F   0  0  0  0  0  0  0  0  0  0  0  0
  161.2250  204.6770  150.2480 F   0  0  0  0  0  0  0  0  0  0  0  0
  161.0260  205.2070  152.5630 C   0  0  0  0  0  3  0  0  0  0  0  0
  2 24  1  6  0  0  0
  2  9  1  0  0  0  0
  4  7  1  0  0  0  0
  4  8  1  1  0  0  0
  5  2  1  0  0  0  0
  6  4  1  0  0  0  0
  7  1  1  6  0  0  0
  9  3  1  1  0  0  0
  9  7  1  0  0  0  0
 10  5  1  1  0  0  0
 10 11  1  0  0  0  0
 10  4  1  0  0  0  0
 11 17  1  0  0  0  0
 11 19  1  1  0  0  0
 12 15  1  0  0  0  0
 12 13  1  0  0  0  0
 13 11  1  0  0  0  0
 14 18  1  1  0  0  0
 14 16  1  0  0  0  0
 15 13  1  0  0  0  0
 17 16  1  0  0  0  0
 20 13  1  0  0  0  0
 20 14  1  0  0  0  0
 22 24  2  0  0  0  0
 23 28  1  0  0  0  0
 24 21  1  0  0  0  0
 25 23  2  0  0  0  0
 25 22  1  0  0  0  0
 26 22  1  0  0  0  0
 27 23  1  0  0  0  0
 28 21  2  0  0  0  0
M  END
>  <MODEL>
3

>  <REMARK>
 VINA RESULT:      -4.6      1.857      2.499
  Name = 
  2 active torsions:
  status: ('A' for Active; 'I' for Inactive)
    1  A    between atoms: C_1  and  C_27
    2  A    between atoms: C_10  and  C_13
                            x       y       z     vdW  Elec       q    Type
                         _______ _______ _______ _____ _____    ______ ____

>  <TORSDO>
F 2

$$$$
=
 OpenBabel11052423023D

 28 31  0  0  1  0  0  0  0  0999 V2000
  159.3490  208.5760  154.5510 O   0  0  0  0  0  1  0  0  0  0  0  0
  160.5460  210.6800  152.7520 C   0  0  2  0  0  3  0  0  0  0  0  0
  160.9040  208.3490  152.3040 F   0  0  0  0  0  0  0  0  0  0  0  0
  160.9290  210.0870  155.6360 C   0  0  1  0  0  0  0  0  0  0  0  0
  160.8710  211.7970  153.7410 C   0  0  0  0  0  2  0  0  0  0  0  0
  162.3080  210.2410  155.7940 O   0  0  0  0  0  1  0  0  0  0  0  0
  160.6910  208.9640  154.6030 C   0  0  2  0  0  3  0  0  0  0  0  0
  160.3750  209.6700  156.9920 C   0  0  0  0  0  1  0  0  0  0  0  0
  161.1830  209.3610  153.2060 C   0  0  2  0  0  3  0  0  0  0  0  0
  160.3500  211.4470  155.1440 C   0  0  1  0  0  3  0  0  0  0  0  0
  158.8520  211.8270  155.4410 C   0  0  1  0  0  0  0  0  0  0  0  0
  159.7040  214.2420  155.9520 C   0  0  0  0  0  2  0  0  0  0  0  0
  158.7460  213.1170  156.2910 C   0  0  0  0  0  0  0  0  0  0  0  0
  156.4970  213.7890  155.0590 C   0  0  1  0  0  3  0  0  0  0  0  0
  159.8530  213.4730  157.2610 C   0  0  0  0  0  2  0  0  0  0  0  0
  156.6020  212.4290  154.3860 C   0  0  0  0  0  2  0  0  0  0  0  0
  158.0640  212.0650  154.1390 C   0  0  0  0  0  2  0  0  0  0  0  0
  154.7670  214.3290  155.0530 S   0  0  0  0  0  1  0  0  0  0  0  0
  158.2190  210.7910  156.1330 O   0  0  0  0  0  1  0  0  0  0  0  0
  157.0910  213.6990  156.7800 S   0  0  0  0  0  0  0  0  0  0  0  0
  161.9300  210.2950  150.6750 C   0  0  0  0  0  3  0  0  0  0  0  0
  160.4440  212.2100  150.7610 C   0  0  0  0  0  0  0  0  0  0  0  0
  161.7930  211.8050  148.7900 C   0  0  0  0  0  0  0  0  0  0  0  0
  160.9810  211.0630  151.3680 C   0  0  0  0  0  0  0  0  0  0  0  0
  160.8500  212.5770  149.4750 C   0  0  0  0  0  3  0  0  0  0  0  0
  159.5300  212.9710  151.4130 F   0  0  0  0  0  0  0  0  0  0  0  0
  162.1830  212.1630  147.5430 F   0  0  0  0  0  0  0  0  0  0  0  0
  162.3330  210.6640  149.3900 C   0  0  0  0  0  3  0  0  0  0  0  0
  2 24  1  6  0  0  0
  2  9  1  0  0  0  0
  2  5  1  0  0  0  0
  4  6  1  0  0  0  0
  4  8  1  1  0  0  0
  7  1  1  6  0  0  0
  7  4  1  0  0  0  0
  9  3  1  6  0  0  0
  9  7  1  0  0  0  0
 10  5  1  6  0  0  0
 10 11  1  0  0  0  0
 10  4  1  0  0  0  0
 11 19  1  1  0  0  0
 11 13  1  0  0  0  0
 12 13  1  0  0  0  0
 12 15  1  0  0  0  0
 13 20  1  0  0  0  0
 13 15  1  0  0  0  0
 14 18  1  1  0  0  0
 14 20  1  0  0  0  0
 16 14  1  0  0  0  0
 17 16  1  0  0  0  0
 17 11  1  0  0  0  0
 21 24  1  0  0  0  0
 22 24  2  0  0  0  0
 22 26  1  0  0  0  0
 23 28  1  0  0  0  0
 23 25  2  0  0  0  0
 25 22  1  0  0  0  0
 27 23  1  0  0  0  0
 28 21  2  0  0  0  0
M  END
>  <MODEL>
4

>  <REMARK>
 VINA RESULT:      -4.0      1.971      2.363
  Name = 
  2 active torsions:
  status: ('A' for Active; 'I' for Inactive)
    1  A    between atoms: C_1  and  C_27
    2  A    between atoms: C_10  and  C_13
                            x       y       z     vdW  Elec       q    Type
                         _______ _______ _______ _____ _____    ______ ____

>  <TORSDO>
F 2

$$$$
