=
 OpenBabel11062410523D

 32 38  0  0  0  0  0  0  0  0999 V2000
  161.1570  202.0390  148.7450 N   0  0  0  0  0  0  0  0  0  0  0  0
  161.2430  206.2050  151.7340 C   0  0  0  0  0  0  0  0  0  0  0  0
  162.0840  209.8480  148.5830 C   0  0  0  0  0  3  0  0  0  0  0  0
  161.9620  210.7750  149.6160 C   0  0  0  0  0  3  0  0  0  0  0  0
  160.8370  206.7430  154.1350 C   0  0  0  0  0  0  0  0  0  0  0  0
  160.7200  207.7140  155.1310 C   0  0  0  0  0  0  0  0  0  0  0  0
  161.2410  203.8990  150.9190 C   0  0  0  0  0  0  0  0  0  0  0  0
  161.6360  205.7140  149.3750 C   0  0  0  0  0  3  0  0  0  0  0  0
  160.7200  209.8970  155.9690 N   0  0  0  0  0  0  0  0  0  0  0  0
  161.6920  203.3810  148.4800 C   0  0  0  0  0  2  0  0  0  0  0  0
  161.9360  208.4870  148.8470 C   0  0  0  0  0  3  0  0  0  0  0  0
  161.5140  206.6540  150.4150 C   0  0  0  0  0  0  0  0  0  0  0  0
  161.6630  208.0290  150.1500 C   0  0  0  0  0  0  0  0  0  0  0  0
  161.2650  208.5330  152.5120 C   0  0  0  0  0  0  0  0  0  0  0  0
  160.4350  209.1920  157.2100 C   0  0  0  0  0  2  0  0  0  0  0  0
  161.5600  201.5620  150.0760 C   0  0  0  0  0  2  0  0  0  0  0  0
  161.4860  204.3490  149.6150 C   0  0  0  0  0  0  0  0  0  0  0  0
  160.3770  207.3840  156.8530 S   0  0  0  0  0  0  0  0  0  0  0  0
  161.0200  202.4470  151.2040 C   0  0  0  0  0  2  0  0  0  0  0  0
  161.6920  210.3390  150.9140 C   0  0  0  0  0  3  0  0  0  0  0  0
  161.5390  208.9700  151.2010 C   0  0  0  0  0  0  0  0  0  0  0  0
  161.1400  209.4740  153.5530 C   0  0  0  0  0  3  0  0  0  0  0  0
  161.1070  204.8220  151.9550 C   0  0  0  0  0  3  0  0  0  0  0  0
  160.6790  205.4420  154.4890 F   0  0  0  0  0  0  0  0  0  0  0  0
  160.8320  211.3450  155.9110 C   0  0  0  0  0  1  0  0  0  0  0  0
  161.1130  207.1410  152.7940 C   0  0  0  0  0  0  0  0  0  0  0  0
  160.8680  209.0440  154.8470 C   0  0  0  0  0  0  0  0  0  0  0  0
  159.7030  202.0570  148.6150 C   0  0  0  0  0  2  0  0  0  0  0  0
  159.3010  201.5470  147.2430 C   0  0  0  0  0  2  0  0  0  0  0  0
  160.5350  201.3910  146.3790 C   0  0  0  0  0  3  0  0  0  0  0  0
  160.4860  202.4120  145.2610 C   0  0  0  0  0  2  0  0  0  0  0  0
  160.1170  200.9700  144.9850 C   0  0  0  0  0  2  0  0  0  0  0  0
  1 16  1  0  0  0  0
  2 23  1  0  0  0  0
  2 26  1  0  0  0  0
  3 11  2  0  0  0  0
  3  4  1  0  0  0  0
  4 20  2  0  0  0  0
  5 24  1  0  0  0  0
  5  6  1  0  0  0  0
  6 18  1  0  0  0  0
  7 19  1  0  0  0  0
  7 23  2  0  0  0  0
  8 17  2  0  0  0  0
  8 12  1  0  0  0  0
  9 15  1  0  0  0  0
 10  1  1  0  0  0  0
 10 17  1  0  0  0  0
 11 13  1  0  0  0  0
 12  2  2  0  0  0  0
 13 12  1  0  0  0  0
 13 21  2  0  0  0  0
 14 26  1  0  0  0  0
 14 22  2  0  0  0  0
 16 19  1  0  0  0  0
 17  7  1  0  0  0  0
 18 15  1  0  0  0  0
 20 21  1  0  0  0  0
 21 14  1  0  0  0  0
 22 27  1  0  0  0  0
 25  9  1  0  0  0  0
 26  5  2  0  0  0  0
 27  6  2  0  0  0  0
 27  9  1  0  0  0  0
 28  1  1  0  0  0  0
 29 28  1  0  0  0  0
 30 29  1  0  0  0  0
 31 30  1  0  0  0  0
 32 31  1  0  0  0  0
 32 30  1  0  0  0  0
M  END
>  <MODEL>
1

>  <REMARK>
 VINA RESULT:      -9.0      0.000      0.000
  Name = 
  3 active torsions:
  status: ('A' for Active; 'I' for Inactive)
    1  A    between atoms: C_1  and  C_10
    2  A    between atoms: N_2  and  C_24
    3  A    between atoms: C_10  and  C_24
                            x       y       z     vdW  Elec       q    Type
                         _______ _______ _______ _____ _____    ______ ____

>  <TORSDO>
F 3

$$$$
=
 OpenBabel11062410523D

 32 38  0  0  0  0  0  0  0  0999 V2000
  161.6370  212.8170  149.3580 N   0  0  0  0  0  0  0  0  0  0  0  0
  161.5190  207.6910  149.3420 C   0  0  0  0  0  0  0  0  0  0  0  0
  161.0980  206.5490  154.0780 C   0  0  0  0  0  3  0  0  0  0  0  0
  161.0040  205.1980  153.7470 C   0  0  0  0  0  3  0  0  0  0  0  0
  161.4700  205.8660  147.6420 C   0  0  0  0  0  0  0  0  0  0  0  0
  161.3640  204.5020  147.3670 C   0  0  0  0  0  0  0  0  0  0  0  0
  161.7820  210.0360  148.6990 C   0  0  0  0  0  0  0  0  0  0  0  0
  161.5550  209.4520  151.0320 C   0  0  0  0  0  3  0  0  0  0  0  0
  161.1250  202.2440  147.9230 N   0  0  0  0  0  0  0  0  0  0  0  0
  161.8640  211.8640  150.4520 C   0  0  0  0  0  2  0  0  0  0  0  0
  161.2480  207.5030  153.0720 C   0  0  0  0  0  3  0  0  0  0  0  0
  161.4580  208.0870  150.7040 C   0  0  0  0  0  0  0  0  0  0  0  0
  161.3060  207.1230  151.7180 C   0  0  0  0  0  0  0  0  0  0  0  0
  161.2640  205.3480  150.0320 C   0  0  0  0  0  0  0  0  0  0  0  0
  161.2040  202.1000  146.4770 C   0  0  0  0  0  2  0  0  0  0  0  0
  162.3560  212.4090  148.1420 C   0  0  0  0  0  2  0  0  0  0  0  0
  161.6990  210.4240  150.0430 C   0  0  0  0  0  0  0  0  0  0  0  0
  161.4080  203.7760  145.7360 S   0  0  0  0  0  0  0  0  0  0  0  0
  161.8810  211.0540  147.6070 C   0  0  0  0  0  2  0  0  0  0  0  0
  161.0590  204.8030  152.4110 C   0  0  0  0  0  3  0  0  0  0  0  0
  161.2100  205.7510  151.3810 C   0  0  0  0  0  0  0  0  0  0  0  0
  161.1640  203.9820  149.7020 C   0  0  0  0  0  3  0  0  0  0  0  0
  161.6760  208.6870  148.3610 C   0  0  0  0  0  3  0  0  0  0  0  0
  161.6160  206.7200  146.5970 F   0  0  0  0  0  0  0  0  0  0  0  0
  160.9630  201.1000  148.8050 C   0  0  0  0  0  1  0  0  0  0  0  0
  161.4190  206.3170  148.9940 C   0  0  0  0  0  0  0  0  0  0  0  0
  161.2160  203.5850  148.3710 C   0  0  0  0  0  0  0  0  0  0  0  0
  160.2040  212.9370  149.1020 C   0  0  0  0  0  2  0  0  0  0  0  0
  159.5690  213.8470  150.1360 C   0  0  0  0  0  2  0  0  0  0  0  0
  158.2080  213.3080  150.5210 C   0  0  0  0  0  3  0  0  0  0  0  0
  157.3010  213.3450  149.3080 C   0  0  0  0  0  2  0  0  0  0  0  0
  157.1770  214.4080  150.3790 C   0  0  0  0  0  2  0  0  0  0  0  0
  1 10  1  0  0  0  0
  2 12  1  0  0  0  0
  4  3  1  0  0  0  0
  5 26  1  0  0  0  0
  6  5  2  0  0  0  0
  6 27  1  0  0  0  0
  7 17  1  0  0  0  0
  9 27  1  0  0  0  0
  9 25  1  0  0  0  0
 11  3  2  0  0  0  0
 12  8  1  0  0  0  0
 12 13  2  0  0  0  0
 13 11  1  0  0  0  0
 14 21  2  0  0  0  0
 15  9  1  0  0  0  0
 16  1  1  0  0  0  0
 17 10  1  0  0  0  0
 17  8  2  0  0  0  0
 18 15  1  0  0  0  0
 18  6  1  0  0  0  0
 19 16  1  0  0  0  0
 19  7  1  0  0  0  0
 20  4  2  0  0  0  0
 21 13  1  0  0  0  0
 21 20  1  0  0  0  0
 22 14  1  0  0  0  0
 23  7  2  0  0  0  0
 23  2  1  0  0  0  0
 24  5  1  0  0  0  0
 26  2  2  0  0  0  0
 26 14  1  0  0  0  0
 27 22  2  0  0  0  0
 28  1  1  0  0  0  0
 28 29  1  0  0  0  0
 29 30  1  0  0  0  0
 31 32  1  0  0  0  0
 31 30  1  0  0  0  0
 32 30  1  0  0  0  0
M  END
>  <MODEL>
2

>  <REMARK>
 VINA RESULT:      -9.0      3.502      8.683
  Name = 
  3 active torsions:
  status: ('A' for Active; 'I' for Inactive)
    1  A    between atoms: C_1  and  C_10
    2  A    between atoms: N_2  and  C_24
    3  A    between atoms: C_10  and  C_24
                            x       y       z     vdW  Elec       q    Type
                         _______ _______ _______ _____ _____    ______ ____

>  <TORSDO>
F 3

$$$$
=
 OpenBabel11062410523D

 32 38  0  0  0  0  0  0  0  0999 V2000
  161.1650  209.7710  154.1060 N   0  0  0  0  0  0  0  0  0  0  0  0
  161.1670  206.4380  150.2090 C   0  0  0  0  0  0  0  0  0  0  0  0
  160.9920  202.0870  152.4340 C   0  0  0  0  0  3  0  0  0  0  0  0
  160.9140  201.4530  151.1950 C   0  0  0  0  0  3  0  0  0  0  0  0
  161.0830  206.5350  147.7180 C   0  0  0  0  0  0  0  0  0  0  0  0
  160.9970  205.8490  146.5050 C   0  0  0  0  0  0  0  0  0  0  0  0
  161.3460  208.4650  151.5650 C   0  0  0  0  0  0  0  0  0  0  0  0
  161.2390  206.3070  152.6450 C   0  0  0  0  0  3  0  0  0  0  0  0
  160.8370  203.9450  145.1570 N   0  0  0  0  0  0  0  0  0  0  0  0
  161.4650  208.3330  154.0930 C   0  0  0  0  0  2  0  0  0  0  0  0
  161.0730  203.4780  152.5000 C   0  0  0  0  0  3  0  0  0  0  0  0
  161.1600  205.6620  151.3980 C   0  0  0  0  0  0  0  0  0  0  0  0
  161.0770  204.2580  151.3290 C   0  0  0  0  0  0  0  0  0  0  0  0
  161.0000  204.3770  148.8850 C   0  0  0  0  0  0  0  0  0  0  0  0
  160.8530  204.9510  144.1060 C   0  0  0  0  0  2  0  0  0  0  0  0
  161.8370  210.4620  152.9960 C   0  0  0  0  0  2  0  0  0  0  0  0
  161.3150  207.6970  152.7370 C   0  0  0  0  0  0  0  0  0  0  0  0
  160.9830  206.6130  144.8910 S   0  0  0  0  0  0  0  0  0  0  0  0
  161.3700  209.9600  151.6250 C   0  0  0  0  0  2  0  0  0  0  0  0
  160.9170  202.2110  150.0240 C   0  0  0  0  0  3  0  0  0  0  0  0
  160.9980  203.6150  150.0700 C   0  0  0  0  0  0  0  0  0  0  0  0
  160.9170  203.7320  147.6350 C   0  0  0  0  0  3  0  0  0  0  0  0
  161.2560  207.8380  150.3240 C   0  0  0  0  0  3  0  0  0  0  0  0
  161.1610  207.8890  147.6830 F   0  0  0  0  0  0  0  0  0  0  0  0
  160.7420  202.5240  144.8670 C   0  0  0  0  0  1  0  0  0  0  0  0
  161.0840  205.8020  148.9410 C   0  0  0  0  0  0  0  0  0  0  0  0
  160.9170  204.4840  146.4660 C   0  0  0  0  0  0  0  0  0  0  0  0
  159.7200  209.9700  154.0470 C   0  0  0  0  0  2  0  0  0  0  0  0
  159.3870  211.4200  154.3450 C   0  0  0  0  0  2  0  0  0  0  0  0
  158.1790  211.8400  153.5340 C   0  0  0  0  0  3  0  0  0  0  0  0
  158.6480  212.4420  152.2260 C   0  0  0  0  0  2  0  0  0  0  0  0
  158.1970  213.3450  153.3550 C   0  0  0  0  0  2  0  0  0  0  0  0
  2 23  2  0  0  0  0
  2 12  1  0  0  0  0
  3 11  1  0  0  0  0
  4  3  2  0  0  0  0
  5 26  1  0  0  0  0
  6  5  2  0  0  0  0
  7 19  1  0  0  0  0
  7 17  2  0  0  0  0
  8 17  1  0  0  0  0
  9 27  1  0  0  0  0
 10  1  1  0  0  0  0
 12  8  2  0  0  0  0
 13 12  1  0  0  0  0
 13 11  2  0  0  0  0
 14 26  2  0  0  0  0
 14 21  1  0  0  0  0
 15 18  1  0  0  0  0
 15  9  1  0  0  0  0
 16  1  1  0  0  0  0
 17 10  1  0  0  0  0
 18  6  1  0  0  0  0
 19 16  1  0  0  0  0
 20 21  2  0  0  0  0
 20  4  1  0  0  0  0
 21 13  1  0  0  0  0
 22 14  1  0  0  0  0
 23  7  1  0  0  0  0
 24  5  1  0  0  0  0
 25  9  1  0  0  0  0
 26  2  1  0  0  0  0
 27  6  1  0  0  0  0
 27 22  2  0  0  0  0
 28  1  1  0  0  0  0
 28 29  1  0  0  0  0
 30 29  1  0  0  0  0
 31 32  1  0  0  0  0
 31 30  1  0  0  0  0
 32 30  1  0  0  0  0
M  END
>  <MODEL>
3

>  <REMARK>
 VINA RESULT:      -8.0      3.122      8.888
  Name = 
  3 active torsions:
  status: ('A' for Active; 'I' for Inactive)
    1  A    between atoms: C_1  and  C_10
    2  A    between atoms: N_2  and  C_24
    3  A    between atoms: C_10  and  C_24
                            x       y       z     vdW  Elec       q    Type
                         _______ _______ _______ _____ _____    ______ ____

>  <TORSDO>
F 3

$$$$
=
 OpenBabel11062410523D

 32 38  0  0  0  0  0  0  0  0999 V2000
  161.5780  203.0240  150.1920 N   0  0  0  0  0  0  0  0  0  0  0  0
  161.0910  207.6040  152.4470 C   0  0  0  0  0  0  0  0  0  0  0  0
  162.0080  210.7580  148.8250 C   0  0  0  0  0  3  0  0  0  0  0  0
  161.7230  211.8240  149.6760 C   0  0  0  0  0  3  0  0  0  0  0  0
  160.4110  208.4810  154.6800 C   0  0  0  0  0  0  0  0  0  0  0  0
  160.1310  209.5840  155.4880 C   0  0  0  0  0  0  0  0  0  0  0  0
  161.3210  205.2060  152.0270 C   0  0  0  0  0  0  0  0  0  0  0  0
  161.7520  206.7800  150.2460 C   0  0  0  0  0  3  0  0  0  0  0  0
  159.9040  211.8650  155.9500 N   0  0  0  0  0  0  0  0  0  0  0  0
  162.0490  204.3460  149.7580 C   0  0  0  0  0  2  0  0  0  0  0  0
  161.9230  209.4490  149.2960 C   0  0  0  0  0  3  0  0  0  0  0  0
  161.4650  207.8590  151.1010 C   0  0  0  0  0  0  0  0  0  0  0  0
  161.5500  209.1820  150.6270 C   0  0  0  0  0  0  0  0  0  0  0  0
  160.8840  210.0200  152.8290 C   0  0  0  0  0  0  0  0  0  0  0  0
  159.5410  211.3450  157.2600 C   0  0  0  0  0  2  0  0  0  0  0  0
  161.8740  202.7980  151.6140 C   0  0  0  0  0  2  0  0  0  0  0  0
  161.6670  205.4620  150.6940 C   0  0  0  0  0  0  0  0  0  0  0  0
  159.6370  209.5050  157.2030 S   0  0  0  0  0  0  0  0  0  0  0  0
  161.1670  203.8040  152.5280 C   0  0  0  0  0  2  0  0  0  0  0  0
  161.3520  211.5790  150.9990 C   0  0  0  0  0  3  0  0  0  0  0  0
  161.2600  210.2640  151.4930 C   0  0  0  0  0  0  0  0  0  0  0  0
  160.5930  211.1010  153.6850 C   0  0  0  0  0  3  0  0  0  0  0  0
  161.0230  206.2670  152.8800 C   0  0  0  0  0  3  0  0  0  0  0  0
  160.3020  207.2430  155.2280 F   0  0  0  0  0  0  0  0  0  0  0  0
  159.9280  213.2900  155.6640 C   0  0  0  0  0  1  0  0  0  0  0  0
  160.7950  208.6820  153.3220 C   0  0  0  0  0  0  0  0  0  0  0  0
  160.2200  210.8600  155.0030 C   0  0  0  0  0  0  0  0  0  0  0  0
  160.1460  202.9050  149.9310 C   0  0  0  0  0  2  0  0  0  0  0  0
  159.9040  201.8690  148.8490 C   0  0  0  0  0  2  0  0  0  0  0  0
  161.1630  201.6880  148.0290 C   0  0  0  0  0  3  0  0  0  0  0  0
  160.7790  201.3520  146.6020 C   0  0  0  0  0  2  0  0  0  0  0  0
  161.2390  200.2560  147.5400 C   0  0  0  0  0  2  0  0  0  0  0  0
  1 16  1  0  0  0  0
  2 23  1  0  0  0  0
  2 26  1  0  0  0  0
  3 11  2  0  0  0  0
  3  4  1  0  0  0  0
  4 20  2  0  0  0  0
  5 24  1  0  0  0  0
  5  6  1  0  0  0  0
  6 18  1  0  0  0  0
  7 19  1  0  0  0  0
  7 23  2  0  0  0  0
  8 17  2  0  0  0  0
  8 12  1  0  0  0  0
  9 15  1  0  0  0  0
 10  1  1  0  0  0  0
 10 17  1  0  0  0  0
 11 13  1  0  0  0  0
 12  2  2  0  0  0  0
 13 12  1  0  0  0  0
 13 21  2  0  0  0  0
 14 26  1  0  0  0  0
 14 22  2  0  0  0  0
 16 19  1  0  0  0  0
 17  7  1  0  0  0  0
 18 15  1  0  0  0  0
 20 21  1  0  0  0  0
 21 14  1  0  0  0  0
 22 27  1  0  0  0  0
 25  9  1  0  0  0  0
 26  5  2  0  0  0  0
 27  6  2  0  0  0  0
 27  9  1  0  0  0  0
 28  1  1  0  0  0  0
 29 28  1  0  0  0  0
 30 29  1  0  0  0  0
 31 32  1  0  0  0  0
 31 30  1  0  0  0  0
 32 30  1  0  0  0  0
M  END
>  <MODEL>
4

>  <REMARK>
 VINA RESULT:      -7.2      1.292      1.766
  Name = 
  3 active torsions:
  status: ('A' for Active; 'I' for Inactive)
    1  A    between atoms: C_1  and  C_10
    2  A    between atoms: N_2  and  C_24
    3  A    between atoms: C_10  and  C_24
                            x       y       z     vdW  Elec       q    Type
                         _______ _______ _______ _____ _____    ______ ____

>  <TORSDO>
F 3

$$$$
=
 OpenBabel11062410523D

 32 38  0  0  0  0  0  0  0  0999 V2000
  161.9080  204.3790  145.9880 N   0  0  0  0  0  0  0  0  0  0  0  0
  161.5270  207.4460  150.0800 C   0  0  0  0  0  0  0  0  0  0  0  0
  162.0610  211.9260  148.1960 C   0  0  0  0  0  3  0  0  0  0  0  0
  161.8300  212.4860  149.4520 C   0  0  0  0  0  3  0  0  0  0  0  0
  161.0260  207.2010  152.5110 C   0  0  0  0  0  0  0  0  0  0  0  0
  160.7960  207.8130  153.7440 C   0  0  0  0  0  0  0  0  0  0  0  0
  161.7680  205.5000  148.6180 C   0  0  0  0  0  0  0  0  0  0  0  0
  162.0100  207.7230  147.7030 C   0  0  0  0  0  3  0  0  0  0  0  0
  160.5650  209.6350  155.1910 N   0  0  0  0  0  0  0  0  0  0  0  0
  162.3130  205.7800  146.1590 C   0  0  0  0  0  2  0  0  0  0  0  0
  162.0440  210.5410  148.0370 C   0  0  0  0  0  3  0  0  0  0  0  0
  161.7770  208.2930  148.9680 C   0  0  0  0  0  0  0  0  0  0  0  0
  161.7940  209.6910  149.1310 C   0  0  0  0  0  0  0  0  0  0  0  0
  161.3050  209.4260  151.5150 C   0  0  0  0  0  0  0  0  0  0  0  0
  160.3280  208.5680  156.1520 C   0  0  0  0  0  2  0  0  0  0  0  0
  162.3310  203.5620  147.1350 C   0  0  0  0  0  2  0  0  0  0  0  0
  161.9910  206.3410  147.5190 C   0  0  0  0  0  0  0  0  0  0  0  0
  160.4560  206.9530  155.2720 S   0  0  0  0  0  0  0  0  0  0  0  0
  161.6860  204.0160  148.4490 C   0  0  0  0  0  2  0  0  0  0  0  0
  161.5810  211.6590  150.5470 C   0  0  0  0  0  3  0  0  0  0  0  0
  161.5580  210.2580  150.4070 C   0  0  0  0  0  0  0  0  0  0  0  0
  161.0680  209.9960  152.7810 C   0  0  0  0  0  3  0  0  0  0  0  0
  161.5240  206.0540  149.8740 C   0  0  0  0  0  3  0  0  0  0  0  0
  160.9910  205.8450  152.4550 F   0  0  0  0  0  0  0  0  0  0  0  0
  160.5350  211.0380  155.5710 C   0  0  0  0  0  1  0  0  0  0  0  0
  161.2860  208.0050  151.3630 C   0  0  0  0  0  0  0  0  0  0  0  0
  160.8170  209.1750  153.8750 C   0  0  0  0  0  0  0  0  0  0  0  0
  160.4610  204.3060  145.8010 C   0  0  0  0  0  2  0  0  0  0  0  0
  160.1330  203.3230  144.6930 C   0  0  0  0  0  2  0  0  0  0  0  0
  159.4550  202.1040  145.2810 C   0  0  0  0  0  3  0  0  0  0  0  0
  160.4680  201.3150  146.0850 C   0  0  0  0  0  2  0  0  0  0  0  0
  160.0810  200.8540  144.6960 C   0  0  0  0  0  2  0  0  0  0  0  0
  1 10  1  0  0  0  0
  1 16  1  0  0  0  0
  2 26  1  0  0  0  0
  3  4  1  0  0  0  0
  4 20  2  0  0  0  0
  5  6  1  0  0  0  0
  6 27  2  0  0  0  0
  6 18  1  0  0  0  0
  7 23  2  0  0  0  0
  8 12  1  0  0  0  0
  9 25  1  0  0  0  0
  9 15  1  0  0  0  0
 10 17  1  0  0  0  0
 11  3  2  0  0  0  0
 11 13  1  0  0  0  0
 12 13  1  0  0  0  0
 12  2  2  0  0  0  0
 13 21  2  0  0  0  0
 14 22  2  0  0  0  0
 16 19  1  0  0  0  0
 17  8  2  0  0  0  0
 17  7  1  0  0  0  0
 18 15  1  0  0  0  0
 19  7  1  0  0  0  0
 21 20  1  0  0  0  0
 21 14  1  0  0  0  0
 22 27  1  0  0  0  0
 23  2  1  0  0  0  0
 24  5  1  0  0  0  0
 26 14  1  0  0  0  0
 26  5  2  0  0  0  0
 27  9  1  0  0  0  0
 28  1  1  0  0  0  0
 29 30  1  0  0  0  0
 29 28  1  0  0  0  0
 30 31  1  0  0  0  0
 32 30  1  0  0  0  0
 32 31  1  0  0  0  0
M  END
>  <MODEL>
5

>  <REMARK>
 VINA RESULT:      -6.6      1.573      2.221
  Name = 
  3 active torsions:
  status: ('A' for Active; 'I' for Inactive)
    1  A    between atoms: C_1  and  C_10
    2  A    between atoms: N_2  and  C_24
    3  A    between atoms: C_10  and  C_24
                            x       y       z     vdW  Elec       q    Type
                         _______ _______ _______ _____ _____    ______ ____

>  <TORSDO>
F 3

$$$$
