=
 OpenBabel11052422273D

 31 33  0  0  1  0  0  0  0  0999 V2000
  160.3720  203.0700  152.6580 F   0  0  0  0  0  0  0  0  0  0  0  0
  161.9170  207.2060  151.4730 C   0  0  1  0  0  3  0  0  0  0  0  0
  162.5220  206.0870  152.3430 C   0  0  0  0  0  2  0  0  0  0  0  0
  161.2090  203.9450  151.9900 C   0  0  0  0  0  0  0  0  0  0  0  0
  160.3210  203.4310  149.8710 O   0  0  0  0  0  0  0  0  0  0  0  0
  160.2070  205.7310  150.3070 C   0  0  0  0  0  2  0  0  0  0  0  0
  161.4140  206.6670  150.0970 C   0  0  1  0  0  0  0  0  0  0  0  0
  160.5630  204.3160  150.6770 C   0  0  0  0  0  0  0  0  0  0  0  0
  161.4610  205.1420  152.9020 C   0  0  0  0  0  2  0  0  0  0  0  0
  162.4080  203.2980  151.7420 F   0  0  0  0  0  0  0  0  0  0  0  0
  160.9030  208.0850  152.2580 C   0  0  1  0  0  3  0  0  0  0  0  0
  161.5410  208.3750  154.5940 C   0  0  0  0  0  2  0  0  0  0  0  0
  160.6610  207.5590  153.6720 C   0  0  0  0  0  2  0  0  0  0  0  0
  161.6170  209.7440  153.9620 C   0  0  0  0  0  2  0  0  0  0  0  0
  161.4450  209.5020  152.4690 C   0  0  2  0  0  3  0  0  0  0  0  0
  160.2930  211.4750  152.7610 C   0  0  0  0  0  1  0  0  0  0  0  0
  160.6900  210.5080  151.8210 O   0  0  0  0  0  0  0  0  0  0  0  0
  161.6510  208.7800  149.0190 O   0  0  0  0  0  0  0  0  0  0  0  0
  160.9450  207.8040  149.2270 C   0  0  0  0  0  3  0  0  0  0  0  0
  162.5490  205.9370  149.3400 C   0  0  0  0  0  2  0  0  0  0  0  0
  162.4130  206.0080  147.8220 C   0  0  0  0  0  2  0  0  0  0  0  0
  161.5120  204.8870  147.3150 C   0  0  0  0  0  2  0  0  0  0  0  0
  161.8330  204.4260  145.8770 C   0  0  1  0  0  0  0  0  0  0  0  0
  163.3020  204.7430  145.6420 C   0  0  0  0  0  1  0  0  0  0  0  0
  161.6710  202.9060  145.5970 C   0  0  0  0  0  3  0  0  0  0  0  0
  160.2460  202.4520  145.3250 C   0  0  0  0  0  2  0  0  0  0  0  0
  160.8780  202.1870  146.6770 C   0  0  0  0  0  2  0  0  0  0  0  0
  160.1010  205.9920  145.2940 O   0  0  0  0  0  0  0  0  0  0  0  0
  161.0160  205.2240  144.8860 C   0  0  0  0  0  0  0  0  0  0  0  0
  161.2170  205.0610  143.5160 O   0  0  0  0  0  0  0  0  0  0  0  0
  161.5710  206.0980  142.7450 O   0  0  0  0  0  1  0  0  0  0  0  0
  2 11  1  0  0  0  0
  2  3  1  1  0  0  0
  3  9  1  0  0  0  0
  4  1  1  0  0  0  0
  4  9  1  0  0  0  0
  5  8  2  0  0  0  0
  6  8  1  0  0  0  0
  7 19  1  6  0  0  0
  7  6  1  0  0  0  0
  7  2  1  0  0  0  0
  8  4  1  0  0  0  0
 10  4  1  0  0  0  0
 11 15  1  0  0  0  0
 11 13  1  1  0  0  0
 13 12  1  0  0  0  0
 14 12  1  0  0  0  0
 15 17  1  1  0  0  0
 15 14  1  0  0  0  0
 17 16  1  0  0  0  0
 18 19  2  0  0  0  0
 20  7  1  0  0  0  0
 21 20  1  0  0  0  0
 22 21  1  0  0  0  0
 23 24  1  6  0  0  0
 23 22  1  0  0  0  0
 25 23  1  0  0  0  0
 25 27  1  0  0  0  0
 26 25  1  0  0  0  0
 26 27  1  0  0  0  0
 29 28  2  0  0  0  0
 29 23  1  0  0  0  0
 30 29  1  0  0  0  0
 31 30  1  0  0  0  0
M  END
>  <MODEL>
1

>  <REMARK>
 VINA RESULT:      -6.8      0.000      0.000
  Name = 
  10 active torsions:
  status: ('A' for Active; 'I' for Inactive)
    1  A    between atoms: O_1  and  C_19
    2  A    between atoms: C_3  and  C_22
    3  A    between atoms: C_4  and  C_5
    4  A    between atoms: C_9  and  C_22
    5  A    between atoms: C_9  and  C_23
    6  A    between atoms: C_15  and  C_21
    7  A    between atoms: C_15  and  C_23
    8  A    between atoms: C_19  and  C_22
    9  A    between atoms: C_21  and  C_29
   10  A    between atoms: C_30  and  O_31
                            x       y       z     vdW  Elec       q    Type
                         _______ _______ _______ _____ _____    ______ ____

>  <TORSDO>
F 10

$$$$
=
 OpenBabel11052422273D

 31 33  0  0  1  0  0  0  0  0999 V2000
  161.9820  203.0370  152.4510 F   0  0  0  0  0  0  0  0  0  0  0  0
  160.9250  205.5350  148.7720 C   0  0  1  0  0  3  0  0  0  0  0  0
  160.1140  204.5170  149.5970 C   0  0  0  0  0  2  0  0  0  0  0  0
  161.3250  204.0510  151.7780 C   0  0  0  0  0  0  0  0  0  0  0  0
  162.5100  205.7660  152.8690 O   0  0  0  0  0  0  0  0  0  0  0  0
  162.7020  205.9480  150.5400 C   0  0  0  0  0  2  0  0  0  0  0  0
  161.6100  206.6070  149.6760 C   0  0  1  0  0  0  0  0  0  0  0  0
  162.1990  205.2800  151.7930 C   0  0  0  0  0  0  0  0  0  0  0  0
  161.0060  203.5500  150.3720 C   0  0  0  0  0  2  0  0  0  0  0  0
  160.1430  204.3220  152.4460 F   0  0  0  0  0  0  0  0  0  0  0  0
  161.8530  204.8480  147.7300 C   0  0  1  0  0  3  0  0  0  0  0  0
  160.9540  202.7200  146.9470 C   0  0  0  0  0  2  0  0  0  0  0  0
  161.9240  203.3350  147.9320 C   0  0  0  0  0  2  0  0  0  0  0  0
  160.9680  203.6390  145.7490 C   0  0  0  0  0  2  0  0  0  0  0  0
  161.3080  205.0140  146.3070 C   0  0  2  0  0  3  0  0  0  0  0  0
  161.6720  205.6870  144.1350 C   0  0  0  0  0  1  0  0  0  0  0  0
  162.1440  205.7740  145.4570 O   0  0  0  0  0  0  0  0  0  0  0  0
  161.6530  208.3600  148.0610 O   0  0  0  0  0  0  0  0  0  0  0  0
  162.2880  207.6530  148.8300 C   0  0  0  0  0  3  0  0  0  0  0  0
  160.5680  207.3280  150.5650 C   0  0  0  0  0  2  0  0  0  0  0  0
  161.1190  208.5640  151.2690 C   0  0  0  0  0  2  0  0  0  0  0  0
  160.4210  208.7680  152.6100 C   0  0  0  0  0  2  0  0  0  0  0  0
  161.0790  209.8430  153.5020 C   0  0  1  0  0  0  0  0  0  0  0  0
  162.4310  210.1510  152.8780 C   0  0  0  0  0  1  0  0  0  0  0  0
  160.3290  211.2000  153.5980 C   0  0  0  0  0  3  0  0  0  0  0  0
  159.0110  211.1530  154.3530 C   0  0  0  0  0  2  0  0  0  0  0  0
  159.0130  211.2040  152.8370 C   0  0  0  0  0  2  0  0  0  0  0  0
  162.0640  209.9010  155.6980 O   0  0  0  0  0  0  0  0  0  0  0  0
  161.3190  209.2840  154.8880 C   0  0  0  0  0  0  0  0  0  0  0  0
  160.7790  208.0510  155.2510 O   0  0  0  0  0  0  0  0  0  0  0  0
  159.7140  207.9780  156.0600 O   0  0  0  0  0  1  0  0  0  0  0  0
  2  3  1  1  0  0  0
  2  7  1  0  0  0  0
  3  9  1  0  0  0  0
  4  8  1  0  0  0  0
  4 10  1  0  0  0  0
  4  1  1  0  0  0  0
  6  8  1  0  0  0  0
  7 19  1  6  0  0  0
  7  6  1  0  0  0  0
  7 20  1  0  0  0  0
  8  5  2  0  0  0  0
  9  4  1  0  0  0  0
 11 13  1  1  0  0  0
 11  2  1  0  0  0  0
 12 13  1  0  0  0  0
 14 15  1  0  0  0  0
 14 12  1  0  0  0  0
 15 17  1  6  0  0  0
 15 11  1  0  0  0  0
 16 17  1  0  0  0  0
 18 19  2  0  0  0  0
 20 21  1  0  0  0  0
 21 22  1  0  0  0  0
 22 23  1  0  0  0  0
 23 24  1  6  0  0  0
 23 25  1  0  0  0  0
 23 29  1  0  0  0  0
 25 26  1  0  0  0  0
 27 25  1  0  0  0  0
 27 26  1  0  0  0  0
 29 30  1  0  0  0  0
 29 28  2  0  0  0  0
 30 31  1  0  0  0  0
M  END
>  <MODEL>
2

>  <REMARK>
 VINA RESULT:      -6.2      1.945      7.674
  Name = 
  10 active torsions:
  status: ('A' for Active; 'I' for Inactive)
    1  A    between atoms: O_1  and  C_19
    2  A    between atoms: C_3  and  C_22
    3  A    between atoms: C_4  and  C_5
    4  A    between atoms: C_9  and  C_22
    5  A    between atoms: C_9  and  C_23
    6  A    between atoms: C_15  and  C_21
    7  A    between atoms: C_15  and  C_23
    8  A    between atoms: C_19  and  C_22
    9  A    between atoms: C_21  and  C_29
   10  A    between atoms: C_30  and  O_31
                            x       y       z     vdW  Elec       q    Type
                         _______ _______ _______ _____ _____    ______ ____

>  <TORSDO>
F 10

$$$$
=
 OpenBabel11052422273D

 31 33  0  0  1  0  0  0  0  0999 V2000
  160.2760  203.5950  152.5820 F   0  0  0  0  0  0  0  0  0  0  0  0
  162.0500  207.6250  151.3520 C   0  0  1  0  0  3  0  0  0  0  0  0
  162.5660  206.5090  152.2820 C   0  0  0  0  0  2  0  0  0  0  0  0
  161.1790  204.4140  151.9280 C   0  0  0  0  0  0  0  0  0  0  0  0
  160.3690  203.8720  149.7860 O   0  0  0  0  0  0  0  0  0  0  0  0
  160.3330  206.1880  150.1500 C   0  0  0  0  0  2  0  0  0  0  0  0
  161.5870  207.0660  149.9700 C   0  0  1  0  0  0  0  0  0  0  0  0
  160.6110  204.7700  150.5770 C   0  0  0  0  0  0  0  0  0  0  0  0
  161.4410  205.6260  152.8170 C   0  0  0  0  0  2  0  0  0  0  0  0
  162.3600  203.7100  151.7560 F   0  0  0  0  0  0  0  0  0  0  0  0
  161.0400  208.5690  152.0640 C   0  0  1  0  0  3  0  0  0  0  0  0
  161.6020  208.9310  154.4090 C   0  0  0  0  0  2  0  0  0  0  0  0
  160.7270  208.1090  153.4870 C   0  0  0  0  0  2  0  0  0  0  0  0
  161.7490  210.2700  153.7270 C   0  0  0  0  0  2  0  0  0  0  0  0
  161.6230  209.9740  152.2390 C   0  0  2  0  0  3  0  0  0  0  0  0
  160.1210  211.7120  152.4110 C   0  0  0  0  0  1  0  0  0  0  0  0
  160.9290  210.9780  151.5240 O   0  0  0  0  0  0  0  0  0  0  0  0
  161.9600  209.1370  148.8510 O   0  0  0  0  0  0  0  0  0  0  0  0
  161.2080  208.1940  149.0470 C   0  0  0  0  0  3  0  0  0  0  0  0
  162.7230  206.2660  149.2890 C   0  0  0  0  0  2  0  0  0  0  0  0
  162.5980  206.2020  147.7700 C   0  0  0  0  0  2  0  0  0  0  0  0
  162.7570  204.7650  147.2820 C   0  0  0  0  0  2  0  0  0  0  0  0
  161.6220  204.2910  146.3490 C   0  0  1  0  0  0  0  0  0  0  0  0
  160.4040  205.1350  146.6900 C   0  0  0  0  0  1  0  0  0  0  0  0
  161.8670  204.4840  144.8270 C   0  0  0  0  0  3  0  0  0  0  0  0
  161.5400  205.8690  144.2940 C   0  0  0  0  0  2  0  0  0  0  0  0
  160.5830  204.7180  144.0460 C   0  0  0  0  0  2  0  0  0  0  0  0
  160.7760  202.1200  145.7430 O   0  0  0  0  0  0  0  0  0  0  0  0
  161.2880  202.8450  146.6400 C   0  0  0  0  0  0  0  0  0  0  0  0
  161.4720  202.3260  147.9220 O   0  0  0  0  0  0  0  0  0  0  0  0
  161.2400  201.0310  148.1790 O   0  0  0  0  0  1  0  0  0  0  0  0
  2 11  1  0  0  0  0
  2  3  1  1  0  0  0
  3  9  1  0  0  0  0
  4  1  1  0  0  0  0
  4  9  1  0  0  0  0
  5  8  2  0  0  0  0
  6  8  1  0  0  0  0
  7 19  1  6  0  0  0
  7  6  1  0  0  0  0
  7  2  1  0  0  0  0
  8  4  1  0  0  0  0
 10  4  1  0  0  0  0
 11 15  1  0  0  0  0
 11 13  1  1  0  0  0
 13 12  1  0  0  0  0
 14 12  1  0  0  0  0
 15 17  1  1  0  0  0
 15 14  1  0  0  0  0
 17 16  1  0  0  0  0
 18 19  2  0  0  0  0
 20  7  1  0  0  0  0
 21 20  1  0  0  0  0
 22 21  1  0  0  0  0
 23 29  1  0  0  0  0
 23 24  1  1  0  0  0
 23 22  1  0  0  0  0
 25 23  1  0  0  0  0
 26 25  1  0  0  0  0
 27 26  1  0  0  0  0
 27 25  1  0  0  0  0
 28 29  2  0  0  0  0
 29 30  1  0  0  0  0
 30 31  1  0  0  0  0
M  END
>  <MODEL>
3

>  <REMARK>
 VINA RESULT:      -5.9      1.505      2.231
  Name = 
  10 active torsions:
  status: ('A' for Active; 'I' for Inactive)
    1  A    between atoms: O_1  and  C_19
    2  A    between atoms: C_3  and  C_22
    3  A    between atoms: C_4  and  C_5
    4  A    between atoms: C_9  and  C_22
    5  A    between atoms: C_9  and  C_23
    6  A    between atoms: C_15  and  C_21
    7  A    between atoms: C_15  and  C_23
    8  A    between atoms: C_19  and  C_22
    9  A    between atoms: C_21  and  C_29
   10  A    between atoms: C_30  and  O_31
                            x       y       z     vdW  Elec       q    Type
                         _______ _______ _______ _____ _____    ______ ____

>  <TORSDO>
F 10

$$$$
=
 OpenBabel11052422273D

 31 33  0  0  1  0  0  0  0  0999 V2000
  160.9360  205.5160  143.9500 F   0  0  0  0  0  0  0  0  0  0  0  0
  161.8100  203.6100  148.0120 C   0  0  1  0  0  3  0  0  0  0  0  0
  162.6380  203.7050  146.7150 C   0  0  0  0  0  2  0  0  0  0  0  0
  161.5820  205.4170  145.1690 C   0  0  0  0  0  0  0  0  0  0  0  0
  160.5600  207.3450  146.0510 O   0  0  0  0  0  0  0  0  0  0  0  0
  160.1950  205.4830  147.4280 C   0  0  0  0  0  2  0  0  0  0  0  0
  161.2440  204.9980  148.4470 C   0  0  1  0  0  0  0  0  0  0  0  0
  160.7660  206.1510  146.2040 C   0  0  0  0  0  0  0  0  0  0  0  0
  161.7680  203.9350  145.4820 C   0  0  0  0  0  2  0  0  0  0  0  0
  162.8230  206.0200  145.0540 F   0  0  0  0  0  0  0  0  0  0  0  0
  160.7750  202.4500  147.9710 C   0  0  1  0  0  3  0  0  0  0  0  0
  161.5740  200.5400  146.6820 C   0  0  0  0  0  2  0  0  0  0  0  0
  160.7140  201.7820  146.5980 C   0  0  0  0  0  2  0  0  0  0  0  0
  161.4430  200.0620  148.1080 C   0  0  0  0  0  2  0  0  0  0  0  0
  161.1720  201.3180  148.9240 C   0  0  2  0  0  3  0  0  0  0  0  0
  158.9540  201.3890  149.5380 C   0  0  0  0  0  1  0  0  0  0  0  0
  160.2580  201.1130  149.9840 O   0  0  0  0  0  0  0  0  0  0  0  0
  161.0450  204.2690  150.7080 O   0  0  0  0  0  0  0  0  0  0  0  0
  160.5490  204.8890  149.7790 C   0  0  0  0  0  3  0  0  0  0  0  0
  162.3830  206.0360  148.5980 C   0  0  0  0  0  2  0  0  0  0  0  0
  161.9530  207.3120  149.3160 C   0  0  0  0  0  2  0  0  0  0  0  0
  162.7260  207.4740  150.6210 C   0  0  0  0  0  2  0  0  0  0  0  0
  161.8930  208.0810  151.7710 C   0  0  1  0  0  0  0  0  0  0  0  0
  160.4340  207.8510  151.4130 C   0  0  0  0  0  1  0  0  0  0  0  0
  162.1000  207.4410  153.1720 C   0  0  0  0  0  3  0  0  0  0  0  0
  161.4710  206.0690  153.3500 C   0  0  0  0  0  2  0  0  0  0  0  0
  160.8030  207.2910  153.9510 C   0  0  0  0  0  2  0  0  0  0  0  0
  162.2360  210.2500  150.7840 O   0  0  0  0  0  0  0  0  0  0  0  0
  162.1290  209.5740  151.8440 C   0  0  0  0  0  0  0  0  0  0  0  0
  162.3050  210.1970  153.0790 O   0  0  0  0  0  0  0  0  0  0  0  0
  161.3020  210.8740  153.6560 O   0  0  0  0  0  1  0  0  0  0  0  0
  1  4  1  0  0  0  0
  2  3  1  6  0  0  0
  2  7  1  0  0  0  0
  4  9  1  0  0  0  0
  4  8  1  0  0  0  0
  5  8  2  0  0  0  0
  6  7  1  0  0  0  0
  7 20  1  1  0  0  0
  7 19  1  0  0  0  0
  8  6  1  0  0  0  0
  9  3  1  0  0  0  0
 10  4  1  0  0  0  0
 11 13  1  6  0  0  0
 11  2  1  0  0  0  0
 11 15  1  0  0  0  0
 12 14  1  0  0  0  0
 13 12  1  0  0  0  0
 14 15  1  0  0  0  0
 15 17  1  1  0  0  0
 16 17  1  0  0  0  0
 19 18  2  0  0  0  0
 20 21  1  0  0  0  0
 21 22  1  0  0  0  0
 22 23  1  0  0  0  0
 23 24  1  6  0  0  0
 23 29  1  0  0  0  0
 23 25  1  0  0  0  0
 25 26  1  0  0  0  0
 25 27  1  0  0  0  0
 26 27  1  0  0  0  0
 28 29  2  0  0  0  0
 29 30  1  0  0  0  0
 30 31  1  0  0  0  0
M  END
>  <MODEL>
4

>  <REMARK>
 VINA RESULT:      -5.3      2.575      7.651
  Name = 
  10 active torsions:
  status: ('A' for Active; 'I' for Inactive)
    1  A    between atoms: O_1  and  C_19
    2  A    between atoms: C_3  and  C_22
    3  A    between atoms: C_4  and  C_5
    4  A    between atoms: C_9  and  C_22
    5  A    between atoms: C_9  and  C_23
    6  A    between atoms: C_15  and  C_21
    7  A    between atoms: C_15  and  C_23
    8  A    between atoms: C_19  and  C_22
    9  A    between atoms: C_21  and  C_29
   10  A    between atoms: C_30  and  O_31
                            x       y       z     vdW  Elec       q    Type
                         _______ _______ _______ _____ _____    ______ ____

>  <TORSDO>
F 10

$$$$
=
 OpenBabel11052422273D

 31 33  0  0  1  0  0  0  0  0999 V2000
  162.9660  210.1420  149.0830 F   0  0  0  0  0  0  0  0  0  0  0  0
  160.8730  208.2080  152.6570 C   0  0  1  0  0  3  0  0  0  0  0  0
  160.4190  209.2850  151.6530 C   0  0  0  0  0  2  0  0  0  0  0  0
  162.0240  209.3300  149.6880 C   0  0  0  0  0  0  0  0  0  0  0  0
  163.0020  207.3370  148.9070 O   0  0  0  0  0  0  0  0  0  0  0  0
  162.7880  207.3220  151.2410 C   0  0  0  0  0  2  0  0  0  0  0  0
  161.4650  206.9530  151.9410 C   0  0  1  0  0  0  0  0  0  0  0  0
  162.6290  207.9620  149.8870 C   0  0  0  0  0  0  0  0  0  0  0  0
  161.5940  209.9990  150.9900 C   0  0  0  0  0  2  0  0  0  0  0  0
  160.9310  209.2270  148.8440 F   0  0  0  0  0  0  0  0  0  0  0  0
  161.7440  208.7960  153.8040 C   0  0  1  0  0  3  0  0  0  0  0  0
  160.9900  211.0080  154.4990 C   0  0  0  0  0  2  0  0  0  0  0  0
  161.9960  210.2920  153.6250 C   0  0  0  0  0  2  0  0  0  0  0  0
  160.7720  210.0970  155.6830 C   0  0  0  0  0  2  0  0  0  0  0  0
  161.0270  208.6920  155.1540 C   0  0  2  0  0  3  0  0  0  0  0  0
  160.7480  207.4010  157.0400 C   0  0  0  0  0  1  0  0  0  0  0  0
  161.6780  207.8510  156.0860 O   0  0  0  0  0  0  0  0  0  0  0  0
  160.9610  205.5190  153.7770 O   0  0  0  0  0  0  0  0  0  0  0  0
  161.7820  205.8750  152.9440 C   0  0  0  0  0  3  0  0  0  0  0  0
  160.4540  206.3670  150.9270 C   0  0  0  0  0  2  0  0  0  0  0  0
  160.7810  204.9400  150.4960 C   0  0  0  0  0  2  0  0  0  0  0  0
  160.5010  204.7560  149.0080 C   0  0  0  0  0  2  0  0  0  0  0  0
  161.1380  203.4870  148.4020 C   0  0  1  0  0  0  0  0  0  0  0  0
  162.2010  203.0280  149.3880 C   0  0  0  0  0  1  0  0  0  0  0  0
  160.1850  202.2770  148.2020 C   0  0  0  0  0  3  0  0  0  0  0  0
  159.9030  201.4660  149.4560 C   0  0  0  0  0  2  0  0  0  0  0  0
  160.8740  200.9380  148.4180 C   0  0  0  0  0  2  0  0  0  0  0  0
  162.7120  204.7230  147.0650 O   0  0  0  0  0  0  0  0  0  0  0  0
  161.8230  203.8280  147.0980 C   0  0  0  0  0  0  0  0  0  0  0  0
  161.4240  203.2100  145.9130 O   0  0  0  0  0  0  0  0  0  0  0  0
  160.8810  203.9220  144.9160 O   0  0  0  0  0  1  0  0  0  0  0  0
  1  4  1  0  0  0  0
  2  3  1  6  0  0  0
  2 11  1  0  0  0  0
  4  8  1  0  0  0  0
  4  9  1  0  0  0  0
  5  8  2  0  0  0  0
  6  7  1  0  0  0  0
  7 20  1  6  0  0  0
  7  2  1  0  0  0  0
  7 19  1  0  0  0  0
  8  6  1  0  0  0  0
  9  3  1  0  0  0  0
 10  4  1  0  0  0  0
 11 13  1  6  0  0  0
 11 15  1  0  0  0  0
 12 14  1  0  0  0  0
 13 12  1  0  0  0  0
 15 14  1  0  0  0  0
 15 17  1  1  0  0  0
 17 16  1  0  0  0  0
 19 18  2  0  0  0  0
 21 20  1  0  0  0  0
 22 21  1  0  0  0  0
 23 22  1  0  0  0  0
 23 24  1  1  0  0  0
 25 23  1  0  0  0  0
 25 27  1  0  0  0  0
 25 26  1  0  0  0  0
 27 26  1  0  0  0  0
 28 29  2  0  0  0  0
 29 23  1  0  0  0  0
 30 29  1  0  0  0  0
 31 30  1  0  0  0  0
M  END
>  <MODEL>
5

>  <REMARK>
 VINA RESULT:      -4.7      2.750      4.075
  Name = 
  10 active torsions:
  status: ('A' for Active; 'I' for Inactive)
    1  A    between atoms: O_1  and  C_19
    2  A    between atoms: C_3  and  C_22
    3  A    between atoms: C_4  and  C_5
    4  A    between atoms: C_9  and  C_22
    5  A    between atoms: C_9  and  C_23
    6  A    between atoms: C_15  and  C_21
    7  A    between atoms: C_15  and  C_23
    8  A    between atoms: C_19  and  C_22
    9  A    between atoms: C_21  and  C_29
   10  A    between atoms: C_30  and  O_31
                            x       y       z     vdW  Elec       q    Type
                         _______ _______ _______ _____ _____    ______ ____

>  <TORSDO>
F 10

$$$$
=
 OpenBabel11052422273D

 31 33  0  0  1  0  0  0  0  0999 V2000
  160.6390  204.3150  144.3500 F   0  0  0  0  0  0  0  0  0  0  0  0
  161.7740  204.9180  148.7370 C   0  0  1  0  0  3  0  0  0  0  0  0
  162.5310  204.2890  147.5500 C   0  0  0  0  0  2  0  0  0  0  0  0
  161.3500  204.8910  145.3870 C   0  0  0  0  0  0  0  0  0  0  0  0
  160.3230  206.9940  145.1400 O   0  0  0  0  0  0  0  0  0  0  0  0
  160.0810  206.1810  147.3250 C   0  0  0  0  0  2  0  0  0  0  0  0
  161.1940  206.3230  148.3810 C   0  0  1  0  0  0  0  0  0  0  0  0
  160.5680  206.0740  145.9040 C   0  0  0  0  0  0  0  0  0  0  0  0
  161.5930  203.8160  146.4430 C   0  0  0  0  0  2  0  0  0  0  0  0
  162.5660  205.3290  144.8920 F   0  0  0  0  0  0  0  0  0  0  0  0
  160.7710  203.9270  149.3920 C   0  0  1  0  0  3  0  0  0  0  0  0
  161.5200  201.6110  149.2380 C   0  0  0  0  0  2  0  0  0  0  0  0
  160.6230  202.6390  148.5830 C   0  0  0  0  0  2  0  0  0  0  0  0
  161.5120  201.9550  150.7080 C   0  0  0  0  0  2  0  0  0  0  0  0
  161.2700  203.4570  150.7620 C   0  0  2  0  0  3  0  0  0  0  0  0
  161.2060  204.5930  152.7650 C   0  0  0  0  0  1  0  0  0  0  0  0
  160.4460  203.8540  151.8410 O   0  0  0  0  0  0  0  0  0  0  0  0
  161.1800  207.0420  150.6530 O   0  0  0  0  0  0  0  0  0  0  0  0
  160.5720  206.9580  149.5970 C   0  0  0  0  0  3  0  0  0  0  0  0
  162.3100  207.2700  147.8780 C   0  0  0  0  0  2  0  0  0  0  0  0
  162.4340  208.5530  148.6930 C   0  0  0  0  0  2  0  0  0  0  0  0
  161.9420  209.7490  147.8840 C   0  0  0  0  0  2  0  0  0  0  0  0
  162.0310  211.0950  148.6350 C   0  0  1  0  0  0  0  0  0  0  0  0
  161.9490  210.7650  150.1170 C   0  0  0  0  0  1  0  0  0  0  0  0
  163.3480  211.8950  148.4430 C   0  0  0  0  0  3  0  0  0  0  0  0
  163.1710  213.3010  147.8940 C   0  0  0  0  0  2  0  0  0  0  0  0
  163.6550  212.1890  146.9830 C   0  0  0  0  0  2  0  0  0  0  0  0
  160.3630  212.7570  149.1340 O   0  0  0  0  0  0  0  0  0  0  0  0
  160.8430  211.9610  148.2810 C   0  0  0  0  0  0  0  0  0  0  0  0
  160.2240  211.8310  147.0370 O   0  0  0  0  0  0  0  0  0  0  0  0
  159.3970  212.7800  146.5790 O   0  0  0  0  0  1  0  0  0  0  0  0
  1  4  1  0  0  0  0
  2  3  1  6  0  0  0
  2 11  1  0  0  0  0
  4  8  1  0  0  0  0
  4  9  1  0  0  0  0
  5  8  2  0  0  0  0
  6  7  1  0  0  0  0
  7 20  1  6  0  0  0
  7  2  1  0  0  0  0
  7 19  1  0  0  0  0
  8  6  1  0  0  0  0
  9  3  1  0  0  0  0
 10  4  1  0  0  0  0
 11 13  1  6  0  0  0
 11 15  1  0  0  0  0
 12 14  1  0  0  0  0
 13 12  1  0  0  0  0
 14 15  1  0  0  0  0
 15 17  1  1  0  0  0
 17 16  1  0  0  0  0
 19 18  2  0  0  0  0
 20 21  1  0  0  0  0
 22 23  1  0  0  0  0
 22 21  1  0  0  0  0
 23 24  1  1  0  0  0
 25 23  1  0  0  0  0
 26 25  1  0  0  0  0
 27 26  1  0  0  0  0
 27 25  1  0  0  0  0
 29 23  1  0  0  0  0
 29 28  2  0  0  0  0
 30 29  1  0  0  0  0
 31 30  1  0  0  0  0
M  END
>  <MODEL>
6

>  <REMARK>
 VINA RESULT:      -4.7      3.353      6.722
  Name = 
  10 active torsions:
  status: ('A' for Active; 'I' for Inactive)
    1  A    between atoms: O_1  and  C_19
    2  A    between atoms: C_3  and  C_22
    3  A    between atoms: C_4  and  C_5
    4  A    between atoms: C_9  and  C_22
    5  A    between atoms: C_9  and  C_23
    6  A    between atoms: C_15  and  C_21
    7  A    between atoms: C_15  and  C_23
    8  A    between atoms: C_19  and  C_22
    9  A    between atoms: C_21  and  C_29
   10  A    between atoms: C_30  and  O_31
                            x       y       z     vdW  Elec       q    Type
                         _______ _______ _______ _____ _____    ______ ____

>  <TORSDO>
F 10

$$$$
=
 OpenBabel11052422273D

 31 33  0  0  1  0  0  0  0  0999 V2000
  160.4690  204.3910  144.0880 F   0  0  0  0  0  0  0  0  0  0  0  0
  161.6480  204.4000  148.5050 C   0  0  1  0  0  3  0  0  0  0  0  0
  162.3610  203.8690  147.2460 C   0  0  0  0  0  2  0  0  0  0  0  0
  161.2170  204.7950  145.1800 C   0  0  0  0  0  0  0  0  0  0  0  0
  160.3250  206.9730  145.1900 O   0  0  0  0  0  0  0  0  0  0  0  0
  160.0360  205.9250  147.2670 C   0  0  0  0  0  2  0  0  0  0  0  0
  161.1580  205.8710  148.3220 C   0  0  1  0  0  0  0  0  0  0  0  0
  160.5130  205.9550  145.8380 C   0  0  0  0  0  0  0  0  0  0  0  0
  161.3930  203.5900  146.0990 C   0  0  0  0  0  2  0  0  0  0  0  0
  162.4580  205.2100  144.7270 F   0  0  0  0  0  0  0  0  0  0  0  0
  160.5850  203.4040  149.0490 C   0  0  1  0  0  3  0  0  0  0  0  0
  161.2970  201.0810  148.8370 C   0  0  0  0  0  2  0  0  0  0  0  0
  160.4650  202.1570  148.1740 C   0  0  0  0  0  2  0  0  0  0  0  0
  161.2000  201.3590  150.3180 C   0  0  0  0  0  2  0  0  0  0  0  0
  160.9850  202.8630  150.4250 C   0  0  2  0  0  3  0  0  0  0  0  0
  160.8350  203.7570  152.5420 C   0  0  0  0  0  1  0  0  0  0  0  0
  160.1000  203.2300  151.4660 O   0  0  0  0  0  0  0  0  0  0  0  0
  161.1960  206.3230  150.6620 O   0  0  0  0  0  0  0  0  0  0  0  0
  160.5790  206.3970  149.6100 C   0  0  0  0  0  3  0  0  0  0  0  0
  162.3300  206.7990  147.9230 C   0  0  0  0  0  2  0  0  0  0  0  0
  162.4950  208.0040  148.8440 C   0  0  0  0  0  2  0  0  0  0  0  0
  161.7810  209.2200  148.2630 C   0  0  0  0  0  2  0  0  0  0  0  0
  161.9410  210.5040  149.1050 C   0  0  1  0  0  0  0  0  0  0  0  0
  163.2770  211.1130  148.7090 C   0  0  0  0  0  1  0  0  0  0  0  0
  160.8760  211.6100  148.8690 C   0  0  0  0  0  3  0  0  0  0  0  0
  160.8410  212.1780  147.4600 C   0  0  0  0  0  2  0  0  0  0  0  0
  161.4900  212.9710  148.5780 C   0  0  0  0  0  2  0  0  0  0  0  0
  163.0820  210.2920  151.2140 O   0  0  0  0  0  0  0  0  0  0  0  0
  162.0040  210.1500  150.5740 C   0  0  0  0  0  0  0  0  0  0  0  0
  160.8940  209.5960  151.2110 O   0  0  0  0  0  0  0  0  0  0  0  0
  160.3210  210.2120  152.2540 O   0  0  0  0  0  1  0  0  0  0  0  0
  1  4  1  0  0  0  0
  2  3  1  6  0  0  0
  2 11  1  0  0  0  0
  4  8  1  0  0  0  0
  4  9  1  0  0  0  0
  5  8  2  0  0  0  0
  6  7  1  0  0  0  0
  7 20  1  6  0  0  0
  7  2  1  0  0  0  0
  7 19  1  0  0  0  0
  8  6  1  0  0  0  0
  9  3  1  0  0  0  0
 10  4  1  0  0  0  0
 11 13  1  6  0  0  0
 11 15  1  0  0  0  0
 12 14  1  0  0  0  0
 13 12  1  0  0  0  0
 14 15  1  0  0  0  0
 15 17  1  1  0  0  0
 17 16  1  0  0  0  0
 19 18  2  0  0  0  0
 20 21  1  0  0  0  0
 22 21  1  0  0  0  0
 22 23  1  0  0  0  0
 23 24  1  6  0  0  0
 23 29  1  0  0  0  0
 25 23  1  0  0  0  0
 26 27  1  0  0  0  0
 26 25  1  0  0  0  0
 27 25  1  0  0  0  0
 29 30  1  0  0  0  0
 29 28  2  0  0  0  0
 30 31  1  0  0  0  0
M  END
>  <MODEL>
7

>  <REMARK>
 VINA RESULT:      -4.6      2.937      7.004
  Name = 
  10 active torsions:
  status: ('A' for Active; 'I' for Inactive)
    1  A    between atoms: O_1  and  C_19
    2  A    between atoms: C_3  and  C_22
    3  A    between atoms: C_4  and  C_5
    4  A    between atoms: C_9  and  C_22
    5  A    between atoms: C_9  and  C_23
    6  A    between atoms: C_15  and  C_21
    7  A    between atoms: C_15  and  C_23
    8  A    between atoms: C_19  and  C_22
    9  A    between atoms: C_21  and  C_29
   10  A    between atoms: C_30  and  O_31
                            x       y       z     vdW  Elec       q    Type
                         _______ _______ _______ _____ _____    ______ ____

>  <TORSDO>
F 10

$$$$
=
 OpenBabel11052422273D

 31 33  0  0  1  0  0  0  0  0999 V2000
  162.3550  203.0720  152.3710 F   0  0  0  0  0  0  0  0  0  0  0  0
  160.8300  205.5550  148.8490 C   0  0  1  0  0  3  0  0  0  0  0  0
  160.1690  204.4520  149.6990 C   0  0  0  0  0  2  0  0  0  0  0  0
  161.5690  204.0410  151.7750 C   0  0  0  0  0  0  0  0  0  0  0  0
  162.6810  205.8250  152.8310 O   0  0  0  0  0  0  0  0  0  0  0  0
  162.6890  206.0770  150.5000 C   0  0  0  0  0  2  0  0  0  0  0  0
  161.4860  206.6610  149.7340 C   0  0  1  0  0  0  0  0  0  0  0  0
  162.3350  205.3400  151.7650 C   0  0  0  0  0  0  0  0  0  0  0  0
  161.1920  203.5470  150.3810 C   0  0  0  0  0  2  0  0  0  0  0  0
  160.4190  204.1940  152.5310 F   0  0  0  0  0  0  0  0  0  0  0  0
  161.7350  204.9740  147.7250 C   0  0  1  0  0  3  0  0  0  0  0  0
  160.9700  202.7910  146.9530 C   0  0  0  0  0  2  0  0  0  0  0  0
  161.9540  203.4700  147.8810 C   0  0  0  0  0  2  0  0  0  0  0  0
  160.8150  203.7300  145.7820 C   0  0  0  0  0  2  0  0  0  0  0  0
  161.0740  205.1190  146.3500 C   0  0  2  0  0  3  0  0  0  0  0  0
  161.2700  205.8030  144.1600 C   0  0  0  0  0  1  0  0  0  0  0  0
  161.7750  205.9670  145.4620 O   0  0  0  0  0  0  0  0  0  0  0  0
  163.1740  207.8050  148.5010 O   0  0  0  0  0  0  0  0  0  0  0  0
  162.0110  207.7800  148.8740 C   0  0  0  0  0  3  0  0  0  0  0  0
  160.4540  207.2680  150.7140 C   0  0  0  0  0  2  0  0  0  0  0  0
  161.0440  208.3280  151.6400 C   0  0  0  0  0  2  0  0  0  0  0  0
  160.4200  208.2290  153.0280 C   0  0  0  0  0  2  0  0  0  0  0  0
  160.5820  209.5050  153.8820 C   0  0  1  0  0  0  0  0  0  0  0  0
  159.5510  209.4120  154.9950 C   0  0  0  0  0  1  0  0  0  0  0  0
  161.9580  209.6850  154.5820 C   0  0  0  0  0  3  0  0  0  0  0  0
  161.9530  209.4360  156.0810 C   0  0  0  0  0  2  0  0  0  0  0  0
  161.9800  210.8560  155.5510 C   0  0  0  0  0  2  0  0  0  0  0  0
  161.1570  211.2510  152.3260 O   0  0  0  0  0  0  0  0  0  0  0  0
  160.2630  210.7260  153.0470 C   0  0  0  0  0  0  0  0  0  0  0  0
  159.0050  211.3210  153.1260 O   0  0  0  0  0  0  0  0  0  0  0  0
  158.4190  211.8370  152.0370 O   0  0  0  0  0  1  0  0  0  0  0  0
  2  3  1  1  0  0  0
  2  7  1  0  0  0  0
  3  9  1  0  0  0  0
  4  1  1  0  0  0  0
  4 10  1  0  0  0  0
  6  8  1  0  0  0  0
  7 19  1  6  0  0  0
  7  6  1  0  0  0  0
  7 20  1  0  0  0  0
  8  4  1  0  0  0  0
  8  5  2  0  0  0  0
  9  4  1  0  0  0  0
 11 13  1  1  0  0  0
 11  2  1  0  0  0  0
 12 13  1  0  0  0  0
 14 15  1  0  0  0  0
 14 12  1  0  0  0  0
 15 17  1  6  0  0  0
 15 11  1  0  0  0  0
 16 17  1  0  0  0  0
 18 19  2  0  0  0  0
 20 21  1  0  0  0  0
 21 22  1  0  0  0  0
 22 23  1  0  0  0  0
 23 25  1  0  0  0  0
 23 24  1  1  0  0  0
 25 27  1  0  0  0  0
 25 26  1  0  0  0  0
 27 26  1  0  0  0  0
 28 29  2  0  0  0  0
 29 30  1  0  0  0  0
 29 23  1  0  0  0  0
 31 30  1  0  0  0  0
M  END
>  <MODEL>
8

>  <REMARK>
 VINA RESULT:      -4.6      1.551      7.544
  Name = 
  10 active torsions:
  status: ('A' for Active; 'I' for Inactive)
    1  A    between atoms: O_1  and  C_19
    2  A    between atoms: C_3  and  C_22
    3  A    between atoms: C_4  and  C_5
    4  A    between atoms: C_9  and  C_22
    5  A    between atoms: C_9  and  C_23
    6  A    between atoms: C_15  and  C_21
    7  A    between atoms: C_15  and  C_23
    8  A    between atoms: C_19  and  C_22
    9  A    between atoms: C_21  and  C_29
   10  A    between atoms: C_30  and  O_31
                            x       y       z     vdW  Elec       q    Type
                         _______ _______ _______ _____ _____    ______ ____

>  <TORSDO>
F 10

$$$$
=
 OpenBabel11052422273D

 31 33  0  0  1  0  0  0  0  0999 V2000
  161.1940  205.0830  143.7740 F   0  0  0  0  0  0  0  0  0  0  0  0
  161.6540  204.1430  148.2240 C   0  0  1  0  0  3  0  0  0  0  0  0
  162.6330  204.0350  147.0380 C   0  0  0  0  0  2  0  0  0  0  0  0
  161.6850  205.2940  145.0500 C   0  0  0  0  0  0  0  0  0  0  0  0
  160.4510  207.2720  145.3740 O   0  0  0  0  0  0  0  0  0  0  0  0
  160.0220  205.7130  147.0710 C   0  0  0  0  0  2  0  0  0  0  0  0
  160.9590  205.5400  148.2820 C   0  0  1  0  0  0  0  0  0  0  0  0
  160.7040  206.1570  145.8030 C   0  0  0  0  0  0  0  0  0  0  0  0
  161.9150  203.9300  145.6950 C   0  0  0  0  0  2  0  0  0  0  0  0
  162.8940  205.9610  144.9470 F   0  0  0  0  0  0  0  0  0  0  0  0
  160.7010  202.9180  148.3190 C   0  0  1  0  0  3  0  0  0  0  0  0
  161.5830  200.9640  147.1570 C   0  0  0  0  0  2  0  0  0  0  0  0
  160.6370  202.1350  147.0090 C   0  0  0  0  0  2  0  0  0  0  0  0
  161.5370  200.5990  148.6220 C   0  0  0  0  0  2  0  0  0  0  0  0
  161.2090  201.8990  149.3440 C   0  0  2  0  0  3  0  0  0  0  0  0
  161.0270  202.0810  151.6320 C   0  0  0  0  0  1  0  0  0  0  0  0
  160.3500  201.7230  150.4540 O   0  0  0  0  0  0  0  0  0  0  0  0
  160.4210  205.0940  150.5610 O   0  0  0  0  0  0  0  0  0  0  0  0
  160.1080  205.6520  149.5200 C   0  0  0  0  0  3  0  0  0  0  0  0
  162.0080  206.6770  148.3310 C   0  0  0  0  0  2  0  0  0  0  0  0
  161.4800  207.9660  148.9540 C   0  0  0  0  0  2  0  0  0  0  0  0
  162.4970  208.5370  149.9380 C   0  0  0  0  0  2  0  0  0  0  0  0
  161.9570  208.6930  151.3760 C   0  0  1  0  0  0  0  0  0  0  0  0
  162.9300  209.6090  152.1020 C   0  0  0  0  0  1  0  0  0  0  0  0
  160.5590  209.3560  151.5100 C   0  0  0  0  0  3  0  0  0  0  0  0
  160.5740  210.8720  151.6180 C   0  0  0  0  0  2  0  0  0  0  0  0
  160.3480  210.0280  152.8570 C   0  0  0  0  0  2  0  0  0  0  0  0
  162.8630  206.5060  151.8150 O   0  0  0  0  0  0  0  0  0  0  0  0
  161.9640  207.3530  152.0760 C   0  0  0  0  0  0  0  0  0  0  0  0
  160.9350  207.0150  152.9560 O   0  0  0  0  0  0  0  0  0  0  0  0
  161.1660  206.2190  154.0090 O   0  0  0  0  0  1  0  0  0  0  0  0
  1  4  1  0  0  0  0
  2  3  1  6  0  0  0
  2  7  1  0  0  0  0
  2 11  1  0  0  0  0
  4  9  1  0  0  0  0
  4  8  1  0  0  0  0
  5  8  2  0  0  0  0
  6  7  1  0  0  0  0
  7 20  1  6  0  0  0
  7 19  1  0  0  0  0
  8  6  1  0  0  0  0
  9  3  1  0  0  0  0
 10  4  1  0  0  0  0
 11 13  1  6  0  0  0
 11 15  1  0  0  0  0
 12 14  1  0  0  0  0
 13 12  1  0  0  0  0
 14 15  1  0  0  0  0
 15 17  1  1  0  0  0
 17 16  1  0  0  0  0
 19 18  2  0  0  0  0
 20 21  1  0  0  0  0
 21 22  1  0  0  0  0
 22 23  1  0  0  0  0
 23 25  1  0  0  0  0
 23 29  1  0  0  0  0
 23 24  1  1  0  0  0
 25 26  1  0  0  0  0
 25 27  1  0  0  0  0
 26 27  1  0  0  0  0
 28 29  2  0  0  0  0
 29 30  1  0  0  0  0
 30 31  1  0  0  0  0
M  END
>  <MODEL>
9

>  <REMARK>
 VINA RESULT:      -4.5      2.728      7.466
  Name = 
  10 active torsions:
  status: ('A' for Active; 'I' for Inactive)
    1  A    between atoms: O_1  and  C_19
    2  A    between atoms: C_3  and  C_22
    3  A    between atoms: C_4  and  C_5
    4  A    between atoms: C_9  and  C_22
    5  A    between atoms: C_9  and  C_23
    6  A    between atoms: C_15  and  C_21
    7  A    between atoms: C_15  and  C_23
    8  A    between atoms: C_19  and  C_22
    9  A    between atoms: C_21  and  C_29
   10  A    between atoms: C_30  and  O_31
                            x       y       z     vdW  Elec       q    Type
                         _______ _______ _______ _____ _____    ______ ____

>  <TORSDO>
F 10

$$$$
