=
 OpenBabel11062408433D

 55 60  0  0  1  0  0  0  0  0999 V2000
  162.1820  212.5680  149.3030 C   0  0  0  0  0  2  0  0  0  0  0  0
  160.4350  207.7750  151.7330 C   0  0  0  0  0  2  0  0  0  0  0  0
  158.8590  210.4870  153.7380 O   0  0  0  0  0  0  0  0  0  0  0  0
  157.6960  212.7140  155.7830 C   0  0  0  0  0  2  0  0  0  0  0  0
  156.6370  213.7710  155.9490 C   0  0  0  0  0  3  0  0  0  0  0  0
  157.4520  213.0100  153.3100 C   0  0  2  0  0  3  0  0  0  0  0  0
  156.6460  214.3010  153.5050 C   0  0  0  0  0  2  0  0  0  0  0  0
  160.5600  211.7650  154.6370 O   0  0  0  0  0  0  0  0  0  0  0  0
  156.1270  214.4510  154.9110 C   0  0  0  0  0  3  0  0  0  0  0  0
  158.4560  212.8530  154.4630 C   0  0  2  0  0  3  0  0  0  0  0  0
  161.0430  214.4490  150.7250 C   0  0  0  0  0  2  0  0  0  0  0  0
  161.5550  210.4970  148.0600 C   0  0  0  0  0  2  0  0  0  0  0  0
  160.2180  213.7060  151.7530 C   0  0  0  0  0  2  0  0  0  0  0  0
  160.6010  207.7030  148.7120 C   0  0  0  0  0  1  0  0  0  0  0  0
  158.1230  212.9610  151.9260 C   0  0  2  0  0  3  0  0  0  0  0  0
  159.3650  208.7790  152.1350 C   0  0  0  0  0  2  0  0  0  0  0  0
  159.7100  209.3820  153.4780 C   0  0  0  0  0  2  0  0  0  0  0  0
  161.5720  208.3990  150.9120 C   0  0  1  0  0  3  0  0  0  0  0  0
  160.8050  213.7290  149.0790 S   0  0  0  0  0  0  0  0  0  0  0  0
  159.3530  211.6710  154.2890 C   0  0  0  0  0  0  0  0  0  0  0  0
  162.3930  211.7750  148.0320 C   0  0  2  0  0  3  0  0  0  0  0  0
  161.0950  208.8870  149.5370 C   0  0  1  0  0  3  0  0  0  0  0  0
  158.8840  214.1150  151.6710 O   0  0  0  0  0  0  0  0  0  0  0  0
  162.1490  209.5120  148.8580 O   0  0  0  0  0  0  0  0  0  0  0  0
  157.0950  212.7110  150.8210 C   0  0  1  0  0  3  0  0  0  0  0  0
  156.6700  213.9970  148.8700 C   0  0  1  0  0  3  0  0  0  0  0  0
  155.9270  213.4700  151.0430 O   0  0  0  0  0  0  0  0  0  0  0  0
  155.4730  213.8550  149.7730 C   0  0  0  0  0  2  0  0  0  0  0  0
  157.6790  213.0650  149.4720 C   0  0  0  0  0  2  0  0  0  0  0  0
  156.3190  213.5630  147.4580 C   0  0  0  0  0  3  0  0  0  0  0  0
  157.3790  212.6160  146.9350 C   0  0  0  0  0  2  0  0  0  0  0  0
  157.3860  214.0680  146.5060 C   0  0  0  0  0  2  0  0  0  0  0  0
  162.2810  209.4930  151.6990 C   0  0  0  0  0  2  0  0  0  0  0  0
  162.3360  209.1540  153.0510 O   0  0  0  0  0  0  0  0  0  0  0  0
  162.7990  207.8370  153.0560 C   0  0  0  0  0  2  0  0  0  0  0  0
  162.1650  207.0550  154.1970 C   0  0  2  0  0  3  0  0  0  0  0  0
  160.3960  205.4420  154.3840 O   0  0  0  0  0  0  0  0  0  0  0  0
  162.5990  205.8890  151.6260 O   0  0  0  0  0  1  0  0  0  0  0  0
  161.3300  205.9140  153.6740 C   0  0  0  0  0  0  0  0  0  0  0  0
  161.6450  205.3200  152.4070 N   0  0  0  0  0  0  0  0  0  0  0  0
  162.0940  203.1200  151.4870 C   0  0  0  0  0  2  0  0  0  0  0  0
  161.1230  203.7890  150.5360 C   0  0  2  0  0  3  0  0  0  0  0  0
  161.0270  204.0460  152.0330 C   0  0  2  0  0  3  0  0  0  0  0  0
  160.0710  202.7770  150.1410 C   0  0  0  0  0  2  0  0  0  0  0  0
  160.1090  200.8030  148.8070 O   0  0  0  0  0  1  0  0  0  0  0  0
  161.4310  202.5240  148.0680 O   0  0  0  0  0  0  0  0  0  0  0  0
  160.5310  201.9780  148.9710 C   0  0  0  0  0  0  0  0  0  0  0  0
  160.6110  207.3870  157.0550 C   0  0  0  0  0  2  0  0  0  0  0  0
  160.0820  207.4500  155.6340 C   0  0  0  0  0  2  0  0  0  0  0  0
  161.4200  207.9960  155.1630 C   0  0  0  0  0  3  0  0  0  0  0  0
  161.9530  207.9230  156.5840 C   0  0  0  0  0  2  0  0  0  0  0  0
  163.8770  211.4880  147.8510 C   0  0  0  0  0  2  0  0  0  0  0  0
  164.4170  212.1420  146.5870 C   0  0  0  0  0  2  0  0  0  0  0  0
  163.5870  213.1440  144.4830 C   0  0  0  0  0  1  0  0  0  0  0  0
  163.3780  213.0630  145.9780 C   0  0  0  0  0  2  0  0  0  0  0  0
  2 16  1  0  0  0  0
  3 20  1  0  0  0  0
  4  5  1  0  0  0  0
  6  7  1  1  0  0  0
  6 10  1  0  0  0  0
  7  9  1  0  0  0  0
  9  5  2  0  0  0  0
 10  4  1  1  0  0  0
 11 13  1  0  0  0  0
 12 24  1  0  0  0  0
 15 23  1  6  0  0  0
 15  6  1  0  0  0  0
 16 17  1  0  0  0  0
 17  3  1  0  0  0  0
 18 33  1  1  0  0  0
 18  2  1  0  0  0  0
 19  1  1  0  0  0  0
 19 11  1  0  0  0  0
 20 10  1  0  0  0  0
 20  8  2  0  0  0  0
 21 52  1  1  0  0  0
 21 12  1  0  0  0  0
 21  1  1  0  0  0  0
 22 14  1  6  0  0  0
 22 18  1  0  0  0  0
 23 13  1  0  0  0  0
 24 22  1  0  0  0  0
 25 29  1  6  0  0  0
 25 27  1  0  0  0  0
 25 15  1  0  0  0  0
 26 30  1  6  0  0  0
 26 29  1  0  0  0  0
 26 28  1  0  0  0  0
 28 27  1  0  0  0  0
 31 30  1  0  0  0  0
 32 31  1  0  0  0  0
 32 30  1  0  0  0  0
 33 34  1  0  0  0  0
 34 35  1  0  0  0  0
 36 35  1  6  0  0  0
 36 50  1  0  0  0  0
 38 40  1  0  0  0  0
 39 36  1  0  0  0  0
 39 37  2  0  0  0  0
 40 39  1  0  0  0  0
 41 43  1  0  0  0  0
 42 44  1  1  0  0  0
 42 41  1  0  0  0  0
 42 43  1  0  0  0  0
 43 40  1  6  0  0  0
 45 47  1  0  0  0  0
 46 47  2  0  0  0  0
 47 44  1  0  0  0  0
 49 48  1  0  0  0  0
 50 49  1  0  0  0  0
 50 51  1  0  0  0  0
 51 48  1  0  0  0  0
 53 52  1  0  0  0  0
 54 55  1  0  0  0  0
 55 53  1  0  0  0  0
M  END
>  <MODEL>
1

>  <REMARK>
 VINA RESULT:       3.7      0.000      0.000
  Name = 
  14 active torsions:
  status: ('A' for Active; 'I' for Inactive)
    1  A    between atoms: C_6  and  C_14
    2  A    between atoms: C_6  and  C_38
    3  A    between atoms: O_8  and  C_20
    4  A    between atoms: O_8  and  C_22
    5  A    between atoms: C_10  and  C_32
    6  A    between atoms: C_12  and  C_20
    7  A    between atoms: C_12  and  C_42
    8  A    between atoms: C_12  and  C_46
    9  A    between atoms: C_13  and  C_36
   10  A    between atoms: C_21  and  N_53
   11  A    between atoms: C_22  and  C_43
   12  A    between atoms: C_27  and  C_49
   13  A    between atoms: C_27  and  C_55
   14  A    between atoms: C_41  and  C_55
                            x       y       z     vdW  Elec       q    Type
                         _______ _______ _______ _____ _____    ______ ____

>  <TORSDO>
F 14

$$$$
=
 OpenBabel11062408433D

 55 60  0  0  1  0  0  0  0  0999 V2000
  162.2330  212.8560  148.8880 C   0  0  0  0  0  2  0  0  0  0  0  0
  160.6070  207.6970  150.5240 C   0  0  0  0  0  2  0  0  0  0  0  0
  159.0790  210.0080  153.0090 O   0  0  0  0  0  0  0  0  0  0  0  0
  157.9680  211.8410  155.4390 C   0  0  0  0  0  2  0  0  0  0  0  0
  156.9070  212.8400  155.8160 C   0  0  0  0  0  3  0  0  0  0  0  0
  157.6380  212.5480  153.0610 C   0  0  2  0  0  3  0  0  0  0  0  0
  156.8280  213.7760  153.4980 C   0  0  0  0  0  2  0  0  0  0  0  0
  160.8000  211.1380  154.0570 O   0  0  0  0  0  0  0  0  0  0  0  0
  156.3560  213.6790  154.9260 C   0  0  0  0  0  3  0  0  0  0  0  0
  158.6820  212.2110  154.1380 C   0  0  2  0  0  3  0  0  0  0  0  0
  161.1270  214.4530  150.6440 C   0  0  0  0  0  2  0  0  0  0  0  0
  161.5810  211.0170  147.3320 C   0  0  0  0  0  2  0  0  0  0  0  0
  160.3440  213.5350  151.5570 C   0  0  0  0  0  2  0  0  0  0  0  0
  160.6710  208.1400  147.5300 C   0  0  0  0  0  1  0  0  0  0  0  0
  158.2620  212.7430  151.6690 C   0  0  2  0  0  3  0  0  0  0  0  0
  159.5440  208.6040  151.1250 C   0  0  0  0  0  2  0  0  0  0  0  0
  159.9290  208.9750  152.5390 C   0  0  0  0  0  2  0  0  0  0  0  0
  161.7110  208.4660  149.7840 C   0  0  1  0  0  3  0  0  0  0  0  0
  160.8390  214.0190  148.9080 S   0  0  0  0  0  0  0  0  0  0  0  0
  159.5820  211.0880  153.7370 C   0  0  0  0  0  0  0  0  0  0  0  0
  162.4060  212.2920  147.4950 C   0  0  2  0  0  3  0  0  0  0  0  0
  161.1840  209.1740  148.5280 C   0  0  1  0  0  3  0  0  0  0  0  0
  159.0040  213.9350  151.5880 O   0  0  0  0  0  0  0  0  0  0  0  0
  162.2090  209.9190  147.9320 O   0  0  0  0  0  0  0  0  0  0  0  0
  157.2000  212.6710  150.5700 C   0  0  1  0  0  3  0  0  0  0  0  0
  157.2680  213.5730  148.3750 C   0  0  1  0  0  3  0  0  0  0  0  0
  156.4150  213.8420  150.5540 O   0  0  0  0  0  0  0  0  0  0  0  0
  156.1220  214.0900  149.2050 C   0  0  0  0  0  2  0  0  0  0  0  0
  157.8520  212.4810  149.2190 C   0  0  0  0  0  2  0  0  0  0  0  0
  156.7530  213.0140  147.0610 C   0  0  0  0  0  3  0  0  0  0  0  0
  157.8690  213.0090  146.0350 C   0  0  0  0  0  2  0  0  0  0  0  0
  156.8190  214.0990  146.0020 C   0  0  0  0  0  2  0  0  0  0  0  0
  162.4380  209.4210  150.7220 C   0  0  0  0  0  2  0  0  0  0  0  0
  162.9600  208.7210  151.8100 O   0  0  0  0  0  0  0  0  0  0  0  0
  162.8490  207.3800  151.4420 C   0  0  0  0  0  2  0  0  0  0  0  0
  162.5880  206.5120  152.6640 C   0  0  2  0  0  3  0  0  0  0  0  0
  163.5230  204.3250  152.3410 O   0  0  0  0  0  0  0  0  0  0  0  0
  160.1430  205.3030  151.8170 O   0  0  0  0  0  1  0  0  0  0  0  0
  162.4930  205.0560  152.2860 C   0  0  0  0  0  0  0  0  0  0  0  0
  161.2550  204.5240  151.7950 N   0  0  0  0  0  0  0  0  0  0  0  0
  162.0050  203.2640  149.8620 C   0  0  0  0  0  2  0  0  0  0  0  0
  160.4910  203.2180  149.8380 C   0  0  2  0  0  3  0  0  0  0  0  0
  161.2360  203.2020  151.1650 C   0  0  2  0  0  3  0  0  0  0  0  0
  160.0630  201.8090  149.4950 C   0  0  0  0  0  2  0  0  0  0  0  0
  160.5430  202.1010  147.1790 O   0  0  0  0  0  0  0  0  0  0  0  0
  161.3690  200.1850  148.1300 O   0  0  0  0  0  1  0  0  0  0  0  0
  160.6710  201.3800  148.2050 C   0  0  0  0  0  0  0  0  0  0  0  0
  161.4160  207.4200  155.5780 C   0  0  0  0  0  2  0  0  0  0  0  0
  161.0770  206.2210  154.7120 C   0  0  0  0  0  2  0  0  0  0  0  0
  161.3830  207.0390  153.4670 C   0  0  0  0  0  3  0  0  0  0  0  0
  161.7330  208.2360  154.3360 C   0  0  0  0  0  2  0  0  0  0  0  0
  163.8860  212.0600  147.2200 C   0  0  0  0  0  2  0  0  0  0  0  0
  164.2930  212.6230  145.8650 C   0  0  0  0  0  2  0  0  0  0  0  0
  163.0720  214.4530  144.7340 C   0  0  0  0  0  1  0  0  0  0  0  0
  163.0660  212.9740  145.0440 C   0  0  0  0  0  2  0  0  0  0  0  0
  1 19  1  0  0  0  0
  2 16  1  0  0  0  0
  3 20  1  0  0  0  0
  4  5  1  0  0  0  0
  6  7  1  1  0  0  0
  6 10  1  0  0  0  0
  7  9  1  0  0  0  0
  9  5  2  0  0  0  0
 10  4  1  1  0  0  0
 11 13  1  0  0  0  0
 12 21  1  0  0  0  0
 12 24  1  0  0  0  0
 13 23  1  0  0  0  0
 15 23  1  1  0  0  0
 15  6  1  0  0  0  0
 16 17  1  0  0  0  0
 17  3  1  0  0  0  0
 18  2  1  0  0  0  0
 18 33  1  1  0  0  0
 19 11  1  0  0  0  0
 20  8  2  0  0  0  0
 20 10  1  0  0  0  0
 21 52  1  1  0  0  0
 21  1  1  0  0  0  0
 22 14  1  6  0  0  0
 22 18  1  0  0  0  0
 24 22  1  0  0  0  0
 25 29  1  6  0  0  0
 25 15  1  0  0  0  0
 26 30  1  6  0  0  0
 26 28  1  0  0  0  0
 26 29  1  0  0  0  0
 27 25  1  0  0  0  0
 28 27  1  0  0  0  0
 31 30  1  0  0  0  0
 32 31  1  0  0  0  0
 32 30  1  0  0  0  0
 33 34  1  0  0  0  0
 35 34  1  0  0  0  0
 36 35  1  6  0  0  0
 36 50  1  0  0  0  0
 39 37  2  0  0  0  0
 39 36  1  0  0  0  0
 40 38  1  0  0  0  0
 40 39  1  0  0  0  0
 41 43  1  0  0  0  0
 42 44  1  6  0  0  0
 42 41  1  0  0  0  0
 42 43  1  0  0  0  0
 43 40  1  1  0  0  0
 45 47  2  0  0  0  0
 46 47  1  0  0  0  0
 47 44  1  0  0  0  0
 49 48  1  0  0  0  0
 50 51  1  0  0  0  0
 50 49  1  0  0  0  0
 51 48  1  0  0  0  0
 53 52  1  0  0  0  0
 54 55  1  0  0  0  0
 55 53  1  0  0  0  0
M  END
>  <MODEL>
2

>  <REMARK>
 VINA RESULT:       6.2      1.032      1.313
  Name = 
  14 active torsions:
  status: ('A' for Active; 'I' for Inactive)
    1  A    between atoms: C_6  and  C_14
    2  A    between atoms: C_6  and  C_38
    3  A    between atoms: O_8  and  C_20
    4  A    between atoms: O_8  and  C_22
    5  A    between atoms: C_10  and  C_32
    6  A    between atoms: C_12  and  C_20
    7  A    between atoms: C_12  and  C_42
    8  A    between atoms: C_12  and  C_46
    9  A    between atoms: C_13  and  C_36
   10  A    between atoms: C_21  and  N_53
   11  A    between atoms: C_22  and  C_43
   12  A    between atoms: C_27  and  C_49
   13  A    between atoms: C_27  and  C_55
   14  A    between atoms: C_41  and  C_55
                            x       y       z     vdW  Elec       q    Type
                         _______ _______ _______ _____ _____    ______ ____

>  <TORSDO>
F 14

$$$$
