=
 OpenBabel11062409113D

 37 42  0  0  1  0  0  0  0  0999 V2000
  162.3390  208.1440  156.8370 C   0  0  0  0  0  2  0  0  0  0  0  0
  160.4310  211.1590  154.2500 N   0  0  0  0  0  0  0  0  0  0  0  0
  162.5250  210.0010  151.9020 C   0  0  0  0  0  2  0  0  0  0  0  0
  161.1610  210.4060  156.5320 C   0  0  2  0  0  3  0  0  0  0  0  0
  159.9440  210.5880  153.0050 C   0  0  1  0  0  3  0  0  0  0  0  0
  161.2140  210.1960  155.0050 C   0  0  1  0  0  3  0  0  0  0  0  0
  160.4230  211.3900  151.8200 C   0  0  0  0  0  0  0  0  0  0  0  0
  161.3140  211.8870  156.8690 C   0  0  0  0  0  2  0  0  0  0  0  0
  160.7960  208.8190  154.4650 C   0  0  1  0  0  3  0  0  0  0  0  0
  159.7900  207.9710  156.9980 C   0  0  0  0  0  2  0  0  0  0  0  0
  159.1240  213.1030  154.2210 O   0  0  0  0  0  0  0  0  0  0  0  0
  160.2920  212.6750  156.1880 N   0  0  0  0  0  2  0  0  0  0  0  0
  159.3000  208.0660  155.2350 S   0  0  0  0  0  0  0  0  0  0  0  0
  161.7830  211.1360  151.2090 C   0  0  0  0  0  2  0  0  0  0  0  0
  159.9240  212.3580  154.8460 C   0  0  0  0  0  0  0  0  0  0  0  0
  160.4220  209.1150  153.0160 C   0  0  2  0  0  3  0  0  0  0  0  0
  162.2580  209.6160  157.2610 C   0  0  0  0  0  2  0  0  0  0  0  0
  161.1350  207.3000  157.2610 C   0  0  0  0  0  2  0  0  0  0  0  0
  161.6100  208.7940  152.0960 C   0  0  1  0  0  3  0  0  0  0  0  0
  159.6470  212.3110  151.3590 N   0  0  0  0  0  0  0  0  0  0  0  0
  161.1440  208.3200  150.8560 O   0  0  0  0  0  0  0  0  0  0  0  0
  161.2750  206.9120  150.8220 C   0  0  2  0  0  3  0  0  0  0  0  0
  162.0980  206.3610  151.9860 C   0  0  0  0  0  2  0  0  0  0  0  0
  161.1680  204.0800  152.2080 C   0  0  0  0  0  1  0  0  0  0  0  0
  161.2500  205.4480  152.8500 C   0  0  0  0  0  2  0  0  0  0  0  0
  161.7880  206.4680  149.5970 O   0  0  0  0  0  0  0  0  0  0  0  0
  161.1490  205.3020  147.6580 C   0  0  0  0  0  2  0  0  0  0  0  0
  160.7430  205.7570  149.0050 C   0  0  1  0  0  3  0  0  0  0  0  0
  161.1620  204.4350  148.7650 O   0  0  0  0  0  0  0  0  0  0  0  0
  159.9960  213.1560  150.2410 C   0  0  0  0  0  2  0  0  0  0  0  0
  157.6170  213.4710  150.4120 O   0  0  0  0  0  0  0  0  0  0  0  0
  158.7690  213.8910  149.7190 C   0  0  2  0  0  3  0  0  0  0  0  0
  158.5990  213.6580  148.2140 C   0  0  0  0  0  2  0  0  0  0  0  0
  157.0880  214.0750  146.4120 O   0  0  0  0  0  1  0  0  0  0  0  0
  156.1770  214.1740  148.6180 C   0  0  0  0  0  2  0  0  0  0  0  0
  157.3840  214.4400  147.7240 C   0  0  1  0  0  3  0  0  0  0  0  0
  156.5880  214.3710  150.0770 C   0  0  0  0  0  2  0  0  0  0  0  0
  1 17  1  0  0  0  0
  1 18  1  0  0  0  0
  2 15  1  0  0  0  0
  3 19  1  0  0  0  0
  4  8  1  6  0  0  0
  4 17  1  0  0  0  0
  5  7  1  6  0  0  0
  5 16  1  0  0  0  0
  5  2  1  0  0  0  0
  6  2  1  6  0  0  0
  6  4  1  0  0  0  0
  9  6  1  0  0  0  0
  9 13  1  1  0  0  0
 10 18  1  0  0  0  0
 11 15  2  0  0  0  0
 12  8  1  0  0  0  0
 13 10  1  0  0  0  0
 14  7  1  0  0  0  0
 14  3  1  0  0  0  0
 15 12  1  0  0  0  0
 16  9  1  0  0  0  0
 19 16  1  0  0  0  0
 20  7  2  0  0  0  0
 21 19  1  0  0  0  0
 22 21  1  0  0  0  0
 22 23  1  0  0  0  0
 23 25  1  0  0  0  0
 24 25  1  0  0  0  0
 26 22  1  0  0  0  0
 27 29  1  0  0  0  0
 27 28  1  0  0  0  0
 28 26  1  0  0  0  0
 29 28  1  0  0  0  0
 30 20  1  0  0  0  0
 32 30  1  0  0  0  0
 32 31  1  0  0  0  0
 33 32  1  0  0  0  0
 34 36  1  0  0  0  0
 35 37  1  0  0  0  0
 36 33  1  0  0  0  0
 36 35  1  0  0  0  0
 37 31  1  0  0  0  0
M  END
>  <MODEL>
1

>  <REMARK>
 VINA RESULT:      -5.5      0.000      0.000
  Name = 
  8 active torsions:
  status: ('A' for Active; 'I' for Inactive)
    1  A    between atoms: O_1  and  C_33
    2  A    between atoms: O_1  and  C_36
    3  A    between atoms: C_5  and  C_23
    4  A    between atoms: C_5  and  C_33
    5  A    between atoms: C_6  and  C_31
    6  A    between atoms: O_17  and  C_26
    7  A    between atoms: O_17  and  C_33
    8  A    between atoms: C_31  and  N_37
                            x       y       z     vdW  Elec       q    Type
                         _______ _______ _______ _____ _____    ______ ____

>  <TORSDO>
F 8

$$$$
=
 OpenBabel11062409113D

 37 42  0  0  1  0  0  0  0  0999 V2000
  162.3610  208.0960  156.8010 C   0  0  0  0  0  2  0  0  0  0  0  0
  160.3660  211.1660  154.3490 N   0  0  0  0  0  0  0  0  0  0  0  0
  162.3510  210.0360  151.8950 C   0  0  0  0  0  2  0  0  0  0  0  0
  161.1870  210.3690  156.5850 C   0  0  2  0  0  3  0  0  0  0  0  0
  159.8230  210.6200  153.1170 C   0  0  1  0  0  3  0  0  0  0  0  0
  161.1740  210.1850  155.0540 C   0  0  1  0  0  3  0  0  0  0  0  0
  160.2570  211.4400  151.9260 C   0  0  0  0  0  0  0  0  0  0  0  0
  161.3640  211.8440  156.9400 C   0  0  0  0  0  2  0  0  0  0  0  0
  160.7240  208.8210  154.5080 C   0  0  1  0  0  3  0  0  0  0  0  0
  159.8210  207.9350  157.0670 C   0  0  0  0  0  2  0  0  0  0  0  0
  159.0720  213.1180  154.4090 O   0  0  0  0  0  0  0  0  0  0  0  0
  160.3190  212.6490  156.3170 N   0  0  0  0  0  2  0  0  0  0  0  0
  159.2570  208.0630  155.3290 S   0  0  0  0  0  0  0  0  0  0  0  0
  161.5870  211.1880  151.2530 C   0  0  0  0  0  2  0  0  0  0  0  0
  159.8920  212.3580  154.9870 C   0  0  0  0  0  0  0  0  0  0  0  0
  160.2910  209.1440  153.0820 C   0  0  2  0  0  3  0  0  0  0  0  0
  162.3090  209.5610  157.2530 C   0  0  0  0  0  2  0  0  0  0  0  0
  161.1710  207.2510  157.2610 C   0  0  0  0  0  2  0  0  0  0  0  0
  161.4370  208.8320  152.1070 C   0  0  1  0  0  3  0  0  0  0  0  0
  159.4680  212.3720  151.5140 N   0  0  0  0  0  0  0  0  0  0  0  0
  160.9160  208.3820  150.8800 O   0  0  0  0  0  0  0  0  0  0  0  0
  161.6480  207.2480  150.4560 C   0  0  2  0  0  3  0  0  0  0  0  0
  161.9460  207.2560  148.9570 C   0  0  0  0  0  2  0  0  0  0  0  0
  161.2020  206.4250  146.7490 C   0  0  0  0  0  1  0  0  0  0  0  0
  161.1100  206.2110  148.2450 C   0  0  0  0  0  2  0  0  0  0  0  0
  161.0170  206.0550  150.8300 O   0  0  0  0  0  0  0  0  0  0  0  0
  161.1490  204.7210  152.7610 C   0  0  0  0  0  2  0  0  0  0  0  0
  161.9050  205.4400  151.7150 C   0  0  1  0  0  3  0  0  0  0  0  0
  161.7140  204.0460  151.6640 O   0  0  0  0  0  0  0  0  0  0  0  0
  159.7750  213.2350  150.3970 C   0  0  0  0  0  2  0  0  0  0  0  0
  157.4090  213.5640  150.6810 O   0  0  0  0  0  0  0  0  0  0  0  0
  158.5220  213.9510  149.9110 C   0  0  2  0  0  3  0  0  0  0  0  0
  158.2730  213.6570  148.4280 C   0  0  0  0  0  2  0  0  0  0  0  0
  156.6690  214.0050  146.6920 O   0  0  0  0  0  1  0  0  0  0  0  0
  155.8760  214.1970  148.9380 C   0  0  0  0  0  2  0  0  0  0  0  0
  157.0350  214.4230  147.9710 C   0  0  1  0  0  3  0  0  0  0  0  0
  156.3640  214.4530  150.3640 C   0  0  0  0  0  2  0  0  0  0  0  0
  1 17  1  0  0  0  0
  1 18  1  0  0  0  0
  2 15  1  0  0  0  0
  3 19  1  0  0  0  0
  4  8  1  6  0  0  0
  4 17  1  0  0  0  0
  5  7  1  6  0  0  0
  5  2  1  0  0  0  0
  6  2  1  6  0  0  0
  6  4  1  0  0  0  0
  9  6  1  0  0  0  0
  9 13  1  1  0  0  0
 10 18  1  0  0  0  0
 11 15  2  0  0  0  0
 12  8  1  0  0  0  0
 13 10  1  0  0  0  0
 14  3  1  0  0  0  0
 14  7  1  0  0  0  0
 15 12  1  0  0  0  0
 16  5  1  0  0  0  0
 16  9  1  0  0  0  0
 19 16  1  0  0  0  0
 20  7  2  0  0  0  0
 21 19  1  0  0  0  0
 22 26  1  0  0  0  0
 22 21  1  0  0  0  0
 23 22  1  0  0  0  0
 24 25  1  0  0  0  0
 25 23  1  0  0  0  0
 26 28  1  0  0  0  0
 28 27  1  0  0  0  0
 29 28  1  0  0  0  0
 29 27  1  0  0  0  0
 30 20  1  0  0  0  0
 32 30  1  0  0  0  0
 32 31  1  0  0  0  0
 33 32  1  0  0  0  0
 34 36  1  0  0  0  0
 35 37  1  0  0  0  0
 36 33  1  0  0  0  0
 36 35  1  0  0  0  0
 37 31  1  0  0  0  0
M  END
>  <MODEL>
2

>  <REMARK>
 VINA RESULT:      -5.1      0.761      1.767
  Name = 
  8 active torsions:
  status: ('A' for Active; 'I' for Inactive)
    1  A    between atoms: O_1  and  C_33
    2  A    between atoms: O_1  and  C_36
    3  A    between atoms: C_5  and  C_23
    4  A    between atoms: C_5  and  C_33
    5  A    between atoms: C_6  and  C_31
    6  A    between atoms: O_17  and  C_26
    7  A    between atoms: O_17  and  C_33
    8  A    between atoms: C_31  and  N_37
                            x       y       z     vdW  Elec       q    Type
                         _______ _______ _______ _____ _____    ______ ____

>  <TORSDO>
F 8

$$$$
=
 OpenBabel11062409113D

 37 42  0  0  1  0  0  0  0  0999 V2000
  162.5780  205.3320  144.7250 C   0  0  0  0  0  2  0  0  0  0  0  0
  161.2290  204.8330  148.8900 N   0  0  0  0  0  0  0  0  0  0  0  0
  163.1650  207.5000  149.4990 C   0  0  0  0  0  2  0  0  0  0  0  0
  161.7790  203.8340  146.6510 C   0  0  2  0  0  3  0  0  0  0  0  0
  160.6850  206.0610  149.4440 C   0  0  1  0  0  3  0  0  0  0  0  0
  161.8320  205.0590  147.5870 C   0  0  1  0  0  3  0  0  0  0  0  0
  161.3120  206.3720  150.7810 C   0  0  0  0  0  0  0  0  0  0  0  0
  162.1560  202.5670  147.4140 C   0  0  0  0  0  2  0  0  0  0  0  0
  161.2140  206.3700  147.0760 C   0  0  1  0  0  3  0  0  0  0  0  0
  160.0310  205.0950  144.8120 C   0  0  0  0  0  2  0  0  0  0  0  0
  160.2460  203.3520  150.4170 O   0  0  0  0  0  0  0  0  0  0  0  0
  161.2870  202.3890  148.5720 N   0  0  0  0  0  2  0  0  0  0  0  0
  159.6010  206.2160  146.1960 S   0  0  0  0  0  0  0  0  0  0  0  0
  162.6270  207.1120  150.8700 C   0  0  0  0  0  2  0  0  0  0  0  0
  160.9030  203.5180  149.3560 C   0  0  0  0  0  0  0  0  0  0  0  0
  160.9250  207.1400  148.3600 C   0  0  2  0  0  3  0  0  0  0  0  0
  162.7210  203.9880  145.4490 C   0  0  0  0  0  2  0  0  0  0  0  0
  161.2470  205.5150  143.9920 C   0  0  0  0  0  2  0  0  0  0  0  0
  162.0680  208.1270  148.6430 C   0  0  1  0  0  3  0  0  0  0  0  0
  160.7010  205.9700  151.8440 N   0  0  0  0  0  0  0  0  0  0  0  0
  161.5610  209.2870  149.2590 O   0  0  0  0  0  0  0  0  0  0  0  0
  162.0120  210.4220  148.5460 C   0  0  2  0  0  3  0  0  0  0  0  0
  162.2460  211.6360  149.4430 C   0  0  0  0  0  2  0  0  0  0  0  0
  160.4600  212.4510  150.9490 C   0  0  0  0  0  1  0  0  0  0  0  0
  161.5740  211.4390  150.7890 C   0  0  0  0  0  2  0  0  0  0  0  0
  161.1530  210.7450  147.4880 O   0  0  0  0  0  0  0  0  0  0  0  0
  160.5920  212.5790  146.1290 C   0  0  0  0  0  2  0  0  0  0  0  0
  161.1890  212.1380  147.4070 C   0  0  1  0  0  3  0  0  0  0  0  0
  159.8710  212.6300  147.3350 O   0  0  0  0  0  0  0  0  0  0  0  0
  161.2040  206.1910  153.1790 C   0  0  0  0  0  2  0  0  0  0  0  0
  161.2320  208.5940  153.3050 O   0  0  0  0  0  0  0  0  0  0  0  0
  160.5830  207.4410  153.7880 C   0  0  2  0  0  3  0  0  0  0  0  0
  160.6550  207.3900  155.3170 C   0  0  0  0  0  2  0  0  0  0  0  0
  160.2310  208.7170  157.2590 O   0  0  0  0  0  1  0  0  0  0  0  0
  160.5190  209.8930  155.1990 C   0  0  0  0  0  2  0  0  0  0  0  0
  159.9890  208.6390  155.8880 C   0  0  1  0  0  3  0  0  0  0  0  0
  160.4440  209.6960  153.6850 C   0  0  0  0  0  2  0  0  0  0  0  0
  1 17  1  0  0  0  0
  2 15  1  0  0  0  0
  2  5  1  0  0  0  0
  3 14  1  0  0  0  0
  4 17  1  6  0  0  0
  4  8  1  0  0  0  0
  4  6  1  0  0  0  0
  5  7  1  1  0  0  0
  6  2  1  1  0  0  0
  7 14  1  0  0  0  0
  7 20  2  0  0  0  0
  8 12  1  0  0  0  0
  9 13  1  1  0  0  0
  9  6  1  0  0  0  0
  9 16  1  0  0  0  0
 10 13  1  0  0  0  0
 12 15  1  0  0  0  0
 15 11  2  0  0  0  0
 16 19  1  0  0  0  0
 16  5  1  0  0  0  0
 18  1  1  0  0  0  0
 18 10  1  0  0  0  0
 19 21  1  0  0  0  0
 19  3  1  0  0  0  0
 20 30  1  0  0  0  0
 22 21  1  0  0  0  0
 22 23  1  0  0  0  0
 23 25  1  0  0  0  0
 25 24  1  0  0  0  0
 26 22  1  0  0  0  0
 27 29  1  0  0  0  0
 27 28  1  0  0  0  0
 28 26  1  0  0  0  0
 29 28  1  0  0  0  0
 30 32  1  0  0  0  0
 31 37  1  0  0  0  0
 31 32  1  0  0  0  0
 32 33  1  0  0  0  0
 33 36  1  0  0  0  0
 35 36  1  0  0  0  0
 36 34  1  0  0  0  0
 37 35  1  0  0  0  0
M  END
>  <MODEL>
3

>  <REMARK>
 VINA RESULT:      -4.8      3.615      8.772
  Name = 
  8 active torsions:
  status: ('A' for Active; 'I' for Inactive)
    1  A    between atoms: O_1  and  C_33
    2  A    between atoms: O_1  and  C_36
    3  A    between atoms: C_5  and  C_23
    4  A    between atoms: C_5  and  C_33
    5  A    between atoms: C_6  and  C_31
    6  A    between atoms: O_17  and  C_26
    7  A    between atoms: O_17  and  C_33
    8  A    between atoms: C_31  and  N_37
                            x       y       z     vdW  Elec       q    Type
                         _______ _______ _______ _____ _____    ______ ____

>  <TORSDO>
F 8

$$$$
=
 OpenBabel11062409113D

 37 42  0  0  1  0  0  0  0  0999 V2000
  160.5050  212.6090  146.7530 C   0  0  0  0  0  2  0  0  0  0  0  0
  161.2530  210.6100  150.6080 N   0  0  0  0  0  0  0  0  0  0  0  0
  160.4770  207.8070  148.9400 C   0  0  0  0  0  2  0  0  0  0  0  0
  160.5150  212.6360  149.3210 C   0  0  2  0  0  3  0  0  0  0  0  0
  162.1930  209.5090  150.4850 C   0  0  1  0  0  3  0  0  0  0  0  0
  160.8800  211.1380  149.3070 C   0  0  1  0  0  3  0  0  0  0  0  0
  161.6450  208.2580  151.1280 C   0  0  0  0  0  0  0  0  0  0  0  0
  159.6190  212.9530  150.5160 C   0  0  0  0  0  2  0  0  0  0  0  0
  161.9960  210.6890  148.3510 C   0  0  1  0  0  3  0  0  0  0  0  0
  162.7430  213.3740  147.7330 C   0  0  0  0  0  2  0  0  0  0  0  0
  161.4660  210.9310  152.9190 O   0  0  0  0  0  0  0  0  0  0  0  0
  160.2650  212.5510  151.7600 N   0  0  0  0  0  2  0  0  0  0  0  0
  163.4780  211.7820  148.2650 S   0  0  0  0  0  0  0  0  0  0  0  0
  160.7220  207.3330  150.3670 C   0  0  0  0  0  2  0  0  0  0  0  0
  161.0030  211.3320  151.8200 C   0  0  0  0  0  0  0  0  0  0  0  0
  162.4730  209.3780  148.9680 C   0  0  2  0  0  3  0  0  0  0  0  0
  159.7960  213.0660  148.0340 C   0  0  0  0  0  2  0  0  0  0  0  0
  161.8500  213.2940  146.4980 C   0  0  0  0  0  2  0  0  0  0  0  0
  161.7910  208.1940  148.2640 C   0  0  1  0  0  3  0  0  0  0  0  0
  161.9730  208.0130  152.3500 N   0  0  0  0  0  0  0  0  0  0  0  0
  162.6660  207.0930  148.2160 O   0  0  0  0  0  0  0  0  0  0  0  0
  162.0250  206.0230  147.5500 C   0  0  2  0  0  3  0  0  0  0  0  0
  162.3290  204.6620  148.1760 C   0  0  0  0  0  2  0  0  0  0  0  0
  161.1140  203.7540  150.1290 C   0  0  0  0  0  1  0  0  0  0  0  0
  161.0490  203.9920  148.6360 C   0  0  0  0  0  2  0  0  0  0  0  0
  162.3160  206.0160  146.1800 O   0  0  0  0  0  0  0  0  0  0  0  0
  161.2900  205.4480  144.1430 C   0  0  0  0  0  2  0  0  0  0  0  0
  161.0820  205.8520  145.5500 C   0  0  1  0  0  3  0  0  0  0  0  0
  160.9500  204.5120  145.1360 O   0  0  0  0  0  0  0  0  0  0  0  0
  161.5040  206.8590  153.0820 C   0  0  0  0  0  2  0  0  0  0  0  0
  159.9940  206.8710  154.9550 O   0  0  0  0  0  0  0  0  0  0  0  0
  161.3030  207.2000  154.5520 C   0  0  2  0  0  3  0  0  0  0  0  0
  161.5810  208.6850  154.8060 C   0  0  0  0  0  2  0  0  0  0  0  0
  161.4460  210.3530  156.5110 O   0  0  0  0  0  1  0  0  0  0  0  0
  160.0840  208.4120  156.8000 C   0  0  0  0  0  2  0  0  0  0  0  0
  161.4070  208.9770  156.2930 C   0  0  1  0  0  3  0  0  0  0  0  0
  159.9650  206.9530  156.3600 C   0  0  0  0  0  2  0  0  0  0  0  0
  1 17  1  0  0  0  0
  2 15  1  0  0  0  0
  3 14  1  0  0  0  0
  4 17  1  6  0  0  0
  4  8  1  0  0  0  0
  5  2  1  0  0  0  0
  5  7  1  6  0  0  0
  6  4  1  0  0  0  0
  6  2  1  1  0  0  0
  7 20  2  0  0  0  0
  8 12  1  0  0  0  0
  9 13  1  1  0  0  0
  9 16  1  0  0  0  0
  9  6  1  0  0  0  0
 10 13  1  0  0  0  0
 12 15  1  0  0  0  0
 14  7  1  0  0  0  0
 15 11  2  0  0  0  0
 16  5  1  0  0  0  0
 18  1  1  0  0  0  0
 18 10  1  0  0  0  0
 19  3  1  0  0  0  0
 19 16  1  0  0  0  0
 20 30  1  0  0  0  0
 21 19  1  0  0  0  0
 22 23  1  0  0  0  0
 22 21  1  0  0  0  0
 23 25  1  0  0  0  0
 25 24  1  0  0  0  0
 26 22  1  0  0  0  0
 27 29  1  0  0  0  0
 27 28  1  0  0  0  0
 28 26  1  0  0  0  0
 29 28  1  0  0  0  0
 30 32  1  0  0  0  0
 31 37  1  0  0  0  0
 32 33  1  0  0  0  0
 32 31  1  0  0  0  0
 33 36  1  0  0  0  0
 36 34  1  0  0  0  0
 36 35  1  0  0  0  0
 37 35  1  0  0  0  0
M  END
>  <MODEL>
4

>  <REMARK>
 VINA RESULT:      -3.9      3.028      6.973
  Name = 
  8 active torsions:
  status: ('A' for Active; 'I' for Inactive)
    1  A    between atoms: O_1  and  C_33
    2  A    between atoms: O_1  and  C_36
    3  A    between atoms: C_5  and  C_23
    4  A    between atoms: C_5  and  C_33
    5  A    between atoms: C_6  and  C_31
    6  A    between atoms: O_17  and  C_26
    7  A    between atoms: O_17  and  C_33
    8  A    between atoms: C_31  and  N_37
                            x       y       z     vdW  Elec       q    Type
                         _______ _______ _______ _____ _____    ______ ____

>  <TORSDO>
F 8

$$$$
=
 OpenBabel11062409113D

 37 42  0  0  1  0  0  0  0  0999 V2000
  159.9530  204.4400  152.0530 C   0  0  0  0  0  2  0  0  0  0  0  0
  161.6540  207.8740  149.8770 N   0  0  0  0  0  0  0  0  0  0  0  0
  159.9950  209.7150  152.1330 C   0  0  0  0  0  2  0  0  0  0  0  0
  160.8160  205.5060  149.8820 C   0  0  2  0  0  3  0  0  0  0  0  0
  162.3410  208.8010  150.7600 C   0  0  1  0  0  3  0  0  0  0  0  0
  160.9470  206.8490  150.6270 C   0  0  1  0  0  3  0  0  0  0  0  0
  161.8710  210.2160  150.5260 C   0  0  0  0  0  0  0  0  0  0  0  0
  160.4180  205.7420  148.4270 C   0  0  0  0  0  2  0  0  0  0  0  0
  161.6120  206.8300  152.0120 C   0  0  1  0  0  3  0  0  0  0  0  0
  162.4710  204.1230  151.7190 C   0  0  0  0  0  2  0  0  0  0  0  0
  162.6620  208.5600  147.8760 O   0  0  0  0  0  0  0  0  0  0  0  0
  161.3780  206.6230  147.7710 N   0  0  0  0  0  2  0  0  0  0  0  0
  163.1160  205.7760  152.1750 S   0  0  0  0  0  0  0  0  0  0  0  0
  160.6310  210.7460  151.2090 C   0  0  0  0  0  2  0  0  0  0  0  0
  161.9210  207.7390  148.4750 C   0  0  0  0  0  0  0  0  0  0  0  0
  162.0820  208.2700  152.1910 C   0  0  2  0  0  3  0  0  0  0  0  0
  159.7770  204.5830  150.5360 C   0  0  0  0  0  2  0  0  0  0  0  0
  161.2170  203.6880  152.4730 C   0  0  0  0  0  2  0  0  0  0  0  0
  161.0500  209.0550  153.0160 C   0  0  1  0  0  3  0  0  0  0  0  0
  162.5480  210.9510  149.7120 N   0  0  0  0  0  0  0  0  0  0  0  0
  161.7020  210.0150  153.8130 O   0  0  0  0  0  0  0  0  0  0  0  0
  161.1970  209.9380  155.1320 C   0  0  2  0  0  3  0  0  0  0  0  0
  160.4220  208.6480  155.4010 C   0  0  0  0  0  2  0  0  0  0  0  0
  160.2140  207.0300  157.2600 C   0  0  0  0  0  1  0  0  0  0  0  0
  161.1890  207.7590  156.3600 C   0  0  0  0  0  2  0  0  0  0  0  0
  160.4210  211.0590  155.4570 O   0  0  0  0  0  0  0  0  0  0  0  0
  158.2730  211.6230  156.2260 C   0  0  0  0  0  2  0  0  0  0  0  0
  159.1370  210.5570  155.6770 C   0  0  1  0  0  3  0  0  0  0  0  0
  158.2240  211.2600  154.8680 O   0  0  0  0  0  0  0  0  0  0  0  0
  162.1950  212.3140  149.3920 C   0  0  0  0  0  2  0  0  0  0  0  0
  162.5040  213.6770  147.4330 O   0  0  0  0  0  0  0  0  0  0  0  0
  161.9470  212.4690  147.8970 C   0  0  2  0  0  3  0  0  0  0  0  0
  160.4470  212.4220  147.5900 C   0  0  0  0  0  2  0  0  0  0  0  0
  158.8900  212.7140  145.8020 O   0  0  0  0  0  1  0  0  0  0  0  0
  161.0400  213.7170  145.5250 C   0  0  0  0  0  2  0  0  0  0  0  0
  160.2440  212.5410  146.0830 C   0  0  1  0  0  3  0  0  0  0  0  0
  162.4810  213.6240  146.0270 C   0  0  0  0  0  2  0  0  0  0  0  0
  1 18  1  0  0  0  0
  2  5  1  0  0  0  0
  3 19  1  0  0  0  0
  4  8  1  6  0  0  0
  4 17  1  0  0  0  0
  4  6  1  0  0  0  0
  5  7  1  1  0  0  0
  5 16  1  0  0  0  0
  6  2  1  6  0  0  0
  6  9  1  0  0  0  0
  7 14  1  0  0  0  0
  9 13  1  6  0  0  0
  9 16  1  0  0  0  0
 10 13  1  0  0  0  0
 10 18  1  0  0  0  0
 11 15  2  0  0  0  0
 12  8  1  0  0  0  0
 12 15  1  0  0  0  0
 14  3  1  0  0  0  0
 15  2  1  0  0  0  0
 16 19  1  0  0  0  0
 17  1  1  0  0  0  0
 19 21  1  0  0  0  0
 20  7  2  0  0  0  0
 21 22  1  0  0  0  0
 22 23  1  0  0  0  0
 22 26  1  0  0  0  0
 23 25  1  0  0  0  0
 25 24  1  0  0  0  0
 26 28  1  0  0  0  0
 28 27  1  0  0  0  0
 29 28  1  0  0  0  0
 29 27  1  0  0  0  0
 30 20  1  0  0  0  0
 31 32  1  0  0  0  0
 32 30  1  0  0  0  0
 33 32  1  0  0  0  0
 34 36  1  0  0  0  0
 35 37  1  0  0  0  0
 35 36  1  0  0  0  0
 36 33  1  0  0  0  0
 37 31  1  0  0  0  0
M  END
>  <MODEL>
5

>  <REMARK>
 VINA RESULT:      -3.8      2.886      6.144
  Name = 
  8 active torsions:
  status: ('A' for Active; 'I' for Inactive)
    1  A    between atoms: O_1  and  C_33
    2  A    between atoms: O_1  and  C_36
    3  A    between atoms: C_5  and  C_23
    4  A    between atoms: C_5  and  C_33
    5  A    between atoms: C_6  and  C_31
    6  A    between atoms: O_17  and  C_26
    7  A    between atoms: O_17  and  C_33
    8  A    between atoms: C_31  and  N_37
                            x       y       z     vdW  Elec       q    Type
                         _______ _______ _______ _____ _____    ______ ____

>  <TORSDO>
F 8

$$$$
=
 OpenBabel11062409113D

 37 42  0  0  1  0  0  0  0  0999 V2000
  159.6870  211.6900  156.2020 C   0  0  0  0  0  2  0  0  0  0  0  0
  161.0980  208.1650  153.9650 N   0  0  0  0  0  0  0  0  0  0  0  0
  160.2110  209.9280  151.2560 C   0  0  0  0  0  2  0  0  0  0  0  0
  160.0820  209.1580  156.0360 C   0  0  2  0  0  3  0  0  0  0  0  0
  162.0600  208.5150  152.9330 C   0  0  1  0  0  3  0  0  0  0  0  0
  160.5100  209.3490  154.5670 C   0  0  1  0  0  3  0  0  0  0  0  0
  161.6730  207.9050  151.6080 C   0  0  0  0  0  0  0  0  0  0  0  0
  159.3630  207.8220  156.2100 C   0  0  0  0  0  2  0  0  0  0  0  0
  161.4890  210.4920  154.2570 C   0  0  1  0  0  3  0  0  0  0  0  0
  162.0090  210.9870  157.0200 C   0  0  0  0  0  2  0  0  0  0  0  0
  161.6420  205.8910  154.1230 O   0  0  0  0  0  0  0  0  0  0  0  0
  160.2060  206.7230  155.7540 N   0  0  0  0  0  2  0  0  0  0  0  0
  162.8890  210.7030  155.4380 S   0  0  0  0  0  0  0  0  0  0  0  0
  160.6900  208.5970  150.6910 C   0  0  0  0  0  2  0  0  0  0  0  0
  161.0010  206.8740  154.5790 C   0  0  0  0  0  0  0  0  0  0  0  0
  162.1130  210.0620  152.9330 C   0  0  2  0  0  3  0  0  0  0  0  0
  159.1590  210.2850  156.5190 C   0  0  0  0  0  2  0  0  0  0  0  0
  160.9450  212.0810  156.9810 C   0  0  0  0  0  2  0  0  0  0  0  0
  161.3890  210.7540  151.7680 C   0  0  1  0  0  3  0  0  0  0  0  0
  162.1920  206.7680  151.2910 N   0  0  0  0  0  0  0  0  0  0  0  0
  162.2970  211.0220  150.7270 O   0  0  0  0  0  0  0  0  0  0  0  0
  161.8170  212.1120  149.9650 C   0  0  2  0  0  3  0  0  0  0  0  0
  160.5810  212.7710  150.5780 C   0  0  0  0  0  2  0  0  0  0  0  0
  158.6460  213.7010  149.3510 C   0  0  0  0  0  1  0  0  0  0  0  0
  160.1020  213.9150  149.7050 C   0  0  0  0  0  2  0  0  0  0  0  0
  161.5770  211.7490  148.6340 O   0  0  0  0  0  0  0  0  0  0  0  0
  162.4890  212.9500  146.8300 C   0  0  0  0  0  2  0  0  0  0  0  0
  162.7650  212.0390  147.9610 C   0  0  1  0  0  3  0  0  0  0  0  0
  163.0170  213.4220  148.0450 O   0  0  0  0  0  0  0  0  0  0  0  0
  161.8920  206.0750  150.0600 C   0  0  0  0  0  2  0  0  0  0  0  0
  161.9540  204.0390  151.3420 O   0  0  0  0  0  0  0  0  0  0  0  0
  161.2360  204.7300  150.3470 C   0  0  2  0  0  3  0  0  0  0  0  0
  161.1500  203.8880  149.0690 C   0  0  0  0  0  2  0  0  0  0  0  0
  160.5560  201.7060  148.3000 O   0  0  0  0  0  1  0  0  0  0  0  0
  161.0760  201.9180  150.6220 C   0  0  0  0  0  2  0  0  0  0  0  0
  160.4540  202.5690  149.3900 C   0  0  1  0  0  3  0  0  0  0  0  0
  161.1540  202.9530  151.7440 C   0  0  0  0  0  2  0  0  0  0  0  0
  1 17  1  0  0  0  0
  1 18  1  0  0  0  0
  2 15  1  0  0  0  0
  3 19  1  0  0  0  0
  4  8  1  6  0  0  0
  4 17  1  0  0  0  0
  5  7  1  6  0  0  0
  5  2  1  0  0  0  0
  6  2  1  1  0  0  0
  6  4  1  0  0  0  0
  9  6  1  0  0  0  0
  9 13  1  1  0  0  0
 11 15  2  0  0  0  0
 12  8  1  0  0  0  0
 13 10  1  0  0  0  0
 14  3  1  0  0  0  0
 14  7  1  0  0  0  0
 15 12  1  0  0  0  0
 16  5  1  0  0  0  0
 16  9  1  0  0  0  0
 18 10  1  0  0  0  0
 19 16  1  0  0  0  0
 20  7  2  0  0  0  0
 21 19  1  0  0  0  0
 22 23  1  0  0  0  0
 22 21  1  0  0  0  0
 24 25  1  0  0  0  0
 25 23  1  0  0  0  0
 26 22  1  0  0  0  0
 27 28  1  0  0  0  0
 27 29  1  0  0  0  0
 28 29  1  0  0  0  0
 28 26  1  0  0  0  0
 30 32  1  0  0  0  0
 30 20  1  0  0  0  0
 31 37  1  0  0  0  0
 32 31  1  0  0  0  0
 33 36  1  0  0  0  0
 33 32  1  0  0  0  0
 34 36  1  0  0  0  0
 35 37  1  0  0  0  0
 36 35  1  0  0  0  0
M  END
>  <MODEL>
6

>  <REMARK>
 VINA RESULT:      -3.5      2.660      7.038
  Name = 
  8 active torsions:
  status: ('A' for Active; 'I' for Inactive)
    1  A    between atoms: O_1  and  C_33
    2  A    between atoms: O_1  and  C_36
    3  A    between atoms: C_5  and  C_23
    4  A    between atoms: C_5  and  C_33
    5  A    between atoms: C_6  and  C_31
    6  A    between atoms: O_17  and  C_26
    7  A    between atoms: O_17  and  C_33
    8  A    between atoms: C_31  and  N_37
                            x       y       z     vdW  Elec       q    Type
                         _______ _______ _______ _____ _____    ______ ____

>  <TORSDO>
F 8

$$$$
=
 OpenBabel11062409113D

 37 42  0  0  1  0  0  0  0  0999 V2000
  155.8260  212.6070  157.2580 C   0  0  0  0  0  2  0  0  0  0  0  0
  156.4570  213.3220  152.9550 N   0  0  0  0  0  0  0  0  0  0  0  0
  159.6010  214.0460  153.8640 C   0  0  0  0  0  2  0  0  0  0  0  0
  154.9380  213.3200  154.9560 C   0  0  2  0  0  3  0  0  0  0  0  0
  157.5930  212.5800  152.4340 C   0  0  1  0  0  3  0  0  0  0  0  0
  156.3740  213.2190  154.4020 C   0  0  1  0  0  3  0  0  0  0  0  0
  158.5170  213.4870  151.6580 C   0  0  0  0  0  0  0  0  0  0  0  0
  154.1810  214.4520  154.2650 C   0  0  0  0  0  2  0  0  0  0  0  0
  157.1880  211.9680  154.7680 C   0  0  1  0  0  3  0  0  0  0  0  0
  154.9210  210.6440  155.8870 C   0  0  0  0  0  2  0  0  0  0  0  0
  155.3920  213.7200  150.9060 O   0  0  0  0  0  0  0  0  0  0  0  0
  154.1820  214.2590  152.8190 N   0  0  0  0  0  2  0  0  0  0  0  0
  156.2850  210.3630  154.6970 S   0  0  0  0  0  0  0  0  0  0  0  0
  159.5830  214.2970  152.3610 C   0  0  0  0  0  2  0  0  0  0  0  0
  155.3550  213.7800  152.1630 C   0  0  0  0  0  0  0  0  0  0  0  0
  158.2440  211.9090  153.6680 C   0  0  2  0  0  3  0  0  0  0  0  0
  154.9210  213.5640  156.4710 C   0  0  0  0  0  2  0  0  0  0  0  0
  155.3540  211.1520  157.2600 C   0  0  0  0  0  2  0  0  0  0  0  0
  159.5490  212.5500  154.1650 C   0  0  1  0  0  3  0  0  0  0  0  0
  158.3580  213.5630  150.3810 N   0  0  0  0  0  0  0  0  0  0  0  0
  160.6550  211.8910  153.5970 O   0  0  0  0  0  0  0  0  0  0  0  0
  160.6600  210.5440  154.0270 C   0  0  2  0  0  3  0  0  0  0  0  0
  161.0170  210.3910  155.5060 C   0  0  0  0  0  2  0  0  0  0  0  0
  162.8390  210.4190  157.1790 C   0  0  0  0  0  1  0  0  0  0  0  0
  162.4940  210.6600  155.7250 C   0  0  0  0  0  2  0  0  0  0  0  0
  161.4930  209.7480  153.2310 O   0  0  0  0  0  0  0  0  0  0  0  0
  161.9390  209.3710  150.9540 C   0  0  0  0  0  2  0  0  0  0  0  0
  160.9440  209.8240  151.9490 C   0  0  1  0  0  3  0  0  0  0  0  0
  160.8980  208.5320  151.3910 O   0  0  0  0  0  0  0  0  0  0  0  0
  159.1660  214.4040  149.5290 C   0  0  0  0  0  2  0  0  0  0  0  0
  161.4190  213.7560  148.9860 O   0  0  0  0  0  0  0  0  0  0  0  0
  160.0680  213.5590  148.6390 C   0  0  2  0  0  3  0  0  0  0  0  0
  159.8420  213.9000  147.1630 C   0  0  0  0  0  2  0  0  0  0  0  0
  160.7020  213.4430  144.9810 O   0  0  0  0  0  1  0  0  0  0  0  0
  162.1700  213.0270  146.8200 C   0  0  0  0  0  2  0  0  0  0  0  0
  160.7330  213.0070  146.3050 C   0  0  1  0  0  3  0  0  0  0  0  0
  162.1600  212.7590  148.3250 C   0  0  0  0  0  2  0  0  0  0  0  0
  1 18  1  0  0  0  0
  3 19  1  0  0  0  0
  4  8  1  6  0  0  0
  4 17  1  0  0  0  0
  5  7  1  1  0  0  0
  5  2  1  0  0  0  0
  5 16  1  0  0  0  0
  6  2  1  6  0  0  0
  6  9  1  0  0  0  0
  6  4  1  0  0  0  0
  7 14  1  0  0  0  0
  9 13  1  6  0  0  0
 10 18  1  0  0  0  0
 11 15  2  0  0  0  0
 12  8  1  0  0  0  0
 13 10  1  0  0  0  0
 14  3  1  0  0  0  0
 15 12  1  0  0  0  0
 15  2  1  0  0  0  0
 16 19  1  0  0  0  0
 16  9  1  0  0  0  0
 17  1  1  0  0  0  0
 20  7  2  0  0  0  0
 21 22  1  0  0  0  0
 21 19  1  0  0  0  0
 22 23  1  0  0  0  0
 23 25  1  0  0  0  0
 25 24  1  0  0  0  0
 26 22  1  0  0  0  0
 27 29  1  0  0  0  0
 27 28  1  0  0  0  0
 28 26  1  0  0  0  0
 29 28  1  0  0  0  0
 30 20  1  0  0  0  0
 32 31  1  0  0  0  0
 32 30  1  0  0  0  0
 33 32  1  0  0  0  0
 34 36  1  0  0  0  0
 35 37  1  0  0  0  0
 36 35  1  0  0  0  0
 36 33  1  0  0  0  0
 37 31  1  0  0  0  0
M  END
>  <MODEL>
7

>  <REMARK>
 VINA RESULT:      -3.0      3.198      5.306
  Name = 
  8 active torsions:
  status: ('A' for Active; 'I' for Inactive)
    1  A    between atoms: O_1  and  C_33
    2  A    between atoms: O_1  and  C_36
    3  A    between atoms: C_5  and  C_23
    4  A    between atoms: C_5  and  C_33
    5  A    between atoms: C_6  and  C_31
    6  A    between atoms: O_17  and  C_26
    7  A    between atoms: O_17  and  C_33
    8  A    between atoms: C_31  and  N_37
                            x       y       z     vdW  Elec       q    Type
                         _______ _______ _______ _____ _____    ______ ____

>  <TORSDO>
F 8

$$$$
