=
 OpenBabel11052423173D

 27 30  0  0  0  0  0  0  0  0999 V2000
  161.4100  208.8630  153.5890 N   0  0  0  0  0  0  0  0  0  0  0  0
  161.2110  206.7380  152.3520 C   0  0  0  0  0  3  0  0  0  0  0  0
  161.5650  205.9770  148.7790 N   0  0  0  0  0  0  0  0  0  0  0  0
  161.3510  203.9390  147.5120 N   0  0  0  0  0  1  0  0  0  0  0  0
  161.7640  208.7650  151.1460 C   0  0  0  0  0  3  0  0  0  0  0  0
  160.9790  204.6500  151.1390 C   0  0  0  0  0  3  0  0  0  0  0  0
  161.0140  203.9530  149.9290 C   0  0  0  0  0  3  0  0  0  0  0  0
  161.2410  206.0200  151.1550 C   0  0  0  0  0  0  0  0  0  0  0  0
  161.3120  204.6400  148.7490 C   0  0  0  0  0  0  0  0  0  0  0  0
  161.5380  206.6790  149.9430 C   0  0  0  0  0  0  0  0  0  0  0  0
  161.4790  208.1150  152.3580 C   0  0  0  0  0  0  0  0  0  0  0  0
  161.7970  208.0510  149.9450 C   0  0  0  0  0  3  0  0  0  0  0  0
  160.1890  207.0720  157.2610 C   0  0  0  0  0  3  0  0  0  0  0  0
  160.9990  208.2410  154.8300 C   0  0  0  0  0  0  0  0  0  0  0  0
  159.7860  207.5340  154.9200 C   0  0  0  0  0  3  0  0  0  0  0  0
  159.3850  206.9510  156.1250 C   0  0  0  0  0  3  0  0  0  0  0  0
  161.3910  207.7790  157.1910 C   0  0  0  0  0  3  0  0  0  0  0  0
  161.7910  208.3610  155.9860 C   0  0  0  0  0  3  0  0  0  0  0  0
  161.6170  210.3150  153.5520 C   0  0  0  0  0  2  0  0  0  0  0  0
  161.1870  211.7130  156.3340 Cl  0  0  0  0  0  0  0  0  0  0  0  0
  157.9290  212.4620  154.0940 C   0  0  0  0  0  0  0  0  0  0  0  0
  156.4280  213.3410  154.2910 Cl  0  0  0  0  0  0  0  0  0  0  0  0
  160.3340  211.0570  153.7780 C   0  0  0  0  0  0  0  0  0  0  0  0
  158.8590  212.4270  155.1360 C   0  0  0  0  0  3  0  0  0  0  0  0
  158.1970  211.7960  152.8970 C   0  0  0  0  0  3  0  0  0  0  0  0
  159.3950  211.0970  152.7410 C   0  0  0  0  0  3  0  0  0  0  0  0
  160.0610  211.7290  154.9870 C   0  0  0  0  0  0  0  0  0  0  0  0
  1 14  1  0  0  0  0
  2 11  1  0  0  0  0
  3 10  1  0  0  0  0
  4  9  1  0  0  0  0
  5 11  2  0  0  0  0
  6  8  1  0  0  0  0
  7  6  2  0  0  0  0
  8  2  2  0  0  0  0
  9  3  2  0  0  0  0
  9  7  1  0  0  0  0
 10 12  2  0  0  0  0
 10  8  1  0  0  0  0
 11  1  1  0  0  0  0
 12  5  1  0  0  0  0
 14 15  2  0  0  0  0
 14 18  1  0  0  0  0
 15 16  1  0  0  0  0
 16 13  2  0  0  0  0
 17 13  1  0  0  0  0
 18 17  2  0  0  0  0
 19  1  1  0  0  0  0
 19 23  1  0  0  0  0
 21 22  1  0  0  0  0
 21 24  1  0  0  0  0
 23 27  1  0  0  0  0
 25 21  2  0  0  0  0
 26 25  1  0  0  0  0
 26 23  2  0  0  0  0
 27 24  2  0  0  0  0
 27 20  1  0  0  0  0
M  END
>  <MODEL>
1

>  <REMARK>
 VINA RESULT:      -8.0      0.000      0.000
  Name = 
  4 active torsions:
  status: ('A' for Active; 'I' for Inactive)
    1  A    between atoms: C_1  and  N_15
    2  A    between atoms: C_1  and  C_18
    3  A    between atoms: C_9  and  N_15
    4  A    between atoms: N_15  and  C_19
                            x       y       z     vdW  Elec       q    Type
                         _______ _______ _______ _____ _____    ______ ____

>  <TORSDO>
F 4

$$$$
=
 OpenBabel11052423173D

 27 30  0  0  0  0  0  0  0  0999 V2000
  161.3610  209.2470  153.6450 N   0  0  0  0  0  0  0  0  0  0  0  0
  161.1260  207.2020  152.2850 C   0  0  0  0  0  3  0  0  0  0  0  0
  161.7010  206.5930  148.7120 N   0  0  0  0  0  0  0  0  0  0  0  0
  161.4580  204.6380  147.3260 N   0  0  0  0  0  1  0  0  0  0  0  0
  161.8930  209.2450  151.2320 C   0  0  0  0  0  3  0  0  0  0  0  0
  160.8580  205.1950  150.9500 C   0  0  0  0  0  3  0  0  0  0  0  0
  160.9410  204.5570  149.7100 C   0  0  0  0  0  3  0  0  0  0  0  0
  161.2020  206.5420  151.0570 C   0  0  0  0  0  0  0  0  0  0  0  0
  161.3690  205.2790  148.5930 C   0  0  0  0  0  0  0  0  0  0  0  0
  161.6300  207.2390  149.9070 C   0  0  0  0  0  0  0  0  0  0  0  0
  161.4770  208.5570  152.3840 C   0  0  0  0  0  0  0  0  0  0  0  0
  161.9720  208.5890  150.0000 C   0  0  0  0  0  3  0  0  0  0  0  0
  160.3910  207.2070  157.2610 C   0  0  0  0  0  3  0  0  0  0  0  0
  161.0370  208.5420  154.8670 C   0  0  0  0  0  0  0  0  0  0  0  0
  159.9680  207.6300  154.9160 C   0  0  0  0  0  3  0  0  0  0  0  0
  159.6480  206.9650  156.1030 C   0  0  0  0  0  3  0  0  0  0  0  0
  161.4500  208.1160  157.2310 C   0  0  0  0  0  3  0  0  0  0  0  0
  161.7680  208.7800  156.0440 C   0  0  0  0  0  3  0  0  0  0  0  0
  161.4270  210.7130  153.6620 C   0  0  0  0  0  2  0  0  0  0  0  0
  160.3820  212.3560  151.1950 Cl  0  0  0  0  0  0  0  0  0  0  0  0
  157.4730  212.3800  153.9760 C   0  0  0  0  0  0  0  0  0  0  0  0
  155.8580  213.0390  154.1180 Cl  0  0  0  0  0  0  0  0  0  0  0  0
  160.0580  211.3210  153.7470 C   0  0  0  0  0  0  0  0  0  0  0  0
  158.2100  212.5840  152.8070 C   0  0  0  0  0  3  0  0  0  0  0  0
  158.0250  211.6490  155.0300 C   0  0  0  0  0  3  0  0  0  0  0  0
  159.3130  211.1230  154.9150 C   0  0  0  0  0  3  0  0  0  0  0  0
  159.5000  212.0590  152.6840 C   0  0  0  0  0  0  0  0  0  0  0  0
  1 19  1  0  0  0  0
  1 14  1  0  0  0  0
  2 11  1  0  0  0  0
  3 10  1  0  0  0  0
  4  9  1  0  0  0  0
  5 11  2  0  0  0  0
  6  8  1  0  0  0  0
  7  6  2  0  0  0  0
  8  2  2  0  0  0  0
  9  3  2  0  0  0  0
  9  7  1  0  0  0  0
 10 12  2  0  0  0  0
 10  8  1  0  0  0  0
 11  1  1  0  0  0  0
 12  5  1  0  0  0  0
 14 15  2  0  0  0  0
 14 18  1  0  0  0  0
 15 16  1  0  0  0  0
 16 13  2  0  0  0  0
 17 13  1  0  0  0  0
 18 17  2  0  0  0  0
 19 23  1  0  0  0  0
 20 27  1  0  0  0  0
 21 22  1  0  0  0  0
 21 25  1  0  0  0  0
 23 26  1  0  0  0  0
 24 21  2  0  0  0  0
 26 25  2  0  0  0  0
 27 24  1  0  0  0  0
 27 23  2  0  0  0  0
M  END
>  <MODEL>
2

>  <REMARK>
 VINA RESULT:      -7.5      1.167      1.413
  Name = 
  4 active torsions:
  status: ('A' for Active; 'I' for Inactive)
    1  A    between atoms: C_1  and  N_15
    2  A    between atoms: C_1  and  C_18
    3  A    between atoms: C_9  and  N_15
    4  A    between atoms: N_15  and  C_19
                            x       y       z     vdW  Elec       q    Type
                         _______ _______ _______ _____ _____    ______ ____

>  <TORSDO>
F 4

$$$$
=
 OpenBabel11052423173D

 27 30  0  0  0  0  0  0  0  0999 V2000
  161.0750  205.2670  149.0190 N   0  0  0  0  0  0  0  0  0  0  0  0
  160.9770  206.3060  151.2540 C   0  0  0  0  0  3  0  0  0  0  0  0
  161.9560  209.6470  152.4150 N   0  0  0  0  0  0  0  0  0  0  0  0
  161.9170  210.7030  154.5790 N   0  0  0  0  0  1  0  0  0  0  0  0
  161.8120  207.5980  149.3820 C   0  0  0  0  0  3  0  0  0  0  0  0
  160.9100  207.3060  153.4630 C   0  0  0  0  0  3  0  0  0  0  0  0
  161.1460  208.4050  154.2910 C   0  0  0  0  0  3  0  0  0  0  0  0
  161.2040  207.3920  152.1020 C   0  0  0  0  0  0  0  0  0  0  0  0
  161.6740  209.5780  153.7440 C   0  0  0  0  0  0  0  0  0  0  0  0
  161.7360  208.5920  151.5860 C   0  0  0  0  0  0  0  0  0  0  0  0
  161.2740  206.4020  149.8870 C   0  0  0  0  0  0  0  0  0  0  0  0
  162.0390  208.6880  150.2270 C   0  0  0  0  0  3  0  0  0  0  0  0
  162.1590  205.4410  144.8990 C   0  0  0  0  0  3  0  0  0  0  0  0
  161.4420  205.3120  147.6190 C   0  0  0  0  0  0  0  0  0  0  0  0
  162.7060  204.8720  147.1860 C   0  0  0  0  0  3  0  0  0  0  0  0
  163.0610  204.9340  145.8360 C   0  0  0  0  0  3  0  0  0  0  0  0
  160.9030  205.8900  145.3130 C   0  0  0  0  0  3  0  0  0  0  0  0
  160.5490  205.8280  146.6630 C   0  0  0  0  0  3  0  0  0  0  0  0
  160.3500  204.0990  149.5300 C   0  0  0  0  0  2  0  0  0  0  0  0
  161.5810  201.6800  151.1150 Cl  0  0  0  0  0  0  0  0  0  0  0  0
  161.2770  200.5640  147.2610 C   0  0  0  0  0  0  0  0  0  0  0  0
  161.6360  199.1310  146.3220 Cl  0  0  0  0  0  0  0  0  0  0  0  0
  160.7000  202.8580  148.7640 C   0  0  0  0  0  0  0  0  0  0  0  0
  161.5250  200.5780  148.6360 C   0  0  0  0  0  3  0  0  0  0  0  0
  160.7430  201.6930  146.6360 C   0  0  0  0  0  3  0  0  0  0  0  0
  160.4560  202.8350  147.3870 C   0  0  0  0  0  3  0  0  0  0  0  0
  161.2400  201.7180  149.3930 C   0  0  0  0  0  0  0  0  0  0  0  0
  1 19  1  0  0  0  0
  1 11  1  0  0  0  0
  2  8  1  0  0  0  0
  3  9  1  0  0  0  0
  5 11  1  0  0  0  0
  5 12  2  0  0  0  0
  6  7  1  0  0  0  0
  8  6  2  0  0  0  0
  9  7  2  0  0  0  0
  9  4  1  0  0  0  0
 10  8  1  0  0  0  0
 10  3  2  0  0  0  0
 11  2  2  0  0  0  0
 12 10  1  0  0  0  0
 13 17  2  0  0  0  0
 13 16  1  0  0  0  0
 14  1  1  0  0  0  0
 15 14  1  0  0  0  0
 16 15  2  0  0  0  0
 17 18  1  0  0  0  0
 18 14  2  0  0  0  0
 21 24  1  0  0  0  0
 22 21  1  0  0  0  0
 23 27  1  0  0  0  0
 23 19  1  0  0  0  0
 24 27  2  0  0  0  0
 25 21  2  0  0  0  0
 25 26  1  0  0  0  0
 26 23  2  0  0  0  0
 27 20  1  0  0  0  0
M  END
>  <MODEL>
3

>  <REMARK>
 VINA RESULT:      -7.4      4.359      9.186
  Name = 
  4 active torsions:
  status: ('A' for Active; 'I' for Inactive)
    1  A    between atoms: C_1  and  N_15
    2  A    between atoms: C_1  and  C_18
    3  A    between atoms: C_9  and  N_15
    4  A    between atoms: N_15  and  C_19
                            x       y       z     vdW  Elec       q    Type
                         _______ _______ _______ _____ _____    ______ ____

>  <TORSDO>
F 4

$$$$
=
 OpenBabel11052423173D

 27 30  0  0  0  0  0  0  0  0999 V2000
  161.4090  208.4730  153.3980 N   0  0  0  0  0  0  0  0  0  0  0  0
  161.4280  208.1120  150.9570 C   0  0  0  0  0  3  0  0  0  0  0  0
  161.3190  205.0310  148.9670 N   0  0  0  0  0  0  0  0  0  0  0  0
  161.3680  204.6130  146.5950 N   0  0  0  0  0  1  0  0  0  0  0  0
  161.2830  206.1990  152.4380 C   0  0  0  0  0  3  0  0  0  0  0  0
  161.4820  207.7660  148.5580 C   0  0  0  0  0  3  0  0  0  0  0  0
  161.4670  206.8900  147.4700 C   0  0  0  0  0  3  0  0  0  0  0  0
  161.4130  207.2570  149.8540 C   0  0  0  0  0  0  0  0  0  0  0  0
  161.3840  205.5140  147.6970 C   0  0  0  0  0  0  0  0  0  0  0  0
  161.3310  205.8610  150.0440 C   0  0  0  0  0  0  0  0  0  0  0  0
  161.3560  207.5910  152.2580 C   0  0  0  0  0  0  0  0  0  0  0  0
  161.2680  205.3390  151.3370 C   0  0  0  0  0  3  0  0  0  0  0  0
  160.1880  207.1430  157.2600 C   0  0  0  0  0  3  0  0  0  0  0  0
  160.9920  208.0360  154.7140 C   0  0  0  0  0  0  0  0  0  0  0  0
  161.8230  208.2150  155.8350 C   0  0  0  0  0  3  0  0  0  0  0  0
  161.4230  207.7750  157.0990 C   0  0  0  0  0  3  0  0  0  0  0  0
  159.3560  206.9480  156.1560 C   0  0  0  0  0  3  0  0  0  0  0  0
  159.7560  207.3880  154.8930 C   0  0  0  0  0  3  0  0  0  0  0  0
  161.7500  209.8840  153.1900 C   0  0  0  0  0  2  0  0  0  0  0  0
  161.6470  211.4490  155.9140 Cl  0  0  0  0  0  0  0  0  0  0  0  0
  158.3600  212.4570  153.8230 C   0  0  0  0  0  0  0  0  0  0  0  0
  156.9800  213.5070  154.0570 Cl  0  0  0  0  0  0  0  0  0  0  0  0
  160.5720  210.7770  153.4480 C   0  0  0  0  0  0  0  0  0  0  0  0
  159.3430  212.3650  154.8120 C   0  0  0  0  0  3  0  0  0  0  0  0
  158.4790  211.7110  152.6490 C   0  0  0  0  0  3  0  0  0  0  0  0
  159.5820  210.8740  152.4640 C   0  0  0  0  0  3  0  0  0  0  0  0
  160.4490  211.5300  154.6330 C   0  0  0  0  0  0  0  0  0  0  0  0
  1 14  1  0  0  0  0
  2 11  1  0  0  0  0
  3 10  1  0  0  0  0
  4  9  1  0  0  0  0
  6  8  1  0  0  0  0
  7  9  1  0  0  0  0
  7  6  2  0  0  0  0
  8 10  1  0  0  0  0
  8  2  2  0  0  0  0
  9  3  2  0  0  0  0
 10 12  2  0  0  0  0
 11  5  2  0  0  0  0
 11  1  1  0  0  0  0
 12  5  1  0  0  0  0
 14 18  2  0  0  0  0
 14 15  1  0  0  0  0
 15 16  2  0  0  0  0
 16 13  1  0  0  0  0
 17 13  2  0  0  0  0
 18 17  1  0  0  0  0
 19  1  1  0  0  0  0
 19 23  1  0  0  0  0
 21 22  1  0  0  0  0
 21 24  1  0  0  0  0
 23 27  1  0  0  0  0
 25 21  2  0  0  0  0
 26 25  1  0  0  0  0
 26 23  2  0  0  0  0
 27 24  2  0  0  0  0
 27 20  1  0  0  0  0
M  END
>  <MODEL>
4

>  <REMARK>
 VINA RESULT:      -7.4      0.820      1.807
  Name = 
  4 active torsions:
  status: ('A' for Active; 'I' for Inactive)
    1  A    between atoms: C_1  and  N_15
    2  A    between atoms: C_1  and  C_18
    3  A    between atoms: C_9  and  N_15
    4  A    between atoms: N_15  and  C_19
                            x       y       z     vdW  Elec       q    Type
                         _______ _______ _______ _____ _____    ______ ____

>  <TORSDO>
F 4

$$$$
=
 OpenBabel11052423173D

 27 30  0  0  0  0  0  0  0  0999 V2000
  162.0150  209.8720  149.7870 N   0  0  0  0  0  0  0  0  0  0  0  0
  161.4460  207.5320  150.3250 C   0  0  0  0  0  3  0  0  0  0  0  0
  161.3560  204.5210  148.2280 N   0  0  0  0  0  0  0  0  0  0  0  0
  160.7790  202.2270  148.6840 N   0  0  0  0  0  1  0  0  0  0  0  0
  162.1150  208.1010  148.0670 C   0  0  0  0  0  3  0  0  0  0  0  0
  160.8500  205.2410  150.8550 C   0  0  0  0  0  3  0  0  0  0  0  0
  160.6840  203.9170  150.4430 C   0  0  0  0  0  3  0  0  0  0  0  0
  161.2730  206.2020  149.9370 C   0  0  0  0  0  0  0  0  0  0  0  0
  160.9450  203.5730  149.1130 C   0  0  0  0  0  0  0  0  0  0  0  0
  161.5270  205.8170  148.6030 C   0  0  0  0  0  0  0  0  0  0  0  0
  161.8740  208.4910  149.3940 C   0  0  0  0  0  0  0  0  0  0  0  0
  161.9450  206.7700  147.6730 C   0  0  0  0  0  3  0  0  0  0  0  0
  162.1220  213.0330  146.9290 C   0  0  0  0  0  3  0  0  0  0  0  0
  162.0600  210.9370  148.8080 C   0  0  0  0  0  0  0  0  0  0  0  0
  163.2350  211.6810  148.5980 C   0  0  0  0  0  3  0  0  0  0  0  0
  163.2680  212.7190  147.6640 C   0  0  0  0  0  3  0  0  0  0  0  0
  160.9450  212.3100  147.1310 C   0  0  0  0  0  3  0  0  0  0  0  0
  160.9140  211.2730  148.0650 C   0  0  0  0  0  3  0  0  0  0  0  0
  162.2690  210.1870  151.1970 C   0  0  0  0  0  2  0  0  0  0  0  0
  160.9230  208.5020  153.4840 Cl  0  0  0  0  0  0  0  0  0  0  0  0
  158.7980  211.8960  153.0800 C   0  0  0  0  0  0  0  0  0  0  0  0
  157.3950  212.6120  153.8410 Cl  0  0  0  0  0  0  0  0  0  0  0  0
  161.0470  210.7480  151.8620 C   0  0  0  0  0  0  0  0  0  0  0  0
  159.2660  210.6510  153.5100 C   0  0  0  0  0  3  0  0  0  0  0  0
  159.4500  212.5660  152.0430 C   0  0  0  0  0  3  0  0  0  0  0  0
  160.5700  211.9930  151.4380 C   0  0  0  0  0  3  0  0  0  0  0  0
  160.3870  210.0720  152.9080 C   0  0  0  0  0  0  0  0  0  0  0  0
  1 19  1  0  0  0  0
  3 10  2  0  0  0  0
  3  9  1  0  0  0  0
  4  9  1  0  0  0  0
  5 11  1  0  0  0  0
  7  6  1  0  0  0  0
  8  2  1  0  0  0  0
  8  6  2  0  0  0  0
  9  7  2  0  0  0  0
 10  8  1  0  0  0  0
 11  1  1  0  0  0  0
 11  2  2  0  0  0  0
 12  5  2  0  0  0  0
 12 10  1  0  0  0  0
 13 17  2  0  0  0  0
 13 16  1  0  0  0  0
 14  1  1  0  0  0  0
 15 14  1  0  0  0  0
 16 15  2  0  0  0  0
 17 18  1  0  0  0  0
 18 14  2  0  0  0  0
 19 23  1  0  0  0  0
 21 24  1  0  0  0  0
 21 22  1  0  0  0  0
 23 27  1  0  0  0  0
 25 21  2  0  0  0  0
 26 23  2  0  0  0  0
 26 25  1  0  0  0  0
 27 20  1  0  0  0  0
 27 24  2  0  0  0  0
M  END
>  <MODEL>
5

>  <REMARK>
 VINA RESULT:      -7.1      2.731      5.041
  Name = 
  4 active torsions:
  status: ('A' for Active; 'I' for Inactive)
    1  A    between atoms: C_1  and  N_15
    2  A    between atoms: C_1  and  C_18
    3  A    between atoms: C_9  and  N_15
    4  A    between atoms: N_15  and  C_19
                            x       y       z     vdW  Elec       q    Type
                         _______ _______ _______ _____ _____    ______ ____

>  <TORSDO>
F 4

$$$$
=
 OpenBabel11052423173D

 27 30  0  0  0  0  0  0  0  0999 V2000
  160.9190  204.5350  148.8850 N   0  0  0  0  0  0  0  0  0  0  0  0
  161.3840  206.8150  149.7050 C   0  0  0  0  0  3  0  0  0  0  0  0
  161.5950  208.1650  153.1110 N   0  0  0  0  0  0  0  0  0  0  0  0
  162.0100  210.3760  153.9710 N   0  0  0  0  0  1  0  0  0  0  0  0
  161.0100  205.0320  151.3040 C   0  0  0  0  0  3  0  0  0  0  0  0
  161.8070  209.0660  150.5010 C   0  0  0  0  0  3  0  0  0  0  0  0
  161.9630  209.9540  151.5670 C   0  0  0  0  0  3  0  0  0  0  0  0
  161.5440  207.7210  150.7550 C   0  0  0  0  0  0  0  0  0  0  0  0
  161.8530  209.4800  152.8780 C   0  0  0  0  0  0  0  0  0  0  0  0
  161.4400  207.2790  152.0910 C   0  0  0  0  0  0  0  0  0  0  0  0
  161.1220  205.4620  149.9710 C   0  0  0  0  0  0  0  0  0  0  0  0
  161.1710  205.9360  152.3590 C   0  0  0  0  0  3  0  0  0  0  0  0
  162.3310  205.4110  144.9590 C   0  0  0  0  0  3  0  0  0  0  0  0
  161.3970  204.8180  147.5480 C   0  0  0  0  0  0  0  0  0  0  0  0
  162.6790  204.4130  147.1360 C   0  0  0  0  0  3  0  0  0  0  0  0
  163.1420  204.7040  145.8500 C   0  0  0  0  0  3  0  0  0  0  0  0
  161.0590  205.8280  145.3560 C   0  0  0  0  0  3  0  0  0  0  0  0
  160.5970  205.5360  146.6420 C   0  0  0  0  0  3  0  0  0  0  0  0
  160.0810  203.3510  149.1090 C   0  0  0  0  0  2  0  0  0  0  0  0
  161.5820  200.9910  150.5430 Cl  0  0  0  0  0  0  0  0  0  0  0  0
  161.3060  200.0470  146.6410 C   0  0  0  0  0  0  0  0  0  0  0  0
  161.7850  198.7070  145.6220 Cl  0  0  0  0  0  0  0  0  0  0  0  0
  160.5360  202.1920  148.2730 C   0  0  0  0  0  0  0  0  0  0  0  0
  161.5810  200.0160  148.0110 C   0  0  0  0  0  3  0  0  0  0  0  0
  160.6490  201.1460  146.0860 C   0  0  0  0  0  3  0  0  0  0  0  0
  160.2660  202.2140  146.9000 C   0  0  0  0  0  3  0  0  0  0  0  0
  161.2010  201.0810  148.8310 C   0  0  0  0  0  0  0  0  0  0  0  0
  1 19  1  0  0  0  0
  1 11  1  0  0  0  0
  2 11  2  0  0  0  0
  2  8  1  0  0  0  0
  5 12  2  0  0  0  0
  6  8  2  0  0  0  0
  6  7  1  0  0  0  0
  7  9  2  0  0  0  0
  8 10  1  0  0  0  0
  9  3  1  0  0  0  0
  9  4  1  0  0  0  0
 10 12  1  0  0  0  0
 10  3  2  0  0  0  0
 11  5  1  0  0  0  0
 13 17  2  0  0  0  0
 13 16  1  0  0  0  0
 14  1  1  0  0  0  0
 15 14  1  0  0  0  0
 16 15  2  0  0  0  0
 17 18  1  0  0  0  0
 18 14  2  0  0  0  0
 21 24  1  0  0  0  0
 22 21  1  0  0  0  0
 23 27  1  0  0  0  0
 23 19  1  0  0  0  0
 24 27  2  0  0  0  0
 25 21  2  0  0  0  0
 25 26  1  0  0  0  0
 26 23  2  0  0  0  0
 27 20  1  0  0  0  0
M  END
>  <MODEL>
6

>  <REMARK>
 VINA RESULT:      -7.0      4.679      9.588
  Name = 
  4 active torsions:
  status: ('A' for Active; 'I' for Inactive)
    1  A    between atoms: C_1  and  N_15
    2  A    between atoms: C_1  and  C_18
    3  A    between atoms: C_9  and  N_15
    4  A    between atoms: N_15  and  C_19
                            x       y       z     vdW  Elec       q    Type
                         _______ _______ _______ _____ _____    ______ ____

>  <TORSDO>
F 4

$$$$
=
 OpenBabel11052423173D

 27 30  0  0  0  0  0  0  0  0999 V2000
  161.9720  209.7860  149.8670 N   0  0  0  0  0  0  0  0  0  0  0  0
  162.1450  207.9190  148.2640 C   0  0  0  0  0  3  0  0  0  0  0  0
  161.0890  204.4130  148.5110 N   0  0  0  0  0  0  0  0  0  0  0  0
  161.2610  202.5430  147.0020 N   0  0  0  0  0  1  0  0  0  0  0  0
  161.0890  207.5440  150.4130 C   0  0  0  0  0  3  0  0  0  0  0  0
  162.3520  206.0810  146.6950 C   0  0  0  0  0  3  0  0  0  0  0  0
  162.1310  204.7380  146.3830 C   0  0  0  0  0  3  0  0  0  0  0  0
  161.9340  206.5800  147.9290 C   0  0  0  0  0  0  0  0  0  0  0  0
  161.4910  203.9120  147.3120 C   0  0  0  0  0  0  0  0  0  0  0  0
  161.2920  205.7160  148.8410 C   0  0  0  0  0  0  0  0  0  0  0  0
  161.7190  208.4130  149.5060 C   0  0  0  0  0  0  0  0  0  0  0  0
  160.8740  206.2030  150.0810 C   0  0  0  0  0  3  0  0  0  0  0  0
  162.2210  212.8790  146.9440 C   0  0  0  0  0  3  0  0  0  0  0  0
  162.0650  210.8280  148.8660 C   0  0  0  0  0  0  0  0  0  0  0  0
  163.2670  211.5280  148.6570 C   0  0  0  0  0  3  0  0  0  0  0  0
  163.3460  212.5440  147.7010 C   0  0  0  0  0  3  0  0  0  0  0  0
  161.0180  212.2000  147.1450 C   0  0  0  0  0  3  0  0  0  0  0  0
  160.9400  211.1850  148.1010 C   0  0  0  0  0  3  0  0  0  0  0  0
  162.2890  210.1080  151.2630 C   0  0  0  0  0  2  0  0  0  0  0  0
  161.1100  208.4840  153.6830 Cl  0  0  0  0  0  0  0  0  0  0  0  0
  158.9070  211.8280  153.2900 C   0  0  0  0  0  0  0  0  0  0  0  0
  157.5390  212.5500  154.1080 Cl  0  0  0  0  0  0  0  0  0  0  0  0
  161.0990  210.6730  151.9800 C   0  0  0  0  0  0  0  0  0  0  0  0
  159.4210  210.6070  153.7330 C   0  0  0  0  0  3  0  0  0  0  0  0
  159.4840  212.4720  152.1940 C   0  0  0  0  0  3  0  0  0  0  0  0
  160.5760  211.8950  151.5420 C   0  0  0  0  0  3  0  0  0  0  0  0
  160.5140  210.0240  153.0860 C   0  0  0  0  0  0  0  0  0  0  0  0
  1 19  1  0  0  0  0
  2 11  1  0  0  0  0
  3 10  1  0  0  0  0
  4  9  1  0  0  0  0
  6  8  1  0  0  0  0
  7  6  2  0  0  0  0
  7  9  1  0  0  0  0
  8  2  2  0  0  0  0
  8 10  1  0  0  0  0
  9  3  2  0  0  0  0
 10 12  2  0  0  0  0
 11  1  1  0  0  0  0
 11  5  2  0  0  0  0
 12  5  1  0  0  0  0
 13 17  2  0  0  0  0
 13 16  1  0  0  0  0
 14  1  1  0  0  0  0
 15 14  1  0  0  0  0
 16 15  2  0  0  0  0
 17 18  1  0  0  0  0
 18 14  2  0  0  0  0
 19 23  1  0  0  0  0
 21 24  1  0  0  0  0
 21 22  1  0  0  0  0
 23 27  1  0  0  0  0
 25 21  2  0  0  0  0
 26 23  2  0  0  0  0
 26 25  1  0  0  0  0
 27 20  1  0  0  0  0
 27 24  2  0  0  0  0
M  END
>  <MODEL>
7

>  <REMARK>
 VINA RESULT:      -6.7      2.742      5.171
  Name = 
  4 active torsions:
  status: ('A' for Active; 'I' for Inactive)
    1  A    between atoms: C_1  and  N_15
    2  A    between atoms: C_1  and  C_18
    3  A    between atoms: C_9  and  N_15
    4  A    between atoms: N_15  and  C_19
                            x       y       z     vdW  Elec       q    Type
                         _______ _______ _______ _____ _____    ______ ____

>  <TORSDO>
F 4

$$$$
=
 OpenBabel11052423173D

 27 30  0  0  0  0  0  0  0  0999 V2000
  161.2390  209.4900  152.9970 N   0  0  0  0  0  0  0  0  0  0  0  0
  161.1980  208.1040  150.9560 C   0  0  0  0  0  3  0  0  0  0  0  0
  161.1890  204.4620  150.5030 N   0  0  0  0  0  0  0  0  0  0  0  0
  161.1840  203.0570  148.5470 N   0  0  0  0  0  1  0  0  0  0  0  0
  161.2030  207.0220  153.1240 C   0  0  0  0  0  3  0  0  0  0  0  0
  161.1940  206.7510  148.9430 C   0  0  0  0  0  3  0  0  0  0  0  0
  161.1910  205.4900  148.3430 C   0  0  0  0  0  3  0  0  0  0  0  0
  161.1940  206.8540  150.3340 C   0  0  0  0  0  0  0  0  0  0  0  0
  161.1880  204.3470  149.1480 C   0  0  0  0  0  0  0  0  0  0  0  0
  161.1920  205.6780  151.1120 C   0  0  0  0  0  0  0  0  0  0  0  0
  161.1960  208.1980  152.3550 C   0  0  0  0  0  0  0  0  0  0  0  0
  161.1970  205.7680  152.5050 C   0  0  0  0  0  3  0  0  0  0  0  0
  161.7280  209.9080  157.2110 C   0  0  0  0  0  3  0  0  0  0  0  0
  161.4120  209.6180  154.4280 C   0  0  0  0  0  0  0  0  0  0  0  0
  160.6310  208.8650  155.3240 C   0  0  0  0  0  3  0  0  0  0  0  0
  160.7900  209.0060  156.7050 C   0  0  0  0  0  3  0  0  0  0  0  0
  162.5050  210.6700  156.3360 C   0  0  0  0  0  3  0  0  0  0  0  0
  162.3450  210.5280  154.9560 C   0  0  0  0  0  3  0  0  0  0  0  0
  160.9510  210.6880  152.2020 C   0  0  0  0  0  2  0  0  0  0  0  0
  160.1070  213.3630  150.7830 Cl  0  0  0  0  0  0  0  0  0  0  0  0
  157.3970  212.6220  153.6650 C   0  0  0  0  0  0  0  0  0  0  0  0
  155.9430  213.3870  154.2660 Cl  0  0  0  0  0  0  0  0  0  0  0  0
  159.7260  211.3950  152.7000 C   0  0  0  0  0  0  0  0  0  0  0  0
  158.1000  213.1960  152.6010 C   0  0  0  0  0  3  0  0  0  0  0  0
  157.8570  211.4390  154.2460 C   0  0  0  0  0  3  0  0  0  0  0  0
  159.0160  210.8290  153.7640 C   0  0  0  0  0  3  0  0  0  0  0  0
  159.2620  212.5910  152.1140 C   0  0  0  0  0  0  0  0  0  0  0  0
  1 14  1  0  0  0  0
  2 11  1  0  0  0  0
  3 10  1  0  0  0  0
  4  9  1  0  0  0  0
  6  8  1  0  0  0  0
  7  6  2  0  0  0  0
  7  9  1  0  0  0  0
  8  2  2  0  0  0  0
  8 10  1  0  0  0  0
  9  3  2  0  0  0  0
 10 12  2  0  0  0  0
 11  1  1  0  0  0  0
 11  5  2  0  0  0  0
 12  5  1  0  0  0  0
 14 18  2  0  0  0  0
 14 15  1  0  0  0  0
 15 16  2  0  0  0  0
 16 13  1  0  0  0  0
 17 13  2  0  0  0  0
 18 17  1  0  0  0  0
 19 23  1  0  0  0  0
 19  1  1  0  0  0  0
 20 27  1  0  0  0  0
 21 25  1  0  0  0  0
 21 22  1  0  0  0  0
 23 26  1  0  0  0  0
 24 21  2  0  0  0  0
 26 25  2  0  0  0  0
 27 24  1  0  0  0  0
 27 23  2  0  0  0  0
M  END
>  <MODEL>
8

>  <REMARK>
 VINA RESULT:      -6.4      1.698      2.341
  Name = 
  4 active torsions:
  status: ('A' for Active; 'I' for Inactive)
    1  A    between atoms: C_1  and  N_15
    2  A    between atoms: C_1  and  C_18
    3  A    between atoms: C_9  and  N_15
    4  A    between atoms: N_15  and  C_19
                            x       y       z     vdW  Elec       q    Type
                         _______ _______ _______ _____ _____    ______ ____

>  <TORSDO>
F 4

$$$$
=
 OpenBabel11052423173D

 27 30  0  0  0  0  0  0  0  0999 V2000
  161.4950  208.5070  153.4840 N   0  0  0  0  0  0  0  0  0  0  0  0
  161.6070  206.2990  152.3890 C   0  0  0  0  0  3  0  0  0  0  0  0
  161.0730  205.3000  148.8980 N   0  0  0  0  0  0  0  0  0  0  0  0
  161.1350  203.1680  147.7790 N   0  0  0  0  0  1  0  0  0  0  0  0
  161.0970  208.2590  151.0580 C   0  0  0  0  0  3  0  0  0  0  0  0
  161.6860  204.1200  151.3280 C   0  0  0  0  0  3  0  0  0  0  0  0
  161.5670  203.3400  150.1760 C   0  0  0  0  0  3  0  0  0  0  0  0
  161.4950  205.4990  151.2500 C   0  0  0  0  0  0  0  0  0  0  0  0
  161.2580  203.9540  148.9590 C   0  0  0  0  0  0  0  0  0  0  0  0
  161.1840  206.0830  150.0050 C   0  0  0  0  0  0  0  0  0  0  0  0
  161.4160  207.6860  152.3010 C   0  0  0  0  0  0  0  0  0  0  0  0
  160.9850  207.4620  149.9150 C   0  0  0  0  0  3  0  0  0  0  0  0
  160.1390  207.0550  157.2560 C   0  0  0  0  0  3  0  0  0  0  0  0
  161.0330  208.0280  154.7700 C   0  0  0  0  0  0  0  0  0  0  0  0
  161.8550  208.1020  155.9090 C   0  0  0  0  0  3  0  0  0  0  0  0
  161.4110  207.6220  157.1440 C   0  0  0  0  0  3  0  0  0  0  0  0
  159.3150  206.9660  156.1330 C   0  0  0  0  0  3  0  0  0  0  0  0
  159.7600  207.4450  154.9000 C   0  0  0  0  0  3  0  0  0  0  0  0
  161.9130  209.9070  153.3520 C   0  0  0  0  0  2  0  0  0  0  0  0
  159.2250  211.1000  152.2420 Cl  0  0  0  0  0  0  0  0  0  0  0  0
  159.6660  212.4310  156.0150 C   0  0  0  0  0  0  0  0  0  0  0  0
  158.7600  213.4440  157.1160 Cl  0  0  0  0  0  0  0  0  0  0  0  0
  161.1150  210.8040  154.2500 C   0  0  0  0  0  0  0  0  0  0  0  0
  159.1730  212.1800  154.7310 C   0  0  0  0  0  3  0  0  0  0  0  0
  160.8800  211.8710  156.4170 C   0  0  0  0  0  3  0  0  0  0  0  0
  161.6000  211.0610  155.5370 C   0  0  0  0  0  3  0  0  0  0  0  0
  159.8890  211.3710  153.8450 C   0  0  0  0  0  0  0  0  0  0  0  0
  1 14  1  0  0  0  0
  3  9  2  0  0  0  0
  3 10  1  0  0  0  0
  4  9  1  0  0  0  0
  5 11  2  0  0  0  0
  7  6  2  0  0  0  0
  8  6  1  0  0  0  0
  8  2  2  0  0  0  0
  9  7  1  0  0  0  0
 10  8  1  0  0  0  0
 11  2  1  0  0  0  0
 11  1  1  0  0  0  0
 12 10  2  0  0  0  0
 12  5  1  0  0  0  0
 14 18  2  0  0  0  0
 14 15  1  0  0  0  0
 15 16  2  0  0  0  0
 16 13  1  0  0  0  0
 17 13  2  0  0  0  0
 18 17  1  0  0  0  0
 19  1  1  0  0  0  0
 19 23  1  0  0  0  0
 20 27  1  0  0  0  0
 21 25  1  0  0  0  0
 21 22  1  0  0  0  0
 23 26  1  0  0  0  0
 24 21  2  0  0  0  0
 26 25  2  0  0  0  0
 27 23  2  0  0  0  0
 27 24  1  0  0  0  0
M  END
>  <MODEL>
9

>  <REMARK>
 VINA RESULT:      -6.4      1.254      1.987
  Name = 
  4 active torsions:
  status: ('A' for Active; 'I' for Inactive)
    1  A    between atoms: C_1  and  N_15
    2  A    between atoms: C_1  and  C_18
    3  A    between atoms: C_9  and  N_15
    4  A    between atoms: N_15  and  C_19
                            x       y       z     vdW  Elec       q    Type
                         _______ _______ _______ _____ _____    ______ ____

>  <TORSDO>
F 4

$$$$
