=
 OpenBabel11052423163D

 27 29  0  0  1  0  0  0  0  0999 V2000
  162.3950  210.1050  152.1890 C   0  0  0  0  0  1  0  0  0  0  0  0
  161.1670  209.8470  153.0750 C   0  0  2  0  0  0  0  0  0  0  0  0
  158.2890  212.3470  153.5740 C   0  0  0  0  0  3  0  0  0  0  0  0
  158.5300  213.2240  152.5190 C   0  0  0  0  0  3  0  0  0  0  0  0
  160.2240  211.0360  152.9130 C   0  0  0  0  0  0  0  0  0  0  0  0
  158.8030  210.3360  154.9190 C   0  0  0  0  0  1  0  0  0  0  0  0
  159.6110  212.9870  151.6740 C   0  0  0  0  0  3  0  0  0  0  0  0
  160.4180  211.9150  151.8850 N   0  0  0  0  0  0  0  0  0  0  0  0
  159.1230  211.2490  153.7830 C   0  0  0  0  0  0  0  0  0  0  0  0
  162.4820  209.3800  157.1870 C   0  0  0  0  0  3  0  0  0  0  0  0
  161.5840  209.6920  154.5390 C   0  0  0  0  0  0  0  0  0  0  0  0
  162.3420  210.6990  155.1630 C   0  0  0  0  0  3  0  0  0  0  0  0
  162.7820  210.5470  156.4810 C   0  0  0  0  0  3  0  0  0  0  0  0
  161.7500  208.3600  156.5730 C   0  0  0  0  0  3  0  0  0  0  0  0
  161.3100  208.5130  155.2550 C   0  0  0  0  0  3  0  0  0  0  0  0
  160.4680  208.6330  152.6190 N   0  0  0  0  0  2  0  0  0  0  0  0
  161.0010  208.1440  151.3470 C   0  0  0  0  0  2  0  0  0  0  0  0
  161.2870  204.6580  152.7300 C   0  0  0  0  0  3  0  0  0  0  0  0
  161.1340  202.5100  151.7300 F   0  0  0  0  0  0  0  0  0  0  0  0
  160.8960  204.4450  150.3500 C   0  0  0  0  0  0  0  0  0  0  0  0
  160.7170  203.6250  149.2400 O   0  0  0  0  0  1  0  0  0  0  0  0
  160.8680  205.8490  150.2110 C   0  0  0  0  0  0  0  0  0  0  0  0
  161.1060  203.8590  151.6030 C   0  0  0  0  0  0  0  0  0  0  0  0
  161.0570  206.6530  151.3680 C   0  0  0  0  0  0  0  0  0  0  0  0
  161.2580  206.0460  152.6120 C   0  0  0  0  0  3  0  0  0  0  0  0
  161.5980  206.7730  148.0060 C   0  0  0  0  0  2  0  0  0  0  0  0
  160.6460  206.3880  148.8470 C   0  0  0  0  0  3  0  0  0  0  0  0
  2  1  1  6  0  0  0
  2 11  1  0  0  0  0
  3  9  1  0  0  0  0
  4  3  2  0  0  0  0
  5  2  1  0  0  0  0
  5  9  2  0  0  0  0
  7  8  2  0  0  0  0
  7  4  1  0  0  0  0
  8  5  1  0  0  0  0
  9  6  1  0  0  0  0
 11 12  2  0  0  0  0
 11 15  1  0  0  0  0
 12 13  1  0  0  0  0
 13 10  2  0  0  0  0
 14 10  1  0  0  0  0
 15 14  2  0  0  0  0
 16  2  1  0  0  0  0
 17 24  1  0  0  0  0
 17 16  1  0  0  0  0
 20 23  1  0  0  0  0
 21 20  1  0  0  0  0
 22 20  2  0  0  0  0
 22 24  1  0  0  0  0
 23 19  1  0  0  0  0
 23 18  2  0  0  0  0
 24 25  2  0  0  0  0
 25 18  1  0  0  0  0
 26 27  2  0  0  0  0
 27 22  1  0  0  0  0
M  END
>  <MODEL>
1

>  <REMARK>
 VINA RESULT:      -7.5      0.000      0.000
  Name = 
  6 active torsions:
  status: ('A' for Active; 'I' for Inactive)
    1  A    between atoms: N_2  and  C_6
    2  A    between atoms: N_2  and  C_15
    3  A    between atoms: C_6  and  C_17
    4  A    between atoms: C_9  and  C_15
    5  A    between atoms: C_14  and  C_19
    6  A    between atoms: C_15  and  C_18
                            x       y       z     vdW  Elec       q    Type
                         _______ _______ _______ _____ _____    ______ ____

>  <TORSDO>
F 6

$$$$
=
 OpenBabel11052423163D

 27 29  0  0  1  0  0  0  0  0999 V2000
  162.2320  210.3150  153.5170 C   0  0  0  0  0  1  0  0  0  0  0  0
  160.8110  209.7560  153.6760 C   0  0  2  0  0  0  0  0  0  0  0  0
  158.9680  212.9160  154.8600 C   0  0  0  0  0  3  0  0  0  0  0  0
  158.0420  213.0700  153.8310 C   0  0  0  0  0  3  0  0  0  0  0  0
  159.8550  210.9430  153.7550 C   0  0  0  0  0  0  0  0  0  0  0  0
  160.8330  211.7370  155.9790 C   0  0  0  0  0  1  0  0  0  0  0  0
  158.0340  212.1510  152.7850 C   0  0  0  0  0  3  0  0  0  0  0  0
  158.9230  211.1240  152.7720 N   0  0  0  0  0  0  0  0  0  0  0  0
  159.8780  211.8580  154.8390 C   0  0  0  0  0  0  0  0  0  0  0  0
  160.6050  207.2410  157.2100 C   0  0  0  0  0  3  0  0  0  0  0  0
  160.7070  208.9030  154.9420 C   0  0  0  0  0  0  0  0  0  0  0  0
  161.7770  208.8650  155.8530 C   0  0  0  0  0  3  0  0  0  0  0  0
  161.7240  208.0450  156.9830 C   0  0  0  0  0  3  0  0  0  0  0  0
  159.5420  207.2500  156.3030 C   0  0  0  0  0  3  0  0  0  0  0  0
  159.5970  208.0700  155.1720 C   0  0  0  0  0  3  0  0  0  0  0  0
  160.4550  208.9500  152.4950 N   0  0  0  0  0  2  0  0  0  0  0  0
  161.6380  208.3790  151.8500 C   0  0  0  0  0  2  0  0  0  0  0  0
  161.1990  204.7290  152.6430 C   0  0  0  0  0  3  0  0  0  0  0  0
  160.7510  202.8290  151.2930 F   0  0  0  0  0  0  0  0  0  0  0  0
  160.9660  204.9650  150.2450 C   0  0  0  0  0  0  0  0  0  0  0  0
  160.7340  204.3740  149.0060 O   0  0  0  0  0  1  0  0  0  0  0  0
  161.1960  206.3530  150.3420 C   0  0  0  0  0  0  0  0  0  0  0  0
  160.9710  204.1620  151.3910 C   0  0  0  0  0  0  0  0  0  0  0  0
  161.4300  206.9190  151.6240 C   0  0  0  0  0  0  0  0  0  0  0  0
  161.4230  206.0990  152.7580 C   0  0  0  0  0  3  0  0  0  0  0  0
  162.2510  207.5740  148.4320 C   0  0  0  0  0  2  0  0  0  0  0  0
  161.1800  207.1300  149.0770 C   0  0  0  0  0  3  0  0  0  0  0  0
  2  1  1  6  0  0  0
  2  5  1  0  0  0  0
  2 11  1  0  0  0  0
  4  3  2  0  0  0  0
  5  9  2  0  0  0  0
  7  4  1  0  0  0  0
  8  7  2  0  0  0  0
  8  5  1  0  0  0  0
  9  3  1  0  0  0  0
  9  6  1  0  0  0  0
 11 15  2  0  0  0  0
 11 12  1  0  0  0  0
 12 13  2  0  0  0  0
 13 10  1  0  0  0  0
 14 10  2  0  0  0  0
 15 14  1  0  0  0  0
 16  2  1  0  0  0  0
 17 16  1  0  0  0  0
 18 25  1  0  0  0  0
 19 23  1  0  0  0  0
 20 22  2  0  0  0  0
 20 23  1  0  0  0  0
 21 20  1  0  0  0  0
 22 24  1  0  0  0  0
 23 18  2  0  0  0  0
 24 17  1  0  0  0  0
 24 25  2  0  0  0  0
 26 27  2  0  0  0  0
 27 22  1  0  0  0  0
M  END
>  <MODEL>
2

>  <REMARK>
 VINA RESULT:      -7.3      1.137      1.502
  Name = 
  6 active torsions:
  status: ('A' for Active; 'I' for Inactive)
    1  A    between atoms: N_2  and  C_6
    2  A    between atoms: N_2  and  C_15
    3  A    between atoms: C_6  and  C_17
    4  A    between atoms: C_9  and  C_15
    5  A    between atoms: C_14  and  C_19
    6  A    between atoms: C_15  and  C_18
                            x       y       z     vdW  Elec       q    Type
                         _______ _______ _______ _____ _____    ______ ____

>  <TORSDO>
F 6

$$$$
=
 OpenBabel11052423163D

 27 29  0  0  1  0  0  0  0  0999 V2000
  162.1220  210.3200  153.3700 C   0  0  0  0  0  1  0  0  0  0  0  0
  160.7540  209.6550  153.5840 C   0  0  2  0  0  0  0  0  0  0  0  0
  158.6230  212.7280  152.6880 C   0  0  0  0  0  3  0  0  0  0  0  0
  157.7750  212.7780  153.7920 C   0  0  0  0  0  3  0  0  0  0  0  0
  159.7050  210.7640  153.6210 C   0  0  0  0  0  0  0  0  0  0  0  0
  160.4840  211.7410  151.3910 C   0  0  0  0  0  1  0  0  0  0  0  0
  157.9130  211.8230  154.7960 C   0  0  0  0  0  3  0  0  0  0  0  0
  158.8610  210.8560  154.6910 N   0  0  0  0  0  0  0  0  0  0  0  0
  159.5940  211.7310  152.5890 C   0  0  0  0  0  0  0  0  0  0  0  0
  160.8370  207.3480  157.2610 C   0  0  0  0  0  3  0  0  0  0  0  0
  160.7400  208.8630  154.8920 C   0  0  0  0  0  0  0  0  0  0  0  0
  161.5940  209.2330  155.9460 C   0  0  0  0  0  3  0  0  0  0  0  0
  161.6370  208.4840  157.1260 C   0  0  0  0  0  3  0  0  0  0  0  0
  160.0000  206.9540  156.2140 C   0  0  0  0  0  3  0  0  0  0  0  0
  159.9580  207.7030  155.0340 C   0  0  0  0  0  3  0  0  0  0  0  0
  160.4490  208.7640  152.4510 N   0  0  0  0  0  2  0  0  0  0  0  0
  161.6640  208.2470  151.8220 C   0  0  0  0  0  2  0  0  0  0  0  0
  161.2310  204.5290  152.1790 C   0  0  0  0  0  3  0  0  0  0  0  0
  160.7820  202.8000  150.6150 F   0  0  0  0  0  0  0  0  0  0  0  0
  160.9920  205.0460  149.8260 C   0  0  0  0  0  0  0  0  0  0  0  0
  160.7580  204.6050  148.5270 O   0  0  0  0  0  1  0  0  0  0  0  0
  161.2210  206.4130  150.0860 C   0  0  0  0  0  0  0  0  0  0  0  0
  161.0000  204.1130  150.8700 C   0  0  0  0  0  0  0  0  0  0  0  0
  161.4580  206.8240  151.4260 C   0  0  0  0  0  0  0  0  0  0  0  0
  161.4540  205.8760  152.4540 C   0  0  0  0  0  3  0  0  0  0  0  0
  162.1980  208.1270  148.5500 C   0  0  0  0  0  2  0  0  0  0  0  0
  161.2020  207.3340  148.9220 C   0  0  0  0  0  3  0  0  0  0  0  0
  2  1  1  6  0  0  0
  2  5  1  0  0  0  0
  2 11  1  0  0  0  0
  3  4  1  0  0  0  0
  4  7  2  0  0  0  0
  5  8  2  0  0  0  0
  6  9  1  0  0  0  0
  8  7  1  0  0  0  0
  9  3  2  0  0  0  0
  9  5  1  0  0  0  0
 11 15  2  0  0  0  0
 11 12  1  0  0  0  0
 12 13  2  0  0  0  0
 13 10  1  0  0  0  0
 14 10  2  0  0  0  0
 15 14  1  0  0  0  0
 16  2  1  0  0  0  0
 17 16  1  0  0  0  0
 18 25  1  0  0  0  0
 19 23  1  0  0  0  0
 20 22  2  0  0  0  0
 20 23  1  0  0  0  0
 21 20  1  0  0  0  0
 22 24  1  0  0  0  0
 23 18  2  0  0  0  0
 24 17  1  0  0  0  0
 24 25  2  0  0  0  0
 26 27  2  0  0  0  0
 27 22  1  0  0  0  0
M  END
>  <MODEL>
3

>  <REMARK>
 VINA RESULT:      -7.2      1.235      1.783
  Name = 
  6 active torsions:
  status: ('A' for Active; 'I' for Inactive)
    1  A    between atoms: N_2  and  C_6
    2  A    between atoms: N_2  and  C_15
    3  A    between atoms: C_6  and  C_17
    4  A    between atoms: C_9  and  C_15
    5  A    between atoms: C_14  and  C_19
    6  A    between atoms: C_15  and  C_18
                            x       y       z     vdW  Elec       q    Type
                         _______ _______ _______ _____ _____    ______ ____

>  <TORSDO>
F 6

$$$$
=
 OpenBabel11052423163D

 27 29  0  0  1  0  0  0  0  0999 V2000
  159.9870  206.1750  149.0640 C   0  0  0  0  0  1  0  0  0  0  0  0
  161.2200  205.3970  148.5810 C   0  0  2  0  0  0  0  0  0  0  0  0
  162.4690  205.4060  144.9440 C   0  0  0  0  0  3  0  0  0  0  0  0
  161.3330  205.8700  144.2870 C   0  0  0  0  0  3  0  0  0  0  0  0
  161.2890  205.5420  147.0620 C   0  0  0  0  0  0  0  0  0  0  0  0
  163.7190  204.7540  146.9770 C   0  0  0  0  0  1  0  0  0  0  0  0
  160.1950  206.1710  145.0310 C   0  0  0  0  0  3  0  0  0  0  0  0
  160.2000  206.0060  146.3800 N   0  0  0  0  0  0  0  0  0  0  0  0
  162.4650  205.2390  146.3290 C   0  0  0  0  0  0  0  0  0  0  0  0
  160.7790  201.2100  149.6440 C   0  0  0  0  0  3  0  0  0  0  0  0
  161.1120  203.9220  148.9710 C   0  0  0  0  0  0  0  0  0  0  0  0
  161.0930  202.9320  147.9730 C   0  0  0  0  0  3  0  0  0  0  0  0
  160.9350  201.5840  148.3080 C   0  0  0  0  0  3  0  0  0  0  0  0
  160.7720  202.1840  150.6460 C   0  0  0  0  0  3  0  0  0  0  0  0
  160.9300  203.5320  150.3100 C   0  0  0  0  0  3  0  0  0  0  0  0
  162.4400  205.9840  149.1600 N   0  0  0  0  0  2  0  0  0  0  0  0
  162.2030  207.3310  149.6790 C   0  0  0  0  0  2  0  0  0  0  0  0
  161.8080  205.8870  153.1290 C   0  0  0  0  0  3  0  0  0  0  0  0
  161.0580  206.8060  155.1850 F   0  0  0  0  0  0  0  0  0  0  0  0
  161.0820  208.1940  153.2410 C   0  0  0  0  0  0  0  0  0  0  0  0
  160.5890  209.2520  153.9970 O   0  0  0  0  0  1  0  0  0  0  0  0
  161.3440  208.3610  151.8640 C   0  0  0  0  0  0  0  0  0  0  0  0
  161.3130  206.9620  153.8630 C   0  0  0  0  0  0  0  0  0  0  0  0
  161.8470  207.2550  151.1260 C   0  0  0  0  0  0  0  0  0  0  0  0
  162.0770  206.0350  151.7700 C   0  0  0  0  0  3  0  0  0  0  0  0
  161.9800  210.6100  150.9760 C   0  0  0  0  0  2  0  0  0  0  0  0
  161.0660  209.6970  151.2820 C   0  0  0  0  0  3  0  0  0  0  0  0
  2 11  1  0  0  0  0
  2  1  1  1  0  0  0
  2 16  1  0  0  0  0
  3  9  1  0  0  0  0
  4  3  2  0  0  0  0
  4  7  1  0  0  0  0
  5  2  1  0  0  0  0
  7  8  2  0  0  0  0
  8  5  1  0  0  0  0
  9  6  1  0  0  0  0
  9  5  2  0  0  0  0
 10 14  1  0  0  0  0
 11 15  1  0  0  0  0
 12 13  1  0  0  0  0
 12 11  2  0  0  0  0
 13 10  2  0  0  0  0
 15 14  2  0  0  0  0
 16 17  1  0  0  0  0
 17 24  1  0  0  0  0
 18 23  1  0  0  0  0
 20 23  2  0  0  0  0
 20 21  1  0  0  0  0
 22 20  1  0  0  0  0
 23 19  1  0  0  0  0
 24 25  1  0  0  0  0
 24 22  2  0  0  0  0
 25 18  2  0  0  0  0
 26 27  2  0  0  0  0
 27 22  1  0  0  0  0
M  END
>  <MODEL>
4

>  <REMARK>
 VINA RESULT:      -7.2      3.441      7.617
  Name = 
  6 active torsions:
  status: ('A' for Active; 'I' for Inactive)
    1  A    between atoms: N_2  and  C_6
    2  A    between atoms: N_2  and  C_15
    3  A    between atoms: C_6  and  C_17
    4  A    between atoms: C_9  and  C_15
    5  A    between atoms: C_14  and  C_19
    6  A    between atoms: C_15  and  C_18
                            x       y       z     vdW  Elec       q    Type
                         _______ _______ _______ _____ _____    ______ ____

>  <TORSDO>
F 6

$$$$
=
 OpenBabel11052423163D

 27 29  0  0  1  0  0  0  0  0999 V2000
  162.2590  210.0830  153.0750 C   0  0  0  0  0  1  0  0  0  0  0  0
  160.8670  209.5160  153.3920 C   0  0  2  0  0  0  0  0  0  0  0  0
  158.9430  212.6760  152.3440 C   0  0  0  0  0  3  0  0  0  0  0  0
  158.0560  212.7980  153.4110 C   0  0  0  0  0  3  0  0  0  0  0  0
  159.8790  210.6800  153.3630 C   0  0  0  0  0  0  0  0  0  0  0  0
  160.7960  211.5600  151.1450 C   0  0  0  0  0  1  0  0  0  0  0  0
  158.1020  211.8620  154.4410 C   0  0  0  0  0  3  0  0  0  0  0  0
  158.9990  210.8430  154.3960 N   0  0  0  0  0  0  0  0  0  0  0  0
  159.8610  211.6270  152.3060 C   0  0  0  0  0  0  0  0  0  0  0  0
  160.9660  207.5450  157.2600 C   0  0  0  0  0  3  0  0  0  0  0  0
  160.8590  208.8450  154.7670 C   0  0  0  0  0  0  0  0  0  0  0  0
  161.7540  209.2750  155.7620 C   0  0  0  0  0  3  0  0  0  0  0  0
  161.8020  208.6340  157.0030 C   0  0  0  0  0  3  0  0  0  0  0  0
  160.0870  207.0910  156.2730 C   0  0  0  0  0  3  0  0  0  0  0  0
  160.0400  207.7330  155.0310 C   0  0  0  0  0  3  0  0  0  0  0  0
  160.4730  208.5460  152.3560 N   0  0  0  0  0  2  0  0  0  0  0  0
  161.5160  207.5470  152.1220 C   0  0  0  0  0  2  0  0  0  0  0  0
  162.1580  207.9940  148.4440 C   0  0  0  0  0  3  0  0  0  0  0  0
  161.9660  206.5310  146.5840 F   0  0  0  0  0  0  0  0  0  0  0  0
  161.3890  205.7200  148.7560 C   0  0  0  0  0  0  0  0  0  0  0  0
  161.0770  204.4810  148.2040 O   0  0  0  0  0  1  0  0  0  0  0  0
  161.2510  205.9380  150.1430 C   0  0  0  0  0  0  0  0  0  0  0  0
  161.8380  206.7460  147.9160 C   0  0  0  0  0  0  0  0  0  0  0  0
  161.5790  207.2180  150.6680 C   0  0  0  0  0  0  0  0  0  0  0  0
  162.0320  208.2260  149.8110 C   0  0  0  0  0  3  0  0  0  0  0  0
  161.5300  203.9260  151.6000 C   0  0  0  0  0  2  0  0  0  0  0  0
  160.7630  204.8000  150.9600 C   0  0  0  0  0  3  0  0  0  0  0  0
  2  1  1  6  0  0  0
  2 11  1  0  0  0  0
  3  4  1  0  0  0  0
  4  7  2  0  0  0  0
  5  2  1  0  0  0  0
  5  8  2  0  0  0  0
  6  9  1  0  0  0  0
  8  7  1  0  0  0  0
  9  3  2  0  0  0  0
  9  5  1  0  0  0  0
 11 15  2  0  0  0  0
 11 12  1  0  0  0  0
 12 13  2  0  0  0  0
 13 10  1  0  0  0  0
 14 10  2  0  0  0  0
 15 14  1  0  0  0  0
 16  2  1  0  0  0  0
 17 16  1  0  0  0  0
 18 25  1  0  0  0  0
 19 23  1  0  0  0  0
 20 22  2  0  0  0  0
 21 20  1  0  0  0  0
 22 24  1  0  0  0  0
 22 27  1  0  0  0  0
 23 18  2  0  0  0  0
 23 20  1  0  0  0  0
 24 17  1  0  0  0  0
 25 24  2  0  0  0  0
 27 26  2  0  0  0  0
M  END
>  <MODEL>
5

>  <REMARK>
 VINA RESULT:      -6.9      1.751      2.825
  Name = 
  6 active torsions:
  status: ('A' for Active; 'I' for Inactive)
    1  A    between atoms: N_2  and  C_6
    2  A    between atoms: N_2  and  C_15
    3  A    between atoms: C_6  and  C_17
    4  A    between atoms: C_9  and  C_15
    5  A    between atoms: C_14  and  C_19
    6  A    between atoms: C_15  and  C_18
                            x       y       z     vdW  Elec       q    Type
                         _______ _______ _______ _____ _____    ______ ____

>  <TORSDO>
F 6

$$$$
=
 OpenBabel11052423163D

 27 29  0  0  1  0  0  0  0  0999 V2000
  162.3330  210.3270  153.5510 C   0  0  0  0  0  1  0  0  0  0  0  0
  160.8950  209.7900  153.6030 C   0  0  2  0  0  0  0  0  0  0  0  0
  159.0450  212.9590  154.7520 C   0  0  0  0  0  3  0  0  0  0  0  0
  158.1780  213.1490  153.6790 C   0  0  0  0  0  3  0  0  0  0  0  0
  159.9560  210.9920  153.6560 C   0  0  0  0  0  0  0  0  0  0  0  0
  160.8290  211.7260  155.9430 C   0  0  0  0  0  1  0  0  0  0  0  0
  158.2090  212.2500  152.6150 C   0  0  0  0  0  3  0  0  0  0  0  0
  159.0800  211.2090  152.6290 N   0  0  0  0  0  0  0  0  0  0  0  0
  159.9370  211.8860  154.7570 C   0  0  0  0  0  0  0  0  0  0  0  0
  160.4090  207.1760  157.0360 C   0  0  0  0  0  3  0  0  0  0  0  0
  160.6960  208.9040  154.8350 C   0  0  0  0  0  0  0  0  0  0  0  0
  161.7530  208.7160  155.7420 C   0  0  0  0  0  3  0  0  0  0  0  0
  161.6090  207.8630  156.8400 C   0  0  0  0  0  3  0  0  0  0  0  0
  159.3560  207.3340  156.1310 C   0  0  0  0  0  3  0  0  0  0  0  0
  159.5020  208.1870  155.0330 C   0  0  0  0  0  3  0  0  0  0  0  0
  160.6020  209.0240  152.3790 N   0  0  0  0  0  2  0  0  0  0  0  0
  161.8240  208.6430  151.6700 C   0  0  0  0  0  2  0  0  0  0  0  0
  160.9750  206.6380  148.6040 C   0  0  0  0  0  3  0  0  0  0  0  0
  160.8760  204.3040  148.1810 F   0  0  0  0  0  0  0  0  0  0  0  0
  161.4580  205.0560  150.3730 C   0  0  0  0  0  0  0  0  0  0  0  0
  161.5790  203.7340  150.7890 O   0  0  0  0  0  1  0  0  0  0  0  0
  161.6910  206.1130  151.2780 C   0  0  0  0  0  0  0  0  0  0  0  0
  161.1010  205.3230  149.0460 C   0  0  0  0  0  0  0  0  0  0  0  0
  161.5570  207.4500  150.8150 C   0  0  0  0  0  0  0  0  0  0  0  0
  161.2060  207.6930  149.4830 C   0  0  0  0  0  3  0  0  0  0  0  0
  161.2050  205.4510  153.6390 C   0  0  0  0  0  2  0  0  0  0  0  0
  162.0600  205.7430  152.6670 C   0  0  0  0  0  3  0  0  0  0  0  0
  2  1  1  6  0  0  0
  2  5  1  0  0  0  0
  2 11  1  0  0  0  0
  3  9  1  0  0  0  0
  4  3  2  0  0  0  0
  5  9  2  0  0  0  0
  7  8  2  0  0  0  0
  7  4  1  0  0  0  0
  8  5  1  0  0  0  0
  9  6  1  0  0  0  0
 11 15  2  0  0  0  0
 11 12  1  0  0  0  0
 12 13  2  0  0  0  0
 13 10  1  0  0  0  0
 14 10  2  0  0  0  0
 15 14  1  0  0  0  0
 16  2  1  0  0  0  0
 17 16  1  0  0  0  0
 18 23  2  0  0  0  0
 18 25  1  0  0  0  0
 19 23  1  0  0  0  0
 20 21  1  0  0  0  0
 20 22  2  0  0  0  0
 22 27  1  0  0  0  0
 23 20  1  0  0  0  0
 24 22  1  0  0  0  0
 24 17  1  0  0  0  0
 25 24  2  0  0  0  0
 27 26  2  0  0  0  0
M  END
>  <MODEL>
6

>  <REMARK>
 VINA RESULT:      -6.9      1.476      2.534
  Name = 
  6 active torsions:
  status: ('A' for Active; 'I' for Inactive)
    1  A    between atoms: N_2  and  C_6
    2  A    between atoms: N_2  and  C_15
    3  A    between atoms: C_6  and  C_17
    4  A    between atoms: C_9  and  C_15
    5  A    between atoms: C_14  and  C_19
    6  A    between atoms: C_15  and  C_18
                            x       y       z     vdW  Elec       q    Type
                         _______ _______ _______ _____ _____    ______ ____

>  <TORSDO>
F 6

$$$$
=
 OpenBabel11052423163D

 27 29  0  0  1  0  0  0  0  0999 V2000
  159.8860  206.5300  148.9090 C   0  0  0  0  0  1  0  0  0  0  0  0
  161.1370  205.7290  148.5180 C   0  0  2  0  0  0  0  0  0  0  0  0
  162.3220  205.1850  144.9010 C   0  0  0  0  0  3  0  0  0  0  0  0
  161.2060  205.6340  144.1990 C   0  0  0  0  0  3  0  0  0  0  0  0
  161.1890  205.6720  146.9940 C   0  0  0  0  0  0  0  0  0  0  0  0
  163.5620  204.7230  146.9900 C   0  0  0  0  0  1  0  0  0  0  0  0
  160.1030  206.1030  144.9080 C   0  0  0  0  0  3  0  0  0  0  0  0
  160.1200  206.1130  146.2660 N   0  0  0  0  0  0  0  0  0  0  0  0
  162.3310  205.2000  146.2960 C   0  0  0  0  0  0  0  0  0  0  0  0
  160.8280  201.7140  150.1420 C   0  0  0  0  0  3  0  0  0  0  0  0
  161.0770  204.3170  149.1030 C   0  0  0  0  0  0  0  0  0  0  0  0
  161.0360  203.2040  148.2460 C   0  0  0  0  0  3  0  0  0  0  0  0
  160.9200  201.9100  148.7620 C   0  0  0  0  0  3  0  0  0  0  0  0
  160.8440  202.8120  151.0060 C   0  0  0  0  0  3  0  0  0  0  0  0
  160.9590  204.1060  150.4890 C   0  0  0  0  0  3  0  0  0  0  0  0
  162.3450  206.4230  148.9990 N   0  0  0  0  0  2  0  0  0  0  0  0
  162.4240  206.4280  150.4600 C   0  0  0  0  0  2  0  0  0  0  0  0
  161.9450  210.1560  150.5980 C   0  0  0  0  0  3  0  0  0  0  0  0
  160.8300  211.5820  152.1340 F   0  0  0  0  0  0  0  0  0  0  0  0
  160.8510  209.2290  152.5490 C   0  0  0  0  0  0  0  0  0  0  0  0
  160.1110  209.4330  153.7100 O   0  0  0  0  0  1  0  0  0  0  0  0
  161.2420  207.9270  152.1710 C   0  0  0  0  0  0  0  0  0  0  0  0
  161.2060  210.3330  151.7650 C   0  0  0  0  0  0  0  0  0  0  0  0
  161.9980  207.7600  150.9800 C   0  0  0  0  0  0  0  0  0  0  0  0
  162.3350  208.8770  150.2070 C   0  0  0  0  0  3  0  0  0  0  0  0
  161.3470  206.5510  154.2550 C   0  0  0  0  0  2  0  0  0  0  0  0
  160.8300  206.8140  153.0620 C   0  0  0  0  0  3  0  0  0  0  0  0
  2  1  1  1  0  0  0
  2 16  1  0  0  0  0
  2 11  1  0  0  0  0
  3  9  1  0  0  0  0
  4  3  2  0  0  0  0
  4  7  1  0  0  0  0
  5  2  1  0  0  0  0
  7  8  2  0  0  0  0
  8  5  1  0  0  0  0
  9  6  1  0  0  0  0
  9  5  2  0  0  0  0
 10 14  1  0  0  0  0
 11 15  1  0  0  0  0
 12 13  1  0  0  0  0
 12 11  2  0  0  0  0
 13 10  2  0  0  0  0
 15 14  2  0  0  0  0
 16 17  1  0  0  0  0
 17 24  1  0  0  0  0
 18 23  1  0  0  0  0
 20 21  1  0  0  0  0
 22 20  1  0  0  0  0
 22 27  1  0  0  0  0
 23 19  1  0  0  0  0
 23 20  2  0  0  0  0
 24 22  2  0  0  0  0
 25 18  2  0  0  0  0
 25 24  1  0  0  0  0
 27 26  2  0  0  0  0
M  END
>  <MODEL>
7

>  <REMARK>
 VINA RESULT:      -6.6      3.603      7.835
  Name = 
  6 active torsions:
  status: ('A' for Active; 'I' for Inactive)
    1  A    between atoms: N_2  and  C_6
    2  A    between atoms: N_2  and  C_15
    3  A    between atoms: C_6  and  C_17
    4  A    between atoms: C_9  and  C_15
    5  A    between atoms: C_14  and  C_19
    6  A    between atoms: C_15  and  C_18
                            x       y       z     vdW  Elec       q    Type
                         _______ _______ _______ _____ _____    ______ ____

>  <TORSDO>
F 6

$$$$
=
 OpenBabel11052423163D

 27 29  0  0  1  0  0  0  0  0999 V2000
  163.0820  206.6990  151.0000 C   0  0  0  0  0  1  0  0  0  0  0  0
  161.6850  207.3340  151.0750 C   0  0  2  0  0  0  0  0  0  0  0  0
  162.2430  210.2490  148.6290 C   0  0  0  0  0  3  0  0  0  0  0  0
  161.9700  211.3320  149.4600 C   0  0  0  0  0  3  0  0  0  0  0  0
  161.7840  208.7330  150.4710 C   0  0  0  0  0  0  0  0  0  0  0  0
  162.4790  207.8260  148.1840 C   0  0  0  0  0  1  0  0  0  0  0  0
  161.6170  211.0970  150.7860 C   0  0  0  0  0  3  0  0  0  0  0  0
  161.5360  209.8250  151.2540 N   0  0  0  0  0  0  0  0  0  0  0  0
  162.1570  208.9450  149.1180 C   0  0  0  0  0  0  0  0  0  0  0  0
  160.4520  207.6190  155.2290 C   0  0  0  0  0  3  0  0  0  0  0  0
  161.2070  207.4130  152.5260 C   0  0  0  0  0  0  0  0  0  0  0  0
  160.8100  208.6480  153.0680 C   0  0  0  0  0  3  0  0  0  0  0  0
  160.4280  208.7490  154.4080 C   0  0  0  0  0  3  0  0  0  0  0  0
  160.8670  206.3890  154.7110 C   0  0  0  0  0  3  0  0  0  0  0  0
  161.2500  206.2890  153.3700 C   0  0  0  0  0  3  0  0  0  0  0  0
  160.7330  206.5470  150.2730 N   0  0  0  0  0  2  0  0  0  0  0  0
  160.9020  205.1090  150.4850 C   0  0  0  0  0  2  0  0  0  0  0  0
  161.5110  204.6430  146.8030 C   0  0  0  0  0  3  0  0  0  0  0  0
  161.5150  202.7280  145.4000 F   0  0  0  0  0  0  0  0  0  0  0  0
  161.0260  202.4560  147.7220 C   0  0  0  0  0  0  0  0  0  0  0  0
  160.8740  201.0870  147.5250 O   0  0  0  0  0  1  0  0  0  0  0  0
  160.8530  203.0150  149.0060 C   0  0  0  0  0  0  0  0  0  0  0  0
  161.3510  203.2700  146.6310 C   0  0  0  0  0  0  0  0  0  0  0  0
  161.0150  204.4180  149.1680 C   0  0  0  0  0  0  0  0  0  0  0  0
  161.3470  205.2110  148.0650 C   0  0  0  0  0  3  0  0  0  0  0  0
  161.3710  201.4420  150.8790 C   0  0  0  0  0  2  0  0  0  0  0  0
  160.5030  202.0830  150.1070 C   0  0  0  0  0  3  0  0  0  0  0  0
  2  1  1  6  0  0  0
  2 11  1  0  0  0  0
  3  9  2  0  0  0  0
  3  4  1  0  0  0  0
  4  7  2  0  0  0  0
  5  2  1  0  0  0  0
  5  8  2  0  0  0  0
  6  9  1  0  0  0  0
  7  8  1  0  0  0  0
  9  5  1  0  0  0  0
 11 12  2  0  0  0  0
 11 15  1  0  0  0  0
 12 13  1  0  0  0  0
 13 10  2  0  0  0  0
 14 10  1  0  0  0  0
 15 14  2  0  0  0  0
 16 17  1  0  0  0  0
 16  2  1  0  0  0  0
 18 25  1  0  0  0  0
 19 23  1  0  0  0  0
 20 22  2  0  0  0  0
 21 20  1  0  0  0  0
 22 24  1  0  0  0  0
 22 27  1  0  0  0  0
 23 18  2  0  0  0  0
 23 20  1  0  0  0  0
 24 17  1  0  0  0  0
 25 24  2  0  0  0  0
 27 26  2  0  0  0  0
M  END
>  <MODEL>
8

>  <REMARK>
 VINA RESULT:      -6.2      2.603      4.398
  Name = 
  6 active torsions:
  status: ('A' for Active; 'I' for Inactive)
    1  A    between atoms: N_2  and  C_6
    2  A    between atoms: N_2  and  C_15
    3  A    between atoms: C_6  and  C_17
    4  A    between atoms: C_9  and  C_15
    5  A    between atoms: C_14  and  C_19
    6  A    between atoms: C_15  and  C_18
                            x       y       z     vdW  Elec       q    Type
                         _______ _______ _______ _____ _____    ______ ____

>  <TORSDO>
F 6

$$$$
=
 OpenBabel11052423163D

 27 29  0  0  1  0  0  0  0  0999 V2000
  159.6210  208.3280  154.1350 C   0  0  0  0  0  1  0  0  0  0  0  0
  160.7520  209.2890  153.7400 C   0  0  2  0  0  0  0  0  0  0  0  0
  162.3220  209.0240  157.2400 C   0  0  0  0  0  3  0  0  0  0  0  0
  163.0920  210.1840  157.2610 C   0  0  0  0  0  3  0  0  0  0  0  0
  161.5760  209.5700  154.9940 C   0  0  0  0  0  0  0  0  0  0  0  0
  160.7390  207.4570  156.1640 C   0  0  0  0  0  1  0  0  0  0  0  0
  163.0840  211.0220  156.1490 C   0  0  0  0  0  3  0  0  0  0  0  0
  162.3370  210.7030  155.0610 N   0  0  0  0  0  0  0  0  0  0  0  0
  161.5570  208.7040  156.1180 C   0  0  0  0  0  0  0  0  0  0  0  0
  159.0230  212.9080  152.0760 C   0  0  0  0  0  3  0  0  0  0  0  0
  160.1790  210.5910  153.1760 C   0  0  0  0  0  0  0  0  0  0  0  0
  159.0110  211.1420  153.7310 C   0  0  0  0  0  3  0  0  0  0  0  0
  158.4400  212.2970  153.1890 C   0  0  0  0  0  3  0  0  0  0  0  0
  160.1710  212.3600  151.4990 C   0  0  0  0  0  3  0  0  0  0  0  0
  160.7410  211.2030  152.0410 C   0  0  0  0  0  3  0  0  0  0  0  0
  161.6260  208.6490  152.7420 N   0  0  0  0  0  2  0  0  0  0  0  0
  161.1570  207.3100  152.3860 C   0  0  0  0  0  2  0  0  0  0  0  0
  162.0310  208.0430  148.8030 C   0  0  0  0  0  3  0  0  0  0  0  0
  162.1000  206.6920  146.8520 F   0  0  0  0  0  0  0  0  0  0  0  0
  161.4330  205.7000  148.9200 C   0  0  0  0  0  0  0  0  0  0  0  0
  161.2670  204.4790  148.2740 O   0  0  0  0  0  1  0  0  0  0  0  0
  161.1750  205.8170  150.3020 C   0  0  0  0  0  0  0  0  0  0  0  0
  161.8560  206.8100  148.1800 C   0  0  0  0  0  0  0  0  0  0  0  0
  161.3540  207.0820  150.9250 C   0  0  0  0  0  0  0  0  0  0  0  0
  161.7850  208.1760  150.1670 C   0  0  0  0  0  3  0  0  0  0  0  0
  161.5140  203.7270  151.6310 C   0  0  0  0  0  2  0  0  0  0  0  0
  160.7240  204.5930  151.0100 C   0  0  0  0  0  3  0  0  0  0  0  0
  2  1  1  1  0  0  0
  2  5  1  0  0  0  0
  3  4  1  0  0  0  0
  5  8  2  0  0  0  0
  5  9  1  0  0  0  0
  7  4  2  0  0  0  0
  8  7  1  0  0  0  0
  9  6  1  0  0  0  0
  9  3  2  0  0  0  0
 10 13  1  0  0  0  0
 11 12  1  0  0  0  0
 11  2  1  0  0  0  0
 13 12  2  0  0  0  0
 14 15  1  0  0  0  0
 14 10  2  0  0  0  0
 15 11  2  0  0  0  0
 16  2  1  0  0  0  0
 17 16  1  0  0  0  0
 18 25  1  0  0  0  0
 19 23  1  0  0  0  0
 20 22  2  0  0  0  0
 21 20  1  0  0  0  0
 22 24  1  0  0  0  0
 22 27  1  0  0  0  0
 23 18  2  0  0  0  0
 23 20  1  0  0  0  0
 24 17  1  0  0  0  0
 25 24  2  0  0  0  0
 27 26  2  0  0  0  0
M  END
>  <MODEL>
9

>  <REMARK>
 VINA RESULT:      -6.1      1.716      4.323
  Name = 
  6 active torsions:
  status: ('A' for Active; 'I' for Inactive)
    1  A    between atoms: N_2  and  C_6
    2  A    between atoms: N_2  and  C_15
    3  A    between atoms: C_6  and  C_17
    4  A    between atoms: C_9  and  C_15
    5  A    between atoms: C_14  and  C_19
    6  A    between atoms: C_15  and  C_18
                            x       y       z     vdW  Elec       q    Type
                         _______ _______ _______ _____ _____    ______ ____

>  <TORSDO>
F 6

$$$$
