=
 OpenBabel11052422293D

 31 35  0  0  1  0  0  0  0  0999 V2000
  160.8320  202.1050  150.5980 C   0  0  0  0  0  0  0  0  0  0  0  0
  161.5260  205.4980  149.1460 C   0  0  0  0  0  0  0  0  0  0  0  0
  161.6660  205.2870  147.6640 C   0  0  0  0  0  0  0  0  0  0  0  0
  160.9690  203.7960  145.8260 C   0  0  0  0  0  2  0  0  0  0  0  0
  161.2570  204.4500  150.0710 C   0  0  0  0  0  0  0  0  0  0  0  0
  160.7130  202.4170  151.9520 C   0  0  0  0  0  3  0  0  0  0  0  0
  161.8500  203.9270  147.0580 C   0  0  0  0  0  2  0  0  0  0  0  0
  161.4920  207.1000  151.0070 C   0  0  0  0  0  0  0  0  0  0  0  0
  160.6740  200.7000  150.1410 C   0  0  0  0  0  1  0  0  0  0  0  0
  161.5380  207.6400  147.3630 O   0  0  0  0  0  0  0  0  0  0  0  0
  161.3410  204.8520  144.7840 C   0  0  1  0  0  3  0  0  0  0  0  0
  161.2450  206.0580  151.9010 C   0  0  0  0  0  3  0  0  0  0  0  0
  161.6210  206.8240  149.6360 C   0  0  0  0  0  0  0  0  0  0  0  0
  161.0980  203.1130  149.6700 C   0  0  0  0  0  3  0  0  0  0  0  0
  160.4070  205.9060  144.8410 O   0  0  0  0  0  0  0  0  0  0  0  0
  161.1230  204.7500  151.4520 C   0  0  0  0  0  0  0  0  0  0  0  0
  160.8570  203.7370  152.3770 C   0  0  0  0  0  3  0  0  0  0  0  0
  161.9520  207.9450  148.6920 C   0  0  0  0  0  2  0  0  0  0  0  0
  161.6340  206.3500  146.8370 C   0  0  0  0  0  0  0  0  0  0  0  0
  161.6910  206.2040  145.3340 C   0  0  1  0  0  3  0  0  0  0  0  0
  161.6250  208.4470  151.4820 N   0  0  0  0  0  2  0  0  0  0  0  0
  160.4850  210.8110  152.0000 S   0  0  0  0  0  1  0  0  0  0  0  0
  160.7130  209.0600  152.4440 C   0  0  2  0  0  3  0  0  0  0  0  0
  160.5790  207.9400  154.5670 O   0  0  0  0  0  1  0  0  0  0  0  0
  161.2650  208.9410  153.8720 C   0  0  2  0  0  3  0  0  0  0  0  0
  162.4210  210.6780  155.1700 N   0  0  0  0  0  1  0  0  0  0  0  0
  161.1360  210.2730  154.6270 C   0  0  2  0  0  3  0  0  0  0  0  0
  160.1420  210.1670  155.7790 C   0  0  0  0  0  2  0  0  0  0  0  0
  159.2250  211.3800  155.8310 C   0  0  0  0  0  3  0  0  0  0  0  0
  157.9960  211.1130  154.9890 C   0  0  0  0  0  1  0  0  0  0  0  0
  158.8000  211.6550  157.2600 C   0  0  0  0  0  1  0  0  0  0  0  0
  1  6  1  0  0  0  0
  2 13  2  0  0  0  0
  2  5  1  0  0  0  0
  3  2  1  0  0  0  0
  4  7  1  0  0  0  0
  5 16  2  0  0  0  0
  6 17  2  0  0  0  0
  7  3  1  0  0  0  0
  8 21  1  0  0  0  0
  8 12  2  0  0  0  0
  9  1  1  0  0  0  0
 10 18  1  0  0  0  0
 11 15  1  0  0  0  0
 11 20  1  0  0  0  0
 11  4  1  1  0  0  0
 13  8  1  0  0  0  0
 14  5  1  0  0  0  0
 14  1  2  0  0  0  0
 16 12  1  0  0  0  0
 16 17  1  0  0  0  0
 18 13  1  0  0  0  0
 19 10  1  0  0  0  0
 19  3  2  0  0  0  0
 20 15  1  6  0  0  0
 20 19  1  0  0  0  0
 21 23  1  0  0  0  0
 23 22  1  6  0  0  0
 23 25  1  0  0  0  0
 25 24  1  1  0  0  0
 25 27  1  0  0  0  0
 27 26  1  1  0  0  0
 27 28  1  0  0  0  0
 28 29  1  0  0  0  0
 29 31  1  0  0  0  0
 30 29  1  0  0  0  0
M  END
>  <MODEL>
1

>  <REMARK>
 VINA RESULT:      -9.0      0.000      0.000
  Name = 
  6 active torsions:
  status: ('A' for Active; 'I' for Inactive)
    1  A    between atoms: C_1  and  C_24
    2  A    between atoms: C_9  and  C_22
    3  A    between atoms: C_9  and  N_23
    4  A    between atoms: C_15  and  N_23
    5  A    between atoms: C_19  and  C_22
    6  A    between atoms: C_19  and  C_24
                            x       y       z     vdW  Elec       q    Type
                         _______ _______ _______ _____ _____    ______ ____

>  <TORSDO>
F 6

$$$$
=
 OpenBabel11052422293D

 31 35  0  0  1  0  0  0  0  0999 V2000
  160.9440  202.0380  150.5400 C   0  0  0  0  0  0  0  0  0  0  0  0
  161.3720  205.4930  149.1320 C   0  0  0  0  0  0  0  0  0  0  0  0
  161.5590  205.3100  147.6520 C   0  0  0  0  0  0  0  0  0  0  0  0
  161.0310  203.7850  145.7870 C   0  0  0  0  0  2  0  0  0  0  0  0
  161.1760  204.4170  150.0430 C   0  0  0  0  0  0  0  0  0  0  0  0
  160.7720  202.3250  151.8940 C   0  0  0  0  0  3  0  0  0  0  0  0
  161.8720  203.9770  147.0380 C   0  0  0  0  0  2  0  0  0  0  0  0
  161.1630  207.0670  151.0060 C   0  0  0  0  0  0  0  0  0  0  0  0
  160.9170  200.6300  150.0680 C   0  0  0  0  0  1  0  0  0  0  0  0
  161.2340  207.6470  147.3680 O   0  0  0  0  0  0  0  0  0  0  0  0
  161.3310  204.8790  144.7620 C   0  0  1  0  0  3  0  0  0  0  0  0
  160.9890  205.9990  151.8860 C   0  0  0  0  0  3  0  0  0  0  0  0
  161.3420  206.8180  149.6350 C   0  0  0  0  0  0  0  0  0  0  0  0
  161.1410  203.0750  149.6270 C   0  0  0  0  0  3  0  0  0  0  0  0
  160.3090  205.8480  144.8080 O   0  0  0  0  0  0  0  0  0  0  0  0
  160.9880  204.6900  151.4220 C   0  0  0  0  0  0  0  0  0  0  0  0
  160.7930  203.6480  152.3340 C   0  0  0  0  0  3  0  0  0  0  0  0
  161.5950  207.9720  148.7080 C   0  0  0  0  0  2  0  0  0  0  0  0
  161.4530  206.3760  146.8330 C   0  0  0  0  0  0  0  0  0  0  0  0
  161.5530  206.2510  145.3310 C   0  0  1  0  0  3  0  0  0  0  0  0
  161.1690  208.4150  151.4950 N   0  0  0  0  0  2  0  0  0  0  0  0
  160.7360  208.0710  154.1130 S   0  0  0  0  0  1  0  0  0  0  0  0
  161.7370  208.8070  152.7820 C   0  0  2  0  0  3  0  0  0  0  0  0
  162.2110  210.6890  154.2010 O   0  0  0  0  0  1  0  0  0  0  0  0
  161.7660  210.3360  152.9230 C   0  0  2  0  0  3  0  0  0  0  0  0
  160.3990  211.8170  151.5170 N   0  0  0  0  0  1  0  0  0  0  0  0
  160.3750  210.9410  152.6760 C   0  0  2  0  0  3  0  0  0  0  0  0
  159.8980  211.7500  153.8770 C   0  0  0  0  0  2  0  0  0  0  0  0
  158.6020  211.1900  154.4410 C   0  0  0  0  0  3  0  0  0  0  0  0
  158.7720  210.9280  155.9220 C   0  0  0  0  0  1  0  0  0  0  0  0
  157.4700  212.1780  154.2380 C   0  0  0  0  0  1  0  0  0  0  0  0
  1  6  1  0  0  0  0
  2 13  2  0  0  0  0
  2  5  1  0  0  0  0
  3  2  1  0  0  0  0
  4  7  1  0  0  0  0
  5 16  2  0  0  0  0
  6 17  2  0  0  0  0
  7  3  1  0  0  0  0
  8 21  1  0  0  0  0
  8 12  2  0  0  0  0
  9  1  1  0  0  0  0
 10 18  1  0  0  0  0
 11 15  1  0  0  0  0
 11 20  1  0  0  0  0
 11  4  1  1  0  0  0
 13  8  1  0  0  0  0
 14  5  1  0  0  0  0
 14  1  2  0  0  0  0
 16 12  1  0  0  0  0
 16 17  1  0  0  0  0
 18 13  1  0  0  0  0
 19 10  1  0  0  0  0
 19  3  2  0  0  0  0
 20 15  1  6  0  0  0
 20 19  1  0  0  0  0
 21 23  1  0  0  0  0
 23 25  1  0  0  0  0
 23 22  1  1  0  0  0
 25 24  1  1  0  0  0
 27 26  1  6  0  0  0
 27 25  1  0  0  0  0
 27 28  1  0  0  0  0
 28 29  1  0  0  0  0
 29 30  1  0  0  0  0
 31 29  1  0  0  0  0
M  END
>  <MODEL>
2

>  <REMARK>
 VINA RESULT:      -8.5      1.319      1.529
  Name = 
  6 active torsions:
  status: ('A' for Active; 'I' for Inactive)
    1  A    between atoms: C_1  and  C_24
    2  A    between atoms: C_9  and  C_22
    3  A    between atoms: C_9  and  N_23
    4  A    between atoms: C_15  and  N_23
    5  A    between atoms: C_19  and  C_22
    6  A    between atoms: C_19  and  C_24
                            x       y       z     vdW  Elec       q    Type
                         _______ _______ _______ _____ _____    ______ ____

>  <TORSDO>
F 6

$$$$
=
 OpenBabel11052422293D

 31 35  0  0  1  0  0  0  0  0999 V2000
  161.1360  205.0290  149.9850 C   0  0  0  0  0  0  0  0  0  0  0  0
  161.2430  208.3970  151.6440 C   0  0  0  0  0  0  0  0  0  0  0  0
  160.9100  208.1510  153.0890 C   0  0  0  0  0  0  0  0  0  0  0  0
  161.0020  206.4270  154.8510 C   0  0  0  0  0  2  0  0  0  0  0  0
  161.3080  207.3690  150.6620 C   0  0  0  0  0  0  0  0  0  0  0  0
  161.4630  205.3710  148.6730 C   0  0  0  0  0  3  0  0  0  0  0  0
  160.3110  206.8620  153.5700 C   0  0  0  0  0  2  0  0  0  0  0  0
  161.8830  210.0290  149.9240 C   0  0  0  0  0  0  0  0  0  0  0  0
  160.8670  203.6120  150.3400 C   0  0  0  0  0  1  0  0  0  0  0  0
  161.6360  210.3580  153.5860 O   0  0  0  0  0  0  0  0  0  0  0  0
  160.8290  207.4850  155.9430 C   0  0  1  0  0  3  0  0  0  0  0  0
  161.9260  209.0110  148.9720 C   0  0  0  0  0  3  0  0  0  0  0  0
  161.5550  209.7230  151.2550 C   0  0  0  0  0  0  0  0  0  0  0  0
  161.0630  206.0190  150.9670 C   0  0  0  0  0  3  0  0  0  0  0  0
  162.0120  208.2430  156.0410 O   0  0  0  0  0  0  0  0  0  0  0  0
  161.6490  207.6960  149.3240 C   0  0  0  0  0  0  0  0  0  0  0  0
  161.7200  206.7020  148.3440 C   0  0  0  0  0  3  0  0  0  0  0  0
  161.4470  210.8380  152.2570 C   0  0  0  0  0  2  0  0  0  0  0  0
  161.1470  209.1170  153.9980 C   0  0  0  0  0  0  0  0  0  0  0  0
  160.9090  208.9090  155.4760 C   0  0  1  0  0  3  0  0  0  0  0  0
  162.1630  211.3850  149.5490 N   0  0  0  0  0  2  0  0  0  0  0  0
  163.3710  212.5380  147.4580 S   0  0  0  0  0  1  0  0  0  0  0  0
  161.8370  211.9460  148.2410 C   0  0  2  0  0  3  0  0  0  0  0  0
  160.4050  213.2060  149.7050 O   0  0  0  0  0  1  0  0  0  0  0  0
  160.8310  213.0990  148.3780 C   0  0  2  0  0  3  0  0  0  0  0  0
  160.0210  212.2610  146.2140 N   0  0  0  0  0  1  0  0  0  0  0  0
  159.6160  212.8840  147.4620 C   0  0  2  0  0  3  0  0  0  0  0  0
  158.9230  214.2020  147.1350 C   0  0  0  0  0  2  0  0  0  0  0  0
  157.4160  214.0930  147.3100 C   0  0  0  0  0  3  0  0  0  0  0  0
  156.7930  213.6510  146.0040 C   0  0  0  0  0  1  0  0  0  0  0  0
  157.0850  213.0790  148.3880 C   0  0  0  0  0  1  0  0  0  0  0  0
  1  9  1  0  0  0  0
  1 14  1  0  0  0  0
  2  3  1  0  0  0  0
  3  7  1  0  0  0  0
  3 19  2  0  0  0  0
  5 14  2  0  0  0  0
  5  2  1  0  0  0  0
  6  1  2  0  0  0  0
  7  4  1  0  0  0  0
  8 13  1  0  0  0  0
 10 19  1  0  0  0  0
 11  4  1  6  0  0  0
 11 15  1  0  0  0  0
 12 16  1  0  0  0  0
 12  8  2  0  0  0  0
 13  2  2  0  0  0  0
 13 18  1  0  0  0  0
 16  5  1  0  0  0  0
 17  6  1  0  0  0  0
 17 16  2  0  0  0  0
 18 10  1  0  0  0  0
 20 19  1  6  0  0  0
 20 11  1  0  0  0  0
 20 15  1  0  0  0  0
 21  8  1  0  0  0  0
 23 22  1  1  0  0  0
 23 25  1  0  0  0  0
 23 21  1  0  0  0  0
 25 24  1  1  0  0  0
 27 26  1  6  0  0  0
 27 25  1  0  0  0  0
 28 29  1  0  0  0  0
 28 27  1  0  0  0  0
 29 31  1  0  0  0  0
 30 29  1  0  0  0  0
M  END
>  <MODEL>
3

>  <REMARK>
 VINA RESULT:      -7.6      3.933      6.956
  Name = 
  6 active torsions:
  status: ('A' for Active; 'I' for Inactive)
    1  A    between atoms: C_1  and  C_24
    2  A    between atoms: C_9  and  C_22
    3  A    between atoms: C_9  and  N_23
    4  A    between atoms: C_15  and  N_23
    5  A    between atoms: C_19  and  C_22
    6  A    between atoms: C_19  and  C_24
                            x       y       z     vdW  Elec       q    Type
                         _______ _______ _______ _____ _____    ______ ____

>  <TORSDO>
F 6

$$$$
=
 OpenBabel11052422293D

 31 35  0  0  1  0  0  0  0  0999 V2000
  160.7170  207.7410  154.9300 C   0  0  0  0  0  0  0  0  0  0  0  0
  161.4530  207.1900  151.2890 C   0  0  0  0  0  0  0  0  0  0  0  0
  161.4660  205.6990  151.0960 C   0  0  0  0  0  0  0  0  0  0  0  0
  160.5580  203.6000  152.0190 C   0  0  0  0  0  2  0  0  0  0  0  0
  161.2090  207.8230  152.5400 C   0  0  0  0  0  0  0  0  0  0  0  0
  160.7200  209.1340  154.9920 C   0  0  0  0  0  3  0  0  0  0  0  0
  161.5380  204.7390  152.2470 C   0  0  0  0  0  2  0  0  0  0  0  0
  161.6400  209.4060  150.2470 C   0  0  0  0  0  0  0  0  0  0  0  0
  160.4580  206.9430  156.1560 C   0  0  0  0  0  1  0  0  0  0  0  0
  161.4240  206.0480  148.7460 O   0  0  0  0  0  0  0  0  0  0  0  0
  160.8960  202.8480  150.7310 C   0  0  1  0  0  3  0  0  0  0  0  0
  161.4160  210.0090  151.4850 C   0  0  0  0  0  3  0  0  0  0  0  0
  161.6480  208.0050  150.1460 C   0  0  0  0  0  0  0  0  0  0  0  0
  160.9570  207.0960  153.7150 C   0  0  0  0  0  3  0  0  0  0  0  0
  160.0200  203.2660  149.7090 O   0  0  0  0  0  0  0  0  0  0  0  0
  161.1970  209.2400  152.6200 C   0  0  0  0  0  0  0  0  0  0  0  0
  160.9580  209.8820  153.8390 C   0  0  0  0  0  3  0  0  0  0  0  0
  161.9560  207.3680  148.8210 C   0  0  0  0  0  2  0  0  0  0  0  0
  161.4190  205.1920  149.8490 C   0  0  0  0  0  0  0  0  0  0  0  0
  161.3510  203.7050  149.5860 C   0  0  1  0  0  3  0  0  0  0  0  0
  161.8730  210.2100  149.0810 N   0  0  0  0  0  2  0  0  0  0  0  0
  160.7150  212.5320  149.7340 S   0  0  0  0  0  1  0  0  0  0  0  0
  162.1810  211.6360  149.1290 C   0  0  2  0  0  3  0  0  0  0  0  0
  163.7690  212.8950  147.8340 O   0  0  0  0  0  1  0  0  0  0  0  0
  162.5850  212.1540  147.7420 C   0  0  2  0  0  3  0  0  0  0  0  0
  160.4930  212.2030  146.4540 N   0  0  0  0  0  1  0  0  0  0  0  0
  161.4770  213.0280  147.1320 C   0  0  2  0  0  3  0  0  0  0  0  0
  162.0420  214.0230  146.1260 C   0  0  0  0  0  2  0  0  0  0  0  0
  161.9750  213.4750  144.7090 C   0  0  0  0  0  3  0  0  0  0  0  0
  161.1630  214.4160  143.8460 C   0  0  0  0  0  1  0  0  0  0  0  0
  163.3700  213.3460  144.1280 C   0  0  0  0  0  1  0  0  0  0  0  0
  1  6  1  0  0  0  0
  1  9  1  0  0  0  0
  2  5  1  0  0  0  0
  3  2  1  0  0  0  0
  3  7  1  0  0  0  0
  4  7  1  0  0  0  0
  5 16  2  0  0  0  0
  5 14  1  0  0  0  0
  8 12  2  0  0  0  0
 10 18  1  0  0  0  0
 10 19  1  0  0  0  0
 11  4  1  1  0  0  0
 12 16  1  0  0  0  0
 13  8  1  0  0  0  0
 13  2  2  0  0  0  0
 14  1  2  0  0  0  0
 15 11  1  0  0  0  0
 16 17  1  0  0  0  0
 17  6  2  0  0  0  0
 18 13  1  0  0  0  0
 19  3  2  0  0  0  0
 20 15  1  6  0  0  0
 20 19  1  0  0  0  0
 20 11  1  0  0  0  0
 21 23  1  0  0  0  0
 21  8  1  0  0  0  0
 23 22  1  6  0  0  0
 25 24  1  1  0  0  0
 25 23  1  0  0  0  0
 27 26  1  6  0  0  0
 27 25  1  0  0  0  0
 28 27  1  0  0  0  0
 29 28  1  0  0  0  0
 30 29  1  0  0  0  0
 31 29  1  0  0  0  0
M  END
>  <MODEL>
4

>  <REMARK>
 VINA RESULT:      -7.6      3.700      6.748
  Name = 
  6 active torsions:
  status: ('A' for Active; 'I' for Inactive)
    1  A    between atoms: C_1  and  C_24
    2  A    between atoms: C_9  and  C_22
    3  A    between atoms: C_9  and  N_23
    4  A    between atoms: C_15  and  N_23
    5  A    between atoms: C_19  and  C_22
    6  A    between atoms: C_19  and  C_24
                            x       y       z     vdW  Elec       q    Type
                         _______ _______ _______ _____ _____    ______ ____

>  <TORSDO>
F 6

$$$$
=
 OpenBabel11052422293D

 31 35  0  0  1  0  0  0  0  0999 V2000
  161.0510  204.0450  145.6080 C   0  0  0  0  0  0  0  0  0  0  0  0
  161.4040  205.1130  149.1910 C   0  0  0  0  0  0  0  0  0  0  0  0
  161.0970  203.8920  150.0130 C   0  0  0  0  0  0  0  0  0  0  0  0
  161.1330  201.4270  149.9430 C   0  0  0  0  0  2  0  0  0  0  0  0
  161.3800  205.1340  147.7680 C   0  0  0  0  0  0  0  0  0  0  0  0
  161.3620  205.2330  144.9470 C   0  0  0  0  0  3  0  0  0  0  0  0
  160.4340  202.6770  149.4340 C   0  0  0  0  0  2  0  0  0  0  0  0
  162.0940  207.4700  149.1770 C   0  0  0  0  0  0  0  0  0  0  0  0
  160.7070  202.8280  144.8290 C   0  0  0  0  0  1  0  0  0  0  0  0
  161.9660  205.0130  151.9200 O   0  0  0  0  0  0  0  0  0  0  0  0
  161.0530  201.3480  151.4680 C   0  0  1  0  0  3  0  0  0  0  0  0
  162.0500  207.4760  147.7830 C   0  0  0  0  0  3  0  0  0  0  0  0
  161.7840  206.2930  149.8780 C   0  0  0  0  0  0  0  0  0  0  0  0
  161.0630  203.9980  147.0040 C   0  0  0  0  0  3  0  0  0  0  0  0
  162.2820  201.7670  152.0160 O   0  0  0  0  0  0  0  0  0  0  0  0
  161.7040  206.3300  147.0780 C   0  0  0  0  0  0  0  0  0  0  0  0
  161.6890  206.3720  145.6810 C   0  0  0  0  0  3  0  0  0  0  0  0
  161.7710  206.3170  151.3800 C   0  0  0  0  0  2  0  0  0  0  0  0
  161.4150  203.8770  151.3230 C   0  0  0  0  0  0  0  0  0  0  0  0
  161.2050  202.6570  152.1880 C   0  0  1  0  0  3  0  0  0  0  0  0
  162.4440  208.6600  149.8960 N   0  0  0  0  0  2  0  0  0  0  0  0
  161.9950  211.1210  148.9480 S   0  0  0  0  0  1  0  0  0  0  0  0
  161.5340  209.7840  150.0950 C   0  0  2  0  0  3  0  0  0  0  0  0
  162.8250  209.9540  152.1160 O   0  0  0  0  0  1  0  0  0  0  0  0
  161.5910  210.2850  151.5450 C   0  0  2  0  0  3  0  0  0  0  0  0
  159.4970  210.7020  152.7610 N   0  0  0  0  0  1  0  0  0  0  0  0
  160.4560  209.6780  152.3850 C   0  0  2  0  0  3  0  0  0  0  0  0
  160.9890  209.0320  153.6590 C   0  0  0  0  0  2  0  0  0  0  0  0
  160.6230  209.8490  154.8880 C   0  0  0  0  0  3  0  0  0  0  0  0
  159.9850  208.9430  155.9190 C   0  0  0  0  0  1  0  0  0  0  0  0
  161.8640  210.4850  155.4850 C   0  0  0  0  0  1  0  0  0  0  0  0
  1 14  1  0  0  0  0
  2 13  2  0  0  0  0
  2  3  1  0  0  0  0
  3 19  2  0  0  0  0
  5  2  1  0  0  0  0
  6  1  2  0  0  0  0
  6 17  1  0  0  0  0
  7  4  1  0  0  0  0
  7  3  1  0  0  0  0
  8 13  1  0  0  0  0
  8 21  1  0  0  0  0
  9  1  1  0  0  0  0
 11  4  1  6  0  0  0
 11 15  1  0  0  0  0
 11 20  1  0  0  0  0
 12  8  2  0  0  0  0
 13 18  1  0  0  0  0
 14  5  2  0  0  0  0
 15 20  1  0  0  0  0
 16  5  1  0  0  0  0
 16 12  1  0  0  0  0
 17 16  2  0  0  0  0
 18 10  1  0  0  0  0
 19 10  1  0  0  0  0
 20 19  1  6  0  0  0
 21 23  1  0  0  0  0
 23 22  1  6  0  0  0
 23 25  1  0  0  0  0
 25 24  1  1  0  0  0
 25 27  1  0  0  0  0
 27 26  1  1  0  0  0
 27 28  1  0  0  0  0
 28 29  1  0  0  0  0
 29 31  1  0  0  0  0
 29 30  1  0  0  0  0
M  END
>  <MODEL>
5

>  <REMARK>
 VINA RESULT:      -7.2      2.280      4.483
  Name = 
  6 active torsions:
  status: ('A' for Active; 'I' for Inactive)
    1  A    between atoms: C_1  and  C_24
    2  A    between atoms: C_9  and  C_22
    3  A    between atoms: C_9  and  N_23
    4  A    between atoms: C_15  and  N_23
    5  A    between atoms: C_19  and  C_22
    6  A    between atoms: C_19  and  C_24
                            x       y       z     vdW  Elec       q    Type
                         _______ _______ _______ _____ _____    ______ ____

>  <TORSDO>
F 6

$$$$
=
 OpenBabel11052422293D

 31 35  0  0  1  0  0  0  0  0999 V2000
  161.2040  200.7720  148.5020 C   0  0  0  0  0  0  0  0  0  0  0  0
  161.1330  204.5260  148.5140 C   0  0  0  0  0  0  0  0  0  0  0  0
  161.3620  204.9430  147.0880 C   0  0  0  0  0  0  0  0  0  0  0  0
  161.0880  204.1800  144.7580 C   0  0  0  0  0  2  0  0  0  0  0  0
  161.0880  203.1700  148.9430 C   0  0  0  0  0  0  0  0  0  0  0  0
  160.9760  200.4990  149.8500 C   0  0  0  0  0  3  0  0  0  0  0  0
  161.8760  203.9960  146.0440 C   0  0  0  0  0  2  0  0  0  0  0  0
  160.6700  205.2330  150.8200 C   0  0  0  0  0  0  0  0  0  0  0  0
  161.3920  199.6560  147.5390 C   0  0  0  0  0  1  0  0  0  0  0  0
  160.6990  207.1490  147.6730 O   0  0  0  0  0  0  0  0  0  0  0  0
  161.2350  205.6110  144.2360 C   0  0  1  0  0  3  0  0  0  0  0  0
  160.6460  203.8980  151.2250 C   0  0  0  0  0  3  0  0  0  0  0  0
  160.9010  205.5460  149.4700 C   0  0  0  0  0  0  0  0  0  0  0  0
  161.2570  202.0940  148.0560 C   0  0  0  0  0  3  0  0  0  0  0  0
  160.0800  206.3450  144.5720 O   0  0  0  0  0  0  0  0  0  0  0  0
  160.8450  202.8740  150.3090 C   0  0  0  0  0  0  0  0  0  0  0  0
  160.7950  201.5480  150.7510 C   0  0  0  0  0  3  0  0  0  0  0  0
  160.9910  206.9880  149.0590 C   0  0  0  0  0  2  0  0  0  0  0  0
  161.1090  206.2150  146.7190 C   0  0  0  0  0  0  0  0  0  0  0  0
  161.2440  206.6810  145.2890 C   0  0  1  0  0  3  0  0  0  0  0  0
  160.4710  206.2840  151.7750 N   0  0  0  0  0  2  0  0  0  0  0  0
  163.0730  206.0430  152.3500 S   0  0  0  0  0  1  0  0  0  0  0  0
  161.5590  207.0550  152.3700 C   0  0  2  0  0  3  0  0  0  0  0  0
  160.2880  206.5700  154.3530 O   0  0  0  0  0  1  0  0  0  0  0  0
  161.2140  207.4660  153.8080 C   0  0  2  0  0  3  0  0  0  0  0  0
  160.9520  209.6060  152.6280 N   0  0  0  0  0  1  0  0  0  0  0  0
  160.6400  208.8910  153.8540 C   0  0  2  0  0  3  0  0  0  0  0  0
  161.2070  209.6840  155.0270 C   0  0  0  0  0  2  0  0  0  0  0  0
  160.1440  209.9400  156.0840 C   0  0  0  0  0  3  0  0  0  0  0  0
  160.7320  210.7940  157.1870 C   0  0  0  0  0  1  0  0  0  0  0  0
  158.9590  210.6630  155.4730 C   0  0  0  0  0  1  0  0  0  0  0  0
  1  6  1  0  0  0  0
  2  5  2  0  0  0  0
  2 13  1  0  0  0  0
  3  2  1  0  0  0  0
  4  7  1  0  0  0  0
  5 16  1  0  0  0  0
  6 17  2  0  0  0  0
  7  3  1  0  0  0  0
  8 12  1  0  0  0  0
  8 21  1  0  0  0  0
  9  1  1  0  0  0  0
 10 18  1  0  0  0  0
 11 15  1  0  0  0  0
 11  4  1  1  0  0  0
 11 20  1  0  0  0  0
 13  8  2  0  0  0  0
 14  1  2  0  0  0  0
 14  5  1  0  0  0  0
 16 17  1  0  0  0  0
 16 12  2  0  0  0  0
 18 13  1  0  0  0  0
 19  3  2  0  0  0  0
 19 10  1  0  0  0  0
 20 15  1  6  0  0  0
 20 19  1  0  0  0  0
 21 23  1  0  0  0  0
 23 22  1  1  0  0  0
 23 25  1  0  0  0  0
 25 27  1  0  0  0  0
 25 24  1  6  0  0  0
 27 26  1  6  0  0  0
 27 28  1  0  0  0  0
 28 29  1  0  0  0  0
 29 30  1  0  0  0  0
 31 29  1  0  0  0  0
M  END
>  <MODEL>
6

>  <REMARK>
 VINA RESULT:      -7.0      1.555      2.138
  Name = 
  6 active torsions:
  status: ('A' for Active; 'I' for Inactive)
    1  A    between atoms: C_1  and  C_24
    2  A    between atoms: C_9  and  C_22
    3  A    between atoms: C_9  and  N_23
    4  A    between atoms: C_15  and  N_23
    5  A    between atoms: C_19  and  C_22
    6  A    between atoms: C_19  and  C_24
                            x       y       z     vdW  Elec       q    Type
                         _______ _______ _______ _____ _____    ______ ____

>  <TORSDO>
F 6

$$$$
=
 OpenBabel11052422293D

 31 35  0  0  1  0  0  0  0  0999 V2000
  161.6730  211.5200  149.6520 C   0  0  0  0  0  0  0  0  0  0  0  0
  161.4460  208.7860  152.2160 C   0  0  0  0  0  0  0  0  0  0  0  0
  161.1100  209.4690  153.5130 C   0  0  0  0  0  0  0  0  0  0  0  0
  160.0230  211.4800  154.4400 C   0  0  0  0  0  2  0  0  0  0  0  0
  161.6240  209.4740  150.9830 C   0  0  0  0  0  0  0  0  0  0  0  0
  161.9750  210.7830  148.5070 C   0  0  0  0  0  3  0  0  0  0  0  0
  161.2400  210.9520  153.6990 C   0  0  0  0  0  2  0  0  0  0  0  0
  161.8450  206.6630  151.0470 C   0  0  0  0  0  0  0  0  0  0  0  0
  161.5370  212.9970  149.5720 C   0  0  0  0  0  1  0  0  0  0  0  0
  160.6160  207.3430  154.4530 O   0  0  0  0  0  0  0  0  0  0  0  0
  159.9020  210.8220  155.8150 C   0  0  1  0  0  3  0  0  0  0  0  0
  162.0320  207.3560  149.8500 C   0  0  0  0  0  3  0  0  0  0  0  0
  161.5420  207.3720  152.2210 C   0  0  0  0  0  0  0  0  0  0  0  0
  161.4970  210.8690  150.8750 C   0  0  0  0  0  3  0  0  0  0  0  0
  158.9240  209.8090  155.7580 O   0  0  0  0  0  0  0  0  0  0  0  0
  161.9200  208.7400  149.8060 C   0  0  0  0  0  0  0  0  0  0  0  0
  162.0970  209.3960  148.5840 C   0  0  0  0  0  3  0  0  0  0  0  0
  161.4090  206.6210  153.5160 C   0  0  0  0  0  2  0  0  0  0  0  0
  160.6830  208.7340  154.5580 C   0  0  0  0  0  0  0  0  0  0  0  0
  160.2550  209.3630  155.8640 C   0  0  1  0  0  3  0  0  0  0  0  0
  161.9700  205.2350  151.0840 N   0  0  0  0  0  2  0  0  0  0  0  0
  161.2930  202.8270  152.0340 S   0  0  0  0  0  1  0  0  0  0  0  0
  160.8300  204.3230  151.1040 C   0  0  2  0  0  3  0  0  0  0  0  0
  160.4970  202.5660  149.4960 O   0  0  0  0  0  1  0  0  0  0  0  0
  160.4030  203.9500  149.6770 C   0  0  2  0  0  3  0  0  0  0  0  0
  160.4990  205.6620  147.9160 N   0  0  0  0  0  1  0  0  0  0  0  0
  161.2760  204.6660  148.6340 C   0  0  2  0  0  3  0  0  0  0  0  0
  161.8490  203.6840  147.6180 C   0  0  0  0  0  2  0  0  0  0  0  0
  161.7090  204.2130  146.1990 C   0  0  0  0  0  3  0  0  0  0  0  0
  163.0770  204.5800  145.6650 C   0  0  0  0  0  1  0  0  0  0  0  0
  161.0930  203.1560  145.3030 C   0  0  0  0  0  1  0  0  0  0  0  0
  1 14  1  0  0  0  0
  2 13  2  0  0  0  0
  2  3  1  0  0  0  0
  3  7  1  0  0  0  0
  3 19  2  0  0  0  0
  5  2  1  0  0  0  0
  6 17  1  0  0  0  0
  6  1  2  0  0  0  0
  7  4  1  0  0  0  0
  8 21  1  0  0  0  0
  8 13  1  0  0  0  0
  9  1  1  0  0  0  0
 10 19  1  0  0  0  0
 11  4  1  6  0  0  0
 11 20  1  0  0  0  0
 12  8  2  0  0  0  0
 13 18  1  0  0  0  0
 14  5  2  0  0  0  0
 15 11  1  0  0  0  0
 15 20  1  0  0  0  0
 16 12  1  0  0  0  0
 16  5  1  0  0  0  0
 17 16  2  0  0  0  0
 18 10  1  0  0  0  0
 20 19  1  6  0  0  0
 21 23  1  0  0  0  0
 23 22  1  1  0  0  0
 25 24  1  1  0  0  0
 25 23  1  0  0  0  0
 27 26  1  6  0  0  0
 27 25  1  0  0  0  0
 28 27  1  0  0  0  0
 29 28  1  0  0  0  0
 30 29  1  0  0  0  0
 31 29  1  0  0  0  0
M  END
>  <MODEL>
7

>  <REMARK>
 VINA RESULT:      -7.0      2.795      8.689
  Name = 
  6 active torsions:
  status: ('A' for Active; 'I' for Inactive)
    1  A    between atoms: C_1  and  C_24
    2  A    between atoms: C_9  and  C_22
    3  A    between atoms: C_9  and  N_23
    4  A    between atoms: C_15  and  N_23
    5  A    between atoms: C_19  and  C_22
    6  A    between atoms: C_19  and  C_24
                            x       y       z     vdW  Elec       q    Type
                         _______ _______ _______ _____ _____    ______ ____

>  <TORSDO>
F 6

$$$$
=
 OpenBabel11052422293D

 31 35  0  0  1  0  0  0  0  0999 V2000
  161.7810  210.5750  149.9100 C   0  0  0  0  0  0  0  0  0  0  0  0
  161.4550  207.4090  151.9030 C   0  0  0  0  0  0  0  0  0  0  0  0
  161.2630  207.8420  153.3290 C   0  0  0  0  0  0  0  0  0  0  0  0
  160.4260  209.7060  154.7120 C   0  0  0  0  0  2  0  0  0  0  0  0
  161.6210  208.3140  150.8170 C   0  0  0  0  0  0  0  0  0  0  0  0
  161.9430  210.0610  148.6240 C   0  0  0  0  0  3  0  0  0  0  0  0
  161.5420  209.2430  153.7900 C   0  0  0  0  0  2  0  0  0  0  0  0
  161.5820  205.5400  150.3140 C   0  0  0  0  0  0  0  0  0  0  0  0
  161.7800  212.0440  150.1300 C   0  0  0  0  0  1  0  0  0  0  0  0
  160.6300  205.6170  153.8730 O   0  0  0  0  0  0  0  0  0  0  0  0
  160.3280  208.7970  155.9380 C   0  0  1  0  0  3  0  0  0  0  0  0
  161.7600  206.4420  149.2650 C   0  0  0  0  0  3  0  0  0  0  0  0
  161.4180  206.0200  151.6240 C   0  0  0  0  0  0  0  0  0  0  0  0
  161.6190  209.7080  150.9930 C   0  0  0  0  0  3  0  0  0  0  0  0
  159.2580  207.8970  155.7610 O   0  0  0  0  0  0  0  0  0  0  0  0
  161.7760  207.8100  149.5000 C   0  0  0  0  0  0  0  0  0  0  0  0
  161.9390  208.6820  148.4190 C   0  0  0  0  0  3  0  0  0  0  0  0
  161.2940  205.0370  152.7540 C   0  0  0  0  0  2  0  0  0  0  0  0
  160.8320  206.9490  154.2420 C   0  0  0  0  0  0  0  0  0  0  0  0
  160.5450  207.3350  155.6740 C   0  0  1  0  0  3  0  0  0  0  0  0
  161.5740  204.1280  150.0630 N   0  0  0  0  0  2  0  0  0  0  0  0
  160.0930  201.9530  149.5800 S   0  0  0  0  0  1  0  0  0  0  0  0
  160.8300  203.5030  148.9730 C   0  0  2  0  0  3  0  0  0  0  0  0
  162.7200  204.2230  147.6720 O   0  0  0  0  0  1  0  0  0  0  0  0
  161.7480  203.2220  147.7750 C   0  0  2  0  0  3  0  0  0  0  0  0
  160.8280  201.7720  146.0170 N   0  0  0  0  0  1  0  0  0  0  0  0
  160.9450  203.1480  146.4670 C   0  0  2  0  0  3  0  0  0  0  0  0
  161.6080  203.9590  145.3590 C   0  0  0  0  0  2  0  0  0  0  0  0
  160.6510  204.9900  144.7810 C   0  0  0  0  0  3  0  0  0  0  0  0
  160.4690  206.1160  145.7750 C   0  0  0  0  0  1  0  0  0  0  0  0
  161.2060  205.5550  143.4870 C   0  0  0  0  0  1  0  0  0  0  0  0
  1  9  1  0  0  0  0
  1 14  1  0  0  0  0
  2  3  1  0  0  0  0
  3  7  1  0  0  0  0
  3 19  2  0  0  0  0
  5 14  2  0  0  0  0
  5  2  1  0  0  0  0
  6  1  2  0  0  0  0
  7  4  1  0  0  0  0
  8 13  1  0  0  0  0
 10 19  1  0  0  0  0
 11  4  1  6  0  0  0
 12 16  1  0  0  0  0
 12  8  2  0  0  0  0
 13  2  2  0  0  0  0
 13 18  1  0  0  0  0
 15 11  1  0  0  0  0
 16  5  1  0  0  0  0
 17  6  1  0  0  0  0
 17 16  2  0  0  0  0
 18 10  1  0  0  0  0
 20 19  1  6  0  0  0
 20 15  1  0  0  0  0
 20 11  1  0  0  0  0
 21  8  1  0  0  0  0
 23 22  1  1  0  0  0
 23 21  1  0  0  0  0
 25 24  1  6  0  0  0
 25 23  1  0  0  0  0
 27 26  1  6  0  0  0
 27 25  1  0  0  0  0
 28 27  1  0  0  0  0
 29 28  1  0  0  0  0
 29 30  1  0  0  0  0
 31 29  1  0  0  0  0
M  END
>  <MODEL>
8

>  <REMARK>
 VINA RESULT:      -7.0      2.999      8.756
  Name = 
  6 active torsions:
  status: ('A' for Active; 'I' for Inactive)
    1  A    between atoms: C_1  and  C_24
    2  A    between atoms: C_9  and  C_22
    3  A    between atoms: C_9  and  N_23
    4  A    between atoms: C_15  and  N_23
    5  A    between atoms: C_19  and  C_22
    6  A    between atoms: C_19  and  C_24
                            x       y       z     vdW  Elec       q    Type
                         _______ _______ _______ _____ _____    ______ ____

>  <TORSDO>
F 6

$$$$
=
 OpenBabel11052422293D

 31 35  0  0  1  0  0  0  0  0999 V2000
  160.7250  208.0140  154.5190 C   0  0  0  0  0  0  0  0  0  0  0  0
  161.6190  208.3060  150.8830 C   0  0  0  0  0  0  0  0  0  0  0  0
  161.7170  206.8960  150.3720 C   0  0  0  0  0  0  0  0  0  0  0  0
  160.8900  204.6070  150.7740 C   0  0  0  0  0  2  0  0  0  0  0  0
  161.2970  208.6380  152.2290 C   0  0  0  0  0  0  0  0  0  0  0  0
  160.6520  209.3580  154.8810 C   0  0  0  0  0  3  0  0  0  0  0  0
  161.7990  205.7110  151.2890 C   0  0  0  0  0  2  0  0  0  0  0  0
  161.7260  210.7030  150.3560 C   0  0  0  0  0  0  0  0  0  0  0  0
  160.4650  206.9550  155.5280 C   0  0  0  0  0  1  0  0  0  0  0  0
  161.7420  207.7490  148.1540 O   0  0  0  0  0  0  0  0  0  0  0  0
  161.3130  204.1710  149.3710 C   0  0  1  0  0  3  0  0  0  0  0  0
  161.4260  211.0090  151.6840 C   0  0  0  0  0  3  0  0  0  0  0  0
  161.8110  209.3590  149.9540 C   0  0  0  0  0  0  0  0  0  0  0  0
  161.0420  207.6610  153.2050 C   0  0  0  0  0  3  0  0  0  0  0  0
  160.4530  204.7640  148.4250 O   0  0  0  0  0  0  0  0  0  0  0  0
  161.2080  210.0010  152.6130 C   0  0  0  0  0  0  0  0  0  0  0  0
  160.8920  210.3500  153.9300 C   0  0  0  0  0  3  0  0  0  0  0  0
  162.2000  209.0420  148.5380 C   0  0  0  0  0  2  0  0  0  0  0  0
  161.7420  206.6720  149.0430 C   0  0  0  0  0  0  0  0  0  0  0  0
  161.7630  205.2780  148.4610 C   0  0  1  0  0  3  0  0  0  0  0  0
  161.9560  211.7510  149.4050 N   0  0  0  0  0  2  0  0  0  0  0  0
  161.6070  212.5720  146.8820 S   0  0  0  0  0  1  0  0  0  0  0  0
  160.9160  212.3100  148.5470 C   0  0  2  0  0  3  0  0  0  0  0  0
  161.4070  214.2920  149.8160 O   0  0  0  0  0  1  0  0  0  0  0  0
  160.3890  213.6340  149.1180 C   0  0  2  0  0  3  0  0  0  0  0  0
  157.9920  214.0110  149.5140 N   0  0  0  0  0  1  0  0  0  0  0  0
  159.1930  213.3960  150.0540 C   0  0  2  0  0  3  0  0  0  0  0  0
  159.4460  213.9770  151.4410 C   0  0  0  0  0  2  0  0  0  0  0  0
  158.3000  213.6620  152.3890 C   0  0  0  0  0  3  0  0  0  0  0  0
  158.1950  212.1630  152.5660 C   0  0  0  0  0  1  0  0  0  0  0  0
  158.5430  214.3070  153.7400 C   0  0  0  0  0  1  0  0  0  0  0  0
  1  6  1  0  0  0  0
  1  9  1  0  0  0  0
  2  5  1  0  0  0  0
  3  2  1  0  0  0  0
  3  7  1  0  0  0  0
  4  7  1  0  0  0  0
  5 16  2  0  0  0  0
  5 14  1  0  0  0  0
  8 12  2  0  0  0  0
 10 18  1  0  0  0  0
 10 19  1  0  0  0  0
 11  4  1  1  0  0  0
 12 16  1  0  0  0  0
 13  8  1  0  0  0  0
 13  2  2  0  0  0  0
 14  1  2  0  0  0  0
 15 11  1  0  0  0  0
 16 17  1  0  0  0  0
 17  6  2  0  0  0  0
 18 13  1  0  0  0  0
 19  3  2  0  0  0  0
 20 15  1  6  0  0  0
 20 19  1  0  0  0  0
 20 11  1  0  0  0  0
 21  8  1  0  0  0  0
 23 22  1  6  0  0  0
 23 25  1  0  0  0  0
 23 21  1  0  0  0  0
 25 24  1  1  0  0  0
 25 27  1  0  0  0  0
 27 26  1  6  0  0  0
 27 28  1  0  0  0  0
 28 29  1  0  0  0  0
 29 30  1  0  0  0  0
 29 31  1  0  0  0  0
M  END
>  <MODEL>
9

>  <REMARK>
 VINA RESULT:      -6.9      3.248      5.164
  Name = 
  6 active torsions:
  status: ('A' for Active; 'I' for Inactive)
    1  A    between atoms: C_1  and  C_24
    2  A    between atoms: C_9  and  C_22
    3  A    between atoms: C_9  and  N_23
    4  A    between atoms: C_15  and  N_23
    5  A    between atoms: C_19  and  C_22
    6  A    between atoms: C_19  and  C_24
                            x       y       z     vdW  Elec       q    Type
                         _______ _______ _______ _____ _____    ______ ____

>  <TORSDO>
F 6

$$$$
