=
 OpenBabel11062410063D

 43 47  0  0  1  0  0  0  0  0999 V2000
  160.6680  213.0720  150.4240 C   0  0  0  0  0  0  0  0  0  0  0  0
  160.6910  214.2980  150.7220 O   0  0  0  0  0  0  0  0  0  0  0  0
  160.5660  212.0870  151.4750 N   0  0  0  0  0  0  0  0  0  0  0  0
  161.4580  208.5190  152.1340 O   0  0  0  0  0  0  0  0  0  0  0  0
  161.6340  208.1140  150.8100 C   0  0  0  0  0  0  0  0  0  0  0  0
  161.6810  208.7580  148.3100 C   0  0  0  0  0  2  0  0  0  0  0  0
  161.1340  209.8740  152.4590 C   0  0  2  0  0  3  0  0  0  0  0  0
  162.2130  206.9430  150.5420 C   0  0  0  0  0  3  0  0  0  0  0  0
  161.4050  210.3780  150.0910 O   0  0  0  0  0  0  0  0  0  0  0  0
  160.1170  209.8970  153.5810 C   0  0  0  0  0  1  0  0  0  0  0  0
  162.4360  206.4870  149.1320 C   0  0  2  0  0  3  0  0  0  0  0  0
  160.6160  210.6460  151.2270 C   0  0  2  0  0  3  0  0  0  0  0  0
  162.7850  207.6940  148.2610 C   0  0  0  0  0  2  0  0  0  0  0  0
  161.1460  209.0480  149.7240 C   0  0  2  0  0  3  0  0  0  0  0  0
  161.2170  205.7530  148.5900 C   0  0  0  0  0  2  0  0  0  0  0  0
  161.3960  204.2520  148.7240 C   0  0  0  0  0  2  0  0  0  0  0  0
  160.8790  203.8240  149.9470 O   0  0  0  0  0  0  0  0  0  0  0  0
  160.7060  202.4460  149.7920 C   0  0  0  0  0  2  0  0  0  0  0  0
  161.0490  200.6330  148.2800 O   0  0  0  0  0  1  0  0  0  0  0  0
  161.1680  202.0170  148.4110 C   0  0  0  0  0  2  0  0  0  0  0  0
  160.1990  212.5060  152.8230 C   0  0  0  0  0  2  0  0  0  0  0  0
  156.6990  212.2750  154.3840 C   0  0  0  0  0  2  0  0  0  0  0  0
  156.3270  213.7620  154.3700 C   0  0  0  0  0  0  0  0  0  0  0  0
  154.8180  213.8790  154.3480 C   0  0  0  0  0  1  0  0  0  0  0  0
  158.3910  214.2120  152.9650 C   0  0  0  0  0  2  0  0  0  0  0  0
  158.2060  212.0640  154.2270 C   0  0  0  0  0  2  0  0  0  0  0  0
  158.6990  212.7160  152.9400 C   0  0  0  0  0  3  0  0  0  0  0  0
  156.8400  214.4520  155.6250 C   0  0  0  0  0  1  0  0  0  0  0  0
  156.8860  214.4460  153.1180 C   0  0  0  0  0  2  0  0  0  0  0  0
  160.7270  212.6730  148.9690 C   0  0  1  0  0  3  0  0  0  0  0  0
  157.2180  213.9120  146.7760 C   0  0  0  0  0  0  0  0  0  0  0  0
  159.2360  212.5710  146.9130 C   0  0  0  0  0  0  0  0  0  0  0  0
  157.4860  214.4530  148.0330 C   0  0  0  0  0  3  0  0  0  0  0  0
  155.7910  214.4150  145.8950 Cl  0  0  0  0  0  0  0  0  0  0  0  0
  159.4990  213.0930  148.1990 C   0  0  0  0  0  0  0  0  0  0  0  0
  158.0940  212.9770  146.2150 C   0  0  0  0  0  3  0  0  0  0  0  0
  158.6200  214.0460  148.7400 C   0  0  0  0  0  3  0  0  0  0  0  0
  160.1730  211.6210  146.2480 C   0  0  0  0  0  1  0  0  0  0  0  0
  163.1620  212.6620  148.9930 O   0  0  0  0  0  0  0  0  0  0  0  0
  162.9060  211.9860  147.7820 C   0  0  0  0  0  2  0  0  0  0  0  0
  162.0340  213.0750  148.2670 C   0  0  1  0  0  0  0  0  0  0  0  0
  162.2460  214.4480  147.6440 C   0  0  0  0  0  2  0  0  0  0  0  0
  162.2560  214.3550  146.2540 O   0  0  0  0  0  1  0  0  0  0  0  0
  1  2  2  0  0  0  0
  1  3  1  0  0  0  0
  3 21  1  0  0  0  0
  4  7  1  0  0  0  0
  5  4  1  0  0  0  0
  7 10  1  1  0  0  0
  8  5  2  0  0  0  0
  9 12  1  0  0  0  0
 11 15  1  6  0  0  0
 11  8  1  0  0  0  0
 12  3  1  1  0  0  0
 12  7  1  0  0  0  0
 13  6  1  0  0  0  0
 13 11  1  0  0  0  0
 14  6  1  6  0  0  0
 14  9  1  0  0  0  0
 14  5  1  0  0  0  0
 15 16  1  0  0  0  0
 16 17  1  0  0  0  0
 18 17  1  0  0  0  0
 19 20  1  0  0  0  0
 20 18  1  0  0  0  0
 21 27  1  0  0  0  0
 23 22  1  0  0  0  0
 23 28  1  0  0  0  0
 24 23  1  0  0  0  0
 25 29  1  0  0  0  0
 26 22  1  0  0  0  0
 27 25  1  0  0  0  0
 27 26  1  0  0  0  0
 29 23  1  0  0  0  0
 30  1  1  1  0  0  0
 31 33  1  0  0  0  0
 32 35  2  0  0  0  0
 33 37  2  0  0  0  0
 34 31  1  0  0  0  0
 35 37  1  0  0  0  0
 35 30  1  0  0  0  0
 36 31  2  0  0  0  0
 36 32  1  0  0  0  0
 38 32  1  0  0  0  0
 40 41  1  0  0  0  0
 40 39  1  0  0  0  0
 41 42  1  6  0  0  0
 41 30  1  0  0  0  0
 41 39  1  0  0  0  0
 43 42  1  0  0  0  0
M  END
>  <MODEL>
1

>  <REMARK>
 VINA RESULT:      -3.6      0.000      0.000
  Name = 
  12 active torsions:
  status: ('A' for Active; 'I' for Inactive)
    1  A    between atoms: C_1  and  N_34
    2  A    between atoms: C_1  and  C_35
    3  A    between atoms: C_2  and  C_27
    4  A    between atoms: C_8  and  C_30
    5  A    between atoms: C_11  and  C_22
    6  A    between atoms: C_11  and  C_36
    7  A    between atoms: C_21  and  C_30
    8  A    between atoms: C_27  and  C_30
    9  A    between atoms: O_29  and  C_31
   10  A    between atoms: O_29  and  C_36
   11  A    between atoms: C_31  and  C_40
   12  A    between atoms: N_34  and  C_38
                            x       y       z     vdW  Elec       q    Type
                         _______ _______ _______ _____ _____    ______ ____

>  <TORSDO>
F 12

$$$$
=
 OpenBabel11062410063D

 43 47  0  0  1  0  0  0  0  0999 V2000
  160.1610  212.9200  151.8830 C   0  0  0  0  0  0  0  0  0  0  0  0
  160.3190  214.1440  152.1460 O   0  0  0  0  0  0  0  0  0  0  0  0
  160.3280  211.9420  152.9320 N   0  0  0  0  0  0  0  0  0  0  0  0
  160.5930  208.3090  153.7650 O   0  0  0  0  0  0  0  0  0  0  0  0
  160.9970  207.8500  152.5110 C   0  0  0  0  0  0  0  0  0  0  0  0
  161.6630  208.4150  150.0800 C   0  0  0  0  0  2  0  0  0  0  0  0
  160.3830  209.7020  154.0130 C   0  0  2  0  0  3  0  0  0  0  0  0
  161.4650  206.6090  152.3730 C   0  0  0  0  0  3  0  0  0  0  0  0
  161.2200  210.1050  151.7610 O   0  0  0  0  0  0  0  0  0  0  0  0
  159.1590  209.8820  154.8870 C   0  0  0  0  0  1  0  0  0  0  0  0
  161.9260  206.0900  151.0450 C   0  0  2  0  0  3  0  0  0  0  0  0
  160.2450  210.5000  152.6990 C   0  0  2  0  0  3  0  0  0  0  0  0
  162.6070  207.2200  150.2710 C   0  0  0  0  0  2  0  0  0  0  0  0
  160.8780  208.8080  151.3450 C   0  0  2  0  0  3  0  0  0  0  0  0
  160.7690  205.5010  150.2500 C   0  0  0  0  0  2  0  0  0  0  0  0
  161.1150  204.1070  149.7600 C   0  0  0  0  0  2  0  0  0  0  0  0
  160.8520  204.0090  148.3930 O   0  0  0  0  0  0  0  0  0  0  0  0
  161.6240  205.0190  147.8130 C   0  0  0  0  0  2  0  0  0  0  0  0
  162.3150  205.9340  145.7210 O   0  0  0  0  0  1  0  0  0  0  0  0
  161.6230  204.8710  146.3020 C   0  0  0  0  0  2  0  0  0  0  0  0
  160.3860  212.3770  154.3230 C   0  0  0  0  0  2  0  0  0  0  0  0
  156.6500  213.1900  154.6810 C   0  0  0  0  0  2  0  0  0  0  0  0
  156.6170  213.5310  156.1740 C   0  0  0  0  0  0  0  0  0  0  0  0
  155.4450  214.4530  156.4300 C   0  0  0  0  0  1  0  0  0  0  0  0
  159.1530  213.4620  156.1940 C   0  0  0  0  0  2  0  0  0  0  0  0
  157.9080  212.4050  154.3040 C   0  0  0  0  0  2  0  0  0  0  0  0
  159.1560  213.1900  154.6900 C   0  0  0  0  0  3  0  0  0  0  0  0
  156.4220  212.2710  157.0050 C   0  0  0  0  0  1  0  0  0  0  0  0
  157.9030  214.2510  156.5920 C   0  0  0  0  0  2  0  0  0  0  0  0
  159.7790  212.5180  150.4790 C   0  0  1  0  0  3  0  0  0  0  0  0
  155.8320  213.8970  149.3950 C   0  0  0  0  0  0  0  0  0  0  0  0
  157.9750  212.9610  148.7450 C   0  0  0  0  0  0  0  0  0  0  0  0
  156.2550  213.9540  150.7230 C   0  0  0  0  0  3  0  0  0  0  0  0
  154.2290  214.4530  148.9630 Cl  0  0  0  0  0  0  0  0  0  0  0  0
  158.3990  212.9900  150.0920 C   0  0  0  0  0  0  0  0  0  0  0  0
  156.6930  213.4060  148.4080 C   0  0  0  0  0  3  0  0  0  0  0  0
  157.5310  213.5030  151.0690 C   0  0  0  0  0  3  0  0  0  0  0  0
  158.8790  212.5070  147.6500 C   0  0  0  0  0  1  0  0  0  0  0  0
  162.0200  212.1210  149.6090 O   0  0  0  0  0  0  0  0  0  0  0  0
  161.2350  211.7950  148.4820 C   0  0  0  0  0  2  0  0  0  0  0  0
  160.8420  212.8630  149.4230 C   0  0  1  0  0  0  0  0  0  0  0  0
  161.1480  214.2940  148.9990 C   0  0  0  0  0  2  0  0  0  0  0  0
  161.6580  214.3180  147.7030 O   0  0  0  0  0  1  0  0  0  0  0  0
  1  2  2  0  0  0  0
  1  3  1  0  0  0  0
  3 21  1  0  0  0  0
  4  7  1  0  0  0  0
  5  4  1  0  0  0  0
  6 13  1  0  0  0  0
  7 10  1  1  0  0  0
  8  5  2  0  0  0  0
  9 12  1  0  0  0  0
 11 15  1  6  0  0  0
 11  8  1  0  0  0  0
 12  3  1  1  0  0  0
 12  7  1  0  0  0  0
 13 11  1  0  0  0  0
 14  6  1  6  0  0  0
 14  9  1  0  0  0  0
 14  5  1  0  0  0  0
 16 15  1  0  0  0  0
 17 16  1  0  0  0  0
 18 17  1  0  0  0  0
 19 20  1  0  0  0  0
 20 18  1  0  0  0  0
 21 27  1  0  0  0  0
 22 23  1  0  0  0  0
 23 24  1  0  0  0  0
 23 29  1  0  0  0  0
 23 28  1  0  0  0  0
 25 29  1  0  0  0  0
 26 22  1  0  0  0  0
 26 27  1  0  0  0  0
 27 25  1  0  0  0  0
 30  1  1  1  0  0  0
 31 33  1  0  0  0  0
 32 35  2  0  0  0  0
 33 37  2  0  0  0  0
 34 31  1  0  0  0  0
 35 30  1  0  0  0  0
 35 37  1  0  0  0  0
 36 32  1  0  0  0  0
 36 31  2  0  0  0  0
 38 32  1  0  0  0  0
 40 41  1  0  0  0  0
 40 39  1  0  0  0  0
 41 42  1  6  0  0  0
 41 39  1  0  0  0  0
 41 30  1  0  0  0  0
 43 42  1  0  0  0  0
M  END
>  <MODEL>
2

>  <REMARK>
 VINA RESULT:      -3.4      1.770      2.321
  Name = 
  12 active torsions:
  status: ('A' for Active; 'I' for Inactive)
    1  A    between atoms: C_1  and  N_34
    2  A    between atoms: C_1  and  C_35
    3  A    between atoms: C_2  and  C_27
    4  A    between atoms: C_8  and  C_30
    5  A    between atoms: C_11  and  C_22
    6  A    between atoms: C_11  and  C_36
    7  A    between atoms: C_21  and  C_30
    8  A    between atoms: C_27  and  C_30
    9  A    between atoms: O_29  and  C_31
   10  A    between atoms: O_29  and  C_36
   11  A    between atoms: C_31  and  C_40
   12  A    between atoms: N_34  and  C_38
                            x       y       z     vdW  Elec       q    Type
                         _______ _______ _______ _____ _____    ______ ____

>  <TORSDO>
F 12

$$$$
=
 OpenBabel11062410063D

 43 47  0  0  1  0  0  0  0  0999 V2000
  160.3880  212.4960  151.3750 C   0  0  0  0  0  0  0  0  0  0  0  0
  160.4470  213.6780  151.8150 O   0  0  0  0  0  0  0  0  0  0  0  0
  160.6210  211.3910  152.2760 N   0  0  0  0  0  0  0  0  0  0  0  0
  161.5590  207.7770  152.3920 O   0  0  0  0  0  0  0  0  0  0  0  0
  161.6420  207.5520  151.0180 C   0  0  0  0  0  0  0  0  0  0  0  0
  161.5120  208.5210  148.6270 C   0  0  0  0  0  2  0  0  0  0  0  0
  161.2580  209.0740  152.9160 C   0  0  2  0  0  3  0  0  0  0  0  0
  162.2010  206.4330  150.5570 C   0  0  0  0  0  3  0  0  0  0  0  0
  161.3610  209.8890  150.6230 O   0  0  0  0  0  0  0  0  0  0  0  0
  160.3220  208.9380  154.0990 C   0  0  0  0  0  1  0  0  0  0  0  0
  162.3250  206.1680  149.0870 C   0  0  2  0  0  3  0  0  0  0  0  0
  160.6540  209.9970  151.8360 C   0  0  2  0  0  3  0  0  0  0  0  0
  162.6110  207.4830  148.3610 C   0  0  0  0  0  2  0  0  0  0  0  0
  161.0780  208.6160  150.1010 C   0  0  2  0  0  3  0  0  0  0  0  0
  161.0710  205.5010  148.5380 C   0  0  0  0  0  2  0  0  0  0  0  0
  161.3680  204.8140  147.2180 C   0  0  0  0  0  2  0  0  0  0  0  0
  161.6410  203.4640  147.4420 O   0  0  0  0  0  0  0  0  0  0  0  0
  160.9660  203.1610  148.6280 C   0  0  0  0  0  2  0  0  0  0  0  0
  160.8300  200.7800  148.5360 O   0  0  0  0  0  1  0  0  0  0  0  0
  160.0750  201.9490  148.4230 C   0  0  0  0  0  2  0  0  0  0  0  0
  160.6290  211.6240  153.7160 C   0  0  0  0  0  2  0  0  0  0  0  0
  156.9980  212.5350  154.5680 C   0  0  0  0  0  2  0  0  0  0  0  0
  157.2210  213.1590  155.9490 C   0  0  0  0  0  0  0  0  0  0  0  0
  156.0920  214.1270  156.2260 C   0  0  0  0  0  1  0  0  0  0  0  0
  159.7220  213.0650  155.5310 C   0  0  0  0  0  2  0  0  0  0  0  0
  158.1870  211.6770  154.1320 C   0  0  0  0  0  2  0  0  0  0  0  0
  159.4660  212.5070  154.1320 C   0  0  0  0  0  3  0  0  0  0  0  0
  157.2040  212.0870  157.0290 C   0  0  0  0  0  1  0  0  0  0  0  0
  158.5440  213.9320  155.9850 C   0  0  0  0  0  2  0  0  0  0  0  0
  160.0540  212.2740  149.9200 C   0  0  1  0  0  3  0  0  0  0  0  0
  156.1590  213.8220  148.8760 C   0  0  0  0  0  0  0  0  0  0  0  0
  158.2800  212.8560  148.1960 C   0  0  0  0  0  0  0  0  0  0  0  0
  156.5710  213.8010  150.2090 C   0  0  0  0  0  3  0  0  0  0  0  0
  154.5770  214.4460  148.4610 Cl  0  0  0  0  0  0  0  0  0  0  0  0
  158.6920  212.8050  149.5460 C   0  0  0  0  0  0  0  0  0  0  0  0
  157.0140  213.3550  147.8720 C   0  0  0  0  0  3  0  0  0  0  0  0
  157.8300  213.2950  150.5410 C   0  0  0  0  0  3  0  0  0  0  0  0
  159.1800  212.4300  147.0870 C   0  0  0  0  0  1  0  0  0  0  0  0
  162.3540  212.0300  149.1540 O   0  0  0  0  0  0  0  0  0  0  0  0
  161.6470  211.7510  147.9660 C   0  0  0  0  0  2  0  0  0  0  0  0
  161.1560  212.7350  148.9520 C   0  0  1  0  0  0  0  0  0  0  0  0
  161.4210  214.2030  148.6430 C   0  0  0  0  0  2  0  0  0  0  0  0
  162.7910  214.4530  148.6140 O   0  0  0  0  0  1  0  0  0  0  0  0
  1  2  2  0  0  0  0
  1  3  1  0  0  0  0
  3 21  1  0  0  0  0
  4  7  1  0  0  0  0
  5  4  1  0  0  0  0
  7 10  1  1  0  0  0
  8  5  2  0  0  0  0
  9 12  1  0  0  0  0
 11 15  1  6  0  0  0
 11  8  1  0  0  0  0
 12  3  1  1  0  0  0
 12  7  1  0  0  0  0
 13  6  1  0  0  0  0
 13 11  1  0  0  0  0
 14  6  1  6  0  0  0
 14  9  1  0  0  0  0
 14  5  1  0  0  0  0
 16 17  1  0  0  0  0
 16 15  1  0  0  0  0
 17 18  1  0  0  0  0
 20 19  1  0  0  0  0
 20 18  1  0  0  0  0
 21 27  1  0  0  0  0
 22 23  1  0  0  0  0
 23 29  1  0  0  0  0
 23 24  1  0  0  0  0
 23 28  1  0  0  0  0
 25 29  1  0  0  0  0
 26 22  1  0  0  0  0
 27 26  1  0  0  0  0
 27 25  1  0  0  0  0
 30  1  1  1  0  0  0
 31 33  1  0  0  0  0
 32 35  2  0  0  0  0
 33 37  2  0  0  0  0
 34 31  1  0  0  0  0
 35 30  1  0  0  0  0
 35 37  1  0  0  0  0
 36 32  1  0  0  0  0
 36 31  2  0  0  0  0
 38 32  1  0  0  0  0
 40 41  1  0  0  0  0
 40 39  1  0  0  0  0
 41 42  1  6  0  0  0
 41 39  1  0  0  0  0
 41 30  1  0  0  0  0
 43 42  1  0  0  0  0
M  END
>  <MODEL>
3

>  <REMARK>
 VINA RESULT:      -3.0      1.365      1.620
  Name = 
  12 active torsions:
  status: ('A' for Active; 'I' for Inactive)
    1  A    between atoms: C_1  and  N_34
    2  A    between atoms: C_1  and  C_35
    3  A    between atoms: C_2  and  C_27
    4  A    between atoms: C_8  and  C_30
    5  A    between atoms: C_11  and  C_22
    6  A    between atoms: C_11  and  C_36
    7  A    between atoms: C_21  and  C_30
    8  A    between atoms: C_27  and  C_30
    9  A    between atoms: O_29  and  C_31
   10  A    between atoms: O_29  and  C_36
   11  A    between atoms: C_31  and  C_40
   12  A    between atoms: N_34  and  C_38
                            x       y       z     vdW  Elec       q    Type
                         _______ _______ _______ _____ _____    ______ ____

>  <TORSDO>
F 12

$$$$
=
 OpenBabel11062410063D

 43 47  0  0  1  0  0  0  0  0999 V2000
  161.4540  211.1010  149.9980 C   0  0  0  0  0  0  0  0  0  0  0  0
  162.4030  211.0620  149.1680 O   0  0  0  0  0  0  0  0  0  0  0  0
  160.7340  212.3360  150.1970 N   0  0  0  0  0  0  0  0  0  0  0  0
  157.7480  213.8870  151.8220 O   0  0  0  0  0  0  0  0  0  0  0  0
  158.0950  213.6340  153.1500 C   0  0  0  0  0  0  0  0  0  0  0  0
  159.8250  212.6960  154.8220 C   0  0  0  0  0  2  0  0  0  0  0  0
  158.6140  213.5180  150.7450 C   0  0  2  0  0  3  0  0  0  0  0  0
  157.4320  214.2350  154.1380 C   0  0  0  0  0  3  0  0  0  0  0  0
  160.2350  212.8530  152.4380 O   0  0  0  0  0  0  0  0  0  0  0  0
  157.7910  212.9740  149.5960 C   0  0  0  0  0  1  0  0  0  0  0  0
  157.7900  214.0010  155.5750 C   0  0  2  0  0  3  0  0  0  0  0  0
  159.6770  212.4930  151.1960 C   0  0  2  0  0  3  0  0  0  0  0  0
  159.3070  213.8460  155.6960 C   0  0  0  0  0  2  0  0  0  0  0  0
  159.2310  212.6670  153.4020 C   0  0  2  0  0  3  0  0  0  0  0  0
  157.0680  212.7820  156.1330 C   0  0  0  0  0  2  0  0  0  0  0  0
  155.5660  212.9970  156.1100 C   0  0  0  0  0  2  0  0  0  0  0  0
  154.9900  212.4170  157.2410 O   0  0  0  0  0  0  0  0  0  0  0  0
  155.4000  211.0820  157.1970 C   0  0  0  0  0  2  0  0  0  0  0  0
  154.8280  209.6490  155.3770 O   0  0  0  0  0  1  0  0  0  0  0  0
  154.3270  210.2300  156.5430 C   0  0  0  0  0  2  0  0  0  0  0  0
  160.9060  213.4320  149.2500 C   0  0  0  0  0  2  0  0  0  0  0  0
  160.0970  212.1930  145.7060 C   0  0  0  0  0  2  0  0  0  0  0  0
  160.9970  213.1410  144.9060 C   0  0  0  0  0  0  0  0  0  0  0  0
  161.3350  212.4810  143.5860 C   0  0  0  0  0  1  0  0  0  0  0  0
  162.0420  213.9080  147.0870 C   0  0  0  0  0  2  0  0  0  0  0  0
  159.8540  212.7050  147.1270 C   0  0  0  0  0  2  0  0  0  0  0  0
  161.1800  212.9050  147.8520 C   0  0  0  0  0  3  0  0  0  0  0  0
  160.2720  214.4460  144.6140 C   0  0  0  0  0  1  0  0  0  0  0  0
  162.3020  213.4120  145.6620 C   0  0  0  0  0  2  0  0  0  0  0  0
  161.0850  209.8410  150.7440 C   0  0  1  0  0  3  0  0  0  0  0  0
  161.8490  206.2750  148.4300 C   0  0  0  0  0  0  0  0  0  0  0  0
  161.0180  207.3160  150.4590 C   0  0  0  0  0  0  0  0  0  0  0  0
  162.1960  207.5280  147.9230 C   0  0  0  0  0  3  0  0  0  0  0  0
  162.1570  204.8340  147.4840 Cl  0  0  0  0  0  0  0  0  0  0  0  0
  161.3400  208.5900  149.9390 C   0  0  0  0  0  0  0  0  0  0  0  0
  161.2670  206.1700  149.6970 C   0  0  0  0  0  3  0  0  0  0  0  0
  161.9420  208.6780  148.6740 C   0  0  0  0  0  3  0  0  0  0  0  0
  160.4560  207.1500  151.8290 C   0  0  0  0  0  1  0  0  0  0  0  0
  162.8200  208.9540  152.2060 O   0  0  0  0  0  0  0  0  0  0  0  0
  163.0160  210.3410  152.3710 C   0  0  0  0  0  2  0  0  0  0  0  0
  161.6730  209.7640  152.1620 C   0  0  1  0  0  0  0  0  0  0  0  0
  160.8110  209.5730  153.4040 C   0  0  0  0  0  2  0  0  0  0  0  0
  161.5850  209.1120  154.4660 O   0  0  0  0  0  1  0  0  0  0  0  0
  1  3  1  0  0  0  0
  2  1  2  0  0  0  0
  4  5  1  0  0  0  0
  5 14  1  0  0  0  0
  5  8  2  0  0  0  0
  6 13  1  0  0  0  0
  7 10  1  6  0  0  0
  7 12  1  0  0  0  0
  7  4  1  0  0  0  0
  8 11  1  0  0  0  0
  9 14  1  0  0  0  0
 11 13  1  0  0  0  0
 11 15  1  6  0  0  0
 12  3  1  6  0  0  0
 12  9  1  0  0  0  0
 14  6  1  1  0  0  0
 16 15  1  0  0  0  0
 16 17  1  0  0  0  0
 18 17  1  0  0  0  0
 19 20  1  0  0  0  0
 20 18  1  0  0  0  0
 21  3  1  0  0  0  0
 22 26  1  0  0  0  0
 23 29  1  0  0  0  0
 23 22  1  0  0  0  0
 24 23  1  0  0  0  0
 25 27  1  0  0  0  0
 26 27  1  0  0  0  0
 27 21  1  0  0  0  0
 28 23  1  0  0  0  0
 29 25  1  0  0  0  0
 30  1  1  6  0  0  0
 30 41  1  0  0  0  0
 31 36  1  0  0  0  0
 32 38  1  0  0  0  0
 33 31  2  0  0  0  0
 33 37  1  0  0  0  0
 34 31  1  0  0  0  0
 35 32  1  0  0  0  0
 35 30  1  0  0  0  0
 36 32  2  0  0  0  0
 37 35  2  0  0  0  0
 39 40  1  0  0  0  0
 41 39  1  0  0  0  0
 41 40  1  0  0  0  0
 41 42  1  1  0  0  0
 42 43  1  0  0  0  0
M  END
>  <MODEL>
4

>  <REMARK>
 VINA RESULT:      -2.7      3.044      8.395
  Name = 
  12 active torsions:
  status: ('A' for Active; 'I' for Inactive)
    1  A    between atoms: C_1  and  N_34
    2  A    between atoms: C_1  and  C_35
    3  A    between atoms: C_2  and  C_27
    4  A    between atoms: C_8  and  C_30
    5  A    between atoms: C_11  and  C_22
    6  A    between atoms: C_11  and  C_36
    7  A    between atoms: C_21  and  C_30
    8  A    between atoms: C_27  and  C_30
    9  A    between atoms: O_29  and  C_31
   10  A    between atoms: O_29  and  C_36
   11  A    between atoms: C_31  and  C_40
   12  A    between atoms: N_34  and  C_38
                            x       y       z     vdW  Elec       q    Type
                         _______ _______ _______ _____ _____    ______ ____

>  <TORSDO>
F 12

$$$$
=
 OpenBabel11062410063D

 43 47  0  0  1  0  0  0  0  0999 V2000
  161.9010  209.7480  149.3770 C   0  0  0  0  0  0  0  0  0  0  0  0
  162.7100  209.6770  148.4110 O   0  0  0  0  0  0  0  0  0  0  0  0
  161.5760  211.0390  149.9380 N   0  0  0  0  0  0  0  0  0  0  0  0
  159.3710  212.8570  152.3440 O   0  0  0  0  0  0  0  0  0  0  0  0
  159.7460  212.1780  153.5040 C   0  0  0  0  0  0  0  0  0  0  0  0
  161.2540  210.3970  154.6100 C   0  0  0  0  0  2  0  0  0  0  0  0
  159.9790  212.5640  151.0830 C   0  0  2  0  0  3  0  0  0  0  0  0
  159.3930  212.6520  154.6990 C   0  0  0  0  0  3  0  0  0  0  0  0
  161.4690  211.0610  152.2890 O   0  0  0  0  0  0  0  0  0  0  0  0
  158.9260  212.5890  149.9950 C   0  0  0  0  0  1  0  0  0  0  0  0
  159.7950  211.9590  155.9660 C   0  0  2  0  0  3  0  0  0  0  0  0
  160.7150  211.2070  151.1080 C   0  0  2  0  0  3  0  0  0  0  0  0
  161.1960  211.3710  155.7950 C   0  0  0  0  0  2  0  0  0  0  0  0
  160.5500  210.9070  153.3400 C   0  0  2  0  0  3  0  0  0  0  0  0
  158.7900  210.8800  156.3470 C   0  0  0  0  0  2  0  0  0  0  0  0
  157.6320  211.4820  157.1210 C   0  0  0  0  0  2  0  0  0  0  0  0
  156.5400  211.6600  156.2710 O   0  0  0  0  0  0  0  0  0  0  0  0
  155.6770  212.5020  156.9780 C   0  0  0  0  0  2  0  0  0  0  0  0
  155.9740  213.6720  154.9200 O   0  0  0  0  0  1  0  0  0  0  0  0
  155.4830  213.8020  156.2200 C   0  0  0  0  0  2  0  0  0  0  0  0
  161.9430  212.2520  149.2160 C   0  0  0  0  0  2  0  0  0  0  0  0
  160.1640  212.0310  145.8210 C   0  0  0  0  0  2  0  0  0  0  0  0
  161.0170  213.0310  145.0330 C   0  0  0  0  0  0  0  0  0  0  0  0
  160.9320  212.6810  143.5630 C   0  0  0  0  0  1  0  0  0  0  0  0
  162.6380  213.1060  146.9830 C   0  0  0  0  0  2  0  0  0  0  0  0
  160.3360  212.2020  147.3310 C   0  0  0  0  0  2  0  0  0  0  0  0
  161.8030  212.0570  147.7160 C   0  0  0  0  0  3  0  0  0  0  0  0
  160.4870  214.4460  145.2170 C   0  0  0  0  0  1  0  0  0  0  0  0
  162.4840  212.9500  145.4680 C   0  0  0  0  0  2  0  0  0  0  0  0
  161.2780  208.4780  149.9040 C   0  0  1  0  0  3  0  0  0  0  0  0
  161.5220  205.2280  147.0690 C   0  0  0  0  0  0  0  0  0  0  0  0
  160.7540  206.0920  149.2030 C   0  0  0  0  0  0  0  0  0  0  0  0
  162.1390  206.4480  146.7910 C   0  0  0  0  0  3  0  0  0  0  0  0
  161.6200  203.9170  145.9130 Cl  0  0  0  0  0  0  0  0  0  0  0  0
  161.3510  207.3390  148.9160 C   0  0  0  0  0  0  0  0  0  0  0  0
  160.8360  205.0490  148.2740 C   0  0  0  0  0  3  0  0  0  0  0  0
  162.0530  207.4970  147.7100 C   0  0  0  0  0  3  0  0  0  0  0  0
  160.0670  205.8330  150.5010 C   0  0  0  0  0  1  0  0  0  0  0  0
  162.8980  207.2430  151.2410 O   0  0  0  0  0  0  0  0  0  0  0  0
  163.1070  208.5560  151.7140 C   0  0  0  0  0  2  0  0  0  0  0  0
  161.7710  208.0790  151.3050 C   0  0  1  0  0  0  0  0  0  0  0  0
  160.8260  207.6530  152.4210 C   0  0  0  0  0  2  0  0  0  0  0  0
  161.4860  206.8260  153.3270 O   0  0  0  0  0  1  0  0  0  0  0  0
  1  3  1  0  0  0  0
  2  1  2  0  0  0  0
  4  5  1  0  0  0  0
  5  8  2  0  0  0  0
  6 13  1  0  0  0  0
  7 10  1  6  0  0  0
  7 12  1  0  0  0  0
  7  4  1  0  0  0  0
  8 11  1  0  0  0  0
  9 14  1  0  0  0  0
 11 15  1  6  0  0  0
 12  3  1  6  0  0  0
 12  9  1  0  0  0  0
 13 11  1  0  0  0  0
 14  5  1  0  0  0  0
 14  6  1  1  0  0  0
 15 16  1  0  0  0  0
 17 18  1  0  0  0  0
 17 16  1  0  0  0  0
 19 20  1  0  0  0  0
 20 18  1  0  0  0  0
 21  3  1  0  0  0  0
 22 26  1  0  0  0  0
 23 28  1  0  0  0  0
 23 29  1  0  0  0  0
 23 22  1  0  0  0  0
 24 23  1  0  0  0  0
 25 27  1  0  0  0  0
 26 27  1  0  0  0  0
 27 21  1  0  0  0  0
 29 25  1  0  0  0  0
 30  1  1  6  0  0  0
 30 41  1  0  0  0  0
 31 36  1  0  0  0  0
 32 38  1  0  0  0  0
 33 31  2  0  0  0  0
 33 37  1  0  0  0  0
 34 31  1  0  0  0  0
 35 32  1  0  0  0  0
 35 30  1  0  0  0  0
 36 32  2  0  0  0  0
 37 35  2  0  0  0  0
 39 41  1  0  0  0  0
 39 40  1  0  0  0  0
 41 40  1  0  0  0  0
 41 42  1  1  0  0  0
 42 43  1  0  0  0  0
M  END
>  <MODEL>
5

>  <REMARK>
 VINA RESULT:      -2.3      3.011      8.383
  Name = 
  12 active torsions:
  status: ('A' for Active; 'I' for Inactive)
    1  A    between atoms: C_1  and  N_34
    2  A    between atoms: C_1  and  C_35
    3  A    between atoms: C_2  and  C_27
    4  A    between atoms: C_8  and  C_30
    5  A    between atoms: C_11  and  C_22
    6  A    between atoms: C_11  and  C_36
    7  A    between atoms: C_21  and  C_30
    8  A    between atoms: C_27  and  C_30
    9  A    between atoms: O_29  and  C_31
   10  A    between atoms: O_29  and  C_36
   11  A    between atoms: C_31  and  C_40
   12  A    between atoms: N_34  and  C_38
                            x       y       z     vdW  Elec       q    Type
                         _______ _______ _______ _____ _____    ______ ____

>  <TORSDO>
F 12

$$$$
=
 OpenBabel11062410063D

 43 47  0  0  1  0  0  0  0  0999 V2000
  161.5040  208.9560  154.4700 C   0  0  0  0  0  0  0  0  0  0  0  0
  161.9140  207.9800  155.1570 O   0  0  0  0  0  0  0  0  0  0  0  0
  160.8550  208.7090  153.2040 N   0  0  0  0  0  0  0  0  0  0  0  0
  161.2240  211.7460  151.0580 O   0  0  0  0  0  0  0  0  0  0  0  0
  159.9770  212.3180  151.3130 C   0  0  0  0  0  0  0  0  0  0  0  0
  157.7400  212.2140  152.6000 C   0  0  0  0  0  2  0  0  0  0  0  0
  161.6280  210.5310  151.6970 C   0  0  2  0  0  3  0  0  0  0  0  0
  159.7320  213.5770  150.9470 C   0  0  0  0  0  3  0  0  0  0  0  0
  159.5650  210.6660  152.9860 O   0  0  0  0  0  0  0  0  0  0  0  0
  162.3660  209.6580  150.7040 C   0  0  0  0  0  1  0  0  0  0  0  0
  158.4120  214.2290  151.2240 C   0  0  2  0  0  3  0  0  0  0  0  0
  160.4240  209.7810  152.3050 C   0  0  2  0  0  3  0  0  0  0  0  0
  157.8820  213.7420  152.5730 C   0  0  0  0  0  2  0  0  0  0  0  0
  158.9430  211.4580  152.0070 C   0  0  2  0  0  3  0  0  0  0  0  0
  157.4130  213.9480  150.1080 C   0  0  0  0  0  2  0  0  0  0  0  0
  158.1250  213.4070  148.8820 C   0  0  0  0  0  2  0  0  0  0  0  0
  157.2710  213.4610  147.7800 O   0  0  0  0  0  0  0  0  0  0  0  0
  158.1060  213.7740  146.7040 C   0  0  0  0  0  2  0  0  0  0  0  0
  156.6360  214.4530  144.9520 O   0  0  0  0  0  1  0  0  0  0  0  0
  157.4320  213.3970  145.3970 C   0  0  0  0  0  2  0  0  0  0  0  0
  160.4170  207.3590  152.8680 C   0  0  0  0  0  2  0  0  0  0  0  0
  162.4250  204.9730  150.6290 C   0  0  0  0  0  2  0  0  0  0  0  0
  161.4440  204.8550  149.4570 C   0  0  0  0  0  0  0  0  0  0  0  0
  162.2250  204.4920  148.2130 C   0  0  0  0  0  1  0  0  0  0  0  0
  160.0700  206.7220  150.4870 C   0  0  0  0  0  2  0  0  0  0  0  0
  161.7440  205.5100  151.8890 C   0  0  0  0  0  2  0  0  0  0  0  0
  161.1000  206.8620  151.6060 C   0  0  0  0  0  3  0  0  0  0  0  0
  160.4290  203.7520  149.7200 C   0  0  0  0  0  1  0  0  0  0  0  0
  160.7320  206.1890  149.2130 C   0  0  0  0  0  2  0  0  0  0  0  0
  161.6890  210.3550  155.0050 C   0  0  1  0  0  3  0  0  0  0  0  0
  158.0140  212.0920  156.4680 C   0  0  0  0  0  0  0  0  0  0  0  0
  159.4130  210.1390  156.1160 C   0  0  0  0  0  0  0  0  0  0  0  0
  158.9780  212.8980  155.8610 C   0  0  0  0  0  3  0  0  0  0  0  0
  156.5290  212.8030  157.0630 Cl  0  0  0  0  0  0  0  0  0  0  0  0
  160.4050  210.9540  155.5260 C   0  0  0  0  0  0  0  0  0  0  0  0
  158.2300  210.7150  156.5900 C   0  0  0  0  0  3  0  0  0  0  0  0
  160.1660  212.3310  155.3940 C   0  0  0  0  0  3  0  0  0  0  0  0
  159.5700  208.6600  156.2100 C   0  0  0  0  0  1  0  0  0  0  0  0
  162.4170  210.9550  157.2510 O   0  0  0  0  0  0  0  0  0  0  0  0
  162.8400  209.6110  157.1840 C   0  0  0  0  0  2  0  0  0  0  0  0
  162.8530  210.4920  155.9990 C   0  0  1  0  0  0  0  0  0  0  0  0
  164.1950  211.1040  155.6190 C   0  0  0  0  0  2  0  0  0  0  0  0
  164.7680  211.7410  156.7170 O   0  0  0  0  0  1  0  0  0  0  0  0
  1  2  2  0  0  0  0
  3  1  1  0  0  0  0
  4  5  1  0  0  0  0
  4  7  1  0  0  0  0
  5 14  1  0  0  0  0
  7 10  1  6  0  0  0
  7 12  1  0  0  0  0
  8 11  1  0  0  0  0
  8  5  2  0  0  0  0
 11 15  1  6  0  0  0
 11 13  1  0  0  0  0
 12  9  1  0  0  0  0
 12  3  1  1  0  0  0
 13  6  1  0  0  0  0
 14  6  1  1  0  0  0
 14  9  1  0  0  0  0
 16 15  1  0  0  0  0
 17 16  1  0  0  0  0
 18 17  1  0  0  0  0
 19 20  1  0  0  0  0
 20 18  1  0  0  0  0
 21  3  1  0  0  0  0
 22 26  1  0  0  0  0
 23 28  1  0  0  0  0
 23 22  1  0  0  0  0
 24 23  1  0  0  0  0
 25 27  1  0  0  0  0
 27 26  1  0  0  0  0
 27 21  1  0  0  0  0
 29 23  1  0  0  0  0
 29 25  1  0  0  0  0
 30  1  1  1  0  0  0
 30 35  1  0  0  0  0
 30 41  1  0  0  0  0
 31 36  1  0  0  0  0
 31 34  1  0  0  0  0
 32 38  1  0  0  0  0
 32 36  2  0  0  0  0
 33 31  2  0  0  0  0
 35 32  1  0  0  0  0
 37 35  2  0  0  0  0
 37 33  1  0  0  0  0
 40 39  1  0  0  0  0
 41 42  1  6  0  0  0
 41 40  1  0  0  0  0
 41 39  1  0  0  0  0
 42 43  1  0  0  0  0
M  END
>  <MODEL>
6

>  <REMARK>
 VINA RESULT:      -2.1      3.383      8.766
  Name = 
  12 active torsions:
  status: ('A' for Active; 'I' for Inactive)
    1  A    between atoms: C_1  and  N_34
    2  A    between atoms: C_1  and  C_35
    3  A    between atoms: C_2  and  C_27
    4  A    between atoms: C_8  and  C_30
    5  A    between atoms: C_11  and  C_22
    6  A    between atoms: C_11  and  C_36
    7  A    between atoms: C_21  and  C_30
    8  A    between atoms: C_27  and  C_30
    9  A    between atoms: O_29  and  C_31
   10  A    between atoms: O_29  and  C_36
   11  A    between atoms: C_31  and  C_40
   12  A    between atoms: N_34  and  C_38
                            x       y       z     vdW  Elec       q    Type
                         _______ _______ _______ _____ _____    ______ ____

>  <TORSDO>
F 12

$$$$
=
 OpenBabel11062410063D

 43 47  0  0  1  0  0  0  0  0999 V2000
  161.1180  212.0990  155.9700 C   0  0  0  0  0  0  0  0  0  0  0  0
  161.6290  212.9980  156.6930 O   0  0  0  0  0  0  0  0  0  0  0  0
  161.9010  210.9360  155.6240 N   0  0  0  0  0  0  0  0  0  0  0  0
  161.1960  207.4480  154.4850 O   0  0  0  0  0  0  0  0  0  0  0  0
  161.4100  207.6410  153.1200 C   0  0  0  0  0  0  0  0  0  0  0  0
  162.1090  209.2400  151.2160 C   0  0  0  0  0  2  0  0  0  0  0  0
  161.3840  208.5110  155.4240 C   0  0  2  0  0  3  0  0  0  0  0  0
  161.5150  206.5910  152.3060 C   0  0  0  0  0  3  0  0  0  0  0  0
  162.2100  209.8460  153.5610 O   0  0  0  0  0  0  0  0  0  0  0  0
  160.2920  208.4620  156.4720 C   0  0  0  0  0  1  0  0  0  0  0  0
  161.7650  206.7610  150.8380 C   0  0  2  0  0  3  0  0  0  0  0  0
  161.4180  209.8870  154.7250 C   0  0  2  0  0  3  0  0  0  0  0  0
  162.6970  207.9540  150.6210 C   0  0  0  0  0  2  0  0  0  0  0  0
  161.5110  209.0670  152.6240 C   0  0  2  0  0  3  0  0  0  0  0  0
  160.4600  206.9390  150.0730 C   0  0  0  0  0  2  0  0  0  0  0  0
  160.3800  205.9530  148.9220 C   0  0  0  0  0  2  0  0  0  0  0  0
  161.5650  205.2210  148.8470 O   0  0  0  0  0  0  0  0  0  0  0  0
  161.1600  203.9320  148.4920 C   0  0  0  0  0  2  0  0  0  0  0  0
  161.5740  203.4330  150.7880 O   0  0  0  0  0  1  0  0  0  0  0  0
  160.7070  203.1710  149.7250 C   0  0  0  0  0  2  0  0  0  0  0  0
  163.1460  210.6670  156.3340 C   0  0  0  0  0  2  0  0  0  0  0  0
  166.1240  213.0080  156.9640 C   0  0  0  0  0  2  0  0  0  0  0  0
  167.0130  212.5930  155.7870 C   0  0  0  0  0  0  0  0  0  0  0  0
  167.9290  213.7490  155.4470 C   0  0  0  0  0  1  0  0  0  0  0  0
  165.0760  211.2370  154.8680 C   0  0  0  0  0  2  0  0  0  0  0  0
  165.0460  211.9640  157.2570 C   0  0  0  0  0  2  0  0  0  0  0  0
  164.1930  211.7210  156.0170 C   0  0  0  0  0  3  0  0  0  0  0  0
  167.8750  211.3970  156.1630 C   0  0  0  0  0  1  0  0  0  0  0  0
  166.1610  212.2710  154.5540 C   0  0  0  0  0  2  0  0  0  0  0  0
  159.6900  212.2580  155.5070 C   0  0  1  0  0  3  0  0  0  0  0  0
  159.3960  212.9990  151.2610 C   0  0  0  0  0  0  0  0  0  0  0  0
  158.5590  213.3540  153.5120 C   0  0  0  0  0  0  0  0  0  0  0  0
  160.3950  212.1610  151.7600 C   0  0  0  0  0  3  0  0  0  0  0  0
  159.2870  213.3000  149.5400 Cl  0  0  0  0  0  0  0  0  0  0  0  0
  159.5840  212.5290  154.0250 C   0  0  0  0  0  0  0  0  0  0  0  0
  158.4780  213.5890  152.1350 C   0  0  0  0  0  3  0  0  0  0  0  0
  160.4870  211.9280  153.1340 C   0  0  0  0  0  3  0  0  0  0  0  0
  157.5190  213.9520  154.3960 C   0  0  0  0  0  1  0  0  0  0  0  0
  159.2020  210.5420  157.1660 O   0  0  0  0  0  0  0  0  0  0  0  0
  158.0310  211.3250  157.2410 C   0  0  0  0  0  2  0  0  0  0  0  0
  158.7560  211.1270  155.9700 C   0  0  1  0  0  0  0  0  0  0  0  0
  158.1930  210.0800  155.0170 C   0  0  0  0  0  2  0  0  0  0  0  0
  156.8290  210.2830  154.8250 O   0  0  0  0  0  1  0  0  0  0  0  0
  1  2  2  0  0  0  0
  3  1  1  0  0  0  0
  3 21  1  0  0  0  0
  4  7  1  0  0  0  0
  5  4  1  0  0  0  0
  7 10  1  1  0  0  0
  8  5  2  0  0  0  0
  9 12  1  0  0  0  0
 11 15  1  6  0  0  0
 11  8  1  0  0  0  0
 12  7  1  0  0  0  0
 12  3  1  1  0  0  0
 13 11  1  0  0  0  0
 13  6  1  0  0  0  0
 14  6  1  6  0  0  0
 14  5  1  0  0  0  0
 14  9  1  0  0  0  0
 16 15  1  0  0  0  0
 17 16  1  0  0  0  0
 18 17  1  0  0  0  0
 18 20  1  0  0  0  0
 20 19  1  0  0  0  0
 22 26  1  0  0  0  0
 23 28  1  0  0  0  0
 23 22  1  0  0  0  0
 24 23  1  0  0  0  0
 25 27  1  0  0  0  0
 27 21  1  0  0  0  0
 27 26  1  0  0  0  0
 29 25  1  0  0  0  0
 29 23  1  0  0  0  0
 30 41  1  0  0  0  0
 30  1  1  6  0  0  0
 31 33  2  0  0  0  0
 31 36  1  0  0  0  0
 32 35  1  0  0  0  0
 32 38  1  0  0  0  0
 33 37  1  0  0  0  0
 34 31  1  0  0  0  0
 35 30  1  0  0  0  0
 36 32  2  0  0  0  0
 37 35  2  0  0  0  0
 39 40  1  0  0  0  0
 41 42  1  6  0  0  0
 41 39  1  0  0  0  0
 41 40  1  0  0  0  0
 43 42  1  0  0  0  0
M  END
>  <MODEL>
7

>  <REMARK>
 VINA RESULT:      -1.7      3.819      6.527
  Name = 
  12 active torsions:
  status: ('A' for Active; 'I' for Inactive)
    1  A    between atoms: C_1  and  N_34
    2  A    between atoms: C_1  and  C_35
    3  A    between atoms: C_2  and  C_27
    4  A    between atoms: C_8  and  C_30
    5  A    between atoms: C_11  and  C_22
    6  A    between atoms: C_11  and  C_36
    7  A    between atoms: C_21  and  C_30
    8  A    between atoms: C_27  and  C_30
    9  A    between atoms: O_29  and  C_31
   10  A    between atoms: O_29  and  C_36
   11  A    between atoms: C_31  and  C_40
   12  A    between atoms: N_34  and  C_38
                            x       y       z     vdW  Elec       q    Type
                         _______ _______ _______ _____ _____    ______ ____

>  <TORSDO>
F 12

$$$$
