=
 OpenBabel11062407533D

 34 39  0  0  1  0  0  0  0  0999 V2000
  160.6050  213.0650  150.0180 C   0  0  0  0  0  0  0  0  0  0  0  0
  162.0540  211.8110  148.4550 C   0  0  0  0  0  0  0  0  0  0  0  0
  161.3160  210.8450  150.7110 C   0  0  0  0  0  0  0  0  0  0  0  0
  162.3070  208.7330  151.5900 C   0  0  2  0  0  3  0  0  0  0  0  0
  160.6070  213.6600  147.5930 C   0  0  0  0  0  2  0  0  0  0  0  0
  161.7380  212.7550  147.4290 N   0  0  0  0  0  2  0  0  0  0  0  0
  161.5530  208.8130  149.2380 C   0  0  0  0  0  2  0  0  0  0  0  0
  161.3120  211.8760  149.7380 C   0  0  0  0  0  0  0  0  0  0  0  0
  162.6600  207.0540  151.0050 S   0  0  0  0  0  0  0  0  0  0  0  0
  160.5710  214.1940  149.0240 C   0  0  0  0  0  2  0  0  0  0  0  0
  160.7320  211.0810  151.9720 C   0  0  0  0  0  0  0  0  0  0  0  0
  160.0250  213.2450  151.2330 N   0  0  0  0  0  0  0  0  0  0  0  0
  163.0160  211.0160  148.2890 O   0  0  0  0  0  0  0  0  0  0  0  0
  161.1980  208.7000  152.6340 C   0  0  0  0  0  2  0  0  0  0  0  0
  160.8120  210.0620  152.9960 N   0  0  0  0  0  0  0  0  0  0  0  0
  161.6410  207.3260  149.5230 C   0  0  2  0  0  3  0  0  0  0  0  0
  161.8650  209.5380  150.4600 N   0  0  0  0  0  0  0  0  0  0  0  0
  160.0810  212.2980  152.2020 C   0  0  0  0  0  3  0  0  0  0  0  0
  160.8070  208.4040  155.8950 C   0  0  2  0  0  3  0  0  0  0  0  0
  161.4290  209.2150  157.0350 C   0  0  0  0  0  2  0  0  0  0  0  0
  160.6240  210.3340  154.4210 C   0  0  1  0  0  3  0  0  0  0  0  0
  161.7750  210.6500  156.6190 C   0  0  0  0  0  2  0  0  0  0  0  0
  159.9080  209.2300  155.0880 N   0  0  0  0  0  2  0  0  0  0  0  0
  161.9290  210.7680  155.1090 C   0  0  0  0  0  2  0  0  0  0  0  0
  160.0480  207.2240  156.4620 C   0  0  0  0  0  1  0  0  0  0  0  0
  162.1630  206.5540  148.3150 C   0  0  0  0  0  2  0  0  0  0  0  0
  161.1910  205.5700  147.8500 N   0  0  0  0  0  2  0  0  0  0  0  0
  161.5380  203.3200  146.2300 F   0  0  0  0  0  0  0  0  0  0  0  0
  161.0840  204.2490  148.3880 C   0  0  0  0  0  0  0  0  0  0  0  0
  161.2610  203.1420  147.5460 C   0  0  0  0  0  0  0  0  0  0  0  0
  160.8740  201.6460  149.4120 C   0  0  0  0  0  3  0  0  0  0  0  0
  160.6920  202.7450  150.2560 C   0  0  0  0  0  3  0  0  0  0  0  0
  160.7960  204.0420  149.7460 C   0  0  0  0  0  3  0  0  0  0  0  0
  161.1570  201.8450  148.0580 C   0  0  0  0  0  3  0  0  0  0  0  0
  1 12  1  0  0  0  0
  2  8  1  0  0  0  0
  3 11  2  0  0  0  0
  4 14  1  1  0  0  0
  5 10  1  0  0  0  0
  6  5  1  0  0  0  0
  6  2  1  0  0  0  0
  7 16  1  0  0  0  0
  7 17  1  0  0  0  0
  8  1  2  0  0  0  0
  8  3  1  0  0  0  0
  9  4  1  0  0  0  0
 10  1  1  0  0  0  0
 11 18  1  0  0  0  0
 11 15  1  0  0  0  0
 12 18  2  0  0  0  0
 13  2  2  0  0  0  0
 14 15  1  0  0  0  0
 16 26  1  6  0  0  0
 16  9  1  0  0  0  0
 17  3  1  0  0  0  0
 17  4  1  0  0  0  0
 19 25  1  1  0  0  0
 19 20  1  0  0  0  0
 21 15  1  6  0  0  0
 21 23  1  0  0  0  0
 21 24  1  0  0  0  0
 22 20  1  0  0  0  0
 23 19  1  0  0  0  0
 24 22  1  0  0  0  0
 27 26  1  0  0  0  0
 27 29  1  0  0  0  0
 28 30  1  0  0  0  0
 29 33  1  0  0  0  0
 30 34  1  0  0  0  0
 30 29  2  0  0  0  0
 31 32  1  0  0  0  0
 33 32  2  0  0  0  0
 34 31  2  0  0  0  0
M  END
>  <MODEL>
1

>  <REMARK>
 VINA RESULT:      -8.5      0.000      0.000
  Name = 
  4 active torsions:
  status: ('A' for Active; 'I' for Inactive)
    1  A    between atoms: N_3  and  C_13
    2  A    between atoms: N_3  and  C_17
    3  A    between atoms: C_12  and  N_28
    4  A    between atoms: C_17  and  C_29
                            x       y       z     vdW  Elec       q    Type
                         _______ _______ _______ _____ _____    ______ ____

>  <TORSDO>
F 4

$$$$
=
 OpenBabel11062407533D

 34 39  0  0  1  0  0  0  0  0999 V2000
  161.5030  210.4280  150.9470 C   0  0  0  0  0  0  0  0  0  0  0  0
  162.3410  208.5500  149.5750 C   0  0  0  0  0  0  0  0  0  0  0  0
  161.3860  208.2060  151.9280 C   0  0  0  0  0  0  0  0  0  0  0  0
  161.5760  206.0050  153.0830 C   0  0  2  0  0  3  0  0  0  0  0  0
  161.6320  210.6760  148.4660 C   0  0  0  0  0  2  0  0  0  0  0  0
  162.3500  209.4090  148.4320 N   0  0  0  0  0  2  0  0  0  0  0  0
  160.8160  206.0620  150.7320 C   0  0  0  0  0  2  0  0  0  0  0  0
  161.7200  209.0390  150.8310 C   0  0  0  0  0  0  0  0  0  0  0  0
  161.2740  204.2540  152.7230 S   0  0  0  0  0  0  0  0  0  0  0  0
  161.8440  211.3600  149.8150 C   0  0  0  0  0  2  0  0  0  0  0  0
  160.9730  208.7930  153.1410 C   0  0  0  0  0  0  0  0  0  0  0  0
  161.0730  210.9570  152.1220 N   0  0  0  0  0  0  0  0  0  0  0  0
  162.9420  207.4450  149.5230 O   0  0  0  0  0  0  0  0  0  0  0  0
  160.5690  206.5080  154.1100 C   0  0  0  0  0  2  0  0  0  0  0  0
  160.7160  207.9510  154.2890 N   0  0  0  0  0  0  0  0  0  0  0  0
  160.3700  204.6920  151.2070 C   0  0  2  0  0  3  0  0  0  0  0  0
  161.4140  206.7690  151.8530 N   0  0  0  0  0  0  0  0  0  0  0  0
  160.8170  210.1820  153.2050 C   0  0  0  0  0  3  0  0  0  0  0  0
  162.0610  210.4130  156.1010 C   0  0  2  0  0  3  0  0  0  0  0  0
  161.0840  210.9790  157.1360 C   0  0  0  0  0  2  0  0  0  0  0  0
  160.6920  208.4460  155.6650 C   0  0  1  0  0  3  0  0  0  0  0  0
  159.7710  210.1910  157.2020 C   0  0  0  0  0  2  0  0  0  0  0  0
  162.0160  208.9500  156.0780 N   0  0  0  0  0  2  0  0  0  0  0  0
  159.5250  209.4140  155.9160 C   0  0  0  0  0  2  0  0  0  0  0  0
  163.4660  210.8770  156.4170 C   0  0  0  0  0  1  0  0  0  0  0  0
  160.5320  203.6400  150.1150 C   0  0  0  0  0  2  0  0  0  0  0  0
  161.6110  203.9880  149.1950 N   0  0  0  0  0  2  0  0  0  0  0  0
  161.2020  201.6600  147.7040 F   0  0  0  0  0  0  0  0  0  0  0  0
  161.4530  204.0390  147.7740 C   0  0  0  0  0  0  0  0  0  0  0  0
  161.2530  202.8510  147.0570 C   0  0  0  0  0  0  0  0  0  0  0  0
  161.1480  204.1060  144.9870 C   0  0  0  0  0  3  0  0  0  0  0  0
  161.3510  205.2930  145.6960 C   0  0  0  0  0  3  0  0  0  0  0  0
  161.5050  205.2600  147.0850 C   0  0  0  0  0  3  0  0  0  0  0  0
  161.1000  202.8870  145.6680 C   0  0  0  0  0  3  0  0  0  0  0  0
  1 12  1  0  0  0  0
  2  8  1  0  0  0  0
  3 11  2  0  0  0  0
  4 14  1  1  0  0  0
  5 10  1  0  0  0  0
  6  5  1  0  0  0  0
  6  2  1  0  0  0  0
  7 16  1  0  0  0  0
  7 17  1  0  0  0  0
  8  1  2  0  0  0  0
  8  3  1  0  0  0  0
  9  4  1  0  0  0  0
 10  1  1  0  0  0  0
 11 18  1  0  0  0  0
 11 15  1  0  0  0  0
 12 18  2  0  0  0  0
 13  2  2  0  0  0  0
 14 15  1  0  0  0  0
 16 26  1  6  0  0  0
 16  9  1  0  0  0  0
 17  3  1  0  0  0  0
 17  4  1  0  0  0  0
 19 25  1  1  0  0  0
 19 20  1  0  0  0  0
 20 22  1  0  0  0  0
 21 15  1  6  0  0  0
 21 24  1  0  0  0  0
 21 23  1  0  0  0  0
 23 19  1  0  0  0  0
 24 22  1  0  0  0  0
 27 26  1  0  0  0  0
 29 27  1  0  0  0  0
 30 28  1  0  0  0  0
 30 29  2  0  0  0  0
 31 34  2  0  0  0  0
 31 32  1  0  0  0  0
 32 33  2  0  0  0  0
 33 29  1  0  0  0  0
 34 30  1  0  0  0  0
M  END
>  <MODEL>
2

>  <REMARK>
 VINA RESULT:      -8.0      1.924      3.095
  Name = 
  4 active torsions:
  status: ('A' for Active; 'I' for Inactive)
    1  A    between atoms: N_3  and  C_13
    2  A    between atoms: N_3  and  C_17
    3  A    between atoms: C_12  and  N_28
    4  A    between atoms: C_17  and  C_29
                            x       y       z     vdW  Elec       q    Type
                         _______ _______ _______ _____ _____    ______ ____

>  <TORSDO>
F 4

$$$$
=
 OpenBabel11062407533D

 34 39  0  0  1  0  0  0  0  0999 V2000
  160.4690  213.2870  149.8380 C   0  0  0  0  0  0  0  0  0  0  0  0
  162.1580  212.1490  148.4360 C   0  0  0  0  0  0  0  0  0  0  0  0
  161.1750  211.0690  150.5420 C   0  0  0  0  0  0  0  0  0  0  0  0
  162.1290  208.9610  151.4690 C   0  0  2  0  0  3  0  0  0  0  0  0
  160.7600  213.9770  147.4570 C   0  0  0  0  0  2  0  0  0  0  0  0
  161.9380  213.1210  147.4110 N   0  0  0  0  0  2  0  0  0  0  0  0
  161.6830  209.1060  149.0430 C   0  0  0  0  0  2  0  0  0  0  0  0
  161.2540  212.1360  149.6130 C   0  0  0  0  0  0  0  0  0  0  0  0
  162.6230  207.3200  150.8780 S   0  0  0  0  0  0  0  0  0  0  0  0
  160.5170  214.4530  148.8880 C   0  0  0  0  0  2  0  0  0  0  0  0
  160.4220  211.2330  151.7220 C   0  0  0  0  0  0  0  0  0  0  0  0
  159.7290  213.3980  150.9720 N   0  0  0  0  0  0  0  0  0  0  0  0
  163.1650  211.3970  148.3700 O   0  0  0  0  0  0  0  0  0  0  0  0
  160.8960  208.8460  152.3570 C   0  0  0  0  0  2  0  0  0  0  0  0
  160.4110  210.1780  152.7130 N   0  0  0  0  0  0  0  0  0  0  0  0
  161.7950  207.6130  149.2860 C   0  0  2  0  0  3  0  0  0  0  0  0
  161.8050  209.7930  150.3190 N   0  0  0  0  0  0  0  0  0  0  0  0
  159.6980  212.4150  151.9070 C   0  0  0  0  0  3  0  0  0  0  0  0
  161.4340  209.2780  155.7620 C   0  0  2  0  0  3  0  0  0  0  0  0
  161.2770  210.4040  156.7890 C   0  0  0  0  0  2  0  0  0  0  0  0
  160.0300  210.3860  154.1090 C   0  0  1  0  0  3  0  0  0  0  0  0
  160.5530  211.6280  156.2160 C   0  0  0  0  0  2  0  0  0  0  0  0
  160.2470  209.1680  154.9130 N   0  0  0  0  0  2  0  0  0  0  0  0
  160.6440  211.6670  154.6970 C   0  0  0  0  0  2  0  0  0  0  0  0
  161.6780  207.9660  156.4750 C   0  0  0  0  0  1  0  0  0  0  0  0
  162.5000  206.9090  148.1310 C   0  0  0  0  0  2  0  0  0  0  0  0
  161.5420  206.2950  147.2160 N   0  0  0  0  0  2  0  0  0  0  0  0
  161.4340  205.1350  144.6760 F   0  0  0  0  0  0  0  0  0  0  0  0
  161.3990  204.8810  147.0550 C   0  0  0  0  0  0  0  0  0  0  0  0
  161.3440  204.3330  145.7660 C   0  0  0  0  0  0  0  0  0  0  0  0
  161.1100  202.1130  146.7080 C   0  0  0  0  0  3  0  0  0  0  0  0
  161.1600  202.6530  147.9950 C   0  0  0  0  0  3  0  0  0  0  0  0
  161.3020  204.0320  148.1690 C   0  0  0  0  0  3  0  0  0  0  0  0
  161.2010  202.9530  145.5940 C   0  0  0  0  0  3  0  0  0  0  0  0
  1 12  1  0  0  0  0
  2  8  1  0  0  0  0
  3 11  2  0  0  0  0
  4 14  1  1  0  0  0
  5 10  1  0  0  0  0
  6  5  1  0  0  0  0
  6  2  1  0  0  0  0
  7 16  1  0  0  0  0
  7 17  1  0  0  0  0
  8  1  2  0  0  0  0
  8  3  1  0  0  0  0
  9  4  1  0  0  0  0
 10  1  1  0  0  0  0
 11 18  1  0  0  0  0
 11 15  1  0  0  0  0
 12 18  2  0  0  0  0
 13  2  2  0  0  0  0
 14 15  1  0  0  0  0
 16 26  1  6  0  0  0
 16  9  1  0  0  0  0
 17  3  1  0  0  0  0
 17  4  1  0  0  0  0
 19 25  1  1  0  0  0
 19 20  1  0  0  0  0
 21 15  1  6  0  0  0
 21 24  1  0  0  0  0
 21 23  1  0  0  0  0
 22 20  1  0  0  0  0
 23 19  1  0  0  0  0
 24 22  1  0  0  0  0
 27 26  1  0  0  0  0
 28 30  1  0  0  0  0
 29 27  1  0  0  0  0
 29 33  1  0  0  0  0
 30 29  2  0  0  0  0
 31 32  1  0  0  0  0
 32 33  2  0  0  0  0
 34 30  1  0  0  0  0
 34 31  2  0  0  0  0
M  END
>  <MODEL>
3

>  <REMARK>
 VINA RESULT:      -7.8      0.963      1.227
  Name = 
  4 active torsions:
  status: ('A' for Active; 'I' for Inactive)
    1  A    between atoms: N_3  and  C_13
    2  A    between atoms: N_3  and  C_17
    3  A    between atoms: C_12  and  N_28
    4  A    between atoms: C_17  and  C_29
                            x       y       z     vdW  Elec       q    Type
                         _______ _______ _______ _____ _____    ______ ____

>  <TORSDO>
F 4

$$$$
=
 OpenBabel11062407533D

 34 39  0  0  1  0  0  0  0  0999 V2000
  161.2950  205.6300  149.0820 C   0  0  0  0  0  0  0  0  0  0  0  0
  161.8020  205.2580  151.4740 C   0  0  0  0  0  0  0  0  0  0  0  0
  161.6420  207.6050  150.4580 C   0  0  0  0  0  0  0  0  0  0  0  0
  162.3320  209.6170  151.7580 C   0  0  2  0  0  3  0  0  0  0  0  0
  160.6390  203.4760  150.1610 C   0  0  0  0  0  2  0  0  0  0  0  0
  161.4000  203.8940  151.3310 N   0  0  0  0  0  2  0  0  0  0  0  0
  160.8860  207.9310  152.8400 C   0  0  0  0  0  2  0  0  0  0  0  0
  161.5630  206.1940  150.3470 C   0  0  0  0  0  0  0  0  0  0  0  0
  162.0590  210.3280  153.4030 S   0  0  0  0  0  0  0  0  0  0  0  0
  161.2060  204.1380  148.9060 C   0  0  0  0  0  2  0  0  0  0  0  0
  161.5810  208.3950  149.2920 C   0  0  0  0  0  0  0  0  0  0  0  0
  161.2090  206.4250  147.9840 N   0  0  0  0  0  0  0  0  0  0  0  0
  162.4360  205.6120  152.5030 O   0  0  0  0  0  0  0  0  0  0  0  0
  161.6550  210.4780  150.6980 C   0  0  0  0  0  2  0  0  0  0  0  0
  161.7480  209.8280  149.3930 N   0  0  0  0  0  0  0  0  0  0  0  0
  160.7050  209.1560  153.7160 C   0  0  2  0  0  3  0  0  0  0  0  0
  161.7480  208.2840  151.7230 N   0  0  0  0  0  0  0  0  0  0  0  0
  161.3530  207.7710  148.0610 C   0  0  0  0  0  3  0  0  0  0  0  0
  160.6450  212.5820  147.8570 C   0  0  2  0  0  3  0  0  0  0  0  0
  161.7880  213.4810  147.3740 C   0  0  0  0  0  2  0  0  0  0  0  0
  162.1120  210.6800  148.2600 C   0  0  1  0  0  3  0  0  0  0  0  0
  163.1660  212.8410  147.5740 C   0  0  0  0  0  2  0  0  0  0  0  0
  160.9150  211.1750  147.5540 N   0  0  0  0  0  2  0  0  0  0  0  0
  163.1290  211.7650  148.6500 C   0  0  0  0  0  2  0  0  0  0  0  0
  159.3480  213.0070  147.2030 C   0  0  0  0  0  1  0  0  0  0  0  0
  160.5990  208.7800  155.1910 C   0  0  0  0  0  2  0  0  0  0  0  0
  159.4850  209.4680  155.8380 N   0  0  0  0  0  2  0  0  0  0  0  0
  161.0890  211.5650  156.7540 F   0  0  0  0  0  0  0  0  0  0  0  0
  159.1400  210.8310  155.5760 C   0  0  0  0  0  0  0  0  0  0  0  0
  159.9650  211.8590  156.0540 C   0  0  0  0  0  0  0  0  0  0  0  0
  158.4830  213.5130  155.0850 C   0  0  0  0  0  3  0  0  0  0  0  0
  157.6550  212.4940  154.6100 C   0  0  0  0  0  3  0  0  0  0  0  0
  157.9800  211.1570  154.8550 C   0  0  0  0  0  3  0  0  0  0  0  0
  159.6370  213.1950  155.8070 C   0  0  0  0  0  3  0  0  0  0  0  0
  1  8  1  0  0  0  0
  2 13  2  0  0  0  0
  3 17  1  0  0  0  0
  4 14  1  6  0  0  0
  4  9  1  0  0  0  0
  5  6  1  0  0  0  0
  6  2  1  0  0  0  0
  7 16  1  0  0  0  0
  8  3  2  0  0  0  0
  8  2  1  0  0  0  0
  9 16  1  0  0  0  0
 10  1  1  0  0  0  0
 10  5  1  0  0  0  0
 11 15  1  0  0  0  0
 11  3  1  0  0  0  0
 12 18  1  0  0  0  0
 12  1  2  0  0  0  0
 15 14  1  0  0  0  0
 16 26  1  1  0  0  0
 17  4  1  0  0  0  0
 17  7  1  0  0  0  0
 18 11  2  0  0  0  0
 19 25  1  6  0  0  0
 20 22  1  0  0  0  0
 20 19  1  0  0  0  0
 21 24  1  1  0  0  0
 21 15  1  0  0  0  0
 22 24  1  0  0  0  0
 23 19  1  0  0  0  0
 23 21  1  0  0  0  0
 26 27  1  0  0  0  0
 29 27  1  0  0  0  0
 29 30  1  0  0  0  0
 30 28  1  0  0  0  0
 31 34  1  0  0  0  0
 32 33  1  0  0  0  0
 32 31  2  0  0  0  0
 33 29  2  0  0  0  0
 34 30  2  0  0  0  0
M  END
>  <MODEL>
4

>  <REMARK>
 VINA RESULT:      -7.7      3.196      8.377
  Name = 
  4 active torsions:
  status: ('A' for Active; 'I' for Inactive)
    1  A    between atoms: N_3  and  C_13
    2  A    between atoms: N_3  and  C_17
    3  A    between atoms: C_12  and  N_28
    4  A    between atoms: C_17  and  C_29
                            x       y       z     vdW  Elec       q    Type
                         _______ _______ _______ _____ _____    ______ ____

>  <TORSDO>
F 4

$$$$
=
 OpenBabel11062407533D

 34 39  0  0  1  0  0  0  0  0999 V2000
  160.4710  212.5090  150.3800 C   0  0  0  0  0  0  0  0  0  0  0  0
  162.0890  210.6470  150.5580 C   0  0  0  0  0  0  0  0  0  0  0  0
  160.4540  211.2240  152.4450 C   0  0  0  0  0  0  0  0  0  0  0  0
  160.6530  210.1550  154.6880 C   0  0  2  0  0  3  0  0  0  0  0  0
  161.4130  211.4930  148.3030 C   0  0  0  0  0  2  0  0  0  0  0  0
  162.3310  210.7440  149.1520 N   0  0  0  0  0  2  0  0  0  0  0  0
  160.7740  208.7340  152.6700 C   0  0  0  0  0  2  0  0  0  0  0  0
  160.9820  211.4410  151.1480 C   0  0  0  0  0  0  0  0  0  0  0  0
  160.8470  208.4930  155.3860 S   0  0  0  0  0  0  0  0  0  0  0  0
  160.9980  212.7880  148.9990 C   0  0  0  0  0  2  0  0  0  0  0  0
  159.5340  212.1480  152.9810 C   0  0  0  0  0  0  0  0  0  0  0  0
  159.5590  213.3610  150.9170 N   0  0  0  0  0  0  0  0  0  0  0  0
  162.8740  209.9750  151.2760 O   0  0  0  0  0  0  0  0  0  0  0  0
  159.2710  210.7030  155.0220 C   0  0  0  0  0  2  0  0  0  0  0  0
  159.0600  211.9770  154.3370 N   0  0  0  0  0  0  0  0  0  0  0  0
  160.4670  207.7410  153.7760 C   0  0  2  0  0  3  0  0  0  0  0  0
  160.7880  210.0720  153.2410 N   0  0  0  0  0  0  0  0  0  0  0  0
  159.0960  213.2100  152.1830 C   0  0  0  0  0  3  0  0  0  0  0  0
  156.0570  213.3510  154.8340 C   0  0  2  0  0  3  0  0  0  0  0  0
  155.8390  213.7700  156.2920 C   0  0  0  0  0  2  0  0  0  0  0  0
  158.4560  213.0530  155.1230 C   0  0  1  0  0  3  0  0  0  0  0  0
  157.0970  213.5990  157.1500 C   0  0  0  0  0  2  0  0  0  0  0  0
  157.3890  213.7360  154.3680 N   0  0  0  0  0  2  0  0  0  0  0  0
  158.0570  212.5910  156.5340 C   0  0  0  0  0  2  0  0  0  0  0  0
  155.0020  213.9870  153.9560 C   0  0  0  0  0  1  0  0  0  0  0  0
  161.2060  206.4230  153.5660 C   0  0  0  0  0  2  0  0  0  0  0  0
  161.8650  206.3830  152.2640 N   0  0  0  0  0  2  0  0  0  0  0  0
  161.2350  207.2570  149.6850 F   0  0  0  0  0  0  0  0  0  0  0  0
  161.5190  205.4540  151.2320 C   0  0  0  0  0  0  0  0  0  0  0  0
  161.2060  205.9270  149.9500 C   0  0  0  0  0  0  0  0  0  0  0  0
  160.8310  203.6570  149.1920 C   0  0  0  0  0  3  0  0  0  0  0  0
  161.1390  203.1790  150.4680 C   0  0  0  0  0  3  0  0  0  0  0  0
  161.4810  204.0740  151.4860 C   0  0  0  0  0  3  0  0  0  0  0  0
  160.8640  205.0300  148.9340 C   0  0  0  0  0  3  0  0  0  0  0  0
  1 12  2  0  0  0  0
  1  8  1  0  0  0  0
  2  8  1  0  0  0  0
  2 13  2  0  0  0  0
  3 11  1  0  0  0  0
  3 17  1  0  0  0  0
  4 14  1  6  0  0  0
  4  9  1  0  0  0  0
  5 10  1  0  0  0  0
  5  6  1  0  0  0  0
  6  2  1  0  0  0  0
  7 17  1  0  0  0  0
  7 16  1  0  0  0  0
  8  3  2  0  0  0  0
 10  1  1  0  0  0  0
 11 15  1  0  0  0  0
 12 18  1  0  0  0  0
 15 14  1  0  0  0  0
 16 26  1  6  0  0  0
 16  9  1  0  0  0  0
 17  4  1  0  0  0  0
 18 11  2  0  0  0  0
 19 25  1  6  0  0  0
 19 20  1  0  0  0  0
 20 22  1  0  0  0  0
 21 15  1  6  0  0  0
 21 24  1  0  0  0  0
 23 19  1  0  0  0  0
 23 21  1  0  0  0  0
 24 22  1  0  0  0  0
 27 26  1  0  0  0  0
 28 30  1  0  0  0  0
 29 33  1  0  0  0  0
 29 27  1  0  0  0  0
 30 29  2  0  0  0  0
 31 32  1  0  0  0  0
 32 33  2  0  0  0  0
 34 31  2  0  0  0  0
 34 30  1  0  0  0  0
M  END
>  <MODEL>
5

>  <REMARK>
 VINA RESULT:      -7.4      2.902      3.962
  Name = 
  4 active torsions:
  status: ('A' for Active; 'I' for Inactive)
    1  A    between atoms: N_3  and  C_13
    2  A    between atoms: N_3  and  C_17
    3  A    between atoms: C_12  and  N_28
    4  A    between atoms: C_17  and  C_29
                            x       y       z     vdW  Elec       q    Type
                         _______ _______ _______ _____ _____    ______ ____

>  <TORSDO>
F 4

$$$$
=
 OpenBabel11062407533D

 34 39  0  0  1  0  0  0  0  0999 V2000
  161.5990  211.9690  148.9360 C   0  0  0  0  0  0  0  0  0  0  0  0
  160.2210  212.9540  150.7380 C   0  0  0  0  0  0  0  0  0  0  0  0
  161.1990  210.5900  150.8990 C   0  0  0  0  0  0  0  0  0  0  0  0
  160.5190  209.0410  152.7310 C   0  0  2  0  0  3  0  0  0  0  0  0
  161.3850  214.4510  149.1080 C   0  0  0  0  0  2  0  0  0  0  0  0
  160.3630  214.2370  150.1240 N   0  0  0  0  0  2  0  0  0  0  0  0
  161.1210  211.3700  153.2950 C   0  0  0  0  0  2  0  0  0  0  0  0
  161.0240  211.8200  150.2160 C   0  0  0  0  0  0  0  0  0  0  0  0
  160.3360  209.0700  154.5340 S   0  0  0  0  0  0  0  0  0  0  0  0
  161.4400  213.2500  148.1640 C   0  0  0  0  0  2  0  0  0  0  0  0
  161.8230  209.5140  150.2370 C   0  0  0  0  0  0  0  0  0  0  0  0
  162.2230  210.9190  148.3420 N   0  0  0  0  0  0  0  0  0  0  0  0
  159.3530  212.7890  151.6350 O   0  0  0  0  0  0  0  0  0  0  0  0
  161.6830  208.1390  152.3390 C   0  0  0  0  0  2  0  0  0  0  0  0
  161.9240  208.2320  150.9010 N   0  0  0  0  0  0  0  0  0  0  0  0
  161.2270  210.6520  154.6270 C   0  0  2  0  0  3  0  0  0  0  0  0
  160.7960  210.3940  152.2680 N   0  0  0  0  0  0  0  0  0  0  0  0
  162.3360  209.7130  148.9520 C   0  0  0  0  0  3  0  0  0  0  0  0
  161.0700  205.0120  151.1390 C   0  0  2  0  0  3  0  0  0  0  0  0
  160.8390  204.3640  149.7700 C   0  0  0  0  0  2  0  0  0  0  0  0
  162.1610  206.9730  150.1930 C   0  0  1  0  0  3  0  0  0  0  0  0
  161.1950  205.2980  148.6080 C   0  0  0  0  0  2  0  0  0  0  0  0
  162.2760  205.8420  151.1330 N   0  0  0  0  0  2  0  0  0  0  0  0
  161.1680  206.7580  149.0390 C   0  0  0  0  0  2  0  0  0  0  0  0
  161.1930  203.9380  152.1980 C   0  0  0  0  0  1  0  0  0  0  0  0
  160.7310  211.5260  155.7760 C   0  0  0  0  0  2  0  0  0  0  0  0
  159.6100  212.3640  155.3620 N   0  0  0  0  0  2  0  0  0  0  0  0
  157.9080  211.0950  153.5440 F   0  0  0  0  0  0  0  0  0  0  0  0
  158.2480  212.0840  155.6970 C   0  0  0  0  0  0  0  0  0  0  0  0
  157.4210  211.4490  154.7590 C   0  0  0  0  0  0  0  0  0  0  0  0
  155.5710  211.5280  156.3220 C   0  0  0  0  0  3  0  0  0  0  0  0
  156.3890  212.1650  157.2590 C   0  0  0  0  0  3  0  0  0  0  0  0
  157.7230  212.4430  156.9480 C   0  0  0  0  0  3  0  0  0  0  0  0
  156.0870  211.1720  155.0730 C   0  0  0  0  0  3  0  0  0  0  0  0
  1  8  1  0  0  0  0
  2 13  2  0  0  0  0
  3 17  1  0  0  0  0
  4 14  1  1  0  0  0
  4  9  1  0  0  0  0
  5  6  1  0  0  0  0
  6  2  1  0  0  0  0
  7 16  1  0  0  0  0
  8  2  1  0  0  0  0
  8  3  2  0  0  0  0
  9 16  1  0  0  0  0
 10  1  1  0  0  0  0
 10  5  1  0  0  0  0
 11  3  1  0  0  0  0
 11 15  1  0  0  0  0
 12  1  2  0  0  0  0
 12 18  1  0  0  0  0
 15 14  1  0  0  0  0
 16 26  1  1  0  0  0
 17  4  1  0  0  0  0
 17  7  1  0  0  0  0
 18 11  2  0  0  0  0
 19 25  1  1  0  0  0
 20 19  1  0  0  0  0
 21 24  1  6  0  0  0
 21 15  1  0  0  0  0
 21 23  1  0  0  0  0
 22 24  1  0  0  0  0
 22 20  1  0  0  0  0
 23 19  1  0  0  0  0
 27 29  1  0  0  0  0
 27 26  1  0  0  0  0
 28 30  1  0  0  0  0
 29 33  1  0  0  0  0
 30 34  1  0  0  0  0
 30 29  2  0  0  0  0
 31 32  1  0  0  0  0
 33 32  2  0  0  0  0
 34 31  2  0  0  0  0
M  END
>  <MODEL>
6

>  <REMARK>
 VINA RESULT:      -7.1      3.231      7.189
  Name = 
  4 active torsions:
  status: ('A' for Active; 'I' for Inactive)
    1  A    between atoms: N_3  and  C_13
    2  A    between atoms: N_3  and  C_17
    3  A    between atoms: C_12  and  N_28
    4  A    between atoms: C_17  and  C_29
                            x       y       z     vdW  Elec       q    Type
                         _______ _______ _______ _____ _____    ______ ____

>  <TORSDO>
F 4

$$$$
=
 OpenBabel11062407533D

 34 39  0  0  1  0  0  0  0  0999 V2000
  160.8500  207.6280  155.1920 C   0  0  0  0  0  0  0  0  0  0  0  0
  161.2830  210.0610  155.2700 C   0  0  0  0  0  0  0  0  0  0  0  0
  161.2560  208.7460  153.0700 C   0  0  0  0  0  0  0  0  0  0  0  0
  162.0070  209.7950  150.9370 C   0  0  2  0  0  3  0  0  0  0  0  0
  160.0690  208.9560  157.1570 C   0  0  0  0  0  2  0  0  0  0  0  0
  160.8210  210.0840  156.6220 N   0  0  0  0  0  2  0  0  0  0  0  0
  160.4590  211.0430  152.4040 C   0  0  0  0  0  2  0  0  0  0  0  0
  161.1140  208.8160  154.4790 C   0  0  0  0  0  0  0  0  0  0  0  0
  161.7280  211.3250  150.0060 S   0  0  0  0  0  0  0  0  0  0  0  0
  160.6960  207.6430  156.6880 C   0  0  0  0  0  2  0  0  0  0  0  0
  161.2590  207.4860  152.4380 C   0  0  0  0  0  0  0  0  0  0  0  0
  160.8280  206.4340  154.5440 N   0  0  0  0  0  0  0  0  0  0  0  0
  161.9070  211.0540  154.8120 O   0  0  0  0  0  0  0  0  0  0  0  0
  161.3960  208.6130  150.1940 C   0  0  0  0  0  2  0  0  0  0  0  0
  161.4900  207.4060  151.0120 N   0  0  0  0  0  0  0  0  0  0  0  0
  160.3140  211.7470  151.0680 C   0  0  2  0  0  3  0  0  0  0  0  0
  161.3630  209.9150  152.2380 N   0  0  0  0  0  0  0  0  0  0  0  0
  161.0320  206.3400  153.2060 C   0  0  0  0  0  3  0  0  0  0  0  0
  160.7590  204.1470  150.9890 C   0  0  2  0  0  3  0  0  0  0  0  0
  160.8320  203.5400  149.5850 C   0  0  0  0  0  2  0  0  0  0  0  0
  161.9200  206.1840  150.3310 C   0  0  1  0  0  3  0  0  0  0  0  0
  161.3650  204.5280  148.5420 C   0  0  0  0  0  2  0  0  0  0  0  0
  161.9010  205.0260  151.2450 N   0  0  0  0  0  2  0  0  0  0  0  0
  161.1850  205.9690  148.9990 C   0  0  0  0  0  2  0  0  0  0  0  0
  160.7210  203.0420  152.0230 C   0  0  0  0  0  1  0  0  0  0  0  0
  160.1560  213.2540  151.2440 C   0  0  0  0  0  2  0  0  0  0  0  0
  158.9250  213.5810  151.9580 N   0  0  0  0  0  2  0  0  0  0  0  0
  156.6830  214.4330  153.3940 F   0  0  0  0  0  0  0  0  0  0  0  0
  157.6650  213.7830  151.3100 C   0  0  0  0  0  0  0  0  0  0  0  0
  156.5610  214.2080  152.0620 C   0  0  0  0  0  0  0  0  0  0  0  0
  155.1820  214.1810  150.0700 C   0  0  0  0  0  3  0  0  0  0  0  0
  156.2780  213.7540  149.3160 C   0  0  0  0  0  3  0  0  0  0  0  0
  157.5160  213.5540  149.9340 C   0  0  0  0  0  3  0  0  0  0  0  0
  155.3240  214.4070  151.4410 C   0  0  0  0  0  3  0  0  0  0  0  0
  1 10  1  0  0  0  0
  2  6  1  0  0  0  0
  3  8  1  0  0  0  0
  4 14  1  6  0  0  0
  4 17  1  0  0  0  0
  6  5  1  0  0  0  0
  8  1  2  0  0  0  0
  8  2  1  0  0  0  0
  9  4  1  0  0  0  0
  9 16  1  0  0  0  0
 10  5  1  0  0  0  0
 11  3  2  0  0  0  0
 11 18  1  0  0  0  0
 12  1  1  0  0  0  0
 13  2  2  0  0  0  0
 14 15  1  0  0  0  0
 15 11  1  0  0  0  0
 16 26  1  1  0  0  0
 16  7  1  0  0  0  0
 17  7  1  0  0  0  0
 17  3  1  0  0  0  0
 18 12  2  0  0  0  0
 19 23  1  0  0  0  0
 19 25  1  1  0  0  0
 20 19  1  0  0  0  0
 21 24  1  6  0  0  0
 21 15  1  0  0  0  0
 21 23  1  0  0  0  0
 22 24  1  0  0  0  0
 22 20  1  0  0  0  0
 26 27  1  0  0  0  0
 29 27  1  0  0  0  0
 29 30  1  0  0  0  0
 30 28  1  0  0  0  0
 31 34  1  0  0  0  0
 32 33  1  0  0  0  0
 32 31  2  0  0  0  0
 33 29  2  0  0  0  0
 34 30  2  0  0  0  0
M  END
>  <MODEL>
7

>  <REMARK>
 VINA RESULT:      -6.9      3.581      8.313
  Name = 
  4 active torsions:
  status: ('A' for Active; 'I' for Inactive)
    1  A    between atoms: N_3  and  C_13
    2  A    between atoms: N_3  and  C_17
    3  A    between atoms: C_12  and  N_28
    4  A    between atoms: C_17  and  C_29
                            x       y       z     vdW  Elec       q    Type
                         _______ _______ _______ _____ _____    ______ ____

>  <TORSDO>
F 4

$$$$
=
 OpenBabel11062407533D

 34 39  0  0  1  0  0  0  0  0999 V2000
  160.8590  207.5850  155.1680 C   0  0  0  0  0  0  0  0  0  0  0  0
  161.2860  210.0180  155.2710 C   0  0  0  0  0  0  0  0  0  0  0  0
  161.2560  208.7270  153.0570 C   0  0  0  0  0  0  0  0  0  0  0  0
  161.9980  209.8010  150.9340 C   0  0  2  0  0  3  0  0  0  0  0  0
  160.0810  208.8890  157.1490 C   0  0  0  0  0  2  0  0  0  0  0  0
  160.8290  210.0250  156.6260 N   0  0  0  0  0  2  0  0  0  0  0  0
  160.4520  211.0290  152.4190 C   0  0  0  0  0  2  0  0  0  0  0  0
  161.1190  208.7820  154.4670 C   0  0  0  0  0  0  0  0  0  0  0  0
  161.7140  211.3410  150.0210 S   0  0  0  0  0  0  0  0  0  0  0  0
  160.7100  207.5840  156.6650 C   0  0  0  0  0  2  0  0  0  0  0  0
  161.2600  207.4750  152.4110 C   0  0  0  0  0  0  0  0  0  0  0  0
  160.8370  206.3980  154.5070 N   0  0  0  0  0  0  0  0  0  0  0  0
  161.9070  211.0170  154.8230 O   0  0  0  0  0  0  0  0  0  0  0  0
  161.3880  208.6260  150.1790 C   0  0  0  0  0  2  0  0  0  0  0  0
  161.4880  207.4100  150.9840 N   0  0  0  0  0  0  0  0  0  0  0  0
  160.3020  211.7480  151.0920 C   0  0  2  0  0  3  0  0  0  0  0  0
  161.3580  209.9060  152.2380 N   0  0  0  0  0  0  0  0  0  0  0  0
  161.0380  206.3190  153.1680 C   0  0  0  0  0  3  0  0  0  0  0  0
  160.8150  204.1390  150.9790 C   0  0  2  0  0  3  0  0  0  0  0  0
  160.8560  203.5340  149.5720 C   0  0  0  0  0  2  0  0  0  0  0  0
  161.9180  206.1970  150.2890 C   0  0  1  0  0  3  0  0  0  0  0  0
  161.3390  204.5340  148.5140 C   0  0  0  0  0  2  0  0  0  0  0  0
  161.9480  205.0380  151.2010 N   0  0  0  0  0  2  0  0  0  0  0  0
  161.1470  205.9700  148.9790 C   0  0  0  0  0  2  0  0  0  0  0  0
  160.8280  203.0320  152.0110 C   0  0  0  0  0  1  0  0  0  0  0  0
  160.1400  213.2530  151.2850 C   0  0  0  0  0  2  0  0  0  0  0  0
  160.0720  213.9500  150.0040 N   0  0  0  0  0  2  0  0  0  0  0  0
  160.7260  213.2500  147.3780 F   0  0  0  0  0  0  0  0  0  0  0  0
  159.0540  213.7120  149.0270 C   0  0  0  0  0  0  0  0  0  0  0  0
  159.4180  213.3660  147.7190 C   0  0  0  0  0  0  0  0  0  0  0  0
  157.0810  213.2470  147.0900 C   0  0  0  0  0  3  0  0  0  0  0  0
  156.7120  213.5950  148.3910 C   0  0  0  0  0  3  0  0  0  0  0  0
  157.6950  213.8290  149.3580 C   0  0  0  0  0  3  0  0  0  0  0  0
  158.4330  213.1340  146.7540 C   0  0  0  0  0  3  0  0  0  0  0  0
  1 10  1  0  0  0  0
  2  6  1  0  0  0  0
  3  8  1  0  0  0  0
  4 14  1  6  0  0  0
  4 17  1  0  0  0  0
  6  5  1  0  0  0  0
  8  1  2  0  0  0  0
  8  2  1  0  0  0  0
  9  4  1  0  0  0  0
  9 16  1  0  0  0  0
 10  5  1  0  0  0  0
 11  3  2  0  0  0  0
 11 18  1  0  0  0  0
 12  1  1  0  0  0  0
 13  2  2  0  0  0  0
 14 15  1  0  0  0  0
 15 11  1  0  0  0  0
 16 26  1  1  0  0  0
 16  7  1  0  0  0  0
 17  7  1  0  0  0  0
 17  3  1  0  0  0  0
 18 12  2  0  0  0  0
 19 23  1  0  0  0  0
 19 25  1  1  0  0  0
 20 19  1  0  0  0  0
 21 24  1  6  0  0  0
 21 15  1  0  0  0  0
 21 23  1  0  0  0  0
 22 24  1  0  0  0  0
 22 20  1  0  0  0  0
 27 26  1  0  0  0  0
 28 30  1  0  0  0  0
 29 33  1  0  0  0  0
 29 27  1  0  0  0  0
 30 29  2  0  0  0  0
 31 32  1  0  0  0  0
 32 33  2  0  0  0  0
 34 31  2  0  0  0  0
 34 30  1  0  0  0  0
M  END
>  <MODEL>
8

>  <REMARK>
 VINA RESULT:      -6.8      2.840      7.804
  Name = 
  4 active torsions:
  status: ('A' for Active; 'I' for Inactive)
    1  A    between atoms: N_3  and  C_13
    2  A    between atoms: N_3  and  C_17
    3  A    between atoms: C_12  and  N_28
    4  A    between atoms: C_17  and  C_29
                            x       y       z     vdW  Elec       q    Type
                         _______ _______ _______ _____ _____    ______ ____

>  <TORSDO>
F 4

$$$$
=
 OpenBabel11062407533D

 34 39  0  0  1  0  0  0  0  0999 V2000
  160.8310  207.4860  154.3910 C   0  0  0  0  0  0  0  0  0  0  0  0
  160.9970  209.9100  154.8540 C   0  0  0  0  0  0  0  0  0  0  0  0
  161.2240  208.9490  152.4880 C   0  0  0  0  0  0  0  0  0  0  0  0
  161.9680  210.3800  150.5870 C   0  0  2  0  0  3  0  0  0  0  0  0
  159.8120  208.4160  156.4730 C   0  0  0  0  0  2  0  0  0  0  0  0
  160.4660  209.6810  156.1610 N   0  0  0  0  0  2  0  0  0  0  0  0
  160.2220  211.2320  152.1140 C   0  0  0  0  0  2  0  0  0  0  0  0
  161.0030  208.7900  153.8800 C   0  0  0  0  0  0  0  0  0  0  0  0
  161.5760  211.9990  149.8740 S   0  0  0  0  0  0  0  0  0  0  0  0
  160.5990  207.2590  155.8610 C   0  0  0  0  0  2  0  0  0  0  0  0
  161.3940  207.8070  151.6800 C   0  0  0  0  0  0  0  0  0  0  0  0
  160.9700  206.4090  153.5760 N   0  0  0  0  0  0  0  0  0  0  0  0
  161.5340  211.0170  154.5890 O   0  0  0  0  0  0  0  0  0  0  0  0
  161.5270  209.2710  149.6390 C   0  0  0  0  0  2  0  0  0  0  0  0
  161.7070  207.9680  150.2770 N   0  0  0  0  0  0  0  0  0  0  0  0
  160.0720  212.1140  150.8890 C   0  0  2  0  0  3  0  0  0  0  0  0
  161.2480  210.2370  151.8450 N   0  0  0  0  0  0  0  0  0  0  0  0
  161.2520  206.5400  152.2560 C   0  0  0  0  0  3  0  0  0  0  0  0
  160.9190  204.9340  149.1250 C   0  0  2  0  0  3  0  0  0  0  0  0
  161.4380  204.6940  147.7040 C   0  0  0  0  0  2  0  0  0  0  0  0
  162.2990  206.9130  149.4550 C   0  0  1  0  0  3  0  0  0  0  0  0
  162.3220  205.8390  147.1970 C   0  0  0  0  0  2  0  0  0  0  0  0
  161.9370  205.5740  149.9580 N   0  0  0  0  0  2  0  0  0  0  0  0
  162.0470  207.1300  147.9550 C   0  0  0  0  0  2  0  0  0  0  0  0
  160.5000  203.6190  149.7460 C   0  0  0  0  0  1  0  0  0  0  0  0
  159.7440  213.5540  151.2730 C   0  0  0  0  0  2  0  0  0  0  0  0
  158.9980  213.6150  152.5260 N   0  0  0  0  0  2  0  0  0  0  0  0
  157.5790  213.0530  154.8670 F   0  0  0  0  0  0  0  0  0  0  0  0
  157.5820  213.8020  152.5940 C   0  0  0  0  0  0  0  0  0  0  0  0
  156.9010  213.5070  153.7830 C   0  0  0  0  0  0  0  0  0  0  0  0
  154.8040  214.1520  152.7550 C   0  0  0  0  0  3  0  0  0  0  0  0
  155.4760  214.4440  151.5660 C   0  0  0  0  0  3  0  0  0  0  0  0
  156.8600  214.2680  151.4840 C   0  0  0  0  0  3  0  0  0  0  0  0
  155.5160  213.6830  153.8620 C   0  0  0  0  0  3  0  0  0  0  0  0
  1 10  1  0  0  0  0
  2  6  1  0  0  0  0
  3  8  2  0  0  0  0
  4 14  1  6  0  0  0
  4 17  1  0  0  0  0
  6  5  1  0  0  0  0
  8  1  1  0  0  0  0
  8  2  1  0  0  0  0
  9  4  1  0  0  0  0
  9 16  1  0  0  0  0
 10  5  1  0  0  0  0
 11 18  2  0  0  0  0
 11  3  1  0  0  0  0
 12  1  2  0  0  0  0
 13  2  2  0  0  0  0
 14 15  1  0  0  0  0
 15 11  1  0  0  0  0
 16 26  1  1  0  0  0
 16  7  1  0  0  0  0
 17  7  1  0  0  0  0
 17  3  1  0  0  0  0
 18 12  1  0  0  0  0
 19 25  1  1  0  0  0
 19 23  1  0  0  0  0
 20 19  1  0  0  0  0
 21 24  1  6  0  0  0
 21 23  1  0  0  0  0
 21 15  1  0  0  0  0
 22 20  1  0  0  0  0
 22 24  1  0  0  0  0
 26 27  1  0  0  0  0
 27 29  1  0  0  0  0
 29 30  1  0  0  0  0
 30 34  2  0  0  0  0
 30 28  1  0  0  0  0
 31 34  1  0  0  0  0
 32 31  2  0  0  0  0
 33 32  1  0  0  0  0
 33 29  2  0  0  0  0
M  END
>  <MODEL>
9

>  <REMARK>
 VINA RESULT:      -6.5      3.531      8.518
  Name = 
  4 active torsions:
  status: ('A' for Active; 'I' for Inactive)
    1  A    between atoms: N_3  and  C_13
    2  A    between atoms: N_3  and  C_17
    3  A    between atoms: C_12  and  N_28
    4  A    between atoms: C_17  and  C_29
                            x       y       z     vdW  Elec       q    Type
                         _______ _______ _______ _____ _____    ______ ____

>  <TORSDO>
F 4

$$$$
