=
 OpenBabel11052423203D

 27 30  0  0  1  0  0  0  0  0999 V2000
  160.8870  210.3080  152.8180 C   0  0  0  0  0  2  0  0  0  0  0  0
  160.1550  211.7270  154.7960 C   0  0  2  0  0  3  0  0  0  0  0  0
  160.0570  209.4310  155.6680 C   0  0  0  0  0  2  0  0  0  0  0  0
  160.9090  206.1660  153.9710 C   0  0  0  0  0  3  0  0  0  0  0  0
  161.2140  206.5580  152.6680 C   0  0  0  0  0  0  0  0  0  0  0  0
  159.7730  211.1660  153.3990 C   0  0  1  0  0  3  0  0  0  0  0  0
  160.8150  208.8790  153.2600 C   0  0  0  0  0  0  0  0  0  0  0  0
  160.7400  210.7360  155.7160 N   0  0  1  0  0  0  0  0  0  0  0  0
  160.5610  207.1260  154.9230 C   0  0  0  0  0  3  0  0  0  0  0  0
  161.6560  205.3580  151.4730 Cl  0  0  0  0  0  0  0  0  0  0  0  0
  161.1740  207.9090  152.3190 C   0  0  0  0  0  3  0  0  0  0  0  0
  160.5260  208.4840  154.5900 C   0  0  0  0  0  0  0  0  0  0  0  0
  160.0180  213.6650  150.5340 C   0  0  0  0  0  3  0  0  0  0  0  0
  159.4400  212.2520  152.4230 C   0  0  0  0  0  0  0  0  0  0  0  0
  158.1790  212.8560  152.4810 C   0  0  0  0  0  3  0  0  0  0  0  0
  157.8400  213.8650  151.5740 C   0  0  0  0  0  3  0  0  0  0  0  0
  158.7600  214.2700  150.6030 C   0  0  0  0  0  3  0  0  0  0  0  0
  160.3580  212.6570  151.4410 C   0  0  0  0  0  3  0  0  0  0  0  0
  162.8800  211.4440  156.6430 C   0  0  0  0  0  2  0  0  0  0  0  0
  162.7960  209.9390  156.7550 C   0  0  0  0  0  2  0  0  0  0  0  0
  162.1910  210.6430  155.5530 C   0  0  0  0  0  3  0  0  0  0  0  0
  159.0180  212.4720  155.5190 C   0  0  2  0  0  3  0  0  0  0  0  0
  159.5030  213.4360  156.5960 C   0  0  0  0  0  1  0  0  0  0  0  0
  157.7620  211.3490  157.2260 O   0  0  0  0  0  0  0  0  0  0  0  0
  157.9210  211.5580  155.9950 C   0  0  0  0  0  0  0  0  0  0  0  0
  155.7080  210.6600  155.3680 C   0  0  0  0  0  1  0  0  0  0  0  0
  157.0770  210.9100  155.0890 O   0  0  0  0  0  0  0  0  0  0  0  0
  1  7  1  0  0  0  0
  1  6  1  0  0  0  0
  2 22  1  1  0  0  0
  2  8  1  0  0  0  0
  3  8  1  0  0  0  0
  4  9  1  0  0  0  0
  5  4  2  0  0  0  0
  6 14  1  6  0  0  0
  6  2  1  0  0  0  0
  7 12  1  0  0  0  0
  8 21  1  6  0  0  0
 10  5  1  0  0  0  0
 11  5  1  0  0  0  0
 11  7  2  0  0  0  0
 12  9  2  0  0  0  0
 12  3  1  0  0  0  0
 13 17  2  0  0  0  0
 13 18  1  0  0  0  0
 14 15  1  0  0  0  0
 16 15  2  0  0  0  0
 17 16  1  0  0  0  0
 18 14  2  0  0  0  0
 19 20  1  0  0  0  0
 21 19  1  0  0  0  0
 21 20  1  0  0  0  0
 22 25  1  0  0  0  0
 22 23  1  1  0  0  0
 25 24  2  0  0  0  0
 27 26  1  0  0  0  0
 27 25  1  0  0  0  0
M  END
>  <MODEL>
1

>  <REMARK>
 VINA RESULT:      -5.6      0.000      0.000
  Name = 
  5 active torsions:
  status: ('A' for Active; 'I' for Inactive)
    1  A    between atoms: C_2  and  C_6
    2  A    between atoms: C_6  and  C_17
    3  A    between atoms: C_9  and  C_15
    4  A    between atoms: C_14  and  N_19
    5  A    between atoms: O_16  and  C_17
                            x       y       z     vdW  Elec       q    Type
                         _______ _______ _______ _____ _____    ______ ____

>  <TORSDO>
F 5

$$$$
=
 OpenBabel11052423203D

 27 30  0  0  1  0  0  0  0  0999 V2000
  160.7620  210.0560  153.0320 C   0  0  0  0  0  2  0  0  0  0  0  0
  159.9560  211.0490  155.2290 C   0  0  2  0  0  3  0  0  0  0  0  0
  160.0660  208.6370  155.6930 C   0  0  0  0  0  2  0  0  0  0  0  0
  161.1490  205.7950  153.4530 C   0  0  0  0  0  3  0  0  0  0  0  0
  161.3940  206.4290  152.2350 C   0  0  0  0  0  0  0  0  0  0  0  0
  159.5940  210.7050  153.7590 C   0  0  1  0  0  3  0  0  0  0  0  0
  160.8170  208.5720  153.2210 C   0  0  0  0  0  0  0  0  0  0  0  0
  160.6400  209.9680  155.9610 N   0  0  1  0  0  0  0  0  0  0  0  0
  160.7440  206.5450  154.5580 C   0  0  0  0  0  3  0  0  0  0  0  0
  161.9090  205.4930  150.8490 Cl  0  0  0  0  0  0  0  0  0  0  0  0
  161.2350  207.8110  152.1240 C   0  0  0  0  0  3  0  0  0  0  0  0
  160.5900  207.9320  154.4650 C   0  0  0  0  0  0  0  0  0  0  0  0
  157.4220  213.4530  152.2610 C   0  0  0  0  0  3  0  0  0  0  0  0
  159.1510  211.9100  152.9870 C   0  0  0  0  0  0  0  0  0  0  0  0
  160.1030  212.6530  152.2790 C   0  0  0  0  0  3  0  0  0  0  0  0
  159.7160  213.7860  151.5590 C   0  0  0  0  0  3  0  0  0  0  0  0
  158.3760  214.1850  151.5490 C   0  0  0  0  0  3  0  0  0  0  0  0
  157.8070  212.3180  152.9800 C   0  0  0  0  0  3  0  0  0  0  0  0
  162.6700  211.1420  156.6270 C   0  0  0  0  0  2  0  0  0  0  0  0
  162.7880  209.7070  157.0850 C   0  0  0  0  0  2  0  0  0  0  0  0
  162.0910  210.0280  155.7750 C   0  0  0  0  0  3  0  0  0  0  0  0
  158.7780  211.5590  156.0770 C   0  0  2  0  0  3  0  0  0  0  0  0
  157.4340  210.9520  155.6880 C   0  0  0  0  0  1  0  0  0  0  0  0
  159.7410  213.7460  155.8670 O   0  0  0  0  0  0  0  0  0  0  0  0
  158.7360  213.0590  156.1910 C   0  0  0  0  0  0  0  0  0  0  0  0
  156.7290  214.4530  155.8360 C   0  0  0  0  0  1  0  0  0  0  0  0
  157.6030  213.7150  156.6770 O   0  0  0  0  0  0  0  0  0  0  0  0
  1  7  1  0  0  0  0
  1  6  1  0  0  0  0
  2  8  1  0  0  0  0
  2 22  1  1  0  0  0
  3  8  1  0  0  0  0
  4  9  1  0  0  0  0
  5  4  2  0  0  0  0
  6 14  1  6  0  0  0
  6  2  1  0  0  0  0
  7 12  1  0  0  0  0
  8 21  1  6  0  0  0
 10  5  1  0  0  0  0
 11  5  1  0  0  0  0
 11  7  2  0  0  0  0
 12  9  2  0  0  0  0
 12  3  1  0  0  0  0
 13 18  1  0  0  0  0
 15 14  1  0  0  0  0
 16 15  2  0  0  0  0
 17 16  1  0  0  0  0
 17 13  2  0  0  0  0
 18 14  2  0  0  0  0
 19 20  1  0  0  0  0
 21 19  1  0  0  0  0
 21 20  1  0  0  0  0
 22 23  1  6  0  0  0
 22 25  1  0  0  0  0
 24 25  2  0  0  0  0
 25 27  1  0  0  0  0
 26 27  1  0  0  0  0
M  END
>  <MODEL>
2

>  <REMARK>
 VINA RESULT:      -5.6      1.195      1.787
  Name = 
  5 active torsions:
  status: ('A' for Active; 'I' for Inactive)
    1  A    between atoms: C_2  and  C_6
    2  A    between atoms: C_6  and  C_17
    3  A    between atoms: C_9  and  C_15
    4  A    between atoms: C_14  and  N_19
    5  A    between atoms: O_16  and  C_17
                            x       y       z     vdW  Elec       q    Type
                         _______ _______ _______ _____ _____    ______ ____

>  <TORSDO>
F 5

$$$$
=
 OpenBabel11052423203D

 27 30  0  0  1  0  0  0  0  0999 V2000
  161.3100  210.2020  152.6910 C   0  0  0  0  0  2  0  0  0  0  0  0
  160.4630  211.6270  154.6190 C   0  0  2  0  0  3  0  0  0  0  0  0
  160.1390  209.3240  155.4190 C   0  0  0  0  0  2  0  0  0  0  0  0
  160.9660  206.0460  153.7360 C   0  0  0  0  0  3  0  0  0  0  0  0
  161.4270  206.4430  152.4810 C   0  0  0  0  0  0  0  0  0  0  0  0
  160.1960  211.1170  153.1770 C   0  0  1  0  0  3  0  0  0  0  0  0
  161.1080  208.7730  153.0880 C   0  0  0  0  0  0  0  0  0  0  0  0
  160.8900  210.5840  155.5690 N   0  0  1  0  0  0  0  0  0  0  0  0
  160.5800  207.0070  154.6710 C   0  0  0  0  0  3  0  0  0  0  0  0
  161.9180  205.2410  151.3080 Cl  0  0  0  0  0  0  0  0  0  0  0  0
  161.5030  207.8000  152.1630 C   0  0  0  0  0  3  0  0  0  0  0  0
  160.6600  208.3710  154.3710 C   0  0  0  0  0  0  0  0  0  0  0  0
  159.1790  214.4360  151.6090 C   0  0  0  0  0  3  0  0  0  0  0  0
  160.0300  212.2400  152.2000 C   0  0  0  0  0  0  0  0  0  0  0  0
  160.6250  212.1380  150.9370 C   0  0  0  0  0  3  0  0  0  0  0  0
  160.4930  213.1770  150.0120 C   0  0  0  0  0  3  0  0  0  0  0  0
  159.7680  214.3240  150.3470 C   0  0  0  0  0  3  0  0  0  0  0  0
  159.3090  213.3970  152.5360 C   0  0  0  0  0  3  0  0  0  0  0  0
  162.9840  211.3310  156.5690 C   0  0  0  0  0  2  0  0  0  0  0  0
  162.8070  209.8650  156.8940 C   0  0  0  0  0  2  0  0  0  0  0  0
  162.3420  210.4050  155.5530 C   0  0  0  0  0  3  0  0  0  0  0  0
  159.3050  212.4260  155.2410 C   0  0  2  0  0  3  0  0  0  0  0  0
  159.7010  213.2180  156.4830 C   0  0  0  0  0  1  0  0  0  0  0  0
  157.4650  211.1100  154.4440 O   0  0  0  0  0  0  0  0  0  0  0  0
  158.0580  211.6060  155.4370 C   0  0  0  0  0  0  0  0  0  0  0  0
  156.2690  211.9290  157.1080 C   0  0  0  0  0  1  0  0  0  0  0  0
  157.5240  211.3980  156.7120 O   0  0  0  0  0  0  0  0  0  0  0  0
  1  7  1  0  0  0  0
  1  6  1  0  0  0  0
  2 22  1  1  0  0  0
  2  8  1  0  0  0  0
  3  8  1  0  0  0  0
  4  9  1  0  0  0  0
  5  4  2  0  0  0  0
  6 14  1  6  0  0  0
  6  2  1  0  0  0  0
  7 12  1  0  0  0  0
  8 21  1  6  0  0  0
 10  5  1  0  0  0  0
 11  5  1  0  0  0  0
 11  7  2  0  0  0  0
 12  9  2  0  0  0  0
 12  3  1  0  0  0  0
 13 18  1  0  0  0  0
 14 18  2  0  0  0  0
 15 14  1  0  0  0  0
 16 17  1  0  0  0  0
 16 15  2  0  0  0  0
 17 13  2  0  0  0  0
 19 20  1  0  0  0  0
 21 19  1  0  0  0  0
 21 20  1  0  0  0  0
 22 25  1  0  0  0  0
 22 23  1  1  0  0  0
 24 25  2  0  0  0  0
 25 27  1  0  0  0  0
 27 26  1  0  0  0  0
M  END
>  <MODEL>
3

>  <REMARK>
 VINA RESULT:      -5.3      0.729      1.272
  Name = 
  5 active torsions:
  status: ('A' for Active; 'I' for Inactive)
    1  A    between atoms: C_2  and  C_6
    2  A    between atoms: C_6  and  C_17
    3  A    between atoms: C_9  and  C_15
    4  A    between atoms: C_14  and  N_19
    5  A    between atoms: O_16  and  C_17
                            x       y       z     vdW  Elec       q    Type
                         _______ _______ _______ _____ _____    ______ ____

>  <TORSDO>
F 5

$$$$
=
 OpenBabel11052423203D

 27 30  0  0  1  0  0  0  0  0999 V2000
  159.0130  212.9060  140.5570 C   0  0  0  0  0  2  0  0  0  0  0  0
  161.2620  212.1180  139.6710 C   0  0  2  0  0  3  0  0  0  0  0  0
  159.6430  211.0750  138.1420 C   0  0  0  0  0  2  0  0  0  0  0  0
  155.8750  211.3250  138.0790 C   0  0  0  0  0  3  0  0  0  0  0  0
  155.5910  212.0930  139.2080 C   0  0  0  0  0  0  0  0  0  0  0  0
  160.2050  211.9940  140.8030 C   0  0  1  0  0  3  0  0  0  0  0  0
  157.9630  212.2760  139.6950 C   0  0  0  0  0  0  0  0  0  0  0  0
  160.7060  212.0830  138.3070 N   0  0  1  0  0  0  0  0  0  0  0  0
  157.2000  211.0350  137.7500 C   0  0  0  0  0  3  0  0  0  0  0  0
  153.9310  212.4630  139.6200 Cl  0  0  0  0  0  0  0  0  0  0  0  0
  156.6310  212.5700  140.0070 C   0  0  0  0  0  3  0  0  0  0  0  0
  158.2540  211.5160  138.5350 C   0  0  0  0  0  0  0  0  0  0  0  0
  162.6360  212.9620  143.5720 C   0  0  0  0  0  3  0  0  0  0  0  0
  160.7800  212.3020  142.1520 C   0  0  0  0  0  0  0  0  0  0  0  0
  159.9490  212.2420  143.2760 C   0  0  0  0  0  3  0  0  0  0  0  0
  160.4590  212.5340  144.5440 C   0  0  0  0  0  3  0  0  0  0  0  0
  161.8030  212.8920  144.6920 C   0  0  0  0  0  3  0  0  0  0  0  0
  162.1270  212.6690  142.3030 C   0  0  0  0  0  3  0  0  0  0  0  0
  161.2570  214.4530  138.4460 C   0  0  0  0  0  2  0  0  0  0  0  0
  161.4360  214.0150  137.0110 C   0  0  0  0  0  2  0  0  0  0  0  0
  160.3200  213.4190  137.8510 C   0  0  0  0  0  3  0  0  0  0  0  0
  162.4210  211.1090  139.7650 C   0  0  2  0  0  3  0  0  0  0  0  0
  163.6610  211.5250  138.9820 C   0  0  0  0  0  1  0  0  0  0  0  0
  161.5440  208.9750  140.4190 O   0  0  0  0  0  0  0  0  0  0  0  0
  161.9960  209.6930  139.4890 C   0  0  0  0  0  0  0  0  0  0  0  0
  161.5970  207.8580  137.8840 C   0  0  0  0  0  1  0  0  0  0  0  0
  162.1140  209.1390  138.2110 O   0  0  0  0  0  0  0  0  0  0  0  0
  1  6  1  0  0  0  0
  2 22  1  6  0  0  0
  2  6  1  0  0  0  0
  3  8  1  0  0  0  0
  3 12  1  0  0  0  0
  4  5  1  0  0  0  0
  5 10  1  0  0  0  0
  5 11  2  0  0  0  0
  6 14  1  1  0  0  0
  7 11  1  0  0  0  0
  7  1  1  0  0  0  0
  8 21  1  1  0  0  0
  8  2  1  0  0  0  0
  9  4  2  0  0  0  0
  9 12  1  0  0  0  0
 12  7  2  0  0  0  0
 13 17  1  0  0  0  0
 14 18  1  0  0  0  0
 14 15  2  0  0  0  0
 15 16  1  0  0  0  0
 16 17  2  0  0  0  0
 18 13  2  0  0  0  0
 20 21  1  0  0  0  0
 20 19  1  0  0  0  0
 21 19  1  0  0  0  0
 22 23  1  6  0  0  0
 25 22  1  0  0  0  0
 25 24  2  0  0  0  0
 26 27  1  0  0  0  0
 27 25  1  0  0  0  0
M  END
>  <MODEL>
4

>  <REMARK>
 VINA RESULT:      -4.3     12.055     15.302
  Name = 
  5 active torsions:
  status: ('A' for Active; 'I' for Inactive)
    1  A    between atoms: C_2  and  C_6
    2  A    between atoms: C_6  and  C_17
    3  A    between atoms: C_9  and  C_15
    4  A    between atoms: C_14  and  N_19
    5  A    between atoms: O_16  and  C_17
                            x       y       z     vdW  Elec       q    Type
                         _______ _______ _______ _____ _____    ______ ____

>  <TORSDO>
F 5

$$$$
=
 OpenBabel11052423203D

 27 30  0  0  1  0  0  0  0  0999 V2000
  160.4530  208.4810  152.5750 C   0  0  0  0  0  2  0  0  0  0  0  0
  160.6620  210.6010  153.9630 C   0  0  2  0  0  3  0  0  0  0  0  0
  161.8330  211.1630  151.8760 C   0  0  0  0  0  2  0  0  0  0  0  0
  162.3510  209.0850  148.7650 C   0  0  0  0  0  3  0  0  0  0  0  0
  161.7900  207.8560  149.1090 C   0  0  0  0  0  0  0  0  0  0  0  0
  161.1250  209.1310  153.7760 C   0  0  1  0  0  3  0  0  0  0  0  0
  161.1830  208.7310  151.2910 C   0  0  0  0  0  0  0  0  0  0  0  0
  160.6550  211.4040  152.7280 N   0  0  1  0  0  0  0  0  0  0  0  0
  162.3260  210.1420  149.6760 C   0  0  0  0  0  3  0  0  0  0  0  0
  161.8140  206.5310  147.9660 Cl  0  0  0  0  0  0  0  0  0  0  0  0
  161.2040  207.6840  150.3640 C   0  0  0  0  0  3  0  0  0  0  0  0
  161.7320  209.9870  150.9340 C   0  0  0  0  0  0  0  0  0  0  0  0
  161.5760  207.3180  157.0960 C   0  0  0  0  0  3  0  0  0  0  0  0
  160.8620  208.2930  154.9900 C   0  0  0  0  0  0  0  0  0  0  0  0
  159.5960  207.7200  155.1600 C   0  0  0  0  0  3  0  0  0  0  0  0
  159.3230  206.9430  156.2890 C   0  0  0  0  0  3  0  0  0  0  0  0
  160.3130  206.7400  157.2560 C   0  0  0  0  0  3  0  0  0  0  0  0
  161.8510  208.0940  155.9660 C   0  0  0  0  0  3  0  0  0  0  0  0
  158.2320  211.4440  152.9900 C   0  0  0  0  0  2  0  0  0  0  0  0
  158.6240  212.5930  152.0900 C   0  0  0  0  0  2  0  0  0  0  0  0
  159.3830  211.2800  152.0150 C   0  0  0  0  0  3  0  0  0  0  0  0
  161.4170  211.3750  155.0590 C   0  0  2  0  0  3  0  0  0  0  0  0
  162.7100  210.7010  155.5070 C   0  0  0  0  0  1  0  0  0  0  0  0
  160.0470  210.9120  156.9720 O   0  0  0  0  0  0  0  0  0  0  0  0
  160.5370  211.7850  156.2080 C   0  0  0  0  0  0  0  0  0  0  0  0
  159.2470  213.8240  155.6830 C   0  0  0  0  0  1  0  0  0  0  0  0
  160.2270  213.1280  156.4370 O   0  0  0  0  0  0  0  0  0  0  0  0
  1  6  1  0  0  0  0
  2 22  1  1  0  0  0
  3  8  1  0  0  0  0
  4  5  2  0  0  0  0
  4  9  1  0  0  0  0
  5 11  1  0  0  0  0
  6  2  1  0  0  0  0
  6 14  1  1  0  0  0
  7  1  1  0  0  0  0
  8 21  1  6  0  0  0
  8  2  1  0  0  0  0
  9 12  2  0  0  0  0
 10  5  1  0  0  0  0
 11  7  2  0  0  0  0
 12  7  1  0  0  0  0
 12  3  1  0  0  0  0
 13 17  1  0  0  0  0
 14 15  2  0  0  0  0
 14 18  1  0  0  0  0
 15 16  1  0  0  0  0
 16 17  2  0  0  0  0
 18 13  2  0  0  0  0
 20 19  1  0  0  0  0
 21 20  1  0  0  0  0
 21 19  1  0  0  0  0
 22 23  1  1  0  0  0
 22 25  1  0  0  0  0
 25 27  1  0  0  0  0
 25 24  2  0  0  0  0
 26 27  1  0  0  0  0
M  END
>  <MODEL>
5

>  <REMARK>
 VINA RESULT:      -4.0      2.112      5.154
  Name = 
  5 active torsions:
  status: ('A' for Active; 'I' for Inactive)
    1  A    between atoms: C_2  and  C_6
    2  A    between atoms: C_6  and  C_17
    3  A    between atoms: C_9  and  C_15
    4  A    between atoms: C_14  and  N_19
    5  A    between atoms: O_16  and  C_17
                            x       y       z     vdW  Elec       q    Type
                         _______ _______ _______ _____ _____    ______ ____

>  <TORSDO>
F 5

$$$$
=
 OpenBabel11052423203D

 27 30  0  0  1  0  0  0  0  0999 V2000
  158.2790  211.9920  139.9000 C   0  0  0  0  0  2  0  0  0  0  0  0
  160.7270  212.6260  139.6320 C   0  0  2  0  0  3  0  0  0  0  0  0
  160.4110  210.8360  137.9760 C   0  0  0  0  0  2  0  0  0  0  0  0
  157.2980  208.8860  137.0950 C   0  0  0  0  0  3  0  0  0  0  0  0
  156.3590  209.3600  138.0100 C   0  0  0  0  0  0  0  0  0  0  0  0
  159.6660  211.9280  140.5240 C   0  0  1  0  0  3  0  0  0  0  0  0
  158.0160  210.8700  138.9450 C   0  0  0  0  0  0  0  0  0  0  0  0
  160.6560  212.2720  138.2030 N   0  0  1  0  0  0  0  0  0  0  0  0
  158.5950  209.4040  137.0960 C   0  0  0  0  0  3  0  0  0  0  0  0
  154.7320  208.7170  138.0070 Cl  0  0  0  0  0  0  0  0  0  0  0  0
  156.7160  210.3510  138.9250 C   0  0  0  0  0  3  0  0  0  0  0  0
  158.9640  210.4050  138.0010 C   0  0  0  0  0  0  0  0  0  0  0  0
  159.3650  214.4190  143.3900 C   0  0  0  0  0  3  0  0  0  0  0  0
  159.6050  212.5170  141.9010 C   0  0  0  0  0  0  0  0  0  0  0  0
  159.7030  211.6680  143.0090 C   0  0  0  0  0  3  0  0  0  0  0  0
  159.6390  212.1930  144.3030 C   0  0  0  0  0  3  0  0  0  0  0  0
  159.4720  213.5680  144.4940 C   0  0  0  0  0  3  0  0  0  0  0  0
  159.4300  213.8960  142.0960 C   0  0  0  0  0  3  0  0  0  0  0  0
  159.5690  214.4530  138.2300 C   0  0  0  0  0  2  0  0  0  0  0  0
  160.4610  214.3900  137.0110 C   0  0  0  0  0  2  0  0  0  0  0  0
  159.7300  213.1440  137.4790 C   0  0  0  0  0  3  0  0  0  0  0  0
  162.1780  212.4620  140.1160 C   0  0  2  0  0  3  0  0  0  0  0  0
  162.3470  211.4110  141.2080 C   0  0  0  0  0  1  0  0  0  0  0  0
  162.5920  214.3460  141.5420 O   0  0  0  0  0  0  0  0  0  0  0  0
  162.8420  213.7700  140.4500 C   0  0  0  0  0  0  0  0  0  0  0  0
  164.7450  213.6620  138.8790 C   0  0  0  0  0  1  0  0  0  0  0  0
  163.7250  214.3810  139.5550 O   0  0  0  0  0  0  0  0  0  0  0  0
  1  6  1  0  0  0  0
  2 22  1  1  0  0  0
  2  6  1  0  0  0  0
  3 12  1  0  0  0  0
  3  8  1  0  0  0  0
  4  9  2  0  0  0  0
  4  5  1  0  0  0  0
  5 11  2  0  0  0  0
  6 14  1  1  0  0  0
  7  1  1  0  0  0  0
  8 21  1  1  0  0  0
  8  2  1  0  0  0  0
  9 12  1  0  0  0  0
 10  5  1  0  0  0  0
 11  7  1  0  0  0  0
 12  7  2  0  0  0  0
 13 17  1  0  0  0  0
 14 18  1  0  0  0  0
 14 15  2  0  0  0  0
 15 16  1  0  0  0  0
 16 17  2  0  0  0  0
 18 13  2  0  0  0  0
 20 21  1  0  0  0  0
 20 19  1  0  0  0  0
 21 19  1  0  0  0  0
 22 25  1  0  0  0  0
 22 23  1  1  0  0  0
 25 24  2  0  0  0  0
 26 27  1  0  0  0  0
 27 25  1  0  0  0  0
M  END
>  <MODEL>
6

>  <REMARK>
 VINA RESULT:      -3.8     12.137     15.254
  Name = 
  5 active torsions:
  status: ('A' for Active; 'I' for Inactive)
    1  A    between atoms: C_2  and  C_6
    2  A    between atoms: C_6  and  C_17
    3  A    between atoms: C_9  and  C_15
    4  A    between atoms: C_14  and  N_19
    5  A    between atoms: O_16  and  C_17
                            x       y       z     vdW  Elec       q    Type
                         _______ _______ _______ _____ _____    ______ ____

>  <TORSDO>
F 5

$$$$
=
 OpenBabel11052423203D

 27 30  0  0  1  0  0  0  0  0999 V2000
  158.2010  212.9700  140.3920 C   0  0  0  0  0  2  0  0  0  0  0  0
  160.4770  212.2450  139.5210 C   0  0  2  0  0  3  0  0  0  0  0  0
  158.8990  210.9260  138.1740 C   0  0  0  0  0  2  0  0  0  0  0  0
  155.1220  210.9040  138.2160 C   0  0  0  0  0  3  0  0  0  0  0  0
  154.8120  211.7720  139.2620 C   0  0  0  0  0  0  0  0  0  0  0  0
  159.4630  212.1770  140.6960 C   0  0  1  0  0  3  0  0  0  0  0  0
  157.1770  212.1740  139.6430 C   0  0  0  0  0  0  0  0  0  0  0  0
  159.8880  212.0190  138.1890 N   0  0  1  0  0  0  0  0  0  0  0  0
  156.4550  210.6720  137.8750 C   0  0  0  0  0  3  0  0  0  0  0  0
  153.1420  212.0700  139.6880 Cl  0  0  0  0  0  0  0  0  0  0  0  0
  155.8360  212.4080  139.9660 C   0  0  0  0  0  3  0  0  0  0  0  0
  157.4920  211.3100  138.5650 C   0  0  0  0  0  0  0  0  0  0  0  0
  160.5890  212.3700  144.3300 C   0  0  0  0  0  3  0  0  0  0  0  0
  160.0500  212.6730  141.9820 C   0  0  0  0  0  0  0  0  0  0  0  0
  160.6540  213.9350  142.0120 C   0  0  0  0  0  3  0  0  0  0  0  0
  161.2170  214.4160  143.1970 C   0  0  0  0  0  3  0  0  0  0  0  0
  161.1830  213.6350  144.3560 C   0  0  0  0  0  3  0  0  0  0  0  0
  160.0250  211.8880  143.1450 C   0  0  0  0  0  3  0  0  0  0  0  0
  159.9670  214.4490  138.3580 C   0  0  0  0  0  2  0  0  0  0  0  0
  160.5540  214.0540  137.0230 C   0  0  0  0  0  2  0  0  0  0  0  0
  159.3930  213.2650  137.6020 C   0  0  0  0  0  3  0  0  0  0  0  0
  161.7080  211.3370  139.6850 C   0  0  2  0  0  3  0  0  0  0  0  0
  161.6110  210.3770  140.8650 C   0  0  0  0  0  1  0  0  0  0  0  0
  164.0710  211.5050  139.3050 O   0  0  0  0  0  0  0  0  0  0  0  0
  163.0090  212.0920  139.6450 C   0  0  0  0  0  0  0  0  0  0  0  0
  163.6410  214.4280  139.1550 C   0  0  0  0  0  1  0  0  0  0  0  0
  163.0730  213.4410  140.0020 O   0  0  0  0  0  0  0  0  0  0  0  0
  1  6  1  0  0  0  0
  2 22  1  1  0  0  0
  2  6  1  0  0  0  0
  3  8  1  0  0  0  0
  3 12  1  0  0  0  0
  4  5  1  0  0  0  0
  5 10  1  0  0  0  0
  5 11  2  0  0  0  0
  6 14  1  1  0  0  0
  7 11  1  0  0  0  0
  7  1  1  0  0  0  0
  8 21  1  1  0  0  0
  8  2  1  0  0  0  0
  9  4  2  0  0  0  0
  9 12  1  0  0  0  0
 12  7  2  0  0  0  0
 13 17  1  0  0  0  0
 14 15  2  0  0  0  0
 14 18  1  0  0  0  0
 15 16  1  0  0  0  0
 16 17  2  0  0  0  0
 18 13  2  0  0  0  0
 20 21  1  0  0  0  0
 20 19  1  0  0  0  0
 21 19  1  0  0  0  0
 22 23  1  1  0  0  0
 24 25  2  0  0  0  0
 25 22  1  0  0  0  0
 25 27  1  0  0  0  0
 26 27  1  0  0  0  0
M  END
>  <MODEL>
7

>  <REMARK>
 VINA RESULT:      -3.1     11.999     15.331
  Name = 
  5 active torsions:
  status: ('A' for Active; 'I' for Inactive)
    1  A    between atoms: C_2  and  C_6
    2  A    between atoms: C_6  and  C_17
    3  A    between atoms: C_9  and  C_15
    4  A    between atoms: C_14  and  N_19
    5  A    between atoms: O_16  and  C_17
                            x       y       z     vdW  Elec       q    Type
                         _______ _______ _______ _____ _____    ______ ____

>  <TORSDO>
F 5

$$$$
=
 OpenBabel11052423203D

 27 30  0  0  1  0  0  0  0  0999 V2000
  161.9290  209.5810  151.8650 C   0  0  0  0  0  2  0  0  0  0  0  0
  160.5650  211.3150  153.1280 C   0  0  2  0  0  3  0  0  0  0  0  0
  159.8930  209.1880  154.1630 C   0  0  0  0  0  2  0  0  0  0  0  0
  161.0730  205.6740  153.4410 C   0  0  0  0  0  3  0  0  0  0  0  0
  161.9370  205.8470  152.3590 C   0  0  0  0  0  0  0  0  0  0  0  0
  160.7590  210.5520  151.7900 C   0  0  1  0  0  3  0  0  0  0  0  0
  161.5430  208.2430  152.4140 C   0  0  0  0  0  0  0  0  0  0  0  0
  160.6100  210.4650  154.3310 N   0  0  1  0  0  0  0  0  0  0  0  0
  160.4470  206.7810  154.0150 C   0  0  0  0  0  3  0  0  0  0  0  0
  162.7280  204.4620  151.6400 Cl  0  0  0  0  0  0  0  0  0  0  0  0
  162.1740  207.1260  151.8540 C   0  0  0  0  0  3  0  0  0  0  0  0
  160.6830  208.0700  153.5270 C   0  0  0  0  0  0  0  0  0  0  0  0
  162.1610  212.1240  148.6160 C   0  0  0  0  0  3  0  0  0  0  0  0
  160.9730  211.4800  150.6330 C   0  0  0  0  0  0  0  0  0  0  0  0
  160.1250  212.5820  150.4790 C   0  0  0  0  0  3  0  0  0  0  0  0
  160.2980  213.4560  149.4020 C   0  0  0  0  0  3  0  0  0  0  0  0
  161.3170  213.2290  148.4720 C   0  0  0  0  0  3  0  0  0  0  0  0
  161.9900  211.2500  149.6930 C   0  0  0  0  0  3  0  0  0  0  0  0
  162.1760  211.1580  156.0650 C   0  0  0  0  0  2  0  0  0  0  0  0
  161.9540  209.6700  156.2040 C   0  0  0  0  0  2  0  0  0  0  0  0
  161.9780  210.3060  154.8250 C   0  0  0  0  0  3  0  0  0  0  0  0
  159.3040  212.1960  153.1850 C   0  0  2  0  0  3  0  0  0  0  0  0
  159.5790  213.6770  152.9510 C   0  0  0  0  0  1  0  0  0  0  0  0
  158.8180  212.3720  155.5270 O   0  0  0  0  0  0  0  0  0  0  0  0
  158.4570  211.9380  154.4010 C   0  0  0  0  0  0  0  0  0  0  0  0
  156.4720  210.9080  155.4490 C   0  0  0  0  0  1  0  0  0  0  0  0
  157.2730  211.2010  154.3140 O   0  0  0  0  0  0  0  0  0  0  0  0
  1  7  1  0  0  0  0
  2 22  1  6  0  0  0
  2  8  1  0  0  0  0
  3  8  1  0  0  0  0
  4  9  1  0  0  0  0
  5  4  2  0  0  0  0
  6 14  1  6  0  0  0
  6  1  1  0  0  0  0
  6  2  1  0  0  0  0
  7 12  1  0  0  0  0
  8 21  1  6  0  0  0
 10  5  1  0  0  0  0
 11  5  1  0  0  0  0
 11  7  2  0  0  0  0
 12  9  2  0  0  0  0
 12  3  1  0  0  0  0
 13 18  1  0  0  0  0
 15 14  1  0  0  0  0
 16 15  2  0  0  0  0
 17 13  2  0  0  0  0
 17 16  1  0  0  0  0
 18 14  2  0  0  0  0
 19 20  1  0  0  0  0
 21 19  1  0  0  0  0
 21 20  1  0  0  0  0
 22 23  1  1  0  0  0
 22 25  1  0  0  0  0
 25 24  2  0  0  0  0
 27 25  1  0  0  0  0
 27 26  1  0  0  0  0
M  END
>  <MODEL>
8

>  <REMARK>
 VINA RESULT:      -2.6      1.457      2.017
  Name = 
  5 active torsions:
  status: ('A' for Active; 'I' for Inactive)
    1  A    between atoms: C_2  and  C_6
    2  A    between atoms: C_6  and  C_17
    3  A    between atoms: C_9  and  C_15
    4  A    between atoms: C_14  and  N_19
    5  A    between atoms: O_16  and  C_17
                            x       y       z     vdW  Elec       q    Type
                         _______ _______ _______ _____ _____    ______ ____

>  <TORSDO>
F 5

$$$$
