=
 OpenBabel11062409293D

 34 38  0  0  1  0  0  0  0  0999 V2000
  160.9860  209.6850  153.1290 C   0  0  0  0  0  0  0  0  0  0  0  0
  159.4570  209.7370  156.5810 C   0  0  0  0  0  3  0  0  0  0  0  0
  159.9720  207.7910  155.1690 C   0  0  0  0  0  2  0  0  0  0  0  0
  161.2940  210.4190  152.1720 O   0  0  0  0  0  0  0  0  0  0  0  0
  161.8770  207.5660  151.9900 C   0  0  2  0  0  3  0  0  0  0  0  0
  162.1600  206.2020  152.6350 C   0  0  0  0  0  2  0  0  0  0  0  0
  161.1890  207.5270  154.3210 C   0  0  2  0  0  3  0  0  0  0  0  0
  161.1260  208.2440  153.0750 N   0  0  0  0  0  0  0  0  0  0  0  0
  161.2620  206.0870  153.8870 C   0  0  0  0  0  2  0  0  0  0  0  0
  159.3560  211.1870  156.8060 C   0  0  0  0  0  2  0  0  0  0  0  0
  160.6620  211.9200  156.2990 C   0  0  2  0  0  3  0  0  0  0  0  0
  159.9610  209.2650  155.4390 C   0  0  0  0  0  0  0  0  0  0  0  0
  161.2430  211.3990  154.9670 C   0  0  0  0  0  2  0  0  0  0  0  0
  160.4130  210.2670  154.3810 C   0  0  1  0  0  3  0  0  0  0  0  0
  160.9370  207.4160  150.7930 C   0  0  0  0  0  2  0  0  0  0  0  0
  160.5230  205.9790  150.6210 C   0  0  0  0  0  2  0  0  0  0  0  0
  160.7960  203.1320  149.9590 O   0  0  0  0  0  0  0  0  0  0  0  0
  161.4280  205.9180  146.9950 C   0  0  0  0  0  3  0  0  0  0  0  0
  161.1870  201.8970  145.7670 C   0  0  2  0  0  3  0  0  0  0  0  0
  160.8200  202.2300  147.2380 C   0  0  0  0  0  2  0  0  0  0  0  0
  161.4640  203.5230  147.6810 C   0  0  1  0  0  3  0  0  0  0  0  0
  161.0540  205.3840  149.3090 N   0  0  0  0  0  0  0  0  0  0  0  0
  161.4550  204.3020  145.1730 C   0  0  0  0  0  2  0  0  0  0  0  0
  161.3620  204.6510  146.6490 C   0  0  0  0  0  0  0  0  0  0  0  0
  160.7100  203.0460  144.8770 C   0  0  0  0  0  2  0  0  0  0  0  0
  161.6220  206.3520  148.3950 C   0  0  0  0  0  2  0  0  0  0  0  0
  161.0620  204.0090  149.0710 C   0  0  0  0  0  0  0  0  0  0  0  0
  160.4820  200.6580  145.3650 C   0  0  0  0  0  0  0  0  0  0  0  0
  159.5000  200.6820  144.6230 O   0  0  0  0  0  0  0  0  0  0  0  0
  160.9640  199.4330  145.8640 O   0  0  0  0  0  1  0  0  0  0  0  0
  161.7030  211.9590  157.2610 N   0  0  0  0  0  2  0  0  0  0  0  0
  162.8740  211.1920  157.1840 C   0  0  0  0  0  0  0  0  0  0  0  0
  164.4210  211.8240  157.1320 S   0  0  0  0  0  0  0  0  0  0  0  0
  162.7290  209.7050  157.2510 C   0  0  0  0  0  1  0  0  0  0  0  0
  1 14  1  0  0  0  0
  2 10  1  0  0  0  0
  3 12  1  0  0  0  0
  4  1  2  0  0  0  0
  5 15  1  6  0  0  0
  5  6  1  0  0  0  0
  5  8  1  0  0  0  0
  6  9  1  0  0  0  0
  7  9  1  6  0  0  0
  7  3  1  0  0  0  0
  8  1  1  0  0  0  0
  8  7  1  0  0  0  0
 11 10  1  0  0  0  0
 11 31  1  1  0  0  0
 12  2  2  0  0  0  0
 13 11  1  0  0  0  0
 14 13  1  1  0  0  0
 14 12  1  0  0  0  0
 16 15  1  0  0  0  0
 18 26  1  0  0  0  0
 19 28  1  6  0  0  0
 19 20  1  0  0  0  0
 21 20  1  6  0  0  0
 21 27  1  0  0  0  0
 22 16  1  0  0  0  0
 23 24  1  0  0  0  0
 24 18  2  0  0  0  0
 24 21  1  0  0  0  0
 25 23  1  0  0  0  0
 25 19  1  0  0  0  0
 26 22  1  0  0  0  0
 27 22  1  0  0  0  0
 27 17  2  0  0  0  0
 28 30  1  0  0  0  0
 29 28  2  0  0  0  0
 32 34  1  0  0  0  0
 32 31  1  0  0  0  0
 33 32  2  0  0  0  0
M  END
>  <MODEL>
1

>  <REMARK>
 VINA RESULT:      -7.5      0.000      0.000
  Name = 
  6 active torsions:
  status: ('A' for Active; 'I' for Inactive)
    1  A    between atoms: C_3  and  N_25
    2  A    between atoms: C_7  and  C_11
    3  A    between atoms: C_8  and  C_17
    4  A    between atoms: C_8  and  N_18
    5  A    between atoms: C_10  and  C_17
    6  A    between atoms: N_25  and  C_27
                            x       y       z     vdW  Elec       q    Type
                         _______ _______ _______ _____ _____    ______ ____

>  <TORSDO>
F 6

$$$$
=
 OpenBabel11062409293D

 34 38  0  0  1  0  0  0  0  0999 V2000
  160.6310  208.0930  154.6360 C   0  0  0  0  0  0  0  0  0  0  0  0
  161.8850  211.4190  155.9080 C   0  0  0  0  0  3  0  0  0  0  0  0
  162.3510  210.3360  153.7510 C   0  0  0  0  0  2  0  0  0  0  0  0
  160.0440  207.0550  154.9930 O   0  0  0  0  0  0  0  0  0  0  0  0
  160.8360  207.3230  152.1980 C   0  0  2  0  0  3  0  0  0  0  0  0
  161.1940  208.1750  150.9720 C   0  0  0  0  0  2  0  0  0  0  0  0
  161.4110  209.5970  152.8340 C   0  0  2  0  0  3  0  0  0  0  0  0
  161.1670  208.2580  153.3010 N   0  0  0  0  0  0  0  0  0  0  0  0
  162.0160  209.3840  151.4720 C   0  0  0  0  0  2  0  0  0  0  0  0
  161.3060  211.4230  157.2600 C   0  0  0  0  0  2  0  0  0  0  0  0
  159.8210  210.8800  157.2300 C   0  0  2  0  0  3  0  0  0  0  0  0
  161.6800  210.3850  155.0900 C   0  0  0  0  0  0  0  0  0  0  0  0
  159.5750  209.6690  156.3040 C   0  0  0  0  0  2  0  0  0  0  0  0
  160.8440  209.2150  155.5990 C   0  0  1  0  0  3  0  0  0  0  0  0
  161.7680  206.1160  152.3110 C   0  0  0  0  0  2  0  0  0  0  0  0
  161.1070  204.8820  151.7570 C   0  0  0  0  0  2  0  0  0  0  0  0
  160.9730  202.3270  150.3180 O   0  0  0  0  0  0  0  0  0  0  0  0
  161.8720  205.7420  148.2010 C   0  0  0  0  0  3  0  0  0  0  0  0
  161.0510  202.2920  145.9310 C   0  0  2  0  0  3  0  0  0  0  0  0
  160.7830  202.2360  147.4590 C   0  0  0  0  0  2  0  0  0  0  0  0
  161.6090  203.2640  148.1950 C   0  0  1  0  0  3  0  0  0  0  0  0
  161.5090  204.6230  150.2990 N   0  0  0  0  0  0  0  0  0  0  0  0
  161.6190  204.7160  146.0070 C   0  0  0  0  0  2  0  0  0  0  0  0
  161.6240  204.6420  147.5240 C   0  0  0  0  0  0  0  0  0  0  0  0
  160.7020  203.6940  145.4290 C   0  0  0  0  0  2  0  0  0  0  0  0
  162.1700  205.7350  149.6490 C   0  0  0  0  0  2  0  0  0  0  0  0
  161.3240  203.3810  149.6900 C   0  0  0  0  0  0  0  0  0  0  0  0
  160.1720  201.3100  145.2530 C   0  0  0  0  0  0  0  0  0  0  0  0
  159.2280  201.6640  144.5470 O   0  0  0  0  0  0  0  0  0  0  0  0
  160.4420  199.9420  145.4440 O   0  0  0  0  0  1  0  0  0  0  0  0
  158.8560  211.8760  156.9380 N   0  0  0  0  0  2  0  0  0  0  0  0
  158.0680  211.8900  155.7780 C   0  0  0  0  0  0  0  0  0  0  0  0
  156.4960  211.3280  155.6920 S   0  0  0  0  0  0  0  0  0  0  0  0
  158.6430  212.5450  154.5620 C   0  0  0  0  0  1  0  0  0  0  0  0
  1  4  2  0  0  0  0
  1 14  1  0  0  0  0
  2 10  1  0  0  0  0
  3 12  1  0  0  0  0
  5 15  1  1  0  0  0
  5  8  1  0  0  0  0
  6  9  1  0  0  0  0
  6  5  1  0  0  0  0
  7  9  1  6  0  0  0
  7  8  1  0  0  0  0
  7  3  1  0  0  0  0
  8  1  1  0  0  0  0
 11 31  1  6  0  0  0
 11 10  1  0  0  0  0
 12 14  1  0  0  0  0
 12  2  2  0  0  0  0
 13 11  1  0  0  0  0
 14 13  1  6  0  0  0
 16 15  1  0  0  0  0
 18 26  1  0  0  0  0
 19 28  1  6  0  0  0
 19 20  1  0  0  0  0
 21 20  1  6  0  0  0
 21 27  1  0  0  0  0
 22 16  1  0  0  0  0
 23 24  1  0  0  0  0
 24 21  1  0  0  0  0
 24 18  2  0  0  0  0
 25 19  1  0  0  0  0
 25 23  1  0  0  0  0
 26 22  1  0  0  0  0
 27 22  1  0  0  0  0
 27 17  2  0  0  0  0
 28 30  1  0  0  0  0
 29 28  2  0  0  0  0
 32 31  1  0  0  0  0
 33 32  2  0  0  0  0
 34 32  1  0  0  0  0
M  END
>  <MODEL>
2

>  <REMARK>
 VINA RESULT:      -7.0      1.983      2.735
  Name = 
  6 active torsions:
  status: ('A' for Active; 'I' for Inactive)
    1  A    between atoms: C_3  and  N_25
    2  A    between atoms: C_7  and  C_11
    3  A    between atoms: C_8  and  C_17
    4  A    between atoms: C_8  and  N_18
    5  A    between atoms: C_10  and  C_17
    6  A    between atoms: N_25  and  C_27
                            x       y       z     vdW  Elec       q    Type
                         _______ _______ _______ _____ _____    ______ ____

>  <TORSDO>
F 6

$$$$
=
 OpenBabel11062409293D

 34 38  0  0  1  0  0  0  0  0999 V2000
  159.4380  211.8510  153.5740 C   0  0  0  0  0  0  0  0  0  0  0  0
  156.0670  211.2440  155.1640 C   0  0  0  0  0  3  0  0  0  0  0  0
  158.2300  210.2260  155.7370 C   0  0  0  0  0  2  0  0  0  0  0  0
  159.9870  212.3880  152.5950 O   0  0  0  0  0  0  0  0  0  0  0  0
  161.6600  211.0600  154.5830 C   0  0  2  0  0  3  0  0  0  0  0  0
  161.9130  210.5440  156.0070 C   0  0  0  0  0  2  0  0  0  0  0  0
  159.5880  210.8720  155.8410 C   0  0  2  0  0  3  0  0  0  0  0  0
  160.1760  211.0660  154.5420 N   0  0  0  0  0  0  0  0  0  0  0  0
  160.5780  209.9760  156.5380 C   0  0  0  0  0  2  0  0  0  0  0  0
  155.2160  212.0910  154.3150 C   0  0  0  0  0  2  0  0  0  0  0  0
  155.9270  213.4710  154.0170 C   0  0  2  0  0  3  0  0  0  0  0  0
  157.3800  211.1650  154.9360 C   0  0  0  0  0  0  0  0  0  0  0  0
  157.4410  213.3910  153.7290 C   0  0  0  0  0  2  0  0  0  0  0  0
  157.9610  211.9620  153.7730 C   0  0  1  0  0  3  0  0  0  0  0  0
  162.1530  210.0520  153.5440 C   0  0  0  0  0  2  0  0  0  0  0  0
  161.1080  208.9990  153.2890 C   0  0  0  0  0  2  0  0  0  0  0  0
  161.4180  206.0830  153.4030 O   0  0  0  0  0  0  0  0  0  0  0  0
  161.5800  207.9440  149.7340 C   0  0  0  0  0  3  0  0  0  0  0  0
  161.3610  203.7380  149.6940 C   0  0  2  0  0  3  0  0  0  0  0  0
  161.1580  204.4630  151.0520 C   0  0  0  0  0  2  0  0  0  0  0  0
  161.7950  205.8320  151.0400 C   0  0  1  0  0  3  0  0  0  0  0  0
  161.5040  208.0680  152.1340 N   0  0  0  0  0  0  0  0  0  0  0  0
  161.4570  205.8860  148.4370 C   0  0  0  0  0  2  0  0  0  0  0  0
  161.5250  206.6300  149.7590 C   0  0  0  0  0  0  0  0  0  0  0  0
  160.7350  204.5920  148.5910 C   0  0  0  0  0  2  0  0  0  0  0  0
  161.9200  208.7490  150.9260 C   0  0  0  0  0  2  0  0  0  0  0  0
  161.5410  206.6810  152.2830 C   0  0  0  0  0  0  0  0  0  0  0  0
  160.6650  202.4310  149.7390 C   0  0  0  0  0  0  0  0  0  0  0  0
  160.6440  201.7410  150.7580 O   0  0  0  0  0  1  0  0  0  0  0  0
  160.0230  201.9860  148.5680 O   0  0  0  0  0  0  0  0  0  0  0  0
  155.7080  214.4520  155.0170 N   0  0  0  0  0  2  0  0  0  0  0  0
  155.9060  214.2350  156.3880 C   0  0  0  0  0  0  0  0  0  0  0  0
  157.3960  214.2600  157.1470 S   0  0  0  0  0  0  0  0  0  0  0  0
  154.6900  214.0670  157.2420 C   0  0  0  0  0  1  0  0  0  0  0  0
  1 14  1  0  0  0  0
  1  8  1  0  0  0  0
  4  1  2  0  0  0  0
  5 15  1  6  0  0  0
  5  6  1  0  0  0  0
  6  9  1  0  0  0  0
  7  3  1  6  0  0  0
  7  9  1  0  0  0  0
  8  5  1  0  0  0  0
  8  7  1  0  0  0  0
 10  2  1  0  0  0  0
 11 10  1  0  0  0  0
 11 31  1  1  0  0  0
 12  2  2  0  0  0  0
 12  3  1  0  0  0  0
 13 11  1  0  0  0  0
 14 13  1  1  0  0  0
 14 12  1  0  0  0  0
 16 15  1  0  0  0  0
 18 24  2  0  0  0  0
 18 26  1  0  0  0  0
 19 28  1  1  0  0  0
 19 20  1  0  0  0  0
 21 20  1  1  0  0  0
 21 27  1  0  0  0  0
 22 27  1  0  0  0  0
 22 16  1  0  0  0  0
 23 25  1  0  0  0  0
 23 24  1  0  0  0  0
 24 21  1  0  0  0  0
 25 19  1  0  0  0  0
 26 22  1  0  0  0  0
 27 17  2  0  0  0  0
 28 29  1  0  0  0  0
 30 28  2  0  0  0  0
 31 32  1  0  0  0  0
 32 33  2  0  0  0  0
 32 34  1  0  0  0  0
M  END
>  <MODEL>
3

>  <REMARK>
 VINA RESULT:      -6.9      3.094      4.732
  Name = 
  6 active torsions:
  status: ('A' for Active; 'I' for Inactive)
    1  A    between atoms: C_3  and  N_25
    2  A    between atoms: C_7  and  C_11
    3  A    between atoms: C_8  and  C_17
    4  A    between atoms: C_8  and  N_18
    5  A    between atoms: C_10  and  C_17
    6  A    between atoms: N_25  and  C_27
                            x       y       z     vdW  Elec       q    Type
                         _______ _______ _______ _____ _____    ______ ____

>  <TORSDO>
F 6

$$$$
=
 OpenBabel11062409293D

 34 38  0  0  1  0  0  0  0  0999 V2000
  162.5260  212.9650  144.5640 C   0  0  0  0  0  0  0  0  0  0  0  0
  160.2350  211.7930  141.8010 C   0  0  0  0  0  3  0  0  0  0  0  0
  159.8120  211.8260  144.2220 C   0  0  0  0  0  2  0  0  0  0  0  0
  163.6990  213.3070  144.7970 O   0  0  0  0  0  0  0  0  0  0  0  0
  161.7660  213.3610  146.9820 C   0  0  2  0  0  3  0  0  0  0  0  0
  160.3270  213.4570  147.5100 C   0  0  0  0  0  2  0  0  0  0  0  0
  160.1450  212.8940  145.2320 C   0  0  2  0  0  3  0  0  0  0  0  0
  161.5320  212.8440  145.6110 N   0  0  0  0  0  0  0  0  0  0  0  0
  159.4220  212.6730  146.5340 C   0  0  0  0  0  2  0  0  0  0  0  0
  161.1130  211.9690  140.6340 C   0  0  0  0  0  2  0  0  0  0  0  0
  161.9080  213.3320  140.7390 C   0  0  2  0  0  3  0  0  0  0  0  0
  160.6700  212.0990  143.0250 C   0  0  0  0  0  0  0  0  0  0  0  0
  162.4370  213.6860  142.1450 C   0  0  0  0  0  2  0  0  0  0  0  0
  162.0960  212.6210  143.1750 C   0  0  1  0  0  3  0  0  0  0  0  0
  162.5570  212.3030  147.7530 C   0  0  0  0  0  2  0  0  0  0  0  0
  161.7660  211.8050  148.9330 C   0  0  0  0  0  2  0  0  0  0  0  0
  162.3890  210.5400  151.5080 O   0  0  0  0  0  0  0  0  0  0  0  0
  161.5890  208.1320  148.2660 C   0  0  0  0  0  3  0  0  0  0  0  0
  161.7960  206.2220  152.0130 C   0  0  2  0  0  3  0  0  0  0  0  0
  161.8080  207.7740  151.9880 C   0  0  0  0  0  2  0  0  0  0  0  0
  162.2870  208.2940  150.6530 C   0  0  1  0  0  3  0  0  0  0  0  0
  162.0050  210.3110  149.1930 N   0  0  0  0  0  0  0  0  0  0  0  0
  161.4080  206.0750  149.5570 C   0  0  0  0  0  2  0  0  0  0  0  0
  161.6750  207.5660  149.4500 C   0  0  0  0  0  0  0  0  0  0  0  0
  160.8690  205.7270  150.9020 C   0  0  0  0  0  2  0  0  0  0  0  0
  162.0880  209.4980  147.9980 C   0  0  0  0  0  2  0  0  0  0  0  0
  162.2130  209.8080  150.4780 C   0  0  0  0  0  0  0  0  0  0  0  0
  161.2610  205.7680  153.3180 C   0  0  0  0  0  0  0  0  0  0  0  0
  160.9160  204.6010  153.5080 O   0  0  0  0  0  0  0  0  0  0  0  0
  161.1470  206.7170  154.3510 O   0  0  0  0  0  1  0  0  0  0  0  0
  161.1980  214.4470  140.2280 N   0  0  0  0  0  2  0  0  0  0  0  0
  160.5220  214.4530  138.9990 C   0  0  0  0  0  0  0  0  0  0  0  0
  161.2700  214.3810  137.5050 S   0  0  0  0  0  0  0  0  0  0  0  0
  159.0270  214.4240  139.0340 C   0  0  0  0  0  1  0  0  0  0  0  0
  1  4  2  0  0  0  0
  1  8  1  0  0  0  0
  2 12  2  0  0  0  0
  5  6  1  0  0  0  0
  5 15  1  1  0  0  0
  7  3  1  6  0  0  0
  7  8  1  0  0  0  0
  7  9  1  0  0  0  0
  8  5  1  0  0  0  0
  9  6  1  0  0  0  0
 10 11  1  0  0  0  0
 10  2  1  0  0  0  0
 11 31  1  1  0  0  0
 11 13  1  0  0  0  0
 12 14  1  0  0  0  0
 12  3  1  0  0  0  0
 14 13  1  6  0  0  0
 14  1  1  0  0  0  0
 15 16  1  0  0  0  0
 16 22  1  0  0  0  0
 18 24  2  0  0  0  0
 19 28  1  1  0  0  0
 20 19  1  0  0  0  0
 21 20  1  1  0  0  0
 22 27  1  0  0  0  0
 23 25  1  0  0  0  0
 24 23  1  0  0  0  0
 24 21  1  0  0  0  0
 25 19  1  0  0  0  0
 26 18  1  0  0  0  0
 26 22  1  0  0  0  0
 27 21  1  0  0  0  0
 27 17  2  0  0  0  0
 28 29  2  0  0  0  0
 28 30  1  0  0  0  0
 32 34  1  0  0  0  0
 32 31  1  0  0  0  0
 33 32  2  0  0  0  0
M  END
>  <MODEL>
4

>  <REMARK>
 VINA RESULT:      -6.5      7.395     10.966
  Name = 
  6 active torsions:
  status: ('A' for Active; 'I' for Inactive)
    1  A    between atoms: C_3  and  N_25
    2  A    between atoms: C_7  and  C_11
    3  A    between atoms: C_8  and  C_17
    4  A    between atoms: C_8  and  N_18
    5  A    between atoms: C_10  and  C_17
    6  A    between atoms: N_25  and  C_27
                            x       y       z     vdW  Elec       q    Type
                         _______ _______ _______ _____ _____    ______ ____

>  <TORSDO>
F 6

$$$$
=
 OpenBabel11062409293D

 34 38  0  0  1  0  0  0  0  0999 V2000
  161.0510  208.2100  153.3400 C   0  0  0  0  0  0  0  0  0  0  0  0
  162.0920  210.6760  156.0030 C   0  0  0  0  0  3  0  0  0  0  0  0
  162.7540  210.6170  153.6360 C   0  0  0  0  0  2  0  0  0  0  0  0
  160.4760  207.1190  153.1730 O   0  0  0  0  0  0  0  0  0  0  0  0
  161.4630  208.5540  150.8320 C   0  0  2  0  0  3  0  0  0  0  0  0
  161.8810  209.8470  150.1180 C   0  0  0  0  0  2  0  0  0  0  0  0
  161.9100  210.3390  152.4190 C   0  0  2  0  0  3  0  0  0  0  0  0
  161.6790  208.9290  152.2510 N   0  0  0  0  0  0  0  0  0  0  0  0
  162.6210  210.7270  151.1500 C   0  0  0  0  0  2  0  0  0  0  0  0
  161.4150  210.1030  157.1770 C   0  0  0  0  0  2  0  0  0  0  0  0
  159.9560  209.6260  156.7970 C   0  0  2  0  0  3  0  0  0  0  0  0
  161.9840  210.0900  154.8090 C   0  0  0  0  0  0  0  0  0  0  0  0
  159.8220  208.9250  155.4280 C   0  0  0  0  0  2  0  0  0  0  0  0
  161.1540  208.8150  154.7030 C   0  0  1  0  0  3  0  0  0  0  0  0
  162.4250  207.4140  150.4970 C   0  0  0  0  0  2  0  0  0  0  0  0
  162.1700  206.8950  149.1070 C   0  0  0  0  0  2  0  0  0  0  0  0
  161.2350  205.3600  146.7860 O   0  0  0  0  0  0  0  0  0  0  0  0
  161.1460  203.5800  150.4970 C   0  0  0  0  0  3  0  0  0  0  0  0
  160.4250  201.0670  147.1950 C   0  0  2  0  0  3  0  0  0  0  0  0
  160.9100  202.5140  146.9140 C   0  0  0  0  0  2  0  0  0  0  0  0
  160.5920  203.4310  148.0720 C   0  0  1  0  0  3  0  0  0  0  0  0
  161.4710  205.5280  149.1260 N   0  0  0  0  0  0  0  0  0  0  0  0
  160.6890  201.3390  149.6570 C   0  0  0  0  0  2  0  0  0  0  0  0
  160.9110  202.8270  149.4440 C   0  0  0  0  0  0  0  0  0  0  0  0
  161.1180  200.5620  148.4610 C   0  0  0  0  0  2  0  0  0  0  0  0
  161.1050  205.0560  150.4450 C   0  0  0  0  0  2  0  0  0  0  0  0
  161.1430  204.8500  147.9520 C   0  0  0  0  0  0  0  0  0  0  0  0
  160.8170  200.2000  146.0590 C   0  0  0  0  0  0  0  0  0  0  0  0
  160.4580  200.4410  144.9060 O   0  0  0  0  0  0  0  0  0  0  0  0
  161.6150  199.0740  146.3330 O   0  0  0  0  0  1  0  0  0  0  0  0
  158.9810  210.6510  156.8780 N   0  0  0  0  0  2  0  0  0  0  0  0
  158.4100  211.2830  155.7640 C   0  0  0  0  0  0  0  0  0  0  0  0
  156.8200  211.0990  155.2810 S   0  0  0  0  0  0  0  0  0  0  0  0
  159.2590  212.2630  155.0170 C   0  0  0  0  0  1  0  0  0  0  0  0
  1 14  1  0  0  0  0
  2 10  1  0  0  0  0
  3 12  1  0  0  0  0
  4  1  2  0  0  0  0
  5 15  1  6  0  0  0
  5  8  1  0  0  0  0
  6  5  1  0  0  0  0
  6  9  1  0  0  0  0
  7  9  1  6  0  0  0
  7  3  1  0  0  0  0
  8  7  1  0  0  0  0
  8  1  1  0  0  0  0
 11 31  1  6  0  0  0
 11 10  1  0  0  0  0
 12  2  2  0  0  0  0
 13 11  1  0  0  0  0
 14 12  1  0  0  0  0
 14 13  1  6  0  0  0
 16 22  1  0  0  0  0
 16 15  1  0  0  0  0
 17 27  2  0  0  0  0
 19 28  1  6  0  0  0
 19 25  1  0  0  0  0
 20 19  1  0  0  0  0
 21 20  1  6  0  0  0
 21 24  1  0  0  0  0
 22 26  1  0  0  0  0
 24 23  1  0  0  0  0
 24 18  2  0  0  0  0
 25 23  1  0  0  0  0
 26 18  1  0  0  0  0
 27 21  1  0  0  0  0
 27 22  1  0  0  0  0
 28 30  1  0  0  0  0
 29 28  2  0  0  0  0
 32 31  1  0  0  0  0
 33 32  2  0  0  0  0
 34 32  1  0  0  0  0
M  END
>  <MODEL>
5

>  <REMARK>
 VINA RESULT:      -6.5      2.205      3.292
  Name = 
  6 active torsions:
  status: ('A' for Active; 'I' for Inactive)
    1  A    between atoms: C_3  and  N_25
    2  A    between atoms: C_7  and  C_11
    3  A    between atoms: C_8  and  C_17
    4  A    between atoms: C_8  and  N_18
    5  A    between atoms: C_10  and  C_17
    6  A    between atoms: N_25  and  C_27
                            x       y       z     vdW  Elec       q    Type
                         _______ _______ _______ _____ _____    ______ ____

>  <TORSDO>
F 6

$$$$
=
 OpenBabel11062409293D

 34 38  0  0  1  0  0  0  0  0999 V2000
  160.7100  208.1280  154.5480 C   0  0  0  0  0  0  0  0  0  0  0  0
  161.5070  211.5450  155.9430 C   0  0  0  0  0  3  0  0  0  0  0  0
  162.2350  210.5590  153.8110 C   0  0  0  0  0  2  0  0  0  0  0  0
  160.2160  207.0260  154.8520 O   0  0  0  0  0  0  0  0  0  0  0  0
  161.1650  207.4300  152.1220 C   0  0  2  0  0  3  0  0  0  0  0  0
  161.5120  208.3390  150.9340 C   0  0  0  0  0  2  0  0  0  0  0  0
  161.4450  209.7410  152.8230 C   0  0  2  0  0  3  0  0  0  0  0  0
  161.3160  208.3750  153.2560 N   0  0  0  0  0  0  0  0  0  0  0  0
  162.1610  209.6190  151.5040 C   0  0  0  0  0  2  0  0  0  0  0  0
  160.8390  211.4610  157.2510 C   0  0  0  0  0  2  0  0  0  0  0  0
  159.4280  210.7630  157.1100 C   0  0  2  0  0  3  0  0  0  0  0  0
  161.4710  210.5110  155.1000 C   0  0  0  0  0  0  0  0  0  0  0  0
  159.3780  209.5510  156.1560 C   0  0  0  0  0  2  0  0  0  0  0  0
  160.7340  209.2480  155.5370 C   0  0  1  0  0  3  0  0  0  0  0  0
  162.2120  206.3290  152.2870 C   0  0  0  0  0  2  0  0  0  0  0  0
  161.5500  205.0010  152.5460 C   0  0  0  0  0  2  0  0  0  0  0  0
  161.2700  206.2660  149.9120 O   0  0  0  0  0  0  0  0  0  0  0  0
  160.8560  202.1800  150.1950 C   0  0  0  0  0  3  0  0  0  0  0  0
  161.1050  203.7730  146.3050 C   0  0  2  0  0  3  0  0  0  0  0  0
  161.3900  204.7240  147.4980 C   0  0  0  0  0  2  0  0  0  0  0  0
  160.7430  204.2180  148.7650 C   0  0  1  0  0  3  0  0  0  0  0  0
  161.0870  204.3300  151.2460 N   0  0  0  0  0  0  0  0  0  0  0  0
  160.9100  201.7850  147.7920 C   0  0  0  0  0  2  0  0  0  0  0  0
  160.9230  202.7130  148.9940 C   0  0  0  0  0  0  0  0  0  0  0  0
  161.6510  202.3870  146.6480 C   0  0  0  0  0  2  0  0  0  0  0  0
  160.5880  202.9810  151.4080 C   0  0  0  0  0  2  0  0  0  0  0  0
  161.0710  205.0110  150.0280 C   0  0  0  0  0  0  0  0  0  0  0  0
  161.8120  204.2810  145.1060 C   0  0  0  0  0  0  0  0  0  0  0  0
  161.2040  204.7340  144.1370 O   0  0  0  0  0  0  0  0  0  0  0  0
  163.2190  204.2270  145.0990 O   0  0  0  0  0  1  0  0  0  0  0  0
  158.3830  211.6550  156.7620 N   0  0  0  0  0  2  0  0  0  0  0  0
  157.6870  211.6140  155.5450 C   0  0  0  0  0  0  0  0  0  0  0  0
  156.1200  211.0580  155.3660 S   0  0  0  0  0  0  0  0  0  0  0  0
  158.3620  212.2000  154.3460 C   0  0  0  0  0  1  0  0  0  0  0  0
  1  4  2  0  0  0  0
  1 14  1  0  0  0  0
  2 10  1  0  0  0  0
  3 12  1  0  0  0  0
  5 15  1  1  0  0  0
  5  8  1  0  0  0  0
  6  9  1  0  0  0  0
  6  5  1  0  0  0  0
  7  9  1  6  0  0  0
  7  8  1  0  0  0  0
  7  3  1  0  0  0  0
  8  1  1  0  0  0  0
 11 31  1  6  0  0  0
 11 10  1  0  0  0  0
 12 14  1  0  0  0  0
 12  2  2  0  0  0  0
 13 11  1  0  0  0  0
 14 13  1  6  0  0  0
 15 16  1  0  0  0  0
 17 27  2  0  0  0  0
 18 26  1  0  0  0  0
 19 28  1  6  0  0  0
 19 25  1  0  0  0  0
 19 20  1  0  0  0  0
 21 20  1  6  0  0  0
 21 24  1  0  0  0  0
 21 27  1  0  0  0  0
 22 26  1  0  0  0  0
 22 16  1  0  0  0  0
 23 24  1  0  0  0  0
 24 18  2  0  0  0  0
 25 23  1  0  0  0  0
 27 22  1  0  0  0  0
 29 28  2  0  0  0  0
 30 28  1  0  0  0  0
 32 31  1  0  0  0  0
 33 32  2  0  0  0  0
 34 32  1  0  0  0  0
M  END
>  <MODEL>
6

>  <REMARK>
 VINA RESULT:      -6.1      2.494      3.542
  Name = 
  6 active torsions:
  status: ('A' for Active; 'I' for Inactive)
    1  A    between atoms: C_3  and  N_25
    2  A    between atoms: C_7  and  C_11
    3  A    between atoms: C_8  and  C_17
    4  A    between atoms: C_8  and  N_18
    5  A    between atoms: C_10  and  C_17
    6  A    between atoms: N_25  and  C_27
                            x       y       z     vdW  Elec       q    Type
                         _______ _______ _______ _____ _____    ______ ____

>  <TORSDO>
F 6

$$$$
=
 OpenBabel11062409293D

 34 38  0  0  1  0  0  0  0  0999 V2000
  160.6260  210.0940  152.2000 C   0  0  0  0  0  0  0  0  0  0  0  0
  161.5810  206.8910  153.9570 C   0  0  0  0  0  3  0  0  0  0  0  0
  160.2630  208.7750  154.8280 C   0  0  0  0  0  2  0  0  0  0  0  0
  160.8560  210.7690  151.1800 O   0  0  0  0  0  0  0  0  0  0  0  0
  158.8720  211.7440  153.0850 C   0  0  2  0  0  3  0  0  0  0  0  0
  157.8430  211.5110  154.2010 C   0  0  0  0  0  2  0  0  0  0  0  0
  159.1870  209.5790  154.1450 C   0  0  2  0  0  3  0  0  0  0  0  0
  159.7500  210.5600  153.2560 N   0  0  0  0  0  0  0  0  0  0  0  0
  158.4070  210.4120  155.1290 C   0  0  0  0  0  2  0  0  0  0  0  0
  162.4120  206.2570  152.9220 C   0  0  0  0  0  2  0  0  0  0  0  0
  161.7540  206.4360  151.4960 C   0  0  2  0  0  3  0  0  0  0  0  0
  161.0260  208.0850  153.7380 C   0  0  0  0  0  0  0  0  0  0  0  0
  161.1280  207.8200  151.2210 C   0  0  0  0  0  2  0  0  0  0  0  0
  161.2860  208.7680  152.4000 C   0  0  1  0  0  3  0  0  0  0  0  0
  159.7080  212.9920  153.3690 C   0  0  0  0  0  2  0  0  0  0  0  0
  158.9210  214.2380  153.0640 C   0  0  0  0  0  2  0  0  0  0  0  0
  160.7130  214.4530  150.7490 O   0  0  0  0  0  0  0  0  0  0  0  0
  156.7010  213.8030  150.0880 C   0  0  0  0  0  3  0  0  0  0  0  0
  159.2380  213.4180  146.7490 C   0  0  2  0  0  3  0  0  0  0  0  0
  159.8960  213.5740  148.1460 C   0  0  0  0  0  2  0  0  0  0  0  0
  158.9550  214.2430  149.1200 C   0  0  1  0  0  3  0  0  0  0  0  0
  158.5130  214.3100  151.5860 N   0  0  0  0  0  0  0  0  0  0  0  0
  156.9470  213.2930  147.7190 C   0  0  0  0  0  2  0  0  0  0  0  0
  157.5210  213.7050  149.0640 C   0  0  0  0  0  0  0  0  0  0  0  0
  157.9680  212.5790  146.9020 C   0  0  0  0  0  2  0  0  0  0  0  0
  157.0900  214.4510  151.3590 C   0  0  0  0  0  2  0  0  0  0  0  0
  159.4570  214.3270  150.5590 C   0  0  0  0  0  0  0  0  0  0  0  0
  160.1760  212.7020  145.8530 C   0  0  0  0  0  0  0  0  0  0  0  0
  159.7840  211.8850  145.0210 O   0  0  0  0  0  0  0  0  0  0  0  0
  161.5510  212.9770  145.9830 O   0  0  0  0  0  1  0  0  0  0  0  0
  160.7990  205.4370  151.1790 N   0  0  0  0  0  2  0  0  0  0  0  0
  160.8570  204.6290  150.0340 C   0  0  0  0  0  0  0  0  0  0  0  0
  161.2070  205.1860  148.4970 S   0  0  0  0  0  0  0  0  0  0  0  0
  160.6900  203.1540  150.2220 C   0  0  0  0  0  1  0  0  0  0  0  0
  1 14  1  0  0  0  0
  1  8  1  0  0  0  0
  4  1  2  0  0  0  0
  5  8  1  0  0  0  0
  5 15  1  1  0  0  0
  5  6  1  0  0  0  0
  6  9  1  0  0  0  0
  7  3  1  1  0  0  0
  7  9  1  0  0  0  0
  8  7  1  0  0  0  0
 10  2  1  0  0  0  0
 11 31  1  1  0  0  0
 11 10  1  0  0  0  0
 12  2  2  0  0  0  0
 12  3  1  0  0  0  0
 13 11  1  0  0  0  0
 14 13  1  6  0  0  0
 14 12  1  0  0  0  0
 16 15  1  0  0  0  0
 18 26  1  0  0  0  0
 19 28  1  6  0  0  0
 19 25  1  0  0  0  0
 19 20  1  0  0  0  0
 21 20  1  6  0  0  0
 21 27  1  0  0  0  0
 22 16  1  0  0  0  0
 23 24  1  0  0  0  0
 24 21  1  0  0  0  0
 24 18  2  0  0  0  0
 25 23  1  0  0  0  0
 26 22  1  0  0  0  0
 27 17  2  0  0  0  0
 27 22  1  0  0  0  0
 28 30  1  0  0  0  0
 29 28  2  0  0  0  0
 32 34  1  0  0  0  0
 32 31  1  0  0  0  0
 33 32  2  0  0  0  0
M  END
>  <MODEL>
7

>  <REMARK>
 VINA RESULT:      -5.8      4.893      8.550
  Name = 
  6 active torsions:
  status: ('A' for Active; 'I' for Inactive)
    1  A    between atoms: C_3  and  N_25
    2  A    between atoms: C_7  and  C_11
    3  A    between atoms: C_8  and  C_17
    4  A    between atoms: C_8  and  N_18
    5  A    between atoms: C_10  and  C_17
    6  A    between atoms: N_25  and  C_27
                            x       y       z     vdW  Elec       q    Type
                         _______ _______ _______ _____ _____    ______ ____

>  <TORSDO>
F 6

$$$$
=
 OpenBabel11062409293D

 34 38  0  0  1  0  0  0  0  0999 V2000
  159.8490  212.7860  145.6900 C   0  0  0  0  0  0  0  0  0  0  0  0
  162.0380  214.1500  142.9330 C   0  0  0  0  0  3  0  0  0  0  0  0
  162.4490  214.1670  145.3560 C   0  0  0  0  0  2  0  0  0  0  0  0
  158.7100  212.3390  145.9200 O   0  0  0  0  0  0  0  0  0  0  0  0
  160.6290  212.4720  148.1140 C   0  0  2  0  0  3  0  0  0  0  0  0
  162.0680  212.5100  148.6490 C   0  0  0  0  0  2  0  0  0  0  0  0
  162.2100  213.0770  146.3690 C   0  0  2  0  0  3  0  0  0  0  0  0
  160.8220  213.0020  146.7420 N   0  0  0  0  0  0  0  0  0  0  0  0
  162.9030  213.3690  147.6740 C   0  0  0  0  0  2  0  0  0  0  0  0
  161.1860  213.8900  141.7620 C   0  0  0  0  0  2  0  0  0  0  0  0
  160.5170  212.4610  141.8700 C   0  0  2  0  0  3  0  0  0  0  0  0
  161.6260  213.8110  144.1560 C   0  0  0  0  0  0  0  0  0  0  0  0
  160.0160  212.0650  143.2750 C   0  0  0  0  0  2  0  0  0  0  0  0
  160.2530  213.1620  144.3020 C   0  0  1  0  0  3  0  0  0  0  0  0
  159.7410  213.4570  148.8760 C   0  0  0  0  0  2  0  0  0  0  0  0
  160.2840  213.7000  150.2590 C   0  0  0  0  0  2  0  0  0  0  0  0
  161.0840  211.2400  151.6470 O   0  0  0  0  0  0  0  0  0  0  0  0
  157.7110  213.2230  152.9280 C   0  0  0  0  0  3  0  0  0  0  0  0
  159.1150  210.1200  155.4050 C   0  0  2  0  0  3  0  0  0  0  0  0
  160.0120  210.5650  154.2190 C   0  0  0  0  0  2  0  0  0  0  0  0
  159.1960  211.2320  153.1380 C   0  0  1  0  0  3  0  0  0  0  0  0
  159.4830  212.9430  151.3280 N   0  0  0  0  0  0  0  0  0  0  0  0
  157.4670  211.9400  154.9840 C   0  0  0  0  0  2  0  0  0  0  0  0
  158.1690  212.2390  153.6700 C   0  0  0  0  0  0  0  0  0  0  0  0
  158.4160  211.3560  155.9730 C   0  0  0  0  0  2  0  0  0  0  0  0
  158.1340  213.4260  151.5260 C   0  0  0  0  0  2  0  0  0  0  0  0
  160.0000  211.8240  151.9830 C   0  0  0  0  0  0  0  0  0  0  0  0
  159.9720  209.5300  156.4600 C   0  0  0  0  0  0  0  0  0  0  0  0
  160.6570  210.2290  157.2060 O   0  0  0  0  0  1  0  0  0  0  0  0
  159.9900  208.1280  156.5870 O   0  0  0  0  0  0  0  0  0  0  0  0
  161.3290  211.4130  141.3680 N   0  0  0  0  0  2  0  0  0  0  0  0
  160.9880  210.6110  140.2690 C   0  0  0  0  0  0  0  0  0  0  0  0
  161.8780  209.2980  139.7390 S   0  0  0  0  0  0  0  0  0  0  0  0
  159.6870  210.8940  139.5870 C   0  0  0  0  0  1  0  0  0  0  0  0
  1  4  2  0  0  0  0
  1  8  1  0  0  0  0
  2 12  2  0  0  0  0
  5  6  1  0  0  0  0
  5 15  1  1  0  0  0
  7  3  1  6  0  0  0
  7  8  1  0  0  0  0
  7  9  1  0  0  0  0
  8  5  1  0  0  0  0
  9  6  1  0  0  0  0
 10 11  1  0  0  0  0
 10  2  1  0  0  0  0
 11 31  1  1  0  0  0
 11 13  1  0  0  0  0
 12 14  1  0  0  0  0
 12  3  1  0  0  0  0
 14 13  1  6  0  0  0
 14  1  1  0  0  0  0
 15 16  1  0  0  0  0
 16 22  1  0  0  0  0
 17 27  2  0  0  0  0
 18 24  2  0  0  0  0
 19 25  1  0  0  0  0
 19 28  1  1  0  0  0
 20 19  1  0  0  0  0
 21 24  1  0  0  0  0
 21 20  1  1  0  0  0
 22 26  1  0  0  0  0
 22 27  1  0  0  0  0
 23 25  1  0  0  0  0
 24 23  1  0  0  0  0
 26 18  1  0  0  0  0
 27 21  1  0  0  0  0
 28 30  2  0  0  0  0
 28 29  1  0  0  0  0
 32 31  1  0  0  0  0
 33 32  2  0  0  0  0
 34 32  1  0  0  0  0
M  END
>  <MODEL>
8

>  <REMARK>
 VINA RESULT:      -5.8      7.225     11.921
  Name = 
  6 active torsions:
  status: ('A' for Active; 'I' for Inactive)
    1  A    between atoms: C_3  and  N_25
    2  A    between atoms: C_7  and  C_11
    3  A    between atoms: C_8  and  C_17
    4  A    between atoms: C_8  and  N_18
    5  A    between atoms: C_10  and  C_17
    6  A    between atoms: N_25  and  C_27
                            x       y       z     vdW  Elec       q    Type
                         _______ _______ _______ _____ _____    ______ ____

>  <TORSDO>
F 6

$$$$
=
 OpenBabel11062409293D

 34 38  0  0  1  0  0  0  0  0999 V2000
  159.7010  210.1730  153.1760 C   0  0  0  0  0  0  0  0  0  0  0  0
  157.7920  213.1980  154.3840 C   0  0  0  0  0  3  0  0  0  0  0  0
  159.5460  211.9330  155.5540 C   0  0  0  0  0  2  0  0  0  0  0  0
  159.7220  209.3090  152.2800 O   0  0  0  0  0  0  0  0  0  0  0  0
  161.8060  209.2560  154.3220 C   0  0  2  0  0  3  0  0  0  0  0  0
  162.6700  209.9470  155.3870 C   0  0  0  0  0  2  0  0  0  0  0  0
  160.8380  211.3760  155.0140 C   0  0  2  0  0  3  0  0  0  0  0  0
  160.6200  210.1490  154.2950 N   0  0  0  0  0  0  0  0  0  0  0  0
  161.7730  210.9680  156.1210 C   0  0  0  0  0  2  0  0  0  0  0  0
  156.8680  213.3970  153.2570 C   0  0  0  0  0  2  0  0  0  0  0  0
  157.6180  213.1940  151.8810 C   0  0  2  0  0  3  0  0  0  0  0  0
  158.6730  212.1960  154.3640 C   0  0  0  0  0  0  0  0  0  0  0  0
  158.6240  212.0240  151.8370 C   0  0  0  0  0  2  0  0  0  0  0  0
  158.6830  211.2660  153.1550 C   0  0  1  0  0  3  0  0  0  0  0  0
  161.3460  207.8810  154.8050 C   0  0  0  0  0  2  0  0  0  0  0  0
  162.2180  206.7970  154.2300 C   0  0  0  0  0  2  0  0  0  0  0  0
  162.0060  207.7200  151.4520 O   0  0  0  0  0  0  0  0  0  0  0  0
  160.7950  203.8920  152.3590 C   0  0  0  0  0  3  0  0  0  0  0  0
  161.0710  204.8500  148.2680 C   0  0  2  0  0  3  0  0  0  0  0  0
  161.6320  205.8720  149.2930 C   0  0  0  0  0  2  0  0  0  0  0  0
  160.9900  205.6930  150.6480 C   0  0  1  0  0  3  0  0  0  0  0  0
  161.5330  206.0680  153.0670 N   0  0  0  0  0  0  0  0  0  0  0  0
  160.5890  203.1690  150.0420 C   0  0  0  0  0  2  0  0  0  0  0  0
  160.8780  204.2300  151.0910 C   0  0  0  0  0  0  0  0  0  0  0  0
  161.3490  203.4390  148.7900 C   0  0  0  0  0  2  0  0  0  0  0  0
  160.7850  204.8890  153.4500 C   0  0  0  0  0  2  0  0  0  0  0  0
  161.5650  206.5640  151.7620 C   0  0  0  0  0  0  0  0  0  0  0  0
  161.7760  205.0280  146.9770 C   0  0  0  0  0  0  0  0  0  0  0  0
  162.3900  206.0610  146.7100 O   0  0  0  0  0  1  0  0  0  0  0  0
  161.7230  203.9740  146.0460 O   0  0  0  0  0  0  0  0  0  0  0  0
  158.2650  214.3630  151.4070 N   0  0  0  0  0  2  0  0  0  0  0  0
  158.9190  214.4530  150.1690 C   0  0  0  0  0  0  0  0  0  0  0  0
  160.5790  214.4530  149.9720 S   0  0  0  0  0  0  0  0  0  0  0  0
  158.0690  214.4510  148.9390 C   0  0  0  0  0  1  0  0  0  0  0  0
  1  8  1  0  0  0  0
  4  1  2  0  0  0  0
  5 15  1  1  0  0  0
  5  6  1  0  0  0  0
  6  9  1  0  0  0  0
  7  3  1  1  0  0  0
  7  9  1  0  0  0  0
  8  5  1  0  0  0  0
  8  7  1  0  0  0  0
 10  2  1  0  0  0  0
 11 31  1  1  0  0  0
 11 10  1  0  0  0  0
 12  2  2  0  0  0  0
 12  3  1  0  0  0  0
 13 11  1  0  0  0  0
 14 13  1  6  0  0  0
 14  1  1  0  0  0  0
 14 12  1  0  0  0  0
 16 15  1  0  0  0  0
 17 27  2  0  0  0  0
 18 26  1  0  0  0  0
 19 28  1  6  0  0  0
 19 25  1  0  0  0  0
 19 20  1  0  0  0  0
 21 20  1  6  0  0  0
 21 24  1  0  0  0  0
 21 27  1  0  0  0  0
 22 26  1  0  0  0  0
 22 16  1  0  0  0  0
 23 24  1  0  0  0  0
 24 18  2  0  0  0  0
 25 23  1  0  0  0  0
 27 22  1  0  0  0  0
 29 28  1  0  0  0  0
 30 28  2  0  0  0  0
 32 31  1  0  0  0  0
 33 32  2  0  0  0  0
 34 32  1  0  0  0  0
M  END
>  <MODEL>
9

>  <REMARK>
 VINA RESULT:      -5.6      3.356      5.051
  Name = 
  6 active torsions:
  status: ('A' for Active; 'I' for Inactive)
    1  A    between atoms: C_3  and  N_25
    2  A    between atoms: C_7  and  C_11
    3  A    between atoms: C_8  and  C_17
    4  A    between atoms: C_8  and  N_18
    5  A    between atoms: C_10  and  C_17
    6  A    between atoms: N_25  and  C_27
                            x       y       z     vdW  Elec       q    Type
                         _______ _______ _______ _____ _____    ______ ____

>  <TORSDO>
F 6

$$$$
