=
 OpenBabel11052422543D

 28 32  0  0  1  0  0  0  0  0999 V2000
  160.3560  210.9320  153.3740 C   0  0  1  0  0  3  0  0  0  0  0  0
  161.6480  207.6780  149.5370 C   0  0  0  0  0  2  0  0  0  0  0  0
  160.8930  206.4630  155.5040 F   0  0  0  0  0  0  0  0  0  0  0  0
  161.4890  205.4820  150.6320 C   0  0  2  0  0  3  0  0  0  0  0  0
  160.8760  207.5320  151.9510 C   0  0  0  0  0  0  0  0  0  0  0  0
  161.4580  205.5400  148.1530 C   0  0  0  0  0  0  0  0  0  0  0  0
  160.8780  206.8820  150.5870 C   0  0  1  0  0  3  0  0  0  0  0  0
  161.1550  205.2030  153.0710 C   0  0  0  0  0  2  0  0  0  0  0  0
  161.4200  204.8260  149.2860 C   0  0  0  0  0  3  0  0  0  0  0  0
  160.6710  208.7320  154.5880 C   0  0  1  0  0  3  0  0  0  0  0  0
  160.6500  208.8420  152.0520 C   0  0  0  0  0  3  0  0  0  0  0  0
  160.8000  204.6460  151.6960 C   0  0  0  0  0  2  0  0  0  0  0  0
  162.0250  210.8160  155.2330 C   0  0  0  0  0  2  0  0  0  0  0  0
  160.8380  207.2470  154.3960 C   0  0  0  0  0  0  0  0  0  0  0  0
  161.8160  209.3070  155.4330 C   0  0  0  0  0  2  0  0  0  0  0  0
  161.4460  204.8700  146.9380 O   0  0  0  0  0  1  0  0  0  0  0  0
  161.4410  207.0520  148.1510 C   0  0  0  0  0  2  0  0  0  0  0  0
  160.9210  206.6910  153.1790 C   0  0  0  0  0  0  0  0  0  0  0  0
  160.7630  211.5130  154.7310 C   0  0  0  0  0  2  0  0  0  0  0  0
  160.5230  209.4770  153.3300 N   0  0  0  0  0  0  0  0  0  0  0  0
  158.9450  211.3780  152.9540 C   0  0  0  0  0  2  0  0  0  0  0  0
  158.1210  212.1380  154.0040 C   0  0  2  0  0  3  0  0  0  0  0  0
  155.8670  213.3700  155.1990 C   0  0  0  0  0  0  0  0  0  0  0  0
  157.0490  211.2790  154.6870 C   0  0  0  0  0  2  0  0  0  0  0  0
  157.5530  213.4260  153.4650 C   0  0  0  0  0  3  0  0  0  0  0  0
  156.5110  214.0180  154.0490 C   0  0  0  0  0  3  0  0  0  0  0  0
  154.9890  213.9800  155.8620 O   0  0  0  0  0  0  0  0  0  0  0  0
  156.2510  212.0760  155.5620 O   0  0  0  0  0  0  0  0  0  0  0  0
  1 21  1  1  0  0  0
  1 19  1  0  0  0  0
  4  9  1  6  0  0  0
  4 12  1  0  0  0  0
  5 11  2  0  0  0  0
  5 18  1  0  0  0  0
  6  9  2  0  0  0  0
  7  2  1  6  0  0  0
  7  4  1  0  0  0  0
  7  5  1  0  0  0  0
  8 18  1  0  0  0  0
 10 15  1  6  0  0  0
 11 20  1  0  0  0  0
 12  8  1  0  0  0  0
 13 15  1  0  0  0  0
 14 10  1  0  0  0  0
 14  3  1  0  0  0  0
 16  6  1  0  0  0  0
 17  6  1  0  0  0  0
 17  2  1  0  0  0  0
 18 14  2  0  0  0  0
 19 13  1  0  0  0  0
 20  1  1  0  0  0  0
 20 10  1  0  0  0  0
 22 21  1  6  0  0  0
 22 24  1  0  0  0  0
 23 28  1  0  0  0  0
 23 27  2  0  0  0  0
 24 28  1  0  0  0  0
 25 22  1  0  0  0  0
 25 26  2  0  0  0  0
 26 23  1  0  0  0  0
M  END
>  <MODEL>
1

>  <REMARK>
 VINA RESULT:      -9.1      0.000      0.000
  Name = 
  2 active torsions:
  status: ('A' for Active; 'I' for Inactive)
    1  A    between atoms: C_1  and  C_2
    2  A    between atoms: C_2  and  C_3
                            x       y       z     vdW  Elec       q    Type
                         _______ _______ _______ _____ _____    ______ ____

>  <TORSDO>
F 2

$$$$
=
 OpenBabel11052422543D

 28 32  0  0  1  0  0  0  0  0999 V2000
  160.5610  211.1270  154.2630 C   0  0  1  0  0  3  0  0  0  0  0  0
  161.9040  208.4540  150.0170 C   0  0  0  0  0  2  0  0  0  0  0  0
  160.8300  206.3620  155.6850 F   0  0  0  0  0  0  0  0  0  0  0  0
  161.6120  206.1240  150.7470 C   0  0  2  0  0  3  0  0  0  0  0  0
  161.0170  207.9700  152.3450 C   0  0  0  0  0  0  0  0  0  0  0  0
  161.6980  206.5670  148.3080 C   0  0  0  0  0  0  0  0  0  0  0  0
  161.0570  207.5400  150.8980 C   0  0  1  0  0  3  0  0  0  0  0  0
  161.1560  205.4850  153.0970 C   0  0  0  0  0  2  0  0  0  0  0  0
  161.5810  205.6890  149.3120 C   0  0  0  0  0  3  0  0  0  0  0  0
  160.7360  208.7530  155.1280 C   0  0  1  0  0  3  0  0  0  0  0  0
  160.8360  209.2570  152.6430 C   0  0  0  0  0  3  0  0  0  0  0  0
  160.8440  205.1650  151.6370 C   0  0  0  0  0  2  0  0  0  0  0  0
  162.1370  210.6500  156.1450 C   0  0  0  0  0  2  0  0  0  0  0  0
  160.8550  207.3110  154.7120 C   0  0  0  0  0  0  0  0  0  0  0  0
  161.8620  209.1390  156.0980 C   0  0  0  0  0  2  0  0  0  0  0  0
  161.7160  206.0960  147.0030 O   0  0  0  0  0  1  0  0  0  0  0  0
  161.7370  208.0600  148.5430 C   0  0  0  0  0  2  0  0  0  0  0  0
  160.9730  206.9470  153.4270 C   0  0  0  0  0  0  0  0  0  0  0  0
  160.9260  211.4720  155.7100 C   0  0  0  0  0  2  0  0  0  0  0  0
  160.6740  209.6910  153.9980 N   0  0  0  0  0  0  0  0  0  0  0  0
  159.1880  211.6960  153.8630 C   0  0  0  0  0  2  0  0  0  0  0  0
  159.1750  212.7470  152.7450 C   0  0  2  0  0  3  0  0  0  0  0  0
  158.9130  213.8160  150.1350 C   0  0  0  0  0  0  0  0  0  0  0  0
  157.7820  213.0100  152.1600 C   0  0  0  0  0  2  0  0  0  0  0  0
  160.1920  212.4550  151.6720 C   0  0  0  0  0  3  0  0  0  0  0  0
  160.0810  212.9850  150.4530 C   0  0  0  0  0  3  0  0  0  0  0  0
  158.8640  214.4530  149.0510 O   0  0  0  0  0  0  0  0  0  0  0  0
  157.8640  213.9080  151.0540 O   0  0  0  0  0  0  0  0  0  0  0  0
  1 21  1  1  0  0  0
  1 19  1  0  0  0  0
  4  9  1  6  0  0  0
  4  7  1  0  0  0  0
  4 12  1  0  0  0  0
  5 11  2  0  0  0  0
  5 18  1  0  0  0  0
  6 17  1  0  0  0  0
  6  9  2  0  0  0  0
  7  2  1  6  0  0  0
  7  5  1  0  0  0  0
  8 18  1  0  0  0  0
 10 15  1  1  0  0  0
 11 20  1  0  0  0  0
 12  8  1  0  0  0  0
 14 10  1  0  0  0  0
 14  3  1  0  0  0  0
 15 13  1  0  0  0  0
 16  6  1  0  0  0  0
 17  2  1  0  0  0  0
 18 14  2  0  0  0  0
 19 13  1  0  0  0  0
 20  1  1  0  0  0  0
 20 10  1  0  0  0  0
 22 21  1  1  0  0  0
 23 26  1  0  0  0  0
 23 28  1  0  0  0  0
 24 22  1  0  0  0  0
 25 22  1  0  0  0  0
 26 25  2  0  0  0  0
 27 23  2  0  0  0  0
 28 24  1  0  0  0  0
M  END
>  <MODEL>
2

>  <REMARK>
 VINA RESULT:      -8.6      2.108      2.585
  Name = 
  2 active torsions:
  status: ('A' for Active; 'I' for Inactive)
    1  A    between atoms: C_1  and  C_2
    2  A    between atoms: C_2  and  C_3
                            x       y       z     vdW  Elec       q    Type
                         _______ _______ _______ _____ _____    ______ ____

>  <TORSDO>
F 2

$$$$
=
 OpenBabel11052422543D

 28 32  0  0  1  0  0  0  0  0999 V2000
  160.8540  211.1490  154.6020 C   0  0  1  0  0  3  0  0  0  0  0  0
  162.0420  208.6740  150.1920 C   0  0  0  0  0  2  0  0  0  0  0  0
  160.7950  206.2940  155.7090 F   0  0  0  0  0  0  0  0  0  0  0  0
  161.5890  206.3260  150.7680 C   0  0  2  0  0  3  0  0  0  0  0  0
  161.1090  208.1000  152.4830 C   0  0  0  0  0  0  0  0  0  0  0  0
  161.7200  206.9210  148.3640 C   0  0  0  0  0  0  0  0  0  0  0  0
  161.1300  207.7630  151.0100 C   0  0  1  0  0  3  0  0  0  0  0  0
  161.0770  205.5670  153.0700 C   0  0  0  0  0  2  0  0  0  0  0  0
  161.5380  205.9890  149.3080 C   0  0  0  0  0  3  0  0  0  0  0  0
  160.8650  208.7170  155.3100 C   0  0  1  0  0  3  0  0  0  0  0  0
  161.0140  209.3740  152.8630 C   0  0  0  0  0  3  0  0  0  0  0  0
  160.7540  205.3650  151.5920 C   0  0  0  0  0  2  0  0  0  0  0  0
  162.3840  210.4450  156.4520 C   0  0  0  0  0  2  0  0  0  0  0  0
  160.8900  207.3000  154.8010 C   0  0  0  0  0  0  0  0  0  0  0  0
  162.0080  208.9620  156.3050 C   0  0  0  0  0  2  0  0  0  0  0  0
  161.7140  206.5350  147.0300 O   0  0  0  0  0  1  0  0  0  0  0  0
  161.8580  208.3900  148.6960 C   0  0  0  0  0  2  0  0  0  0  0  0
  160.9910  207.0140  153.4950 C   0  0  0  0  0  0  0  0  0  0  0  0
  161.2330  211.3730  156.0690 C   0  0  0  0  0  2  0  0  0  0  0  0
  160.8730  209.7280  154.2440 N   0  0  0  0  0  0  0  0  0  0  0  0
  159.5250  211.8330  154.2390 C   0  0  0  0  0  2  0  0  0  0  0  0
  158.2860  211.4030  155.0360 C   0  0  2  0  0  3  0  0  0  0  0  0
  155.9010  211.6600  156.5440 C   0  0  0  0  0  0  0  0  0  0  0  0
  156.9600  211.7070  154.3280 C   0  0  0  0  0  2  0  0  0  0  0  0
  158.3040  211.9260  156.4500 C   0  0  0  0  0  3  0  0  0  0  0  0
  157.1830  212.0170  157.1660 C   0  0  0  0  0  3  0  0  0  0  0  0
  154.8570  211.5850  157.2400 O   0  0  0  0  0  0  0  0  0  0  0  0
  155.8550  211.3860  155.1740 O   0  0  0  0  0  0  0  0  0  0  0  0
  1 21  1  1  0  0  0
  1 19  1  0  0  0  0
  4  9  1  6  0  0  0
  4  7  1  0  0  0  0
  4 12  1  0  0  0  0
  5 11  2  0  0  0  0
  5 18  1  0  0  0  0
  6 17  1  0  0  0  0
  6  9  2  0  0  0  0
  7  2  1  6  0  0  0
  7  5  1  0  0  0  0
  8 18  1  0  0  0  0
 10 15  1  1  0  0  0
 11 20  1  0  0  0  0
 12  8  1  0  0  0  0
 14 10  1  0  0  0  0
 14  3  1  0  0  0  0
 15 13  1  0  0  0  0
 16  6  1  0  0  0  0
 17  2  1  0  0  0  0
 18 14  2  0  0  0  0
 19 13  1  0  0  0  0
 20  1  1  0  0  0  0
 20 10  1  0  0  0  0
 22 21  1  6  0  0  0
 22 25  1  0  0  0  0
 23 26  1  0  0  0  0
 23 27  2  0  0  0  0
 24 22  1  0  0  0  0
 24 28  1  0  0  0  0
 25 26  2  0  0  0  0
 28 23  1  0  0  0  0
M  END
>  <MODEL>
3

>  <REMARK>
 VINA RESULT:      -8.5      1.261      1.535
  Name = 
  2 active torsions:
  status: ('A' for Active; 'I' for Inactive)
    1  A    between atoms: C_1  and  C_2
    2  A    between atoms: C_2  and  C_3
                            x       y       z     vdW  Elec       q    Type
                         _______ _______ _______ _____ _____    ______ ____

>  <TORSDO>
F 2

$$$$
=
 OpenBabel11052422543D

 28 32  0  0  1  0  0  0  0  0999 V2000
  160.8820  210.8120  152.7210 C   0  0  1  0  0  3  0  0  0  0  0  0
  162.0580  207.4590  148.9310 C   0  0  0  0  0  2  0  0  0  0  0  0
  160.7040  206.2910  154.8020 F   0  0  0  0  0  0  0  0  0  0  0  0
  161.5480  205.2890  149.9710 C   0  0  2  0  0  3  0  0  0  0  0  0
  161.0910  207.3870  151.2770 C   0  0  0  0  0  0  0  0  0  0  0  0
  161.7150  205.3730  147.4980 C   0  0  0  0  0  0  0  0  0  0  0  0
  161.1180  206.7540  149.9060 C   0  0  1  0  0  3  0  0  0  0  0  0
  160.9960  205.0310  152.3720 C   0  0  0  0  0  2  0  0  0  0  0  0
  161.5040  204.6590  148.6110 C   0  0  0  0  0  3  0  0  0  0  0  0
  160.8320  208.5780  153.9140 C   0  0  1  0  0  3  0  0  0  0  0  0
  161.0200  208.7140  151.3860 C   0  0  0  0  0  3  0  0  0  0  0  0
  160.6830  204.5350  150.9640 C   0  0  0  0  0  2  0  0  0  0  0  0
  162.3770  210.4740  154.6970 C   0  0  0  0  0  2  0  0  0  0  0  0
  160.8300  207.0870  153.7070 C   0  0  0  0  0  0  0  0  0  0  0  0
  161.9700  209.0000  154.8530 C   0  0  0  0  0  2  0  0  0  0  0  0
  161.7140  204.7220  146.2730 O   0  0  0  0  0  1  0  0  0  0  0  0
  161.8830  206.8760  147.5230 C   0  0  0  0  0  2  0  0  0  0  0  0
  160.9380  206.5350  152.4890 C   0  0  0  0  0  0  0  0  0  0  0  0
  161.2510  211.3260  154.1150 C   0  0  0  0  0  2  0  0  0  0  0  0
  160.8730  209.3480  152.6620 N   0  0  0  0  0  0  0  0  0  0  0  0
  159.5720  211.4330  152.2050 C   0  0  0  0  0  2  0  0  0  0  0  0
  159.7030  212.5450  151.1550 C   0  0  2  0  0  3  0  0  0  0  0  0
  159.7950  213.7570  148.5960 C   0  0  0  0  0  0  0  0  0  0  0  0
  158.4010  212.8320  150.3940 C   0  0  0  0  0  2  0  0  0  0  0  0
  160.8640  212.3190  150.2210 C   0  0  0  0  0  3  0  0  0  0  0  0
  160.9170  212.9160  149.0300 C   0  0  0  0  0  3  0  0  0  0  0  0
  159.8890  214.4530  147.5520 O   0  0  0  0  0  0  0  0  0  0  0  0
  158.6260  213.7910  149.3620 O   0  0  0  0  0  0  0  0  0  0  0  0
  1 21  1  1  0  0  0
  1 19  1  0  0  0  0
  4  9  1  6  0  0  0
  4 12  1  0  0  0  0
  5 11  2  0  0  0  0
  5 18  1  0  0  0  0
  6 17  1  0  0  0  0
  6  9  2  0  0  0  0
  7  2  1  6  0  0  0
  7  4  1  0  0  0  0
  7  5  1  0  0  0  0
  8 18  1  0  0  0  0
 10 15  1  1  0  0  0
 11 20  1  0  0  0  0
 12  8  1  0  0  0  0
 13 15  1  0  0  0  0
 14 10  1  0  0  0  0
 14  3  1  0  0  0  0
 16  6  1  0  0  0  0
 17  2  1  0  0  0  0
 18 14  2  0  0  0  0
 19 13  1  0  0  0  0
 20  1  1  0  0  0  0
 20 10  1  0  0  0  0
 22 21  1  6  0  0  0
 23 26  1  0  0  0  0
 23 28  1  0  0  0  0
 24 22  1  0  0  0  0
 25 22  1  0  0  0  0
 26 25  2  0  0  0  0
 27 23  2  0  0  0  0
 28 24  1  0  0  0  0
M  END
>  <MODEL>
4

>  <REMARK>
 VINA RESULT:      -7.5      2.772      3.346
  Name = 
  2 active torsions:
  status: ('A' for Active; 'I' for Inactive)
    1  A    between atoms: C_1  and  C_2
    2  A    between atoms: C_2  and  C_3
                            x       y       z     vdW  Elec       q    Type
                         _______ _______ _______ _____ _____    ______ ____

>  <TORSDO>
F 2

$$$$
=
 OpenBabel11052422543D

 28 32  0  0  1  0  0  0  0  0999 V2000
  161.0480  206.4620  149.8640 C   0  0  1  0  0  3  0  0  0  0  0  0
  159.2030  210.6110  152.3860 C   0  0  0  0  0  2  0  0  0  0  0  0
  162.3190  205.8280  154.6360 F   0  0  0  0  0  0  0  0  0  0  0  0
  160.2280  210.3760  154.6090 C   0  0  2  0  0  3  0  0  0  0  0  0
  160.8100  208.6970  152.8300 C   0  0  0  0  0  0  0  0  0  0  0  0
  159.3440  212.6040  153.9760 C   0  0  0  0  0  0  0  0  0  0  0  0
  160.4560  210.1380  153.1160 C   0  0  1  0  0  3  0  0  0  0  0  0
  161.4770  208.3580  155.3200 C   0  0  0  0  0  2  0  0  0  0  0  0
  159.9460  211.8230  154.8810 C   0  0  0  0  0  3  0  0  0  0  0  0
  161.6880  205.9860  152.2670 C   0  0  1  0  0  3  0  0  0  0  0  0
  160.7630  208.2470  151.5760 C   0  0  0  0  0  3  0  0  0  0  0  0
  161.4220  209.8800  155.4040 C   0  0  0  0  0  2  0  0  0  0  0  0
  160.2370  204.3480  150.9250 C   0  0  0  0  0  2  0  0  0  0  0  0
  161.7940  206.5920  153.6420 C   0  0  0  0  0  0  0  0  0  0  0  0
  160.8310  204.7130  152.2940 C   0  0  0  0  0  2  0  0  0  0  0  0
  159.0610  213.9220  154.3090 O   0  0  0  0  0  1  0  0  0  0  0  0
  159.0260  212.1230  152.5780 C   0  0  0  0  0  2  0  0  0  0  0  0
  161.4000  207.8470  153.9010 C   0  0  0  0  0  0  0  0  0  0  0  0
  161.0440  204.9330  149.7690 C   0  0  0  0  0  2  0  0  0  0  0  0
  161.2020  206.9240  151.2450 N   0  0  0  0  0  0  0  0  0  0  0  0
  162.0750  207.0970  148.9100 C   0  0  0  0  0  2  0  0  0  0  0  0
  161.9240  206.7720  147.4170 C   0  0  2  0  0  3  0  0  0  0  0  0
  161.3160  205.2660  145.0960 C   0  0  0  0  0  0  0  0  0  0  0  0
  160.4670  206.6160  146.9640 C   0  0  0  0  0  2  0  0  0  0  0  0
  162.7740  205.6000  146.9970 C   0  0  0  0  0  3  0  0  0  0  0  0
  162.5010  204.9140  145.8870 C   0  0  0  0  0  3  0  0  0  0  0  0
  161.1260  204.7420  143.9680 O   0  0  0  0  0  0  0  0  0  0  0  0
  160.4090  206.2030  145.5980 O   0  0  0  0  0  0  0  0  0  0  0  0
  1 21  1  6  0  0  0
  1 20  1  0  0  0  0
  2 17  1  0  0  0  0
  4  9  1  6  0  0  0
  4 12  1  0  0  0  0
  5  7  1  0  0  0  0
  5 18  1  0  0  0  0
  6 16  1  0  0  0  0
  6  9  2  0  0  0  0
  7  2  1  6  0  0  0
  7  4  1  0  0  0  0
  8 12  1  0  0  0  0
 10 15  1  1  0  0  0
 10 14  1  0  0  0  0
 11  5  2  0  0  0  0
 13 15  1  0  0  0  0
 14 18  2  0  0  0  0
 14  3  1  0  0  0  0
 17  6  1  0  0  0  0
 18  8  1  0  0  0  0
 19  1  1  0  0  0  0
 19 13  1  0  0  0  0
 20 11  1  0  0  0  0
 20 10  1  0  0  0  0
 22 21  1  1  0  0  0
 23 28  1  0  0  0  0
 23 26  1  0  0  0  0
 24 22  1  0  0  0  0
 25 22  1  0  0  0  0
 26 25  2  0  0  0  0
 27 23  2  0  0  0  0
 28 24  1  0  0  0  0
M  END
>  <MODEL>
5

>  <REMARK>
 VINA RESULT:      -7.4      1.934      8.207
  Name = 
  2 active torsions:
  status: ('A' for Active; 'I' for Inactive)
    1  A    between atoms: C_1  and  C_2
    2  A    between atoms: C_2  and  C_3
                            x       y       z     vdW  Elec       q    Type
                         _______ _______ _______ _____ _____    ______ ____

>  <TORSDO>
F 2

$$$$
=
 OpenBabel11052422543D

 28 32  0  0  1  0  0  0  0  0999 V2000
  161.4800  208.5280  149.2170 C   0  0  1  0  0  3  0  0  0  0  0  0
  159.3460  210.7020  153.4240 C   0  0  0  0  0  2  0  0  0  0  0  0
  161.9580  205.1770  152.8690 F   0  0  0  0  0  0  0  0  0  0  0  0
  159.9970  209.1430  155.2110 C   0  0  2  0  0  3  0  0  0  0  0  0
  160.8190  208.7090  152.8750 C   0  0  0  0  0  0  0  0  0  0  0  0
  159.2740  211.4200  155.8730 C   0  0  0  0  0  0  0  0  0  0  0  0
  160.4560  209.7650  153.8920 C   0  0  1  0  0  3  0  0  0  0  0  0
  161.0720  206.9530  154.7760 C   0  0  0  0  0  2  0  0  0  0  0  0
  159.7060  210.2040  156.2290 C   0  0  0  0  0  3  0  0  0  0  0  0
  161.7170  206.7120  150.9660 C   0  0  1  0  0  3  0  0  0  0  0  0
  160.9630  209.0530  151.5950 C   0  0  0  0  0  3  0  0  0  0  0  0
  161.0370  208.1580  155.7120 C   0  0  0  0  0  2  0  0  0  0  0  0
  160.4640  206.2880  148.7650 C   0  0  0  0  0  2  0  0  0  0  0  0
  161.6150  206.4200  152.4400 C   0  0  0  0  0  0  0  0  0  0  0  0
  160.8390  205.7490  150.1550 C   0  0  0  0  0  2  0  0  0  0  0  0
  158.9710  212.3420  156.8660 O   0  0  0  0  0  1  0  0  0  0  0  0
  159.1730  211.8500  154.4270 C   0  0  0  0  0  2  0  0  0  0  0  0
  161.2120  207.3450  153.3240 C   0  0  0  0  0  0  0  0  0  0  0  0
  161.4580  207.3310  148.2610 C   0  0  0  0  0  2  0  0  0  0  0  0
  161.4210  208.1100  150.6190 N   0  0  0  0  0  0  0  0  0  0  0  0
  162.6600  209.4730  148.9310 C   0  0  0  0  0  2  0  0  0  0  0  0
  162.3150  210.9420  148.6520 C   0  0  2  0  0  3  0  0  0  0  0  0
  161.8860  213.3130  147.1600 C   0  0  0  0  0  0  0  0  0  0  0  0
  161.0070  211.1330  147.8740 C   0  0  0  0  0  2  0  0  0  0  0  0
  163.4610  211.6910  148.0200 C   0  0  0  0  0  3  0  0  0  0  0  0
  163.2570  212.8220  147.3450 C   0  0  0  0  0  3  0  0  0  0  0  0
  161.6800  214.4510  146.6670 O   0  0  0  0  0  0  0  0  0  0  0  0
  160.8110  212.5100  147.5530 O   0  0  0  0  0  0  0  0  0  0  0  0
  1 21  1  1  0  0  0
  1 20  1  0  0  0  0
  2 17  1  0  0  0  0
  4 12  1  1  0  0  0
  4  9  1  0  0  0  0
  5 18  1  0  0  0  0
  5  7  1  0  0  0  0
  6  9  2  0  0  0  0
  6 16  1  0  0  0  0
  7  2  1  6  0  0  0
  7  4  1  0  0  0  0
  8 12  1  0  0  0  0
 10 15  1  6  0  0  0
 10 14  1  0  0  0  0
 11  5  2  0  0  0  0
 13 15  1  0  0  0  0
 14  3  1  0  0  0  0
 14 18  2  0  0  0  0
 17  6  1  0  0  0  0
 18  8  1  0  0  0  0
 19 13  1  0  0  0  0
 19  1  1  0  0  0  0
 20 10  1  0  0  0  0
 20 11  1  0  0  0  0
 22 21  1  6  0  0  0
 23 26  1  0  0  0  0
 23 28  1  0  0  0  0
 24 22  1  0  0  0  0
 25 22  1  0  0  0  0
 26 25  2  0  0  0  0
 27 23  2  0  0  0  0
 28 24  1  0  0  0  0
M  END
>  <MODEL>
6

>  <REMARK>
 VINA RESULT:      -6.9      3.419      7.026
  Name = 
  2 active torsions:
  status: ('A' for Active; 'I' for Inactive)
    1  A    between atoms: C_1  and  C_2
    2  A    between atoms: C_2  and  C_3
                            x       y       z     vdW  Elec       q    Type
                         _______ _______ _______ _____ _____    ______ ____

>  <TORSDO>
F 2

$$$$
=
 OpenBabel11052422543D

 28 32  0  0  1  0  0  0  0  0999 V2000
  160.6870  202.5150  147.8020 C   0  0  1  0  0  3  0  0  0  0  0  0
  160.9560  207.4920  149.2640 C   0  0  0  0  0  2  0  0  0  0  0  0
  161.1270  202.4530  152.7620 F   0  0  0  0  0  0  0  0  0  0  0  0
  161.5670  207.3110  151.6400 C   0  0  2  0  0  3  0  0  0  0  0  0
  161.3700  205.2040  150.2830 C   0  0  0  0  0  0  0  0  0  0  0  0
  161.9480  209.4870  150.5120 C   0  0  0  0  0  0  0  0  0  0  0  0
  161.7550  206.6650  150.2680 C   0  0  1  0  0  3  0  0  0  0  0  0
  161.5990  205.1630  152.8730 C   0  0  0  0  0  2  0  0  0  0  0  0
  162.0180  208.7410  151.6220 C   0  0  0  0  0  3  0  0  0  0  0  0
  160.8310  202.3500  150.3260 C   0  0  1  0  0  3  0  0  0  0  0  0
  161.1970  204.5590  149.1300 C   0  0  0  0  0  3  0  0  0  0  0  0
  162.2970  206.5080  152.7000 C   0  0  0  0  0  2  0  0  0  0  0  0
  158.8610  201.3280  149.0330 C   0  0  0  0  0  2  0  0  0  0  0  0
  161.1220  203.1270  151.5820 C   0  0  0  0  0  0  0  0  0  0  0  0
  159.4570  201.6710  150.4080 C   0  0  0  0  0  2  0  0  0  0  0  0
  162.3310  210.8200  150.5750 O   0  0  0  0  0  1  0  0  0  0  0  0
  161.5370  208.9100  149.1770 C   0  0  0  0  0  2  0  0  0  0  0  0
  161.3830  204.4430  151.5630 C   0  0  0  0  0  0  0  0  0  0  0  0
  159.9340  201.1900  147.9560 C   0  0  0  0  0  2  0  0  0  0  0  0
  160.9480  203.1490  149.0970 N   0  0  0  0  0  0  0  0  0  0  0  0
  161.9600  202.3610  146.9520 C   0  0  0  0  0  2  0  0  0  0  0  0
  162.0730  203.2560  145.7100 C   0  0  2  0  0  3  0  0  0  0  0  0
  161.5810  205.4530  143.9910 C   0  0  0  0  0  0  0  0  0  0  0  0
  162.7410  204.6100  145.9840 C   0  0  0  0  0  2  0  0  0  0  0  0
  160.7560  203.4120  144.9930 C   0  0  0  0  0  3  0  0  0  0  0  0
  160.5410  204.4320  144.1610 C   0  0  0  0  0  3  0  0  0  0  0  0
  161.4670  206.3330  143.0990 O   0  0  0  0  0  0  0  0  0  0  0  0
  162.7090  205.4300  144.8160 O   0  0  0  0  0  0  0  0  0  0  0  0
  1 21  1  1  0  0  0
  1 19  1  0  0  0  0
  1 20  1  0  0  0  0
  4  9  1  6  0  0  0
  4 12  1  0  0  0  0
  5 18  1  0  0  0  0
  6 16  1  0  0  0  0
  6  9  2  0  0  0  0
  7  2  1  6  0  0  0
  7  5  1  0  0  0  0
  7  4  1  0  0  0  0
 10 15  1  1  0  0  0
 10 14  1  0  0  0  0
 11  5  2  0  0  0  0
 12  8  1  0  0  0  0
 13 15  1  0  0  0  0
 14  3  1  0  0  0  0
 17  2  1  0  0  0  0
 17  6  1  0  0  0  0
 18 14  2  0  0  0  0
 18  8  1  0  0  0  0
 19 13  1  0  0  0  0
 20 11  1  0  0  0  0
 20 10  1  0  0  0  0
 22 24  1  0  0  0  0
 22 21  1  1  0  0  0
 23 26  1  0  0  0  0
 23 28  1  0  0  0  0
 25 22  1  0  0  0  0
 26 25  2  0  0  0  0
 27 23  2  0  0  0  0
 28 24  1  0  0  0  0
M  END
>  <MODEL>
7

>  <REMARK>
 VINA RESULT:      -6.3      4.636      9.097
  Name = 
  2 active torsions:
  status: ('A' for Active; 'I' for Inactive)
    1  A    between atoms: C_1  and  C_2
    2  A    between atoms: C_2  and  C_3
                            x       y       z     vdW  Elec       q    Type
                         _______ _______ _______ _____ _____    ______ ____

>  <TORSDO>
F 2

$$$$
=
 OpenBabel11052422543D

 28 32  0  0  1  0  0  0  0  0999 V2000
  161.5840  203.9410  148.3180 C   0  0  1  0  0  3  0  0  0  0  0  0
  161.7010  205.7780  153.1750 C   0  0  0  0  0  2  0  0  0  0  0  0
  161.4010  208.9000  147.9010 F   0  0  0  0  0  0  0  0  0  0  0  0
  161.2060  208.1650  152.8480 C   0  0  2  0  0  3  0  0  0  0  0  0
  161.2000  206.6480  150.8440 C   0  0  0  0  0  0  0  0  0  0  0  0
  160.9020  207.2240  155.1220 C   0  0  0  0  0  0  0  0  0  0  0  0
  160.9060  206.7620  152.3210 C   0  0  1  0  0  3  0  0  0  0  0  0
  161.1050  209.2360  150.6160 C   0  0  0  0  0  2  0  0  0  0  0  0
  160.8440  208.2780  154.2980 C   0  0  0  0  0  3  0  0  0  0  0  0
  161.5620  206.4490  147.9680 C   0  0  1  0  0  3  0  0  0  0  0  0
  161.2710  205.4420  150.2800 C   0  0  0  0  0  3  0  0  0  0  0  0
  160.4830  209.2030  152.0100 C   0  0  0  0  0  2  0  0  0  0  0  0
  163.3940  204.9750  146.9360 C   0  0  0  0  0  2  0  0  0  0  0  0
  161.3850  207.7740  148.6620 C   0  0  0  0  0  0  0  0  0  0  0  0
  162.8930  206.4030  147.2060 C   0  0  0  0  0  2  0  0  0  0  0  0
  160.6060  207.4060  156.4660 O   0  0  0  0  0  1  0  0  0  0  0  0
  161.2060  205.8280  154.6270 C   0  0  0  0  0  2  0  0  0  0  0  0
  161.2070  207.8670  149.9880 C   0  0  0  0  0  0  0  0  0  0  0  0
  162.2590  203.9530  146.9430 C   0  0  0  0  0  2  0  0  0  0  0  0
  161.4310  205.2910  148.8650 N   0  0  0  0  0  0  0  0  0  0  0  0
  160.2610  203.1550  148.3040 C   0  0  0  0  0  2  0  0  0  0  0  0
  160.3090  201.7330  147.7280 C   0  0  2  0  0  3  0  0  0  0  0  0
  161.2060  199.5550  146.1530 C   0  0  0  0  0  0  0  0  0  0  0  0
  161.5460  200.9350  148.1570 C   0  0  0  0  0  2  0  0  0  0  0  0
  160.1140  201.7130  146.2330 C   0  0  0  0  0  3  0  0  0  0  0  0
  160.5110  200.6720  145.5000 C   0  0  0  0  0  3  0  0  0  0  0  0
  161.4480  198.4980  145.5160 O   0  0  0  0  0  0  0  0  0  0  0  0
  161.5810  199.6700  147.4950 O   0  0  0  0  0  0  0  0  0  0  0  0
  1 21  1  6  0  0  0
  1 20  1  0  0  0  0
  2 17  1  0  0  0  0
  3 14  1  0  0  0  0
  4 12  1  6  0  0  0
  4  9  1  0  0  0  0
  5  7  1  0  0  0  0
  6 16  1  0  0  0  0
  7  4  1  0  0  0  0
  7  2  1  1  0  0  0
  8 12  1  0  0  0  0
  9  6  2  0  0  0  0
 10 15  1  1  0  0  0
 10 14  1  0  0  0  0
 10 20  1  0  0  0  0
 11  5  2  0  0  0  0
 13 19  1  0  0  0  0
 13 15  1  0  0  0  0
 14 18  2  0  0  0  0
 17  6  1  0  0  0  0
 18  8  1  0  0  0  0
 18  5  1  0  0  0  0
 19  1  1  0  0  0  0
 20 11  1  0  0  0  0
 22 24  1  0  0  0  0
 22 21  1  6  0  0  0
 23 28  1  0  0  0  0
 25 22  1  0  0  0  0
 26 23  1  0  0  0  0
 26 25  2  0  0  0  0
 27 23  2  0  0  0  0
 28 24  1  0  0  0  0
M  END
>  <MODEL>
8

>  <REMARK>
 VINA RESULT:      -6.1      4.024      9.841
  Name = 
  2 active torsions:
  status: ('A' for Active; 'I' for Inactive)
    1  A    between atoms: C_1  and  C_2
    2  A    between atoms: C_2  and  C_3
                            x       y       z     vdW  Elec       q    Type
                         _______ _______ _______ _____ _____    ______ ____

>  <TORSDO>
F 2

$$$$
