=
 OpenBabel11062410373D

 32 37  0  0  0  0  0  0  0  0999 V2000
  161.4270  203.4550  147.2690 C   0  0  0  0  0  3  0  0  0  0  0  0
  161.3050  207.2930  150.8770 C   0  0  0  0  0  0  0  0  0  0  0  0
  161.8370  211.4040  148.2260 C   0  0  0  0  0  2  0  0  0  0  0  0
  162.5050  211.9100  149.3580 O   0  0  0  0  0  0  0  0  0  0  0  0
  161.0290  207.9220  153.2990 C   0  0  0  0  0  0  0  0  0  0  0  0
  160.8060  206.7830  154.0930 C   0  0  0  0  0  0  0  0  0  0  0  0
  161.2180  205.0850  149.9590 C   0  0  0  0  0  0  0  0  0  0  0  0
  161.5940  206.9790  148.5030 C   0  0  0  0  0  3  0  0  0  0  0  0
  160.8890  209.3760  155.2400 C   0  0  0  0  0  0  0  0  0  0  0  0
  161.5280  204.8940  147.5290 C   0  0  0  0  0  3  0  0  0  0  0  0
  162.0120  209.8830  148.1590 C   0  0  0  0  0  2  0  0  0  0  0  0
  161.5290  207.8400  149.5970 C   0  0  0  0  0  0  0  0  0  0  0  0
  161.6790  209.2710  149.4490 N   0  0  0  0  0  0  0  0  0  0  0  0
  161.3930  209.5080  151.8090 C   0  0  0  0  0  0  0  0  0  0  0  0
  160.6660  208.2500  156.0450 C   0  0  0  0  0  3  0  0  0  0  0  0
  161.0360  202.5820  149.5520 C   0  0  0  0  0  3  0  0  0  0  0  0
  161.4430  205.5980  148.6570 C   0  0  0  0  0  0  0  0  0  0  0  0
  160.6250  206.9640  155.4750 C   0  0  0  0  0  3  0  0  0  0  0  0
  161.0370  203.6720  150.3110 C   0  0  0  0  0  3  0  0  0  0  0  0
  161.2190  202.4410  148.1020 C   0  0  0  0  0  0  0  0  0  0  0  0
  161.7170  211.5870  150.4800 C   0  0  0  0  0  2  0  0  0  0  0  0
  161.6200  210.0970  150.6310 C   0  0  0  0  0  0  0  0  0  0  0  0
  161.2840  210.1160  152.9710 O   0  0  0  0  0  0  0  0  0  0  0  0
  161.1590  205.9510  151.0080 N   0  0  0  0  0  0  0  0  0  0  0  0
  160.7600  205.5010  153.5660 O   0  0  0  0  0  1  0  0  0  0  0  0
  160.9300  210.6470  155.7960 O   0  0  0  0  0  1  0  0  0  0  0  0
  161.2420  208.1300  151.9360 C   0  0  0  0  0  0  0  0  0  0  0  0
  161.0660  209.1830  153.8710 C   0  0  0  0  0  0  0  0  0  0  0  0
  160.8290  200.8090  146.1540 C   0  0  0  0  0  0  0  0  0  0  0  0
  161.1750  201.1370  147.5070 N   0  0  0  0  0  2  0  0  0  0  0  0
  160.5170  201.6990  145.3210 O   0  0  0  0  0  0  0  0  0  0  0  0
  160.8430  199.3850  145.7270 C   0  0  0  0  0  1  0  0  0  0  0  0
  1 10  1  0  0  0  0
  1 20  2  0  0  0  0
  2 24  1  0  0  0  0
  2 27  2  0  0  0  0
  3  4  1  0  0  0  0
  4 21  1  0  0  0  0
  5 28  2  0  0  0  0
  5  6  1  0  0  0  0
  6 18  2  0  0  0  0
  7 19  1  0  0  0  0
  7 24  2  0  0  0  0
  8 17  1  0  0  0  0
  8 12  2  0  0  0  0
  9 26  1  0  0  0  0
  9 15  2  0  0  0  0
 10 17  2  0  0  0  0
 11  3  1  0  0  0  0
 11 13  1  0  0  0  0
 12  2  1  0  0  0  0
 13 12  1  0  0  0  0
 13 22  1  0  0  0  0
 14 27  1  0  0  0  0
 14 23  1  0  0  0  0
 16 19  2  0  0  0  0
 17  7  1  0  0  0  0
 18 15  1  0  0  0  0
 20 16  1  0  0  0  0
 21 22  1  0  0  0  0
 22 14  2  0  0  0  0
 23 28  1  0  0  0  0
 25  6  1  0  0  0  0
 27  5  1  0  0  0  0
 28  9  1  0  0  0  0
 29 30  1  0  0  0  0
 30 20  1  0  0  0  0
 31 29  2  0  0  0  0
 32 29  1  0  0  0  0
M  END
>  <MODEL>
1

>  <REMARK>
 VINA RESULT:     -10.1      0.000      0.000
  Name = 
  1 active torsions:
  status: ('A' for Active; 'I' for Inactive)
    1  A    between atoms: N_10  and  C_24
                            x       y       z     vdW  Elec       q    Type
                         _______ _______ _______ _____ _____    ______ ____

>  <TORSDO>
F 1

$$$$
=
 OpenBabel11062410373D

 32 37  0  0  0  0  0  0  0  0999 V2000
  161.1030  201.7760  149.9800 C   0  0  0  0  0  3  0  0  0  0  0  0
  161.2100  206.9510  150.9700 C   0  0  0  0  0  0  0  0  0  0  0  0
  160.7130  207.2150  155.8580 C   0  0  0  0  0  2  0  0  0  0  0  0
  160.0370  208.4250  155.6080 O   0  0  0  0  0  0  0  0  0  0  0  0
  161.4700  209.2820  150.0560 C   0  0  0  0  0  0  0  0  0  0  0  0
  161.6820  209.2570  148.6660 C   0  0  0  0  0  0  0  0  0  0  0  0
  161.2960  204.9120  149.7200 C   0  0  0  0  0  0  0  0  0  0  0  0
  160.9380  204.8430  152.1110 C   0  0  0  0  0  3  0  0  0  0  0  0
  161.5990  211.7080  150.0930 C   0  0  0  0  0  0  0  0  0  0  0  0
  161.0050  202.8310  150.9930 C   0  0  0  0  0  3  0  0  0  0  0  0
  160.5330  206.2670  154.6670 C   0  0  0  0  0  2  0  0  0  0  0  0
  160.9980  206.2350  152.1650 C   0  0  0  0  0  0  0  0  0  0  0  0
  160.8540  206.9540  153.4120 N   0  0  0  0  0  0  0  0  0  0  0  0
  161.1220  209.0050  152.2170 C   0  0  0  0  0  0  0  0  0  0  0  0
  161.8120  211.7000  148.7070 C   0  0  0  0  0  3  0  0  0  0  0  0
  161.4730  203.1150  147.9310 C   0  0  0  0  0  3  0  0  0  0  0  0
  161.0840  204.1580  150.9010 C   0  0  0  0  0  0  0  0  0  0  0  0
  161.8530  210.4840  148.0000 C   0  0  0  0  0  3  0  0  0  0  0  0
  161.4700  204.3690  148.3670 C   0  0  0  0  0  3  0  0  0  0  0  0
  161.3010  201.8570  148.6690 C   0  0  0  0  0  0  0  0  0  0  0  0
  160.8150  209.1470  154.6820 C   0  0  0  0  0  2  0  0  0  0  0  0
  160.9070  208.3960  153.3870 C   0  0  0  0  0  0  0  0  0  0  0  0
  161.2240  210.3030  152.0270 O   0  0  0  0  0  0  0  0  0  0  0  0
  161.3510  206.2700  149.8040 N   0  0  0  0  0  0  0  0  0  0  0  0
  161.7280  208.0790  147.9370 O   0  0  0  0  0  1  0  0  0  0  0  0
  161.5580  212.9040  150.7970 O   0  0  0  0  0  1  0  0  0  0  0  0
  161.2670  208.3000  151.0260 C   0  0  0  0  0  0  0  0  0  0  0  0
  161.4320  210.4850  150.7420 C   0  0  0  0  0  0  0  0  0  0  0  0
  161.0860  200.3910  146.5680 C   0  0  0  0  0  0  0  0  0  0  0  0
  161.3450  200.6100  147.9610 N   0  0  0  0  0  2  0  0  0  0  0  0
  160.7790  201.3390  145.7990 O   0  0  0  0  0  0  0  0  0  0  0  0
  161.1830  199.0130  146.0190 C   0  0  0  0  0  1  0  0  0  0  0  0
  1 10  1  0  0  0  0
  2 27  2  0  0  0  0
  2 12  1  0  0  0  0
  4  3  1  0  0  0  0
  5 28  1  0  0  0  0
  5 27  1  0  0  0  0
  6  5  2  0  0  0  0
  7 24  2  0  0  0  0
  7 17  1  0  0  0  0
  8 12  2  0  0  0  0
  9 28  2  0  0  0  0
  9 26  1  0  0  0  0
 11  3  1  0  0  0  0
 12 13  1  0  0  0  0
 13 11  1  0  0  0  0
 14 22  2  0  0  0  0
 15  9  1  0  0  0  0
 16 19  2  0  0  0  0
 16 20  1  0  0  0  0
 17 10  2  0  0  0  0
 17  8  1  0  0  0  0
 18  6  1  0  0  0  0
 18 15  2  0  0  0  0
 19  7  1  0  0  0  0
 20  1  2  0  0  0  0
 21  4  1  0  0  0  0
 22 13  1  0  0  0  0
 22 21  1  0  0  0  0
 23 14  1  0  0  0  0
 24  2  1  0  0  0  0
 25  6  1  0  0  0  0
 27 14  1  0  0  0  0
 28 23  1  0  0  0  0
 29 30  1  0  0  0  0
 30 20  1  0  0  0  0
 31 29  2  0  0  0  0
 32 29  1  0  0  0  0
M  END
>  <MODEL>
2

>  <REMARK>
 VINA RESULT:      -7.9      1.327      4.417
  Name = 
  1 active torsions:
  status: ('A' for Active; 'I' for Inactive)
    1  A    between atoms: N_10  and  C_24
                            x       y       z     vdW  Elec       q    Type
                         _______ _______ _______ _____ _____    ______ ____

>  <TORSDO>
F 1

$$$$
=
 OpenBabel11062410373D

 32 37  0  0  0  0  0  0  0  0999 V2000
  161.2090  214.4530  147.7970 C   0  0  0  0  0  3  0  0  0  0  0  0
  160.4330  211.3730  152.0020 C   0  0  0  0  0  0  0  0  0  0  0  0
  157.6210  214.1240  154.9590 C   0  0  0  0  0  2  0  0  0  0  0  0
  158.2850  213.4640  156.0120 O   0  0  0  0  0  0  0  0  0  0  0  0
  160.8090  209.1370  153.0940 C   0  0  0  0  0  0  0  0  0  0  0  0
  161.5540  208.2870  152.2570 C   0  0  0  0  0  0  0  0  0  0  0  0
  161.2020  212.0520  149.8400 C   0  0  0  0  0  0  0  0  0  0  0  0
  159.9160  213.5870  151.1960 C   0  0  0  0  0  3  0  0  0  0  0  0
  160.6630  207.4210  154.8080 C   0  0  0  0  0  0  0  0  0  0  0  0
  160.6130  214.3290  149.1310 C   0  0  0  0  0  3  0  0  0  0  0  0
  158.5430  214.2050  153.7370 C   0  0  0  0  0  2  0  0  0  0  0  0
  159.8210  212.6280  152.2030 C   0  0  0  0  0  0  0  0  0  0  0  0
  159.1110  212.8870  153.4360 N   0  0  0  0  0  0  0  0  0  0  0  0
  159.6670  210.6850  154.1750 C   0  0  0  0  0  0  0  0  0  0  0  0
  161.4050  206.5620  153.9850 C   0  0  0  0  0  3  0  0  0  0  0  0
  162.2510  212.2230  147.5310 C   0  0  0  0  0  3  0  0  0  0  0  0
  160.6000  213.3250  150.0060 C   0  0  0  0  0  0  0  0  0  0  0  0
  161.8470  206.9920  152.7200 C   0  0  0  0  0  3  0  0  0  0  0  0
  161.9570  211.5990  148.6650 C   0  0  0  0  0  3  0  0  0  0  0  0
  161.9120  213.5800  147.0840 C   0  0  0  0  0  0  0  0  0  0  0  0
  158.2910  212.0910  155.6980 C   0  0  0  0  0  2  0  0  0  0  0  0
  159.0740  211.8520  154.4400 C   0  0  0  0  0  0  0  0  0  0  0  0
  159.7010  209.6350  154.9670 O   0  0  0  0  0  0  0  0  0  0  0  0
  161.0920  211.1350  150.8410 N   0  0  0  0  0  0  0  0  0  0  0  0
  162.0060  208.6770  151.0060 O   0  0  0  0  0  1  0  0  0  0  0  0
  160.2240  207.0030  156.0560 O   0  0  0  0  0  1  0  0  0  0  0  0
  160.3400  210.4460  152.9800 C   0  0  0  0  0  0  0  0  0  0  0  0
  160.3790  208.7020  154.3370 C   0  0  0  0  0  0  0  0  0  0  0  0
  161.8780  213.5960  144.5130 C   0  0  0  0  0  0  0  0  0  0  0  0
  162.3520  214.0300  145.7950 N   0  0  0  0  0  2  0  0  0  0  0  0
  160.9740  212.7260  144.4070 O   0  0  0  0  0  0  0  0  0  0  0  0
  162.4660  214.1870  143.2830 C   0  0  0  0  0  1  0  0  0  0  0  0
  1 10  1  0  0  0  0
  2 12  1  0  0  0  0
  2 27  2  0  0  0  0
  3  4  1  0  0  0  0
  5 28  1  0  0  0  0
  6 18  1  0  0  0  0
  6  5  2  0  0  0  0
  7 17  1  0  0  0  0
  7 24  2  0  0  0  0
  8 12  2  0  0  0  0
  9 26  1  0  0  0  0
 10 17  2  0  0  0  0
 11  3  1  0  0  0  0
 12 13  1  0  0  0  0
 13 11  1  0  0  0  0
 13 22  1  0  0  0  0
 14 22  2  0  0  0  0
 14 23  1  0  0  0  0
 15  9  1  0  0  0  0
 16 19  2  0  0  0  0
 17  8  1  0  0  0  0
 18 15  2  0  0  0  0
 19  7  1  0  0  0  0
 20 16  1  0  0  0  0
 20  1  2  0  0  0  0
 21  4  1  0  0  0  0
 22 21  1  0  0  0  0
 24  2  1  0  0  0  0
 25  6  1  0  0  0  0
 27  5  1  0  0  0  0
 27 14  1  0  0  0  0
 28  9  2  0  0  0  0
 28 23  1  0  0  0  0
 29 30  1  0  0  0  0
 30 20  1  0  0  0  0
 31 29  2  0  0  0  0
 32 29  1  0  0  0  0
M  END
>  <MODEL>
3

>  <REMARK>
 VINA RESULT:      -7.5      4.634      7.534
  Name = 
  1 active torsions:
  status: ('A' for Active; 'I' for Inactive)
    1  A    between atoms: N_10  and  C_24
                            x       y       z     vdW  Elec       q    Type
                         _______ _______ _______ _____ _____    ______ ____

>  <TORSDO>
F 1

$$$$
=
 OpenBabel11062410373D

 32 37  0  0  0  0  0  0  0  0999 V2000
  161.6760  204.5970  147.4750 C   0  0  0  0  0  3  0  0  0  0  0  0
  161.2020  208.5010  150.9830 C   0  0  0  0  0  0  0  0  0  0  0  0
  161.3100  212.5720  148.2200 C   0  0  0  0  0  2  0  0  0  0  0  0
  161.9330  213.1700  149.3320 O   0  0  0  0  0  0  0  0  0  0  0  0
  160.8820  209.1650  153.3890 C   0  0  0  0  0  0  0  0  0  0  0  0
  160.7780  208.0310  154.2150 C   0  0  0  0  0  0  0  0  0  0  0  0
  161.3260  206.2710  150.1230 C   0  0  0  0  0  0  0  0  0  0  0  0
  161.5050  208.1530  148.6150 C   0  0  0  0  0  3  0  0  0  0  0  0
  160.6140  210.6500  155.2930 C   0  0  0  0  0  0  0  0  0  0  0  0
  161.6370  206.0460  147.6960 C   0  0  0  0  0  3  0  0  0  0  0  0
  161.6330  211.0740  148.1910 C   0  0  0  0  0  2  0  0  0  0  0  0
  161.3620  209.0330  149.6870 C   0  0  0  0  0  0  0  0  0  0  0  0
  161.3700  210.4670  149.5000 N   0  0  0  0  0  0  0  0  0  0  0  0
  161.0800  210.7390  151.8550 C   0  0  0  0  0  0  0  0  0  0  0  0
  160.5080  209.5300  156.1300 C   0  0  0  0  0  3  0  0  0  0  0  0
  161.3870  203.7530  149.7840 C   0  0  0  0  0  3  0  0  0  0  0  0
  161.4900  206.7690  148.8060 C   0  0  0  0  0  0  0  0  0  0  0  0
  160.5900  208.2310  155.5940 C   0  0  0  0  0  3  0  0  0  0  0  0
  161.2870  204.8570  150.5140 C   0  0  0  0  0  3  0  0  0  0  0  0
  161.5730  203.5910  148.3360 C   0  0  0  0  0  0  0  0  0  0  0  0
  161.1890  212.8020  150.4690 C   0  0  0  0  0  2  0  0  0  0  0  0
  161.2390  211.3150  150.6600 C   0  0  0  0  0  0  0  0  0  0  0  0
  160.9190  211.3640  153.0020 O   0  0  0  0  0  0  0  0  0  0  0  0
  161.1890  207.1550  151.1500 N   0  0  0  0  0  0  0  0  0  0  0  0
  160.8540  206.7370  153.7220 O   0  0  0  0  0  1  0  0  0  0  0  0
  160.5340  211.9340  155.8150 O   0  0  0  0  0  1  0  0  0  0  0  0
  161.0650  209.3560  152.0200 C   0  0  0  0  0  0  0  0  0  0  0  0
  160.8000  210.4390  153.9280 C   0  0  0  0  0  0  0  0  0  0  0  0
  160.8510  201.1340  148.1150 C   0  0  0  0  0  0  0  0  0  0  0  0
  161.6530  202.2730  147.7760 N   0  0  0  0  0  2  0  0  0  0  0  0
  159.9490  201.2010  148.9890 O   0  0  0  0  0  0  0  0  0  0  0  0
  161.0900  199.8440  147.4160 C   0  0  0  0  0  1  0  0  0  0  0  0
  1 10  1  0  0  0  0
  1 20  2  0  0  0  0
  2 24  1  0  0  0  0
  2 27  2  0  0  0  0
  3  4  1  0  0  0  0
  4 21  1  0  0  0  0
  5 28  2  0  0  0  0
  5  6  1  0  0  0  0
  6 18  2  0  0  0  0
  7 19  1  0  0  0  0
  7 24  2  0  0  0  0
  8 17  1  0  0  0  0
  8 12  2  0  0  0  0
  9 26  1  0  0  0  0
  9 15  2  0  0  0  0
 10 17  2  0  0  0  0
 11  3  1  0  0  0  0
 11 13  1  0  0  0  0
 12  2  1  0  0  0  0
 13 12  1  0  0  0  0
 13 22  1  0  0  0  0
 14 27  1  0  0  0  0
 14 23  1  0  0  0  0
 16 19  2  0  0  0  0
 17  7  1  0  0  0  0
 18 15  1  0  0  0  0
 20 16  1  0  0  0  0
 21 22  1  0  0  0  0
 22 14  2  0  0  0  0
 23 28  1  0  0  0  0
 25  6  1  0  0  0  0
 27  5  1  0  0  0  0
 28  9  1  0  0  0  0
 29 31  2  0  0  0  0
 30 29  1  0  0  0  0
 30 20  1  0  0  0  0
 32 29  1  0  0  0  0
M  END
>  <MODEL>
4

>  <REMARK>
 VINA RESULT:      -7.1      1.259      1.444
  Name = 
  1 active torsions:
  status: ('A' for Active; 'I' for Inactive)
    1  A    between atoms: N_10  and  C_24
                            x       y       z     vdW  Elec       q    Type
                         _______ _______ _______ _____ _____    ______ ____

>  <TORSDO>
F 1

$$$$
