=
 OpenBabel11062408023D

 34 38  0  0  1  0  0  0  0  0999 V2000
  161.1400  202.3860  147.2300 C   0  0  0  0  0  0  0  0  0  0  0  0
  161.6130  204.5910  146.9030 C   0  0  2  0  0  3  0  0  0  0  0  0
  161.2430  203.8100  149.1710 C   0  0  0  0  0  0  0  0  0  0  0  0
  160.6100  205.6890  150.7730 C   0  0  1  0  0  3  0  0  0  0  0  0
  161.3430  203.9720  145.7520 C   0  0  2  0  0  3  0  0  0  0  0  0
  161.1280  204.6670  144.4520 C   0  0  0  0  0  1  0  0  0  0  0  0
  161.8580  206.2420  148.7590 C   0  0  1  0  0  3  0  0  0  0  0  0
  161.4870  203.5840  147.9010 C   0  0  0  0  0  0  0  0  0  0  0  0
  160.7260  207.2040  150.6850 C   0  0  0  0  0  2  0  0  0  0  0  0
  161.0240  202.5780  145.9540 N   0  0  0  0  0  0  0  0  0  0  0  0
  160.4430  201.3790  149.2480 C   0  0  0  0  0  3  0  0  0  0  0  0
  160.6180  201.2740  147.9540 N   0  0  0  0  0  0  0  0  0  0  0  0
  161.5130  206.0440  147.2600 C   0  0  0  0  0  2  0  0  0  0  0  0
  161.2490  207.5260  149.2850 C   0  0  1  0  0  3  0  0  0  0  0  0
  161.3230  205.1780  149.6190 N   0  0  0  0  0  0  0  0  0  0  0  0
  160.7520  202.6600  150.0350 C   0  0  0  0  0  2  0  0  0  0  0  0
  162.3030  208.6210  149.3400 C   0  0  0  0  0  2  0  0  0  0  0  0
  162.0400  209.5850  150.4880 C   0  0  0  0  0  2  0  0  0  0  0  0
  161.8390  210.9930  149.9650 C   0  0  0  0  0  2  0  0  0  0  0  0
  162.1670  211.0330  148.4850 C   0  0  0  0  0  2  0  0  0  0  0  0
  162.6950  212.4030  148.0930 C   0  0  0  0  0  2  0  0  0  0  0  0
  161.9620  212.9380  146.9020 C   0  0  0  0  0  0  0  0  0  0  0  0
  162.6120  213.2500  145.8710 O   0  0  0  0  0  0  0  0  0  0  0  0
  159.7120  212.4730  146.0020 C   0  0  0  0  0  1  0  0  0  0  0  0
  160.5780  213.1260  146.9180 O   0  0  0  0  0  0  0  0  0  0  0  0
  161.2640  205.1940  152.0570 C   0  0  0  0  0  2  0  0  0  0  0  0
  161.8830  206.3440  152.8350 C   0  0  0  0  0  2  0  0  0  0  0  0
  160.8050  207.1550  153.5330 C   0  0  2  0  0  3  0  0  0  0  0  0
  161.3940  208.4730  153.9950 C   0  0  2  0  0  3  0  0  0  0  0  0
  161.1690  207.3290  154.9940 C   0  0  1  0  0  3  0  0  0  0  0  0
  160.3270  209.5260  153.9890 C   0  0  0  0  0  3  0  0  0  0  0  0
  160.6590  210.8090  153.8780 C   0  0  0  0  0  2  0  0  0  0  0  0
  159.8940  207.4280  155.8240 C   0  0  0  0  0  2  0  0  0  0  0  0
  160.1130  206.8670  157.0800 O   0  0  0  0  0  1  0  0  0  0  0  0
  1  8  1  0  0  0  0
  1 12  1  0  0  0  0
  2 13  1  1  0  0  0
  2  8  1  0  0  0  0
  3 15  1  0  0  0  0
  3 16  1  0  0  0  0
  4 26  1  1  0  0  0
  5  6  1  1  0  0  0
  5 10  1  0  0  0  0
  5  2  1  0  0  0  0
  7 13  1  6  0  0  0
  7 14  1  0  0  0  0
  7 15  1  0  0  0  0
  8  3  2  0  0  0  0
  9  4  1  0  0  0  0
 10  1  2  0  0  0  0
 11 16  1  0  0  0  0
 12 11  2  0  0  0  0
 14 17  1  1  0  0  0
 14  9  1  0  0  0  0
 15  4  1  0  0  0  0
 17 18  1  0  0  0  0
 19 18  1  0  0  0  0
 20 19  1  0  0  0  0
 21 20  1  0  0  0  0
 22 25  1  0  0  0  0
 22 21  1  0  0  0  0
 23 22  2  0  0  0  0
 24 25  1  0  0  0  0
 26 27  1  0  0  0  0
 28 27  1  6  0  0  0
 28 29  1  0  0  0  0
 28 30  1  0  0  0  0
 29 31  1  1  0  0  0
 29 30  1  0  0  0  0
 30 33  1  1  0  0  0
 32 31  2  0  0  0  0
 33 34  1  0  0  0  0
M  END
>  <MODEL>
1

>  <REMARK>
 VINA RESULT:      -8.4      0.000      0.000
  Name = 
  12 active torsions:
  status: ('A' for Active; 'I' for Inactive)
    1  A    between atoms: C_3  and  C_13
    2  A    between atoms: C_3  and  C_17
    3  A    between atoms: C_5  and  C_26
    4  A    between atoms: C_7  and  C_16
    5  A    between atoms: C_12  and  C_28
    6  A    between atoms: C_13  and  C_33
    7  A    between atoms: O_14  and  C_20
    8  A    between atoms: C_17  and  C_29
    9  A    between atoms: C_20  and  C_34
   10  A    between atoms: C_23  and  C_27
   11  A    between atoms: C_26  and  C_28
   12  A    between atoms: C_33  and  C_34
                            x       y       z     vdW  Elec       q    Type
                         _______ _______ _______ _____ _____    ______ ____

>  <TORSDO>
F 12

$$$$
=
 OpenBabel11062408023D

 34 38  0  0  1  0  0  0  0  0999 V2000
  161.1910  204.2490  148.4970 C   0  0  0  0  0  0  0  0  0  0  0  0
  160.8280  205.0680  150.5930 C   0  0  2  0  0  3  0  0  0  0  0  0
  161.3770  206.6300  148.8180 C   0  0  0  0  0  0  0  0  0  0  0  0
  162.2860  208.8440  149.6960 C   0  0  1  0  0  3  0  0  0  0  0  0
  160.9400  203.7380  150.5990 C   0  0  2  0  0  3  0  0  0  0  0  0
  161.0650  202.9090  151.8300 C   0  0  0  0  0  1  0  0  0  0  0  0
  160.8780  207.5000  151.1540 C   0  0  1  0  0  3  0  0  0  0  0  0
  160.9910  205.4450  149.2290 C   0  0  0  0  0  0  0  0  0  0  0  0
  162.2580  209.5000  151.0680 C   0  0  0  0  0  2  0  0  0  0  0  0
  161.1890  203.2140  149.2760 N   0  0  0  0  0  0  0  0  0  0  0  0
  162.0240  205.4470  146.6420 C   0  0  0  0  0  3  0  0  0  0  0  0
  161.7120  204.2900  147.1710 N   0  0  0  0  0  0  0  0  0  0  0  0
  161.0560  206.0580  151.6970 C   0  0  0  0  0  2  0  0  0  0  0  0
  161.6160  208.4950  152.0250 C   0  0  1  0  0  3  0  0  0  0  0  0
  161.4290  207.6800  149.8040 N   0  0  0  0  0  0  0  0  0  0  0  0
  161.8780  206.7790  147.3910 C   0  0  0  0  0  2  0  0  0  0  0  0
  160.6450  209.1890  152.9670 C   0  0  0  0  0  2  0  0  0  0  0  0
  160.8470  210.6970  152.9580 C   0  0  0  0  0  2  0  0  0  0  0  0
  160.5160  211.2870  154.3140 C   0  0  0  0  0  2  0  0  0  0  0  0
  159.7870  210.2530  155.1500 C   0  0  0  0  0  2  0  0  0  0  0  0
  160.3530  210.2130  156.5600 C   0  0  0  0  0  2  0  0  0  0  0  0
  161.5400  209.3020  156.6340 C   0  0  0  0  0  0  0  0  0  0  0  0
  162.6880  209.7710  156.4200 O   0  0  0  0  0  0  0  0  0  0  0  0
  160.1560  207.2660  156.7970 C   0  0  0  0  0  1  0  0  0  0  0  0
  161.4010  207.9390  156.9060 O   0  0  0  0  0  0  0  0  0  0  0  0
  161.7360  209.8060  148.6500 C   0  0  0  0  0  2  0  0  0  0  0  0
  162.1670  211.2350  148.9400 C   0  0  0  0  0  2  0  0  0  0  0  0
  161.4830  212.2010  147.9880 C   0  0  2  0  0  3  0  0  0  0  0  0
  162.3850  213.3970  147.7590 C   0  0  2  0  0  3  0  0  0  0  0  0
  161.1860  213.4990  148.7120 C   0  0  1  0  0  3  0  0  0  0  0  0
  162.1480  213.9440  146.3840 C   0  0  0  0  0  3  0  0  0  0  0  0
  162.7100  213.3610  145.3290 C   0  0  0  0  0  2  0  0  0  0  0  0
  159.9330  214.1320  148.1190 C   0  0  0  0  0  2  0  0  0  0  0  0
  158.9720  213.1470  147.9030 O   0  0  0  0  0  1  0  0  0  0  0  0
  1  8  1  0  0  0  0
  1 10  2  0  0  0  0
  2  5  1  0  0  0  0
  2 13  1  1  0  0  0
  3  8  2  0  0  0  0
  3 15  1  0  0  0  0
  4 26  1  6  0  0  0
  4 15  1  0  0  0  0
  4  9  1  0  0  0  0
  5  6  1  1  0  0  0
  7 13  1  1  0  0  0
  7 14  1  0  0  0  0
  8  2  1  0  0  0  0
  9 14  1  0  0  0  0
 10  5  1  0  0  0  0
 11 12  2  0  0  0  0
 11 16  1  0  0  0  0
 12  1  1  0  0  0  0
 14 17  1  1  0  0  0
 15  7  1  0  0  0  0
 16  3  1  0  0  0  0
 18 17  1  0  0  0  0
 18 19  1  0  0  0  0
 19 20  1  0  0  0  0
 20 21  1  0  0  0  0
 21 22  1  0  0  0  0
 22 25  1  0  0  0  0
 23 22  2  0  0  0  0
 24 25  1  0  0  0  0
 26 27  1  0  0  0  0
 28 30  1  0  0  0  0
 28 27  1  1  0  0  0
 29 31  1  6  0  0  0
 29 28  1  0  0  0  0
 29 30  1  0  0  0  0
 30 33  1  6  0  0  0
 32 31  2  0  0  0  0
 34 33  1  0  0  0  0
M  END
>  <MODEL>
2

>  <REMARK>
 VINA RESULT:      -7.9      1.679      6.856
  Name = 
  12 active torsions:
  status: ('A' for Active; 'I' for Inactive)
    1  A    between atoms: C_3  and  C_13
    2  A    between atoms: C_3  and  C_17
    3  A    between atoms: C_5  and  C_26
    4  A    between atoms: C_7  and  C_16
    5  A    between atoms: C_12  and  C_28
    6  A    between atoms: C_13  and  C_33
    7  A    between atoms: O_14  and  C_20
    8  A    between atoms: C_17  and  C_29
    9  A    between atoms: C_20  and  C_34
   10  A    between atoms: C_23  and  C_27
   11  A    between atoms: C_26  and  C_28
   12  A    between atoms: C_33  and  C_34
                            x       y       z     vdW  Elec       q    Type
                         _______ _______ _______ _____ _____    ______ ____

>  <TORSDO>
F 12

$$$$
=
 OpenBabel11062408023D

 34 38  0  0  1  0  0  0  0  0999 V2000
  160.9990  209.6140  154.7200 C   0  0  0  0  0  0  0  0  0  0  0  0
  161.0550  207.3350  154.7060 C   0  0  2  0  0  3  0  0  0  0  0  0
  161.3260  208.5140  152.6010 C   0  0  0  0  0  0  0  0  0  0  0  0
  160.8010  207.0570  150.5770 C   0  0  1  0  0  3  0  0  0  0  0  0
  160.6260  207.8080  155.8790 C   0  0  2  0  0  3  0  0  0  0  0  0
  160.0230  206.9720  156.9530 C   0  0  0  0  0  1  0  0  0  0  0  0
  161.4660  205.9770  152.6530 C   0  0  1  0  0  3  0  0  0  0  0  0
  161.3080  208.4910  153.9140 C   0  0  0  0  0  0  0  0  0  0  0  0
  160.6690  205.5520  150.3950 C   0  0  0  0  0  2  0  0  0  0  0  0
  160.5710  209.2510  155.8880 N   0  0  0  0  0  0  0  0  0  0  0  0
  160.9340  211.0340  152.8360 C   0  0  0  0  0  3  0  0  0  0  0  0
  160.8250  210.9020  154.1340 N   0  0  0  0  0  0  0  0  0  0  0  0
  160.8240  206.0000  154.0640 C   0  0  0  0  0  2  0  0  0  0  0  0
  160.8090  204.9250  151.7820 C   0  0  1  0  0  3  0  0  0  0  0  0
  161.3020  207.2420  151.9250 N   0  0  0  0  0  0  0  0  0  0  0  0
  161.2200  209.8550  151.8940 C   0  0  0  0  0  2  0  0  0  0  0  0
  161.6740  203.6750  151.7260 C   0  0  0  0  0  2  0  0  0  0  0  0
  161.5250  202.9590  150.3920 C   0  0  0  0  0  2  0  0  0  0  0  0
  160.3930  201.9530  150.4520 C   0  0  0  0  0  2  0  0  0  0  0  0
  160.1690  201.3630  149.0730 C   0  0  0  0  0  2  0  0  0  0  0  0
  161.3460  201.6750  148.1630 C   0  0  0  0  0  2  0  0  0  0  0  0
  161.1630  201.0420  146.8180 C   0  0  0  0  0  0  0  0  0  0  0  0
  161.3500  199.8040  146.6920 O   0  0  0  0  0  0  0  0  0  0  0  0
  159.6760  201.5020  144.9040 C   0  0  0  0  0  1  0  0  0  0  0  0
  160.8170  201.7970  145.6950 O   0  0  0  0  0  0  0  0  0  0  0  0
  161.7950  207.6160  149.5660 C   0  0  0  0  0  2  0  0  0  0  0  0
  161.1680  207.7220  148.1840 C   0  0  0  0  0  2  0  0  0  0  0  0
  161.0920  206.3540  147.5280 C   0  0  2  0  0  3  0  0  0  0  0  0
  162.3430  206.1250  146.7050 C   0  0  2  0  0  3  0  0  0  0  0  0
  161.0250  206.5190  146.0230 C   0  0  1  0  0  3  0  0  0  0  0  0
  162.6590  204.6610  146.6730 C   0  0  0  0  0  3  0  0  0  0  0  0
  163.7120  204.2220  145.9900 C   0  0  0  0  0  2  0  0  0  0  0  0
  160.2310  205.3650  145.4230 C   0  0  0  0  0  2  0  0  0  0  0  0
  160.7280  205.0670  144.1560 O   0  0  0  0  0  1  0  0  0  0  0  0
  1 10  2  0  0  0  0
  2 13  1  6  0  0  0
  2  5  1  0  0  0  0
  3  8  2  0  0  0  0
  4 26  1  6  0  0  0
  4 15  1  0  0  0  0
  5 10  1  0  0  0  0
  5  6  1  6  0  0  0
  7 13  1  1  0  0  0
  8  2  1  0  0  0  0
  8  1  1  0  0  0  0
  9  4  1  0  0  0  0
  9 14  1  0  0  0  0
 11 12  2  0  0  0  0
 12  1  1  0  0  0  0
 14 17  1  6  0  0  0
 14  7  1  0  0  0  0
 15  3  1  0  0  0  0
 15  7  1  0  0  0  0
 16  3  1  0  0  0  0
 16 11  1  0  0  0  0
 18 19  1  0  0  0  0
 18 17  1  0  0  0  0
 20 19  1  0  0  0  0
 21 20  1  0  0  0  0
 22 21  1  0  0  0  0
 23 22  2  0  0  0  0
 24 25  1  0  0  0  0
 25 22  1  0  0  0  0
 27 26  1  0  0  0  0
 28 27  1  1  0  0  0
 29 31  1  6  0  0  0
 29 28  1  0  0  0  0
 30 33  1  6  0  0  0
 30 29  1  0  0  0  0
 30 28  1  0  0  0  0
 32 31  2  0  0  0  0
 34 33  1  0  0  0  0
M  END
>  <MODEL>
3

>  <REMARK>
 VINA RESULT:      -7.9      4.012      8.948
  Name = 
  12 active torsions:
  status: ('A' for Active; 'I' for Inactive)
    1  A    between atoms: C_3  and  C_13
    2  A    between atoms: C_3  and  C_17
    3  A    between atoms: C_5  and  C_26
    4  A    between atoms: C_7  and  C_16
    5  A    between atoms: C_12  and  C_28
    6  A    between atoms: C_13  and  C_33
    7  A    between atoms: O_14  and  C_20
    8  A    between atoms: C_17  and  C_29
    9  A    between atoms: C_20  and  C_34
   10  A    between atoms: C_23  and  C_27
   11  A    between atoms: C_26  and  C_28
   12  A    between atoms: C_33  and  C_34
                            x       y       z     vdW  Elec       q    Type
                         _______ _______ _______ _____ _____    ______ ____

>  <TORSDO>
F 12

$$$$
=
 OpenBabel11062408023D

 34 38  0  0  1  0  0  0  0  0999 V2000
  161.0100  206.7320  153.8310 C   0  0  0  0  0  0  0  0  0  0  0  0
  161.1500  208.9420  153.2930 C   0  0  2  0  0  3  0  0  0  0  0  0
  161.1500  207.3100  151.4960 C   0  0  0  0  0  0  0  0  0  0  0  0
  162.1390  208.2230  149.3310 C   0  0  1  0  0  3  0  0  0  0  0  0
  161.3270  208.7440  154.6010 C   0  0  2  0  0  3  0  0  0  0  0  0
  161.8030  209.7850  155.5530 C   0  0  0  0  0  1  0  0  0  0  0  0
  161.2160  209.7910  150.9460 C   0  0  1  0  0  3  0  0  0  0  0  0
  160.9420  207.6430  152.7490 C   0  0  0  0  0  0  0  0  0  0  0  0
  162.4260  209.6350  148.8420 C   0  0  0  0  0  2  0  0  0  0  0  0
  161.2580  207.3430  154.9450 N   0  0  0  0  0  0  0  0  0  0  0  0
  161.2830  204.9040  152.3620 C   0  0  0  0  0  3  0  0  0  0  0  0
  161.1750  205.3350  153.5940 N   0  0  0  0  0  0  0  0  0  0  0  0
  161.6000  210.0770  152.4220 C   0  0  0  0  0  2  0  0  0  0  0  0
  162.1000  210.5780  150.0010 C   0  0  1  0  0  3  0  0  0  0  0  0
  161.3970  208.3830  150.5660 N   0  0  0  0  0  0  0  0  0  0  0  0
  161.2640  205.8360  151.1420 C   0  0  0  0  0  2  0  0  0  0  0  0
  161.3660  211.8130  149.5020 C   0  0  0  0  0  2  0  0  0  0  0  0
  161.6600  212.0770  148.0330 C   0  0  0  0  0  2  0  0  0  0  0  0
  161.8080  213.5640  147.7780 C   0  0  0  0  0  2  0  0  0  0  0  0
  162.3870  213.7830  146.3940 C   0  0  0  0  0  2  0  0  0  0  0  0
  161.4230  213.2850  145.3290 C   0  0  0  0  0  2  0  0  0  0  0  0
  162.1390  213.0280  144.0390 C   0  0  0  0  0  0  0  0  0  0  0  0
  163.3970  213.0750  144.0160 O   0  0  0  0  0  0  0  0  0  0  0  0
  160.4080  211.8010  142.7810 C   0  0  0  0  0  1  0  0  0  0  0  0
  161.4450  212.7670  142.8550 O   0  0  0  0  0  0  0  0  0  0  0  0
  161.2920  207.4820  148.3030 C   0  0  0  0  0  2  0  0  0  0  0  0
  162.1390  206.5130  147.4930 C   0  0  0  0  0  2  0  0  0  0  0  0
  161.3370  205.2730  147.1380 C   0  0  2  0  0  3  0  0  0  0  0  0
  161.9870  204.0600  147.7720 C   0  0  2  0  0  3  0  0  0  0  0  0
  162.1810  204.3540  146.2780 C   0  0  1  0  0  3  0  0  0  0  0  0
  160.9370  203.0370  148.0850 C   0  0  0  0  0  3  0  0  0  0  0  0
  160.7720  202.6140  149.3350 C   0  0  0  0  0  2  0  0  0  0  0  0
  161.2740  203.5700  145.3360 C   0  0  0  0  0  2  0  0  0  0  0  0
  160.5350  204.4580  144.5580 O   0  0  0  0  0  1  0  0  0  0  0  0
  1 10  2  0  0  0  0
  2 13  1  6  0  0  0
  2  5  1  0  0  0  0
  3  8  2  0  0  0  0
  4 26  1  6  0  0  0
  4 15  1  0  0  0  0
  5 10  1  0  0  0  0
  5  6  1  6  0  0  0
  7 13  1  1  0  0  0
  8  2  1  0  0  0  0
  8  1  1  0  0  0  0
  9  4  1  0  0  0  0
  9 14  1  0  0  0  0
 11 12  2  0  0  0  0
 12  1  1  0  0  0  0
 14 17  1  6  0  0  0
 14  7  1  0  0  0  0
 15  7  1  0  0  0  0
 15  3  1  0  0  0  0
 16  3  1  0  0  0  0
 16 11  1  0  0  0  0
 18 17  1  0  0  0  0
 19 18  1  0  0  0  0
 20 19  1  0  0  0  0
 21 20  1  0  0  0  0
 22 21  1  0  0  0  0
 23 22  2  0  0  0  0
 24 25  1  0  0  0  0
 25 22  1  0  0  0  0
 27 26  1  0  0  0  0
 28 27  1  1  0  0  0
 28 29  1  0  0  0  0
 29 31  1  6  0  0  0
 30 33  1  6  0  0  0
 30 28  1  0  0  0  0
 30 29  1  0  0  0  0
 31 32  2  0  0  0  0
 34 33  1  0  0  0  0
M  END
>  <MODEL>
4

>  <REMARK>
 VINA RESULT:      -7.8      3.142      6.671
  Name = 
  12 active torsions:
  status: ('A' for Active; 'I' for Inactive)
    1  A    between atoms: C_3  and  C_13
    2  A    between atoms: C_3  and  C_17
    3  A    between atoms: C_5  and  C_26
    4  A    between atoms: C_7  and  C_16
    5  A    between atoms: C_12  and  C_28
    6  A    between atoms: C_13  and  C_33
    7  A    between atoms: O_14  and  C_20
    8  A    between atoms: C_17  and  C_29
    9  A    between atoms: C_20  and  C_34
   10  A    between atoms: C_23  and  C_27
   11  A    between atoms: C_26  and  C_28
   12  A    between atoms: C_33  and  C_34
                            x       y       z     vdW  Elec       q    Type
                         _______ _______ _______ _____ _____    ______ ____

>  <TORSDO>
F 12

$$$$
=
 OpenBabel11062408023D

 34 38  0  0  1  0  0  0  0  0999 V2000
  161.1840  203.7520  147.7140 C   0  0  0  0  0  0  0  0  0  0  0  0
  160.9000  204.3010  149.9070 C   0  0  2  0  0  3  0  0  0  0  0  0
  161.4040  206.0720  148.3260 C   0  0  0  0  0  0  0  0  0  0  0  0
  162.3640  208.1520  149.4430 C   0  0  1  0  0  3  0  0  0  0  0  0
  160.9990  202.9800  149.7420 C   0  0  2  0  0  3  0  0  0  0  0  0
  161.1580  202.0020  150.8530 C   0  0  0  0  0  1  0  0  0  0  0  0
  160.9930  206.6420  150.7690 C   0  0  1  0  0  3  0  0  0  0  0  0
  161.0200  204.8460  148.5970 C   0  0  0  0  0  0  0  0  0  0  0  0
  162.3890  208.6300  150.8870 C   0  0  0  0  0  2  0  0  0  0  0  0
  161.1980  202.6270  148.3550 N   0  0  0  0  0  0  0  0  0  0  0  0
  161.9650  205.1700  145.9960 C   0  0  0  0  0  3  0  0  0  0  0  0
  161.6610  203.9570  146.3860 N   0  0  0  0  0  0  0  0  0  0  0  0
  161.1750  205.1420  151.1180 C   0  0  0  0  0  2  0  0  0  0  0  0
  161.7700  207.5160  151.7320 C   0  0  1  0  0  3  0  0  0  0  0  0
  161.5000  206.9890  149.4340 N   0  0  0  0  0  0  0  0  0  0  0  0
  161.8580  206.3980  146.9120 C   0  0  0  0  0  2  0  0  0  0  0  0
  160.8380  208.0900  152.7880 C   0  0  0  0  0  2  0  0  0  0  0  0
  161.0390  209.5900  152.9450 C   0  0  0  0  0  2  0  0  0  0  0  0
  159.7180  210.3210  152.8060 C   0  0  0  0  0  2  0  0  0  0  0  0
  159.9810  211.7860  152.5130 C   0  0  0  0  0  2  0  0  0  0  0  0
  158.6850  212.5000  152.1660 C   0  0  0  0  0  2  0  0  0  0  0  0
  158.1740  213.2790  153.3390 C   0  0  0  0  0  0  0  0  0  0  0  0
  158.6080  214.4430  153.5370 O   0  0  0  0  0  0  0  0  0  0  0  0
  157.6060  212.3420  155.5490 C   0  0  0  0  0  1  0  0  0  0  0  0
  157.2490  212.7340  154.2330 O   0  0  0  0  0  0  0  0  0  0  0  0
  161.7880  209.2420  148.5470 C   0  0  0  0  0  2  0  0  0  0  0  0
  162.3050  210.6130  148.9510 C   0  0  0  0  0  2  0  0  0  0  0  0
  161.7140  211.6900  148.0570 C   0  0  2  0  0  3  0  0  0  0  0  0
  162.4440  212.9960  148.3010 C   0  0  2  0  0  3  0  0  0  0  0  0
  161.0570  212.7540  148.9130 C   0  0  1  0  0  3  0  0  0  0  0  0
  162.4470  213.8080  147.0420 C   0  0  0  0  0  3  0  0  0  0  0  0
  162.6360  213.2140  145.8670 C   0  0  0  0  0  2  0  0  0  0  0  0
  159.8900  213.3670  148.1470 C   0  0  0  0  0  2  0  0  0  0  0  0
  158.9000  213.7580  149.0460 O   0  0  0  0  0  1  0  0  0  0  0  0
  1 10  2  0  0  0  0
  1  8  1  0  0  0  0
  2 13  1  1  0  0  0
  3  8  2  0  0  0  0
  3 15  1  0  0  0  0
  4 26  1  6  0  0  0
  4  9  1  0  0  0  0
  5  2  1  0  0  0  0
  5  6  1  1  0  0  0
  7 13  1  1  0  0  0
  7 14  1  0  0  0  0
  8  2  1  0  0  0  0
  9 14  1  0  0  0  0
 10  5  1  0  0  0  0
 11 12  2  0  0  0  0
 11 16  1  0  0  0  0
 12  1  1  0  0  0  0
 14 17  1  1  0  0  0
 15  4  1  0  0  0  0
 15  7  1  0  0  0  0
 16  3  1  0  0  0  0
 17 18  1  0  0  0  0
 19 18  1  0  0  0  0
 20 19  1  0  0  0  0
 21 20  1  0  0  0  0
 21 22  1  0  0  0  0
 22 23  2  0  0  0  0
 22 25  1  0  0  0  0
 25 24  1  0  0  0  0
 26 27  1  0  0  0  0
 28 29  1  0  0  0  0
 28 30  1  0  0  0  0
 28 27  1  1  0  0  0
 29 31  1  6  0  0  0
 29 30  1  0  0  0  0
 30 33  1  6  0  0  0
 32 31  2  0  0  0  0
 33 34  1  0  0  0  0
M  END
>  <MODEL>
5

>  <REMARK>
 VINA RESULT:      -7.8      2.344      5.861
  Name = 
  12 active torsions:
  status: ('A' for Active; 'I' for Inactive)
    1  A    between atoms: C_3  and  C_13
    2  A    between atoms: C_3  and  C_17
    3  A    between atoms: C_5  and  C_26
    4  A    between atoms: C_7  and  C_16
    5  A    between atoms: C_12  and  C_28
    6  A    between atoms: C_13  and  C_33
    7  A    between atoms: O_14  and  C_20
    8  A    between atoms: C_17  and  C_29
    9  A    between atoms: C_20  and  C_34
   10  A    between atoms: C_23  and  C_27
   11  A    between atoms: C_26  and  C_28
   12  A    between atoms: C_33  and  C_34
                            x       y       z     vdW  Elec       q    Type
                         _______ _______ _______ _____ _____    ______ ____

>  <TORSDO>
F 12

$$$$
=
 OpenBabel11062408023D

 34 38  0  0  1  0  0  0  0  0999 V2000
  161.7380  208.7110  148.6320 C   0  0  0  0  0  0  0  0  0  0  0  0
  161.4890  206.4590  148.8760 C   0  0  2  0  0  3  0  0  0  0  0  0
  161.2430  207.8700  150.8360 C   0  0  0  0  0  0  0  0  0  0  0  0
  161.5700  206.5970  153.0200 C   0  0  1  0  0  3  0  0  0  0  0  0
  161.9980  206.7690  147.6820 C   0  0  2  0  0  3  0  0  0  0  0  0
  162.5660  205.7780  146.7260 C   0  0  0  0  0  1  0  0  0  0  0  0
  160.8900  205.3610  151.0370 C   0  0  1  0  0  3  0  0  0  0  0  0
  161.3060  207.7080  149.5340 C   0  0  0  0  0  0  0  0  0  0  0  0
  161.5670  205.1140  153.3600 C   0  0  0  0  0  2  0  0  0  0  0  0
  162.1750  208.1940  147.5280 N   0  0  0  0  0  0  0  0  0  0  0  0
  161.8570  210.3110  150.3630 C   0  0  0  0  0  3  0  0  0  0  0  0
  162.0000  210.0350  149.0910 N   0  0  0  0  0  0  0  0  0  0  0  0
  161.5820  205.1840  149.6600 C   0  0  0  0  0  2  0  0  0  0  0  0
  161.4240  204.3580  152.0390 C   0  0  1  0  0  3  0  0  0  0  0  0
  161.1350  206.6790  151.6390 N   0  0  0  0  0  0  0  0  0  0  0  0
  161.4380  209.2660  151.4070 C   0  0  0  0  0  2  0  0  0  0  0  0
  160.4540  203.1950  152.1830 C   0  0  0  0  0  2  0  0  0  0  0  0
  160.9120  201.9890  151.3760 C   0  0  0  0  0  2  0  0  0  0  0  0
  159.9850  201.7540  150.1990 C   0  0  0  0  0  2  0  0  0  0  0  0
  160.7330  202.0220  148.9070 C   0  0  0  0  0  2  0  0  0  0  0  0
  161.4250  200.7590  148.4210 C   0  0  0  0  0  2  0  0  0  0  0  0
  161.2120  200.5650  146.9520 C   0  0  0  0  0  0  0  0  0  0  0  0
  161.5560  199.4770  146.4210 O   0  0  0  0  0  0  0  0  0  0  0  0
  160.0790  201.3020  144.8880 C   0  0  0  0  0  1  0  0  0  0  0  0
  160.6650  201.5710  146.1520 O   0  0  0  0  0  0  0  0  0  0  0  0
  160.5920  207.3370  153.9230 C   0  0  0  0  0  2  0  0  0  0  0  0
  161.0520  207.3030  155.3720 C   0  0  0  0  0  2  0  0  0  0  0  0
  160.8380  208.6540  156.0320 C   0  0  2  0  0  3  0  0  0  0  0  0
  160.2060  209.6020  155.0320 C   0  0  2  0  0  3  0  0  0  0  0  0
  161.7050  209.6930  155.3500 C   0  0  1  0  0  3  0  0  0  0  0  0
  159.3450  210.5910  155.7570 C   0  0  0  0  0  3  0  0  0  0  0  0
  158.5740  211.4300  155.0720 C   0  0  0  0  0  2  0  0  0  0  0  0
  162.0950  210.7660  156.3590 C   0  0  0  0  0  2  0  0  0  0  0  0
  163.4780  210.7730  156.5200 O   0  0  0  0  0  1  0  0  0  0  0  0
  1 12  1  0  0  0  0
  1  8  1  0  0  0  0
  2  8  1  0  0  0  0
  2 13  1  1  0  0  0
  3 16  1  0  0  0  0
  3 15  1  0  0  0  0
  4  9  1  0  0  0  0
  4 26  1  1  0  0  0
  5  6  1  1  0  0  0
  5  2  1  0  0  0  0
  7 13  1  6  0  0  0
  7 15  1  0  0  0  0
  7 14  1  0  0  0  0
  8  3  2  0  0  0  0
 10  5  1  0  0  0  0
 10  1  2  0  0  0  0
 11 16  1  0  0  0  0
 12 11  2  0  0  0  0
 14 17  1  1  0  0  0
 14  9  1  0  0  0  0
 15  4  1  0  0  0  0
 18 17  1  0  0  0  0
 19 18  1  0  0  0  0
 20 19  1  0  0  0  0
 21 20  1  0  0  0  0
 22 21  1  0  0  0  0
 23 22  2  0  0  0  0
 24 25  1  0  0  0  0
 25 22  1  0  0  0  0
 26 27  1  0  0  0  0
 28 27  1  6  0  0  0
 29 30  1  0  0  0  0
 29 31  1  1  0  0  0
 29 28  1  0  0  0  0
 30 28  1  0  0  0  0
 30 33  1  1  0  0  0
 32 31  2  0  0  0  0
 33 34  1  0  0  0  0
M  END
>  <MODEL>
6

>  <REMARK>
 VINA RESULT:      -7.5      3.588      6.675
  Name = 
  12 active torsions:
  status: ('A' for Active; 'I' for Inactive)
    1  A    between atoms: C_3  and  C_13
    2  A    between atoms: C_3  and  C_17
    3  A    between atoms: C_5  and  C_26
    4  A    between atoms: C_7  and  C_16
    5  A    between atoms: C_12  and  C_28
    6  A    between atoms: C_13  and  C_33
    7  A    between atoms: O_14  and  C_20
    8  A    between atoms: C_17  and  C_29
    9  A    between atoms: C_20  and  C_34
   10  A    between atoms: C_23  and  C_27
   11  A    between atoms: C_26  and  C_28
   12  A    between atoms: C_33  and  C_34
                            x       y       z     vdW  Elec       q    Type
                         _______ _______ _______ _____ _____    ______ ____

>  <TORSDO>
F 12

$$$$
=
 OpenBabel11062408023D

 34 38  0  0  1  0  0  0  0  0999 V2000
  159.7930  209.2220  155.7340 C   0  0  0  0  0  0  0  0  0  0  0  0
  160.1260  209.8980  153.5830 C   0  0  2  0  0  3  0  0  0  0  0  0
  160.6100  207.5910  154.1600 C   0  0  0  0  0  0  0  0  0  0  0  0
  162.1990  206.4710  152.5110 C   0  0  1  0  0  3  0  0  0  0  0  0
  159.9150  210.9360  154.3960 C   0  0  2  0  0  3  0  0  0  0  0  0
  160.1180  212.3610  154.0120 C   0  0  0  0  0  1  0  0  0  0  0  0
  160.8830  208.3730  151.7580 C   0  0  1  0  0  3  0  0  0  0  0  0
  160.0570  208.7520  154.4250 C   0  0  0  0  0  0  0  0  0  0  0  0
  162.6440  206.8290  151.1010 C   0  0  0  0  0  2  0  0  0  0  0  0
  159.7220  210.5150  155.7640 N   0  0  0  0  0  0  0  0  0  0  0  0
  160.4390  207.1580  156.6790 C   0  0  0  0  0  3  0  0  0  0  0  0
  159.9900  208.3740  156.8630 N   0  0  0  0  0  0  0  0  0  0  0  0
  160.8310  209.8390  152.2600 C   0  0  0  0  0  2  0  0  0  0  0  0
  162.0170  208.1850  150.7710 C   0  0  1  0  0  3  0  0  0  0  0  0
  161.1370  207.4040  152.8320 N   0  0  0  0  0  0  0  0  0  0  0  0
  160.7920  206.5950  155.2940 C   0  0  0  0  0  2  0  0  0  0  0  0
  161.4830  208.2020  149.3480 C   0  0  0  0  0  2  0  0  0  0  0  0
  162.2840  209.1500  148.4670 C   0  0  0  0  0  2  0  0  0  0  0  0
  161.5830  210.4890  148.3520 C   0  0  0  0  0  2  0  0  0  0  0  0
  162.4460  211.5660  148.9800 C   0  0  0  0  0  2  0  0  0  0  0  0
  163.0600  212.4500  147.9060 C   0  0  0  0  0  2  0  0  0  0  0  0
  162.1150  213.5420  147.5100 C   0  0  0  0  0  0  0  0  0  0  0  0
  161.3660  214.0510  148.3830 O   0  0  0  0  0  0  0  0  0  0  0  0
  162.6470  213.3060  145.1120 C   0  0  0  0  0  1  0  0  0  0  0  0
  162.0260  213.9900  146.1890 O   0  0  0  0  0  0  0  0  0  0  0  0
  161.6690  205.0420  152.5400 C   0  0  0  0  0  2  0  0  0  0  0  0
  160.6970  204.7960  151.3970 C   0  0  0  0  0  2  0  0  0  0  0  0
  161.3670  203.9970  150.2920 C   0  0  2  0  0  3  0  0  0  0  0  0
  160.7750  204.4010  148.9560 C   0  0  2  0  0  3  0  0  0  0  0  0
  160.3460  203.0910  149.6330 C   0  0  1  0  0  3  0  0  0  0  0  0
  161.8110  204.2490  147.8850 C   0  0  0  0  0  3  0  0  0  0  0  0
  162.0570  205.2550  147.0490 C   0  0  0  0  0  2  0  0  0  0  0  0
  161.0410  201.8350  149.1220 C   0  0  0  0  0  2  0  0  0  0  0  0
  160.6960  200.7530  149.9280 O   0  0  0  0  0  1  0  0  0  0  0  0
  1 10  2  0  0  0  0
  1 12  1  0  0  0  0
  2 13  1  1  0  0  0
  2  5  1  0  0  0  0
  2  8  1  0  0  0  0
  3  8  2  0  0  0  0
  3 16  1  0  0  0  0
  4 26  1  6  0  0  0
  4 15  1  0  0  0  0
  5  6  1  1  0  0  0
  5 10  1  0  0  0  0
  7 13  1  1  0  0  0
  7 15  1  0  0  0  0
  8  1  1  0  0  0  0
  9  4  1  0  0  0  0
 11 12  2  0  0  0  0
 14 17  1  6  0  0  0
 14  9  1  0  0  0  0
 14  7  1  0  0  0  0
 15  3  1  0  0  0  0
 16 11  1  0  0  0  0
 18 17  1  0  0  0  0
 19 18  1  0  0  0  0
 19 20  1  0  0  0  0
 21 20  1  0  0  0  0
 22 21  1  0  0  0  0
 22 23  2  0  0  0  0
 24 25  1  0  0  0  0
 25 22  1  0  0  0  0
 27 26  1  0  0  0  0
 28 27  1  1  0  0  0
 29 31  1  6  0  0  0
 29 30  1  0  0  0  0
 29 28  1  0  0  0  0
 30 33  1  6  0  0  0
 30 28  1  0  0  0  0
 32 31  2  0  0  0  0
 33 34  1  0  0  0  0
M  END
>  <MODEL>
7

>  <REMARK>
 VINA RESULT:      -7.1      2.918      6.754
  Name = 
  12 active torsions:
  status: ('A' for Active; 'I' for Inactive)
    1  A    between atoms: C_3  and  C_13
    2  A    between atoms: C_3  and  C_17
    3  A    between atoms: C_5  and  C_26
    4  A    between atoms: C_7  and  C_16
    5  A    between atoms: C_12  and  C_28
    6  A    between atoms: C_13  and  C_33
    7  A    between atoms: O_14  and  C_20
    8  A    between atoms: C_17  and  C_29
    9  A    between atoms: C_20  and  C_34
   10  A    between atoms: C_23  and  C_27
   11  A    between atoms: C_26  and  C_28
   12  A    between atoms: C_33  and  C_34
                            x       y       z     vdW  Elec       q    Type
                         _______ _______ _______ _____ _____    ______ ____

>  <TORSDO>
F 12

$$$$
=
 OpenBabel11062408023D

 34 38  0  0  1  0  0  0  0  0999 V2000
  161.2430  204.5220  152.5140 C   0  0  0  0  0  0  0  0  0  0  0  0
  161.3720  204.0220  150.2940 C   0  0  2  0  0  3  0  0  0  0  0  0
  161.6690  206.3310  150.9800 C   0  0  0  0  0  0  0  0  0  0  0  0
  161.2530  207.9870  149.0880 C   0  0  1  0  0  3  0  0  0  0  0  0
  160.8920  202.9960  151.0010 C   0  0  2  0  0  3  0  0  0  0  0  0
  160.2830  201.7740  150.4050 C   0  0  0  0  0  1  0  0  0  0  0  0
  161.8880  205.7070  148.5260 C   0  0  1  0  0  3  0  0  0  0  0  0
  161.6120  205.0480  151.2520 C   0  0  0  0  0  0  0  0  0  0  0  0
  161.1750  207.8290  147.5770 C   0  0  0  0  0  2  0  0  0  0  0  0
  160.7910  203.3130  152.4060 N   0  0  0  0  0  0  0  0  0  0  0  0
  161.1900  206.6790  153.4720 C   0  0  0  0  0  3  0  0  0  0  0  0
  161.0460  205.3870  153.6310 N   0  0  0  0  0  0  0  0  0  0  0  0
  161.2030  204.3510  148.8410 C   0  0  0  0  0  2  0  0  0  0  0  0
  161.2920  206.3330  147.2820 C   0  0  1  0  0  3  0  0  0  0  0  0
  161.7070  206.7050  149.5890 N   0  0  0  0  0  0  0  0  0  0  0  0
  161.5420  207.3240  152.1240 C   0  0  0  0  0  2  0  0  0  0  0  0
  162.1980  206.0860  146.0860 C   0  0  0  0  0  2  0  0  0  0  0  0
  161.3890  205.8110  144.8270 C   0  0  0  0  0  2  0  0  0  0  0  0
  160.5160  204.5860  145.0130 C   0  0  0  0  0  2  0  0  0  0  0  0
  161.3950  203.3590  145.1660 C   0  0  0  0  0  2  0  0  0  0  0  0
  160.8420  202.4390  146.2420 C   0  0  0  0  0  2  0  0  0  0  0  0
  160.6260  201.0580  145.7040 C   0  0  0  0  0  0  0  0  0  0  0  0
  159.8860  200.9010  144.6980 O   0  0  0  0  0  0  0  0  0  0  0  0
  161.3590  198.7040  145.6260 C   0  0  0  0  0  1  0  0  0  0  0  0
  161.2020  199.9380  146.3080 O   0  0  0  0  0  0  0  0  0  0  0  0
  162.2590  209.0750  149.4430 C   0  0  0  0  0  2  0  0  0  0  0  0
  161.6160  210.1570  150.2970 C   0  0  0  0  0  2  0  0  0  0  0  0
  162.0380  211.5350  149.8180 C   0  0  2  0  0  3  0  0  0  0  0  0
  160.8640  212.2050  149.1330 C   0  0  2  0  0  3  0  0  0  0  0  0
  161.9940  211.5790  148.3030 C   0  0  1  0  0  3  0  0  0  0  0  0
  160.9610  213.6890  149.3150 C   0  0  0  0  0  3  0  0  0  0  0  0
  159.8770  214.4480  149.1870 C   0  0  0  0  0  2  0  0  0  0  0  0
  163.0490  212.5550  147.7960 C   0  0  0  0  0  2  0  0  0  0  0  0
  162.7380  212.9390  146.4940 O   0  0  0  0  0  1  0  0  0  0  0  0
  1 12  1  0  0  0  0
  2 13  1  6  0  0  0
  2  5  1  0  0  0  0
  2  8  1  0  0  0  0
  3  8  2  0  0  0  0
  3 16  1  0  0  0  0
  4 26  1  6  0  0  0
  4 15  1  0  0  0  0
  5  6  1  6  0  0  0
  5 10  1  0  0  0  0
  7 13  1  1  0  0  0
  7 15  1  0  0  0  0
  8  1  1  0  0  0  0
  9  4  1  0  0  0  0
 10  1  2  0  0  0  0
 11 12  2  0  0  0  0
 14 17  1  6  0  0  0
 14  9  1  0  0  0  0
 14  7  1  0  0  0  0
 15  3  1  0  0  0  0
 16 11  1  0  0  0  0
 18 19  1  0  0  0  0
 18 17  1  0  0  0  0
 19 20  1  0  0  0  0
 20 21  1  0  0  0  0
 22 21  1  0  0  0  0
 22 25  1  0  0  0  0
 23 22  2  0  0  0  0
 24 25  1  0  0  0  0
 26 27  1  0  0  0  0
 28 27  1  6  0  0  0
 29 31  1  1  0  0  0
 29 28  1  0  0  0  0
 30 33  1  1  0  0  0
 30 29  1  0  0  0  0
 30 28  1  0  0  0  0
 32 31  2  0  0  0  0
 34 33  1  0  0  0  0
M  END
>  <MODEL>
8

>  <REMARK>
 VINA RESULT:      -7.0      3.484      7.337
  Name = 
  12 active torsions:
  status: ('A' for Active; 'I' for Inactive)
    1  A    between atoms: C_3  and  C_13
    2  A    between atoms: C_3  and  C_17
    3  A    between atoms: C_5  and  C_26
    4  A    between atoms: C_7  and  C_16
    5  A    between atoms: C_12  and  C_28
    6  A    between atoms: C_13  and  C_33
    7  A    between atoms: O_14  and  C_20
    8  A    between atoms: C_17  and  C_29
    9  A    between atoms: C_20  and  C_34
   10  A    between atoms: C_23  and  C_27
   11  A    between atoms: C_26  and  C_28
   12  A    between atoms: C_33  and  C_34
                            x       y       z     vdW  Elec       q    Type
                         _______ _______ _______ _____ _____    ______ ____

>  <TORSDO>
F 12

$$$$
=
 OpenBabel11062408023D

 34 38  0  0  1  0  0  0  0  0999 V2000
  160.5320  209.9920  156.0300 C   0  0  0  0  0  0  0  0  0  0  0  0
  160.8900  207.9150  155.1620 C   0  0  2  0  0  3  0  0  0  0  0  0
  161.1980  209.8430  153.7190 C   0  0  0  0  0  0  0  0  0  0  0  0
  161.0620  209.2560  151.2430 C   0  0  1  0  0  3  0  0  0  0  0  0
  160.2950  207.8520  156.3550 C   0  0  2  0  0  3  0  0  0  0  0  0
  159.7090  206.6130  156.9390 C   0  0  0  0  0  1  0  0  0  0  0  0
  161.6670  207.5110  152.8250 C   0  0  1  0  0  3  0  0  0  0  0  0
  161.0610  209.3060  154.9100 C   0  0  0  0  0  0  0  0  0  0  0  0
  161.1480  207.9380  150.4880 C   0  0  0  0  0  2  0  0  0  0  0  0
  160.0480  209.1660  156.9030 N   0  0  0  0  0  0  0  0  0  0  0  0
  160.4550  212.0250  154.8340 C   0  0  0  0  0  3  0  0  0  0  0  0
  160.2440  211.3870  155.9580 N   0  0  0  0  0  0  0  0  0  0  0  0
  160.8990  206.9230  154.0370 C   0  0  0  0  0  2  0  0  0  0  0  0
  161.2400  206.8320  151.5400 C   0  0  1  0  0  3  0  0  0  0  0  0
  161.4060  208.9410  152.6150 N   0  0  0  0  0  0  0  0  0  0  0  0
  160.9820  211.3400  153.5650 C   0  0  0  0  0  2  0  0  0  0  0  0
  162.2640  205.7830  151.1340 C   0  0  0  0  0  2  0  0  0  0  0  0
  161.7610  204.3770  151.4250 C   0  0  0  0  0  2  0  0  0  0  0  0
  160.8330  203.9060  150.3230 C   0  0  0  0  0  2  0  0  0  0  0  0
  161.1890  204.6100  149.0280 C   0  0  0  0  0  2  0  0  0  0  0  0
  161.5780  203.5990  147.9620 C   0  0  0  0  0  2  0  0  0  0  0  0
  161.9470  204.2870  146.6830 C   0  0  0  0  0  0  0  0  0  0  0  0
  163.1280  204.6920  146.5240 O   0  0  0  0  0  0  0  0  0  0  0  0
  161.2470  205.4060  144.6000 C   0  0  0  0  0  1  0  0  0  0  0  0
  161.0060  204.5140  145.6760 O   0  0  0  0  0  0  0  0  0  0  0  0
  162.0630  210.2500  150.6650 C   0  0  0  0  0  2  0  0  0  0  0  0
  161.9740  210.2980  149.1480 C   0  0  0  0  0  2  0  0  0  0  0  0
  162.1200  211.7250  148.6510 C   0  0  2  0  0  3  0  0  0  0  0  0
  160.7790  212.4240  148.7400 C   0  0  2  0  0  3  0  0  0  0  0  0
  161.2990  211.9080  147.3900 C   0  0  1  0  0  3  0  0  0  0  0  0
  160.9930  213.8870  148.9830 C   0  0  0  0  0  3  0  0  0  0  0  0
  160.5600  214.4440  150.1100 C   0  0  0  0  0  2  0  0  0  0  0  0
  161.9620  212.9560  146.5030 C   0  0  0  0  0  2  0  0  0  0  0  0
  161.3370  212.9730  145.2590 O   0  0  0  0  0  1  0  0  0  0  0  0
  1 10  2  0  0  0  0
  2 13  1  6  0  0  0
  2  5  1  0  0  0  0
  3  8  2  0  0  0  0
  4 26  1  6  0  0  0
  4 15  1  0  0  0  0
  5 10  1  0  0  0  0
  5  6  1  6  0  0  0
  7 13  1  1  0  0  0
  8  2  1  0  0  0  0
  8  1  1  0  0  0  0
  9  4  1  0  0  0  0
  9 14  1  0  0  0  0
 11 12  2  0  0  0  0
 12  1  1  0  0  0  0
 14 17  1  6  0  0  0
 14  7  1  0  0  0  0
 15  7  1  0  0  0  0
 15  3  1  0  0  0  0
 16  3  1  0  0  0  0
 16 11  1  0  0  0  0
 17 18  1  0  0  0  0
 19 18  1  0  0  0  0
 20 19  1  0  0  0  0
 21 20  1  0  0  0  0
 22 21  1  0  0  0  0
 23 22  2  0  0  0  0
 24 25  1  0  0  0  0
 25 22  1  0  0  0  0
 27 26  1  0  0  0  0
 28 29  1  0  0  0  0
 28 27  1  1  0  0  0
 29 31  1  6  0  0  0
 30 33  1  6  0  0  0
 30 28  1  0  0  0  0
 30 29  1  0  0  0  0
 31 32  2  0  0  0  0
 34 33  1  0  0  0  0
M  END
>  <MODEL>
9

>  <REMARK>
 VINA RESULT:      -7.0      3.328      8.411
  Name = 
  12 active torsions:
  status: ('A' for Active; 'I' for Inactive)
    1  A    between atoms: C_3  and  C_13
    2  A    between atoms: C_3  and  C_17
    3  A    between atoms: C_5  and  C_26
    4  A    between atoms: C_7  and  C_16
    5  A    between atoms: C_12  and  C_28
    6  A    between atoms: C_13  and  C_33
    7  A    between atoms: O_14  and  C_20
    8  A    between atoms: C_17  and  C_29
    9  A    between atoms: C_20  and  C_34
   10  A    between atoms: C_23  and  C_27
   11  A    between atoms: C_26  and  C_28
   12  A    between atoms: C_33  and  C_34
                            x       y       z     vdW  Elec       q    Type
                         _______ _______ _______ _____ _____    ______ ____

>  <TORSDO>
F 12

$$$$
