=
 OpenBabel11062408103D

 34 38  0  0  1  0  0  0  0  0999 V2000
  161.5660  205.2080  152.0240 C   0  0  0  0  0  0  0  0  0  0  0  0
  160.6970  205.6840  149.8050 C   0  0  0  0  0  0  0  0  0  0  0  0
  161.1700  207.6010  151.4550 C   0  0  0  0  0  0  0  0  0  0  0  0
  161.4650  209.9790  151.0520 C   0  0  0  0  0  0  0  0  0  0  0  0
  161.6310  203.8490  151.7070 C   0  0  0  0  0  3  0  0  0  0  0  0
  160.7610  204.3200  149.5030 C   0  0  0  0  0  3  0  0  0  0  0  0
  162.1490  208.3840  149.2350 C   0  0  0  0  0  2  0  0  0  0  0  0
  161.1790  206.1560  151.0510 C   0  0  0  0  0  0  0  0  0  0  0  0
  162.1020  209.6100  148.3300 C   0  0  0  0  0  2  0  0  0  0  0  0
  161.7170  211.1350  150.1270 C   0  0  0  0  0  2  0  0  0  0  0  0
  161.2480  203.4080  150.4410 C   0  0  0  0  0  3  0  0  0  0  0  0
  160.9510  207.8990  152.8230 C   0  0  0  0  0  0  0  0  0  0  0  0
  161.8610  205.6540  153.4210 C   0  0  0  0  0  2  0  0  0  0  0  0
  160.0310  206.5470  148.8880 N   0  0  0  0  0  1  0  0  0  0  0  0
  161.1230  210.2320  152.3390 N   0  0  0  0  0  0  0  0  0  0  0  0
  160.8730  209.2480  153.2430 C   0  0  0  0  0  0  0  0  0  0  0  0
  162.6390  210.7640  149.0490 N   0  0  0  0  0  0  0  0  0  0  0  0
  161.5120  208.6550  150.5760 C   0  0  0  0  0  0  0  0  0  0  0  0
  160.8780  206.7590  153.8110 C   0  0  0  0  0  2  0  0  0  0  0  0
  159.0090  210.7150  156.1920 C   0  0  0  0  0  0  0  0  0  0  0  0
  159.8410  210.3690  157.2600 C   0  0  0  0  0  3  0  0  0  0  0  0
  160.5480  209.6520  154.6350 C   0  0  0  0  0  0  0  0  0  0  0  0
  161.0200  209.6580  157.0230 C   0  0  0  0  0  3  0  0  0  0  0  0
  159.3590  210.3530  154.8890 C   0  0  0  0  0  3  0  0  0  0  0  0
  161.3680  209.2980  155.7180 C   0  0  0  0  0  3  0  0  0  0  0  0
  157.8350  211.4160  156.4270 O   0  0  0  0  0  1  0  0  0  0  0  0
  162.7950  211.8910  148.1250 C   0  0  0  0  0  2  0  0  0  0  0  0
  161.7340  212.9880  148.3130 C   0  0  0  0  0  2  0  0  0  0  0  0
  161.3460  213.6200  145.9170 F   0  0  0  0  0  0  0  0  0  0  0  0
  158.3530  213.4720  148.9170 O   0  0  0  0  0  0  0  0  0  0  0  0
  159.1450  213.7620  147.4510 P   0  0  0  0  0  0  0  0  0  0  0  0
  159.8580  212.2380  146.9490 O   0  0  0  0  0  0  0  0  0  0  0  0
  160.8100  213.1690  147.1080 C   0  0  1  0  0  3  0  0  0  0  0  0
  158.2600  214.2360  146.3210 O   0  0  0  0  0  0  0  0  0  0  0  0
  1 13  1  0  0  0  0
  2  8  1  0  0  0  0
  3 12  1  0  0  0  0
  4 15  2  0  0  0  0
  5  1  1  0  0  0  0
  6  2  2  0  0  0  0
  6 11  1  0  0  0  0
  7 18  1  0  0  0  0
  8  3  1  0  0  0  0
  8  1  2  0  0  0  0
  9 17  1  0  0  0  0
  9  7  1  0  0  0  0
 10  4  1  0  0  0  0
 11  5  2  0  0  0  0
 12 16  2  0  0  0  0
 12 19  1  0  0  0  0
 13 19  1  0  0  0  0
 14  2  1  0  0  0  0
 15 16  1  0  0  0  0
 16 22  1  0  0  0  0
 17 10  1  0  0  0  0
 18  4  1  0  0  0  0
 18  3  2  0  0  0  0
 20 26  1  0  0  0  0
 20 21  1  0  0  0  0
 22 24  1  0  0  0  0
 22 25  2  0  0  0  0
 23 21  2  0  0  0  0
 24 20  2  0  0  0  0
 25 23  1  0  0  0  0
 27 28  1  0  0  0  0
 27 17  1  0  0  0  0
 31 30  2  0  0  0  0
 32 33  1  0  0  0  0
 32 31  1  0  0  0  0
 33 29  1  6  0  0  0
 33 28  1  0  0  0  0
 34 31  2  0  0  0  0
M  END
>  <MODEL>
1

>  <REMARK>
 VINA RESULT:      -8.9      0.000      0.000
  Name = 
  4 active torsions:
  status: ('A' for Active; 'I' for Inactive)
    1  A    between atoms: C_3  and  C_13
    2  A    between atoms: C_3  and  N_29
    3  A    between atoms: C_12  and  C_28
    4  A    between atoms: C_13  and  C_33
                            x       y       z     vdW  Elec       q    Type
                         _______ _______ _______ _____ _____    ______ ____

>  <TORSDO>
F 4

$$$$
=
 OpenBabel11062408103D

 34 38  0  0  1  0  0  0  0  0999 V2000
  161.5590  205.1840  152.0930 C   0  0  0  0  0  0  0  0  0  0  0  0
  160.7030  205.6330  149.8640 C   0  0  0  0  0  0  0  0  0  0  0  0
  161.1610  207.5690  151.4950 C   0  0  0  0  0  0  0  0  0  0  0  0
  161.4540  209.9430  151.0670 C   0  0  0  0  0  0  0  0  0  0  0  0
  161.6290  203.8220  151.7920 C   0  0  0  0  0  3  0  0  0  0  0  0
  160.7710  204.2660  149.5780 C   0  0  0  0  0  3  0  0  0  0  0  0
  162.1520  208.3290  149.2730 C   0  0  0  0  0  2  0  0  0  0  0  0
  161.1760  206.1200  151.1070 C   0  0  0  0  0  0  0  0  0  0  0  0
  162.1080  209.5450  148.3540 C   0  0  0  0  0  2  0  0  0  0  0  0
  161.7090  211.0900  150.1310 C   0  0  0  0  0  2  0  0  0  0  0  0
  161.2550  203.3660  150.5290 C   0  0  0  0  0  3  0  0  0  0  0  0
  160.9330  207.8820  152.8580 C   0  0  0  0  0  0  0  0  0  0  0  0
  161.8450  205.6460  153.4870 C   0  0  0  0  0  2  0  0  0  0  0  0
  160.0410  206.4840  148.9330 N   0  0  0  0  0  1  0  0  0  0  0  0
  161.1030  210.2100  152.3490 N   0  0  0  0  0  0  0  0  0  0  0  0
  160.8500  209.2360  153.2630 C   0  0  0  0  0  0  0  0  0  0  0  0
  162.6380  210.7090  149.0630 N   0  0  0  0  0  0  0  0  0  0  0  0
  161.5060  208.6140  150.6070 C   0  0  0  0  0  0  0  0  0  0  0  0
  160.8570  206.7530  153.8590 C   0  0  0  0  0  2  0  0  0  0  0  0
  159.0080  210.8090  156.1710 C   0  0  0  0  0  0  0  0  0  0  0  0
  159.7870  210.4060  157.2580 C   0  0  0  0  0  3  0  0  0  0  0  0
  160.5150  209.6540  154.6480 C   0  0  0  0  0  0  0  0  0  0  0  0
  160.9230  209.6200  157.0470 C   0  0  0  0  0  3  0  0  0  0  0  0
  159.3670  210.4310  154.8750 C   0  0  0  0  0  3  0  0  0  0  0  0
  161.2810  209.2430  155.7500 C   0  0  0  0  0  3  0  0  0  0  0  0
  157.8760  211.5850  156.3790 O   0  0  0  0  0  1  0  0  0  0  0  0
  162.7980  211.8260  148.1270 C   0  0  0  0  0  2  0  0  0  0  0  0
  161.8270  212.9880  148.3920 C   0  0  0  0  0  2  0  0  0  0  0  0
  159.6410  212.4090  147.3070 F   0  0  0  0  0  0  0  0  0  0  0  0
  162.8750  214.3640  145.3860 O   0  0  0  0  0  0  0  0  0  0  0  0
  161.4070  213.5660  145.6470 P   0  0  0  0  0  0  0  0  0  0  0  0
  160.5640  214.4510  146.9060 O   0  0  0  0  0  0  0  0  0  0  0  0
  160.7830  213.1860  147.2920 C   0  0  1  0  0  3  0  0  0  0  0  0
  160.4850  213.5010  144.4510 O   0  0  0  0  0  0  0  0  0  0  0  0
  1 13  1  0  0  0  0
  2  8  1  0  0  0  0
  3 12  1  0  0  0  0
  4 15  2  0  0  0  0
  5  1  1  0  0  0  0
  6  2  2  0  0  0  0
  6 11  1  0  0  0  0
  7 18  1  0  0  0  0
  8  3  1  0  0  0  0
  8  1  2  0  0  0  0
  9 17  1  0  0  0  0
  9  7  1  0  0  0  0
 10  4  1  0  0  0  0
 11  5  2  0  0  0  0
 12 16  2  0  0  0  0
 12 19  1  0  0  0  0
 13 19  1  0  0  0  0
 14  2  1  0  0  0  0
 15 16  1  0  0  0  0
 16 22  1  0  0  0  0
 17 10  1  0  0  0  0
 18  4  1  0  0  0  0
 18  3  2  0  0  0  0
 20 26  1  0  0  0  0
 20 21  1  0  0  0  0
 22 24  1  0  0  0  0
 22 25  2  0  0  0  0
 23 21  2  0  0  0  0
 24 20  2  0  0  0  0
 25 23  1  0  0  0  0
 27 28  1  0  0  0  0
 27 17  1  0  0  0  0
 30 31  2  0  0  0  0
 31 32  1  0  0  0  0
 32 33  1  0  0  0  0
 33 29  1  1  0  0  0
 33 28  1  0  0  0  0
 34 31  2  0  0  0  0
M  END
>  <MODEL>
2

>  <REMARK>
 VINA RESULT:      -8.5      1.145      1.361
  Name = 
  4 active torsions:
  status: ('A' for Active; 'I' for Inactive)
    1  A    between atoms: C_3  and  C_13
    2  A    between atoms: C_3  and  N_29
    3  A    between atoms: C_12  and  C_28
    4  A    between atoms: C_13  and  C_33
                            x       y       z     vdW  Elec       q    Type
                         _______ _______ _______ _____ _____    ______ ____

>  <TORSDO>
F 4

$$$$
=
 OpenBabel11062408103D

 34 38  0  0  1  0  0  0  0  0999 V2000
  160.9830  206.0300  149.4530 C   0  0  0  0  0  0  0  0  0  0  0  0
  161.9280  205.5540  151.6410 C   0  0  0  0  0  0  0  0  0  0  0  0
  161.4840  207.9830  150.9160 C   0  0  0  0  0  0  0  0  0  0  0  0
  161.2900  210.0050  152.2490 C   0  0  0  0  0  0  0  0  0  0  0  0
  160.8740  204.6610  149.2010 C   0  0  0  0  0  3  0  0  0  0  0  0
  161.8210  204.1860  151.3730 C   0  0  0  0  0  3  0  0  0  0  0  0
  160.5950  207.8320  153.3010 C   0  0  0  0  0  2  0  0  0  0  0  0
  161.4310  206.4980  150.7080 C   0  0  0  0  0  0  0  0  0  0  0  0
  160.7130  208.5900  154.6190 C   0  0  0  0  0  2  0  0  0  0  0  0
  161.1070  210.6980  153.5690 C   0  0  0  0  0  2  0  0  0  0  0  0
  161.2740  203.7390  150.1690 C   0  0  0  0  0  3  0  0  0  0  0  0
  161.6780  208.8000  149.7740 C   0  0  0  0  0  0  0  0  0  0  0  0
  160.6670  207.0070  148.3640 C   0  0  0  0  0  2  0  0  0  0  0  0
  162.6500  205.9600  152.7990 N   0  0  0  0  0  1  0  0  0  0  0  0
  161.6070  210.7450  151.1590 N   0  0  0  0  0  0  0  0  0  0  0  0
  161.7950  210.2020  149.9270 C   0  0  0  0  0  0  0  0  0  0  0  0
  160.2010  209.9480  154.4440 N   0  0  0  0  0  0  0  0  0  0  0  0
  161.2060  208.6030  152.1560 C   0  0  0  0  0  0  0  0  0  0  0  0
  161.6810  208.1510  148.4100 C   0  0  0  0  0  2  0  0  0  0  0  0
  161.3000  212.5060  146.9660 C   0  0  0  0  0  0  0  0  0  0  0  0
  162.6050  212.9320  146.7100 C   0  0  0  0  0  3  0  0  0  0  0  0
  162.0990  211.1220  148.8020 C   0  0  0  0  0  0  0  0  0  0  0  0
  163.6580  212.4640  147.5010 C   0  0  0  0  0  3  0  0  0  0  0  0
  161.0480  211.6110  148.0090 C   0  0  0  0  0  3  0  0  0  0  0  0
  163.4040  211.5690  148.5440 C   0  0  0  0  0  3  0  0  0  0  0  0
  160.2530  212.9740  146.1840 O   0  0  0  0  0  1  0  0  0  0  0  0
  160.1120  210.6130  155.7470 C   0  0  0  0  0  2  0  0  0  0  0  0
  158.6740  210.9860  156.1460 C   0  0  0  0  0  2  0  0  0  0  0  0
  158.5360  213.3110  155.2160 F   0  0  0  0  0  0  0  0  0  0  0  0
  155.3840  210.4770  155.1750 O   0  0  0  0  0  0  0  0  0  0  0  0
  156.2420  211.9270  155.0300 P   0  0  0  0  0  0  0  0  0  0  0  0
  157.6390  211.5920  154.0230 O   0  0  0  0  0  0  0  0  0  0  0  0
  158.0280  212.0270  155.2300 C   0  0  1  0  0  3  0  0  0  0  0  0
  155.4860  213.0640  154.3830 O   0  0  0  0  0  0  0  0  0  0  0  0
  1  8  1  0  0  0  0
  2 14  1  0  0  0  0
  3 18  1  0  0  0  0
  4 10  1  0  0  0  0
  5  1  2  0  0  0  0
  5 11  1  0  0  0  0
  6  2  1  0  0  0  0
  7  9  1  0  0  0  0
  8  3  1  0  0  0  0
  8  2  2  0  0  0  0
 10 17  1  0  0  0  0
 11  6  2  0  0  0  0
 12 16  1  0  0  0  0
 12  3  2  0  0  0  0
 13 19  1  0  0  0  0
 13  1  1  0  0  0  0
 15  4  1  0  0  0  0
 16 15  2  0  0  0  0
 17  9  1  0  0  0  0
 17 27  1  0  0  0  0
 18  4  2  0  0  0  0
 18  7  1  0  0  0  0
 19 12  1  0  0  0  0
 20 24  1  0  0  0  0
 21 20  2  0  0  0  0
 21 23  1  0  0  0  0
 22 16  1  0  0  0  0
 23 25  2  0  0  0  0
 24 22  2  0  0  0  0
 25 22  1  0  0  0  0
 26 20  1  0  0  0  0
 27 28  1  0  0  0  0
 31 30  2  0  0  0  0
 32 31  1  0  0  0  0
 32 33  1  0  0  0  0
 33 29  1  6  0  0  0
 33 28  1  0  0  0  0
 34 31  2  0  0  0  0
M  END
>  <MODEL>
3

>  <REMARK>
 VINA RESULT:      -8.3      2.710      6.425
  Name = 
  4 active torsions:
  status: ('A' for Active; 'I' for Inactive)
    1  A    between atoms: C_3  and  C_13
    2  A    between atoms: C_3  and  N_29
    3  A    between atoms: C_12  and  C_28
    4  A    between atoms: C_13  and  C_33
                            x       y       z     vdW  Elec       q    Type
                         _______ _______ _______ _____ _____    ______ ____

>  <TORSDO>
F 4

$$$$
=
 OpenBabel11062408103D

 34 38  0  0  1  0  0  0  0  0999 V2000
  161.6700  204.4870  150.9140 C   0  0  0  0  0  0  0  0  0  0  0  0
  160.6480  205.4250  148.9180 C   0  0  0  0  0  0  0  0  0  0  0  0
  161.2720  206.9460  150.8980 C   0  0  0  0  0  0  0  0  0  0  0  0
  161.5750  209.3550  150.9880 C   0  0  0  0  0  0  0  0  0  0  0  0
  161.6900  203.2270  150.3120 C   0  0  0  0  0  3  0  0  0  0  0  0
  160.6670  204.1560  148.3300 C   0  0  0  0  0  3  0  0  0  0  0  0
  162.0970  208.1840  148.8280 C   0  0  0  0  0  2  0  0  0  0  0  0
  161.2280  205.6200  150.1970 C   0  0  0  0  0  0  0  0  0  0  0  0
  162.0040  209.5750  148.2100 C   0  0  0  0  0  2  0  0  0  0  0  0
  161.7770  210.6820  150.3140 C   0  0  0  0  0  2  0  0  0  0  0  0
  161.2080  203.0660  149.0130 C   0  0  0  0  0  3  0  0  0  0  0  0
  161.1580  206.9460  152.3110 C   0  0  0  0  0  0  0  0  0  0  0  0
  162.0740  204.6250  152.3480 C   0  0  0  0  0  2  0  0  0  0  0  0
  159.9310  206.4630  148.2590 N   0  0  0  0  0  1  0  0  0  0  0  0
  161.3320  209.3280  152.3210 N   0  0  0  0  0  0  0  0  0  0  0  0
  161.1340  208.1740  153.0120 C   0  0  0  0  0  0  0  0  0  0  0  0
  162.6110  210.5490  149.1160 N   0  0  0  0  0  0  0  0  0  0  0  0
  161.5650  208.1630  150.2400 C   0  0  0  0  0  0  0  0  0  0  0  0
  161.1400  205.6210  153.0360 C   0  0  0  0  0  2  0  0  0  0  0  0
  161.2670  209.4800  156.5620 C   0  0  0  0  0  0  0  0  0  0  0  0
  160.4740  208.5520  157.2410 C   0  0  0  0  0  3  0  0  0  0  0  0
  160.9180  208.2720  154.4780 C   0  0  0  0  0  0  0  0  0  0  0  0
  159.8930  207.4890  156.5430 C   0  0  0  0  0  3  0  0  0  0  0  0
  161.4820  209.3430  155.1880 C   0  0  0  0  0  3  0  0  0  0  0  0
  160.1110  207.3540  155.1690 C   0  0  0  0  0  3  0  0  0  0  0  0
  161.8390  210.5390  157.2530 O   0  0  0  0  0  1  0  0  0  0  0  0
  162.7170  211.8470  148.4430 C   0  0  0  0  0  2  0  0  0  0  0  0
  161.6530  212.8590  148.8970 C   0  0  0  0  0  2  0  0  0  0  0  0
  159.4260  212.2930  147.8910 F   0  0  0  0  0  0  0  0  0  0  0  0
  162.5060  214.4530  145.9380 O   0  0  0  0  0  0  0  0  0  0  0  0
  161.0730  213.6000  146.2210 P   0  0  0  0  0  0  0  0  0  0  0  0
  160.2780  214.3810  147.5770 O   0  0  0  0  0  0  0  0  0  0  0  0
  160.5460  213.0990  147.8680 C   0  0  1  0  0  3  0  0  0  0  0  0
  160.0910  213.5870  145.0730 O   0  0  0  0  0  0  0  0  0  0  0  0
  1 13  1  0  0  0  0
  2  8  1  0  0  0  0
  3 12  1  0  0  0  0
  4 15  2  0  0  0  0
  5  1  1  0  0  0  0
  6  2  2  0  0  0  0
  6 11  1  0  0  0  0
  7 18  1  0  0  0  0
  8  3  1  0  0  0  0
  8  1  2  0  0  0  0
  9  7  1  0  0  0  0
  9 17  1  0  0  0  0
 10  4  1  0  0  0  0
 11  5  2  0  0  0  0
 12 16  2  0  0  0  0
 12 19  1  0  0  0  0
 13 19  1  0  0  0  0
 14  2  1  0  0  0  0
 15 16  1  0  0  0  0
 16 22  1  0  0  0  0
 17 10  1  0  0  0  0
 18  3  2  0  0  0  0
 18  4  1  0  0  0  0
 20 21  1  0  0  0  0
 20 26  1  0  0  0  0
 22 25  2  0  0  0  0
 22 24  1  0  0  0  0
 23 21  2  0  0  0  0
 24 20  2  0  0  0  0
 25 23  1  0  0  0  0
 27 28  1  0  0  0  0
 27 17  1  0  0  0  0
 30 31  2  0  0  0  0
 31 32  1  0  0  0  0
 32 33  1  0  0  0  0
 33 29  1  1  0  0  0
 33 28  1  0  0  0  0
 34 31  2  0  0  0  0
M  END
>  <MODEL>
4

>  <REMARK>
 VINA RESULT:      -7.6      1.550      1.881
  Name = 
  4 active torsions:
  status: ('A' for Active; 'I' for Inactive)
    1  A    between atoms: C_3  and  C_13
    2  A    between atoms: C_3  and  N_29
    3  A    between atoms: C_12  and  C_28
    4  A    between atoms: C_13  and  C_33
                            x       y       z     vdW  Elec       q    Type
                         _______ _______ _______ _____ _____    ______ ____

>  <TORSDO>
F 4

$$$$
=
 OpenBabel11062408103D

 34 38  0  0  1  0  0  0  0  0999 V2000
  160.5030  208.2270  155.0150 C   0  0  0  0  0  0  0  0  0  0  0  0
  162.1610  209.9480  154.5790 C   0  0  0  0  0  0  0  0  0  0  0  0
  161.4410  208.3320  152.7100 C   0  0  0  0  0  0  0  0  0  0  0  0
  161.6820  208.5190  150.3000 C   0  0  0  0  0  0  0  0  0  0  0  0
  160.3420  208.7100  156.3160 C   0  0  0  0  0  3  0  0  0  0  0  0
  161.9960  210.4170  155.8860 C   0  0  0  0  0  3  0  0  0  0  0  0
  161.4440  210.6400  151.6250 C   0  0  0  0  0  2  0  0  0  0  0  0
  161.3500  208.8890  154.1010 C   0  0  0  0  0  0  0  0  0  0  0  0
  161.9980  211.3190  150.3770 C   0  0  0  0  0  2  0  0  0  0  0  0
  161.9560  209.3260  149.0630 C   0  0  0  0  0  2  0  0  0  0  0  0
  161.0740  209.8170  156.7440 C   0  0  0  0  0  3  0  0  0  0  0  0
  161.2080  206.9450  152.5420 C   0  0  0  0  0  0  0  0  0  0  0  0
  159.8070  206.9670  154.6060 C   0  0  0  0  0  2  0  0  0  0  0  0
  163.2330  210.4750  153.8040 N   0  0  0  0  0  1  0  0  0  0  0  0
  161.5830  207.1710  150.1930 N   0  0  0  0  0  0  0  0  0  0  0  0
  161.3410  206.3630  151.2590 C   0  0  0  0  0  0  0  0  0  0  0  0
  161.4280  210.6880  149.1880 N   0  0  0  0  0  0  0  0  0  0  0  0
  161.6010  209.1400  151.5600 C   0  0  0  0  0  0  0  0  0  0  0  0
  160.7480  206.1370  153.7320 C   0  0  0  0  0  2  0  0  0  0  0  0
  160.9820  203.0730  149.4220 C   0  0  0  0  0  0  0  0  0  0  0  0
  161.0490  202.1500  150.4680 C   0  0  0  0  0  3  0  0  0  0  0  0
  161.2130  204.9040  151.0080 C   0  0  0  0  0  0  0  0  0  0  0  0
  161.2080  202.5960  151.7820 C   0  0  0  0  0  3  0  0  0  0  0  0
  161.0690  204.4410  149.6910 C   0  0  0  0  0  3  0  0  0  0  0  0
  161.2940  203.9660  152.0490 C   0  0  0  0  0  3  0  0  0  0  0  0
  160.8310  202.6300  148.1150 O   0  0  0  0  0  1  0  0  0  0  0  0
  161.7850  211.4660  147.9980 C   0  0  0  0  0  2  0  0  0  0  0  0
  161.0880  212.8350  147.9320 C   0  0  0  0  0  2  0  0  0  0  0  0
  161.2610  214.0170  145.7260 F   0  0  0  0  0  0  0  0  0  0  0  0
  157.6640  212.5780  147.4480 O   0  0  0  0  0  0  0  0  0  0  0  0
  158.7470  213.3780  146.4250 P   0  0  0  0  0  0  0  0  0  0  0  0
  159.9190  212.1840  145.8940 O   0  0  0  0  0  0  0  0  0  0  0  0
  160.5320  213.1810  146.5490 C   0  0  1  0  0  3  0  0  0  0  0  0
  158.1360  213.9880  145.1850 O   0  0  0  0  0  0  0  0  0  0  0  0
  1  5  1  0  0  0  0
  2  6  2  0  0  0  0
  3  8  1  0  0  0  0
  4 18  1  0  0  0  0
  5 11  2  0  0  0  0
  6 11  1  0  0  0  0
  8  2  1  0  0  0  0
  8  1  2  0  0  0  0
  9  7  1  0  0  0  0
 10 17  1  0  0  0  0
 10  4  1  0  0  0  0
 12  3  1  0  0  0  0
 12 19  1  0  0  0  0
 13  1  1  0  0  0  0
 14  2  1  0  0  0  0
 15  4  2  0  0  0  0
 15 16  1  0  0  0  0
 16 12  2  0  0  0  0
 17  9  1  0  0  0  0
 18  7  1  0  0  0  0
 18  3  2  0  0  0  0
 19 13  1  0  0  0  0
 20 24  2  0  0  0  0
 20 21  1  0  0  0  0
 21 23  2  0  0  0  0
 22 16  1  0  0  0  0
 22 25  2  0  0  0  0
 23 25  1  0  0  0  0
 24 22  1  0  0  0  0
 26 20  1  0  0  0  0
 27 17  1  0  0  0  0
 28 27  1  0  0  0  0
 31 30  2  0  0  0  0
 32 31  1  0  0  0  0
 32 33  1  0  0  0  0
 33 29  1  6  0  0  0
 33 28  1  0  0  0  0
 34 31  2  0  0  0  0
M  END
>  <MODEL>
5

>  <REMARK>
 VINA RESULT:      -7.1      2.021      5.451
  Name = 
  4 active torsions:
  status: ('A' for Active; 'I' for Inactive)
    1  A    between atoms: C_3  and  C_13
    2  A    between atoms: C_3  and  N_29
    3  A    between atoms: C_12  and  C_28
    4  A    between atoms: C_13  and  C_33
                            x       y       z     vdW  Elec       q    Type
                         _______ _______ _______ _____ _____    ______ ____

>  <TORSDO>
F 4

$$$$
=
 OpenBabel11062408103D

 34 38  0  0  1  0  0  0  0  0999 V2000
  161.2540  207.4860  153.5440 C   0  0  0  0  0  0  0  0  0  0  0  0
  161.0430  206.9930  151.1740 C   0  0  0  0  0  0  0  0  0  0  0  0
  160.7590  209.4020  152.0310 C   0  0  0  0  0  0  0  0  0  0  0  0
  160.8680  211.5140  150.8350 C   0  0  0  0  0  0  0  0  0  0  0  0
  161.5780  206.1500  153.7940 C   0  0  0  0  0  3  0  0  0  0  0  0
  161.3610  205.6570  151.4390 C   0  0  0  0  0  3  0  0  0  0  0  0
  162.2570  209.6030  149.9790 C   0  0  0  0  0  2  0  0  0  0  0  0
  161.0660  207.9460  152.2220 C   0  0  0  0  0  0  0  0  0  0  0  0
  162.3360  210.4170  148.6910 C   0  0  0  0  0  2  0  0  0  0  0  0
  161.2440  212.3240  149.6260 C   0  0  0  0  0  2  0  0  0  0  0  0
  161.6510  205.2410  152.7390 C   0  0  0  0  0  3  0  0  0  0  0  0
  160.1030  210.0790  153.0890 C   0  0  0  0  0  0  0  0  0  0  0  0
  161.0580  208.4240  154.6930 C   0  0  0  0  0  2  0  0  0  0  0  0
  160.5840  207.3310  149.8690 N   0  0  0  0  0  1  0  0  0  0  0  0
  160.1260  212.0950  151.8080 N   0  0  0  0  0  0  0  0  0  0  0  0
  159.7380  211.4380  152.9320 C   0  0  0  0  0  0  0  0  0  0  0  0
  162.4860  211.8330  149.0210 N   0  0  0  0  0  0  0  0  0  0  0  0
  161.2180  210.1530  150.9240 C   0  0  0  0  0  0  0  0  0  0  0  0
  159.8760  209.3450  154.3900 C   0  0  0  0  0  2  0  0  0  0  0  0
  158.9400  213.6430  155.9030 C   0  0  0  0  0  0  0  0  0  0  0  0
  157.5460  213.7140  155.8440 C   0  0  0  0  0  3  0  0  0  0  0  0
  158.9610  212.1960  153.9470 C   0  0  0  0  0  0  0  0  0  0  0  0
  156.8570  213.0370  154.8340 C   0  0  0  0  0  3  0  0  0  0  0  0
  159.6430  212.8920  154.9570 C   0  0  0  0  0  3  0  0  0  0  0  0
  157.5620  212.2870  153.8890 C   0  0  0  0  0  3  0  0  0  0  0  0
  159.6260  214.3190  156.9020 O   0  0  0  0  0  1  0  0  0  0  0  0
  162.7740  212.5950  147.8030 C   0  0  0  0  0  2  0  0  0  0  0  0
  161.6250  213.5220  147.3750 C   0  0  0  0  0  2  0  0  0  0  0  0
  161.3820  213.3150  144.8870 F   0  0  0  0  0  0  0  0  0  0  0  0
  158.2230  212.9230  147.6870 O   0  0  0  0  0  0  0  0  0  0  0  0
  159.0680  213.0730  146.2300 P   0  0  0  0  0  0  0  0  0  0  0  0
  160.3020  211.8250  146.2280 O   0  0  0  0  0  0  0  0  0  0  0  0
  160.8660  213.0380  146.1380 C   0  0  1  0  0  3  0  0  0  0  0  0
  158.2410  212.8870  144.9790 O   0  0  0  0  0  0  0  0  0  0  0  0
  1  5  1  0  0  0  0
  1 13  1  0  0  0  0
  2  6  2  0  0  0  0
  2  8  1  0  0  0  0
  3  8  1  0  0  0  0
  3 12  1  0  0  0  0
  4 18  1  0  0  0  0
  4 15  2  0  0  0  0
  6 11  1  0  0  0  0
  7 18  1  0  0  0  0
  8  1  2  0  0  0  0
  9 17  1  0  0  0  0
  9  7  1  0  0  0  0
 10  4  1  0  0  0  0
 11  5  2  0  0  0  0
 12 19  1  0  0  0  0
 14  2  1  0  0  0  0
 15 16  1  0  0  0  0
 16 12  2  0  0  0  0
 16 22  1  0  0  0  0
 17 10  1  0  0  0  0
 18  3  2  0  0  0  0
 19 13  1  0  0  0  0
 20 26  1  0  0  0  0
 21 20  1  0  0  0  0
 22 24  1  0  0  0  0
 23 21  2  0  0  0  0
 24 20  2  0  0  0  0
 25 22  2  0  0  0  0
 25 23  1  0  0  0  0
 27 17  1  0  0  0  0
 28 27  1  0  0  0  0
 31 30  2  0  0  0  0
 32 31  1  0  0  0  0
 33 29  1  6  0  0  0
 33 32  1  0  0  0  0
 33 28  1  0  0  0  0
 34 31  2  0  0  0  0
M  END
>  <MODEL>
6

>  <REMARK>
 VINA RESULT:      -6.5      1.729      2.538
  Name = 
  4 active torsions:
  status: ('A' for Active; 'I' for Inactive)
    1  A    between atoms: C_3  and  C_13
    2  A    between atoms: C_3  and  N_29
    3  A    between atoms: C_12  and  C_28
    4  A    between atoms: C_13  and  C_33
                            x       y       z     vdW  Elec       q    Type
                         _______ _______ _______ _____ _____    ______ ____

>  <TORSDO>
F 4

$$$$
=
 OpenBabel11062408103D

 34 38  0  0  1  0  0  0  0  0999 V2000
  160.6900  207.0750  154.9240 C   0  0  0  0  0  0  0  0  0  0  0  0
  161.6700  209.2020  155.5720 C   0  0  0  0  0  0  0  0  0  0  0  0
  161.1170  208.7230  153.1050 C   0  0  0  0  0  0  0  0  0  0  0  0
  160.8450  210.2510  151.2350 C   0  0  0  0  0  0  0  0  0  0  0  0
  160.6390  206.6890  156.2650 C   0  0  0  0  0  3  0  0  0  0  0  0
  161.6210  208.8000  156.9110 C   0  0  0  0  0  3  0  0  0  0  0  0
  160.2520  211.0830  153.5300 C   0  0  0  0  0  2  0  0  0  0  0  0
  161.1270  208.3690  154.5630 C   0  0  0  0  0  0  0  0  0  0  0  0
  160.3460  212.4700  152.9020 C   0  0  0  0  0  2  0  0  0  0  0  0
  160.6410  211.6330  150.6850 C   0  0  0  0  0  2  0  0  0  0  0  0
  161.0850  207.5590  157.2600 C   0  0  0  0  0  3  0  0  0  0  0  0
  161.2670  207.6670  152.1720 C   0  0  0  0  0  0  0  0  0  0  0  0
  160.3250  206.0890  153.8590 C   0  0  0  0  0  2  0  0  0  0  0  0
  162.3820  210.3930  155.2510 N   0  0  0  0  0  1  0  0  0  0  0  0
  161.1220  209.2380  150.3780 N   0  0  0  0  0  0  0  0  0  0  0  0
  161.3250  207.9580  150.7880 C   0  0  0  0  0  0  0  0  0  0  0  0
  159.7750  212.4320  151.5560 N   0  0  0  0  0  0  0  0  0  0  0  0
  160.8210  210.0190  152.6240 C   0  0  0  0  0  0  0  0  0  0  0  0
  161.2890  206.2460  152.6820 C   0  0  0  0  0  2  0  0  0  0  0  0
  161.3770  204.6200  149.0050 C   0  0  0  0  0  0  0  0  0  0  0  0
  161.9650  204.9550  147.7830 C   0  0  0  0  0  3  0  0  0  0  0  0
  161.5810  206.9290  149.7480 C   0  0  0  0  0  0  0  0  0  0  0  0
  162.3530  206.2750  147.5350 C   0  0  0  0  0  3  0  0  0  0  0  0
  161.1820  205.6030  149.9790 C   0  0  0  0  0  3  0  0  0  0  0  0
  162.1570  207.2560  148.5110 C   0  0  0  0  0  3  0  0  0  0  0  0
  160.9860  203.3110  149.2500 O   0  0  0  0  0  1  0  0  0  0  0  0
  159.6660  213.7950  151.0290 C   0  0  0  0  0  2  0  0  0  0  0  0
  160.3980  213.9920  149.6910 C   0  0  0  0  0  2  0  0  0  0  0  0
  158.1800  213.4800  148.6390 F   0  0  0  0  0  0  0  0  0  0  0  0
  161.9530  212.7960  146.8310 O   0  0  0  0  0  0  0  0  0  0  0  0
  160.2870  212.7830  147.1270 P   0  0  0  0  0  0  0  0  0  0  0  0
  159.8030  214.4520  147.3720 O   0  0  0  0  0  0  0  0  0  0  0  0
  159.5280  213.7220  148.4620 C   0  0  1  0  0  3  0  0  0  0  0  0
  159.4360  212.2290  146.0090 O   0  0  0  0  0  0  0  0  0  0  0  0
  1  5  1  0  0  0  0
  2  6  2  0  0  0  0
  3  8  1  0  0  0  0
  4 18  2  0  0  0  0
  5 11  2  0  0  0  0
  6 11  1  0  0  0  0
  8  1  2  0  0  0  0
  8  2  1  0  0  0  0
  9  7  1  0  0  0  0
 10  4  1  0  0  0  0
 10 17  1  0  0  0  0
 12 19  1  0  0  0  0
 12  3  2  0  0  0  0
 13  1  1  0  0  0  0
 14  2  1  0  0  0  0
 15 16  2  0  0  0  0
 15  4  1  0  0  0  0
 16 12  1  0  0  0  0
 17  9  1  0  0  0  0
 18  3  1  0  0  0  0
 18  7  1  0  0  0  0
 19 13  1  0  0  0  0
 20 26  1  0  0  0  0
 20 24  1  0  0  0  0
 21 20  2  0  0  0  0
 22 24  2  0  0  0  0
 22 16  1  0  0  0  0
 23 21  1  0  0  0  0
 23 25  2  0  0  0  0
 25 22  1  0  0  0  0
 27 17  1  0  0  0  0
 28 27  1  0  0  0  0
 30 31  2  0  0  0  0
 31 32  1  0  0  0  0
 32 33  1  0  0  0  0
 33 29  1  1  0  0  0
 33 28  1  0  0  0  0
 34 31  2  0  0  0  0
M  END
>  <MODEL>
7

>  <REMARK>
 VINA RESULT:      -6.1      2.514      5.641
  Name = 
  4 active torsions:
  status: ('A' for Active; 'I' for Inactive)
    1  A    between atoms: C_3  and  C_13
    2  A    between atoms: C_3  and  N_29
    3  A    between atoms: C_12  and  C_28
    4  A    between atoms: C_13  and  C_33
                            x       y       z     vdW  Elec       q    Type
                         _______ _______ _______ _____ _____    ______ ____

>  <TORSDO>
F 4

$$$$
=
 OpenBabel11062408103D

 34 38  0  0  1  0  0  0  0  0999 V2000
  161.8850  209.2370  155.1520 C   0  0  0  0  0  0  0  0  0  0  0  0
  160.4010  207.3130  155.1840 C   0  0  0  0  0  0  0  0  0  0  0  0
  161.2010  208.3010  152.9460 C   0  0  0  0  0  0  0  0  0  0  0  0
  161.2250  207.3240  150.7220 C   0  0  0  0  0  0  0  0  0  0  0  0
  161.9420  209.2170  156.5470 C   0  0  0  0  0  3  0  0  0  0  0  0
  160.4600  207.3100  156.5810 C   0  0  0  0  0  3  0  0  0  0  0  0
  161.4660  205.7790  152.6880 C   0  0  0  0  0  2  0  0  0  0  0  0
  161.1840  208.2350  154.4450 C   0  0  0  0  0  0  0  0  0  0  0  0
  161.0930  204.6820  151.6970 C   0  0  0  0  0  2  0  0  0  0  0  0
  161.1360  206.1380  149.8050 C   0  0  0  0  0  2  0  0  0  0  0  0
  161.2460  208.2420  157.2600 C   0  0  0  0  0  3  0  0  0  0  0  0
  161.3570  209.5760  152.3470 C   0  0  0  0  0  0  0  0  0  0  0  0
  162.5340  210.3590  154.4030 C   0  0  0  0  0  2  0  0  0  0  0  0
  159.4530  206.4620  154.5470 N   0  0  0  0  0  1  0  0  0  0  0  0
  161.2430  208.5680  150.1840 N   0  0  0  0  0  0  0  0  0  0  0  0
  161.3180  209.6970  150.9380 C   0  0  0  0  0  0  0  0  0  0  0  0
  161.7380  204.9480  150.4120 N   0  0  0  0  0  0  0  0  0  0  0  0
  161.2170  207.1540  152.1190 C   0  0  0  0  0  0  0  0  0  0  0  0
  161.6340  210.7660  153.2350 C   0  0  0  0  0  2  0  0  0  0  0  0
  162.2960  212.3650  148.4370 C   0  0  0  0  0  0  0  0  0  0  0  0
  161.4590  213.4220  148.8010 C   0  0  0  0  0  3  0  0  0  0  0  0
  161.3730  211.0010  150.2300 C   0  0  0  0  0  0  0  0  0  0  0  0
  160.5710  213.2720  149.8700 C   0  0  0  0  0  3  0  0  0  0  0  0
  162.2490  211.1600  149.1450 C   0  0  0  0  0  3  0  0  0  0  0  0
  160.5260  212.0660  150.5760 C   0  0  0  0  0  3  0  0  0  0  0  0
  163.1740  212.5110  147.3720 O   0  0  0  0  0  1  0  0  0  0  0  0
  161.5600  203.7970  149.5230 C   0  0  0  0  0  2  0  0  0  0  0  0
  160.8400  204.1440  148.2100 C   0  0  0  0  0  2  0  0  0  0  0  0
  163.0960  203.8650  147.1490 F   0  0  0  0  0  0  0  0  0  0  0  0
  159.9310  206.2030  145.5720 O   0  0  0  0  0  0  0  0  0  0  0  0
  161.4600  205.5200  145.8080 P   0  0  0  0  0  0  0  0  0  0  0  0
  161.2390  203.7790  145.8330 O   0  0  0  0  0  0  0  0  0  0  0  0
  161.7650  204.2000  146.9920 C   0  0  1  0  0  3  0  0  0  0  0  0
  162.4780  205.8270  144.7350 O   0  0  0  0  0  0  0  0  0  0  0  0
  1  5  1  0  0  0  0
  2  6  2  0  0  0  0
  3  8  1  0  0  0  0
  4 18  1  0  0  0  0
  5 11  2  0  0  0  0
  6 11  1  0  0  0  0
  8  1  2  0  0  0  0
  8  2  1  0  0  0  0
  9  7  1  0  0  0  0
 10 17  1  0  0  0  0
 10  4  1  0  0  0  0
 12  3  1  0  0  0  0
 12 19  1  0  0  0  0
 13  1  1  0  0  0  0
 14  2  1  0  0  0  0
 15  4  2  0  0  0  0
 15 16  1  0  0  0  0
 16 12  2  0  0  0  0
 17  9  1  0  0  0  0
 18  7  1  0  0  0  0
 18  3  2  0  0  0  0
 19 13  1  0  0  0  0
 20 21  2  0  0  0  0
 20 24  1  0  0  0  0
 21 23  1  0  0  0  0
 22 25  1  0  0  0  0
 22 16  1  0  0  0  0
 23 25  2  0  0  0  0
 24 22  2  0  0  0  0
 26 20  1  0  0  0  0
 27 17  1  0  0  0  0
 28 27  1  0  0  0  0
 30 31  2  0  0  0  0
 31 32  1  0  0  0  0
 32 33  1  0  0  0  0
 33 29  1  1  0  0  0
 33 28  1  0  0  0  0
 34 31  2  0  0  0  0
M  END
>  <MODEL>
8

>  <REMARK>
 VINA RESULT:      -6.0      3.574      6.743
  Name = 
  4 active torsions:
  status: ('A' for Active; 'I' for Inactive)
    1  A    between atoms: C_3  and  C_13
    2  A    between atoms: C_3  and  N_29
    3  A    between atoms: C_12  and  C_28
    4  A    between atoms: C_13  and  C_33
                            x       y       z     vdW  Elec       q    Type
                         _______ _______ _______ _____ _____    ______ ____

>  <TORSDO>
F 4

$$$$
