=
 OpenBabel11062408433D

 55 59  0  0  1  0  0  0  0  0999 V2000
  161.7860  207.8550  151.4500 C   0  0  0  0  0  3  0  0  0  0  0  0
  161.3910  213.9400  148.7760 C   0  0  0  0  0  2  0  0  0  0  0  0
  159.4910  213.3830  151.5790 O   0  0  0  0  0  0  0  0  0  0  0  0
  156.5170  211.9700  153.3900 C   0  0  0  0  0  3  0  0  0  0  0  0
  156.1500  210.9220  154.2370 C   0  0  0  0  0  3  0  0  0  0  0  0
  158.8340  211.2470  153.4860 C   0  0  0  0  0  0  0  0  0  0  0  0
  158.4510  210.1940  154.3320 C   0  0  0  0  0  3  0  0  0  0  0  0
  157.3030  214.0820  151.7400 O   0  0  0  0  0  0  0  0  0  0  0  0
  157.1160  210.0330  154.7050 C   0  0  0  0  0  3  0  0  0  0  0  0
  157.8550  212.1440  153.0020 C   0  0  0  0  0  0  0  0  0  0  0  0
  163.3010  209.4730  152.4650 C   0  0  0  0  0  2  0  0  0  0  0  0
  162.4970  209.0330  149.3420 C   0  0  0  0  0  2  0  0  0  0  0  0
  162.3460  210.6660  152.4740 C   0  0  0  0  0  2  0  0  0  0  0  0
  163.4000  212.0120  149.1250 O   0  0  0  0  0  1  0  0  0  0  0  0
  160.1750  211.4130  153.1180 O   0  0  0  0  0  0  0  0  0  0  0  0
  161.3100  214.2260  150.2730 C   0  0  0  0  0  2  0  0  0  0  0  0
  159.8730  214.4390  150.7110 C   0  0  0  0  0  2  0  0  0  0  0  0
  161.1420  212.4720  148.4020 C   0  0  1  0  0  3  0  0  0  0  0  0
  162.6160  208.1980  152.3790 N   0  0  0  0  0  0  0  0  0  0  0  0
  158.1940  213.2560  152.0830 C   0  0  0  0  0  0  0  0  0  0  0  0
  161.3590  208.7540  150.3230 C   0  0  1  0  0  3  0  0  0  0  0  0
  162.1020  211.5000  149.1050 C   0  0  1  0  0  3  0  0  0  0  0  0
  161.2200  210.5220  153.4860 C   0  0  2  0  0  3  0  0  0  0  0  0
  162.1190  210.1570  148.3880 C   0  0  0  0  0  2  0  0  0  0  0  0
  161.7020  210.8280  154.8670 C   0  0  0  0  0  0  0  0  0  0  0  0
  163.2260  211.1580  156.4780 C   0  0  0  0  0  0  0  0  0  0  0  0
  160.8170  211.1310  155.9020 C   0  0  0  0  0  3  0  0  0  0  0  0
  161.7670  211.4340  157.2590 S   0  0  0  0  0  0  0  0  0  0  0  0
  163.0270  210.8520  155.1810 N   0  0  0  0  0  0  0  0  0  0  0  0
  164.5780  211.3110  157.0960 C   0  0  0  0  0  3  0  0  0  0  0  0
  165.0090  212.7640  157.0340 C   0  0  0  0  0  2  0  0  0  0  0  0
  165.5780  211.7690  156.0500 C   0  0  0  0  0  2  0  0  0  0  0  0
  160.1100  208.2050  149.6310 C   0  0  0  0  0  2  0  0  0  0  0  0
  160.9270  204.9810  147.1670 C   0  0  0  0  0  1  0  0  0  0  0  0
  160.6380  206.1200  148.0400 C   0  0  0  0  0  0  0  0  0  0  0  0
  160.3990  207.0590  148.7580 C   0  0  0  0  0  0  0  0  0  0  0  0
  159.6830  212.1040  148.6440 C   0  0  0  0  0  2  0  0  0  0  0  0
  158.7900  212.6410  147.5450 C   0  0  0  0  0  2  0  0  0  0  0  0
  159.5620  212.6530  146.2400 C   0  0  0  0  0  2  0  0  0  0  0  0
  159.6750  214.0770  145.7130 C   0  0  2  0  0  3  0  0  0  0  0  0
  157.2970  213.5580  144.9350 C   0  0  0  0  0  1  0  0  0  0  0  0
  158.5260  214.4390  144.7600 C   0  0  2  0  0  3  0  0  0  0  0  0
  158.9960  214.4450  143.3110 C   0  0  0  0  0  2  0  0  0  0  0  0
  158.4180  213.8910  141.1070 C   0  0  1  0  0  3  0  0  0  0  0  0
  158.1880  213.5360  142.5150 N   0  0  0  0  0  0  0  0  0  0  0  0
  159.1230  212.7570  141.6930 C   0  0  0  0  0  2  0  0  0  0  0  0
  157.2530  213.3870  140.2750 C   0  0  0  0  0  2  0  0  0  0  0  0
  157.6270  212.1040  139.5500 C   0  0  0  0  0  2  0  0  0  0  0  0
  159.2100  212.5370  137.8190 O   0  0  0  0  0  1  0  0  0  0  0  0
  157.0150  212.5130  137.1670 O   0  0  0  0  0  0  0  0  0  0  0  0
  158.0020  212.3840  138.1340 C   0  0  0  0  0  0  0  0  0  0  0  0
  161.0880  214.4250  145.2180 C   0  0  0  0  0  2  0  0  0  0  0  0
  162.9080  212.7520  145.5500 O   0  0  0  0  0  1  0  0  0  0  0  0
  161.6180  212.6890  143.6590 O   0  0  0  0  0  0  0  0  0  0  0  0
  161.8770  213.2410  144.7600 C   0  0  0  0  0  0  0  0  0  0  0  0
  1 19  2  0  0  0  0
  2 16  1  0  0  0  0
  3 20  1  0  0  0  0
  4  5  1  0  0  0  0
  5  9  2  0  0  0  0
  6  7  2  0  0  0  0
  7  9  1  0  0  0  0
  8 20  2  0  0  0  0
 10  4  2  0  0  0  0
 10  6  1  0  0  0  0
 11 13  1  0  0  0  0
 12 21  1  0  0  0  0
 13 23  1  0  0  0  0
 15 23  1  0  0  0  0
 15  6  1  0  0  0  0
 16 17  1  0  0  0  0
 17  3  1  0  0  0  0
 18 37  1  1  0  0  0
 18  2  1  0  0  0  0
 18 22  1  0  0  0  0
 19 11  1  0  0  0  0
 20 10  1  0  0  0  0
 21 33  1  6  0  0  0
 21  1  1  0  0  0  0
 22 14  1  6  0  0  0
 23 25  1  1  0  0  0
 24 22  1  0  0  0  0
 24 12  1  0  0  0  0
 25 29  1  0  0  0  0
 25 27  2  0  0  0  0
 26 30  1  0  0  0  0
 26 28  1  0  0  0  0
 27 28  1  0  0  0  0
 29 26  2  0  0  0  0
 31 30  1  0  0  0  0
 32 31  1  0  0  0  0
 32 30  1  0  0  0  0
 34 35  1  0  0  0  0
 35 36  3  0  0  0  0
 36 33  1  0  0  0  0
 38 37  1  0  0  0  0
 39 38  1  0  0  0  0
 40 52  1  6  0  0  0
 40 39  1  0  0  0  0
 42 41  1  6  0  0  0
 42 40  1  0  0  0  0
 43 42  1  0  0  0  0
 44 47  1  6  0  0  0
 44 46  1  0  0  0  0
 44 45  1  0  0  0  0
 45 43  1  0  0  0  0
 46 45  1  0  0  0  0
 48 47  1  0  0  0  0
 49 51  1  0  0  0  0
 50 51  2  0  0  0  0
 51 48  1  0  0  0  0
 54 55  2  0  0  0  0
 55 52  1  0  0  0  0
 55 53  1  0  0  0  0
M  END
>  <MODEL>
1

>  <REMARK>
 VINA RESULT:       4.3      0.000      0.000
  Name = 
  16 active torsions:
  status: ('A' for Active; 'I' for Inactive)
    1  A    between atoms: C_3  and  C_14
    2  A    between atoms: C_6  and  C_14
    3  A    between atoms: C_6  and  C_38
    4  A    between atoms: C_7  and  N_21
    5  A    between atoms: C_7  and  C_46
    6  A    between atoms: C_8  and  C_20
    7  A    between atoms: C_8  and  C_22
    8  A    between atoms: C_10  and  C_32
    9  A    between atoms: C_12  and  C_20
   10  A    between atoms: C_12  and  C_42
   11  A    between atoms: C_12  and  C_46
   12  A    between atoms: C_13  and  C_52
   13  A    between atoms: C_22  and  C_43
   14  A    between atoms: C_27  and  C_49
   15  A    between atoms: C_27  and  C_55
   16  A    between atoms: C_42  and  C_50
                            x       y       z     vdW  Elec       q    Type
                         _______ _______ _______ _____ _____    ______ ____

>  <TORSDO>
F 16

$$$$
=
 OpenBabel11062408433D

 55 59  0  0  1  0  0  0  0  0999 V2000
  161.7220  207.8130  151.6180 C   0  0  0  0  0  3  0  0  0  0  0  0
  161.9010  213.7390  148.5870 C   0  0  0  0  0  2  0  0  0  0  0  0
  159.8090  213.4770  151.2960 O   0  0  0  0  0  0  0  0  0  0  0  0
  156.6460  212.3720  152.9980 C   0  0  0  0  0  3  0  0  0  0  0  0
  156.1590  211.4030  153.8780 C   0  0  0  0  0  3  0  0  0  0  0  0
  158.8990  211.5070  153.2760 C   0  0  0  0  0  0  0  0  0  0  0  0
  158.3960  210.5340  154.1550 C   0  0  0  0  0  3  0  0  0  0  0  0
  157.6680  214.3260  151.2830 O   0  0  0  0  0  0  0  0  0  0  0  0
  157.0340  210.4830  154.4540 C   0  0  0  0  0  3  0  0  0  0  0  0
  158.0120  212.4350  152.6830 C   0  0  0  0  0  0  0  0  0  0  0  0
  163.2840  209.3870  152.6310 C   0  0  0  0  0  2  0  0  0  0  0  0
  162.6320  208.8130  149.4950 C   0  0  0  0  0  2  0  0  0  0  0  0
  162.4140  210.6380  152.5150 C   0  0  0  0  0  2  0  0  0  0  0  0
  163.7490  211.7090  149.1670 O   0  0  0  0  0  1  0  0  0  0  0  0
  160.2660  211.5620  152.9830 O   0  0  0  0  0  0  0  0  0  0  0  0
  161.7540  214.1190  150.0590 C   0  0  0  0  0  2  0  0  0  0  0  0
  160.3120  214.4520  150.3950 C   0  0  0  0  0  2  0  0  0  0  0  0
  161.5730  212.2710  148.2820 C   0  0  1  0  0  3  0  0  0  0  0  0
  162.5190  208.1570  152.5760 N   0  0  0  0  0  0  0  0  0  0  0  0
  158.4790  213.4660  151.7260 C   0  0  0  0  0  0  0  0  0  0  0  0
  161.4230  208.6690  150.4190 C   0  0  1  0  0  3  0  0  0  0  0  0
  162.4210  211.2820  149.0960 C   0  0  1  0  0  3  0  0  0  0  0  0
  161.2240  210.6290  153.4630 C   0  0  2  0  0  3  0  0  0  0  0  0
  162.3870  209.9000  148.4580 C   0  0  0  0  0  2  0  0  0  0  0  0
  161.6470  210.9850  154.8510 C   0  0  0  0  0  0  0  0  0  0  0  0
  163.0870  211.2550  156.5490 C   0  0  0  0  0  0  0  0  0  0  0  0
  160.7400  211.4800  155.7890 C   0  0  0  0  0  3  0  0  0  0  0  0
  161.6260  211.7730  157.1910 S   0  0  0  0  0  0  0  0  0  0  0  0
  162.9390  210.8700  155.2650 N   0  0  0  0  0  0  0  0  0  0  0  0
  164.4020  211.2890  157.2580 C   0  0  0  0  0  3  0  0  0  0  0  0
  164.9470  212.7040  157.2590 C   0  0  0  0  0  2  0  0  0  0  0  0
  165.5030  211.6850  156.2920 C   0  0  0  0  0  2  0  0  0  0  0  0
  160.1810  208.1620  149.6830 C   0  0  0  0  0  2  0  0  0  0  0  0
  160.8720  204.6580  147.5910 C   0  0  0  0  0  1  0  0  0  0  0  0
  160.6280  205.8960  148.3320 C   0  0  0  0  0  0  0  0  0  0  0  0
  160.4260  206.9170  148.9420 C   0  0  0  0  0  0  0  0  0  0  0  0
  160.0800  212.0140  148.4550 C   0  0  0  0  0  2  0  0  0  0  0  0
  159.2610  213.2010  147.9920 C   0  0  0  0  0  2  0  0  0  0  0  0
  159.8470  213.7360  146.7010 C   0  0  0  0  0  2  0  0  0  0  0  0
  159.5760  212.7640  145.5610 C   0  0  2  0  0  3  0  0  0  0  0  0
  161.7550  213.7950  144.7120 C   0  0  0  0  0  1  0  0  0  0  0  0
  160.7720  212.6370  144.6050 C   0  0  2  0  0  3  0  0  0  0  0  0
  160.3080  212.4420  143.1670 C   0  0  0  0  0  2  0  0  0  0  0  0
  160.9970  211.8470  141.0060 C   0  0  1  0  0  3  0  0  0  0  0  0
  161.2610  211.6240  142.4360 N   0  0  0  0  0  0  0  0  0  0  0  0
  162.0960  212.5500  141.6590 C   0  0  0  0  0  2  0  0  0  0  0  0
  161.5470  210.6740  140.2150 C   0  0  0  0  0  2  0  0  0  0  0  0
  161.3450  210.8900  138.7240 C   0  0  0  0  0  2  0  0  0  0  0  0
  158.9820  211.2070  138.6660 O   0  0  0  0  0  1  0  0  0  0  0  0
  160.2360  212.9920  137.9690 O   0  0  0  0  0  0  0  0  0  0  0  0
  160.1210  211.7020  138.4660 C   0  0  0  0  0  0  0  0  0  0  0  0
  158.2090  212.9850  144.8940 C   0  0  0  0  0  2  0  0  0  0  0  0
  157.0350  212.1090  146.9130 O   0  0  0  0  0  1  0  0  0  0  0  0
  156.1210  213.8260  145.7030 O   0  0  0  0  0  0  0  0  0  0  0  0
  157.0630  213.0050  145.8530 C   0  0  0  0  0  0  0  0  0  0  0  0
  1 19  2  0  0  0  0
  2 16  1  0  0  0  0
  3 20  1  0  0  0  0
  4  5  1  0  0  0  0
  5  9  2  0  0  0  0
  6  7  2  0  0  0  0
  7  9  1  0  0  0  0
  8 20  2  0  0  0  0
 10  4  2  0  0  0  0
 10  6  1  0  0  0  0
 12 21  1  0  0  0  0
 13 11  1  0  0  0  0
 13 23  1  0  0  0  0
 15  6  1  0  0  0  0
 15 23  1  0  0  0  0
 16 17  1  0  0  0  0
 17  3  1  0  0  0  0
 18 37  1  1  0  0  0
 18  2  1  0  0  0  0
 18 22  1  0  0  0  0
 19 11  1  0  0  0  0
 20 10  1  0  0  0  0
 21 33  1  6  0  0  0
 21  1  1  0  0  0  0
 22 14  1  6  0  0  0
 23 25  1  1  0  0  0
 24 22  1  0  0  0  0
 24 12  1  0  0  0  0
 25 29  1  0  0  0  0
 25 27  2  0  0  0  0
 26 28  1  0  0  0  0
 26 30  1  0  0  0  0
 27 28  1  0  0  0  0
 29 26  2  0  0  0  0
 30 31  1  0  0  0  0
 32 30  1  0  0  0  0
 32 31  1  0  0  0  0
 34 35  1  0  0  0  0
 35 36  3  0  0  0  0
 36 33  1  0  0  0  0
 38 37  1  0  0  0  0
 39 38  1  0  0  0  0
 40 52  1  6  0  0  0
 40 39  1  0  0  0  0
 42 41  1  6  0  0  0
 42 40  1  0  0  0  0
 43 42  1  0  0  0  0
 44 47  1  6  0  0  0
 44 46  1  0  0  0  0
 44 45  1  0  0  0  0
 45 43  1  0  0  0  0
 46 45  1  0  0  0  0
 48 47  1  0  0  0  0
 50 51  2  0  0  0  0
 51 49  1  0  0  0  0
 51 48  1  0  0  0  0
 52 55  1  0  0  0  0
 54 55  2  0  0  0  0
 55 53  1  0  0  0  0
M  END
>  <MODEL>
2

>  <REMARK>
 VINA RESULT:       4.5      1.599      2.107
  Name = 
  16 active torsions:
  status: ('A' for Active; 'I' for Inactive)
    1  A    between atoms: C_3  and  C_14
    2  A    between atoms: C_6  and  C_14
    3  A    between atoms: C_6  and  C_38
    4  A    between atoms: C_7  and  N_21
    5  A    between atoms: C_7  and  C_46
    6  A    between atoms: C_8  and  C_20
    7  A    between atoms: C_8  and  C_22
    8  A    between atoms: C_10  and  C_32
    9  A    between atoms: C_12  and  C_20
   10  A    between atoms: C_12  and  C_42
   11  A    between atoms: C_12  and  C_46
   12  A    between atoms: C_13  and  C_52
   13  A    between atoms: C_22  and  C_43
   14  A    between atoms: C_27  and  C_49
   15  A    between atoms: C_27  and  C_55
   16  A    between atoms: C_42  and  C_50
                            x       y       z     vdW  Elec       q    Type
                         _______ _______ _______ _____ _____    ______ ____

>  <TORSDO>
F 16

$$$$
