=
 OpenBabel11062410503D

 32 36  0  0  1  0  0  0  0  0999 V2000
  161.4340  203.4570  146.8850 C   0  0  0  0  0  2  0  0  0  0  0  0
  160.8050  205.9060  151.2260 C   0  0  0  0  0  0  0  0  0  0  0  0
  162.2200  210.6840  148.7280 C   0  0  0  0  0  3  0  0  0  0  0  0
  162.0120  211.2320  149.9860 C   0  0  0  0  0  3  0  0  0  0  0  0
  160.7510  203.5740  149.5850 C   0  0  0  0  0  0  0  0  0  0  0  0
  161.3350  205.9410  149.8450 C   0  0  0  0  0  0  0  0  0  0  0  0
  161.9790  204.6170  147.7000 C   0  0  0  0  0  2  0  0  0  0  0  0
  162.1210  209.3070  148.5530 C   0  0  0  0  0  3  0  0  0  0  0  0
  161.7470  207.0430  149.2200 C   0  0  0  0  0  3  0  0  0  0  0  0
  161.8120  208.4510  149.6200 C   0  0  0  0  0  0  0  0  0  0  0  0
  161.3210  208.2310  152.1590 C   0  0  0  0  0  0  0  0  0  0  0  0
  160.9450  201.1080  149.7460 C   0  0  0  0  0  1  0  0  0  0  0  0
  160.6570  202.2740  148.8080 C   0  0  2  0  0  3  0  0  0  0  0  0
  161.3250  204.6750  149.0570 C   0  0  0  0  0  0  0  0  0  0  0  0
  160.1710  203.6360  150.8590 O   0  0  0  0  0  0  0  0  0  0  0  0
  161.5720  202.2260  147.6560 N   0  0  0  0  0  0  0  0  0  0  0  0
  161.7130  210.3970  151.0600 C   0  0  0  0  0  3  0  0  0  0  0  0
  161.6080  208.9980  150.9140 C   0  0  0  0  0  0  0  0  0  0  0  0
  160.2550  204.7740  151.6660 C   0  0  0  0  0  3  0  0  0  0  0  0
  160.9530  206.9490  152.2350 C   0  0  0  0  0  3  0  0  0  0  0  0
  161.5180  208.7140  155.9680 C   0  0  0  0  0  0  0  0  0  0  0  0
  160.4900  209.7480  156.1490 C   0  0  0  0  0  3  0  0  0  0  0  0
  160.1680  209.8520  153.7280 C   0  0  0  0  0  0  0  0  0  0  0  0
  158.8370  211.2020  155.3280 O   0  0  0  0  0  1  0  0  0  0  0  0
  159.8340  210.2610  155.1060 C   0  0  0  0  0  0  0  0  0  0  0  0
  161.6760  208.0270  154.6450 C   0  0  0  0  0  2  0  0  0  0  0  0
  162.2170  208.3480  156.9490 O   0  0  0  0  0  0  0  0  0  0  0  0
  159.5020  210.3160  152.7630 O   0  0  0  0  0  0  0  0  0  0  0  0
  161.3760  208.9750  153.4760 C   0  0  1  0  0  3  0  0  0  0  0  0
  161.1260  201.1500  146.7780 C   0  0  0  0  0  2  0  0  0  0  0  0
  160.5210  201.7210  145.5050 C   0  0  0  0  0  2  0  0  0  0  0  0
  159.8030  200.6350  144.7290 C   0  0  0  0  0  1  0  0  0  0  0  0
  1 16  1  0  0  0  0
  1  7  1  0  0  0  0
  2 19  2  0  0  0  0
  2 20  1  0  0  0  0
  3  4  1  0  0  0  0
  4 17  2  0  0  0  0
  5 15  1  0  0  0  0
  6  2  1  0  0  0  0
  7 14  1  0  0  0  0
  8  3  2  0  0  0  0
  8 10  1  0  0  0  0
  9 10  1  0  0  0  0
  9  6  2  0  0  0  0
 10 18  2  0  0  0  0
 11 20  2  0  0  0  0
 13  5  1  0  0  0  0
 13 12  1  1  0  0  0
 14  5  2  0  0  0  0
 14  6  1  0  0  0  0
 15 19  1  0  0  0  0
 16 13  1  0  0  0  0
 18 17  1  0  0  0  0
 18 11  1  0  0  0  0
 21 22  1  0  0  0  0
 21 27  2  0  0  0  0
 23 25  1  0  0  0  0
 25 24  1  0  0  0  0
 25 22  2  0  0  0  0
 26 21  1  0  0  0  0
 28 23  2  0  0  0  0
 29 11  1  6  0  0  0
 29 23  1  0  0  0  0
 29 26  1  0  0  0  0
 30 16  1  0  0  0  0
 31 30  1  0  0  0  0
 32 31  1  0  0  0  0
M  END
>  <MODEL>
1

>  <REMARK>
 VINA RESULT:      -9.4      0.000      0.000
  Name = 
  3 active torsions:
  status: ('A' for Active; 'I' for Inactive)
    1  A    between atoms: C_1  and  C_10
    2  A    between atoms: C_10  and  N_24
    3  A    between atoms: C_16  and  C_32
                            x       y       z     vdW  Elec       q    Type
                         _______ _______ _______ _____ _____    ______ ____

>  <TORSDO>
F 3

$$$$
=
 OpenBabel11062410503D

 32 36  0  0  1  0  0  0  0  0999 V2000
  161.1640  202.3260  148.2840 C   0  0  0  0  0  2  0  0  0  0  0  0
  161.7080  207.2470  149.1400 C   0  0  0  0  0  0  0  0  0  0  0  0
  161.0860  206.3570  154.6080 C   0  0  0  0  0  3  0  0  0  0  0  0
  161.2500  207.7320  154.7000 C   0  0  0  0  0  3  0  0  0  0  0  0
  161.6240  204.9480  147.4540 C   0  0  0  0  0  0  0  0  0  0  0  0
  161.3040  205.9290  149.6780 C   0  0  0  0  0  0  0  0  0  0  0  0
  160.6930  203.4470  149.1950 C   0  0  0  0  0  2  0  0  0  0  0  0
  161.0360  205.7530  153.3540 C   0  0  0  0  0  3  0  0  0  0  0  0
  161.0810  205.6730  150.9670 C   0  0  0  0  0  3  0  0  0  0  0  0
  161.1490  206.5010  152.1740 C   0  0  0  0  0  0  0  0  0  0  0  0
  161.3940  208.8540  151.1050 C   0  0  0  0  0  0  0  0  0  0  0  0
  161.1270  204.3000  145.1130 C   0  0  0  0  0  1  0  0  0  0  0  0
  161.6300  203.7990  146.4630 C   0  0  2  0  0  3  0  0  0  0  0  0
  161.2320  204.7780  148.7340 C   0  0  0  0  0  0  0  0  0  0  0  0
  162.0970  206.1980  147.0330 O   0  0  0  0  0  0  0  0  0  0  0  0
  160.8160  202.6550  146.9050 N   0  0  0  0  0  0  0  0  0  0  0  0
  161.3550  208.4920  153.5380 C   0  0  0  0  0  3  0  0  0  0  0  0
  161.3060  207.9100  152.2540 C   0  0  0  0  0  0  0  0  0  0  0  0
  162.0800  207.3230  147.8620 C   0  0  0  0  0  3  0  0  0  0  0  0
  161.5990  208.5300  149.8260 C   0  0  0  0  0  3  0  0  0  0  0  0
  159.8680  212.1620  152.3340 C   0  0  0  0  0  0  0  0  0  0  0  0
  160.2400  213.0450  151.2200 C   0  0  0  0  0  3  0  0  0  0  0  0
  161.4660  211.2080  150.1720 C   0  0  0  0  0  0  0  0  0  0  0  0
  161.2490  213.4520  149.1370 O   0  0  0  0  0  1  0  0  0  0  0  0
  160.9610  212.5950  150.1910 C   0  0  0  0  0  0  0  0  0  0  0  0
  160.0670  210.6800  152.2240 C   0  0  0  0  0  2  0  0  0  0  0  0
  159.3100  212.6430  153.3540 O   0  0  0  0  0  0  0  0  0  0  0  0
  162.1050  210.7930  149.1680 O   0  0  0  0  0  0  0  0  0  0  0  0
  161.3160  210.3360  151.4000 C   0  0  1  0  0  3  0  0  0  0  0  0
  161.2050  201.4980  146.1060 C   0  0  0  0  0  2  0  0  0  0  0  0
  161.1950  200.2380  146.9580 C   0  0  0  0  0  2  0  0  0  0  0  0
  161.5340  199.0270  146.1120 C   0  0  0  0  0  1  0  0  0  0  0  0
  1  7  1  0  0  0  0
  2  6  1  0  0  0  0
  2 20  1  0  0  0  0
  3  4  1  0  0  0  0
  5 14  2  0  0  0  0
  6  9  2  0  0  0  0
  8  3  2  0  0  0  0
  9 10  1  0  0  0  0
 10 18  2  0  0  0  0
 10  8  1  0  0  0  0
 11 18  1  0  0  0  0
 13 12  1  6  0  0  0
 13 16  1  0  0  0  0
 13  5  1  0  0  0  0
 14  7  1  0  0  0  0
 14  6  1  0  0  0  0
 15  5  1  0  0  0  0
 15 19  1  0  0  0  0
 16  1  1  0  0  0  0
 17  4  2  0  0  0  0
 18 17  1  0  0  0  0
 19  2  2  0  0  0  0
 20 11  2  0  0  0  0
 21 27  2  0  0  0  0
 22 21  1  0  0  0  0
 23 25  1  0  0  0  0
 23 29  1  0  0  0  0
 24 25  1  0  0  0  0
 25 22  2  0  0  0  0
 26 21  1  0  0  0  0
 28 23  2  0  0  0  0
 29 11  1  6  0  0  0
 29 26  1  0  0  0  0
 30 16  1  0  0  0  0
 30 31  1  0  0  0  0
 32 31  1  0  0  0  0
M  END
>  <MODEL>
2

>  <REMARK>
 VINA RESULT:      -9.0      1.945      4.082
  Name = 
  3 active torsions:
  status: ('A' for Active; 'I' for Inactive)
    1  A    between atoms: C_1  and  C_10
    2  A    between atoms: C_10  and  N_24
    3  A    between atoms: C_16  and  C_32
                            x       y       z     vdW  Elec       q    Type
                         _______ _______ _______ _____ _____    ______ ____

>  <TORSDO>
F 3

$$$$
=
 OpenBabel11062410503D

 32 36  0  0  1  0  0  0  0  0999 V2000
  161.1850  203.7480  150.4350 C   0  0  0  0  0  2  0  0  0  0  0  0
  161.2150  208.6160  151.6770 C   0  0  0  0  0  0  0  0  0  0  0  0
  160.4370  207.2480  157.0250 C   0  0  0  0  0  3  0  0  0  0  0  0
  160.4640  208.6210  157.2270 C   0  0  0  0  0  3  0  0  0  0  0  0
  161.4290  206.4580  149.8250 C   0  0  0  0  0  0  0  0  0  0  0  0
  160.9170  207.2280  152.0950 C   0  0  0  0  0  0  0  0  0  0  0  0
  160.5690  204.7460  151.3990 C   0  0  0  0  0  2  0  0  0  0  0  0
  160.5010  206.7430  155.7290 C   0  0  0  0  0  3  0  0  0  0  0  0
  160.6610  206.8540  153.3480 C   0  0  0  0  0  3  0  0  0  0  0  0
  160.5950  207.5880  154.6140 C   0  0  0  0  0  0  0  0  0  0  0  0
  160.6610  210.0290  153.7360 C   0  0  0  0  0  0  0  0  0  0  0  0
  161.1020  205.9510  147.4200 C   0  0  0  0  0  1  0  0  0  0  0  0
  161.5890  205.3950  148.7530 C   0  0  2  0  0  3  0  0  0  0  0  0
  160.9980  206.1530  151.0660 C   0  0  0  0  0  0  0  0  0  0  0  0
  161.7990  207.7750  149.5220 O   0  0  0  0  0  0  0  0  0  0  0  0
  160.8700  204.1500  149.0670 N   0  0  0  0  0  0  0  0  0  0  0  0
  160.5480  209.4760  156.1310 C   0  0  0  0  0  3  0  0  0  0  0  0
  160.6130  208.9940  154.8070 C   0  0  0  0  0  0  0  0  0  0  0  0
  161.6360  208.8260  150.4290 C   0  0  0  0  0  3  0  0  0  0  0  0
  160.9530  209.8260  152.4480 C   0  0  0  0  0  3  0  0  0  0  0  0
  160.1530  213.0360  156.0770 C   0  0  0  0  0  0  0  0  0  0  0  0
  159.0320  213.7020  155.3980 C   0  0  0  0  0  3  0  0  0  0  0  0
  159.1300  212.0440  153.6060 C   0  0  0  0  0  0  0  0  0  0  0  0
  157.4410  213.8580  153.6760 O   0  0  0  0  0  1  0  0  0  0  0  0
  158.5310  213.2230  154.2580 C   0  0  0  0  0  0  0  0  0  0  0  0
  160.5910  211.6680  155.6480 C   0  0  0  0  0  2  0  0  0  0  0  0
  160.6950  213.5820  157.0720 O   0  0  0  0  0  0  0  0  0  0  0  0
  158.6100  211.5830  152.5540 O   0  0  0  0  0  0  0  0  0  0  0  0
  160.4280  211.4700  154.1350 C   0  0  1  0  0  3  0  0  0  0  0  0
  161.4040  203.0990  148.2070 C   0  0  0  0  0  2  0  0  0  0  0  0
  160.5770  201.8300  148.3450 C   0  0  0  0  0  2  0  0  0  0  0  0
  161.4670  200.6080  148.2480 C   0  0  0  0  0  1  0  0  0  0  0  0
  1  7  1  0  0  0  0
  2  6  1  0  0  0  0
  2 20  1  0  0  0  0
  3  4  1  0  0  0  0
  5 14  2  0  0  0  0
  6  9  2  0  0  0  0
  8  3  2  0  0  0  0
  9 10  1  0  0  0  0
 10 18  2  0  0  0  0
 10  8  1  0  0  0  0
 11 18  1  0  0  0  0
 13 12  1  6  0  0  0
 13 16  1  0  0  0  0
 13  5  1  0  0  0  0
 14  7  1  0  0  0  0
 14  6  1  0  0  0  0
 15  5  1  0  0  0  0
 15 19  1  0  0  0  0
 16  1  1  0  0  0  0
 17  4  2  0  0  0  0
 18 17  1  0  0  0  0
 19  2  2  0  0  0  0
 20 11  2  0  0  0  0
 21 27  2  0  0  0  0
 22 21  1  0  0  0  0
 23 29  1  0  0  0  0
 23 25  1  0  0  0  0
 24 25  1  0  0  0  0
 25 22  2  0  0  0  0
 26 21  1  0  0  0  0
 28 23  2  0  0  0  0
 29 11  1  1  0  0  0
 29 26  1  0  0  0  0
 30 31  1  0  0  0  0
 30 16  1  0  0  0  0
 32 31  1  0  0  0  0
M  END
>  <MODEL>
3

>  <REMARK>
 VINA RESULT:      -9.0      2.029      4.357
  Name = 
  3 active torsions:
  status: ('A' for Active; 'I' for Inactive)
    1  A    between atoms: C_1  and  C_10
    2  A    between atoms: C_10  and  N_24
    3  A    between atoms: C_16  and  C_32
                            x       y       z     vdW  Elec       q    Type
                         _______ _______ _______ _____ _____    ______ ____

>  <TORSDO>
F 3

$$$$
=
 OpenBabel11062410503D

 32 36  0  0  1  0  0  0  0  0999 V2000
  161.0300  207.5280  155.6120 C   0  0  0  0  0  2  0  0  0  0  0  0
  161.0480  206.9060  150.6260 C   0  0  0  0  0  0  0  0  0  0  0  0
  160.6690  201.3880  151.3210 C   0  0  0  0  0  3  0  0  0  0  0  0
  160.6860  201.3610  149.9330 C   0  0  0  0  0  3  0  0  0  0  0  0
  161.0760  208.4930  152.9960 C   0  0  0  0  0  0  0  0  0  0  0  0
  161.1740  206.2740  151.9580 C   0  0  0  0  0  0  0  0  0  0  0  0
  161.5030  206.5840  154.5200 C   0  0  0  0  0  2  0  0  0  0  0  0
  160.8320  202.6000  151.9870 C   0  0  0  0  0  3  0  0  0  0  0  0
  161.1530  204.9600  152.1770 C   0  0  0  0  0  3  0  0  0  0  0  0
  161.0120  203.8030  151.2890 C   0  0  0  0  0  0  0  0  0  0  0  0
  161.2680  204.9610  148.9810 C   0  0  0  0  0  0  0  0  0  0  0  0
  161.8410  210.7030  153.8190 C   0  0  0  0  0  1  0  0  0  0  0  0
  161.0670  209.4400  154.1810 C   0  0  2  0  0  3  0  0  0  0  0  0
  161.2340  207.1620  153.1540 C   0  0  0  0  0  0  0  0  0  0  0  0
  160.8530  209.0190  151.7170 O   0  0  0  0  0  0  0  0  0  0  0  0
  161.6330  208.8410  155.4000 N   0  0  0  0  0  0  0  0  0  0  0  0
  160.8720  202.5450  149.2240 C   0  0  0  0  0  3  0  0  0  0  0  0
  161.0410  203.7870  149.8700 C   0  0  0  0  0  0  0  0  0  0  0  0
  160.8960  208.2290  150.5640 C   0  0  0  0  0  3  0  0  0  0  0  0
  161.2250  206.2470  149.3370 C   0  0  0  0  0  3  0  0  0  0  0  0
  163.2490  204.5650  145.7090 C   0  0  0  0  0  0  0  0  0  0  0  0
  162.3750  205.3080  144.7900 C   0  0  0  0  0  3  0  0  0  0  0  0
  160.7640  205.6510  146.5950 C   0  0  0  0  0  0  0  0  0  0  0  0
  160.4560  206.5780  144.3150 O   0  0  0  0  0  1  0  0  0  0  0  0
  161.2270  205.8440  145.2080 C   0  0  0  0  0  0  0  0  0  0  0  0
  163.0020  204.6090  147.1870 C   0  0  0  0  0  2  0  0  0  0  0  0
  164.2530  203.9530  145.2610 O   0  0  0  0  0  0  0  0  0  0  0  0
  159.7000  206.2060  146.9790 O   0  0  0  0  0  0  0  0  0  0  0  0
  161.5040  204.6970  147.5090 C   0  0  1  0  0  3  0  0  0  0  0  0
  161.2190  209.6600  156.5330 C   0  0  0  0  0  2  0  0  0  0  0  0
  159.7020  209.6890  156.6390 C   0  0  0  0  0  2  0  0  0  0  0  0
  159.2190  211.1000  156.9100 C   0  0  0  0  0  1  0  0  0  0  0  0
  2  6  1  0  0  0  0
  3  8  1  0  0  0  0
  4  3  2  0  0  0  0
  5 14  2  0  0  0  0
  5 13  1  0  0  0  0
  6  9  2  0  0  0  0
  6 14  1  0  0  0  0
  7  1  1  0  0  0  0
 10  8  2  0  0  0  0
 10  9  1  0  0  0  0
 11 20  2  0  0  0  0
 11 18  1  0  0  0  0
 13 12  1  6  0  0  0
 13 16  1  0  0  0  0
 14  7  1  0  0  0  0
 15  5  1  0  0  0  0
 16  1  1  0  0  0  0
 16 30  1  0  0  0  0
 17 18  2  0  0  0  0
 17  4  1  0  0  0  0
 18 10  1  0  0  0  0
 19  2  2  0  0  0  0
 19 15  1  0  0  0  0
 20  2  1  0  0  0  0
 21 26  1  0  0  0  0
 22 25  2  0  0  0  0
 22 21  1  0  0  0  0
 23 28  2  0  0  0  0
 23 29  1  0  0  0  0
 24 25  1  0  0  0  0
 25 23  1  0  0  0  0
 26 29  1  0  0  0  0
 27 21  2  0  0  0  0
 29 11  1  1  0  0  0
 30 31  1  0  0  0  0
 31 32  1  0  0  0  0
M  END
>  <MODEL>
4

>  <REMARK>
 VINA RESULT:      -8.8      2.998      8.875
  Name = 
  3 active torsions:
  status: ('A' for Active; 'I' for Inactive)
    1  A    between atoms: C_1  and  C_10
    2  A    between atoms: C_10  and  N_24
    3  A    between atoms: C_16  and  C_32
                            x       y       z     vdW  Elec       q    Type
                         _______ _______ _______ _____ _____    ______ ____

>  <TORSDO>
F 3

$$$$
=
 OpenBabel11062410503D

 32 36  0  0  1  0  0  0  0  0999 V2000
  161.6130  204.2820  149.6890 C   0  0  0  0  0  2  0  0  0  0  0  0
  161.3690  208.9850  151.4380 C   0  0  0  0  0  0  0  0  0  0  0  0
  160.2710  207.0240  156.5390 C   0  0  0  0  0  3  0  0  0  0  0  0
  160.2310  208.3670  156.8860 C   0  0  0  0  0  3  0  0  0  0  0  0
  161.7940  207.0480  149.3890 C   0  0  0  0  0  0  0  0  0  0  0  0
  161.0950  207.5520  151.6840 C   0  0  0  0  0  0  0  0  0  0  0  0
  160.8920  205.1500  150.7060 C   0  0  0  0  0  2  0  0  0  0  0  0
  160.4450  206.6640  155.2060 C   0  0  0  0  0  3  0  0  0  0  0  0
  160.7680  207.0360  152.8680 C   0  0  0  0  0  3  0  0  0  0  0  0
  160.5850  207.6270  154.1960 C   0  0  0  0  0  0  0  0  0  0  0  0
  160.6180  210.1490  153.5880 C   0  0  0  0  0  0  0  0  0  0  0  0
  161.6560  206.7940  146.9260 C   0  0  0  0  0  1  0  0  0  0  0  0
  162.0700  206.1130  148.2260 C   0  0  2  0  0  3  0  0  0  0  0  0
  161.2890  206.5970  150.5560 C   0  0  0  0  0  0  0  0  0  0  0  0
  162.1330  208.4000  149.2550 O   0  0  0  0  0  0  0  0  0  0  0  0
  161.3790  204.8190  148.3520 N   0  0  0  0  0  0  0  0  0  0  0  0
  160.3590  209.3380  155.8960 C   0  0  0  0  0  3  0  0  0  0  0  0
  160.5350  209.0040  154.5370 C   0  0  0  0  0  0  0  0  0  0  0  0
  161.8670  209.3420  150.2540 C   0  0  0  0  0  3  0  0  0  0  0  0
  161.0070  210.0960  152.3110 C   0  0  0  0  0  3  0  0  0  0  0  0
  160.1640  212.9450  156.1880 C   0  0  0  0  0  0  0  0  0  0  0  0
  158.8930  213.5200  155.7260 C   0  0  0  0  0  3  0  0  0  0  0  0
  158.8890  211.9860  153.8230 C   0  0  0  0  0  0  0  0  0  0  0  0
  157.0530  213.5950  154.2660 O   0  0  0  0  0  1  0  0  0  0  0  0
  158.2770  213.0530  154.6380 C   0  0  0  0  0  0  0  0  0  0  0  0
  160.6700  211.6610  155.6030 C   0  0  0  0  0  2  0  0  0  0  0  0
  160.7920  213.4920  157.1320 O   0  0  0  0  0  0  0  0  0  0  0  0
  158.2660  211.5300  152.8270 O   0  0  0  0  0  0  0  0  0  0  0  0
  160.3020  211.5320  154.1190 C   0  0  1  0  0  3  0  0  0  0  0  0
  162.0110  203.8850  147.4280 C   0  0  0  0  0  2  0  0  0  0  0  0
  160.9580  203.1530  146.6110 C   0  0  0  0  0  2  0  0  0  0  0  0
  160.9920  203.6180  145.1690 C   0  0  0  0  0  1  0  0  0  0  0  0
  1  7  1  0  0  0  0
  2  6  1  0  0  0  0
  2 20  1  0  0  0  0
  3  4  1  0  0  0  0
  5 14  2  0  0  0  0
  6  9  2  0  0  0  0
  8  3  2  0  0  0  0
  9 10  1  0  0  0  0
 10 18  2  0  0  0  0
 10  8  1  0  0  0  0
 11 18  1  0  0  0  0
 13 12  1  6  0  0  0
 13 16  1  0  0  0  0
 13  5  1  0  0  0  0
 14  7  1  0  0  0  0
 14  6  1  0  0  0  0
 15  5  1  0  0  0  0
 15 19  1  0  0  0  0
 16  1  1  0  0  0  0
 17  4  2  0  0  0  0
 18 17  1  0  0  0  0
 19  2  2  0  0  0  0
 20 11  2  0  0  0  0
 21 27  2  0  0  0  0
 22 21  1  0  0  0  0
 23 29  1  0  0  0  0
 23 25  1  0  0  0  0
 24 25  1  0  0  0  0
 25 22  2  0  0  0  0
 26 21  1  0  0  0  0
 28 23  2  0  0  0  0
 29 11  1  1  0  0  0
 29 26  1  0  0  0  0
 30 16  1  0  0  0  0
 31 30  1  0  0  0  0
 32 31  1  0  0  0  0
M  END
>  <MODEL>
5

>  <REMARK>
 VINA RESULT:      -8.4      2.075      4.330
  Name = 
  3 active torsions:
  status: ('A' for Active; 'I' for Inactive)
    1  A    between atoms: C_1  and  C_10
    2  A    between atoms: C_10  and  N_24
    3  A    between atoms: C_16  and  C_32
                            x       y       z     vdW  Elec       q    Type
                         _______ _______ _______ _____ _____    ______ ____

>  <TORSDO>
F 3

$$$$
=
 OpenBabel11062410503D

 32 36  0  0  1  0  0  0  0  0999 V2000
  161.1080  202.7020  149.6830 C   0  0  0  0  0  2  0  0  0  0  0  0
  161.9030  207.6350  149.1600 C   0  0  0  0  0  0  0  0  0  0  0  0
  160.9630  208.3570  154.6060 C   0  0  0  0  0  3  0  0  0  0  0  0
  161.2040  209.6940  154.3210 C   0  0  0  0  0  3  0  0  0  0  0  0
  161.7640  204.9590  148.1840 C   0  0  0  0  0  0  0  0  0  0  0  0
  161.3960  206.5420  150.0190 C   0  0  0  0  0  0  0  0  0  0  0  0
  160.6610  204.0540  150.2120 C   0  0  0  0  0  2  0  0  0  0  0  0
  160.9380  207.4260  153.5720 C   0  0  0  0  0  3  0  0  0  0  0  0
  161.0950  206.6720  151.3100 C   0  0  0  0  0  3  0  0  0  0  0  0
  161.1540  207.8040  152.2390 C   0  0  0  0  0  0  0  0  0  0  0  0
  161.5910  209.7450  150.5720 C   0  0  0  0  0  0  0  0  0  0  0  0
  161.3440  203.6970  146.0910 C   0  0  0  0  0  1  0  0  0  0  0  0
  161.7490  203.5780  147.5560 C   0  0  2  0  0  3  0  0  0  0  0  0
  161.3010  205.1750  149.4320 C   0  0  0  0  0  0  0  0  0  0  0  0
  162.3320  206.0170  147.4600 O   0  0  0  0  0  0  0  0  0  0  0  0
  160.8480  202.6420  148.2480 N   0  0  0  0  0  0  0  0  0  0  0  0
  161.4120  210.0890  153.0010 C   0  0  0  0  0  3  0  0  0  0  0  0
  161.3910  209.1690  151.9320 C   0  0  0  0  0  0  0  0  0  0  0  0
  162.3410  207.3300  147.9380 C   0  0  0  0  0  3  0  0  0  0  0  0
  161.8380  209.0640  149.4500 C   0  0  0  0  0  3  0  0  0  0  0  0
  160.1750  213.3190  150.6180 C   0  0  0  0  0  0  0  0  0  0  0  0
  160.7480  213.8370  149.3670 C   0  0  0  0  0  3  0  0  0  0  0  0
  161.9540  211.7360  149.0480 C   0  0  0  0  0  0  0  0  0  0  0  0
  162.0360  213.6030  147.4160 O   0  0  0  0  0  1  0  0  0  0  0  0
  161.5550  213.0890  148.6140 C   0  0  0  0  0  0  0  0  0  0  0  0
  160.2740  211.8600  150.9470 C   0  0  0  0  0  2  0  0  0  0  0  0
  159.5310  214.0880  151.3770 O   0  0  0  0  0  0  0  0  0  0  0  0
  162.6800  211.0300  148.2970 O   0  0  0  0  0  0  0  0  0  0  0  0
  161.5870  211.2520  150.4340 C   0  0  1  0  0  3  0  0  0  0  0  0
  161.2060  201.2900  147.8320 C   0  0  0  0  0  2  0  0  0  0  0  0
  160.6550  201.0000  146.4440 C   0  0  0  0  0  2  0  0  0  0  0  0
  161.2060  199.6880  145.9230 C   0  0  0  0  0  1  0  0  0  0  0  0
  1  7  1  0  0  0  0
  2 20  1  0  0  0  0
  2  6  1  0  0  0  0
  4  3  1  0  0  0  0
  5 14  2  0  0  0  0
  6  9  2  0  0  0  0
  8  3  2  0  0  0  0
  9 10  1  0  0  0  0
 10  8  1  0  0  0  0
 11 18  1  0  0  0  0
 13 12  1  6  0  0  0
 13  5  1  0  0  0  0
 13 16  1  0  0  0  0
 14  6  1  0  0  0  0
 14  7  1  0  0  0  0
 15 19  1  0  0  0  0
 15  5  1  0  0  0  0
 16  1  1  0  0  0  0
 17  4  2  0  0  0  0
 18 10  2  0  0  0  0
 18 17  1  0  0  0  0
 19  2  2  0  0  0  0
 20 11  2  0  0  0  0
 21 26  1  0  0  0  0
 21 27  2  0  0  0  0
 22 21  1  0  0  0  0
 23 29  1  0  0  0  0
 24 25  1  0  0  0  0
 25 23  1  0  0  0  0
 25 22  2  0  0  0  0
 28 23  2  0  0  0  0
 29 11  1  6  0  0  0
 29 26  1  0  0  0  0
 30 16  1  0  0  0  0
 31 30  1  0  0  0  0
 32 31  1  0  0  0  0
M  END
>  <MODEL>
6

>  <REMARK>
 VINA RESULT:      -8.1      2.291      4.544
  Name = 
  3 active torsions:
  status: ('A' for Active; 'I' for Inactive)
    1  A    between atoms: C_1  and  C_10
    2  A    between atoms: C_10  and  N_24
    3  A    between atoms: C_16  and  C_32
                            x       y       z     vdW  Elec       q    Type
                         _______ _______ _______ _____ _____    ______ ____

>  <TORSDO>
F 3

$$$$
=
 OpenBabel11062410503D

 32 36  0  0  1  0  0  0  0  0999 V2000
  160.8860  207.3800  155.7820 C   0  0  0  0  0  2  0  0  0  0  0  0
  161.1960  207.7350  150.7800 C   0  0  0  0  0  0  0  0  0  0  0  0
  160.4700  202.2250  150.3510 C   0  0  0  0  0  3  0  0  0  0  0  0
  160.5750  202.4650  148.9880 C   0  0  0  0  0  3  0  0  0  0  0  0
  161.1550  208.8270  153.4140 C   0  0  0  0  0  0  0  0  0  0  0  0
  161.1990  206.8500  151.9660 C   0  0  0  0  0  0  0  0  0  0  0  0
  161.3760  206.6350  154.5520 C   0  0  0  0  0  2  0  0  0  0  0  0
  160.6550  203.2710  151.2510 C   0  0  0  0  0  3  0  0  0  0  0  0
  161.0920  205.5230  151.9200 C   0  0  0  0  0  3  0  0  0  0  0  0
  160.9450  204.5720  150.8150 C   0  0  0  0  0  0  0  0  0  0  0  0
  161.4160  206.1350  148.7970 C   0  0  0  0  0  0  0  0  0  0  0  0
  161.9850  210.7800  154.6960 C   0  0  0  0  0  1  0  0  0  0  0  0
  161.1210  209.5260  154.7610 C   0  0  2  0  0  3  0  0  0  0  0  0
  161.2290  207.4840  153.3140 C   0  0  0  0  0  0  0  0  0  0  0  0
  161.0460  209.6050  152.2540 O   0  0  0  0  0  0  0  0  0  0  0  0
  161.5730  208.6650  155.8660 N   0  0  0  0  0  0  0  0  0  0  0  0
  160.8720  203.7490  148.5370 C   0  0  0  0  0  3  0  0  0  0  0  0
  161.0670  204.8290  149.4240 C   0  0  0  0  0  0  0  0  0  0  0  0
  161.1210  209.0530  150.9720 C   0  0  0  0  0  3  0  0  0  0  0  0
  161.4200  207.3280  149.3970 C   0  0  0  0  0  3  0  0  0  0  0  0
  160.7830  205.7990  145.0190 C   0  0  0  0  0  0  0  0  0  0  0  0
  161.9770  205.0360  144.6270 C   0  0  0  0  0  3  0  0  0  0  0  0
  162.8120  205.1610  146.9200 C   0  0  0  0  0  0  0  0  0  0  0  0
  164.0010  203.9470  145.1130 O   0  0  0  0  0  1  0  0  0  0  0  0
  162.9130  204.7090  145.5190 C   0  0  0  0  0  0  0  0  0  0  0  0
  160.4610  206.0060  146.4690 C   0  0  0  0  0  2  0  0  0  0  0  0
  159.9870  206.2130  144.1370 O   0  0  0  0  0  0  0  0  0  0  0  0
  163.6850  204.8000  147.7550 O   0  0  0  0  0  0  0  0  0  0  0  0
  161.7330  206.1460  147.3170 C   0  0  1  0  0  3  0  0  0  0  0  0
  161.1300  209.2760  157.1140 C   0  0  0  0  0  2  0  0  0  0  0  0
  159.6610  209.6590  157.0260 C   0  0  0  0  0  2  0  0  0  0  0  0
  159.4890  211.1460  157.2570 C   0  0  0  0  0  1  0  0  0  0  0  0
  1 16  1  0  0  0  0
  2 19  2  0  0  0  0
  2  6  1  0  0  0  0
  3  8  1  0  0  0  0
  4  3  2  0  0  0  0
  5 13  1  0  0  0  0
  6 14  1  0  0  0  0
  7  1  1  0  0  0  0
  9  6  2  0  0  0  0
 10  8  2  0  0  0  0
 10  9  1  0  0  0  0
 11 20  2  0  0  0  0
 11 18  1  0  0  0  0
 13 12  1  6  0  0  0
 13 16  1  0  0  0  0
 14  5  2  0  0  0  0
 14  7  1  0  0  0  0
 15  5  1  0  0  0  0
 16 30  1  0  0  0  0
 17  4  1  0  0  0  0
 17 18  2  0  0  0  0
 18 10  1  0  0  0  0
 19 15  1  0  0  0  0
 20  2  1  0  0  0  0
 21 26  1  0  0  0  0
 22 21  1  0  0  0  0
 22 25  2  0  0  0  0
 23 29  1  0  0  0  0
 23 28  2  0  0  0  0
 24 25  1  0  0  0  0
 25 23  1  0  0  0  0
 26 29  1  0  0  0  0
 27 21  2  0  0  0  0
 29 11  1  1  0  0  0
 31 30  1  0  0  0  0
 31 32  1  0  0  0  0
M  END
>  <MODEL>
7

>  <REMARK>
 VINA RESULT:      -7.0      3.058      9.019
  Name = 
  3 active torsions:
  status: ('A' for Active; 'I' for Inactive)
    1  A    between atoms: C_1  and  C_10
    2  A    between atoms: C_10  and  N_24
    3  A    between atoms: C_16  and  C_32
                            x       y       z     vdW  Elec       q    Type
                         _______ _______ _______ _____ _____    ______ ____

>  <TORSDO>
F 3

$$$$
=
 OpenBabel11062410503D

 32 36  0  0  1  0  0  0  0  0999 V2000
  160.5640  211.2020  154.7310 C   0  0  0  0  0  2  0  0  0  0  0  0
  161.3300  206.5670  152.9500 C   0  0  0  0  0  0  0  0  0  0  0  0
  162.1270  208.6660  147.8490 C   0  0  0  0  0  3  0  0  0  0  0  0
  162.3150  207.3380  147.4920 C   0  0  0  0  0  3  0  0  0  0  0  0
  160.8070  208.4410  155.0350 C   0  0  0  0  0  0  0  0  0  0  0  0
  161.0730  207.9910  152.6410 C   0  0  0  0  0  0  0  0  0  0  0  0
  160.3470  210.3360  153.5030 C   0  0  0  0  0  2  0  0  0  0  0  0
  161.7550  208.9820  149.1520 C   0  0  0  0  0  3  0  0  0  0  0  0
  161.1860  208.5340  151.4290 C   0  0  0  0  0  3  0  0  0  0  0  0
  161.5650  207.9890  150.1230 C   0  0  0  0  0  0  0  0  0  0  0  0
  161.5370  205.4490  150.6590 C   0  0  0  0  0  0  0  0  0  0  0  0
  159.7240  208.5860  157.2610 C   0  0  0  0  0  1  0  0  0  0  0  0
  160.5530  209.3420  156.2300 C   0  0  2  0  0  3  0  0  0  0  0  0
  160.7550  208.9090  153.7710 C   0  0  0  0  0  0  0  0  0  0  0  0
  161.1620  207.1060  155.2680 O   0  0  0  0  0  0  0  0  0  0  0  0
  159.8760  210.5980  155.8680 N   0  0  0  0  0  0  0  0  0  0  0  0
  162.1230  206.3370  148.4410 C   0  0  0  0  0  3  0  0  0  0  0  0
  161.7430  206.6260  149.7690 C   0  0  0  0  0  0  0  0  0  0  0  0
  161.3630  206.1920  154.2300 C   0  0  0  0  0  3  0  0  0  0  0  0
  161.4060  205.4730  151.9880 C   0  0  0  0  0  3  0  0  0  0  0  0
  160.9070  202.7580  147.9870 C   0  0  0  0  0  0  0  0  0  0  0  0
  160.3840  201.6760  148.8320 C   0  0  0  0  0  3  0  0  0  0  0  0
  160.7800  203.0370  150.8230 C   0  0  0  0  0  0  0  0  0  0  0  0
  159.7490  200.7830  150.9110 O   0  0  0  0  0  1  0  0  0  0  0  0
  160.2940  201.8140  150.1560 C   0  0  0  0  0  0  0  0  0  0  0  0
  161.1110  204.1300  148.5560 C   0  0  0  0  0  2  0  0  0  0  0  0
  161.1100  202.5530  146.7620 O   0  0  0  0  0  0  0  0  0  0  0  0
  160.6420  203.1630  152.0700 O   0  0  0  0  0  0  0  0  0  0  0  0
  161.5440  204.0740  150.0270 C   0  0  1  0  0  3  0  0  0  0  0  0
  160.0420  211.5290  156.9780 C   0  0  0  0  0  2  0  0  0  0  0  0
  158.9080  212.5420  156.9950 C   0  0  0  0  0  2  0  0  0  0  0  0
  157.5770  211.8470  156.7890 C   0  0  0  0  0  1  0  0  0  0  0  0
  1 16  1  0  0  0  0
  2 19  2  0  0  0  0
  3  8  1  0  0  0  0
  4  3  2  0  0  0  0
  4 17  1  0  0  0  0
  5 15  1  0  0  0  0
  5 13  1  0  0  0  0
  6  2  1  0  0  0  0
  6 14  1  0  0  0  0
  7 14  1  0  0  0  0
  7  1  1  0  0  0  0
  8 10  2  0  0  0  0
  9  6  2  0  0  0  0
 10  9  1  0  0  0  0
 11 20  2  0  0  0  0
 13 12  1  1  0  0  0
 14  5  2  0  0  0  0
 16 13  1  0  0  0  0
 16 30  1  0  0  0  0
 17 18  2  0  0  0  0
 18 10  1  0  0  0  0
 18 11  1  0  0  0  0
 19 15  1  0  0  0  0
 20  2  1  0  0  0  0
 21 26  1  0  0  0  0
 21 22  1  0  0  0  0
 22 25  2  0  0  0  0
 23 28  2  0  0  0  0
 25 23  1  0  0  0  0
 25 24  1  0  0  0  0
 26 29  1  0  0  0  0
 27 21  2  0  0  0  0
 29 11  1  1  0  0  0
 29 23  1  0  0  0  0
 30 31  1  0  0  0  0
 32 31  1  0  0  0  0
M  END
>  <MODEL>
8

>  <REMARK>
 VINA RESULT:      -7.0      2.790      8.477
  Name = 
  3 active torsions:
  status: ('A' for Active; 'I' for Inactive)
    1  A    between atoms: C_1  and  C_10
    2  A    between atoms: C_10  and  N_24
    3  A    between atoms: C_16  and  C_32
                            x       y       z     vdW  Elec       q    Type
                         _______ _______ _______ _____ _____    ______ ____

>  <TORSDO>
F 3

$$$$
