=
 OpenBabel11062408023D

 34 36  0  0  1  0  0  0  0  0999 V2000
  161.3610  210.0120  154.7220 C   0  0  2  0  0  3  0  0  0  0  0  0
  161.3960  207.7480  153.7220 N   0  0  0  0  0  0  0  0  0  0  0  0
  161.2410  207.9760  156.1730 C   0  0  0  0  0  1  0  0  0  0  0  0
  161.2990  210.5550  153.2870 C   0  0  1  0  0  3  0  0  0  0  0  0
  161.0240  208.2980  152.5290 O   0  0  0  0  0  0  0  0  0  0  0  0
  161.8170  209.4470  152.3650 C   0  0  1  0  0  3  0  0  0  0  0  0
  160.8330  208.5600  154.8230 C   0  0  1  0  0  3  0  0  0  0  0  0
  161.9870  211.6340  149.2750 C   0  0  0  0  0  0  0  0  0  0  0  0
  162.0570  210.6830  148.2540 C   0  0  0  0  0  3  0  0  0  0  0  0
  161.9110  209.8600  150.9270 C   0  0  0  0  0  0  0  0  0  0  0  0
  162.0510  209.3200  148.5640 C   0  0  0  0  0  3  0  0  0  0  0  0
  161.9110  211.2230  150.6090 C   0  0  0  0  0  3  0  0  0  0  0  0
  161.9770  208.9090  149.8990 C   0  0  0  0  0  3  0  0  0  0  0  0
  161.9920  212.9540  148.9740 F   0  0  0  0  0  0  0  0  0  0  0  0
  161.7040  211.1550  156.8140 O   0  0  0  0  0  1  0  0  0  0  0  0
  160.7990  210.9950  155.7640 C   0  0  2  0  0  3  0  0  0  0  0  0
  159.5150  210.5430  156.2820 N   0  0  0  0  0  2  0  0  0  0  0  0
  158.8600  211.7000  156.8700 C   0  0  0  0  0  2  0  0  0  0  0  0
  156.7400  211.1170  155.6460 N   0  0  0  0  0  1  0  0  0  0  0  0
  157.6950  212.0960  156.0330 C   0  0  0  0  0  0  0  0  0  0  0  0
  157.6590  213.2720  155.5030 N   0  0  0  0  0  2  0  0  0  0  0  0
  158.8110  211.3070  152.6160 C   0  0  0  0  0  3  0  0  0  0  0  0
  159.9290  210.9690  152.9160 C   0  0  0  0  0  0  0  0  0  0  0  0
  160.7800  206.4270  153.7530 C   0  0  0  0  0  2  0  0  0  0  0  0
  161.5980  204.9790  151.8890 C   0  0  0  0  0  3  0  0  0  0  0  0
  161.7090  205.4230  153.1450 C   0  0  0  0  0  3  0  0  0  0  0  0
  160.5200  205.4090  150.9330 C   0  0  0  0  0  2  0  0  0  0  0  0
  160.2700  202.6380  149.9010 O   0  0  0  0  0  1  0  0  0  0  0  0
  160.7490  204.9480  149.5200 C   0  0  0  0  0  0  0  0  0  0  0  0
  161.1840  203.5110  149.3110 C   0  0  2  0  0  3  0  0  0  0  0  0
  162.0630  204.2460  147.0760 C   0  0  0  0  0  2  0  0  0  0  0  0
  161.1630  205.4720  147.1120 C   0  0  0  0  0  2  0  0  0  0  0  0
  160.8450  205.8570  148.5300 C   0  0  0  0  0  3  0  0  0  0  0  0
  161.3810  203.1240  147.8440 C   0  0  0  0  0  2  0  0  0  0  0  0
  1  7  1  0  0  0  0
  1 16  1  1  0  0  0
  2 24  1  0  0  0  0
  2  7  1  0  0  0  0
  4 23  1  6  0  0  0
  4  1  1  0  0  0  0
  5  2  1  0  0  0  0
  6 10  1  6  0  0  0
  6  5  1  0  0  0  0
  6  4  1  0  0  0  0
  7  3  1  1  0  0  0
  8 12  1  0  0  0  0
  9 11  1  0  0  0  0
  9  8  2  0  0  0  0
 11 13  2  0  0  0  0
 12 10  2  0  0  0  0
 13 10  1  0  0  0  0
 14  8  1  0  0  0  0
 16 17  1  0  0  0  0
 16 15  1  1  0  0  0
 17 18  1  0  0  0  0
 19 20  1  0  0  0  0
 20 18  1  0  0  0  0
 21 20  2  0  0  0  0
 22 23  3  0  0  0  0
 25 26  2  0  0  0  0
 26 24  1  0  0  0  0
 27 25  1  0  0  0  0
 29 27  1  0  0  0  0
 30 29  1  0  0  0  0
 30 28  1  6  0  0  0
 31 32  1  0  0  0  0
 31 34  1  0  0  0  0
 32 33  1  0  0  0  0
 33 29  2  0  0  0  0
 34 30  1  0  0  0  0
M  END
>  <MODEL>
1

>  <REMARK>
 VINA RESULT:      -7.6      0.000      0.000
  Name = 
  10 active torsions:
  status: ('A' for Active; 'I' for Inactive)
    1  A    between atoms: C_3  and  C_13
    2  A    between atoms: C_3  and  C_17
    3  A    between atoms: C_4  and  C_15
    4  A    between atoms: N_5  and  C_18
    5  A    between atoms: C_6  and  C_9
    6  A    between atoms: C_9  and  N_25
    7  A    between atoms: C_12  and  C_28
    8  A    between atoms: C_15  and  N_25
    9  A    between atoms: C_18  and  C_29
   10  A    between atoms: C_21  and  C_32
                            x       y       z     vdW  Elec       q    Type
                         _______ _______ _______ _____ _____    ______ ____

>  <TORSDO>
F 10

$$$$
=
 OpenBabel11062408023D

 34 36  0  0  1  0  0  0  0  0999 V2000
  160.8560  208.1610  152.4680 C   0  0  2  0  0  3  0  0  0  0  0  0
  161.5050  209.4060  150.4290 N   0  0  0  0  0  0  0  0  0  0  0  0
  161.0910  210.6530  152.5170 C   0  0  0  0  0  1  0  0  0  0  0  0
  161.1030  206.8770  151.6630 C   0  0  1  0  0  3  0  0  0  0  0  0
  161.9960  208.2440  149.9080 O   0  0  0  0  0  0  0  0  0  0  0  0
  161.0330  207.2570  150.1810 C   0  0  1  0  0  3  0  0  0  0  0  0
  161.6420  209.3690  151.9020 C   0  0  1  0  0  3  0  0  0  0  0  0
  160.9120  203.7010  148.8760 C   0  0  0  0  0  0  0  0  0  0  0  0
  161.4010  203.8550  147.5760 C   0  0  0  0  0  3  0  0  0  0  0  0
  161.1590  206.0830  149.2560 C   0  0  0  0  0  0  0  0  0  0  0  0
  161.7740  205.1200  147.1130 C   0  0  0  0  0  3  0  0  0  0  0  0
  160.7940  204.8130  149.7150 C   0  0  0  0  0  3  0  0  0  0  0  0
  161.6540  206.2330  147.9520 C   0  0  0  0  0  3  0  0  0  0  0  0
  160.5520  202.4750  149.3240 F   0  0  0  0  0  0  0  0  0  0  0  0
  160.4150  206.7220  154.3480 O   0  0  0  0  0  1  0  0  0  0  0  0
  160.9680  207.9510  153.9880 C   0  0  2  0  0  3  0  0  0  0  0  0
  160.3120  209.0240  154.7220 N   0  0  0  0  0  2  0  0  0  0  0  0
  161.0250  209.1830  155.9780 C   0  0  0  0  0  2  0  0  0  0  0  0
  163.0890  210.6070  156.1980 N   0  0  0  0  0  1  0  0  0  0  0  0
  161.6810  210.5180  156.0160 C   0  0  0  0  0  0  0  0  0  0  0  0
  160.9580  211.5850  156.0810 N   0  0  0  0  0  2  0  0  0  0  0  0
  163.4650  205.7580  152.2780 C   0  0  0  0  0  3  0  0  0  0  0  0
  162.4030  206.2590  152.0010 C   0  0  0  0  0  0  0  0  0  0  0  0
  162.3630  210.4630  149.9060 C   0  0  0  0  0  2  0  0  0  0  0  0
  161.5920  211.8730  147.9950 C   0  0  0  0  0  3  0  0  0  0  0  0
  162.0420  210.7050  148.4640 C   0  0  0  0  0  3  0  0  0  0  0  0
  161.3290  213.0830  148.8480 C   0  0  0  0  0  2  0  0  0  0  0  0
  159.9480  214.1570  151.2450 O   0  0  0  0  0  1  0  0  0  0  0  0
  159.8700  213.4280  148.9700 C   0  0  0  0  0  0  0  0  0  0  0  0
  159.2430  213.3540  150.3480 C   0  0  2  0  0  3  0  0  0  0  0  0
  157.0280  213.1610  149.1790 C   0  0  0  0  0  2  0  0  0  0  0  0
  157.6290  213.7620  147.9170 C   0  0  0  0  0  2  0  0  0  0  0  0
  159.1090  213.5110  147.8610 C   0  0  0  0  0  3  0  0  0  0  0  0
  157.7620  213.7340  150.3820 C   0  0  0  0  0  2  0  0  0  0  0  0
  1 16  1  1  0  0  0
  2  7  1  0  0  0  0
  4 23  1  1  0  0  0
  4  1  1  0  0  0  0
  5  6  1  0  0  0  0
  5  2  1  0  0  0  0
  6 10  1  6  0  0  0
  6  4  1  0  0  0  0
  7  1  1  0  0  0  0
  7  3  1  1  0  0  0
  8 14  1  0  0  0  0
  8 12  1  0  0  0  0
  9  8  2  0  0  0  0
 10 12  2  0  0  0  0
 11  9  1  0  0  0  0
 11 13  2  0  0  0  0
 13 10  1  0  0  0  0
 16 15  1  6  0  0  0
 16 17  1  0  0  0  0
 17 18  1  0  0  0  0
 18 20  1  0  0  0  0
 20 21  2  0  0  0  0
 20 19  1  0  0  0  0
 23 22  3  0  0  0  0
 24  2  1  0  0  0  0
 25 26  2  0  0  0  0
 25 27  1  0  0  0  0
 26 24  1  0  0  0  0
 27 29  1  0  0  0  0
 29 30  1  0  0  0  0
 30 34  1  0  0  0  0
 30 28  1  1  0  0  0
 31 34  1  0  0  0  0
 32 31  1  0  0  0  0
 33 32  1  0  0  0  0
 33 29  2  0  0  0  0
M  END
>  <MODEL>
2

>  <REMARK>
 VINA RESULT:      -6.8      3.032      6.684
  Name = 
  10 active torsions:
  status: ('A' for Active; 'I' for Inactive)
    1  A    between atoms: C_3  and  C_13
    2  A    between atoms: C_3  and  C_17
    3  A    between atoms: C_4  and  C_15
    4  A    between atoms: N_5  and  C_18
    5  A    between atoms: C_6  and  C_9
    6  A    between atoms: C_9  and  N_25
    7  A    between atoms: C_12  and  C_28
    8  A    between atoms: C_15  and  N_25
    9  A    between atoms: C_18  and  C_29
   10  A    between atoms: C_21  and  C_32
                            x       y       z     vdW  Elec       q    Type
                         _______ _______ _______ _____ _____    ______ ____

>  <TORSDO>
F 10

$$$$
=
 OpenBabel11062408023D

 34 36  0  0  1  0  0  0  0  0999 V2000
  161.1420  209.0900  154.7840 C   0  0  2  0  0  3  0  0  0  0  0  0
  161.0130  206.9700  153.5120 N   0  0  0  0  0  0  0  0  0  0  0  0
  160.7650  206.9160  155.9660 C   0  0  0  0  0  1  0  0  0  0  0  0
  161.1990  209.8050  153.4260 C   0  0  1  0  0  3  0  0  0  0  0  0
  160.7500  207.6930  152.3850 O   0  0  0  0  0  0  0  0  0  0  0  0
  161.6540  208.7700  152.3930 C   0  0  1  0  0  3  0  0  0  0  0  0
  160.4770  207.6950  154.6850 C   0  0  1  0  0  3  0  0  0  0  0  0
  162.1110  208.9820  148.6370 C   0  0  0  0  0  0  0  0  0  0  0  0
  162.2550  210.3580  148.4420 C   0  0  0  0  0  3  0  0  0  0  0  0
  161.8540  209.3420  151.0210 C   0  0  0  0  0  0  0  0  0  0  0  0
  162.2040  211.2290  149.5340 C   0  0  0  0  0  3  0  0  0  0  0  0
  161.9140  208.4740  149.9250 C   0  0  0  0  0  3  0  0  0  0  0  0
  162.0040  210.7220  150.8220 C   0  0  0  0  0  3  0  0  0  0  0  0
  162.1620  208.1380  147.5790 F   0  0  0  0  0  0  0  0  0  0  0  0
  159.2310  209.9940  155.9370 O   0  0  0  0  0  1  0  0  0  0  0  0
  160.6260  209.9910  155.9190 C   0  0  2  0  0  3  0  0  0  0  0  0
  161.1230  211.3530  155.7840 N   0  0  0  0  0  2  0  0  0  0  0  0
  160.7200  212.0770  156.9780 C   0  0  0  0  0  2  0  0  0  0  0  0
  159.2160  213.3870  155.4420 N   0  0  0  0  0  2  0  0  0  0  0  0
  160.0520  213.3490  156.5920 C   0  0  0  0  0  0  0  0  0  0  0  0
  160.3840  214.4500  157.1780 N   0  0  0  0  0  1  0  0  0  0  0  0
  158.8260  210.8740  152.7660 C   0  0  0  0  0  3  0  0  0  0  0  0
  159.8920  210.3930  153.0610 C   0  0  0  0  0  0  0  0  0  0  0  0
  160.2760  205.7220  153.3570 C   0  0  0  0  0  2  0  0  0  0  0  0
  161.5040  204.0710  151.9410 C   0  0  0  0  0  3  0  0  0  0  0  0
  161.2360  204.5930  153.1420 C   0  0  0  0  0  3  0  0  0  0  0  0
  160.8640  204.5270  150.6590 C   0  0  0  0  0  2  0  0  0  0  0  0
  162.0000  205.1600  147.9910 O   0  0  0  0  0  1  0  0  0  0  0  0
  161.0630  203.5730  149.5140 C   0  0  0  0  0  0  0  0  0  0  0  0
  161.0490  204.1470  148.1110 C   0  0  2  0  0  3  0  0  0  0  0  0
  160.5170  201.8250  147.3140 C   0  0  0  0  0  2  0  0  0  0  0  0
  161.0610  201.2430  148.6110 C   0  0  0  0  0  2  0  0  0  0  0  0
  160.9640  202.2460  149.7250 C   0  0  0  0  0  3  0  0  0  0  0  0
  161.2720  203.1100  147.0080 C   0  0  0  0  0  2  0  0  0  0  0  0
  1 16  1  1  0  0  0
  2  7  1  0  0  0  0
  4 23  1  6  0  0  0
  4  1  1  0  0  0  0
  5  6  1  0  0  0  0
  5  2  1  0  0  0  0
  6 10  1  6  0  0  0
  6  4  1  0  0  0  0
  7  1  1  0  0  0  0
  7  3  1  1  0  0  0
  8 12  1  0  0  0  0
  9  8  2  0  0  0  0
  9 11  1  0  0  0  0
 11 13  2  0  0  0  0
 12 10  2  0  0  0  0
 13 10  1  0  0  0  0
 14  8  1  0  0  0  0
 16 15  1  6  0  0  0
 17 16  1  0  0  0  0
 17 18  1  0  0  0  0
 19 20  2  0  0  0  0
 20 18  1  0  0  0  0
 20 21  1  0  0  0  0
 22 23  3  0  0  0  0
 24  2  1  0  0  0  0
 25 26  2  0  0  0  0
 26 24  1  0  0  0  0
 27 25  1  0  0  0  0
 29 33  2  0  0  0  0
 29 27  1  0  0  0  0
 30 28  1  1  0  0  0
 30 29  1  0  0  0  0
 31 32  1  0  0  0  0
 32 33  1  0  0  0  0
 34 31  1  0  0  0  0
 34 30  1  0  0  0  0
M  END
>  <MODEL>
3

>  <REMARK>
 VINA RESULT:      -6.5      1.684      2.215
  Name = 
  10 active torsions:
  status: ('A' for Active; 'I' for Inactive)
    1  A    between atoms: C_3  and  C_13
    2  A    between atoms: C_3  and  C_17
    3  A    between atoms: C_4  and  C_15
    4  A    between atoms: N_5  and  C_18
    5  A    between atoms: C_6  and  C_9
    6  A    between atoms: C_9  and  N_25
    7  A    between atoms: C_12  and  C_28
    8  A    between atoms: C_15  and  N_25
    9  A    between atoms: C_18  and  C_29
   10  A    between atoms: C_21  and  C_32
                            x       y       z     vdW  Elec       q    Type
                         _______ _______ _______ _____ _____    ______ ____

>  <TORSDO>
F 10

$$$$
=
 OpenBabel11062408023D

 34 36  0  0  1  0  0  0  0  0999 V2000
  161.4780  209.5350  151.0300 C   0  0  2  0  0  3  0  0  0  0  0  0
  161.7860  207.1250  151.5020 N   0  0  0  0  0  0  0  0  0  0  0  0
  162.2160  207.9680  149.2240 C   0  0  0  0  0  1  0  0  0  0  0  0
  161.2310  209.7140  152.5360 C   0  0  1  0  0  3  0  0  0  0  0  0
  161.8710  207.4230  152.8310 O   0  0  0  0  0  0  0  0  0  0  0  0
  160.8400  208.3420  153.0920 C   0  0  1  0  0  3  0  0  0  0  0  0
  162.3080  208.2660  150.7180 C   0  0  1  0  0  3  0  0  0  0  0  0
  159.7400  209.6340  156.4800 C   0  0  0  0  0  0  0  0  0  0  0  0
  159.7940  208.4760  157.2610 C   0  0  0  0  0  3  0  0  0  0  0  0
  160.4690  208.3680  154.5440 C   0  0  0  0  0  0  0  0  0  0  0  0
  160.1890  207.2630  156.6880 C   0  0  0  0  0  3  0  0  0  0  0  0
  160.0800  209.5800  155.1250 C   0  0  0  0  0  3  0  0  0  0  0  0
  160.5260  207.2090  155.3320 C   0  0  0  0  0  3  0  0  0  0  0  0
  159.3590  210.8080  157.0350 F   0  0  0  0  0  0  0  0  0  0  0  0
  161.1490  211.9000  150.7160 O   0  0  0  0  0  1  0  0  0  0  0  0
  161.9540  210.8250  150.3400 C   0  0  2  0  0  3  0  0  0  0  0  0
  161.9470  210.6850  148.8900 N   0  0  0  0  0  2  0  0  0  0  0  0
  162.6710  211.8210  148.3460 C   0  0  0  0  0  2  0  0  0  0  0  0
  160.4380  212.2290  147.2590 N   0  0  0  0  0  1  0  0  0  0  0  0
  161.8290  212.5150  147.3350 C   0  0  0  0  0  0  0  0  0  0  0  0
  162.3900  213.2190  146.4090 N   0  0  0  0  0  2  0  0  0  0  0  0
  163.3920  210.6950  153.7910 C   0  0  0  0  0  3  0  0  0  0  0  0
  162.4210  210.2560  153.2250 C   0  0  0  0  0  0  0  0  0  0  0  0
  162.6650  205.9790  151.3000 C   0  0  0  0  0  2  0  0  0  0  0  0
  161.0700  204.1040  150.8750 C   0  0  0  0  0  3  0  0  0  0  0  0
  161.9450  204.7210  151.6760 C   0  0  0  0  0  3  0  0  0  0  0  0
  160.6770  204.5990  149.5110 C   0  0  0  0  0  2  0  0  0  0  0  0
  162.3090  205.1990  147.1060 O   0  0  0  0  0  1  0  0  0  0  0  0
  161.0300  203.6490  148.4000 C   0  0  0  0  0  0  0  0  0  0  0  0
  161.2990  204.2380  147.0300 C   0  0  2  0  0  3  0  0  0  0  0  0
  160.8000  201.9590  146.1020 C   0  0  0  0  0  2  0  0  0  0  0  0
  161.0680  201.3330  147.4620 C   0  0  0  0  0  2  0  0  0  0  0  0
  160.8240  202.3270  148.5620 C   0  0  0  0  0  3  0  0  0  0  0  0
  161.6640  203.2030  145.9650 C   0  0  0  0  0  2  0  0  0  0  0  0
  1 16  1  1  0  0  0
  1  4  1  0  0  0  0
  2  5  1  0  0  0  0
  4  6  1  0  0  0  0
  4 23  1  1  0  0  0
  5  6  1  0  0  0  0
  6 10  1  1  0  0  0
  7  3  1  6  0  0  0
  7  1  1  0  0  0  0
  7  2  1  0  0  0  0
  8 14  1  0  0  0  0
  8  9  1  0  0  0  0
 10 12  1  0  0  0  0
 10 13  2  0  0  0  0
 11  9  2  0  0  0  0
 12  8  2  0  0  0  0
 13 11  1  0  0  0  0
 16 15  1  6  0  0  0
 17 16  1  0  0  0  0
 18 17  1  0  0  0  0
 19 20  1  0  0  0  0
 20 18  1  0  0  0  0
 21 20  2  0  0  0  0
 23 22  3  0  0  0  0
 24  2  1  0  0  0  0
 24 26  1  0  0  0  0
 25 26  2  0  0  0  0
 27 25  1  0  0  0  0
 29 33  2  0  0  0  0
 29 27  1  0  0  0  0
 30 28  1  1  0  0  0
 30 29  1  0  0  0  0
 31 32  1  0  0  0  0
 32 33  1  0  0  0  0
 34 31  1  0  0  0  0
 34 30  1  0  0  0  0
M  END
>  <MODEL>
4

>  <REMARK>
 VINA RESULT:      -6.1      3.239      5.659
  Name = 
  10 active torsions:
  status: ('A' for Active; 'I' for Inactive)
    1  A    between atoms: C_3  and  C_13
    2  A    between atoms: C_3  and  C_17
    3  A    between atoms: C_4  and  C_15
    4  A    between atoms: N_5  and  C_18
    5  A    between atoms: C_6  and  C_9
    6  A    between atoms: C_9  and  N_25
    7  A    between atoms: C_12  and  C_28
    8  A    between atoms: C_15  and  N_25
    9  A    between atoms: C_18  and  C_29
   10  A    between atoms: C_21  and  C_32
                            x       y       z     vdW  Elec       q    Type
                         _______ _______ _______ _____ _____    ______ ____

>  <TORSDO>
F 10

$$$$
=
 OpenBabel11062408023D

 34 36  0  0  1  0  0  0  0  0999 V2000
  160.8330  208.1660  152.0720 C   0  0  2  0  0  3  0  0  0  0  0  0
  161.4910  209.4320  150.0490 N   0  0  0  0  0  0  0  0  0  0  0  0
  161.0000  210.6620  152.1300 C   0  0  0  0  0  1  0  0  0  0  0  0
  161.1300  206.8900  151.2690 C   0  0  1  0  0  3  0  0  0  0  0  0
  162.0240  208.2840  149.5360 O   0  0  0  0  0  0  0  0  0  0  0  0
  161.0820  207.2710  149.7860 C   0  0  1  0  0  3  0  0  0  0  0  0
  161.5980  209.3950  151.5240 C   0  0  1  0  0  3  0  0  0  0  0  0
  162.0030  205.2430  146.7210 C   0  0  0  0  0  0  0  0  0  0  0  0
  161.5830  203.9610  147.0880 C   0  0  0  0  0  3  0  0  0  0  0  0
  161.2580  206.1040  148.8620 C   0  0  0  0  0  0  0  0  0  0  0  0
  160.9960  203.7470  148.3390 C   0  0  0  0  0  3  0  0  0  0  0  0
  161.8380  206.3130  147.6060 C   0  0  0  0  0  3  0  0  0  0  0  0
  160.8330  204.8170  149.2250 C   0  0  0  0  0  3  0  0  0  0  0  0
  162.5690  205.4490  145.5090 F   0  0  0  0  0  0  0  0  0  0  0  0
  160.4560  206.6830  153.9320 O   0  0  0  0  0  1  0  0  0  0  0  0
  160.9180  207.9550  153.5930 C   0  0  2  0  0  3  0  0  0  0  0  0
  160.1570  208.9660  154.3130 N   0  0  0  0  0  2  0  0  0  0  0  0
  160.3230  208.6990  155.7310 C   0  0  0  0  0  2  0  0  0  0  0  0
  161.7400  210.7790  155.7370 N   0  0  0  0  0  2  0  0  0  0  0  0
  161.4720  209.4830  156.2580 C   0  0  0  0  0  0  0  0  0  0  0  0
  162.3320  208.9160  157.0370 N   0  0  0  0  0  1  0  0  0  0  0  0
  163.5080  205.8330  151.9300 C   0  0  0  0  0  3  0  0  0  0  0  0
  162.4390  206.3070  151.6330 C   0  0  0  0  0  0  0  0  0  0  0  0
  162.3310  210.5120  149.5460 C   0  0  0  0  0  2  0  0  0  0  0  0
  161.5960  212.7200  148.6370 C   0  0  0  0  0  3  0  0  0  0  0  0
  161.5810  211.8060  149.6130 C   0  0  0  0  0  3  0  0  0  0  0  0
  162.3800  212.5810  147.3620 C   0  0  0  0  0  2  0  0  0  0  0  0
  163.3500  212.9540  144.5820 O   0  0  0  0  0  1  0  0  0  0  0  0
  161.5380  212.7050  146.1210 C   0  0  0  0  0  0  0  0  0  0  0  0
  162.1150  213.4850  144.9560 C   0  0  2  0  0  3  0  0  0  0  0  0
  159.7530  213.7640  144.1500 C   0  0  0  0  0  2  0  0  0  0  0  0
  159.3130  212.5760  144.9920 C   0  0  0  0  0  2  0  0  0  0  0  0
  160.2300  212.3880  146.1670 C   0  0  0  0  0  3  0  0  0  0  0  0
  161.2000  213.5500  143.7320 C   0  0  0  0  0  2  0  0  0  0  0  0
  1 16  1  1  0  0  0
  2  7  1  0  0  0  0
  4 23  1  1  0  0  0
  4  1  1  0  0  0  0
  5  6  1  0  0  0  0
  5  2  1  0  0  0  0
  6 10  1  6  0  0  0
  6  4  1  0  0  0  0
  7  1  1  0  0  0  0
  7  3  1  1  0  0  0
  8  9  2  0  0  0  0
  8 12  1  0  0  0  0
  9 11  1  0  0  0  0
 10 13  1  0  0  0  0
 11 13  2  0  0  0  0
 12 10  2  0  0  0  0
 14  8  1  0  0  0  0
 16 15  1  6  0  0  0
 16 17  1  0  0  0  0
 17 18  1  0  0  0  0
 18 20  1  0  0  0  0
 19 20  2  0  0  0  0
 20 21  1  0  0  0  0
 23 22  3  0  0  0  0
 24 26  1  0  0  0  0
 24  2  1  0  0  0  0
 25 26  2  0  0  0  0
 27 25  1  0  0  0  0
 29 33  2  0  0  0  0
 29 27  1  0  0  0  0
 30 28  1  6  0  0  0
 30 29  1  0  0  0  0
 31 32  1  0  0  0  0
 32 33  1  0  0  0  0
 34 31  1  0  0  0  0
 34 30  1  0  0  0  0
M  END
>  <MODEL>
5

>  <REMARK>
 VINA RESULT:      -5.9      3.281      6.650
  Name = 
  10 active torsions:
  status: ('A' for Active; 'I' for Inactive)
    1  A    between atoms: C_3  and  C_13
    2  A    between atoms: C_3  and  C_17
    3  A    between atoms: C_4  and  C_15
    4  A    between atoms: N_5  and  C_18
    5  A    between atoms: C_6  and  C_9
    6  A    between atoms: C_9  and  N_25
    7  A    between atoms: C_12  and  C_28
    8  A    between atoms: C_15  and  N_25
    9  A    between atoms: C_18  and  C_29
   10  A    between atoms: C_21  and  C_32
                            x       y       z     vdW  Elec       q    Type
                         _______ _______ _______ _____ _____    ______ ____

>  <TORSDO>
F 10

$$$$
=
 OpenBabel11062408023D

 34 36  0  0  1  0  0  0  0  0999 V2000
  162.2160  210.1460  151.4210 C   0  0  2  0  0  3  0  0  0  0  0  0
  162.0020  208.8540  149.3210 N   0  0  0  0  0  0  0  0  0  0  0  0
  162.2310  207.6440  151.4590 C   0  0  0  0  0  1  0  0  0  0  0  0
  161.9600  211.4040  150.5760 C   0  0  1  0  0  3  0  0  0  0  0  0
  161.4760  209.9620  148.7230 O   0  0  0  0  0  0  0  0  0  0  0  0
  162.2840  211.0410  149.1240 C   0  0  1  0  0  3  0  0  0  0  0  0
  161.6480  208.8680  150.7580 C   0  0  1  0  0  3  0  0  0  0  0  0
  161.0780  213.2430  146.2850 C   0  0  0  0  0  0  0  0  0  0  0  0
  161.9530  214.3290  146.3720 C   0  0  0  0  0  3  0  0  0  0  0  0
  162.1760  212.2000  148.1790 C   0  0  0  0  0  0  0  0  0  0  0  0
  162.9430  214.3530  147.3590 C   0  0  0  0  0  3  0  0  0  0  0  0
  161.1920  212.1790  147.1850 C   0  0  0  0  0  3  0  0  0  0  0  0
  163.0550  213.2900  148.2610 C   0  0  0  0  0  3  0  0  0  0  0  0
  160.1200  213.2190  145.3280 F   0  0  0  0  0  0  0  0  0  0  0  0
  163.0050  210.2060  153.6960 O   0  0  0  0  0  1  0  0  0  0  0  0
  161.8620  210.3360  152.9060 C   0  0  2  0  0  3  0  0  0  0  0  0
  160.8520  209.3790  153.3370 N   0  0  0  0  0  2  0  0  0  0  0  0
  160.4410  209.7650  154.6760 C   0  0  0  0  0  2  0  0  0  0  0  0
  160.1980  212.1880  155.3100 N   0  0  0  0  0  1  0  0  0  0  0  0
  159.6940  211.0510  154.6220 C   0  0  0  0  0  0  0  0  0  0  0  0
  158.5050  211.0800  154.1200 N   0  0  0  0  0  2  0  0  0  0  0  0
  159.4340  212.2750  150.8310 C   0  0  0  0  0  3  0  0  0  0  0  0
  160.5690  211.8830  150.7150 C   0  0  0  0  0  0  0  0  0  0  0  0
  161.3420  207.7180  148.6890 C   0  0  0  0  0  2  0  0  0  0  0  0
  162.1110  205.7260  147.3930 C   0  0  0  0  0  3  0  0  0  0  0  0
  162.3290  206.9610  147.8560 C   0  0  0  0  0  3  0  0  0  0  0  0
  160.8660  204.9290  147.6640 C   0  0  0  0  0  2  0  0  0  0  0  0
  161.5810  202.1340  146.9680 O   0  0  0  0  0  1  0  0  0  0  0  0
  161.0770  203.7870  148.6200 C   0  0  0  0  0  0  0  0  0  0  0  0
  160.8150  202.3840  148.1080 C   0  0  2  0  0  3  0  0  0  0  0  0
  160.5580  201.7020  150.5110 C   0  0  0  0  0  2  0  0  0  0  0  0
  161.3280  202.9370  150.9560 C   0  0  0  0  0  2  0  0  0  0  0  0
  161.2060  204.0350  149.9380 C   0  0  0  0  0  3  0  0  0  0  0  0
  161.0680  201.2840  149.1400 C   0  0  0  0  0  2  0  0  0  0  0  0
  1 16  1  1  0  0  0
  2  7  1  0  0  0  0
  4 23  1  6  0  0  0
  4  1  1  0  0  0  0
  5  6  1  0  0  0  0
  5  2  1  0  0  0  0
  6 10  1  6  0  0  0
  6  4  1  0  0  0  0
  7  1  1  0  0  0  0
  7  3  1  1  0  0  0
  8  9  2  0  0  0  0
  8 12  1  0  0  0  0
  9 11  1  0  0  0  0
 10 13  1  0  0  0  0
 11 13  2  0  0  0  0
 12 10  2  0  0  0  0
 14  8  1  0  0  0  0
 16 17  1  0  0  0  0
 16 15  1  1  0  0  0
 17 18  1  0  0  0  0
 20 18  1  0  0  0  0
 20 19  1  0  0  0  0
 21 20  2  0  0  0  0
 23 22  3  0  0  0  0
 24  2  1  0  0  0  0
 25 27  1  0  0  0  0
 25 26  2  0  0  0  0
 26 24  1  0  0  0  0
 27 29  1  0  0  0  0
 29 33  2  0  0  0  0
 30 28  1  6  0  0  0
 30 29  1  0  0  0  0
 30 34  1  0  0  0  0
 31 32  1  0  0  0  0
 33 32  1  0  0  0  0
 34 31  1  0  0  0  0
M  END
>  <MODEL>
6

>  <REMARK>
 VINA RESULT:      -5.7      2.286      3.746
  Name = 
  10 active torsions:
  status: ('A' for Active; 'I' for Inactive)
    1  A    between atoms: C_3  and  C_13
    2  A    between atoms: C_3  and  C_17
    3  A    between atoms: C_4  and  C_15
    4  A    between atoms: N_5  and  C_18
    5  A    between atoms: C_6  and  C_9
    6  A    between atoms: C_9  and  N_25
    7  A    between atoms: C_12  and  C_28
    8  A    between atoms: C_15  and  N_25
    9  A    between atoms: C_18  and  C_29
   10  A    between atoms: C_21  and  C_32
                            x       y       z     vdW  Elec       q    Type
                         _______ _______ _______ _____ _____    ______ ____

>  <TORSDO>
F 10

$$$$
=
 OpenBabel11062408023D

 34 36  0  0  1  0  0  0  0  0999 V2000
  159.2880  211.4960  154.5130 C   0  0  2  0  0  3  0  0  0  0  0  0
  159.5360  212.0140  152.1060 N   0  0  0  0  0  0  0  0  0  0  0  0
  158.3600  213.6180  153.5650 C   0  0  0  0  0  1  0  0  0  0  0  0
  160.1830  210.2730  154.2570 C   0  0  1  0  0  3  0  0  0  0  0  0
  160.5570  211.1110  152.0430 O   0  0  0  0  0  0  0  0  0  0  0  0
  160.1220  209.9800  152.7550 C   0  0  1  0  0  3  0  0  0  0  0  0
  159.5020  212.6100  153.4590 C   0  0  1  0  0  3  0  0  0  0  0  0
  161.5320  206.4640  152.8470 C   0  0  0  0  0  0  0  0  0  0  0  0
  162.2820  206.4240  151.6680 C   0  0  0  0  0  3  0  0  0  0  0  0
  160.8730  208.7460  152.3550 C   0  0  0  0  0  0  0  0  0  0  0  0
  162.3330  207.5440  150.8320 C   0  0  0  0  0  3  0  0  0  0  0  0
  160.8310  207.6240  153.1910 C   0  0  0  0  0  3  0  0  0  0  0  0
  161.6310  208.7030  151.1760 C   0  0  0  0  0  3  0  0  0  0  0  0
  161.4840  205.3800  153.6560 F   0  0  0  0  0  0  0  0  0  0  0  0
  159.3570  210.8570  156.8340 O   0  0  0  0  0  1  0  0  0  0  0  0
  159.3050  211.9590  155.9800 C   0  0  2  0  0  3  0  0  0  0  0  0
  158.1390  212.7730  156.2930 N   0  0  0  0  0  2  0  0  0  0  0  0
  157.2930  211.9880  157.1760 C   0  0  0  0  0  2  0  0  0  0  0  0
  155.7340  210.9760  155.4790 N   0  0  0  0  0  2  0  0  0  0  0  0
  155.9360  211.8520  156.5810 C   0  0  0  0  0  0  0  0  0  0  0  0
  154.9980  212.6660  156.9330 N   0  0  0  0  0  1  0  0  0  0  0  0
  162.7060  210.7010  155.0680 C   0  0  0  0  0  3  0  0  0  0  0  0
  161.5720  210.5080  154.7050 C   0  0  0  0  0  0  0  0  0  0  0  0
  159.8750  213.0570  151.1450 C   0  0  0  0  0  2  0  0  0  0  0  0
  161.1250  213.0850  148.9820 C   0  0  0  0  0  3  0  0  0  0  0  0
  160.9010  212.5420  150.1830 C   0  0  0  0  0  3  0  0  0  0  0  0
  160.3670  214.2600  148.4310 C   0  0  0  0  0  2  0  0  0  0  0  0
  157.5510  213.3250  148.3720 O   0  0  0  0  0  1  0  0  0  0  0  0
  159.5500  213.9320  147.2110 C   0  0  0  0  0  0  0  0  0  0  0  0
  158.4300  212.9230  147.3660 C   0  0  2  0  0  3  0  0  0  0  0  0
  158.5770  212.5840  144.8810 C   0  0  0  0  0  2  0  0  0  0  0  0
  159.2740  213.9270  144.7280 C   0  0  0  0  0  2  0  0  0  0  0  0
  159.9920  214.3020  145.9930 C   0  0  0  0  0  3  0  0  0  0  0  0
  157.6440  212.6590  146.0810 C   0  0  0  0  0  2  0  0  0  0  0  0
  1 16  1  1  0  0  0
  2  7  1  0  0  0  0
  4  1  1  0  0  0  0
  4 23  1  6  0  0  0
  5  2  1  0  0  0  0
  5  6  1  0  0  0  0
  6 10  1  1  0  0  0
  6  4  1  0  0  0  0
  7  3  1  6  0  0  0
  7  1  1  0  0  0  0
  8 12  1  0  0  0  0
  8 14  1  0  0  0  0
  9  8  2  0  0  0  0
 10 12  2  0  0  0  0
 11 13  2  0  0  0  0
 11  9  1  0  0  0  0
 13 10  1  0  0  0  0
 16 17  1  0  0  0  0
 16 15  1  1  0  0  0
 17 18  1  0  0  0  0
 19 20  2  0  0  0  0
 20 21  1  0  0  0  0
 20 18  1  0  0  0  0
 23 22  3  0  0  0  0
 24  2  1  0  0  0  0
 25 26  2  0  0  0  0
 26 24  1  0  0  0  0
 27 25  1  0  0  0  0
 29 30  1  0  0  0  0
 29 27  1  0  0  0  0
 30 28  1  1  0  0  0
 31 34  1  0  0  0  0
 32 31  1  0  0  0  0
 32 33  1  0  0  0  0
 33 29  2  0  0  0  0
 34 30  1  0  0  0  0
M  END
>  <MODEL>
7

>  <REMARK>
 VINA RESULT:      -5.6      3.312      6.164
  Name = 
  10 active torsions:
  status: ('A' for Active; 'I' for Inactive)
    1  A    between atoms: C_3  and  C_13
    2  A    between atoms: C_3  and  C_17
    3  A    between atoms: C_4  and  C_15
    4  A    between atoms: N_5  and  C_18
    5  A    between atoms: C_6  and  C_9
    6  A    between atoms: C_9  and  N_25
    7  A    between atoms: C_12  and  C_28
    8  A    between atoms: C_15  and  N_25
    9  A    between atoms: C_18  and  C_29
   10  A    between atoms: C_21  and  C_32
                            x       y       z     vdW  Elec       q    Type
                         _______ _______ _______ _____ _____    ______ ____

>  <TORSDO>
F 10

$$$$
=
 OpenBabel11062408023D

 34 36  0  0  1  0  0  0  0  0999 V2000
  160.9140  208.2290  151.9760 C   0  0  2  0  0  3  0  0  0  0  0  0
  161.5470  209.2170  149.7970 N   0  0  0  0  0  0  0  0  0  0  0  0
  161.2050  210.7030  151.7360 C   0  0  0  0  0  1  0  0  0  0  0  0
  161.1150  206.8550  151.3180 C   0  0  1  0  0  3  0  0  0  0  0  0
  162.0010  207.9920  149.4030 O   0  0  0  0  0  0  0  0  0  0  0  0
  161.0230  207.0660  149.8030 C   0  0  1  0  0  3  0  0  0  0  0  0
  161.7140  209.3450  151.2620 C   0  0  1  0  0  3  0  0  0  0  0  0
  160.8330  203.3850  148.9260 C   0  0  0  0  0  0  0  0  0  0  0  0
  161.2620  203.3830  147.5970 C   0  0  0  0  0  3  0  0  0  0  0  0
  161.1030  205.7930  149.0160 C   0  0  0  0  0  0  0  0  0  0  0  0
  161.6170  204.5840  146.9740 C   0  0  0  0  0  3  0  0  0  0  0  0
  160.7560  204.5870  149.6360 C   0  0  0  0  0  3  0  0  0  0  0  0
  161.5380  205.7870  147.6830 C   0  0  0  0  0  3  0  0  0  0  0  0
  160.4910  202.2220  149.5290 F   0  0  0  0  0  0  0  0  0  0  0  0
  160.4620  207.0330  154.0170 O   0  0  0  0  0  1  0  0  0  0  0  0
  161.0530  208.1900  153.5070 C   0  0  2  0  0  3  0  0  0  0  0  0
  160.4540  209.3650  154.1250 N   0  0  0  0  0  2  0  0  0  0  0  0
  161.1770  209.6140  155.3610 C   0  0  0  0  0  2  0  0  0  0  0  0
  160.1600  211.8890  155.0050 N   0  0  0  0  0  2  0  0  0  0  0  0
  160.9180  211.0050  155.8220 C   0  0  0  0  0  0  0  0  0  0  0  0
  161.5390  211.4630  156.8570 N   0  0  0  0  0  1  0  0  0  0  0  0
  163.4640  205.7560  152.0110 C   0  0  0  0  0  3  0  0  0  0  0  0
  162.4070  206.2490  151.7000 C   0  0  0  0  0  0  0  0  0  0  0  0
  162.4170  210.1870  149.1420 C   0  0  0  0  0  2  0  0  0  0  0  0
  161.2180  212.2950  148.5440 C   0  0  0  0  0  3  0  0  0  0  0  0
  161.9260  211.5740  149.4190 C   0  0  0  0  0  3  0  0  0  0  0  0
  160.8430  211.8230  147.1670 C   0  0  0  0  0  2  0  0  0  0  0  0
  158.8200  213.3360  145.6090 O   0  0  0  0  0  1  0  0  0  0  0  0
  161.1080  212.8380  146.0890 C   0  0  0  0  0  0  0  0  0  0  0  0
  160.0470  213.0250  145.0230 C   0  0  2  0  0  3  0  0  0  0  0  0
  161.8600  214.0010  143.5840 C   0  0  0  0  0  2  0  0  0  0  0  0
  162.7050  214.2790  144.8170 C   0  0  0  0  0  2  0  0  0  0  0  0
  162.3510  213.3330  145.9300 C   0  0  0  0  0  3  0  0  0  0  0  0
  160.3920  214.0850  143.9760 C   0  0  0  0  0  2  0  0  0  0  0  0
  1 16  1  1  0  0  0
  2  7  1  0  0  0  0
  4 23  1  6  0  0  0
  4  1  1  0  0  0  0
  5  2  1  0  0  0  0
  5  6  1  0  0  0  0
  6 10  1  6  0  0  0
  6  4  1  0  0  0  0
  7  3  1  1  0  0  0
  7  1  1  0  0  0  0
  8 14  1  0  0  0  0
  8 12  1  0  0  0  0
  9  8  2  0  0  0  0
 10 12  2  0  0  0  0
 11  9  1  0  0  0  0
 11 13  2  0  0  0  0
 13 10  1  0  0  0  0
 16 15  1  1  0  0  0
 16 17  1  0  0  0  0
 17 18  1  0  0  0  0
 18 20  1  0  0  0  0
 19 20  2  0  0  0  0
 20 21  1  0  0  0  0
 23 22  3  0  0  0  0
 24 26  1  0  0  0  0
 24  2  1  0  0  0  0
 25 26  2  0  0  0  0
 27 25  1  0  0  0  0
 29 27  1  0  0  0  0
 30 28  1  1  0  0  0
 30 29  1  0  0  0  0
 31 34  1  0  0  0  0
 31 32  1  0  0  0  0
 32 33  1  0  0  0  0
 33 29  2  0  0  0  0
 34 30  1  0  0  0  0
M  END
>  <MODEL>
8

>  <REMARK>
 VINA RESULT:      -5.3      3.440      6.792
  Name = 
  10 active torsions:
  status: ('A' for Active; 'I' for Inactive)
    1  A    between atoms: C_3  and  C_13
    2  A    between atoms: C_3  and  C_17
    3  A    between atoms: C_4  and  C_15
    4  A    between atoms: N_5  and  C_18
    5  A    between atoms: C_6  and  C_9
    6  A    between atoms: C_9  and  N_25
    7  A    between atoms: C_12  and  C_28
    8  A    between atoms: C_15  and  N_25
    9  A    between atoms: C_18  and  C_29
   10  A    between atoms: C_21  and  C_32
                            x       y       z     vdW  Elec       q    Type
                         _______ _______ _______ _____ _____    ______ ____

>  <TORSDO>
F 10

$$$$
=
 OpenBabel11062408023D

 34 36  0  0  1  0  0  0  0  0999 V2000
  161.9540  209.5360  152.2480 C   0  0  2  0  0  3  0  0  0  0  0  0
  161.6240  208.1210  150.2440 N   0  0  0  0  0  0  0  0  0  0  0  0
  161.7500  207.0500  152.4620 C   0  0  0  0  0  1  0  0  0  0  0  0
  161.8090  210.7480  151.3150 C   0  0  1  0  0  3  0  0  0  0  0  0
  161.1970  209.2270  149.5660 O   0  0  0  0  0  0  0  0  0  0  0  0
  162.0970  210.2560  149.8930 C   0  0  1  0  0  3  0  0  0  0  0  0
  161.2750  208.2690  151.6740 C   0  0  1  0  0  3  0  0  0  0  0  0
  160.9740  212.4670  147.0270 C   0  0  0  0  0  0  0  0  0  0  0  0
  162.0420  213.3610  146.9190 C   0  0  0  0  0  3  0  0  0  0  0  0
  162.0900  211.3510  148.8690 C   0  0  0  0  0  0  0  0  0  0  0  0
  163.1380  213.2510  147.7800 C   0  0  0  0  0  3  0  0  0  0  0  0
  161.0000  211.4610  147.9990 C   0  0  0  0  0  3  0  0  0  0  0  0
  163.1620  212.2470  148.7540 C   0  0  0  0  0  3  0  0  0  0  0  0
  159.9140  212.5720  146.1920 F   0  0  0  0  0  0  0  0  0  0  0  0
  162.5990  210.6910  154.2600 O   0  0  0  0  0  1  0  0  0  0  0  0
  161.6210  209.8600  153.7140 C   0  0  2  0  0  3  0  0  0  0  0  0
  161.5010  208.6470  154.5120 N   0  0  0  0  0  2  0  0  0  0  0  0
  160.6540  208.9640  155.6490 C   0  0  0  0  0  2  0  0  0  0  0  0
  160.7300  207.0240  157.2500 N   0  0  0  0  0  1  0  0  0  0  0  0
  160.0650  207.7140  156.2000 C   0  0  0  0  0  0  0  0  0  0  0  0
  159.0670  207.1570  155.5990 N   0  0  0  0  0  2  0  0  0  0  0  0
  159.3700  211.8550  151.4940 C   0  0  0  0  0  3  0  0  0  0  0  0
  160.4650  211.3560  151.4130 C   0  0  0  0  0  0  0  0  0  0  0  0
  160.8660  207.0060  149.6900 C   0  0  0  0  0  2  0  0  0  0  0  0
  161.4490  206.2200  147.3920 C   0  0  0  0  0  3  0  0  0  0  0  0
  160.8460  207.1020  148.1960 C   0  0  0  0  0  3  0  0  0  0  0  0
  162.2400  205.0370  147.8770 C   0  0  0  0  0  2  0  0  0  0  0  0
  160.4630  203.7480  149.8740 O   0  0  0  0  0  1  0  0  0  0  0  0
  161.5160  203.7270  147.7280 C   0  0  0  0  0  0  0  0  0  0  0  0
  161.1960  202.9530  148.9920 C   0  0  2  0  0  3  0  0  0  0  0  0
  161.0050  200.9170  147.5350 C   0  0  0  0  0  2  0  0  0  0  0  0
  160.7980  201.7980  146.3120 C   0  0  0  0  0  2  0  0  0  0  0  0
  161.4260  203.1470  146.5150 C   0  0  0  0  0  3  0  0  0  0  0  0
  160.4480  201.6410  148.7500 C   0  0  0  0  0  2  0  0  0  0  0  0
  1 16  1  1  0  0  0
  2  7  1  0  0  0  0
  4 23  1  6  0  0  0
  4  1  1  0  0  0  0
  5  6  1  0  0  0  0
  5  2  1  0  0  0  0
  6 10  1  6  0  0  0
  6  4  1  0  0  0  0
  7  1  1  0  0  0  0
  7  3  1  1  0  0  0
  8 12  1  0  0  0  0
  9  8  2  0  0  0  0
  9 11  1  0  0  0  0
 11 13  2  0  0  0  0
 12 10  2  0  0  0  0
 13 10  1  0  0  0  0
 14  8  1  0  0  0  0
 16 15  1  1  0  0  0
 16 17  1  0  0  0  0
 17 18  1  0  0  0  0
 18 20  1  0  0  0  0
 20 19  1  0  0  0  0
 21 20  2  0  0  0  0
 23 22  3  0  0  0  0
 24  2  1  0  0  0  0
 25 27  1  0  0  0  0
 25 26  2  0  0  0  0
 26 24  1  0  0  0  0
 29 27  1  0  0  0  0
 29 30  1  0  0  0  0
 30 28  1  1  0  0  0
 31 34  1  0  0  0  0
 32 33  1  0  0  0  0
 32 31  1  0  0  0  0
 33 29  2  0  0  0  0
 34 30  1  0  0  0  0
M  END
>  <MODEL>
9

>  <REMARK>
 VINA RESULT:      -5.1      2.272      3.460
  Name = 
  10 active torsions:
  status: ('A' for Active; 'I' for Inactive)
    1  A    between atoms: C_3  and  C_13
    2  A    between atoms: C_3  and  C_17
    3  A    between atoms: C_4  and  C_15
    4  A    between atoms: N_5  and  C_18
    5  A    between atoms: C_6  and  C_9
    6  A    between atoms: C_9  and  N_25
    7  A    between atoms: C_12  and  C_28
    8  A    between atoms: C_15  and  N_25
    9  A    between atoms: C_18  and  C_29
   10  A    between atoms: C_21  and  C_32
                            x       y       z     vdW  Elec       q    Type
                         _______ _______ _______ _____ _____    ______ ____

>  <TORSDO>
F 10

$$$$
