=
 OpenBabel11052423003D

 28 32  0  0  1  0  0  0  0  0999 V2000
  161.1710  205.5970  149.6960 C   0  0  0  0  0  0  0  0  0  0  0  0
  160.8250  207.2890  154.6180 S   0  0  0  0  0  0  0  0  0  0  0  0
  162.3510  210.5090  149.3170 C   0  0  0  0  0  1  0  0  0  0  0  0
  160.6250  209.8760  154.0690 C   0  0  1  0  0  3  0  0  0  0  0  0
  160.8820  208.4040  152.1300 N   0  0  0  0  0  0  0  0  0  0  0  0
  160.2600  208.5720  153.4510 C   0  0  1  0  0  3  0  0  0  0  0  0
  161.7720  210.8060  152.1270 C   0  0  0  0  0  2  0  0  0  0  0  0
  160.9560  209.8490  155.3500 C   0  0  0  0  0  2  0  0  0  0  0  0
  161.3600  208.1230  149.3690 C   0  0  1  0  0  3  0  0  0  0  0  0
  160.8450  207.1270  151.5370 N   0  0  0  0  0  0  0  0  0  0  0  0
  160.7610  211.0950  153.2270 C   0  0  0  0  0  2  0  0  0  0  0  0
  162.4630  206.5610  147.8620 C   0  0  0  0  0  3  0  0  0  0  0  0
  161.7670  209.3750  150.1010 C   0  0  0  0  0  0  0  0  0  0  0  0
  162.2920  207.7810  148.2860 N   0  0  0  0  0  0  0  0  0  0  0  0
  160.8480  208.5070  155.9800 C   0  0  2  0  0  3  0  0  0  0  0  0
  161.4430  209.5250  151.3990 C   0  0  0  0  0  0  0  0  0  0  0  0
  161.8040  205.4210  148.5340 C   0  0  0  0  0  3  0  0  0  0  0  0
  161.1270  206.9470  150.2840 C   0  0  0  0  0  0  0  0  0  0  0  0
  162.0390  208.2710  156.8900 C   0  0  0  0  0  2  0  0  0  0  0  0
  162.6890  209.5900  157.2610 C   0  0  0  0  0  1  0  0  0  0  0  0
  160.5510  204.4240  150.3870 C   0  0  0  0  0  2  0  0  0  0  0  0
  160.8140  203.1650  149.6300 C   0  0  0  0  0  0  0  0  0  0  0  0
  161.2640  200.7940  148.2130 C   0  0  0  0  0  0  0  0  0  0  0  0
  160.8530  203.1810  148.2310 C   0  0  0  0  0  3  0  0  0  0  0  0
  160.9940  201.9600  150.3180 C   0  0  0  0  0  3  0  0  0  0  0  0
  161.2200  200.7760  149.6110 C   0  0  0  0  0  3  0  0  0  0  0  0
  161.4830  199.6470  147.5290 F   0  0  0  0  0  0  0  0  0  0  0  0
  161.0800  201.9960  147.5240 C   0  0  0  0  0  3  0  0  0  0  0  0
  1 18  1  0  0  0  0
  1 21  1  0  0  0  0
  2 15  1  0  0  0  0
  3 13  1  0  0  0  0
  4 11  1  6  0  0  0
  4  8  1  0  0  0  0
  5  6  1  0  0  0  0
  6  4  1  0  0  0  0
  6  2  1  1  0  0  0
  7 11  1  0  0  0  0
  8 15  1  0  0  0  0
  9 14  1  6  0  0  0
  9 13  1  0  0  0  0
  9 18  1  0  0  0  0
 10  5  1  0  0  0  0
 12 14  2  0  0  0  0
 12 17  1  0  0  0  0
 13 16  2  0  0  0  0
 15 19  1  1  0  0  0
 16  7  1  0  0  0  0
 16  5  1  0  0  0  0
 17  1  2  0  0  0  0
 18 10  2  0  0  0  0
 19 20  1  0  0  0  0
 22 25  1  0  0  0  0
 22 21  1  0  0  0  0
 23 26  1  0  0  0  0
 24 22  2  0  0  0  0
 26 25  2  0  0  0  0
 27 23  1  0  0  0  0
 28 23  2  0  0  0  0
 28 24  1  0  0  0  0
M  END
>  <MODEL>
1

>  <REMARK>
 VINA RESULT:      -9.1      0.000      0.000
  Name = 
  3 active torsions:
  status: ('A' for Active; 'I' for Inactive)
    1  A    between atoms: C_1  and  C_2
    2  A    between atoms: C_2  and  C_3
    3  A    between atoms: C_12  and  C_24
                            x       y       z     vdW  Elec       q    Type
                         _______ _______ _______ _____ _____    ______ ____

>  <TORSDO>
F 3

$$$$
=
 OpenBabel11052423003D

 28 32  0  0  1  0  0  0  0  0999 V2000
  161.2070  207.1090  151.4490 C   0  0  0  0  0  0  0  0  0  0  0  0
  159.2130  211.8630  152.2420 S   0  0  0  0  0  0  0  0  0  0  0  0
  160.8780  207.3990  156.4960 C   0  0  0  0  0  1  0  0  0  0  0  0
  159.9220  212.1020  154.7870 C   0  0  1  0  0  3  0  0  0  0  0  0
  160.5220  209.9820  153.7210 N   0  0  0  0  0  0  0  0  0  0  0  0
  160.4130  211.4380  153.5490 C   0  0  1  0  0  3  0  0  0  0  0  0
  160.0000  210.1330  156.2240 C   0  0  0  0  0  2  0  0  0  0  0  0
  158.9930  213.0320  154.6280 C   0  0  0  0  0  2  0  0  0  0  0  0
  161.4640  207.3400  153.9790 C   0  0  1  0  0  3  0  0  0  0  0  0
  160.7220  209.1920  152.5720 N   0  0  0  0  0  0  0  0  0  0  0  0
  160.3490  211.6100  156.1250 C   0  0  0  0  0  2  0  0  0  0  0  0
  161.1110  205.1720  152.9310 C   0  0  0  0  0  3  0  0  0  0  0  0
  160.8740  208.0710  155.1580 C   0  0  0  0  0  0  0  0  0  0  0  0
  161.1690  205.9020  154.0090 N   0  0  0  0  0  0  0  0  0  0  0  0
  158.6350  213.3000  153.2110 C   0  0  2  0  0  3  0  0  0  0  0  0
  160.5180  209.3630  155.0330 C   0  0  0  0  0  0  0  0  0  0  0  0
  161.2260  205.7820  151.5910 C   0  0  0  0  0  3  0  0  0  0  0  0
  161.0870  207.9500  152.6530 C   0  0  0  0  0  0  0  0  0  0  0  0
  157.1320  213.4630  153.0830 C   0  0  0  0  0  2  0  0  0  0  0  0
  156.4290  212.7960  154.2500 C   0  0  0  0  0  1  0  0  0  0  0  0
  161.2770  207.7090  150.0800 C   0  0  0  0  0  2  0  0  0  0  0  0
  161.4650  206.6490  149.0470 C   0  0  0  0  0  0  0  0  0  0  0  0
  161.7810  204.6720  147.0910 C   0  0  0  0  0  0  0  0  0  0  0  0
  162.2340  206.9080  147.9070 C   0  0  0  0  0  3  0  0  0  0  0  0
  160.8500  205.4020  149.2040 C   0  0  0  0  0  3  0  0  0  0  0  0
  161.0080  204.4140  148.2280 C   0  0  0  0  0  3  0  0  0  0  0  0
  161.9330  203.7160  146.1460 F   0  0  0  0  0  0  0  0  0  0  0  0
  162.3920  205.9190  146.9310 C   0  0  0  0  0  3  0  0  0  0  0  0
  1 17  2  0  0  0  0
  1 18  1  0  0  0  0
  2 15  1  0  0  0  0
  4  8  1  1  0  0  0
  4 11  1  0  0  0  0
  5 16  1  0  0  0  0
  6  2  1  6  0  0  0
  6  5  1  0  0  0  0
  6  4  1  0  0  0  0
  9 18  1  6  0  0  0
  9 14  1  0  0  0  0
  9 13  1  0  0  0  0
 10 18  2  0  0  0  0
 10  5  1  0  0  0  0
 11  7  1  0  0  0  0
 12 14  2  0  0  0  0
 13  3  1  0  0  0  0
 15 19  1  1  0  0  0
 15  8  1  0  0  0  0
 16 13  2  0  0  0  0
 16  7  1  0  0  0  0
 17 12  1  0  0  0  0
 19 20  1  0  0  0  0
 21  1  1  0  0  0  0
 22 25  1  0  0  0  0
 22 21  1  0  0  0  0
 23 26  1  0  0  0  0
 24 22  2  0  0  0  0
 26 25  2  0  0  0  0
 27 23  1  0  0  0  0
 28 23  2  0  0  0  0
 28 24  1  0  0  0  0
M  END
>  <MODEL>
2

>  <REMARK>
 VINA RESULT:      -8.9      2.459      4.608
  Name = 
  3 active torsions:
  status: ('A' for Active; 'I' for Inactive)
    1  A    between atoms: C_1  and  C_2
    2  A    between atoms: C_2  and  C_3
    3  A    between atoms: C_12  and  C_24
                            x       y       z     vdW  Elec       q    Type
                         _______ _______ _______ _____ _____    ______ ____

>  <TORSDO>
F 3

$$$$
=
 OpenBabel11052423003D

 28 32  0  0  1  0  0  0  0  0999 V2000
  161.3160  206.8320  149.9910 C   0  0  0  0  0  0  0  0  0  0  0  0
  159.9650  211.5870  151.6540 S   0  0  0  0  0  0  0  0  0  0  0  0
  160.9270  206.2370  155.0070 C   0  0  0  0  0  1  0  0  0  0  0  0
  160.6480  211.2590  154.1960 C   0  0  1  0  0  3  0  0  0  0  0  0
  160.9780  209.3080  152.7550 N   0  0  0  0  0  0  0  0  0  0  0  0
  161.0700  210.7710  152.8550 C   0  0  1  0  0  3  0  0  0  0  0  0
  160.4320  209.0680  155.2470 C   0  0  0  0  0  2  0  0  0  0  0  0
  159.8560  212.3200  154.2160 C   0  0  0  0  0  2  0  0  0  0  0  0
  161.5510  206.5600  152.5190 C   0  0  1  0  0  3  0  0  0  0  0  0
  161.0930  208.7210  151.4800 N   0  0  0  0  0  0  0  0  0  0  0  0
  160.9780  210.4780  155.4180 C   0  0  0  0  0  2  0  0  0  0  0  0
  160.9300  204.6880  151.0920 C   0  0  0  0  0  3  0  0  0  0  0  0
  161.0410  207.1360  153.8150 C   0  0  0  0  0  0  0  0  0  0  0  0
  161.0650  205.1940  152.2860 N   0  0  0  0  0  0  0  0  0  0  0  0
  159.5660  212.8890  152.8730 C   0  0  2  0  0  3  0  0  0  0  0  0
  160.8640  208.4660  153.9310 C   0  0  0  0  0  0  0  0  0  0  0  0
  161.1530  205.5110  149.8860 C   0  0  0  0  0  3  0  0  0  0  0  0
  161.2860  207.4470  151.3290 C   0  0  0  0  0  0  0  0  0  0  0  0
  158.1020  213.2750  152.7850 C   0  0  0  0  0  2  0  0  0  0  0  0
  157.3280  212.6740  153.9430 C   0  0  0  0  0  1  0  0  0  0  0  0
  161.4930  207.6570  148.7550 C   0  0  0  0  0  2  0  0  0  0  0  0
  161.4780  206.7950  147.5370 C   0  0  0  0  0  0  0  0  0  0  0  0
  161.4590  205.2140  145.2290 C   0  0  0  0  0  0  0  0  0  0  0  0
  162.6130  206.0560  147.1850 C   0  0  0  0  0  3  0  0  0  0  0  0
  160.3360  206.7470  146.7290 C   0  0  0  0  0  3  0  0  0  0  0  0
  160.3260  205.9560  145.5760 C   0  0  0  0  0  3  0  0  0  0  0  0
  161.4490  204.4490  144.1120 F   0  0  0  0  0  0  0  0  0  0  0  0
  162.6020  205.2650  146.0320 C   0  0  0  0  0  3  0  0  0  0  0  0
  1 18  1  0  0  0  0
  2 15  1  0  0  0  0
  4  8  1  6  0  0  0
  4 11  1  0  0  0  0
  5  6  1  0  0  0  0
  5 16  1  0  0  0  0
  6  2  1  6  0  0  0
  6  4  1  0  0  0  0
  7 11  1  0  0  0  0
  9 18  1  6  0  0  0
  9 13  1  0  0  0  0
 10  5  1  0  0  0  0
 12 14  2  0  0  0  0
 13 16  2  0  0  0  0
 13  3  1  0  0  0  0
 14  9  1  0  0  0  0
 15 19  1  1  0  0  0
 15  8  1  0  0  0  0
 16  7  1  0  0  0  0
 17  1  2  0  0  0  0
 17 12  1  0  0  0  0
 18 10  2  0  0  0  0
 19 20  1  0  0  0  0
 21  1  1  0  0  0  0
 22 21  1  0  0  0  0
 23 26  2  0  0  0  0
 23 28  1  0  0  0  0
 24 22  1  0  0  0  0
 25 22  2  0  0  0  0
 26 25  1  0  0  0  0
 27 23  1  0  0  0  0
 28 24  2  0  0  0  0
M  END
>  <MODEL>
3

>  <REMARK>
 VINA RESULT:      -8.8      2.648      4.417
  Name = 
  3 active torsions:
  status: ('A' for Active; 'I' for Inactive)
    1  A    between atoms: C_1  and  C_2
    2  A    between atoms: C_2  and  C_3
    3  A    between atoms: C_12  and  C_24
                            x       y       z     vdW  Elec       q    Type
                         _______ _______ _______ _____ _____    ______ ____

>  <TORSDO>
F 3

$$$$
=
 OpenBabel11052423003D

 28 32  0  0  1  0  0  0  0  0999 V2000
  161.5480  208.0780  151.9220 C   0  0  0  0  0  0  0  0  0  0  0  0
  158.9840  212.6190  151.9870 S   0  0  0  0  0  0  0  0  0  0  0  0
  160.0620  208.5000  156.7470 C   0  0  0  0  0  1  0  0  0  0  0  0
  159.0740  213.0170  154.6070 C   0  0  1  0  0  3  0  0  0  0  0  0
  160.0980  210.9370  153.8210 N   0  0  0  0  0  0  0  0  0  0  0  0
  159.8930  212.3670  153.5480 C   0  0  1  0  0  3  0  0  0  0  0  0
  159.0130  211.1160  156.1350 C   0  0  0  0  0  2  0  0  0  0  0  0
  158.1210  213.8380  154.1950 C   0  0  0  0  0  2  0  0  0  0  0  0
  161.2040  208.4190  154.4290 C   0  0  1  0  0  3  0  0  0  0  0  0
  160.6260  210.1350  152.7920 N   0  0  0  0  0  0  0  0  0  0  0  0
  159.2330  212.6180  156.0320 C   0  0  0  0  0  2  0  0  0  0  0  0
  161.3040  206.1920  153.4530 C   0  0  0  0  0  3  0  0  0  0  0  0
  160.2960  209.1230  155.4050 C   0  0  0  0  0  0  0  0  0  0  0  0
  161.0480  206.9600  154.4740 N   0  0  0  0  0  0  0  0  0  0  0  0
  158.0680  214.0200  152.7210 C   0  0  2  0  0  3  0  0  0  0  0  0
  159.8560  210.3650  155.1320 C   0  0  0  0  0  0  0  0  0  0  0  0
  161.6610  206.7660  152.1390 C   0  0  0  0  0  3  0  0  0  0  0  0
  161.0800  208.9410  153.0210 C   0  0  0  0  0  0  0  0  0  0  0  0
  156.6240  214.0190  152.2560 C   0  0  0  0  0  2  0  0  0  0  0  0
  156.5550  214.2260  150.7550 C   0  0  0  0  0  1  0  0  0  0  0  0
  161.8670  208.6360  150.5710 C   0  0  0  0  0  2  0  0  0  0  0  0
  161.6740  207.6020  149.5130 C   0  0  0  0  0  0  0  0  0  0  0  0
  161.3440  205.6380  147.5470 C   0  0  0  0  0  0  0  0  0  0  0  0
  160.6520  206.6540  149.6350 C   0  0  0  0  0  3  0  0  0  0  0  0
  162.5340  207.5620  148.4090 C   0  0  0  0  0  3  0  0  0  0  0  0
  162.3690  206.5810  147.4270 C   0  0  0  0  0  3  0  0  0  0  0  0
  161.1840  204.6880  146.5960 F   0  0  0  0  0  0  0  0  0  0  0  0
  160.4870  205.6730  148.6510 C   0  0  0  0  0  3  0  0  0  0  0  0
  1 17  2  0  0  0  0
  1 18  1  0  0  0  0
  2 15  1  0  0  0  0
  4  8  1  6  0  0  0
  4 11  1  0  0  0  0
  5 16  1  0  0  0  0
  6  2  1  6  0  0  0
  6  5  1  0  0  0  0
  6  4  1  0  0  0  0
  9 18  1  6  0  0  0
  9 14  1  0  0  0  0
  9 13  1  0  0  0  0
 10 18  2  0  0  0  0
 10  5  1  0  0  0  0
 11  7  1  0  0  0  0
 12 14  2  0  0  0  0
 13  3  1  0  0  0  0
 15 19  1  6  0  0  0
 15  8  1  0  0  0  0
 16 13  2  0  0  0  0
 16  7  1  0  0  0  0
 17 12  1  0  0  0  0
 20 19  1  0  0  0  0
 21  1  1  0  0  0  0
 22 24  1  0  0  0  0
 22 21  1  0  0  0  0
 23 28  1  0  0  0  0
 25 22  2  0  0  0  0
 26 23  2  0  0  0  0
 26 25  1  0  0  0  0
 27 23  1  0  0  0  0
 28 24  2  0  0  0  0
M  END
>  <MODEL>
4

>  <REMARK>
 VINA RESULT:      -8.6      2.928      5.435
  Name = 
  3 active torsions:
  status: ('A' for Active; 'I' for Inactive)
    1  A    between atoms: C_1  and  C_2
    2  A    between atoms: C_2  and  C_3
    3  A    between atoms: C_12  and  C_24
                            x       y       z     vdW  Elec       q    Type
                         _______ _______ _______ _____ _____    ______ ____

>  <TORSDO>
F 3

$$$$
=
 OpenBabel11052423003D

 28 32  0  0  1  0  0  0  0  0999 V2000
  161.5070  204.5990  149.1890 C   0  0  0  0  0  0  0  0  0  0  0  0
  161.7980  209.7620  148.5100 S   0  0  0  0  0  0  0  0  0  0  0  0
  160.6160  206.4290  153.8280 C   0  0  0  0  0  1  0  0  0  0  0  0
  162.1600  210.4140  151.0550 C   0  0  1  0  0  3  0  0  0  0  0  0
  161.8790  208.0230  150.6090 N   0  0  0  0  0  0  0  0  0  0  0  0
  162.4700  209.2840  150.1380 C   0  0  1  0  0  3  0  0  0  0  0  0
  161.1250  209.0810  152.8170 C   0  0  0  0  0  2  0  0  0  0  0  0
  161.7880  211.5510  150.4870 C   0  0  0  0  0  2  0  0  0  0  0  0
  161.4700  205.4210  151.6060 C   0  0  1  0  0  3  0  0  0  0  0  0
  161.8630  206.9270  149.7260 N   0  0  0  0  0  0  0  0  0  0  0  0
  162.1180  210.1980  152.5270 C   0  0  0  0  0  2  0  0  0  0  0  0
  160.3280  203.3770  150.9430 C   0  0  0  0  0  3  0  0  0  0  0  0
  161.1120  206.6310  152.4300 C   0  0  0  0  0  0  0  0  0  0  0  0
  160.5540  204.2970  151.8370 N   0  0  0  0  0  0  0  0  0  0  0  0
  161.8020  211.5220  149.0010 C   0  0  2  0  0  3  0  0  0  0  0  0
  161.4040  207.8620  151.9710 C   0  0  0  0  0  0  0  0  0  0  0  0
  160.9010  203.4770  149.5840 C   0  0  0  0  0  3  0  0  0  0  0  0
  161.6090  205.7230  150.1360 C   0  0  0  0  0  0  0  0  0  0  0  0
  160.5730  212.2310  148.4640 C   0  0  0  0  0  2  0  0  0  0  0  0
  160.9680  213.2360  147.3990 C   0  0  0  0  0  1  0  0  0  0  0  0
  162.0400  204.7010  147.7940 C   0  0  0  0  0  2  0  0  0  0  0  0
  161.4470  203.6440  146.9240 C   0  0  0  0  0  0  0  0  0  0  0  0
  160.2970  201.6670  145.3100 C   0  0  0  0  0  0  0  0  0  0  0  0
  160.9580  203.9730  145.6540 C   0  0  0  0  0  3  0  0  0  0  0  0
  161.3550  202.3270  147.3870 C   0  0  0  0  0  3  0  0  0  0  0  0
  160.7810  201.3390  146.5810 C   0  0  0  0  0  3  0  0  0  0  0  0
  159.7410  200.7110  144.5300 F   0  0  0  0  0  0  0  0  0  0  0  0
  160.3850  202.9840  144.8480 C   0  0  0  0  0  3  0  0  0  0  0  0
  1 17  2  0  0  0  0
  1 18  1  0  0  0  0
  2 15  1  0  0  0  0
  4  8  1  6  0  0  0
  4 11  1  0  0  0  0
  5 16  1  0  0  0  0
  6  2  1  6  0  0  0
  6  5  1  0  0  0  0
  6  4  1  0  0  0  0
  9 18  1  6  0  0  0
  9 14  1  0  0  0  0
  9 13  1  0  0  0  0
 10 18  2  0  0  0  0
 10  5  1  0  0  0  0
 11  7  1  0  0  0  0
 12 14  2  0  0  0  0
 13  3  1  0  0  0  0
 15 19  1  6  0  0  0
 15  8  1  0  0  0  0
 16 13  2  0  0  0  0
 16  7  1  0  0  0  0
 17 12  1  0  0  0  0
 20 19  1  0  0  0  0
 21  1  1  0  0  0  0
 22 25  1  0  0  0  0
 22 21  1  0  0  0  0
 23 26  1  0  0  0  0
 24 22  2  0  0  0  0
 26 25  2  0  0  0  0
 27 23  1  0  0  0  0
 28 23  2  0  0  0  0
 28 24  1  0  0  0  0
M  END
>  <MODEL>
5

>  <REMARK>
 VINA RESULT:      -7.9      2.374      4.551
  Name = 
  3 active torsions:
  status: ('A' for Active; 'I' for Inactive)
    1  A    between atoms: C_1  and  C_2
    2  A    between atoms: C_2  and  C_3
    3  A    between atoms: C_12  and  C_24
                            x       y       z     vdW  Elec       q    Type
                         _______ _______ _______ _____ _____    ______ ____

>  <TORSDO>
F 3

$$$$
=
 OpenBabel11052423003D

 28 32  0  0  1  0  0  0  0  0999 V2000
  161.1490  210.2980  152.6620 C   0  0  0  0  0  0  0  0  0  0  0  0
  161.4860  207.4110  148.3320 S   0  0  0  0  0  0  0  0  0  0  0  0
  161.3480  205.5580  154.4430 C   0  0  0  0  0  1  0  0  0  0  0  0
  160.7290  205.1070  149.4060 C   0  0  1  0  0  3  0  0  0  0  0  0
  160.8550  207.0000  150.9530 N   0  0  0  0  0  0  0  0  0  0  0  0
  160.4850  206.5620  149.5990 C   0  0  1  0  0  3  0  0  0  0  0  0
  161.2900  204.5960  151.7250 C   0  0  0  0  0  2  0  0  0  0  0  0
  161.3050  204.7510  148.2680 C   0  0  0  0  0  2  0  0  0  0  0  0
  160.8220  207.9470  153.6050 C   0  0  1  0  0  3  0  0  0  0  0  0
  160.9270  208.3830  151.2050 N   0  0  0  0  0  0  0  0  0  0  0  0
  160.4800  204.1490  150.5170 C   0  0  0  0  0  2  0  0  0  0  0  0
  161.8640  209.7090  154.9210 C   0  0  0  0  0  3  0  0  0  0  0  0
  161.1380  206.5050  153.3010 C   0  0  0  0  0  0  0  0  0  0  0  0
  161.5680  208.4500  154.7660 N   0  0  0  0  0  0  0  0  0  0  0  0
  161.5620  205.8800  147.3360 C   0  0  2  0  0  3  0  0  0  0  0  0
  161.0550  206.0550  152.0350 C   0  0  0  0  0  0  0  0  0  0  0  0
  161.5620  210.6990  153.8670 C   0  0  0  0  0  3  0  0  0  0  0  0
  160.9850  208.8550  152.4130 C   0  0  0  0  0  0  0  0  0  0  0  0
  162.9310  205.7200  146.7020 C   0  0  0  0  0  2  0  0  0  0  0  0
  162.9270  204.5600  145.7260 C   0  0  0  0  0  1  0  0  0  0  0  0
  160.8940  211.3110  151.5910 C   0  0  0  0  0  2  0  0  0  0  0  0
  159.6940  212.1340  151.9180 C   0  0  0  0  0  0  0  0  0  0  0  0
  157.4650  213.6980  152.5650 C   0  0  0  0  0  0  0  0  0  0  0  0
  159.4640  213.3400  151.2450 C   0  0  0  0  0  3  0  0  0  0  0  0
  158.8100  211.7160  152.9190 C   0  0  0  0  0  3  0  0  0  0  0  0
  157.6960  212.4960  153.2420 C   0  0  0  0  0  3  0  0  0  0  0  0
  156.3860  214.4530  152.8780 F   0  0  0  0  0  0  0  0  0  0  0  0
  158.3490  214.1200  151.5680 C   0  0  0  0  0  3  0  0  0  0  0  0
  1 17  2  0  0  0  0
  4  8  1  1  0  0  0
  4  6  1  0  0  0  0
  4 11  1  0  0  0  0
  5 10  1  0  0  0  0
  5 16  1  0  0  0  0
  6  2  1  6  0  0  0
  6  5  1  0  0  0  0
  7 16  1  0  0  0  0
  9 18  1  6  0  0  0
  9 14  1  0  0  0  0
 10 18  2  0  0  0  0
 11  7  1  0  0  0  0
 13  9  1  0  0  0  0
 13  3  1  0  0  0  0
 14 12  2  0  0  0  0
 15 19  1  1  0  0  0
 15  8  1  0  0  0  0
 15  2  1  0  0  0  0
 16 13  2  0  0  0  0
 17 12  1  0  0  0  0
 18  1  1  0  0  0  0
 20 19  1  0  0  0  0
 21 22  1  0  0  0  0
 21  1  1  0  0  0  0
 22 25  1  0  0  0  0
 23 27  1  0  0  0  0
 23 26  1  0  0  0  0
 24 28  1  0  0  0  0
 24 22  2  0  0  0  0
 25 26  2  0  0  0  0
 28 23  2  0  0  0  0
M  END
>  <MODEL>
6

>  <REMARK>
 VINA RESULT:      -7.8      3.932      8.651
  Name = 
  3 active torsions:
  status: ('A' for Active; 'I' for Inactive)
    1  A    between atoms: C_1  and  C_2
    2  A    between atoms: C_2  and  C_3
    3  A    between atoms: C_12  and  C_24
                            x       y       z     vdW  Elec       q    Type
                         _______ _______ _______ _____ _____    ______ ____

>  <TORSDO>
F 3

$$$$
=
 OpenBabel11052423003D

 28 32  0  0  1  0  0  0  0  0999 V2000
  161.6420  208.3070  152.3020 C   0  0  0  0  0  0  0  0  0  0  0  0
  159.0520  212.6530  151.0360 S   0  0  0  0  0  0  0  0  0  0  0  0
  159.3930  209.6210  156.6480 C   0  0  0  0  0  1  0  0  0  0  0  0
  158.7130  213.5710  153.5010 C   0  0  1  0  0  3  0  0  0  0  0  0
  159.8730  211.4220  153.3260 N   0  0  0  0  0  0  0  0  0  0  0  0
  159.7000  212.7580  152.7380 C   0  0  1  0  0  3  0  0  0  0  0  0
  158.4270  212.0130  155.3570 C   0  0  0  0  0  2  0  0  0  0  0  0
  157.8310  214.2510  152.7860 C   0  0  0  0  0  2  0  0  0  0  0  0
  160.8940  209.1280  154.6020 C   0  0  1  0  0  3  0  0  0  0  0  0
  160.5690  210.4540  152.5780 N   0  0  0  0  0  0  0  0  0  0  0  0
  158.6450  213.4720  154.9840 C   0  0  0  0  0  2  0  0  0  0  0  0
  161.1760  206.7570  154.1300 C   0  0  0  0  0  3  0  0  0  0  0  0
  159.8340  209.9720  155.2600 C   0  0  0  0  0  0  0  0  0  0  0  0
  160.7500  207.7010  154.9200 N   0  0  0  0  0  0  0  0  0  0  0  0
  158.0150  214.1310  151.3160 C   0  0  2  0  0  3  0  0  0  0  0  0
  159.4300  211.1150  154.6730 C   0  0  0  0  0  0  0  0  0  0  0  0
  161.7330  207.0700  152.7980 C   0  0  0  0  0  3  0  0  0  0  0  0
  160.9940  209.3510  153.1150 C   0  0  0  0  0  0  0  0  0  0  0  0
  156.6650  213.9740  150.6420 C   0  0  0  0  0  2  0  0  0  0  0  0
  156.8300  213.9360  149.1350 C   0  0  0  0  0  1  0  0  0  0  0  0
  162.1690  208.5960  150.9320 C   0  0  0  0  0  2  0  0  0  0  0  0
  161.8020  207.5050  149.9830 C   0  0  0  0  0  0  0  0  0  0  0  0
  161.1540  205.4470  148.2010 C   0  0  0  0  0  0  0  0  0  0  0  0
  161.3110  206.2870  150.4680 C   0  0  0  0  0  3  0  0  0  0  0  0
  161.9730  207.6890  148.6060 C   0  0  0  0  0  3  0  0  0  0  0  0
  161.6490  206.6610  147.7160 C   0  0  0  0  0  3  0  0  0  0  0  0
  160.8410  204.4520  147.3390 F   0  0  0  0  0  0  0  0  0  0  0  0
  160.9870  205.2600  149.5760 C   0  0  0  0  0  3  0  0  0  0  0  0
  1 17  2  0  0  0  0
  1 18  1  0  0  0  0
  2 15  1  0  0  0  0
  4  8  1  6  0  0  0
  4 11  1  0  0  0  0
  5 16  1  0  0  0  0
  6  2  1  6  0  0  0
  6  5  1  0  0  0  0
  6  4  1  0  0  0  0
  9 18  1  6  0  0  0
  9 14  1  0  0  0  0
  9 13  1  0  0  0  0
 10 18  2  0  0  0  0
 10  5  1  0  0  0  0
 11  7  1  0  0  0  0
 12 14  2  0  0  0  0
 13  3  1  0  0  0  0
 15 19  1  6  0  0  0
 15  8  1  0  0  0  0
 16 13  2  0  0  0  0
 16  7  1  0  0  0  0
 17 12  1  0  0  0  0
 20 19  1  0  0  0  0
 21  1  1  0  0  0  0
 22 24  1  0  0  0  0
 22 21  1  0  0  0  0
 23 28  1  0  0  0  0
 25 22  2  0  0  0  0
 26 23  2  0  0  0  0
 26 25  1  0  0  0  0
 27 23  1  0  0  0  0
 28 24  2  0  0  0  0
M  END
>  <MODEL>
7

>  <REMARK>
 VINA RESULT:      -7.5      3.106      5.745
  Name = 
  3 active torsions:
  status: ('A' for Active; 'I' for Inactive)
    1  A    between atoms: C_1  and  C_2
    2  A    between atoms: C_2  and  C_3
    3  A    between atoms: C_12  and  C_24
                            x       y       z     vdW  Elec       q    Type
                         _______ _______ _______ _____ _____    ______ ____

>  <TORSDO>
F 3

$$$$
=
 OpenBabel11052423003D

 28 32  0  0  1  0  0  0  0  0999 V2000
  161.8750  208.1810  151.5710 C   0  0  0  0  0  0  0  0  0  0  0  0
  161.0530  211.4420  147.5850 S   0  0  0  0  0  0  0  0  0  0  0  0
  159.7370  212.2030  153.7890 C   0  0  0  0  0  1  0  0  0  0  0  0
  160.7750  213.6570  149.0180 C   0  0  1  0  0  3  0  0  0  0  0  0
  161.1560  211.6100  150.3050 N   0  0  0  0  0  0  0  0  0  0  0  0
  161.5080  212.3640  149.0930 C   0  0  1  0  0  3  0  0  0  0  0  0
  159.7800  213.5570  151.2430 C   0  0  0  0  0  2  0  0  0  0  0  0
  160.2560  213.9740  147.8420 C   0  0  0  0  0  2  0  0  0  0  0  0
  161.1990  210.3120  152.8040 C   0  0  1  0  0  3  0  0  0  0  0  0
  161.5640  210.2650  150.3910 N   0  0  0  0  0  0  0  0  0  0  0  0
  160.5150  214.4470  150.2520 C   0  0  0  0  0  2  0  0  0  0  0  0
  160.7170  208.1090  153.7190 C   0  0  0  0  0  3  0  0  0  0  0  0
  160.4190  211.5870  152.6070 C   0  0  0  0  0  0  0  0  0  0  0  0
  160.5500  209.4010  153.7550 N   0  0  0  0  0  0  0  0  0  0  0  0
  160.5490  212.9950  146.7630 C   0  0  2  0  0  3  0  0  0  0  0  0
  160.4900  212.2380  151.4310 C   0  0  0  0  0  0  0  0  0  0  0  0
  161.4900  207.4700  152.6340 C   0  0  0  0  0  3  0  0  0  0  0  0
  161.5310  209.6120  151.5110 C   0  0  0  0  0  0  0  0  0  0  0  0
  159.3080  212.7750  145.9190 C   0  0  0  0  0  2  0  0  0  0  0  0
  159.6870  212.2260  144.5570 C   0  0  0  0  0  1  0  0  0  0  0  0
  162.6160  207.5070  150.4590 C   0  0  0  0  0  2  0  0  0  0  0  0
  161.9870  206.1970  150.1220 C   0  0  0  0  0  0  0  0  0  0  0  0
  160.7700  203.7540  149.5040 C   0  0  0  0  0  0  0  0  0  0  0  0
  161.5430  205.9450  148.8190 C   0  0  0  0  0  3  0  0  0  0  0  0
  161.8160  205.2270  151.1160 C   0  0  0  0  0  3  0  0  0  0  0  0
  161.2080  204.0070  150.8080 C   0  0  0  0  0  3  0  0  0  0  0  0
  160.1810  202.5720  149.2060 F   0  0  0  0  0  0  0  0  0  0  0  0
  160.9360  204.7240  148.5110 C   0  0  0  0  0  3  0  0  0  0  0  0
  1 17  2  0  0  0  0
  4  8  1  1  0  0  0
  4  6  1  0  0  0  0
  4 11  1  0  0  0  0
  5 10  1  0  0  0  0
  5 16  1  0  0  0  0
  6  2  1  6  0  0  0
  6  5  1  0  0  0  0
  7 16  1  0  0  0  0
  9 18  1  6  0  0  0
  9 14  1  0  0  0  0
 10 18  2  0  0  0  0
 11  7  1  0  0  0  0
 12 14  2  0  0  0  0
 13  9  1  0  0  0  0
 13  3  1  0  0  0  0
 15 19  1  1  0  0  0
 15  2  1  0  0  0  0
 15  8  1  0  0  0  0
 16 13  2  0  0  0  0
 17 12  1  0  0  0  0
 18  1  1  0  0  0  0
 20 19  1  0  0  0  0
 21  1  1  0  0  0  0
 22 21  1  0  0  0  0
 22 25  1  0  0  0  0
 23 26  1  0  0  0  0
 24 22  2  0  0  0  0
 26 25  2  0  0  0  0
 27 23  1  0  0  0  0
 28 24  1  0  0  0  0
 28 23  2  0  0  0  0
M  END
>  <MODEL>
8

>  <REMARK>
 VINA RESULT:      -7.4      3.088      5.905
  Name = 
  3 active torsions:
  status: ('A' for Active; 'I' for Inactive)
    1  A    between atoms: C_1  and  C_2
    2  A    between atoms: C_2  and  C_3
    3  A    between atoms: C_12  and  C_24
                            x       y       z     vdW  Elec       q    Type
                         _______ _______ _______ _____ _____    ______ ____

>  <TORSDO>
F 3

$$$$
=
 OpenBabel11052423003D

 28 32  0  0  1  0  0  0  0  0999 V2000
  162.2190  207.7180  149.6740 C   0  0  0  0  0  0  0  0  0  0  0  0
  161.0410  212.2200  147.3210 S   0  0  0  0  0  0  0  0  0  0  0  0
  159.9650  210.3880  153.3440 C   0  0  0  0  0  1  0  0  0  0  0  0
  160.7070  213.6690  149.5170 C   0  0  1  0  0  3  0  0  0  0  0  0
  161.2570  211.3120  149.8820 N   0  0  0  0  0  0  0  0  0  0  0  0
  161.5120  212.5030  149.0610 C   0  0  1  0  0  3  0  0  0  0  0  0
  159.8200  212.6340  151.5410 C   0  0  0  0  0  2  0  0  0  0  0  0
  160.1190  214.3870  148.5730 C   0  0  0  0  0  2  0  0  0  0  0  0
  161.4840  209.1420  151.6630 C   0  0  1  0  0  3  0  0  0  0  0  0
  161.7410  210.0720  149.4210 N   0  0  0  0  0  0  0  0  0  0  0  0
  160.4600  213.8900  150.9680 C   0  0  0  0  0  2  0  0  0  0  0  0
  161.1640  206.7290  151.6410 C   0  0  0  0  0  3  0  0  0  0  0  0
  160.6270  210.3340  152.0010 C   0  0  0  0  0  0  0  0  0  0  0  0
  160.9280  207.8870  152.1880 N   0  0  0  0  0  0  0  0  0  0  0  0
  160.4170  213.9330  147.1890 C   0  0  2  0  0  3  0  0  0  0  0  0
  160.6090  211.3990  151.1780 C   0  0  0  0  0  0  0  0  0  0  0  0
  161.9210  206.6220  150.3770 C   0  0  0  0  0  3  0  0  0  0  0  0
  161.7950  209.0300  150.1920 C   0  0  0  0  0  0  0  0  0  0  0  0
  159.1520  213.9790  146.3510 C   0  0  0  0  0  2  0  0  0  0  0  0
  158.1480  212.9630  146.8580 C   0  0  0  0  0  1  0  0  0  0  0  0
  162.9450  207.5880  148.3730 C   0  0  0  0  0  2  0  0  0  0  0  0
  162.2510  206.6200  147.4750 C   0  0  0  0  0  0  0  0  0  0  0  0
  160.9660  204.8240  145.7550 C   0  0  0  0  0  0  0  0  0  0  0  0
  162.8600  205.4020  147.1510 C   0  0  0  0  0  3  0  0  0  0  0  0
  161.0020  206.9400  146.9320 C   0  0  0  0  0  3  0  0  0  0  0  0
  160.3590  206.0430  146.0730 C   0  0  0  0  0  3  0  0  0  0  0  0
  160.3430  203.9560  144.9240 F   0  0  0  0  0  0  0  0  0  0  0  0
  162.2160  204.5050  146.2930 C   0  0  0  0  0  3  0  0  0  0  0  0
  1 18  1  0  0  0  0
  1 17  2  0  0  0  0
  4  8  1  6  0  0  0
  4 11  1  0  0  0  0
  5 16  1  0  0  0  0
  6  2  1  6  0  0  0
  6  4  1  0  0  0  0
  6  5  1  0  0  0  0
  9 18  1  6  0  0  0
  9 13  1  0  0  0  0
  9 14  1  0  0  0  0
 10  5  1  0  0  0  0
 10 18  2  0  0  0  0
 11  7  1  0  0  0  0
 12 14  2  0  0  0  0
 13  3  1  0  0  0  0
 15 19  1  6  0  0  0
 15  2  1  0  0  0  0
 15  8  1  0  0  0  0
 16  7  1  0  0  0  0
 16 13  2  0  0  0  0
 17 12  1  0  0  0  0
 19 20  1  0  0  0  0
 21  1  1  0  0  0  0
 22 21  1  0  0  0  0
 23 26  2  0  0  0  0
 23 28  1  0  0  0  0
 24 22  1  0  0  0  0
 25 22  2  0  0  0  0
 26 25  1  0  0  0  0
 27 23  1  0  0  0  0
 28 24  2  0  0  0  0
M  END
>  <MODEL>
9

>  <REMARK>
 VINA RESULT:      -7.3      3.281      5.776
  Name = 
  3 active torsions:
  status: ('A' for Active; 'I' for Inactive)
    1  A    between atoms: C_1  and  C_2
    2  A    between atoms: C_2  and  C_3
    3  A    between atoms: C_12  and  C_24
                            x       y       z     vdW  Elec       q    Type
                         _______ _______ _______ _____ _____    ______ ____

>  <TORSDO>
F 3

$$$$
