=
 OpenBabel11052423033D

 28 30  0  0  1  0  0  0  0  0999 V2000
  161.4630  208.4390  151.6130 O   0  0  0  0  0  0  0  0  0  0  0  0
  160.1090  206.7930  153.3320 C   0  0  0  0  0  1  0  0  0  0  0  0
  161.2660  206.1900  152.5420 C   0  0  1  0  0  0  0  0  0  0  0  0
  161.5560  210.7110  149.8070 C   0  0  0  0  0  2  0  0  0  0  0  0
  160.1410  205.3080  150.5840 C   0  0  0  0  0  2  0  0  0  0  0  0
  161.6840  206.4120  148.9240 C   0  0  2  0  0  3  0  0  0  0  0  0
  160.7540  204.8880  151.9100 C   0  0  1  0  0  3  0  0  0  0  0  0
  161.4470  208.8440  148.1750 C   0  0  0  0  0  2  0  0  0  0  0  0
  160.8000  206.6210  150.1640 C   0  0  2  0  0  3  0  0  0  0  0  0
  162.5190  210.4980  150.9730 C   0  0  0  0  0  2  0  0  0  0  0  0
  162.4040  207.6960  148.4630 C   0  0  0  0  0  2  0  0  0  0  0  0
  162.1110  210.1690  148.4990 C   0  0  0  0  0  2  0  0  0  0  0  0
  162.6970  209.0270  151.3210 C   0  0  0  0  0  2  0  0  0  0  0  0
  161.6460  207.0750  151.3510 C   0  0  1  0  0  3  0  0  0  0  0  0
  160.8840  205.5840  145.6490 C   0  0  0  0  0  2  0  0  0  0  0  0
  161.6830  204.4690  147.5340 C   0  0  1  0  0  3  0  0  0  0  0  0
  161.6590  204.3560  146.0400 C   0  0  2  0  0  3  0  0  0  0  0  0
  160.9700  205.7020  147.8500 N   0  0  2  0  0  0  0  0  0  0  0  0
  160.9340  206.4770  146.7280 O   0  0  0  0  0  0  0  0  0  0  0  0
  163.0570  204.4470  145.5200 C   0  0  0  0  0  3  0  0  0  0  0  0
  163.9870  204.6490  146.2840 O   0  0  0  0  0  0  0  0  0  0  0  0
  160.9620  203.2890  148.1670 C   0  0  0  0  0  2  0  0  0  0  0  0
  161.1710  202.0370  147.3360 C   0  0  0  0  0  2  0  0  0  0  0  0
  161.3090  200.8410  148.2540 C   0  0  0  0  0  1  0  0  0  0  0  0
  161.2520  202.5110  151.6870 N   0  0  0  0  0  1  0  0  0  0  0  0
  161.8290  203.8420  151.6290 C   0  0  0  0  0  2  0  0  0  0  0  0
  162.4390  206.0220  153.5180 C   0  0  0  0  0  2  0  0  0  0  0  0
  162.1990  206.6680  154.7350 O   0  0  0  0  0  1  0  0  0  0  0  0
  3  2  1  1  0  0  0
  3 27  1  0  0  0  0
  4 10  1  0  0  0  0
  5  7  1  0  0  0  0
  6 11  1  6  0  0  0
  6  9  1  0  0  0  0
  7 26  1  6  0  0  0
  7  3  1  0  0  0  0
  8 11  1  0  0  0  0
  8 12  1  0  0  0  0
  9  5  1  1  0  0  0
  9 14  1  0  0  0  0
 10 13  1  0  0  0  0
 12  4  1  0  0  0  0
 13  1  1  0  0  0  0
 14  1  1  1  0  0  0
 14  3  1  0  0  0  0
 15 17  1  0  0  0  0
 15 19  1  0  0  0  0
 16 18  1  0  0  0  0
 16 22  1  1  0  0  0
 17 20  1  6  0  0  0
 17 16  1  0  0  0  0
 18 19  1  6  0  0  0
 18  6  1  0  0  0  0
 20 21  2  0  0  0  0
 23 22  1  0  0  0  0
 23 24  1  0  0  0  0
 26 25  1  0  0  0  0
 27 28  1  0  0  0  0
M  END
>  <MODEL>
1

>  <REMARK>
 VINA RESULT:      -4.8      0.000      0.000
  Name = 
  6 active torsions:
  status: ('A' for Active; 'I' for Inactive)
    1  A    between atoms: C_3  and  C_7
    2  A    between atoms: C_9  and  C_14
    3  A    between atoms: C_10  and  N_13
    4  A    between atoms: C_11  and  C_22
    5  A    between atoms: C_12  and  C_15
    6  A    between atoms: C_14  and  C_18
                            x       y       z     vdW  Elec       q    Type
                         _______ _______ _______ _____ _____    ______ ____

>  <TORSDO>
F 6

$$$$
=
 OpenBabel11052423033D

 28 30  0  0  1  0  0  0  0  0999 V2000
  161.8070  208.0530  152.0580 O   0  0  0  0  0  0  0  0  0  0  0  0
  163.1990  210.3580  151.5590 C   0  0  0  0  0  1  0  0  0  0  0  0
  161.9450  210.0970  150.7300 C   0  0  1  0  0  0  0  0  0  0  0  0
  161.7010  205.2750  152.8950 C   0  0  0  0  0  2  0  0  0  0  0  0
  162.8450  208.9630  148.7870 C   0  0  0  0  0  2  0  0  0  0  0  0
  161.2380  207.0240  148.8950 C   0  0  2  0  0  3  0  0  0  0  0  0
  162.3210  210.3090  149.2580 C   0  0  1  0  0  3  0  0  0  0  0  0
  161.5590  205.0070  150.4320 C   0  0  0  0  0  2  0  0  0  0  0  0
  162.2350  207.8890  149.6840 C   0  0  2  0  0  3  0  0  0  0  0  0
  160.8290  206.3830  153.4790 C   0  0  0  0  0  2  0  0  0  0  0  0
  160.5620  205.9340  149.7520 C   0  0  0  0  0  2  0  0  0  0  0  0
  161.0070  204.5340  151.7630 C   0  0  0  0  0  2  0  0  0  0  0  0
  160.5910  207.5180  152.4930 C   0  0  0  0  0  2  0  0  0  0  0  0
  161.5200  208.6280  150.8130 C   0  0  1  0  0  3  0  0  0  0  0  0
  163.1870  204.9720  146.8830 C   0  0  0  0  0  2  0  0  0  0  0  0
  160.9280  205.5210  147.0640 C   0  0  1  0  0  3  0  0  0  0  0  0
  161.8220  204.4340  146.5500 C   0  0  2  0  0  3  0  0  0  0  0  0
  161.8150  206.5280  147.6340 N   0  0  2  0  0  0  0  0  0  0  0  0
  163.0260  205.9470  147.8770 O   0  0  0  0  0  0  0  0  0  0  0  0
  161.5650  203.1820  147.3240 C   0  0  0  0  0  3  0  0  0  0  0  0
  160.9110  202.2760  146.8310 O   0  0  0  0  0  0  0  0  0  0  0  0
  160.1290  206.1340  145.9240 C   0  0  0  0  0  2  0  0  0  0  0  0
  160.2130  205.2560  144.6900 C   0  0  0  0  0  2  0  0  0  0  0  0
  161.2790  205.7950  143.7610 C   0  0  0  0  0  1  0  0  0  0  0  0
  161.4610  211.9850  147.7080 N   0  0  0  0  0  1  0  0  0  0  0  0
  161.1650  210.7160  148.3490 C   0  0  0  0  0  2  0  0  0  0  0  0
  160.8500  211.0320  151.2630 C   0  0  0  0  0  2  0  0  0  0  0  0
  160.8420  211.0790  152.6610 O   0  0  0  0  0  1  0  0  0  0  0  0
  1 13  1  0  0  0  0
  3 14  1  0  0  0  0
  3 27  1  0  0  0  0
  3  2  1  1  0  0  0
  4 10  1  0  0  0  0
  5  7  1  0  0  0  0
  6  9  1  0  0  0  0
  6 11  1  1  0  0  0
  7 26  1  6  0  0  0
  7  3  1  0  0  0  0
  8 12  1  0  0  0  0
  9  5  1  6  0  0  0
  9 14  1  0  0  0  0
 11  8  1  0  0  0  0
 12  4  1  0  0  0  0
 13 10  1  0  0  0  0
 14  1  1  1  0  0  0
 15 19  1  0  0  0  0
 16 22  1  6  0  0  0
 16 18  1  0  0  0  0
 17 15  1  0  0  0  0
 17 16  1  0  0  0  0
 17 20  1  1  0  0  0
 18 19  1  1  0  0  0
 18  6  1  0  0  0  0
 21 20  2  0  0  0  0
 23 22  1  0  0  0  0
 24 23  1  0  0  0  0
 25 26  1  0  0  0  0
 27 28  1  0  0  0  0
M  END
>  <MODEL>
2

>  <REMARK>
 VINA RESULT:      -4.6      1.894      4.622
  Name = 
  6 active torsions:
  status: ('A' for Active; 'I' for Inactive)
    1  A    between atoms: C_3  and  C_7
    2  A    between atoms: C_9  and  C_14
    3  A    between atoms: C_10  and  N_13
    4  A    between atoms: C_11  and  C_22
    5  A    between atoms: C_12  and  C_15
    6  A    between atoms: C_14  and  C_18
                            x       y       z     vdW  Elec       q    Type
                         _______ _______ _______ _____ _____    ______ ____

>  <TORSDO>
F 6

$$$$
=
 OpenBabel11052423033D

 28 30  0  0  1  0  0  0  0  0999 V2000
  161.6340  207.7350  154.4570 O   0  0  0  0  0  0  0  0  0  0  0  0
  162.3270  208.6470  156.9440 C   0  0  0  0  0  1  0  0  0  0  0  0
  160.9290  208.9830  156.4330 C   0  0  1  0  0  0  0  0  0  0  0  0
  162.3260  206.9720  151.7420 C   0  0  0  0  0  2  0  0  0  0  0  0
  161.2720  211.1420  155.3890 C   0  0  0  0  0  2  0  0  0  0  0  0
  160.1800  210.5110  153.2060 C   0  0  2  0  0  3  0  0  0  0  0  0
  160.7180  210.4880  156.6430 C   0  0  1  0  0  3  0  0  0  0  0  0
  161.3750  209.2300  151.3450 C   0  0  0  0  0  2  0  0  0  0  0  0
  161.2190  210.1090  154.2650 C   0  0  2  0  0  3  0  0  0  0  0  0
  161.5330  206.0950  152.7070 C   0  0  0  0  0  2  0  0  0  0  0  0
  160.0540  209.4930  152.0550 C   0  0  0  0  0  2  0  0  0  0  0  0
  161.4210  207.8000  150.8430 C   0  0  0  0  0  2  0  0  0  0  0  0
  160.7650  206.9090  153.7390 C   0  0  0  0  0  2  0  0  0  0  0  0
  160.8290  208.7850  154.9180 C   0  0  1  0  0  3  0  0  0  0  0  0
  160.3580  213.1200  150.9220 C   0  0  0  0  0  2  0  0  0  0  0  0
  159.0600  212.5790  152.7810 C   0  0  1  0  0  3  0  0  0  0  0  0
  159.0150  213.4090  151.5340 C   0  0  2  0  0  3  0  0  0  0  0  0
  160.3530  211.9050  152.7640 N   0  0  2  0  0  0  0  0  0  0  0  0
  160.8320  211.9270  151.4860 O   0  0  0  0  0  0  0  0  0  0  0  0
  157.9280  212.9000  150.6450 C   0  0  0  0  0  3  0  0  0  0  0  0
  157.5700  213.5500  149.6760 O   0  0  0  0  0  0  0  0  0  0  0  0
  158.9650  213.4650  154.0130 C   0  0  0  0  0  2  0  0  0  0  0  0
  157.5240  213.5740  154.4730 C   0  0  0  0  0  2  0  0  0  0  0  0
  156.8550  212.2210  154.3590 C   0  0  0  0  0  1  0  0  0  0  0  0
  159.2010  212.2960  157.2610 N   0  0  0  0  0  1  0  0  0  0  0  0
  159.2620  210.9190  156.8020 C   0  0  0  0  0  2  0  0  0  0  0  0
  159.9440  208.0770  157.1860 C   0  0  0  0  0  2  0  0  0  0  0  0
  160.4040  206.7580  157.2610 O   0  0  0  0  0  1  0  0  0  0  0  0
  3  7  1  0  0  0  0
  3  2  1  1  0  0  0
  3 27  1  0  0  0  0
  4 10  1  0  0  0  0
  5  7  1  0  0  0  0
  6 11  1  6  0  0  0
  6  9  1  0  0  0  0
  7 26  1  6  0  0  0
  8 11  1  0  0  0  0
  9 14  1  0  0  0  0
  9  5  1  1  0  0  0
 10 13  1  0  0  0  0
 12  8  1  0  0  0  0
 12  4  1  0  0  0  0
 13  1  1  0  0  0  0
 14  1  1  6  0  0  0
 14  3  1  0  0  0  0
 15 19  1  0  0  0  0
 15 17  1  0  0  0  0
 16 22  1  1  0  0  0
 17 20  1  6  0  0  0
 17 16  1  0  0  0  0
 18 19  1  6  0  0  0
 18 16  1  0  0  0  0
 18  6  1  0  0  0  0
 21 20  2  0  0  0  0
 22 23  1  0  0  0  0
 24 23  1  0  0  0  0
 26 25  1  0  0  0  0
 27 28  1  0  0  0  0
M  END
>  <MODEL>
3

>  <REMARK>
 VINA RESULT:      -4.6      4.671      8.010
  Name = 
  6 active torsions:
  status: ('A' for Active; 'I' for Inactive)
    1  A    between atoms: C_3  and  C_7
    2  A    between atoms: C_9  and  C_14
    3  A    between atoms: C_10  and  N_13
    4  A    between atoms: C_11  and  C_22
    5  A    between atoms: C_12  and  C_15
    6  A    between atoms: C_14  and  C_18
                            x       y       z     vdW  Elec       q    Type
                         _______ _______ _______ _____ _____    ______ ____

>  <TORSDO>
F 6

$$$$
=
 OpenBabel11052423033D

 28 30  0  0  1  0  0  0  0  0999 V2000
  162.4190  206.4990  147.4470 O   0  0  0  0  0  0  0  0  0  0  0  0
  163.4920  204.7900  145.5950 C   0  0  0  0  0  1  0  0  0  0  0  0
  161.9800  204.7540  145.7960 C   0  0  1  0  0  0  0  0  0  0  0  0
  162.6020  208.0210  149.9120 C   0  0  0  0  0  2  0  0  0  0  0  0
  161.7300  203.0160  147.4670 C   0  0  0  0  0  2  0  0  0  0  0  0
  160.2950  204.3960  149.0130 C   0  0  2  0  0  3  0  0  0  0  0  0
  161.5820  203.2830  145.9790 C   0  0  1  0  0  3  0  0  0  0  0  0
  161.2350  206.0950  150.6740 C   0  0  0  0  0  2  0  0  0  0  0  0
  161.5950  204.3520  148.1930 C   0  0  2  0  0  3  0  0  0  0  0  0
  162.1960  208.6120  148.5640 C   0  0  0  0  0  2  0  0  0  0  0  0
  160.0810  205.7340  149.7500 C   0  0  0  0  0  2  0  0  0  0  0  0
  161.3980  207.6010  150.7400 C   0  0  0  0  0  2  0  0  0  0  0  0
  161.5570  207.5810  147.6450 C   0  0  0  0  0  2  0  0  0  0  0  0
  161.5790  205.4290  147.1110 C   0  0  1  0  0  3  0  0  0  0  0  0
  159.7220  201.0430  149.7120 C   0  0  0  0  0  2  0  0  0  0  0  0
  161.4420  202.5800  150.0590 C   0  0  1  0  0  3  0  0  0  0  0  0
  161.2060  201.1040  149.9500 C   0  0  2  0  0  3  0  0  0  0  0  0
  160.1390  203.2050  149.8640 N   0  0  2  0  0  0  0  0  0  0  0  0
  159.3160  202.3040  149.2520 O   0  0  0  0  0  0  0  0  0  0  0  0
  161.9360  200.5780  148.7570 C   0  0  0  0  0  3  0  0  0  0  0  0
  161.3330  199.9830  147.8790 O   0  0  0  0  0  0  0  0  0  0  0  0
  161.9730  202.9320  151.4390 C   0  0  0  0  0  2  0  0  0  0  0  0
  160.8260  203.2280  152.3860 C   0  0  0  0  0  2  0  0  0  0  0  0
  161.1110  204.5120  153.1360 C   0  0  0  0  0  1  0  0  0  0  0  0
  160.0810  201.5880  145.0700 N   0  0  0  0  0  1  0  0  0  0  0  0
  160.1480  202.9480  145.5740 C   0  0  0  0  0  2  0  0  0  0  0  0
  161.3470  205.4540  144.5860 C   0  0  0  0  0  2  0  0  0  0  0  0
  160.2200  206.1980  144.9470 O   0  0  0  0  0  1  0  0  0  0  0  0
  1 13  1  0  0  0  0
  3  2  1  6  0  0  0
  3  7  1  0  0  0  0
  3 14  1  0  0  0  0
  4 12  1  0  0  0  0
  6 11  1  1  0  0  0
  6 18  1  0  0  0  0
  7 26  1  1  0  0  0
  7  5  1  0  0  0  0
  8 12  1  0  0  0  0
  9  5  1  6  0  0  0
  9  6  1  0  0  0  0
 10  4  1  0  0  0  0
 11  8  1  0  0  0  0
 13 10  1  0  0  0  0
 14  1  1  1  0  0  0
 14  9  1  0  0  0  0
 15 17  1  0  0  0  0
 16 22  1  1  0  0  0
 17 20  1  6  0  0  0
 17 16  1  0  0  0  0
 18 19  1  6  0  0  0
 18 16  1  0  0  0  0
 19 15  1  0  0  0  0
 21 20  2  0  0  0  0
 22 23  1  0  0  0  0
 23 24  1  0  0  0  0
 25 26  1  0  0  0  0
 27 28  1  0  0  0  0
 27  3  1  0  0  0  0
M  END
>  <MODEL>
4

>  <REMARK>
 VINA RESULT:      -4.2      2.308      5.422
  Name = 
  6 active torsions:
  status: ('A' for Active; 'I' for Inactive)
    1  A    between atoms: C_3  and  C_7
    2  A    between atoms: C_9  and  C_14
    3  A    between atoms: C_10  and  N_13
    4  A    between atoms: C_11  and  C_22
    5  A    between atoms: C_12  and  C_15
    6  A    between atoms: C_14  and  C_18
                            x       y       z     vdW  Elec       q    Type
                         _______ _______ _______ _____ _____    ______ ____

>  <TORSDO>
F 6

$$$$
=
 OpenBabel11052423033D

 28 30  0  0  1  0  0  0  0  0999 V2000
  159.9010  213.5140  150.4240 O   0  0  0  0  0  0  0  0  0  0  0  0
  162.0000  213.5310  148.6650 C   0  0  0  0  0  1  0  0  0  0  0  0
  161.2170  212.2310  148.8170 C   0  0  1  0  0  0  0  0  0  0  0  0
  158.6010  214.4530  152.8440 C   0  0  0  0  0  2  0  0  0  0  0  0
  162.4780  211.0740  150.5330 C   0  0  0  0  0  2  0  0  0  0  0  0
  160.4780  210.5780  151.9850 C   0  0  2  0  0  3  0  0  0  0  0  0
  162.2400  211.1070  149.0330 C   0  0  1  0  0  3  0  0  0  0  0  0
  159.4680  212.2610  153.6220 C   0  0  0  0  0  2  0  0  0  0  0  0
  161.2440  211.6640  151.2110 C   0  0  2  0  0  3  0  0  0  0  0  0
  157.9460  214.4390  151.4650 C   0  0  0  0  0  2  0  0  0  0  0  0
  159.2000  211.1020  152.6710 C   0  0  0  0  0  2  0  0  0  0  0  0
  158.2780  213.2010  153.6440 C   0  0  0  0  0  2  0  0  0  0  0  0
  158.5190  213.3590  150.5580 C   0  0  0  0  0  2  0  0  0  0  0  0
  160.3730  212.2370  150.0950 C   0  0  1  0  0  3  0  0  0  0  0  0
  161.9700  209.6720  154.9860 C   0  0  0  0  0  2  0  0  0  0  0  0
  160.6400  208.6400  153.3730 C   0  0  1  0  0  3  0  0  0  0  0  0
  161.0140  208.5220  154.8190 C   0  0  2  0  0  3  0  0  0  0  0  0
  161.3630  209.8020  152.8680 N   0  0  2  0  0  0  0  0  0  0  0  0
  161.7410  210.5680  153.9330 O   0  0  0  0  0  0  0  0  0  0  0  0
  159.7990  208.7420  155.6590 C   0  0  0  0  0  3  0  0  0  0  0  0
  159.5700  209.8430  156.1360 O   0  0  0  0  0  0  0  0  0  0  0  0
  161.0740  207.4000  152.6090 C   0  0  0  0  0  2  0  0  0  0  0  0
  161.1520  206.2070  153.5420 C   0  0  0  0  0  2  0  0  0  0  0  0
  161.1280  204.9300  152.7290 C   0  0  0  0  0  1  0  0  0  0  0  0
  162.2350  208.7220  149.5410 N   0  0  0  0  0  1  0  0  0  0  0  0
  161.7790  209.7210  148.5910 C   0  0  0  0  0  2  0  0  0  0  0  0
  160.3430  212.0820  147.5640 C   0  0  0  0  0  2  0  0  0  0  0  0
  160.5850  213.1010  146.6370 O   0  0  0  0  0  1  0  0  0  0  0  0
  1 13  1  0  0  0  0
  3  2  1  6  0  0  0
  3  7  1  0  0  0  0
  3 14  1  0  0  0  0
  4 12  1  0  0  0  0
  6 11  1  1  0  0  0
  6 18  1  0  0  0  0
  7 26  1  1  0  0  0
  7  5  1  0  0  0  0
  8 12  1  0  0  0  0
  9  5  1  6  0  0  0
  9  6  1  0  0  0  0
 10  4  1  0  0  0  0
 11  8  1  0  0  0  0
 13 10  1  0  0  0  0
 14  1  1  1  0  0  0
 14  9  1  0  0  0  0
 16 22  1  6  0  0  0
 16 17  1  0  0  0  0
 17 15  1  0  0  0  0
 17 20  1  1  0  0  0
 18 16  1  0  0  0  0
 18 19  1  1  0  0  0
 19 15  1  0  0  0  0
 20 21  2  0  0  0  0
 22 23  1  0  0  0  0
 24 23  1  0  0  0  0
 26 25  1  0  0  0  0
 27  3  1  0  0  0  0
 28 27  1  0  0  0  0
M  END
>  <MODEL>
5

>  <REMARK>
 VINA RESULT:      -4.1      4.152      7.575
  Name = 
  6 active torsions:
  status: ('A' for Active; 'I' for Inactive)
    1  A    between atoms: C_3  and  C_7
    2  A    between atoms: C_9  and  C_14
    3  A    between atoms: C_10  and  N_13
    4  A    between atoms: C_11  and  C_22
    5  A    between atoms: C_12  and  C_15
    6  A    between atoms: C_14  and  C_18
                            x       y       z     vdW  Elec       q    Type
                         _______ _______ _______ _____ _____    ______ ____

>  <TORSDO>
F 6

$$$$
=
 OpenBabel11052423033D

 28 30  0  0  1  0  0  0  0  0999 V2000
  161.3590  205.3950  151.5660 O   0  0  0  0  0  0  0  0  0  0  0  0
  160.2620  203.0130  152.3560 C   0  0  0  0  0  1  0  0  0  0  0  0
  161.3560  202.9680  151.2940 C   0  0  1  0  0  0  0  0  0  0  0  0
  161.1680  208.2520  151.0920 C   0  0  0  0  0  2  0  0  0  0  0  0
  160.0750  203.0400  149.2380 C   0  0  0  0  0  2  0  0  0  0  0  0
  161.3890  204.9370  148.2220 C   0  0  2  0  0  3  0  0  0  0  0  0
  160.8390  202.0910  150.1460 C   0  0  1  0  0  3  0  0  0  0  0  0
  160.9720  207.3980  148.7700 C   0  0  0  0  0  2  0  0  0  0  0  0
  160.6290  204.4450  149.4650 C   0  0  2  0  0  3  0  0  0  0  0  0
  162.2540  207.5910  151.9360 C   0  0  0  0  0  2  0  0  0  0  0  0
  162.0020  206.3420  148.3960 C   0  0  0  0  0  2  0  0  0  0  0  0
  161.6080  208.4570  149.6500 C   0  0  0  0  0  2  0  0  0  0  0  0
  162.5300  206.1560  151.5110 C   0  0  0  0  0  2  0  0  0  0  0  0
  161.5730  204.3460  150.6610 C   0  0  1  0  0  3  0  0  0  0  0  0
  160.0720  205.8570  145.1440 C   0  0  0  0  0  2  0  0  0  0  0  0
  161.4330  204.1510  145.9660 C   0  0  1  0  0  3  0  0  0  0  0  0
  161.1150  204.8720  144.6910 C   0  0  2  0  0  3  0  0  0  0  0  0
  160.6000  204.7700  146.9910 N   0  0  2  0  0  0  0  0  0  0  0  0
  160.1930  205.9910  146.5350 O   0  0  0  0  0  0  0  0  0  0  0  0
  162.3330  205.5970  144.2210 C   0  0  0  0  0  3  0  0  0  0  0  0
  163.2270  205.8720  145.0050 O   0  0  0  0  0  0  0  0  0  0  0  0
  161.0800  202.6770  145.8460 C   0  0  0  0  0  2  0  0  0  0  0  0
  159.9980  202.4790  144.8020 C   0  0  0  0  0  2  0  0  0  0  0  0
  159.6630  201.0060  144.6990 C   0  0  0  0  0  1  0  0  0  0  0  0
  161.3150  200.5170  148.3450 N   0  0  0  0  0  1  0  0  0  0  0  0
  161.9230  201.4080  149.3170 C   0  0  0  0  0  2  0  0  0  0  0  0
  162.6290  202.4550  151.9810 C   0  0  0  0  0  2  0  0  0  0  0  0
  162.5390  201.0950  152.2950 O   0  0  0  0  0  1  0  0  0  0  0  0
  3 27  1  0  0  0  0
  3  2  1  1  0  0  0
  4 10  1  0  0  0  0
  5  7  1  0  0  0  0
  6 11  1  1  0  0  0
  6  9  1  0  0  0  0
  7 26  1  6  0  0  0
  7  3  1  0  0  0  0
  8 12  1  0  0  0  0
  9  5  1  6  0  0  0
  9 14  1  0  0  0  0
 11  8  1  0  0  0  0
 12  4  1  0  0  0  0
 13  1  1  0  0  0  0
 13 10  1  0  0  0  0
 14  3  1  0  0  0  0
 14  1  1  1  0  0  0
 15 19  1  0  0  0  0
 16 22  1  6  0  0  0
 16 18  1  0  0  0  0
 17 20  1  1  0  0  0
 17 15  1  0  0  0  0
 17 16  1  0  0  0  0
 18 19  1  6  0  0  0
 18  6  1  0  0  0  0
 20 21  2  0  0  0  0
 23 22  1  0  0  0  0
 24 23  1  0  0  0  0
 25 26  1  0  0  0  0
 27 28  1  0  0  0  0
M  END
>  <MODEL>
6

>  <REMARK>
 VINA RESULT:      -3.7      2.106      2.858
  Name = 
  6 active torsions:
  status: ('A' for Active; 'I' for Inactive)
    1  A    between atoms: C_3  and  C_7
    2  A    between atoms: C_9  and  C_14
    3  A    between atoms: C_10  and  N_13
    4  A    between atoms: C_11  and  C_22
    5  A    between atoms: C_12  and  C_15
    6  A    between atoms: C_14  and  C_18
                            x       y       z     vdW  Elec       q    Type
                         _______ _______ _______ _____ _____    ______ ____

>  <TORSDO>
F 6

$$$$
=
 OpenBabel11052423033D

 28 30  0  0  1  0  0  0  0  0999 V2000
  162.0320  207.4620  150.7060 O   0  0  0  0  0  0  0  0  0  0  0  0
  163.4480  208.1430  148.4640 C   0  0  0  0  0  1  0  0  0  0  0  0
  162.0640  207.5330  148.2660 C   0  0  1  0  0  0  0  0  0  0  0  0
  161.9110  206.5750  153.4680 C   0  0  0  0  0  2  0  0  0  0  0  0
  162.5750  205.1730  148.0470 C   0  0  0  0  0  2  0  0  0  0  0  0
  160.9040  204.4210  149.7770 C   0  0  2  0  0  3  0  0  0  0  0  0
  162.2080  206.4050  147.2350 C   0  0  1  0  0  3  0  0  0  0  0  0
  161.3580  204.4600  152.2920 C   0  0  0  0  0  2  0  0  0  0  0  0
  162.0600  205.3860  149.4690 C   0  0  2  0  0  3  0  0  0  0  0  0
  161.2060  207.8180  152.9320 C   0  0  0  0  0  2  0  0  0  0  0  0
  160.3160  204.6030  151.1920 C   0  0  0  0  0  2  0  0  0  0  0  0
  161.0030  205.3550  153.4640 C   0  0  0  0  0  2  0  0  0  0  0  0
  160.8750  207.7080  151.4510 C   0  0  0  0  0  2  0  0  0  0  0  0
  161.5790  206.8330  149.5400 C   0  0  1  0  0  3  0  0  0  0  0  0
  160.8740  200.9670  150.1360 C   0  0  0  0  0  2  0  0  0  0  0  0
  160.2510  202.5090  148.5010 C   0  0  1  0  0  3  0  0  0  0  0  0
  159.9620  201.1080  148.9480 C   0  0  2  0  0  3  0  0  0  0  0  0
  161.2410  203.0280  149.4380 N   0  0  2  0  0  0  0  0  0  0  0  0
  161.2120  202.2580  150.5650 O   0  0  0  0  0  0  0  0  0  0  0  0
  158.5370  201.0180  149.3860 C   0  0  0  0  0  3  0  0  0  0  0  0
  157.6360  201.3280  148.6220 O   0  0  0  0  0  0  0  0  0  0  0  0
  160.8320  202.5090  147.0960 C   0  0  0  0  0  2  0  0  0  0  0  0
  160.6690  201.1420  146.4590 C   0  0  0  0  0  2  0  0  0  0  0  0
  160.0810  201.3010  145.0730 C   0  0  0  0  0  1  0  0  0  0  0  0
  161.2980  205.6200  145.1130 N   0  0  0  0  0  1  0  0  0  0  0  0
  160.9440  206.0930  146.4390 C   0  0  0  0  0  2  0  0  0  0  0  0
  161.1220  208.6730  147.8550 C   0  0  0  0  0  2  0  0  0  0  0  0
  161.5810  209.9140  148.3060 O   0  0  0  0  0  1  0  0  0  0  0  0
  1 13  1  0  0  0  0
  3  2  1  1  0  0  0
  3 14  1  0  0  0  0
  6 11  1  1  0  0  0
  7 26  1  1  0  0  0
  7  5  1  0  0  0  0
  7  3  1  0  0  0  0
  8 12  1  0  0  0  0
  9  5  1  6  0  0  0
  9 14  1  0  0  0  0
  9  6  1  0  0  0  0
 10  4  1  0  0  0  0
 11  8  1  0  0  0  0
 12  4  1  0  0  0  0
 13 10  1  0  0  0  0
 14  1  1  1  0  0  0
 15 19  1  0  0  0  0
 16 22  1  6  0  0  0
 16 17  1  0  0  0  0
 16 18  1  0  0  0  0
 17 20  1  1  0  0  0
 17 15  1  0  0  0  0
 18  6  1  0  0  0  0
 18 19  1  1  0  0  0
 21 20  2  0  0  0  0
 23 22  1  0  0  0  0
 24 23  1  0  0  0  0
 25 26  1  0  0  0  0
 27  3  1  0  0  0  0
 27 28  1  0  0  0  0
M  END
>  <MODEL>
7

>  <REMARK>
 VINA RESULT:      -3.7      2.274      4.914
  Name = 
  6 active torsions:
  status: ('A' for Active; 'I' for Inactive)
    1  A    between atoms: C_3  and  C_7
    2  A    between atoms: C_9  and  C_14
    3  A    between atoms: C_10  and  N_13
    4  A    between atoms: C_11  and  C_22
    5  A    between atoms: C_12  and  C_15
    6  A    between atoms: C_14  and  C_18
                            x       y       z     vdW  Elec       q    Type
                         _______ _______ _______ _____ _____    ______ ____

>  <TORSDO>
F 6

$$$$
=
 OpenBabel11052423033D

 28 30  0  0  1  0  0  0  0  0999 V2000
  161.5810  203.7750  148.0580 O   0  0  0  0  0  0  0  0  0  0  0  0
  162.2060  201.6460  149.6620 C   0  0  0  0  0  1  0  0  0  0  0  0
  161.0670  202.5570  150.1110 C   0  0  1  0  0  0  0  0  0  0  0  0
  162.3310  205.8320  146.1500 C   0  0  0  0  0  2  0  0  0  0  0  0
  162.2180  204.1490  151.5310 C   0  0  0  0  0  2  0  0  0  0  0  0
  161.2690  206.1890  150.3950 C   0  0  2  0  0  3  0  0  0  0  0  0
  161.3270  202.9190  151.5790 C   0  0  1  0  0  3  0  0  0  0  0  0
  162.2150  207.1740  148.2350 C   0  0  0  0  0  2  0  0  0  0  0  0
  161.9790  204.8410  150.1910 C   0  0  2  0  0  3  0  0  0  0  0  0
  161.1810  204.8480  145.9480 C   0  0  0  0  0  2  0  0  0  0  0  0
  160.9700  206.9300  149.0760 C   0  0  0  0  0  2  0  0  0  0  0  0
  161.8620  207.1430  146.7600 C   0  0  0  0  0  2  0  0  0  0  0  0
  160.5910  204.3620  147.2640 C   0  0  0  0  0  2  0  0  0  0  0  0
  161.1040  203.8970  149.3690 C   0  0  1  0  0  3  0  0  0  0  0  0
  162.6050  209.0910  151.7540 C   0  0  0  0  0  2  0  0  0  0  0  0
  160.9330  207.5680  152.3180 C   0  0  1  0  0  3  0  0  0  0  0  0
  161.3430  208.9870  152.5660 C   0  0  2  0  0  3  0  0  0  0  0  0
  161.9360  207.0160  151.4140 N   0  0  2  0  0  0  0  0  0  0  0  0
  162.5890  208.0530  150.8120 O   0  0  0  0  0  0  0  0  0  0  0  0
  160.3020  209.9020  152.0110 C   0  0  0  0  0  3  0  0  0  0  0  0
  159.6430  210.6100  152.7560 O   0  0  0  0  0  0  0  0  0  0  0  0
  160.9330  206.7800  153.6180 C   0  0  0  0  0  2  0  0  0  0  0  0
  161.0590  207.7180  154.8030 C   0  0  0  0  0  2  0  0  0  0  0  0
  160.0510  207.3270  155.8630 C   0  0  0  0  0  1  0  0  0  0  0  0
  160.4250  204.1800  153.4620 N   0  0  0  0  0  1  0  0  0  0  0  0
  160.0800  203.2640  152.3890 C   0  0  0  0  0  2  0  0  0  0  0  0
  159.7570  201.8030  149.8490 C   0  0  0  0  0  2  0  0  0  0  0  0
  159.7510  201.1920  148.5910 O   0  0  0  0  0  1  0  0  0  0  0  0
  3  2  1  6  0  0  0
  3  7  1  0  0  0  0
  4 12  1  0  0  0  0
  5  7  1  0  0  0  0
  6 11  1  6  0  0  0
  6 18  1  0  0  0  0
  7 26  1  6  0  0  0
  8 11  1  0  0  0  0
  9  6  1  0  0  0  0
  9  5  1  1  0  0  0
 10  4  1  0  0  0  0
 10 13  1  0  0  0  0
 12  8  1  0  0  0  0
 13  1  1  0  0  0  0
 14  1  1  6  0  0  0
 14  3  1  0  0  0  0
 14  9  1  0  0  0  0
 15 17  1  0  0  0  0
 16 17  1  0  0  0  0
 16 22  1  1  0  0  0
 17 20  1  6  0  0  0
 18 19  1  6  0  0  0
 18 16  1  0  0  0  0
 19 15  1  0  0  0  0
 20 21  2  0  0  0  0
 22 23  1  0  0  0  0
 23 24  1  0  0  0  0
 26 25  1  0  0  0  0
 27  3  1  0  0  0  0
 28 27  1  0  0  0  0
M  END
>  <MODEL>
8

>  <REMARK>
 VINA RESULT:      -3.6      2.165      5.991
  Name = 
  6 active torsions:
  status: ('A' for Active; 'I' for Inactive)
    1  A    between atoms: C_3  and  C_7
    2  A    between atoms: C_9  and  C_14
    3  A    between atoms: C_10  and  N_13
    4  A    between atoms: C_11  and  C_22
    5  A    between atoms: C_12  and  C_15
    6  A    between atoms: C_14  and  C_18
                            x       y       z     vdW  Elec       q    Type
                         _______ _______ _______ _____ _____    ______ ____

>  <TORSDO>
F 6

$$$$
=
 OpenBabel11052423033D

 28 30  0  0  1  0  0  0  0  0999 V2000
  160.8320  203.4470  146.8390 O   0  0  0  0  0  0  0  0  0  0  0  0
  160.2540  205.7180  145.4220 C   0  0  0  0  0  1  0  0  0  0  0  0
  161.4020  205.7850  146.4250 C   0  0  1  0  0  0  0  0  0  0  0  0
  160.0270  200.9540  148.0900 C   0  0  0  0  0  2  0  0  0  0  0  0
  160.2850  206.5770  148.4250 C   0  0  0  0  0  2  0  0  0  0  0  0
  161.2000  204.7670  149.9230 C   0  0  2  0  0  3  0  0  0  0  0  0
  161.1800  207.0360  147.2860 C   0  0  1  0  0  3  0  0  0  0  0  0
  160.1940  202.4230  150.0830 C   0  0  0  0  0  2  0  0  0  0  0  0
  160.4870  205.0720  148.5950 C   0  0  2  0  0  3  0  0  0  0  0  0
  161.1730  201.0840  147.0900 C   0  0  0  0  0  2  0  0  0  0  0  0
  161.4620  203.2630  150.1450 C   0  0  0  0  0  2  0  0  0  0  0  0
  160.5080  201.0460  149.5290 C   0  0  0  0  0  2  0  0  0  0  0  0
  161.7990  202.4720  147.0980 C   0  0  0  0  0  2  0  0  0  0  0  0
  161.3430  204.6180  147.4150 C   0  0  1  0  0  3  0  0  0  0  0  0
  160.4550  205.3440  153.2640 C   0  0  0  0  0  2  0  0  0  0  0  0
  161.4030  206.5450  151.5060 C   0  0  1  0  0  3  0  0  0  0  0  0
  161.3720  206.5070  153.0030 C   0  0  2  0  0  3  0  0  0  0  0  0
  160.5580  205.4420  151.0620 N   0  0  2  0  0  0  0  0  0  0  0  0
  160.4170  204.5660  152.0990 O   0  0  0  0  0  0  0  0  0  0  0  0
  162.7420  206.2020  153.5140 C   0  0  0  0  0  3  0  0  0  0  0  0
  163.5480  205.6190  152.8070 O   0  0  0  0  0  0  0  0  0  0  0  0
  160.8320  207.8590  150.9950 C   0  0  0  0  0  2  0  0  0  0  0  0
  160.8340  208.8980  152.1000 C   0  0  0  0  0  2  0  0  0  0  0  0
  161.8890  209.9440  151.8050 C   0  0  0  0  0  1  0  0  0  0  0  0
  162.2070  209.0180  148.2690 N   0  0  0  0  0  1  0  0  0  0  0  0
  162.4470  207.6380  147.8870 C   0  0  0  0  0  2  0  0  0  0  0  0
  162.7070  205.7740  145.6180 C   0  0  0  0  0  2  0  0  0  0  0  0
  163.5510  204.7300  146.0070 O   0  0  0  0  0  1  0  0  0  0  0  0
  1 13  1  0  0  0  0
  3  2  1  6  0  0  0
  3  7  1  0  0  0  0
  3 14  1  0  0  0  0
  4 12  1  0  0  0  0
  6 11  1  1  0  0  0
  6 18  1  0  0  0  0
  7 26  1  1  0  0  0
  7  5  1  0  0  0  0
  8 11  1  0  0  0  0
  9  5  1  6  0  0  0
  9  6  1  0  0  0  0
 10 13  1  0  0  0  0
 10  4  1  0  0  0  0
 12  8  1  0  0  0  0
 14  1  1  6  0  0  0
 14  9  1  0  0  0  0
 16 22  1  6  0  0  0
 16 17  1  0  0  0  0
 17 15  1  0  0  0  0
 17 20  1  1  0  0  0
 18 16  1  0  0  0  0
 18 19  1  1  0  0  0
 19 15  1  0  0  0  0
 21 20  2  0  0  0  0
 22 23  1  0  0  0  0
 24 23  1  0  0  0  0
 26 25  1  0  0  0  0
 27 28  1  0  0  0  0
 27  3  1  0  0  0  0
M  END
>  <MODEL>
9

>  <REMARK>
 VINA RESULT:      -3.4      1.795      6.931
  Name = 
  6 active torsions:
  status: ('A' for Active; 'I' for Inactive)
    1  A    between atoms: C_3  and  C_7
    2  A    between atoms: C_9  and  C_14
    3  A    between atoms: C_10  and  N_13
    4  A    between atoms: C_11  and  C_22
    5  A    between atoms: C_12  and  C_15
    6  A    between atoms: C_14  and  C_18
                            x       y       z     vdW  Elec       q    Type
                         _______ _______ _______ _____ _____    ______ ____

>  <TORSDO>
F 6

$$$$
