=
 OpenBabel11052422533D

 28 30  0  0  1  0  0  0  0  0999 V2000
  161.0020  208.6260  153.2570 C   0  0  1  0  0  3  0  0  0  0  0  0
  160.3920  207.3060  156.5800 N   0  0  0  0  0  0  0  0  0  0  0  0
  160.9590  208.2580  154.7080 C   0  0  0  0  0  0  0  0  0  0  0  0
  161.5200  208.1690  156.8990 C   0  0  0  0  0  3  0  0  0  0  0  0
  160.1210  207.4230  155.2150 N   0  0  0  0  0  0  0  0  0  0  0  0
  161.8480  208.7550  155.6470 O   0  0  0  0  0  0  0  0  0  0  0  0
  162.7720  210.0500  152.4970 O   0  0  0  0  0  0  0  0  0  0  0  0
  160.9330  211.1660  153.3700 N   0  0  0  0  0  2  0  0  0  0  0  0
  161.6340  209.9670  153.0340 C   0  0  0  0  0  0  0  0  0  0  0  0
  159.6000  211.1620  153.9580 C   0  0  2  0  0  3  0  0  0  0  0  0
  157.3020  212.7880  154.4420 N   0  0  0  0  0  0  0  0  0  0  0  0
  158.5540  211.4160  152.8550 C   0  0  0  0  0  2  0  0  0  0  0  0
  160.1490  211.5560  156.3820 C   0  0  0  0  0  1  0  0  0  0  0  0
  159.5310  212.1530  155.1340 C   0  0  2  0  0  3  0  0  0  0  0  0
  158.1070  212.5410  155.4160 C   0  0  0  0  0  3  0  0  0  0  0  0
  157.7560  212.7060  153.0710 C   0  0  0  0  0  2  0  0  0  0  0  0
  161.6860  207.5590  152.4100 C   0  0  0  0  0  2  0  0  0  0  0  0
  160.9500  207.3490  151.0910 C   0  0  0  0  0  2  0  0  0  0  0  0
  161.0250  204.9570  151.7580 C   0  0  0  0  0  3  0  0  0  0  0  0
  160.7910  205.4510  149.3860 C   0  0  0  0  0  0  0  0  0  0  0  0
  160.9610  203.1520  150.1550 C   0  0  0  0  0  0  0  0  0  0  0  0
  160.9020  205.8980  150.7260 C   0  0  0  0  0  0  0  0  0  0  0  0
  160.8300  204.0780  149.1190 C   0  0  0  0  0  3  0  0  0  0  0  0
  161.0150  201.4410  149.7960 Cl  0  0  0  0  0  0  0  0  0  0  0  0
  161.0510  203.5910  151.4760 C   0  0  0  0  0  3  0  0  0  0  0  0
  160.6380  206.3140  148.2930 O   0  0  0  0  0  0  0  0  0  0  0  0
  160.6620  206.2470  146.1320 C   0  0  0  0  0  1  0  0  0  0  0  0
  161.4850  206.3310  147.2540 O   0  0  0  0  0  0  0  0  0  0  0  0
  1 17  1  6  0  0  0
  1  3  1  0  0  0  0
  2  4  2  0  0  0  0
  3  5  2  0  0  0  0
  3  6  1  0  0  0  0
  5  2  1  0  0  0  0
  6  4  1  0  0  0  0
  7  9  2  0  0  0  0
  9  1  1  0  0  0  0
  9  8  1  0  0  0  0
 10  8  1  6  0  0  0
 10 14  1  0  0  0  0
 11 15  2  0  0  0  0
 12 16  1  0  0  0  0
 12 10  1  0  0  0  0
 14 15  1  0  0  0  0
 14 13  1  1  0  0  0
 16 11  1  0  0  0  0
 18 17  1  0  0  0  0
 20 22  1  0  0  0  0
 21 25  2  0  0  0  0
 22 18  1  0  0  0  0
 22 19  2  0  0  0  0
 23 20  2  0  0  0  0
 23 21  1  0  0  0  0
 24 21  1  0  0  0  0
 25 19  1  0  0  0  0
 26 20  1  0  0  0  0
 27 28  1  0  0  0  0
 28 26  1  0  0  0  0
M  END
>  <MODEL>
1

>  <REMARK>
 VINA RESULT:      -7.4      0.000      0.000
  Name = 
  8 active torsions:
  status: ('A' for Active; 'I' for Inactive)
    1  A    between atoms: N_2  and  C_3
    2  A    between atoms: C_9  and  O_14
    3  A    between atoms: C_10  and  C_13
    4  A    between atoms: C_10  and  C_17
    5  A    between atoms: O_14  and  O_25
    6  A    between atoms: C_16  and  C_27
    7  A    between atoms: C_17  and  C_27
    8  A    between atoms: C_26  and  C_27
                            x       y       z     vdW  Elec       q    Type
                         _______ _______ _______ _____ _____    ______ ____

>  <TORSDO>
F 8

$$$$
=
 OpenBabel11052422533D

 28 30  0  0  1  0  0  0  0  0999 V2000
  161.3500  209.2510  151.8300 C   0  0  1  0  0  3  0  0  0  0  0  0
  162.2300  210.2840  148.4660 N   0  0  0  0  0  0  0  0  0  0  0  0
  161.7320  209.9380  150.5550 C   0  0  0  0  0  0  0  0  0  0  0  0
  162.2250  211.5960  149.0960 C   0  0  0  0  0  3  0  0  0  0  0  0
  161.9150  209.3290  149.4360 N   0  0  0  0  0  0  0  0  0  0  0  0
  161.8900  211.3100  150.4470 O   0  0  0  0  0  0  0  0  0  0  0  0
  159.5480  210.8140  152.0460 O   0  0  0  0  0  0  0  0  0  0  0  0
  160.3010  209.9150  154.0500 N   0  0  0  0  0  2  0  0  0  0  0  0
  160.3650  210.0510  152.6290 C   0  0  0  0  0  0  0  0  0  0  0  0
  161.1810  209.0270  154.7980 C   0  0  2  0  0  3  0  0  0  0  0  0
  161.4480  207.6050  157.2600 N   0  0  0  0  0  0  0  0  0  0  0  0
  160.4750  207.6760  155.0210 C   0  0  0  0  0  2  0  0  0  0  0  0
  162.7810  210.6870  155.8080 C   0  0  0  0  0  1  0  0  0  0  0  0
  161.6560  209.7120  156.0930 C   0  0  2  0  0  3  0  0  0  0  0  0
  162.1190  208.6910  157.0930 C   0  0  0  0  0  3  0  0  0  0  0  0
  160.2420  207.3580  156.5010 C   0  0  0  0  0  2  0  0  0  0  0  0
  160.8300  207.8380  151.5920 C   0  0  0  0  0  2  0  0  0  0  0  0
  161.9730  206.8290  151.5630 C   0  0  0  0  0  2  0  0  0  0  0  0
  161.4390  204.4450  152.0110 C   0  0  0  0  0  3  0  0  0  0  0  0
  161.1650  205.2430  149.7280 C   0  0  0  0  0  0  0  0  0  0  0  0
  160.7560  202.9110  150.2750 C   0  0  0  0  0  0  0  0  0  0  0  0
  161.4990  205.4920  151.0820 C   0  0  0  0  0  0  0  0  0  0  0  0
  160.8030  203.9470  149.3420 C   0  0  0  0  0  3  0  0  0  0  0  0
  160.3080  201.2970  149.7670 Cl  0  0  0  0  0  0  0  0  0  0  0  0
  161.0660  203.1600  151.6110 C   0  0  0  0  0  3  0  0  0  0  0  0
  161.1700  206.2310  148.7350 O   0  0  0  0  0  0  0  0  0  0  0  0
  161.8300  206.0400  146.6850 C   0  0  0  0  0  1  0  0  0  0  0  0
  162.2290  206.4700  147.9490 O   0  0  0  0  0  0  0  0  0  0  0  0
  1 17  1  6  0  0  0
  1  9  1  0  0  0  0
  2  4  2  0  0  0  0
  2  5  1  0  0  0  0
  3  1  1  0  0  0  0
  4  6  1  0  0  0  0
  5  3  2  0  0  0  0
  6  3  1  0  0  0  0
  7  9  2  0  0  0  0
  9  8  1  0  0  0  0
 10  8  1  1  0  0  0
 10 12  1  0  0  0  0
 10 14  1  0  0  0  0
 12 16  1  0  0  0  0
 14 13  1  6  0  0  0
 14 15  1  0  0  0  0
 15 11  2  0  0  0  0
 16 11  1  0  0  0  0
 18 17  1  0  0  0  0
 20 22  1  0  0  0  0
 21 25  2  0  0  0  0
 22 18  1  0  0  0  0
 22 19  2  0  0  0  0
 23 20  2  0  0  0  0
 23 21  1  0  0  0  0
 24 21  1  0  0  0  0
 25 19  1  0  0  0  0
 26 20  1  0  0  0  0
 27 28  1  0  0  0  0
 28 26  1  0  0  0  0
M  END
>  <MODEL>
2

>  <REMARK>
 VINA RESULT:      -7.2      2.144      4.027
  Name = 
  8 active torsions:
  status: ('A' for Active; 'I' for Inactive)
    1  A    between atoms: N_2  and  C_3
    2  A    between atoms: C_9  and  O_14
    3  A    between atoms: C_10  and  C_13
    4  A    between atoms: C_10  and  C_17
    5  A    between atoms: O_14  and  O_25
    6  A    between atoms: C_16  and  C_27
    7  A    between atoms: C_17  and  C_27
    8  A    between atoms: C_26  and  C_27
                            x       y       z     vdW  Elec       q    Type
                         _______ _______ _______ _____ _____    ______ ____

>  <TORSDO>
F 8

$$$$
=
 OpenBabel11052422533D

 28 30  0  0  1  0  0  0  0  0999 V2000
  160.7140  208.9160  153.8820 C   0  0  1  0  0  3  0  0  0  0  0  0
  161.2960  207.7310  157.2610 N   0  0  0  0  0  0  0  0  0  0  0  0
  160.7300  208.2580  155.2280 C   0  0  0  0  0  0  0  0  0  0  0  0
  160.0950  206.9620  156.9710 C   0  0  0  0  0  3  0  0  0  0  0  0
  161.6090  208.4990  156.1360 N   0  0  0  0  0  0  0  0  0  0  0  0
  159.7710  207.3490  155.6430 O   0  0  0  0  0  0  0  0  0  0  0  0
  162.6230  210.3620  153.9320 O   0  0  0  0  0  0  0  0  0  0  0  0
  160.5780  211.4560  153.8430 N   0  0  0  0  0  2  0  0  0  0  0  0
  161.3670  210.2660  153.9070 C   0  0  0  0  0  0  0  0  0  0  0  0
  159.1220  211.4340  153.7720 C   0  0  2  0  0  3  0  0  0  0  0  0
  156.8070  213.1030  153.6710 N   0  0  0  0  0  0  0  0  0  0  0  0
  158.6650  212.0870  152.4530 C   0  0  0  0  0  2  0  0  0  0  0  0
  158.5350  211.0970  156.1960 C   0  0  0  0  0  1  0  0  0  0  0  0
  158.5160  212.0720  155.0360 C   0  0  2  0  0  3  0  0  0  0  0  0
  157.1050  212.5180  154.7790 C   0  0  0  0  0  3  0  0  0  0  0  0
  157.8210  213.3470  152.6690 C   0  0  0  0  0  2  0  0  0  0  0  0
  161.3340  208.0380  152.8010 C   0  0  0  0  0  2  0  0  0  0  0  0
  161.2430  208.7040  151.4330 C   0  0  0  0  0  2  0  0  0  0  0  0
  160.8130  206.3990  150.6130 C   0  0  0  0  0  3  0  0  0  0  0  0
  161.8380  207.9660  149.0580 C   0  0  0  0  0  0  0  0  0  0  0  0
  161.4440  205.6590  148.4020 C   0  0  0  0  0  0  0  0  0  0  0  0
  161.2890  207.6870  150.3340 C   0  0  0  0  0  0  0  0  0  0  0  0
  161.9140  206.9410  148.1090 C   0  0  0  0  0  3  0  0  0  0  0  0
  161.5570  204.3920  147.2010 Cl  0  0  0  0  0  0  0  0  0  0  0  0
  160.8860  205.3900  149.6510 C   0  0  0  0  0  3  0  0  0  0  0  0
  162.3140  209.2280  148.6790 O   0  0  0  0  0  0  0  0  0  0  0  0
  162.1760  211.3800  148.5320 C   0  0  0  0  0  1  0  0  0  0  0  0
  161.5160  210.1970  148.2080 O   0  0  0  0  0  0  0  0  0  0  0  0
  1 17  1  6  0  0  0
  1  9  1  0  0  0  0
  1  3  1  0  0  0  0
  3  6  1  0  0  0  0
  3  5  2  0  0  0  0
  4  2  2  0  0  0  0
  5  2  1  0  0  0  0
  6  4  1  0  0  0  0
  8  9  1  0  0  0  0
  9  7  2  0  0  0  0
 10  8  1  1  0  0  0
 10 14  1  0  0  0  0
 11 15  2  0  0  0  0
 12 16  1  0  0  0  0
 12 10  1  0  0  0  0
 14 13  1  1  0  0  0
 15 14  1  0  0  0  0
 16 11  1  0  0  0  0
 18 17  1  0  0  0  0
 20 22  2  0  0  0  0
 21 25  1  0  0  0  0
 22 19  1  0  0  0  0
 22 18  1  0  0  0  0
 23 21  2  0  0  0  0
 23 20  1  0  0  0  0
 24 21  1  0  0  0  0
 25 19  2  0  0  0  0
 26 20  1  0  0  0  0
 28 27  1  0  0  0  0
 28 26  1  0  0  0  0
M  END
>  <MODEL>
3

>  <REMARK>
 VINA RESULT:      -6.9      1.953      2.304
  Name = 
  8 active torsions:
  status: ('A' for Active; 'I' for Inactive)
    1  A    between atoms: N_2  and  C_3
    2  A    between atoms: C_9  and  O_14
    3  A    between atoms: C_10  and  C_13
    4  A    between atoms: C_10  and  C_17
    5  A    between atoms: O_14  and  O_25
    6  A    between atoms: C_16  and  C_27
    7  A    between atoms: C_17  and  C_27
    8  A    between atoms: C_26  and  C_27
                            x       y       z     vdW  Elec       q    Type
                         _______ _______ _______ _____ _____    ______ ____

>  <TORSDO>
F 8

$$$$
=
 OpenBabel11052422533D

 28 30  0  0  1  0  0  0  0  0999 V2000
  161.0080  208.7590  153.2750 C   0  0  1  0  0  3  0  0  0  0  0  0
  160.3560  207.0850  156.4260 N   0  0  0  0  0  0  0  0  0  0  0  0
  160.9380  208.2440  154.6790 C   0  0  0  0  0  0  0  0  0  0  0  0
  161.4380  207.9540  156.8680 C   0  0  0  0  0  3  0  0  0  0  0  0
  160.1210  207.3300  155.0710 N   0  0  0  0  0  0  0  0  0  0  0  0
  161.7770  208.6770  155.6930 O   0  0  0  0  0  0  0  0  0  0  0  0
  162.8430  210.2590  152.9280 O   0  0  0  0  0  0  0  0  0  0  0  0
  160.8170  211.2930  153.3930 N   0  0  0  0  0  2  0  0  0  0  0  0
  161.6210  210.1260  153.2060 C   0  0  0  0  0  0  0  0  0  0  0  0
  159.3890  211.2300  153.6780 C   0  0  2  0  0  3  0  0  0  0  0  0
  157.0460  212.8280  154.0130 N   0  0  0  0  0  0  0  0  0  0  0  0
  158.6020  211.7590  152.4630 C   0  0  0  0  0  2  0  0  0  0  0  0
  159.4130  211.0830  156.1900 C   0  0  0  0  0  1  0  0  0  0  0  0
  159.0750  211.9570  154.9980 C   0  0  2  0  0  3  0  0  0  0  0  0
  157.6250  212.3450  155.0570 C   0  0  0  0  0  3  0  0  0  0  0  0
  157.7790  213.0110  152.7800 C   0  0  0  0  0  2  0  0  0  0  0  0
  161.7310  207.7960  152.3410 C   0  0  0  0  0  2  0  0  0  0  0  0
  160.7500  206.8450  151.6650 C   0  0  0  0  0  2  0  0  0  0  0  0
  161.8190  207.5500  149.5360 C   0  0  0  0  0  3  0  0  0  0  0  0
  160.9080  205.2940  149.6380 C   0  0  0  0  0  0  0  0  0  0  0  0
  161.9030  206.1300  147.5840 C   0  0  0  0  0  0  0  0  0  0  0  0
  161.1760  206.5380  150.2620 C   0  0  0  0  0  0  0  0  0  0  0  0
  161.2710  205.1110  148.2990 C   0  0  0  0  0  3  0  0  0  0  0  0
  162.3410  205.8800  145.9080 Cl  0  0  0  0  0  0  0  0  0  0  0  0
  162.1840  207.3470  148.2040 C   0  0  0  0  0  3  0  0  0  0  0  0
  160.2950  204.2170  150.2900 O   0  0  0  0  0  0  0  0  0  0  0  0
  161.3360  202.9500  151.6990 C   0  0  0  0  0  1  0  0  0  0  0  0
  160.8620  203.0070  150.3900 O   0  0  0  0  0  0  0  0  0  0  0  0
  1 17  1  6  0  0  0
  1  3  1  0  0  0  0
  2  4  2  0  0  0  0
  3  5  2  0  0  0  0
  3  6  1  0  0  0  0
  5  2  1  0  0  0  0
  6  4  1  0  0  0  0
  7  9  2  0  0  0  0
  9  1  1  0  0  0  0
  9  8  1  0  0  0  0
 10  8  1  6  0  0  0
 10 14  1  0  0  0  0
 11 15  2  0  0  0  0
 12 16  1  0  0  0  0
 12 10  1  0  0  0  0
 14 15  1  0  0  0  0
 14 13  1  1  0  0  0
 16 11  1  0  0  0  0
 18 17  1  0  0  0  0
 19 22  1  0  0  0  0
 20 22  2  0  0  0  0
 20 26  1  0  0  0  0
 21 25  1  0  0  0  0
 21 23  2  0  0  0  0
 22 18  1  0  0  0  0
 23 20  1  0  0  0  0
 24 21  1  0  0  0  0
 25 19  2  0  0  0  0
 26 28  1  0  0  0  0
 28 27  1  0  0  0  0
M  END
>  <MODEL>
4

>  <REMARK>
 VINA RESULT:      -6.8      1.697      2.461
  Name = 
  8 active torsions:
  status: ('A' for Active; 'I' for Inactive)
    1  A    between atoms: N_2  and  C_3
    2  A    between atoms: C_9  and  O_14
    3  A    between atoms: C_10  and  C_13
    4  A    between atoms: C_10  and  C_17
    5  A    between atoms: O_14  and  O_25
    6  A    between atoms: C_16  and  C_27
    7  A    between atoms: C_17  and  C_27
    8  A    between atoms: C_26  and  C_27
                            x       y       z     vdW  Elec       q    Type
                         _______ _______ _______ _____ _____    ______ ____

>  <TORSDO>
F 8

$$$$
=
 OpenBabel11052422533D

 28 30  0  0  1  0  0  0  0  0999 V2000
  160.8790  208.6320  151.7730 C   0  0  1  0  0  3  0  0  0  0  0  0
  161.5810  205.9350  154.0950 N   0  0  0  0  0  0  0  0  0  0  0  0
  160.9550  207.6310  152.8840 C   0  0  0  0  0  0  0  0  0  0  0  0
  160.5400  206.6070  154.8590 C   0  0  0  0  0  3  0  0  0  0  0  0
  161.7700  206.6340  152.9000 N   0  0  0  0  0  0  0  0  0  0  0  0
  160.1770  207.7010  154.0280 O   0  0  0  0  0  0  0  0  0  0  0  0
  162.8680  209.9530  151.5860 O   0  0  0  0  0  0  0  0  0  0  0  0
  161.1600  210.9370  152.8120 N   0  0  0  0  0  2  0  0  0  0  0  0
  161.7040  209.8520  152.0570 C   0  0  0  0  0  0  0  0  0  0  0  0
  159.8100  210.9190  153.3590 C   0  0  2  0  0  3  0  0  0  0  0  0
  157.7010  212.5900  154.3180 N   0  0  0  0  0  0  0  0  0  0  0  0
  158.8540  211.6380  152.3860 C   0  0  0  0  0  2  0  0  0  0  0  0
  160.2880  210.4590  155.7870 C   0  0  0  0  0  1  0  0  0  0  0  0
  159.8040  211.4920  154.7880 C   0  0  2  0  0  3  0  0  0  0  0  0
  158.4250  211.9500  155.1690 C   0  0  0  0  0  3  0  0  0  0  0  0
  158.2060  212.8850  152.9950 C   0  0  0  0  0  2  0  0  0  0  0  0
  161.2540  208.0300  150.4240 C   0  0  0  0  0  2  0  0  0  0  0  0
  160.4570  206.7600  150.1490 C   0  0  0  0  0  2  0  0  0  0  0  0
  161.3540  206.7740  147.8330 C   0  0  0  0  0  3  0  0  0  0  0  0
  161.1320  204.6140  148.9330 C   0  0  0  0  0  0  0  0  0  0  0  0
  161.9170  204.7530  146.6370 C   0  0  0  0  0  0  0  0  0  0  0  0
  161.0050  206.0260  148.9640 C   0  0  0  0  0  0  0  0  0  0  0  0
  161.5810  203.9960  147.7600 C   0  0  0  0  0  3  0  0  0  0  0  0
  162.4700  203.9570  145.1800 Cl  0  0  0  0  0  0  0  0  0  0  0  0
  161.8110  206.1430  146.6750 C   0  0  0  0  0  3  0  0  0  0  0  0
  160.8330  203.7860  150.0210 O   0  0  0  0  0  0  0  0  0  0  0  0
  160.8310  203.0840  152.0660 C   0  0  0  0  0  1  0  0  0  0  0  0
  161.6360  203.6650  151.0880 O   0  0  0  0  0  0  0  0  0  0  0  0
  1 17  1  6  0  0  0
  1  9  1  0  0  0  0
  1  3  1  0  0  0  0
  2  4  2  0  0  0  0
  3  5  2  0  0  0  0
  3  6  1  0  0  0  0
  5  2  1  0  0  0  0
  6  4  1  0  0  0  0
  7  9  2  0  0  0  0
  9  8  1  0  0  0  0
 10  8  1  6  0  0  0
 10 14  1  0  0  0  0
 11 15  2  0  0  0  0
 12 16  1  0  0  0  0
 12 10  1  0  0  0  0
 14 15  1  0  0  0  0
 14 13  1  1  0  0  0
 16 11  1  0  0  0  0
 18 17  1  0  0  0  0
 19 22  1  0  0  0  0
 20 22  2  0  0  0  0
 20 26  1  0  0  0  0
 21 25  1  0  0  0  0
 21 23  2  0  0  0  0
 22 18  1  0  0  0  0
 23 20  1  0  0  0  0
 24 21  1  0  0  0  0
 25 19  2  0  0  0  0
 26 28  1  0  0  0  0
 28 27  1  0  0  0  0
M  END
>  <MODEL>
5

>  <REMARK>
 VINA RESULT:      -6.6      1.953      2.853
  Name = 
  8 active torsions:
  status: ('A' for Active; 'I' for Inactive)
    1  A    between atoms: N_2  and  C_3
    2  A    between atoms: C_9  and  O_14
    3  A    between atoms: C_10  and  C_13
    4  A    between atoms: C_10  and  C_17
    5  A    between atoms: O_14  and  O_25
    6  A    between atoms: C_16  and  C_27
    7  A    between atoms: C_17  and  C_27
    8  A    between atoms: C_26  and  C_27
                            x       y       z     vdW  Elec       q    Type
                         _______ _______ _______ _____ _____    ______ ____

>  <TORSDO>
F 8

$$$$
=
 OpenBabel11052422533D

 28 30  0  0  1  0  0  0  0  0999 V2000
  160.8220  209.6670  151.6220 C   0  0  1  0  0  3  0  0  0  0  0  0
  158.9820  210.9960  154.4510 N   0  0  0  0  0  0  0  0  0  0  0  0
  160.2330  210.0480  152.9450 C   0  0  0  0  0  0  0  0  0  0  0  0
  159.8280  210.0560  155.1720 C   0  0  0  0  0  3  0  0  0  0  0  0
  159.2980  210.9200  153.0920 N   0  0  0  0  0  0  0  0  0  0  0  0
  160.6130  209.4680  154.1440 O   0  0  0  0  0  0  0  0  0  0  0  0
  163.1410  210.0850  152.0540 O   0  0  0  0  0  0  0  0  0  0  0  0
  162.2450  211.3060  150.2950 N   0  0  0  0  0  2  0  0  0  0  0  0
  162.1240  210.3650  151.3630 C   0  0  0  0  0  0  0  0  0  0  0  0
  161.1310  211.6570  149.4230 C   0  0  2  0  0  3  0  0  0  0  0  0
  160.3720  213.3230  147.2300 N   0  0  0  0  0  0  0  0  0  0  0  0
  161.4780  211.2740  147.9710 C   0  0  0  0  0  2  0  0  0  0  0  0
  159.9110  213.3240  150.8600 C   0  0  0  0  0  1  0  0  0  0  0  0
  160.7500  213.1370  149.6120 C   0  0  2  0  0  3  0  0  0  0  0  0
  159.9930  213.6450  148.4180 C   0  0  0  0  0  3  0  0  0  0  0  0
  161.5310  212.4810  147.0290 C   0  0  0  0  0  2  0  0  0  0  0  0
  160.9790  208.1590  151.4700 C   0  0  0  0  0  2  0  0  0  0  0  0
  161.2950  207.7810  150.0280 C   0  0  0  0  0  2  0  0  0  0  0  0
  160.9750  205.4900  150.9340 C   0  0  0  0  0  3  0  0  0  0  0  0
  161.1710  205.7210  148.5180 C   0  0  0  0  0  0  0  0  0  0  0  0
  160.9390  203.5240  149.5320 C   0  0  0  0  0  0  0  0  0  0  0  0
  161.1280  206.3090  149.8070 C   0  0  0  0  0  0  0  0  0  0  0  0
  161.0820  204.3300  148.4010 C   0  0  0  0  0  3  0  0  0  0  0  0
  160.8380  201.7860  149.3590 Cl  0  0  0  0  0  0  0  0  0  0  0  0
  160.8780  204.1050  150.7980 C   0  0  0  0  0  3  0  0  0  0  0  0
  161.2940  206.4590  147.3340 O   0  0  0  0  0  0  0  0  0  0  0  0
  160.4170  206.1710  145.3790 C   0  0  0  0  0  1  0  0  0  0  0  0
  161.5470  205.8940  146.1460 O   0  0  0  0  0  0  0  0  0  0  0  0
  1 17  1  1  0  0  0
  1  3  1  0  0  0  0
  2  4  2  0  0  0  0
  3  5  2  0  0  0  0
  3  6  1  0  0  0  0
  5  2  1  0  0  0  0
  6  4  1  0  0  0  0
  8  9  1  0  0  0  0
  9  1  1  0  0  0  0
  9  7  2  0  0  0  0
 10 14  1  0  0  0  0
 10  8  1  1  0  0  0
 11 15  2  0  0  0  0
 12 10  1  0  0  0  0
 14 13  1  1  0  0  0
 15 14  1  0  0  0  0
 16 11  1  0  0  0  0
 16 12  1  0  0  0  0
 18 17  1  0  0  0  0
 20 22  1  0  0  0  0
 21 25  2  0  0  0  0
 22 18  1  0  0  0  0
 22 19  2  0  0  0  0
 23 20  2  0  0  0  0
 23 21  1  0  0  0  0
 24 21  1  0  0  0  0
 25 19  1  0  0  0  0
 26 20  1  0  0  0  0
 27 28  1  0  0  0  0
 28 26  1  0  0  0  0
M  END
>  <MODEL>
6

>  <REMARK>
 VINA RESULT:      -6.4      2.817      3.669
  Name = 
  8 active torsions:
  status: ('A' for Active; 'I' for Inactive)
    1  A    between atoms: N_2  and  C_3
    2  A    between atoms: C_9  and  O_14
    3  A    between atoms: C_10  and  C_13
    4  A    between atoms: C_10  and  C_17
    5  A    between atoms: O_14  and  O_25
    6  A    between atoms: C_16  and  C_27
    7  A    between atoms: C_17  and  C_27
    8  A    between atoms: C_26  and  C_27
                            x       y       z     vdW  Elec       q    Type
                         _______ _______ _______ _____ _____    ______ ____

>  <TORSDO>
F 8

$$$$
=
 OpenBabel11052422533D

 28 30  0  0  1  0  0  0  0  0999 V2000
  161.1110  206.7850  151.6340 C   0  0  1  0  0  3  0  0  0  0  0  0
  160.8310  206.2010  155.2030 N   0  0  0  0  0  0  0  0  0  0  0  0
  160.8950  206.8110  153.1160 C   0  0  0  0  0  0  0  0  0  0  0  0
  160.4120  207.5950  155.1830 C   0  0  0  0  0  3  0  0  0  0  0  0
  161.1100  205.8070  153.8920 N   0  0  0  0  0  0  0  0  0  0  0  0
  160.4780  207.9370  153.8060 O   0  0  0  0  0  0  0  0  0  0  0  0
  163.4420  206.2430  151.5400 O   0  0  0  0  0  0  0  0  0  0  0  0
  162.8740  208.2650  150.5500 N   0  0  0  0  0  2  0  0  0  0  0  0
  162.5350  207.0750  151.2660 C   0  0  0  0  0  0  0  0  0  0  0  0
  161.8820  209.2590  150.1600 C   0  0  2  0  0  3  0  0  0  0  0  0
  161.5690  211.8640  149.0300 N   0  0  0  0  0  0  0  0  0  0  0  0
  161.9560  209.4840  148.6370 C   0  0  0  0  0  2  0  0  0  0  0  0
  161.4360  210.3760  152.3700 C   0  0  0  0  0  1  0  0  0  0  0  0
  162.0530  210.5410  150.9960 C   0  0  2  0  0  3  0  0  0  0  0  0
  161.4230  211.7140  150.3010 C   0  0  0  0  0  3  0  0  0  0  0  0
  162.3460  210.9170  148.2600 C   0  0  0  0  0  2  0  0  0  0  0  0
  160.6470  205.4770  151.0040 C   0  0  0  0  0  2  0  0  0  0  0  0
  160.7080  205.5470  149.4830 C   0  0  0  0  0  2  0  0  0  0  0  0
  160.4690  203.0810  149.6640 C   0  0  0  0  0  3  0  0  0  0  0  0
  161.4110  203.9650  147.6000 C   0  0  0  0  0  0  0  0  0  0  0  0
  161.2040  201.5660  147.9320 C   0  0  0  0  0  0  0  0  0  0  0  0
  160.8550  204.1810  148.8860 C   0  0  0  0  0  0  0  0  0  0  0  0
  161.5840  202.6540  147.1440 C   0  0  0  0  0  3  0  0  0  0  0  0
  161.4390  199.9360  147.3420 Cl  0  0  0  0  0  0  0  0  0  0  0  0
  160.6390  201.7790  149.1890 C   0  0  0  0  0  3  0  0  0  0  0  0
  161.8000  205.0010  146.7420 O   0  0  0  0  0  0  0  0  0  0  0  0
  160.4520  206.1310  145.4850 C   0  0  0  0  0  1  0  0  0  0  0  0
  161.3810  205.0920  145.4720 O   0  0  0  0  0  0  0  0  0  0  0  0
  1 17  1  1  0  0  0
  1  3  1  0  0  0  0
  3  6  1  0  0  0  0
  3  5  2  0  0  0  0
  4  2  2  0  0  0  0
  5  2  1  0  0  0  0
  6  4  1  0  0  0  0
  8  9  1  0  0  0  0
  9  7  2  0  0  0  0
  9  1  1  0  0  0  0
 10  8  1  1  0  0  0
 10 14  1  0  0  0  0
 11 15  2  0  0  0  0
 12 10  1  0  0  0  0
 14 13  1  1  0  0  0
 15 14  1  0  0  0  0
 16 12  1  0  0  0  0
 16 11  1  0  0  0  0
 18 17  1  0  0  0  0
 20 22  1  0  0  0  0
 21 25  2  0  0  0  0
 22 18  1  0  0  0  0
 22 19  2  0  0  0  0
 23 20  2  0  0  0  0
 23 21  1  0  0  0  0
 24 21  1  0  0  0  0
 25 19  1  0  0  0  0
 26 20  1  0  0  0  0
 28 27  1  0  0  0  0
 28 26  1  0  0  0  0
M  END
>  <MODEL>
7

>  <REMARK>
 VINA RESULT:      -6.4      2.784      3.726
  Name = 
  8 active torsions:
  status: ('A' for Active; 'I' for Inactive)
    1  A    between atoms: N_2  and  C_3
    2  A    between atoms: C_9  and  O_14
    3  A    between atoms: C_10  and  C_13
    4  A    between atoms: C_10  and  C_17
    5  A    between atoms: O_14  and  O_25
    6  A    between atoms: C_16  and  C_27
    7  A    between atoms: C_17  and  C_27
    8  A    between atoms: C_26  and  C_27
                            x       y       z     vdW  Elec       q    Type
                         _______ _______ _______ _____ _____    ______ ____

>  <TORSDO>
F 8

$$$$
=
 OpenBabel11052422533D

 28 30  0  0  1  0  0  0  0  0999 V2000
  160.8290  206.4490  150.8510 C   0  0  1  0  0  3  0  0  0  0  0  0
  160.6240  203.1690  152.3860 N   0  0  0  0  0  0  0  0  0  0  0  0
  161.0210  205.0760  151.4180 C   0  0  0  0  0  0  0  0  0  0  0  0
  162.0080  203.1070  151.9390 C   0  0  0  0  0  3  0  0  0  0  0  0
  160.0980  204.4100  152.0200 N   0  0  0  0  0  0  0  0  0  0  0  0
  162.2070  204.3680  151.3150 O   0  0  0  0  0  0  0  0  0  0  0  0
  163.0670  207.1700  150.3940 O   0  0  0  0  0  0  0  0  0  0  0  0
  161.9720  208.3860  152.0410 N   0  0  0  0  0  2  0  0  0  0  0  0
  162.0230  207.3260  151.0820 C   0  0  0  0  0  0  0  0  0  0  0  0
  160.7910  208.6600  152.8500 C   0  0  2  0  0  3  0  0  0  0  0  0
  159.7800  210.3280  154.9370 N   0  0  0  0  0  0  0  0  0  0  0  0
  160.2940  210.0900  152.5610 C   0  0  0  0  0  2  0  0  0  0  0  0
  161.0190  206.8990  154.6330 C   0  0  0  0  0  1  0  0  0  0  0  0
  161.0860  208.3840  154.3360 C   0  0  2  0  0  3  0  0  0  0  0  0
  160.1110  209.1150  155.2140 C   0  0  0  0  0  3  0  0  0  0  0  0
  160.3450  211.0030  153.7890 C   0  0  0  0  0  2  0  0  0  0  0  0
  160.4610  206.4180  149.3720 C   0  0  0  0  0  2  0  0  0  0  0  0
  160.7560  205.0540  148.7610 C   0  0  0  0  0  2  0  0  0  0  0  0
  160.6920  206.3800  146.6610 C   0  0  0  0  0  3  0  0  0  0  0  0
  161.4840  204.0830  146.5100 C   0  0  0  0  0  0  0  0  0  0  0  0
  161.2950  205.4550  144.5130 C   0  0  0  0  0  0  0  0  0  0  0  0
  161.0030  205.1650  147.2880 C   0  0  0  0  0  0  0  0  0  0  0  0
  161.6160  204.2430  145.1260 C   0  0  0  0  0  3  0  0  0  0  0  0
  161.4620  205.6280  142.7800 Cl  0  0  0  0  0  0  0  0  0  0  0  0
  160.8400  206.5260  145.2810 C   0  0  0  0  0  3  0  0  0  0  0  0
  161.8450  202.8420  147.0500 O   0  0  0  0  0  0  0  0  0  0  0  0
  160.8350  201.4520  148.3620 C   0  0  0  0  0  1  0  0  0  0  0  0
  161.0390  201.7710  147.0210 O   0  0  0  0  0  0  0  0  0  0  0  0
  1 17  1  6  0  0  0
  1  9  1  0  0  0  0
  1  3  1  0  0  0  0
  3  5  2  0  0  0  0
  4  2  2  0  0  0  0
  5  2  1  0  0  0  0
  6  3  1  0  0  0  0
  6  4  1  0  0  0  0
  7  9  2  0  0  0  0
  9  8  1  0  0  0  0
 10  8  1  6  0  0  0
 10 14  1  0  0  0  0
 11 15  2  0  0  0  0
 12 10  1  0  0  0  0
 12 16  1  0  0  0  0
 14 13  1  6  0  0  0
 14 15  1  0  0  0  0
 16 11  1  0  0  0  0
 18 17  1  0  0  0  0
 19 22  1  0  0  0  0
 20 26  1  0  0  0  0
 20 22  2  0  0  0  0
 21 23  2  0  0  0  0
 21 25  1  0  0  0  0
 22 18  1  0  0  0  0
 23 20  1  0  0  0  0
 24 21  1  0  0  0  0
 25 19  2  0  0  0  0
 28 26  1  0  0  0  0
 28 27  1  0  0  0  0
M  END
>  <MODEL>
8

>  <REMARK>
 VINA RESULT:      -6.1      2.850      4.664
  Name = 
  8 active torsions:
  status: ('A' for Active; 'I' for Inactive)
    1  A    between atoms: N_2  and  C_3
    2  A    between atoms: C_9  and  O_14
    3  A    between atoms: C_10  and  C_13
    4  A    between atoms: C_10  and  C_17
    5  A    between atoms: O_14  and  O_25
    6  A    between atoms: C_16  and  C_27
    7  A    between atoms: C_17  and  C_27
    8  A    between atoms: C_26  and  C_27
                            x       y       z     vdW  Elec       q    Type
                         _______ _______ _______ _____ _____    ______ ____

>  <TORSDO>
F 8

$$$$
=
 OpenBabel11052422533D

 28 30  0  0  1  0  0  0  0  0999 V2000
  162.0140  207.6050  148.9870 C   0  0  1  0  0  3  0  0  0  0  0  0
  162.2000  211.1730  149.6120 N   0  0  0  0  0  0  0  0  0  0  0  0
  161.9690  209.1020  148.9880 C   0  0  0  0  0  0  0  0  0  0  0  0
  161.6590  211.2230  148.2620 C   0  0  0  0  0  3  0  0  0  0  0  0
  162.3600  209.8330  149.9730 N   0  0  0  0  0  0  0  0  0  0  0  0
  161.5360  209.8520  147.9080 O   0  0  0  0  0  0  0  0  0  0  0  0
  159.9090  206.5540  148.5390 O   0  0  0  0  0  0  0  0  0  0  0  0
  160.3750  206.8740  150.7900 N   0  0  0  0  0  2  0  0  0  0  0  0
  160.7060  207.0020  149.4060 C   0  0  0  0  0  0  0  0  0  0  0  0
  161.2560  207.3290  151.8580 C   0  0  2  0  0  3  0  0  0  0  0  0
  161.6870  207.2200  154.6790 N   0  0  0  0  0  0  0  0  0  0  0  0
  161.9330  206.1110  152.5160 C   0  0  0  0  0  2  0  0  0  0  0  0
  160.3340  209.6320  152.2830 C   0  0  0  0  0  1  0  0  0  0  0  0
  160.4850  208.2300  152.8400 C   0  0  2  0  0  3  0  0  0  0  0  0
  161.1880  208.2900  154.1660 C   0  0  0  0  0  3  0  0  0  0  0  0
  161.5700  205.9500  153.9960 C   0  0  0  0  0  2  0  0  0  0  0  0
  162.4630  207.0400  147.6450 C   0  0  0  0  0  2  0  0  0  0  0  0
  163.1490  205.6900  147.8190 C   0  0  0  0  0  2  0  0  0  0  0  0
  162.3260  204.6230  145.7320 C   0  0  0  0  0  3  0  0  0  0  0  0
  161.6750  203.6000  147.8420 C   0  0  0  0  0  0  0  0  0  0  0  0
  160.8650  202.7000  145.7350 C   0  0  0  0  0  0  0  0  0  0  0  0
  162.3810  204.6030  147.1320 C   0  0  0  0  0  0  0  0  0  0  0  0
  160.9190  202.6640  147.1290 C   0  0  0  0  0  3  0  0  0  0  0  0
  159.9060  201.5220  144.8660 Cl  0  0  0  0  0  0  0  0  0  0  0  0
  161.5760  203.6750  145.0350 C   0  0  0  0  0  3  0  0  0  0  0  0
  161.6920  203.4840  149.2380 O   0  0  0  0  0  0  0  0  0  0  0  0
  160.9040  202.8470  151.1480 C   0  0  0  0  0  1  0  0  0  0  0  0
  160.5830  203.5510  149.9890 O   0  0  0  0  0  0  0  0  0  0  0  0
  1 17  1  6  0  0  0
  1  3  1  0  0  0  0
  1  9  1  0  0  0  0
  2  5  1  0  0  0  0
  3  5  2  0  0  0  0
  4  2  2  0  0  0  0
  6  4  1  0  0  0  0
  6  3  1  0  0  0  0
  7  9  2  0  0  0  0
  9  8  1  0  0  0  0
 10  8  1  6  0  0  0
 10 12  1  0  0  0  0
 10 14  1  0  0  0  0
 12 16  1  0  0  0  0
 14 13  1  6  0  0  0
 14 15  1  0  0  0  0
 15 11  2  0  0  0  0
 16 11  1  0  0  0  0
 17 18  1  0  0  0  0
 19 22  1  0  0  0  0
 20 26  1  0  0  0  0
 21 23  2  0  0  0  0
 22 18  1  0  0  0  0
 22 20  2  0  0  0  0
 23 20  1  0  0  0  0
 24 21  1  0  0  0  0
 25 19  2  0  0  0  0
 25 21  1  0  0  0  0
 26 28  1  0  0  0  0
 28 27  1  0  0  0  0
M  END
>  <MODEL>
9

>  <REMARK>
 VINA RESULT:      -5.8      3.272      5.646
  Name = 
  8 active torsions:
  status: ('A' for Active; 'I' for Inactive)
    1  A    between atoms: N_2  and  C_3
    2  A    between atoms: C_9  and  O_14
    3  A    between atoms: C_10  and  C_13
    4  A    between atoms: C_10  and  C_17
    5  A    between atoms: O_14  and  O_25
    6  A    between atoms: C_16  and  C_27
    7  A    between atoms: C_17  and  C_27
    8  A    between atoms: C_26  and  C_27
                            x       y       z     vdW  Elec       q    Type
                         _______ _______ _______ _____ _____    ______ ____

>  <TORSDO>
F 8

$$$$
