=
 OpenBabel11062410293D

 43 48  0  0  1  0  0  0  0  0999 V2000
  159.3380  213.5730  151.8530 C   0  0  2  0  0  3  0  0  0  0  0  0
  156.0000  213.0430  156.6250 C   0  0  0  0  0  0  0  0  0  0  0  0
  159.0580  210.1210  154.0980 C   0  0  2  0  0  3  0  0  0  0  0  0
  160.6330  211.3580  152.5610 C   0  0  2  0  0  3  0  0  0  0  0  0
  158.2970  213.1950  156.3230 C   0  0  0  0  0  2  0  0  0  0  0  0
  155.9720  211.5910  156.1620 C   0  0  0  0  0  2  0  0  0  0  0  0
  155.0900  213.8060  156.3020 O   0  0  0  0  0  0  0  0  0  0  0  0
  158.0390  211.0100  154.7840 C   0  0  2  0  0  3  0  0  0  0  0  0
  157.2110  213.5620  157.2560 C   0  0  0  0  0  2  0  0  0  0  0  0
  156.5530  211.3710  154.7510 C   0  0  0  0  0  2  0  0  0  0  0  0
  159.4230  210.4130  152.6620 C   0  0  2  0  0  3  0  0  0  0  0  0
  158.2710  211.1780  153.2990 C   0  0  1  0  0  3  0  0  0  0  0  0
  159.1020  214.3140  154.4390 C   0  0  0  0  0  2  0  0  0  0  0  0
  159.0880  214.4530  152.8850 C   0  0  0  0  0  2  0  0  0  0  0  0
  160.2900  212.5130  151.7710 O   0  0  0  0  0  0  0  0  0  0  0  0
  159.0580  214.3330  155.9010 O   0  0  0  0  0  0  0  0  0  0  0  0
  157.3130  214.2850  148.6260 C   0  0  0  0  0  2  0  0  0  0  0  0
  158.3690  213.9030  147.6130 C   0  0  1  0  0  3  0  0  0  0  0  0
  160.1570  213.8700  149.4580 C   0  0  0  0  0  2  0  0  0  0  0  0
  157.6960  213.7970  150.0120 C   0  0  0  0  0  2  0  0  0  0  0  0
  159.0990  214.2760  150.5350 C   0  0  1  0  0  3  0  0  0  0  0  0
  159.7940  214.2890  147.9990 C   0  0  0  0  0  2  0  0  0  0  0  0
  158.2240  212.3930  145.6710 C   0  0  0  0  0  1  0  0  0  0  0  0
  158.2750  212.4510  147.2080 C   0  0  0  0  0  2  0  0  0  0  0  0
  161.8720  210.6170  151.9190 C   0  0  1  0  0  3  0  0  0  0  0  0
  162.5860  209.5810  152.7170 C   0  0  0  0  0  1  0  0  0  0  0  0
  161.9620  210.3710  150.4400 C   0  0  0  0  0  2  0  0  0  0  0  0
  162.0240  208.9260  150.0510 C   0  0  2  0  0  3  0  0  0  0  0  0
  162.5940  208.6920  148.6930 C   0  0  0  0  0  1  0  0  0  0  0  0
  160.6320  208.2990  150.1330 C   0  0  0  0  0  2  0  0  0  0  0  0
  160.8190  206.8890  150.7470 C   0  0  2  0  0  3  0  0  0  0  0  0
  161.4890  204.2680  152.4060 C   0  0  0  0  0  3  0  0  0  0  0  0
  160.9990  203.7370  148.8960 C   0  0  0  0  0  0  0  0  0  0  0  0
  161.0210  204.5140  149.8990 C   0  0  0  0  0  0  0  0  0  0  0  0
  160.9010  206.7440  152.2930 C   0  0  0  0  0  2  0  0  0  0  0  0
  161.4270  205.9320  149.7350 C   0  0  0  0  0  2  0  0  0  0  0  0
  161.0090  202.8150  147.8780 C   0  0  0  0  0  3  0  0  0  0  0  0
  160.6130  203.9210  151.2310 C   0  0  0  0  0  2  0  0  0  0  0  0
  161.6100  205.5320  152.8600 C   0  0  0  0  0  3  0  0  0  0  0  0
  161.6920  202.9630  146.5230 C   0  0  0  0  0  2  0  0  0  0  0  0
  161.2890  205.4320  146.0650 C   0  0  0  0  0  2  0  0  0  0  0  0
  161.2360  204.0150  145.5220 C   0  0  0  0  0  3  0  0  0  0  0  0
  162.4220  204.9390  145.2200 C   0  0  0  0  0  2  0  0  0  0  0  0
  1 14  1  1  0  0  0
  2  9  1  0  0  0  0
  3  8  1  0  0  0  0
  4 11  1  0  0  0  0
  5  9  1  0  0  0  0
  6  2  1  0  0  0  0
  7  2  2  0  0  0  0
 10  8  1  0  0  0  0
 10  6  1  0  0  0  0
 11 12  1  0  0  0  0
 11  3  1  0  0  0  0
 12  3  1  0  0  0  0
 12  8  1  0  0  0  0
 13 16  1  0  0  0  0
 14 13  1  0  0  0  0
 15  1  1  0  0  0  0
 15  4  1  0  0  0  0
 16  5  1  0  0  0  0
 17 20  1  0  0  0  0
 18 22  1  0  0  0  0
 18 17  1  0  0  0  0
 19 21  1  0  0  0  0
 20 21  1  0  0  0  0
 21  1  1  0  0  0  0
 22 19  1  0  0  0  0
 23 24  1  0  0  0  0
 24 18  1  0  0  0  0
 25  4  1  0  0  0  0
 25 26  1  0  0  0  0
 27 25  1  0  0  0  0
 28 30  1  0  0  0  0
 28 27  1  0  0  0  0
 29 28  1  0  0  0  0
 30 31  1  0  0  0  0
 31 35  1  0  0  0  0
 32 39  2  0  0  0  0
 33 34  2  0  0  0  0
 34 38  1  0  0  0  0
 35 39  1  0  0  0  0
 36 34  1  0  0  0  0
 36 31  1  0  0  0  0
 37 33  2  0  0  0  0
 38 32  1  0  0  0  0
 40 37  1  0  0  0  0
 42 41  1  0  0  0  0
 42 40  1  0  0  0  0
 43 42  1  0  0  0  0
 43 41  1  0  0  0  0
M  END
>  <MODEL>
1

>  <REMARK>
 VINA RESULT:      -6.3      0.000      0.000
  Name = 
  9 active torsions:
  status: ('A' for Active; 'I' for Inactive)
    1  A    between atoms: C_1  and  C_35
    2  A    between atoms: C_2  and  C_6
    3  A    between atoms: C_2  and  C_13
    4  A    between atoms: C_3  and  C_4
    5  A    between atoms: C_3  and  C_12
    6  A    between atoms: C_6  and  C_12
    7  A    between atoms: C_19  and  C_37
    8  A    between atoms: C_29  and  C_36
    9  A    between atoms: C_36  and  C_40
                            x       y       z     vdW  Elec       q    Type
                         _______ _______ _______ _____ _____    ______ ____

>  <TORSDO>
F 9

$$$$
=
 OpenBabel11062410293D

 43 48  0  0  1  0  0  0  0  0999 V2000
  161.5390  209.4070  151.7960 C   0  0  2  0  0  3  0  0  0  0  0  0
  160.8660  211.7170  157.1260 C   0  0  0  0  0  0  0  0  0  0  0  0
  160.5480  207.2150  155.1500 C   0  0  2  0  0  3  0  0  0  0  0  0
  161.6800  206.9910  152.9040 C   0  0  2  0  0  3  0  0  0  0  0  0
  162.5180  210.3810  156.1890 C   0  0  0  0  0  2  0  0  0  0  0  0
  159.9040  210.5420  157.2600 C   0  0  0  0  0  2  0  0  0  0  0  0
  160.4390  212.8230  156.7970 O   0  0  0  0  0  0  0  0  0  0  0  0
  160.5430  208.6280  155.7010 C   0  0  2  0  0  3  0  0  0  0  0  0
  162.3050  211.4630  157.1720 C   0  0  0  0  0  2  0  0  0  0  0  0
  159.6100  209.8170  155.9330 C   0  0  0  0  0  2  0  0  0  0  0  0
  160.3430  207.0150  153.6670 C   0  0  2  0  0  3  0  0  0  0  0  0
  160.1560  208.4070  154.2560 C   0  0  1  0  0  3  0  0  0  0  0  0
  162.8670  210.4900  153.8830 C   0  0  0  0  0  2  0  0  0  0  0  0
  162.2510  210.3880  152.4530 C   0  0  0  0  0  2  0  0  0  0  0  0
  161.6700  207.9870  151.8630 O   0  0  0  0  0  0  0  0  0  0  0  0
  163.4790  210.7360  155.1880 O   0  0  0  0  0  0  0  0  0  0  0  0
  162.1810  210.0530  148.0280 C   0  0  0  0  0  2  0  0  0  0  0  0
  162.0310  211.5580  148.0330 C   0  0  1  0  0  3  0  0  0  0  0  0
  161.0210  211.4720  150.3940 C   0  0  0  0  0  2  0  0  0  0  0  0
  162.3110  209.5210  149.4450 C   0  0  0  0  0  2  0  0  0  0  0  0
  161.1460  209.9140  150.4250 C   0  0  1  0  0  3  0  0  0  0  0  0
  160.9440  212.0890  148.9620 C   0  0  0  0  0  2  0  0  0  0  0  0
  163.1400  213.7570  147.9490 C   0  0  0  0  0  1  0  0  0  0  0  0
  163.3480  212.2630  148.2550 C   0  0  0  0  0  2  0  0  0  0  0  0
  161.9420  205.5640  152.2780 C   0  0  1  0  0  3  0  0  0  0  0  0
  161.2030  204.3900  152.8230 C   0  0  0  0  0  1  0  0  0  0  0  0
  162.3110  205.3950  150.8320 C   0  0  0  0  0  2  0  0  0  0  0  0
  161.1820  204.9640  149.9470 C   0  0  2  0  0  3  0  0  0  0  0  0
  160.0980  205.9790  149.8170 C   0  0  0  0  0  1  0  0  0  0  0  0
  160.5890  203.6490  150.4540 C   0  0  0  0  0  2  0  0  0  0  0  0
  160.8000  202.6060  149.3270 C   0  0  2  0  0  3  0  0  0  0  0  0
  161.5450  200.2010  147.3960 C   0  0  0  0  0  3  0  0  0  0  0  0
  160.8330  203.2950  145.7320 C   0  0  0  0  0  0  0  0  0  0  0  0
  160.9250  202.6150  146.8000 C   0  0  0  0  0  0  0  0  0  0  0  0
  160.9760  201.1090  149.7070 C   0  0  0  0  0  2  0  0  0  0  0  0
  161.3340  203.2690  148.0680 C   0  0  0  0  0  2  0  0  0  0  0  0
  160.7700  203.9410  144.5220 C   0  0  0  0  0  3  0  0  0  0  0  0
  160.5940  201.1400  146.7020 C   0  0  0  0  0  2  0  0  0  0  0  0
  161.7070  200.2080  148.7350 C   0  0  0  0  0  3  0  0  0  0  0  0
  161.3690  205.3030  144.1870 C   0  0  0  0  0  2  0  0  0  0  0  0
  160.4220  206.2190  146.3610 C   0  0  0  0  0  2  0  0  0  0  0  0
  161.0220  206.5390  145.0040 C   0  0  0  0  0  3  0  0  0  0  0  0
  161.8830  206.5340  146.2730 C   0  0  0  0  0  2  0  0  0  0  0  0
  1 15  1  0  0  0  0
  1 14  1  6  0  0  0
  2  9  1  0  0  0  0
  2  6  1  0  0  0  0
  3  8  1  0  0  0  0
  4 11  1  0  0  0  0
  5  9  1  0  0  0  0
  7  2  2  0  0  0  0
  8 10  1  0  0  0  0
 10  6  1  0  0  0  0
 11 12  1  0  0  0  0
 11  3  1  0  0  0  0
 12  3  1  0  0  0  0
 12  8  1  0  0  0  0
 13 16  1  0  0  0  0
 14 13  1  0  0  0  0
 15  4  1  0  0  0  0
 16  5  1  0  0  0  0
 17 18  1  0  0  0  0
 17 20  1  0  0  0  0
 18 24  1  0  0  0  0
 18 22  1  0  0  0  0
 19 21  1  0  0  0  0
 20 21  1  0  0  0  0
 21  1  1  0  0  0  0
 22 19  1  0  0  0  0
 23 24  1  0  0  0  0
 25 26  1  0  0  0  0
 25  4  1  0  0  0  0
 27 25  1  0  0  0  0
 28 30  1  0  0  0  0
 28 27  1  0  0  0  0
 29 28  1  0  0  0  0
 31 35  1  0  0  0  0
 31 30  1  0  0  0  0
 32 39  2  0  0  0  0
 33 34  2  0  0  0  0
 34 36  1  0  0  0  0
 36 31  1  0  0  0  0
 37 33  2  0  0  0  0
 38 34  1  0  0  0  0
 38 32  1  0  0  0  0
 39 35  1  0  0  0  0
 40 37  1  0  0  0  0
 40 42  1  0  0  0  0
 42 43  1  0  0  0  0
 42 41  1  0  0  0  0
 43 41  1  0  0  0  0
M  END
>  <MODEL>
2

>  <REMARK>
 VINA RESULT:      -5.1      2.745      4.622
  Name = 
  9 active torsions:
  status: ('A' for Active; 'I' for Inactive)
    1  A    between atoms: C_1  and  C_35
    2  A    between atoms: C_2  and  C_6
    3  A    between atoms: C_2  and  C_13
    4  A    between atoms: C_3  and  C_4
    5  A    between atoms: C_3  and  C_12
    6  A    between atoms: C_6  and  C_12
    7  A    between atoms: C_19  and  C_37
    8  A    between atoms: C_29  and  C_36
    9  A    between atoms: C_36  and  C_40
                            x       y       z     vdW  Elec       q    Type
                         _______ _______ _______ _____ _____    ______ ____

>  <TORSDO>
F 9

$$$$
=
 OpenBabel11062410293D

 43 48  0  0  1  0  0  0  0  0999 V2000
  160.5630  209.5760  151.9740 C   0  0  2  0  0  3  0  0  0  0  0  0
  161.1450  203.8030  151.2440 C   0  0  0  0  0  0  0  0  0  0  0  0
  161.9850  207.8210  148.5190 C   0  0  2  0  0  3  0  0  0  0  0  0
  162.1210  209.9620  149.8510 C   0  0  2  0  0  3  0  0  0  0  0  0
  162.6870  205.5130  151.5450 C   0  0  0  0  0  2  0  0  0  0  0  0
  160.9000  204.1960  149.7920 C   0  0  0  0  0  2  0  0  0  0  0  0
  160.2050  203.4310  151.9450 O   0  0  0  0  0  0  0  0  0  0  0  0
  161.6080  206.6050  149.3420 C   0  0  2  0  0  3  0  0  0  0  0  0
  162.4480  204.0850  151.8440 C   0  0  0  0  0  2  0  0  0  0  0  0
  160.4390  205.6550  149.6050 C   0  0  0  0  0  2  0  0  0  0  0  0
  161.3160  209.1400  148.8290 C   0  0  2  0  0  3  0  0  0  0  0  0
  160.8140  207.8800  149.5190 C   0  0  1  0  0  3  0  0  0  0  0  0
  162.0200  207.4250  152.7080 C   0  0  0  0  0  2  0  0  0  0  0  0
  160.9950  208.5940  152.8390 C   0  0  0  0  0  2  0  0  0  0  0  0
  161.2890  210.2970  150.9780 O   0  0  0  0  0  0  0  0  0  0  0  0
  162.9320  206.2820  152.7280 O   0  0  0  0  0  0  0  0  0  0  0  0
  159.0900  212.8870  153.3500 C   0  0  0  0  0  2  0  0  0  0  0  0
  158.9310  212.4740  154.7970 C   0  0  1  0  0  3  0  0  0  0  0  0
  159.3320  210.0160  154.1620 C   0  0  0  0  0  2  0  0  0  0  0  0
  159.9660  211.8970  152.6020 C   0  0  0  0  0  2  0  0  0  0  0  0
  159.4910  210.3990  152.6550 C   0  0  1  0  0  3  0  0  0  0  0  0
  158.4920  211.0280  155.0040 C   0  0  0  0  0  2  0  0  0  0  0  0
  159.6880  213.0070  157.0800 C   0  0  0  0  0  1  0  0  0  0  0  0
  160.1480  212.8110  155.6250 C   0  0  0  0  0  2  0  0  0  0  0  0
  162.6860  211.2810  149.1900 C   0  0  1  0  0  3  0  0  0  0  0  0
  163.4310  211.1830  147.9040 C   0  0  0  0  0  1  0  0  0  0  0  0
  161.9920  212.6030  149.3560 C   0  0  0  0  0  2  0  0  0  0  0  0
  161.9590  213.4490  148.1200 C   0  0  2  0  0  3  0  0  0  0  0  0
  163.2330  214.1770  147.8550 C   0  0  0  0  0  1  0  0  0  0  0  0
  160.8080  214.4530  148.2010 C   0  0  0  0  0  2  0  0  0  0  0  0
  159.6120  213.8120  147.4520 C   0  0  2  0  0  3  0  0  0  0  0  0
  157.0170  212.3040  146.4210 C   0  0  0  0  0  3  0  0  0  0  0  0
  159.6050  212.6800  143.9710 C   0  0  0  0  0  0  0  0  0  0  0  0
  159.1600  212.8840  145.1420 C   0  0  0  0  0  0  0  0  0  0  0  0
  158.2550  213.6530  148.1930 C   0  0  0  0  0  2  0  0  0  0  0  0
  160.0940  212.9540  146.2930 C   0  0  0  0  0  2  0  0  0  0  0  0
  159.9950  212.4010  142.6840 C   0  0  0  0  0  3  0  0  0  0  0  0
  157.6620  213.0510  145.2830 C   0  0  0  0  0  2  0  0  0  0  0  0
  157.3000  212.5820  147.7110 C   0  0  0  0  0  3  0  0  0  0  0  0
  161.3400  211.8320  142.2450 C   0  0  0  0  0  2  0  0  0  0  0  0
  162.8030  210.9660  140.3530 C   0  0  0  0  0  2  0  0  0  0  0  0
  161.8710  212.0630  140.8370 C   0  0  0  0  0  3  0  0  0  0  0  0
  161.3650  210.9270  139.9400 C   0  0  0  0  0  2  0  0  0  0  0  0
  1 21  1  0  0  0  0
  1 14  1  1  0  0  0
  2  9  1  0  0  0  0
  2  7  2  0  0  0  0
  3 11  1  0  0  0  0
  3  8  1  0  0  0  0
  3 12  1  0  0  0  0
  4 15  1  0  0  0  0
  5  9  1  0  0  0  0
  5 16  1  0  0  0  0
  6  2  1  0  0  0  0
  8 12  1  0  0  0  0
  8 10  1  0  0  0  0
 10  6  1  0  0  0  0
 11 12  1  0  0  0  0
 11  4  1  0  0  0  0
 13 16  1  0  0  0  0
 13 14  1  0  0  0  0
 15  1  1  0  0  0  0
 17 18  1  0  0  0  0
 18 22  1  0  0  0  0
 18 24  1  0  0  0  0
 19 22  1  0  0  0  0
 20 21  1  0  0  0  0
 20 17  1  0  0  0  0
 21 19  1  0  0  0  0
 24 23  1  0  0  0  0
 25 27  1  0  0  0  0
 25  4  1  0  0  0  0
 26 25  1  0  0  0  0
 28 30  1  0  0  0  0
 28 27  1  0  0  0  0
 29 28  1  0  0  0  0
 31 35  1  0  0  0  0
 31 30  1  0  0  0  0
 32 39  2  0  0  0  0
 33 34  2  0  0  0  0
 34 38  1  0  0  0  0
 34 36  1  0  0  0  0
 36 31  1  0  0  0  0
 37 33  2  0  0  0  0
 38 32  1  0  0  0  0
 39 35  1  0  0  0  0
 40 37  1  0  0  0  0
 41 42  1  0  0  0  0
 42 40  1  0  0  0  0
 43 41  1  0  0  0  0
 43 42  1  0  0  0  0
M  END
>  <MODEL>
3

>  <REMARK>
 VINA RESULT:      -3.9      2.986      8.142
  Name = 
  9 active torsions:
  status: ('A' for Active; 'I' for Inactive)
    1  A    between atoms: C_1  and  C_35
    2  A    between atoms: C_2  and  C_6
    3  A    between atoms: C_2  and  C_13
    4  A    between atoms: C_3  and  C_4
    5  A    between atoms: C_3  and  C_12
    6  A    between atoms: C_6  and  C_12
    7  A    between atoms: C_19  and  C_37
    8  A    between atoms: C_29  and  C_36
    9  A    between atoms: C_36  and  C_40
                            x       y       z     vdW  Elec       q    Type
                         _______ _______ _______ _____ _____    ______ ____

>  <TORSDO>
F 9

$$$$
=
 OpenBabel11062410293D

 43 48  0  0  1  0  0  0  0  0999 V2000
  161.1100  210.6880  151.2980 C   0  0  2  0  0  3  0  0  0  0  0  0
  160.3790  209.5320  156.9830 C   0  0  0  0  0  0  0  0  0  0  0  0
  161.2190  206.8900  152.9100 C   0  0  2  0  0  3  0  0  0  0  0  0
  162.1020  208.2400  150.9680 C   0  0  2  0  0  3  0  0  0  0  0  0
  162.2410  209.4830  155.5960 C   0  0  0  0  0  2  0  0  0  0  0  0
  159.8410  208.2250  156.4110 C   0  0  0  0  0  2  0  0  0  0  0  0
  159.6020  210.4440  157.2610 O   0  0  0  0  0  0  0  0  0  0  0  0
  160.8490  207.7220  154.1220 C   0  0  2  0  0  3  0  0  0  0  0  0
  161.8220  209.7620  156.9860 C   0  0  0  0  0  2  0  0  0  0  0  0
  159.6310  208.2480  154.8840 C   0  0  0  0  0  2  0  0  0  0  0  0
  160.9170  207.4390  151.5360 C   0  0  2  0  0  3  0  0  0  0  0  0
  160.3840  208.1760  152.7570 C   0  0  1  0  0  3  0  0  0  0  0  0
  162.2750  210.8800  153.7260 C   0  0  0  0  0  2  0  0  0  0  0  0
  161.5600  211.3490  152.4210 C   0  0  0  0  0  2  0  0  0  0  0  0
  161.6720  209.5680  150.6130 O   0  0  0  0  0  0  0  0  0  0  0  0
  162.9270  210.5900  155.0020 O   0  0  0  0  0  0  0  0  0  0  0  0
  160.6910  212.5720  147.9360 C   0  0  0  0  0  2  0  0  0  0  0  0
  160.8530  213.9840  148.4520 C   0  0  1  0  0  3  0  0  0  0  0  0
  160.6130  213.1510  150.8720 C   0  0  0  0  0  2  0  0  0  0  0  0
  161.1370  211.5630  148.9810 C   0  0  0  0  0  2  0  0  0  0  0  0
  160.4280  211.6790  150.3790 C   0  0  1  0  0  3  0  0  0  0  0  0
  160.2290  214.2400  149.8210 C   0  0  0  0  0  2  0  0  0  0  0  0
  162.8320  214.1410  146.9940 C   0  0  0  0  0  1  0  0  0  0  0  0
  162.2880  214.4530  148.3980 C   0  0  0  0  0  2  0  0  0  0  0  0
  162.7120  207.5180  149.7020 C   0  0  1  0  0  3  0  0  0  0  0  0
  162.9730  206.0520  149.7630 C   0  0  0  0  0  1  0  0  0  0  0  0
  162.4230  207.9950  148.3080 C   0  0  0  0  0  2  0  0  0  0  0  0
  161.6830  207.0120  147.4530 C   0  0  2  0  0  3  0  0  0  0  0  0
  160.6870  206.1930  148.2020 C   0  0  0  0  0  1  0  0  0  0  0  0
  162.6700  206.0870  146.7410 C   0  0  0  0  0  2  0  0  0  0  0  0
  161.8520  204.8680  146.2440 C   0  0  2  0  0  3  0  0  0  0  0  0
  159.9090  202.7450  144.9080 C   0  0  0  0  0  3  0  0  0  0  0  0
  161.0690  201.8630  148.1820 C   0  0  0  0  0  0  0  0  0  0  0  0
  161.0620  202.6600  147.1940 C   0  0  0  0  0  0  0  0  0  0  0  0
  161.3310  204.8550  144.7800 C   0  0  0  0  0  2  0  0  0  0  0  0
  161.2320  204.1180  147.4120 C   0  0  0  0  0  2  0  0  0  0  0  0
  161.0010  200.9400  149.1960 C   0  0  0  0  0  3  0  0  0  0  0  0
  160.8810  202.0460  145.8220 C   0  0  0  0  0  2  0  0  0  0  0  0
  160.1230  203.9990  144.4600 C   0  0  0  0  0  3  0  0  0  0  0  0
  160.7860  201.2310  150.6780 C   0  0  0  0  0  2  0  0  0  0  0  0
  160.6960  203.7470  151.0370 C   0  0  0  0  0  2  0  0  0  0  0  0
  161.4180  202.4460  151.3410 C   0  0  0  0  0  3  0  0  0  0  0  0
  160.4020  203.0400  152.3240 C   0  0  0  0  0  2  0  0  0  0  0  0
  1 14  1  6  0  0  0
  2  9  1  0  0  0  0
  2  7  2  0  0  0  0
  3  8  1  0  0  0  0
  4 11  1  0  0  0  0
  5  9  1  0  0  0  0
  6  2  1  0  0  0  0
  8 10  1  0  0  0  0
 10  6  1  0  0  0  0
 11 12  1  0  0  0  0
 11  3  1  0  0  0  0
 12  3  1  0  0  0  0
 12  8  1  0  0  0  0
 13 16  1  0  0  0  0
 14 13  1  0  0  0  0
 15  4  1  0  0  0  0
 15  1  1  0  0  0  0
 16  5  1  0  0  0  0
 17 18  1  0  0  0  0
 17 20  1  0  0  0  0
 18 22  1  0  0  0  0
 20 21  1  0  0  0  0
 21 19  1  0  0  0  0
 21  1  1  0  0  0  0
 22 19  1  0  0  0  0
 23 24  1  0  0  0  0
 24 18  1  0  0  0  0
 25 26  1  0  0  0  0
 25  4  1  0  0  0  0
 27 25  1  0  0  0  0
 28 29  1  0  0  0  0
 28 27  1  0  0  0  0
 30 28  1  0  0  0  0
 31 30  1  0  0  0  0
 31 36  1  0  0  0  0
 32 38  1  0  0  0  0
 33 37  2  0  0  0  0
 34 36  1  0  0  0  0
 34 33  2  0  0  0  0
 35 31  1  0  0  0  0
 37 40  1  0  0  0  0
 38 34  1  0  0  0  0
 39 35  1  0  0  0  0
 39 32  2  0  0  0  0
 40 42  1  0  0  0  0
 41 42  1  0  0  0  0
 41 43  1  0  0  0  0
 42 43  1  0  0  0  0
M  END
>  <MODEL>
4

>  <REMARK>
 VINA RESULT:      -3.8      2.698      4.726
  Name = 
  9 active torsions:
  status: ('A' for Active; 'I' for Inactive)
    1  A    between atoms: C_1  and  C_35
    2  A    between atoms: C_2  and  C_6
    3  A    between atoms: C_2  and  C_13
    4  A    between atoms: C_3  and  C_4
    5  A    between atoms: C_3  and  C_12
    6  A    between atoms: C_6  and  C_12
    7  A    between atoms: C_19  and  C_37
    8  A    between atoms: C_29  and  C_36
    9  A    between atoms: C_36  and  C_40
                            x       y       z     vdW  Elec       q    Type
                         _______ _______ _______ _____ _____    ______ ____

>  <TORSDO>
F 9

$$$$
