=
 OpenBabel11052422223D

 25 24  0  0  1  0  0  0  0  0999 V2000
  161.3690  207.2180  151.6390 C   0  0  1  0  0  3  0  0  0  0  0  0
  163.1020  205.6150  152.0700 O   0  0  0  0  0  0  0  0  0  0  0  0
  161.8650  205.8390  151.9580 C   0  0  0  0  0  0  0  0  0  0  0  0
  160.9410  204.8020  152.0940 O   0  0  0  0  0  0  0  0  0  0  0  0
  160.8630  203.7390  151.1580 C   0  0  0  0  0  1  0  0  0  0  0  0
  161.0080  208.0310  152.8980 C   0  0  1  0  0  3  0  0  0  0  0  0
  161.3870  207.3180  154.2010 C   0  0  0  0  0  2  0  0  0  0  0  0
  160.1870  207.2450  155.1240 C   0  0  0  0  0  1  0  0  0  0  0  0
  161.4690  209.3690  152.8540 O   0  0  0  0  0  0  0  0  0  0  0  0
  160.3730  210.2270  152.6520 C   0  0  0  0  0  2  0  0  0  0  0  0
  158.5670  211.1440  154.1500 C   0  0  0  0  0  1  0  0  0  0  0  0
  159.9590  210.8050  153.9190 N   0  0  0  0  0  0  0  0  0  0  0  0
  161.6990  211.0980  155.8370 C   0  0  0  0  0  3  0  0  0  0  0  0
  160.8930  210.9620  154.9490 C   0  0  0  0  0  0  0  0  0  0  0  0
  162.3380  207.9500  150.7080 C   0  0  0  0  0  2  0  0  0  0  0  0
  161.5780  208.3860  149.1070 S   0  0  0  0  0  0  0  0  0  0  0  0
  162.3010  206.9440  148.2760 C   0  0  0  0  0  2  0  0  0  0  0  0
  161.2010  205.9830  147.8620 C   0  0  0  0  0  2  0  0  0  0  0  0
  160.7030  206.3150  146.4660 C   0  0  0  0  0  2  0  0  0  0  0  0
  161.5960  205.3400  145.2190 S   0  0  0  0  0  0  0  0  0  0  0  0
  161.5960  203.8570  146.2630 C   0  0  0  0  0  2  0  0  0  0  0  0
  160.8960  202.7290  145.5370 C   0  0  0  0  0  2  0  0  0  0  0  0
  160.8390  201.5120  146.4350 C   0  0  0  0  0  2  0  0  0  0  0  0
  160.8310  201.9530  147.8830 C   0  0  0  0  0  2  0  0  0  0  0  0
  161.2660  200.8030  148.7640 C   0  0  0  0  0  1  0  0  0  0  0  0
  1 15  1  1  0  0  0
  1  3  1  0  0  0  0
  1  6  1  0  0  0  0
  3  2  2  0  0  0  0
  3  4  1  0  0  0  0
  5  4  1  0  0  0  0
  6  7  1  1  0  0  0
  7  8  1  0  0  0  0
  9  6  1  0  0  0  0
 10  9  1  0  0  0  0
 10 12  1  0  0  0  0
 12 11  1  0  0  0  0
 12 14  1  0  0  0  0
 14 13  3  0  0  0  0
 16 15  1  0  0  0  0
 17 16  1  0  0  0  0
 18 17  1  0  0  0  0
 19 18  1  0  0  0  0
 20 21  1  0  0  0  0
 20 19  1  0  0  0  0
 22 21  1  0  0  0  0
 22 23  1  0  0  0  0
 23 24  1  0  0  0  0
 24 25  1  0  0  0  0
M  END
>  <MODEL>
1

>  <REMARK>
 VINA RESULT:      -5.2      0.000      0.000
  Name = 
  18 active torsions:
  status: ('A' for Active; 'I' for Inactive)
    1  A    between atoms: C_1  and  C_3
    2  A    between atoms: C_1  and  C_18
    3  A    between atoms: C_1  and  C_24
    4  A    between atoms: C_2  and  C_7
    5  A    between atoms: C_2  and  C_25
    6  A    between atoms: C_3  and  S_16
    7  A    between atoms: O_4  and  C_18
    8  A    between atoms: O_4  and  C_19
    9  A    between atoms: S_6  and  C_15
   10  A    between atoms: S_6  and  C_21
   11  A    between atoms: N_10  and  C_11
   12  A    between atoms: N_10  and  C_19
   13  A    between atoms: O_13  and  C_24
   14  A    between atoms: C_15  and  C_20
   15  A    between atoms: S_16  and  C_23
   16  A    between atoms: C_17  and  C_18
   17  A    between atoms: C_20  and  C_23
   18  A    between atoms: C_21  and  C_25
                            x       y       z     vdW  Elec       q    Type
                         _______ _______ _______ _____ _____    ______ ____

>  <TORSDO>
F 18

$$$$
=
 OpenBabel11052422223D

 25 24  0  0  1  0  0  0  0  0999 V2000
  161.2330  208.8650  151.3330 C   0  0  1  0  0  3  0  0  0  0  0  0
  159.8210  210.3900  152.5320 O   0  0  0  0  0  0  0  0  0  0  0  0
  160.9770  209.9070  152.3810 C   0  0  0  0  0  0  0  0  0  0  0  0
  162.0420  210.3580  153.1610 O   0  0  0  0  0  0  0  0  0  0  0  0
  161.8960  210.6230  154.5470 C   0  0  0  0  0  1  0  0  0  0  0  0
  162.0500  209.4020  150.1410 C   0  0  1  0  0  3  0  0  0  0  0  0
  161.7260  208.6920  148.8220 C   0  0  0  0  0  2  0  0  0  0  0  0
  162.8200  207.7010  148.4800 C   0  0  0  0  0  1  0  0  0  0  0  0
  162.0120  210.8140  150.0250 O   0  0  0  0  0  0  0  0  0  0  0  0
  162.1130  211.1670  148.6670 C   0  0  0  0  0  2  0  0  0  0  0  0
  160.8800  213.2580  149.3390 C   0  0  0  0  0  1  0  0  0  0  0  0
  161.1650  212.2240  148.3610 N   0  0  0  0  0  0  0  0  0  0  0  0
  160.0830  212.3460  145.9940 C   0  0  0  0  0  3  0  0  0  0  0  0
  160.5840  212.2900  147.0900 C   0  0  0  0  0  0  0  0  0  0  0  0
  161.8320  207.5990  151.9500 C   0  0  0  0  0  2  0  0  0  0  0  0
  161.0400  207.1460  153.5310 S   0  0  0  0  0  0  0  0  0  0  0  0
  161.2970  205.3720  153.2480 C   0  0  0  0  0  2  0  0  0  0  0  0
  161.4020  205.0990  151.7590 C   0  0  0  0  0  2  0  0  0  0  0  0
  161.5580  203.6110  151.5010 C   0  0  0  0  0  2  0  0  0  0  0  0
  160.7200  203.1370  149.9590 S   0  0  0  0  0  0  0  0  0  0  0  0
  160.6970  204.8470  149.3530 C   0  0  0  0  0  2  0  0  0  0  0  0
  161.2260  204.8870  147.9360 C   0  0  0  0  0  2  0  0  0  0  0  0
  161.7500  203.5190  147.5560 C   0  0  0  0  0  2  0  0  0  0  0  0
  161.2940  203.1750  146.1530 C   0  0  0  0  0  2  0  0  0  0  0  0
  160.7460  201.7650  146.1310 C   0  0  0  0  0  1  0  0  0  0  0  0
  1 15  1  1  0  0  0
  1  3  1  0  0  0  0
  3  2  2  0  0  0  0
  3  4  1  0  0  0  0
  4  5  1  0  0  0  0
  6  7  1  6  0  0  0
  6  1  1  0  0  0  0
  8  7  1  0  0  0  0
  9  6  1  0  0  0  0
 10  9  1  0  0  0  0
 12 10  1  0  0  0  0
 12 11  1  0  0  0  0
 13 14  3  0  0  0  0
 14 12  1  0  0  0  0
 15 16  1  0  0  0  0
 17 16  1  0  0  0  0
 18 17  1  0  0  0  0
 19 18  1  0  0  0  0
 20 19  1  0  0  0  0
 21 20  1  0  0  0  0
 22 21  1  0  0  0  0
 23 22  1  0  0  0  0
 24 23  1  0  0  0  0
 25 24  1  0  0  0  0
M  END
>  <MODEL>
2

>  <REMARK>
 VINA RESULT:      -5.1      3.015      5.185
  Name = 
  18 active torsions:
  status: ('A' for Active; 'I' for Inactive)
    1  A    between atoms: C_1  and  C_3
    2  A    between atoms: C_1  and  C_18
    3  A    between atoms: C_1  and  C_24
    4  A    between atoms: C_2  and  C_7
    5  A    between atoms: C_2  and  C_25
    6  A    between atoms: C_3  and  S_16
    7  A    between atoms: O_4  and  C_18
    8  A    between atoms: O_4  and  C_19
    9  A    between atoms: S_6  and  C_15
   10  A    between atoms: S_6  and  C_21
   11  A    between atoms: N_10  and  C_11
   12  A    between atoms: N_10  and  C_19
   13  A    between atoms: O_13  and  C_24
   14  A    between atoms: C_15  and  C_20
   15  A    between atoms: S_16  and  C_23
   16  A    between atoms: C_17  and  C_18
   17  A    between atoms: C_20  and  C_23
   18  A    between atoms: C_21  and  C_25
                            x       y       z     vdW  Elec       q    Type
                         _______ _______ _______ _____ _____    ______ ____

>  <TORSDO>
F 18

$$$$
=
 OpenBabel11052422223D

 25 24  0  0  1  0  0  0  0  0999 V2000
  161.5560  207.3780  151.3450 C   0  0  1  0  0  3  0  0  0  0  0  0
  163.0890  205.7080  152.1330 O   0  0  0  0  0  0  0  0  0  0  0  0
  161.9630  205.9610  151.6210 C   0  0  0  0  0  0  0  0  0  0  0  0
  161.0940  204.9280  151.2710 O   0  0  0  0  0  0  0  0  0  0  0  0
  160.7550  203.8930  152.1810 C   0  0  0  0  0  1  0  0  0  0  0  0
  161.3700  208.2090  152.6320 C   0  0  1  0  0  3  0  0  0  0  0  0
  161.2600  209.7130  152.3640 C   0  0  0  0  0  2  0  0  0  0  0  0
  162.1020  210.4850  153.3610 C   0  0  0  0  0  1  0  0  0  0  0  0
  160.3340  207.7240  153.4680 O   0  0  0  0  0  0  0  0  0  0  0  0
  160.9000  207.1980  154.6430 C   0  0  0  0  0  2  0  0  0  0  0  0
  161.9760  208.2510  156.6630 C   0  0  0  0  0  1  0  0  0  0  0  0
  160.9040  208.2100  155.6850 N   0  0  0  0  0  0  0  0  0  0  0  0
  159.0570  210.0480  155.7100 C   0  0  0  0  0  3  0  0  0  0  0  0
  159.9120  209.1970  155.6990 C   0  0  0  0  0  0  0  0  0  0  0  0
  162.5000  208.0370  150.3370 C   0  0  0  0  0  2  0  0  0  0  0  0
  161.6790  208.4130  148.7510 S   0  0  0  0  0  0  0  0  0  0  0  0
  162.3830  206.9490  147.9420 C   0  0  0  0  0  2  0  0  0  0  0  0
  161.2830  205.9450  147.6500 C   0  0  0  0  0  2  0  0  0  0  0  0
  160.6420  206.2360  146.3040 C   0  0  0  0  0  2  0  0  0  0  0  0
  161.4810  205.3130  144.9830 S   0  0  0  0  0  0  0  0  0  0  0  0
  161.6680  203.8380  146.0230 C   0  0  0  0  0  2  0  0  0  0  0  0
  160.8570  202.7020  145.4380 C   0  0  0  0  0  2  0  0  0  0  0  0
  160.8070  201.5590  146.4290 C   0  0  0  0  0  2  0  0  0  0  0  0
  160.8690  202.1090  147.8380 C   0  0  0  0  0  2  0  0  0  0  0  0
  161.0680  200.9720  148.8160 C   0  0  0  0  0  1  0  0  0  0  0  0
  1 15  1  6  0  0  0
  1  3  1  0  0  0  0
  1  6  1  0  0  0  0
  3  2  2  0  0  0  0
  4  3  1  0  0  0  0
  4  5  1  0  0  0  0
  6  7  1  6  0  0  0
  6  9  1  0  0  0  0
  7  8  1  0  0  0  0
  9 10  1  0  0  0  0
 10 12  1  0  0  0  0
 12 14  1  0  0  0  0
 12 11  1  0  0  0  0
 14 13  3  0  0  0  0
 16 15  1  0  0  0  0
 17 16  1  0  0  0  0
 18 17  1  0  0  0  0
 19 18  1  0  0  0  0
 20 21  1  0  0  0  0
 20 19  1  0  0  0  0
 22 21  1  0  0  0  0
 22 23  1  0  0  0  0
 23 24  1  0  0  0  0
 24 25  1  0  0  0  0
M  END
>  <MODEL>
3

>  <REMARK>
 VINA RESULT:      -5.0      1.233      1.971
  Name = 
  18 active torsions:
  status: ('A' for Active; 'I' for Inactive)
    1  A    between atoms: C_1  and  C_3
    2  A    between atoms: C_1  and  C_18
    3  A    between atoms: C_1  and  C_24
    4  A    between atoms: C_2  and  C_7
    5  A    between atoms: C_2  and  C_25
    6  A    between atoms: C_3  and  S_16
    7  A    between atoms: O_4  and  C_18
    8  A    between atoms: O_4  and  C_19
    9  A    between atoms: S_6  and  C_15
   10  A    between atoms: S_6  and  C_21
   11  A    between atoms: N_10  and  C_11
   12  A    between atoms: N_10  and  C_19
   13  A    between atoms: O_13  and  C_24
   14  A    between atoms: C_15  and  C_20
   15  A    between atoms: S_16  and  C_23
   16  A    between atoms: C_17  and  C_18
   17  A    between atoms: C_20  and  C_23
   18  A    between atoms: C_21  and  C_25
                            x       y       z     vdW  Elec       q    Type
                         _______ _______ _______ _____ _____    ______ ____

>  <TORSDO>
F 18

$$$$
=
 OpenBabel11052422223D

 25 24  0  0  1  0  0  0  0  0999 V2000
  160.7170  205.8840  148.6020 C   0  0  1  0  0  3  0  0  0  0  0  0
  162.5260  206.2920  147.0780 O   0  0  0  0  0  0  0  0  0  0  0  0
  161.2780  206.2100  147.2500 C   0  0  0  0  0  0  0  0  0  0  0  0
  160.4000  206.4550  146.1940 O   0  0  0  0  0  0  0  0  0  0  0  0
  160.4970  205.7600  144.9610 C   0  0  0  0  0  1  0  0  0  0  0  0
  161.3860  204.6530  149.2460 C   0  0  1  0  0  3  0  0  0  0  0  0
  160.6490  204.1540  150.4930 C   0  0  0  0  0  2  0  0  0  0  0  0
  161.5890  204.1330  151.6820 C   0  0  0  0  0  1  0  0  0  0  0  0
  161.6610  203.6150  148.3220 O   0  0  0  0  0  0  0  0  0  0  0  0
  160.7490  202.5640  148.5250 C   0  0  0  0  0  2  0  0  0  0  0  0
  161.5970  200.2600  147.9590 C   0  0  0  0  0  1  0  0  0  0  0  0
  160.9840  201.5120  147.5510 N   0  0  0  0  0  0  0  0  0  0  0  0
  160.1700  201.8160  145.0950 C   0  0  0  0  0  3  0  0  0  0  0  0
  160.5470  201.6750  146.2330 C   0  0  0  0  0  0  0  0  0  0  0  0
  160.7210  207.1140  149.5110 C   0  0  0  0  0  2  0  0  0  0  0  0
  162.3790  207.4900  150.1760 S   0  0  0  0  0  0  0  0  0  0  0  0
  161.7070  208.5700  151.4700 C   0  0  0  0  0  2  0  0  0  0  0  0
  161.3760  207.7500  152.7040 C   0  0  0  0  0  2  0  0  0  0  0  0
  160.8250  208.6420  153.8030 C   0  0  0  0  0  2  0  0  0  0  0  0
  161.5390  210.3100  153.6920 S   0  0  0  0  0  0  0  0  0  0  0  0
  159.9050  211.0870  153.5640 C   0  0  0  0  0  2  0  0  0  0  0  0
  159.8250  212.2540  154.5240 C   0  0  0  0  0  2  0  0  0  0  0  0
  158.3930  212.7360  154.6110 C   0  0  0  0  0  2  0  0  0  0  0  0
  157.4540  211.5570  154.4570 C   0  0  0  0  0  2  0  0  0  0  0  0
  156.0360  212.0010  154.7430 C   0  0  0  0  0  1  0  0  0  0  0  0
  1  6  1  0  0  0  0
  1 15  1  1  0  0  0
  2  3  2  0  0  0  0
  3  1  1  0  0  0  0
  4  3  1  0  0  0  0
  5  4  1  0  0  0  0
  6  7  1  1  0  0  0
  7  8  1  0  0  0  0
  9 10  1  0  0  0  0
  9  6  1  0  0  0  0
 12 11  1  0  0  0  0
 12 10  1  0  0  0  0
 13 14  3  0  0  0  0
 14 12  1  0  0  0  0
 15 16  1  0  0  0  0
 16 17  1  0  0  0  0
 17 18  1  0  0  0  0
 18 19  1  0  0  0  0
 20 19  1  0  0  0  0
 21 20  1  0  0  0  0
 21 22  1  0  0  0  0
 22 23  1  0  0  0  0
 24 23  1  0  0  0  0
 24 25  1  0  0  0  0
M  END
>  <MODEL>
4

>  <REMARK>
 VINA RESULT:      -5.0      3.346      8.991
  Name = 
  18 active torsions:
  status: ('A' for Active; 'I' for Inactive)
    1  A    between atoms: C_1  and  C_3
    2  A    between atoms: C_1  and  C_18
    3  A    between atoms: C_1  and  C_24
    4  A    between atoms: C_2  and  C_7
    5  A    between atoms: C_2  and  C_25
    6  A    between atoms: C_3  and  S_16
    7  A    between atoms: O_4  and  C_18
    8  A    between atoms: O_4  and  C_19
    9  A    between atoms: S_6  and  C_15
   10  A    between atoms: S_6  and  C_21
   11  A    between atoms: N_10  and  C_11
   12  A    between atoms: N_10  and  C_19
   13  A    between atoms: O_13  and  C_24
   14  A    between atoms: C_15  and  C_20
   15  A    between atoms: S_16  and  C_23
   16  A    between atoms: C_17  and  C_18
   17  A    between atoms: C_20  and  C_23
   18  A    between atoms: C_21  and  C_25
                            x       y       z     vdW  Elec       q    Type
                         _______ _______ _______ _____ _____    ______ ____

>  <TORSDO>
F 18

$$$$
=
 OpenBabel11052422223D

 25 24  0  0  1  0  0  0  0  0999 V2000
  162.0910  208.3340  151.5170 C   0  0  1  0  0  3  0  0  0  0  0  0
  161.6430  208.4710  149.1640 O   0  0  0  0  0  0  0  0  0  0  0  0
  161.9350  209.0840  150.2280 C   0  0  0  0  0  0  0  0  0  0  0  0
  162.1500  210.4620  150.2160 O   0  0  0  0  0  0  0  0  0  0  0  0
  162.0960  211.2190  149.0170 C   0  0  0  0  0  1  0  0  0  0  0  0
  160.8740  208.4910  152.4520 C   0  0  1  0  0  3  0  0  0  0  0  0
  161.2410  208.3920  153.9360 C   0  0  0  0  0  2  0  0  0  0  0  0
  160.5730  207.1820  154.5600 C   0  0  0  0  0  1  0  0  0  0  0  0
  160.0840  209.6290  152.1590 O   0  0  0  0  0  0  0  0  0  0  0  0
  160.2510  210.5810  153.1810 C   0  0  0  0  0  2  0  0  0  0  0  0
  158.2670  211.3210  154.5460 C   0  0  0  0  0  1  0  0  0  0  0  0
  159.0410  211.3740  153.3190 N   0  0  0  0  0  0  0  0  0  0  0  0
  158.3390  213.0060  151.4130 C   0  0  0  0  0  3  0  0  0  0  0  0
  158.6650  212.2500  152.2960 C   0  0  0  0  0  0  0  0  0  0  0  0
  162.4690  206.8740  151.2630 C   0  0  0  0  0  2  0  0  0  0  0  0
  161.0170  205.8230  150.9180 S   0  0  0  0  0  0  0  0  0  0  0  0
  161.4250  204.6730  152.2610 C   0  0  0  0  0  2  0  0  0  0  0  0
  160.9350  203.2800  151.9110 C   0  0  0  0  0  2  0  0  0  0  0  0
  160.9880  203.0600  150.4100 C   0  0  0  0  0  2  0  0  0  0  0  0
  160.6590  201.3180  150.0070 S   0  0  0  0  0  0  0  0  0  0  0  0
  160.9460  201.5910  148.2360 C   0  0  0  0  0  2  0  0  0  0  0  0
  161.2660  203.0500  147.9960 C   0  0  0  0  0  2  0  0  0  0  0  0
  161.3640  203.3040  146.5070 C   0  0  0  0  0  2  0  0  0  0  0  0
  161.7430  204.7500  146.2660 C   0  0  0  0  0  2  0  0  0  0  0  0
  163.2110  204.8340  145.9090 C   0  0  0  0  0  1  0  0  0  0  0  0
  1 15  1  6  0  0  0
  1  6  1  0  0  0  0
  2  3  2  0  0  0  0
  3  1  1  0  0  0  0
  4  3  1  0  0  0  0
  5  4  1  0  0  0  0
  6  7  1  1  0  0  0
  7  8  1  0  0  0  0
  9  6  1  0  0  0  0
  9 10  1  0  0  0  0
 10 12  1  0  0  0  0
 12 11  1  0  0  0  0
 13 14  3  0  0  0  0
 14 12  1  0  0  0  0
 16 15  1  0  0  0  0
 16 17  1  0  0  0  0
 18 17  1  0  0  0  0
 19 18  1  0  0  0  0
 20 19  1  0  0  0  0
 21 20  1  0  0  0  0
 22 21  1  0  0  0  0
 23 22  1  0  0  0  0
 24 23  1  0  0  0  0
 25 24  1  0  0  0  0
M  END
>  <MODEL>
5

>  <REMARK>
 VINA RESULT:      -5.0      2.295      3.848
  Name = 
  18 active torsions:
  status: ('A' for Active; 'I' for Inactive)
    1  A    between atoms: C_1  and  C_3
    2  A    between atoms: C_1  and  C_18
    3  A    between atoms: C_1  and  C_24
    4  A    between atoms: C_2  and  C_7
    5  A    between atoms: C_2  and  C_25
    6  A    between atoms: C_3  and  S_16
    7  A    between atoms: O_4  and  C_18
    8  A    between atoms: O_4  and  C_19
    9  A    between atoms: S_6  and  C_15
   10  A    between atoms: S_6  and  C_21
   11  A    between atoms: N_10  and  C_11
   12  A    between atoms: N_10  and  C_19
   13  A    between atoms: O_13  and  C_24
   14  A    between atoms: C_15  and  C_20
   15  A    between atoms: S_16  and  C_23
   16  A    between atoms: C_17  and  C_18
   17  A    between atoms: C_20  and  C_23
   18  A    between atoms: C_21  and  C_25
                            x       y       z     vdW  Elec       q    Type
                         _______ _______ _______ _____ _____    ______ ____

>  <TORSDO>
F 18

$$$$
=
 OpenBabel11052422223D

 25 24  0  0  1  0  0  0  0  0999 V2000
  161.7560  208.6890  152.0950 C   0  0  1  0  0  3  0  0  0  0  0  0
  162.3730  210.3010  150.4270 O   0  0  0  0  0  0  0  0  0  0  0  0
  161.9130  209.1520  150.6770 C   0  0  0  0  0  0  0  0  0  0  0  0
  161.5110  208.3090  149.6410 O   0  0  0  0  0  0  0  0  0  0  0  0
  162.3370  208.0570  148.5160 C   0  0  0  0  0  1  0  0  0  0  0  0
  161.3330  209.8220  153.0520 C   0  0  1  0  0  3  0  0  0  0  0  0
  159.9030  210.3130  152.8060 C   0  0  0  0  0  2  0  0  0  0  0  0
  159.9200  211.7460  152.3120 C   0  0  0  0  0  1  0  0  0  0  0  0
  161.5840  209.5280  154.4150 O   0  0  0  0  0  0  0  0  0  0  0  0
  161.1130  210.5900  155.2090 C   0  0  0  0  0  2  0  0  0  0  0  0
  159.1120  210.9640  156.6920 C   0  0  0  0  0  1  0  0  0  0  0  0
  160.1540  210.0930  156.1790 N   0  0  0  0  0  0  0  0  0  0  0  0
  160.2120  207.5870  156.8900 C   0  0  0  0  0  3  0  0  0  0  0  0
  160.1850  208.7470  156.5610 C   0  0  0  0  0  0  0  0  0  0  0  0
  160.8450  207.4620  152.1760 C   0  0  0  0  0  2  0  0  0  0  0  0
  161.5530  206.1290  153.2030 S   0  0  0  0  0  0  0  0  0  0  0  0
  161.7900  205.0390  151.7720 C   0  0  0  0  0  2  0  0  0  0  0  0
  160.6350  205.2060  150.8020 C   0  0  0  0  0  2  0  0  0  0  0  0
  161.0110  204.6720  149.4300 C   0  0  0  0  0  2  0  0  0  0  0  0
  160.8020  202.8680  149.3680 S   0  0  0  0  0  0  0  0  0  0  0  0
  161.1930  202.8040  147.5970 C   0  0  0  0  0  2  0  0  0  0  0  0
  161.8900  204.0830  147.1880 C   0  0  0  0  0  2  0  0  0  0  0  0
  162.0280  204.1210  145.6810 C   0  0  0  0  0  2  0  0  0  0  0  0
  161.8060  205.5360  145.1900 C   0  0  0  0  0  2  0  0  0  0  0  0
  160.6170  206.1380  145.9060 C   0  0  0  0  0  1  0  0  0  0  0  0
  1 15  1  6  0  0  0
  1  6  1  0  0  0  0
  2  3  2  0  0  0  0
  3  1  1  0  0  0  0
  4  3  1  0  0  0  0
  5  4  1  0  0  0  0
  6  7  1  1  0  0  0
  6  9  1  0  0  0  0
  8  7  1  0  0  0  0
  9 10  1  0  0  0  0
 10 12  1  0  0  0  0
 12 14  1  0  0  0  0
 12 11  1  0  0  0  0
 14 13  3  0  0  0  0
 15 16  1  0  0  0  0
 17 16  1  0  0  0  0
 18 17  1  0  0  0  0
 19 18  1  0  0  0  0
 20 19  1  0  0  0  0
 21 20  1  0  0  0  0
 22 21  1  0  0  0  0
 23 22  1  0  0  0  0
 24 23  1  0  0  0  0
 24 25  1  0  0  0  0
M  END
>  <MODEL>
6

>  <REMARK>
 VINA RESULT:      -5.0      2.254      3.690
  Name = 
  18 active torsions:
  status: ('A' for Active; 'I' for Inactive)
    1  A    between atoms: C_1  and  C_3
    2  A    between atoms: C_1  and  C_18
    3  A    between atoms: C_1  and  C_24
    4  A    between atoms: C_2  and  C_7
    5  A    between atoms: C_2  and  C_25
    6  A    between atoms: C_3  and  S_16
    7  A    between atoms: O_4  and  C_18
    8  A    between atoms: O_4  and  C_19
    9  A    between atoms: S_6  and  C_15
   10  A    between atoms: S_6  and  C_21
   11  A    between atoms: N_10  and  C_11
   12  A    between atoms: N_10  and  C_19
   13  A    between atoms: O_13  and  C_24
   14  A    between atoms: C_15  and  C_20
   15  A    between atoms: S_16  and  C_23
   16  A    between atoms: C_17  and  C_18
   17  A    between atoms: C_20  and  C_23
   18  A    between atoms: C_21  and  C_25
                            x       y       z     vdW  Elec       q    Type
                         _______ _______ _______ _____ _____    ______ ____

>  <TORSDO>
F 18

$$$$
=
 OpenBabel11052422223D

 25 24  0  0  1  0  0  0  0  0999 V2000
  161.0460  204.9720  149.5380 C   0  0  1  0  0  3  0  0  0  0  0  0
  160.0880  206.2210  147.7260 O   0  0  0  0  0  0  0  0  0  0  0  0
  161.0810  206.0390  148.4850 C   0  0  0  0  0  0  0  0  0  0  0  0
  162.2370  206.8050  148.3340 O   0  0  0  0  0  0  0  0  0  0  0  0
  162.2620  208.1930  148.6270 C   0  0  0  0  0  1  0  0  0  0  0  0
  161.3540  203.5680  148.9780 C   0  0  1  0  0  3  0  0  0  0  0  0
  160.3150  202.5190  149.3870 C   0  0  0  0  0  2  0  0  0  0  0  0
  160.8770  201.6220  150.4730 C   0  0  0  0  0  1  0  0  0  0  0  0
  161.6170  203.5640  147.5860 O   0  0  0  0  0  0  0  0  0  0  0  0
  161.1780  202.3450  147.0390 C   0  0  0  0  0  2  0  0  0  0  0  0
  160.0580  201.4890  144.9510 C   0  0  0  0  0  1  0  0  0  0  0  0
  160.7480  202.5470  145.6660 N   0  0  0  0  0  0  0  0  0  0  0  0
  161.0870  204.8690  144.5330 C   0  0  0  0  0  3  0  0  0  0  0  0
  160.9300  203.7940  145.0580 C   0  0  0  0  0  0  0  0  0  0  0  0
  161.9250  205.3480  150.7330 C   0  0  0  0  0  2  0  0  0  0  0  0
  161.1010  205.0450  152.3330 S   0  0  0  0  0  0  0  0  0  0  0  0
  161.3550  206.7550  152.8830 C   0  0  0  0  0  2  0  0  0  0  0  0
  160.9750  206.8860  154.3470 C   0  0  0  0  0  2  0  0  0  0  0  0
  160.7010  208.3380  154.6970 C   0  0  0  0  0  2  0  0  0  0  0  0
  160.9240  209.4010  153.2400 S   0  0  0  0  0  0  0  0  0  0  0  0
  161.1450  210.8860  154.2580 C   0  0  0  0  0  2  0  0  0  0  0  0
  159.8780  211.7130  154.2270 C   0  0  0  0  0  2  0  0  0  0  0  0
  159.0060  211.2530  153.0790 C   0  0  0  0  0  2  0  0  0  0  0  0
  158.6390  212.4420  152.2150 C   0  0  0  0  0  2  0  0  0  0  0  0
  159.8550  212.8930  151.4360 C   0  0  0  0  0  1  0  0  0  0  0  0
  1 15  1  1  0  0  0
  2  3  2  0  0  0  0
  3  1  1  0  0  0  0
  4  3  1  0  0  0  0
  4  5  1  0  0  0  0
  6  7  1  6  0  0  0
  6  1  1  0  0  0  0
  7  8  1  0  0  0  0
  9  6  1  0  0  0  0
 10  9  1  0  0  0  0
 11 12  1  0  0  0  0
 12 10  1  0  0  0  0
 13 14  3  0  0  0  0
 14 12  1  0  0  0  0
 15 16  1  0  0  0  0
 16 17  1  0  0  0  0
 17 18  1  0  0  0  0
 18 19  1  0  0  0  0
 20 21  1  0  0  0  0
 20 19  1  0  0  0  0
 22 21  1  0  0  0  0
 23 22  1  0  0  0  0
 24 23  1  0  0  0  0
 25 24  1  0  0  0  0
M  END
>  <MODEL>
7

>  <REMARK>
 VINA RESULT:      -5.0      3.513      8.884
  Name = 
  18 active torsions:
  status: ('A' for Active; 'I' for Inactive)
    1  A    between atoms: C_1  and  C_3
    2  A    between atoms: C_1  and  C_18
    3  A    between atoms: C_1  and  C_24
    4  A    between atoms: C_2  and  C_7
    5  A    between atoms: C_2  and  C_25
    6  A    between atoms: C_3  and  S_16
    7  A    between atoms: O_4  and  C_18
    8  A    between atoms: O_4  and  C_19
    9  A    between atoms: S_6  and  C_15
   10  A    between atoms: S_6  and  C_21
   11  A    between atoms: N_10  and  C_11
   12  A    between atoms: N_10  and  C_19
   13  A    between atoms: O_13  and  C_24
   14  A    between atoms: C_15  and  C_20
   15  A    between atoms: S_16  and  C_23
   16  A    between atoms: C_17  and  C_18
   17  A    between atoms: C_20  and  C_23
   18  A    between atoms: C_21  and  C_25
                            x       y       z     vdW  Elec       q    Type
                         _______ _______ _______ _____ _____    ______ ____

>  <TORSDO>
F 18

$$$$
=
 OpenBabel11052422223D

 25 24  0  0  1  0  0  0  0  0999 V2000
  161.5140  204.7400  149.4230 C   0  0  1  0  0  3  0  0  0  0  0  0
  161.8200  203.3860  147.4660 O   0  0  0  0  0  0  0  0  0  0  0  0
  161.2600  203.5200  148.5890 C   0  0  0  0  0  0  0  0  0  0  0  0
  160.3700  202.5540  149.0580 O   0  0  0  0  0  0  0  0  0  0  0  0
  160.8180  201.3490  149.6580 C   0  0  0  0  0  1  0  0  0  0  0  0
  161.6500  206.0240  148.5800 C   0  0  1  0  0  3  0  0  0  0  0  0
  160.3740  206.3730  147.8070 C   0  0  0  0  0  2  0  0  0  0  0  0
  160.6280  206.2970  146.3150 C   0  0  0  0  0  1  0  0  0  0  0  0
  162.1650  207.1240  149.3100 O   0  0  0  0  0  0  0  0  0  0  0  0
  162.1200  208.2750  148.5020 C   0  0  0  0  0  2  0  0  0  0  0  0
  162.1230  209.3420  150.7830 C   0  0  0  0  0  1  0  0  0  0  0  0
  162.0760  209.4620  149.3370 N   0  0  0  0  0  0  0  0  0  0  0  0
  162.0600  211.8220  148.2330 C   0  0  0  0  0  3  0  0  0  0  0  0
  162.0680  210.7290  148.7440 C   0  0  0  0  0  0  0  0  0  0  0  0
  160.4810  204.8660  150.5450 C   0  0  0  0  0  2  0  0  0  0  0  0
  161.1470  204.3660  152.1700 S   0  0  0  0  0  0  0  0  0  0  0  0
  161.5680  206.0740  152.6160 C   0  0  0  0  0  2  0  0  0  0  0  0
  160.7890  206.4900  153.8500 C   0  0  0  0  0  2  0  0  0  0  0  0
  161.1900  207.8890  154.2860 C   0  0  0  0  0  2  0  0  0  0  0  0
  160.5510  208.2480  155.9490 S   0  0  0  0  0  0  0  0  0  0  0  0
  161.0520  209.9890  155.8510 C   0  0  0  0  0  2  0  0  0  0  0  0
  161.2610  210.3740  154.4030 C   0  0  0  0  0  2  0  0  0  0  0  0
  160.4050  211.5790  154.0750 C   0  0  0  0  0  2  0  0  0  0  0  0
  159.6170  211.3080  152.8100 C   0  0  0  0  0  2  0  0  0  0  0  0
  159.9560  212.3540  151.7710 C   0  0  0  0  0  1  0  0  0  0  0  0
  1 15  1  1  0  0  0
  2  3  2  0  0  0  0
  3  4  1  0  0  0  0
  3  1  1  0  0  0  0
  4  5  1  0  0  0  0
  6  7  1  1  0  0  0
  6  9  1  0  0  0  0
  6  1  1  0  0  0  0
  8  7  1  0  0  0  0
 10  9  1  0  0  0  0
 10 12  1  0  0  0  0
 12 11  1  0  0  0  0
 13 14  3  0  0  0  0
 14 12  1  0  0  0  0
 15 16  1  0  0  0  0
 16 17  1  0  0  0  0
 17 18  1  0  0  0  0
 18 19  1  0  0  0  0
 19 20  1  0  0  0  0
 21 20  1  0  0  0  0
 22 21  1  0  0  0  0
 23 22  1  0  0  0  0
 24 23  1  0  0  0  0
 25 24  1  0  0  0  0
M  END
>  <MODEL>
8

>  <REMARK>
 VINA RESULT:      -4.9      2.913      7.446
  Name = 
  18 active torsions:
  status: ('A' for Active; 'I' for Inactive)
    1  A    between atoms: C_1  and  C_3
    2  A    between atoms: C_1  and  C_18
    3  A    between atoms: C_1  and  C_24
    4  A    between atoms: C_2  and  C_7
    5  A    between atoms: C_2  and  C_25
    6  A    between atoms: C_3  and  S_16
    7  A    between atoms: O_4  and  C_18
    8  A    between atoms: O_4  and  C_19
    9  A    between atoms: S_6  and  C_15
   10  A    between atoms: S_6  and  C_21
   11  A    between atoms: N_10  and  C_11
   12  A    between atoms: N_10  and  C_19
   13  A    between atoms: O_13  and  C_24
   14  A    between atoms: C_15  and  C_20
   15  A    between atoms: S_16  and  C_23
   16  A    between atoms: C_17  and  C_18
   17  A    between atoms: C_20  and  C_23
   18  A    between atoms: C_21  and  C_25
                            x       y       z     vdW  Elec       q    Type
                         _______ _______ _______ _____ _____    ______ ____

>  <TORSDO>
F 18

$$$$
=
 OpenBabel11052422223D

 25 24  0  0  1  0  0  0  0  0999 V2000
  160.9000  205.5260  150.3090 C   0  0  1  0  0  3  0  0  0  0  0  0
  160.0970  206.5320  148.2830 O   0  0  0  0  0  0  0  0  0  0  0  0
  161.0020  206.4880  149.1620 C   0  0  0  0  0  0  0  0  0  0  0  0
  162.1260  207.3080  149.0650 O   0  0  0  0  0  0  0  0  0  0  0  0
  162.0170  208.7090  148.8630 C   0  0  0  0  0  1  0  0  0  0  0  0
  161.2730  204.0830  149.9140 C   0  0  1  0  0  3  0  0  0  0  0  0
  160.9400  203.0580  151.0030 C   0  0  0  0  0  2  0  0  0  0  0  0
  160.7010  201.6960  150.3830 C   0  0  0  0  0  1  0  0  0  0  0  0
  160.7850  203.7050  148.6400 O   0  0  0  0  0  0  0  0  0  0  0  0
  161.8740  203.4640  147.7820 C   0  0  0  0  0  2  0  0  0  0  0  0
  161.7090  204.7540  145.6250 C   0  0  0  0  0  1  0  0  0  0  0  0
  161.4410  203.5550  146.3990 N   0  0  0  0  0  0  0  0  0  0  0  0
  160.3120  201.5030  145.2570 C   0  0  0  0  0  3  0  0  0  0  0  0
  160.8350  202.4530  145.7860 C   0  0  0  0  0  0  0  0  0  0  0  0
  161.6750  206.0360  151.5260 C   0  0  0  0  0  2  0  0  0  0  0  0
  160.9260  207.5300  152.2590 S   0  0  0  0  0  0  0  0  0  0  0  0
  161.5270  207.1190  153.9210 C   0  0  0  0  0  2  0  0  0  0  0  0
  160.3660  207.1020  154.8980 C   0  0  0  0  0  2  0  0  0  0  0  0
  160.8020  207.6380  156.2500 C   0  0  0  0  0  2  0  0  0  0  0  0
  161.7330  209.1860  156.0550 S   0  0  0  0  0  0  0  0  0  0  0  0
  160.2810  210.2010  156.4470 C   0  0  0  0  0  2  0  0  0  0  0  0
  159.5560  210.5600  155.1680 C   0  0  0  0  0  2  0  0  0  0  0  0
  160.5680  210.8110  154.0700 C   0  0  0  0  0  2  0  0  0  0  0  0
  160.0410  211.8770  153.1330 C   0  0  0  0  0  2  0  0  0  0  0  0
  158.5950  211.5850  152.7980 C   0  0  0  0  0  1  0  0  0  0  0  0
  1 15  1  1  0  0  0
  2  3  2  0  0  0  0
  3  1  1  0  0  0  0
  4  3  1  0  0  0  0
  5  4  1  0  0  0  0
  6  1  1  0  0  0  0
  6  7  1  1  0  0  0
  8  7  1  0  0  0  0
  9  6  1  0  0  0  0
 10  9  1  0  0  0  0
 11 12  1  0  0  0  0
 12 10  1  0  0  0  0
 13 14  3  0  0  0  0
 14 12  1  0  0  0  0
 15 16  1  0  0  0  0
 16 17  1  0  0  0  0
 17 18  1  0  0  0  0
 18 19  1  0  0  0  0
 20 19  1  0  0  0  0
 20 21  1  0  0  0  0
 22 21  1  0  0  0  0
 23 22  1  0  0  0  0
 24 23  1  0  0  0  0
 25 24  1  0  0  0  0
M  END
>  <MODEL>
9

>  <REMARK>
 VINA RESULT:      -4.9      3.213      8.841
  Name = 
  18 active torsions:
  status: ('A' for Active; 'I' for Inactive)
    1  A    between atoms: C_1  and  C_3
    2  A    between atoms: C_1  and  C_18
    3  A    between atoms: C_1  and  C_24
    4  A    between atoms: C_2  and  C_7
    5  A    between atoms: C_2  and  C_25
    6  A    between atoms: C_3  and  S_16
    7  A    between atoms: O_4  and  C_18
    8  A    between atoms: O_4  and  C_19
    9  A    between atoms: S_6  and  C_15
   10  A    between atoms: S_6  and  C_21
   11  A    between atoms: N_10  and  C_11
   12  A    between atoms: N_10  and  C_19
   13  A    between atoms: O_13  and  C_24
   14  A    between atoms: C_15  and  C_20
   15  A    between atoms: S_16  and  C_23
   16  A    between atoms: C_17  and  C_18
   17  A    between atoms: C_20  and  C_23
   18  A    between atoms: C_21  and  C_25
                            x       y       z     vdW  Elec       q    Type
                         _______ _______ _______ _____ _____    ______ ____

>  <TORSDO>
F 18

$$$$
