=
 OpenBabel11052422123D

 25 28  0  0  1  0  0  0  0  0999 V2000
  161.3540  204.7870  148.6320 C   0  0  0  0  0  0  0  0  0  0  0  0
  161.3630  205.7970  149.5990 C   0  0  0  0  0  0  0  0  0  0  0  0
  162.0720  206.3020  146.8870 C   0  0  0  0  0  3  0  0  0  0  0  0
  161.0460  203.4450  148.6920 C   0  0  0  0  0  0  0  0  0  0  0  0
  161.5900  206.4680  152.0300 C   0  0  2  0  0  0  0  0  0  0  0  0
  161.0310  200.6380  148.2730 C   0  0  0  0  0  2  0  0  0  0  0  0
  162.0780  207.3420  147.8330 C   0  0  0  0  0  3  0  0  0  0  0  0
  161.2610  202.9630  147.4140 C   0  0  0  0  0  0  0  0  0  0  0  0
  161.0370  201.5350  147.0260 C   0  0  0  0  0  2  0  0  0  0  0  0
  161.7410  208.1790  150.1780 C   0  0  0  0  0  0  0  0  0  0  0  0
  161.8990  209.3780  149.8320 O   0  0  0  0  0  0  0  0  0  0  0  0
  160.9010  205.5440  151.0110 C   0  0  0  0  0  2  0  0  0  0  0  0
  160.1550  201.2320  149.3860 C   0  0  0  0  0  2  0  0  0  0  0  0
  161.7060  205.0310  147.3240 C   0  0  0  0  0  0  0  0  0  0  0  0
  161.6440  203.9320  146.6050 O   0  0  0  0  0  0  0  0  0  0  0  0
  161.5580  207.8530  151.5590 N   0  0  0  0  0  2  0  0  0  0  0  0
  160.7070  202.5820  149.8670 C   0  0  0  0  0  2  0  0  0  0  0  0
  163.0420  206.0450  152.2140 C   0  0  0  0  0  1  0  0  0  0  0  0
  161.7250  207.0970  149.1810 C   0  0  0  0  0  0  0  0  0  0  0  0
  160.8580  206.4000  153.3690 C   0  0  0  0  0  2  0  0  0  0  0  0
  160.8000  207.7460  154.0880 C   0  0  0  0  0  2  0  0  0  0  0  0
  160.3920  207.5570  155.5400 C   0  0  0  0  0  2  0  0  0  0  0  0
  160.6280  208.7980  156.3450 C   0  0  0  0  0  0  0  0  0  0  0  0
  159.6830  209.9420  156.2180 C   0  0  0  0  0  1  0  0  0  0  0  0
  161.8530  208.9690  157.0730 S   0  0  0  0  0  0  0  0  0  0  0  0
  1  4  1  0  0  0  0
  1  2  1  0  0  0  0
  2 12  1  0  0  0  0
  3 14  1  0  0  0  0
  3  7  2  0  0  0  0
  4 17  1  0  0  0  0
  5 18  1  1  0  0  0
  5 20  1  0  0  0  0
  6 13  1  0  0  0  0
  7 19  1  0  0  0  0
  8  4  2  0  0  0  0
  9  8  1  0  0  0  0
  9  6  1  0  0  0  0
 10 16  1  0  0  0  0
 11 10  2  0  0  0  0
 12  5  1  0  0  0  0
 13 17  1  0  0  0  0
 14  1  2  0  0  0  0
 15 14  1  0  0  0  0
 15  8  1  0  0  0  0
 16  5  1  0  0  0  0
 19  2  2  0  0  0  0
 19 10  1  0  0  0  0
 20 21  1  0  0  0  0
 21 22  1  0  0  0  0
 22 23  1  0  0  0  0
 23 25  2  0  0  0  0
 24 23  1  0  0  0  0
M  END
>  <MODEL>
1

>  <REMARK>
 VINA RESULT:      -9.5      0.000      0.000
  Name = 
  4 active torsions:
  status: ('A' for Active; 'I' for Inactive)
    1  A    between atoms: C_2  and  C_21
    2  A    between atoms: C_6  and  C_15
    3  A    between atoms: C_15  and  C_25
    4  A    between atoms: C_21  and  C_25
                            x       y       z     vdW  Elec       q    Type
                         _______ _______ _______ _____ _____    ______ ____

>  <TORSDO>
F 4

$$$$
=
 OpenBabel11052422123D

 25 28  0  0  1  0  0  0  0  0999 V2000
  161.0040  206.8060  152.0670 C   0  0  0  0  0  0  0  0  0  0  0  0
  160.9620  206.2000  150.8090 C   0  0  0  0  0  0  0  0  0  0  0  0
  161.1730  204.6780  153.2070 C   0  0  0  0  0  3  0  0  0  0  0  0
  160.9630  208.1250  152.4660 C   0  0  0  0  0  0  0  0  0  0  0  0
  161.4020  206.3400  148.3190 C   0  0  2  0  0  0  0  0  0  0  0  0
  161.4120  210.5620  153.8510 C   0  0  0  0  0  2  0  0  0  0  0  0
  161.1190  204.0370  151.9570 C   0  0  0  0  0  3  0  0  0  0  0  0
  161.0810  208.0940  153.8430 C   0  0  0  0  0  0  0  0  0  0  0  0
  161.0740  209.3240  154.6960 C   0  0  0  0  0  2  0  0  0  0  0  0
  160.9680  204.1240  149.4500 C   0  0  0  0  0  0  0  0  0  0  0  0
  160.8490  202.8750  149.3590 O   0  0  0  0  0  0  0  0  0  0  0  0
  160.7600  207.0040  149.5500 C   0  0  0  0  0  2  0  0  0  0  0  0
  160.6070  210.5830  152.5420 C   0  0  0  0  0  2  0  0  0  0  0  0
  161.1150  206.0700  153.2250 C   0  0  0  0  0  0  0  0  0  0  0  0
  161.1570  206.8520  154.2810 O   0  0  0  0  0  0  0  0  0  0  0  0
  161.0460  204.9220  148.2650 N   0  0  0  0  0  2  0  0  0  0  0  0
  160.9610  209.3820  151.6530 C   0  0  0  0  0  2  0  0  0  0  0  0
  162.9200  206.4640  148.3960 C   0  0  0  0  0  1  0  0  0  0  0  0
  161.0130  204.7880  150.7630 C   0  0  0  0  0  0  0  0  0  0  0  0
  160.8930  207.0110  147.0440 C   0  0  0  0  0  2  0  0  0  0  0  0
  160.1610  206.0460  146.1130 C   0  0  0  0  0  2  0  0  0  0  0  0
  161.0340  205.6960  144.9180 C   0  0  0  0  0  2  0  0  0  0  0  0
  161.7630  204.4040  145.1290 C   0  0  0  0  0  0  0  0  0  0  0  0
  160.9900  203.1350  145.2220 C   0  0  0  0  0  1  0  0  0  0  0  0
  163.1640  204.4050  145.4420 S   0  0  0  0  0  0  0  0  0  0  0  0
  1  4  1  0  0  0  0
  1 14  1  0  0  0  0
  2  1  2  0  0  0  0
  3 14  2  0  0  0  0
  4  8  2  0  0  0  0
  5 18  1  1  0  0  0
  5 12  1  0  0  0  0
  6  9  1  0  0  0  0
  7  3  1  0  0  0  0
  8 15  1  0  0  0  0
  8  9  1  0  0  0  0
 10 19  1  0  0  0  0
 11 10  2  0  0  0  0
 12  2  1  0  0  0  0
 13  6  1  0  0  0  0
 14 15  1  0  0  0  0
 16  5  1  0  0  0  0
 16 10  1  0  0  0  0
 17  4  1  0  0  0  0
 17 13  1  0  0  0  0
 19  2  1  0  0  0  0
 19  7  2  0  0  0  0
 20  5  1  0  0  0  0
 21 20  1  0  0  0  0
 22 23  1  0  0  0  0
 22 21  1  0  0  0  0
 23 24  1  0  0  0  0
 23 25  2  0  0  0  0
M  END
>  <MODEL>
2

>  <REMARK>
 VINA RESULT:      -8.3      3.355      7.781
  Name = 
  4 active torsions:
  status: ('A' for Active; 'I' for Inactive)
    1  A    between atoms: C_2  and  C_21
    2  A    between atoms: C_6  and  C_15
    3  A    between atoms: C_15  and  C_25
    4  A    between atoms: C_21  and  C_25
                            x       y       z     vdW  Elec       q    Type
                         _______ _______ _______ _____ _____    ______ ____

>  <TORSDO>
F 4

$$$$
=
 OpenBabel11052422123D

 25 28  0  0  1  0  0  0  0  0999 V2000
  161.4830  204.7290  149.2530 C   0  0  0  0  0  0  0  0  0  0  0  0
  161.6640  205.5860  150.3420 C   0  0  0  0  0  0  0  0  0  0  0  0
  160.7310  202.9160  150.6680 C   0  0  0  0  0  3  0  0  0  0  0  0
  161.6730  204.8930  147.8980 C   0  0  0  0  0  0  0  0  0  0  0  0
  161.7470  207.9490  151.2500 C   0  0  2  0  0  0  0  0  0  0  0  0
  161.3900  204.7560  145.0770 C   0  0  0  0  0  2  0  0  0  0  0  0
  160.9150  203.7490  151.7850 C   0  0  0  0  0  3  0  0  0  0  0  0
  161.2850  203.6950  147.3270 C   0  0  0  0  0  0  0  0  0  0  0  0
  161.3390  203.4320  145.8540 C   0  0  0  0  0  2  0  0  0  0  0  0
  161.5640  205.9580  152.7920 C   0  0  0  0  0  0  0  0  0  0  0  0
  161.4800  205.5110  153.9660 O   0  0  0  0  0  0  0  0  0  0  0  0
  162.2420  206.9680  150.1730 C   0  0  0  0  0  2  0  0  0  0  0  0
  162.4260  205.7190  145.6790 C   0  0  0  0  0  2  0  0  0  0  0  0
  161.0230  203.4410  149.4120 C   0  0  0  0  0  0  0  0  0  0  0  0
  160.9120  202.8320  148.2520 O   0  0  0  0  0  0  0  0  0  0  0  0
  161.8570  207.3420  152.5760 N   0  0  0  0  0  2  0  0  0  0  0  0
  162.0500  206.1120  147.1150 C   0  0  0  0  0  2  0  0  0  0  0  0
  160.2890  208.3090  150.9920 C   0  0  0  0  0  1  0  0  0  0  0  0
  161.3800  205.0760  151.6290 C   0  0  0  0  0  0  0  0  0  0  0  0
  162.6030  209.2150  151.2300 C   0  0  0  0  0  2  0  0  0  0  0  0
  161.8960  210.4040  150.5830 C   0  0  0  0  0  2  0  0  0  0  0  0
  162.2320  210.4810  149.1020 C   0  0  0  0  0  2  0  0  0  0  0  0
  162.1580  211.8880  148.5930 C   0  0  0  0  0  0  0  0  0  0  0  0
  163.3030  212.4480  147.8220 C   0  0  0  0  0  1  0  0  0  0  0  0
  161.0950  212.7570  149.0130 S   0  0  0  0  0  0  0  0  0  0  0  0
  1 14  2  0  0  0  0
  1  2  1  0  0  0  0
  2 19  2  0  0  0  0
  3  7  2  0  0  0  0
  4  1  1  0  0  0  0
  5 18  1  6  0  0  0
  5 16  1  0  0  0  0
  6 13  1  0  0  0  0
  6  9  1  0  0  0  0
  8  4  2  0  0  0  0
  8 15  1  0  0  0  0
  9  8  1  0  0  0  0
 10 11  2  0  0  0  0
 12  2  1  0  0  0  0
 12  5  1  0  0  0  0
 13 17  1  0  0  0  0
 14  3  1  0  0  0  0
 15 14  1  0  0  0  0
 16 10  1  0  0  0  0
 17  4  1  0  0  0  0
 19  7  1  0  0  0  0
 19 10  1  0  0  0  0
 20  5  1  0  0  0  0
 21 20  1  0  0  0  0
 22 21  1  0  0  0  0
 23 25  2  0  0  0  0
 23 22  1  0  0  0  0
 24 23  1  0  0  0  0
M  END
>  <MODEL>
3

>  <REMARK>
 VINA RESULT:      -7.6      2.957      4.798
  Name = 
  4 active torsions:
  status: ('A' for Active; 'I' for Inactive)
    1  A    between atoms: C_2  and  C_21
    2  A    between atoms: C_6  and  C_15
    3  A    between atoms: C_15  and  C_25
    4  A    between atoms: C_21  and  C_25
                            x       y       z     vdW  Elec       q    Type
                         _______ _______ _______ _____ _____    ______ ____

>  <TORSDO>
F 4

$$$$
=
 OpenBabel11052422123D

 25 28  0  0  1  0  0  0  0  0999 V2000
  161.4230  204.3490  149.0740 C   0  0  0  0  0  0  0  0  0  0  0  0
  161.5940  205.1600  150.1990 C   0  0  0  0  0  0  0  0  0  0  0  0
  160.5990  202.4990  150.4000 C   0  0  0  0  0  3  0  0  0  0  0  0
  161.6490  204.5600  147.7310 C   0  0  0  0  0  0  0  0  0  0  0  0
  161.7040  207.4840  151.1990 C   0  0  2  0  0  0  0  0  0  0  0  0
  161.4320  204.5370  144.9010 C   0  0  0  0  0  2  0  0  0  0  0  0
  160.7740  203.2860  151.5520 C   0  0  0  0  0  3  0  0  0  0  0  0
  161.2510  203.3930  147.1050 C   0  0  0  0  0  0  0  0  0  0  0  0
  161.3340  203.1850  145.6250 C   0  0  0  0  0  2  0  0  0  0  0  0
  161.4420  205.4400  152.6580 C   0  0  0  0  0  0  0  0  0  0  0  0
  161.3220  204.9500  153.8110 O   0  0  0  0  0  0  0  0  0  0  0  0
  162.2050  206.5340  150.0960 C   0  0  0  0  0  2  0  0  0  0  0  0
  162.4720  205.4540  145.5630 C   0  0  0  0  0  2  0  0  0  0  0  0
  160.9320  203.0660  149.1720 C   0  0  0  0  0  0  0  0  0  0  0  0
  160.8370  202.5040  147.9870 O   0  0  0  0  0  0  0  0  0  0  0  0
  161.7690  206.8250  152.5030 N   0  0  0  0  0  2  0  0  0  0  0  0
  162.0690  205.8000  147.0040 C   0  0  0  0  0  2  0  0  0  0  0  0
  160.2600  207.8850  150.9200 C   0  0  0  0  0  1  0  0  0  0  0  0
  161.2690  204.6080  151.4580 C   0  0  0  0  0  0  0  0  0  0  0  0
  162.5850  208.7310  151.2480 C   0  0  0  0  0  2  0  0  0  0  0  0
  161.8040  210.0030  151.5680 C   0  0  0  0  0  2  0  0  0  0  0  0
  161.9300  210.3480  153.0440 C   0  0  0  0  0  2  0  0  0  0  0  0
  160.6030  210.2990  153.7360 C   0  0  0  0  0  0  0  0  0  0  0  0
  160.3880  209.3190  154.8370 C   0  0  0  0  0  1  0  0  0  0  0  0
  159.4860  211.0380  153.2180 S   0  0  0  0  0  0  0  0  0  0  0  0
  1 14  2  0  0  0  0
  1  2  1  0  0  0  0
  2 19  2  0  0  0  0
  3  7  2  0  0  0  0
  4  1  1  0  0  0  0
  5 18  1  6  0  0  0
  5 20  1  0  0  0  0
  5 16  1  0  0  0  0
  6 13  1  0  0  0  0
  6  9  1  0  0  0  0
  8  4  2  0  0  0  0
  8 15  1  0  0  0  0
  9  8  1  0  0  0  0
 10 11  2  0  0  0  0
 12  2  1  0  0  0  0
 12  5  1  0  0  0  0
 13 17  1  0  0  0  0
 14  3  1  0  0  0  0
 15 14  1  0  0  0  0
 16 10  1  0  0  0  0
 17  4  1  0  0  0  0
 19  7  1  0  0  0  0
 19 10  1  0  0  0  0
 20 21  1  0  0  0  0
 21 22  1  0  0  0  0
 22 23  1  0  0  0  0
 23 24  1  0  0  0  0
 25 23  2  0  0  0  0
M  END
>  <MODEL>
4

>  <REMARK>
 VINA RESULT:      -7.6      2.188      3.615
  Name = 
  4 active torsions:
  status: ('A' for Active; 'I' for Inactive)
    1  A    between atoms: C_2  and  C_21
    2  A    between atoms: C_6  and  C_15
    3  A    between atoms: C_15  and  C_25
    4  A    between atoms: C_21  and  C_25
                            x       y       z     vdW  Elec       q    Type
                         _______ _______ _______ _____ _____    ______ ____

>  <TORSDO>
F 4

$$$$
=
 OpenBabel11052422123D

 25 28  0  0  1  0  0  0  0  0999 V2000
  161.3020  208.5600  152.4600 C   0  0  0  0  0  0  0  0  0  0  0  0
  161.5760  207.7530  151.3530 C   0  0  0  0  0  0  0  0  0  0  0  0
  161.7010  210.5940  151.2120 C   0  0  0  0  0  3  0  0  0  0  0  0
  160.9440  208.2680  153.7580 C   0  0  0  0  0  0  0  0  0  0  0  0
  161.2290  205.5640  150.1270 C   0  0  2  0  0  0  0  0  0  0  0  0
  159.7470  208.3450  156.3310 C   0  0  0  0  0  2  0  0  0  0  0  0
  161.9950  209.8100  150.0830 C   0  0  0  0  0  3  0  0  0  0  0  0
  160.7750  209.4930  154.3760 C   0  0  0  0  0  0  0  0  0  0  0  0
  160.3890  209.6420  155.8140 C   0  0  0  0  0  2  0  0  0  0  0  0
  162.2300  207.5710  148.9670 C   0  0  0  0  0  0  0  0  0  0  0  0
  162.7080  208.0810  147.9200 O   0  0  0  0  0  0  0  0  0  0  0  0
  161.5950  206.2490  151.4560 C   0  0  0  0  0  2  0  0  0  0  0  0
  160.5720  207.1130  155.9270 C   0  0  0  0  0  2  0  0  0  0  0  0
  161.3540  209.9340  152.3880 C   0  0  0  0  0  0  0  0  0  0  0  0
  161.0400  210.4800  153.5420 O   0  0  0  0  0  0  0  0  0  0  0  0
  161.9800  206.1630  149.0250 N   0  0  0  0  0  2  0  0  0  0  0  0
  160.6200  206.9540  154.4000 C   0  0  0  0  0  2  0  0  0  0  0  0
  159.7380  205.7270  149.8540 C   0  0  0  0  0  1  0  0  0  0  0  0
  161.9360  208.3980  150.1480 C   0  0  0  0  0  0  0  0  0  0  0  0
  161.5810  204.0790  150.1960 C   0  0  0  0  0  2  0  0  0  0  0  0
  160.6730  203.2080  149.3310 C   0  0  0  0  0  2  0  0  0  0  0  0
  161.2070  203.1310  147.9090 C   0  0  0  0  0  2  0  0  0  0  0  0
  160.9250  201.7990  147.2860 C   0  0  0  0  0  0  0  0  0  0  0  0
  161.2060  200.5560  148.0580 C   0  0  0  0  0  1  0  0  0  0  0  0
  160.5850  201.7050  145.8940 S   0  0  0  0  0  0  0  0  0  0  0  0
  1  4  1  0  0  0  0
  2 12  1  0  0  0  0
  2  1  2  0  0  0  0
  3 14  2  0  0  0  0
  4  8  2  0  0  0  0
  4 17  1  0  0  0  0
  5 18  1  6  0  0  0
  5 20  1  0  0  0  0
  5 12  1  0  0  0  0
  7 19  2  0  0  0  0
  7  3  1  0  0  0  0
  8  9  1  0  0  0  0
  9  6  1  0  0  0  0
 10 16  1  0  0  0  0
 10 19  1  0  0  0  0
 11 10  2  0  0  0  0
 13  6  1  0  0  0  0
 14  1  1  0  0  0  0
 14 15  1  0  0  0  0
 15  8  1  0  0  0  0
 16  5  1  0  0  0  0
 17 13  1  0  0  0  0
 19  2  1  0  0  0  0
 21 20  1  0  0  0  0
 22 21  1  0  0  0  0
 23 22  1  0  0  0  0
 23 24  1  0  0  0  0
 25 23  2  0  0  0  0
M  END
>  <MODEL>
5

>  <REMARK>
 VINA RESULT:      -7.4      3.148      7.483
  Name = 
  4 active torsions:
  status: ('A' for Active; 'I' for Inactive)
    1  A    between atoms: C_2  and  C_21
    2  A    between atoms: C_6  and  C_15
    3  A    between atoms: C_15  and  C_25
    4  A    between atoms: C_21  and  C_25
                            x       y       z     vdW  Elec       q    Type
                         _______ _______ _______ _____ _____    ______ ____

>  <TORSDO>
F 4

$$$$
=
 OpenBabel11052422123D

 25 28  0  0  1  0  0  0  0  0999 V2000
  161.0800  207.9050  153.1410 C   0  0  0  0  0  0  0  0  0  0  0  0
  160.9210  209.2690  153.4000 C   0  0  0  0  0  0  0  0  0  0  0  0
  161.1730  207.3590  155.4960 C   0  0  0  0  0  3  0  0  0  0  0  0
  161.1520  207.1820  151.9700 C   0  0  0  0  0  0  0  0  0  0  0  0
  160.0500  211.5290  152.6580 C   0  0  2  0  0  0  0  0  0  0  0  0
  160.8790  205.1480  150.0100 C   0  0  0  0  0  2  0  0  0  0  0  0
  161.0280  208.7260  155.7900 C   0  0  0  0  0  3  0  0  0  0  0  0
  161.2750  205.8620  152.3610 C   0  0  0  0  0  0  0  0  0  0  0  0
  161.3950  204.7260  151.3940 C   0  0  0  0  0  2  0  0  0  0  0  0
  160.7390  211.1100  155.0520 C   0  0  0  0  0  0  0  0  0  0  0  0
  160.8760  211.5480  156.2240 O   0  0  0  0  0  0  0  0  0  0  0  0
  160.8770  210.2850  152.2870 C   0  0  0  0  0  2  0  0  0  0  0  0
  161.4430  206.5150  149.5940 C   0  0  0  0  0  2  0  0  0  0  0  0
  161.1930  206.9810  154.1560 C   0  0  0  0  0  0  0  0  0  0  0  0
  161.3120  205.7640  153.6760 O   0  0  0  0  0  0  0  0  0  0  0  0
  160.4330  212.0130  153.9850 N   0  0  0  0  0  2  0  0  0  0  0  0
  160.9750  207.6220  150.5490 C   0  0  0  0  0  2  0  0  0  0  0  0
  158.5670  211.1800  152.6700 C   0  0  0  0  0  1  0  0  0  0  0  0
  160.9030  209.6790  154.7520 C   0  0  0  0  0  0  0  0  0  0  0  0
  160.3110  212.6440  151.6470 C   0  0  0  0  0  2  0  0  0  0  0  0
  159.0280  213.2690  151.1040 C   0  0  0  0  0  2  0  0  0  0  0  0
  159.2920  213.9490  149.7690 C   0  0  0  0  0  2  0  0  0  0  0  0
  158.2970  213.5300  148.7310 C   0  0  0  0  0  0  0  0  0  0  0  0
  156.8990  213.2210  149.1410 C   0  0  0  0  0  1  0  0  0  0  0  0
  158.7250  213.2300  147.3940 S   0  0  0  0  0  0  0  0  0  0  0  0
  1  2  2  0  0  0  0
  1 14  1  0  0  0  0
  2 19  1  0  0  0  0
  3  7  1  0  0  0  0
  4  8  2  0  0  0  0
  4  1  1  0  0  0  0
  5 18  1  6  0  0  0
  5 16  1  0  0  0  0
  6  9  1  0  0  0  0
  8 15  1  0  0  0  0
  9  8  1  0  0  0  0
 10 11  2  0  0  0  0
 12  5  1  0  0  0  0
 12  2  1  0  0  0  0
 13  6  1  0  0  0  0
 13 17  1  0  0  0  0
 14  3  2  0  0  0  0
 15 14  1  0  0  0  0
 16 10  1  0  0  0  0
 17  4  1  0  0  0  0
 19 10  1  0  0  0  0
 19  7  2  0  0  0  0
 20  5  1  0  0  0  0
 21 20  1  0  0  0  0
 22 21  1  0  0  0  0
 23 24  1  0  0  0  0
 23 22  1  0  0  0  0
 25 23  2  0  0  0  0
M  END
>  <MODEL>
6

>  <REMARK>
 VINA RESULT:      -7.2      4.332      6.775
  Name = 
  4 active torsions:
  status: ('A' for Active; 'I' for Inactive)
    1  A    between atoms: C_2  and  C_21
    2  A    between atoms: C_6  and  C_15
    3  A    between atoms: C_15  and  C_25
    4  A    between atoms: C_21  and  C_25
                            x       y       z     vdW  Elec       q    Type
                         _______ _______ _______ _____ _____    ______ ____

>  <TORSDO>
F 4

$$$$
=
 OpenBabel11052422123D

 25 28  0  0  1  0  0  0  0  0999 V2000
  160.5420  208.5250  153.6930 C   0  0  0  0  0  0  0  0  0  0  0  0
  160.8120  207.6370  152.6470 C   0  0  0  0  0  0  0  0  0  0  0  0
  160.9500  206.8360  155.3760 C   0  0  0  0  0  3  0  0  0  0  0  0
  160.1840  209.8550  153.7140 C   0  0  0  0  0  0  0  0  0  0  0  0
  161.5890  207.2640  150.2660 C   0  0  2  0  0  0  0  0  0  0  0  0
  159.9310  212.5920  154.4240 C   0  0  0  0  0  2  0  0  0  0  0  0
  161.2130  205.9140  154.3470 C   0  0  0  0  0  3  0  0  0  0  0  0
  160.0950  210.1890  155.0530 C   0  0  0  0  0  0  0  0  0  0  0  0
  159.7180  211.5540  155.5360 C   0  0  0  0  0  2  0  0  0  0  0  0
  161.4310  205.3520  151.9080 C   0  0  0  0  0  0  0  0  0  0  0  0
  161.5740  204.1240  152.1470 O   0  0  0  0  0  0  0  0  0  0  0  0
  160.6500  208.0420  151.2050 C   0  0  0  0  0  2  0  0  0  0  0  0
  159.3460  212.1090  153.0880 C   0  0  0  0  0  2  0  0  0  0  0  0
  160.6190  208.1380  155.0120 C   0  0  0  0  0  0  0  0  0  0  0  0
  160.3460  209.1420  155.8150 O   0  0  0  0  0  0  0  0  0  0  0  0
  161.5300  205.8330  150.5640 N   0  0  0  0  0  2  0  0  0  0  0  0
  160.0590  210.8420  152.5940 C   0  0  0  0  0  2  0  0  0  0  0  0
  163.0230  207.7470  150.4510 C   0  0  0  0  0  1  0  0  0  0  0  0
  161.1450  206.3070  152.9900 C   0  0  0  0  0  0  0  0  0  0  0  0
  161.1580  207.4690  148.8150 C   0  0  0  0  0  2  0  0  0  0  0  0
  160.4720  206.2430  148.2170 C   0  0  0  0  0  2  0  0  0  0  0  0
  160.9420  206.0140  146.7890 C   0  0  0  0  0  2  0  0  0  0  0  0
  161.7640  204.7670  146.6730 C   0  0  0  0  0  0  0  0  0  0  0  0
  161.6680  203.7270  147.7350 C   0  0  0  0  0  1  0  0  0  0  0  0
  162.7830  204.6600  145.6660 S   0  0  0  0  0  0  0  0  0  0  0  0
  1  4  1  0  0  0  0
  1 14  1  0  0  0  0
  2 19  1  0  0  0  0
  2  1  2  0  0  0  0
  4  8  2  0  0  0  0
  5 18  1  1  0  0  0
  5 16  1  0  0  0  0
  5 12  1  0  0  0  0
  6  9  1  0  0  0  0
  7  3  1  0  0  0  0
  8  9  1  0  0  0  0
  8 15  1  0  0  0  0
 10 11  2  0  0  0  0
 10 19  1  0  0  0  0
 12  2  1  0  0  0  0
 13  6  1  0  0  0  0
 14  3  2  0  0  0  0
 14 15  1  0  0  0  0
 16 10  1  0  0  0  0
 17 13  1  0  0  0  0
 17  4  1  0  0  0  0
 19  7  2  0  0  0  0
 20  5  1  0  0  0  0
 21 20  1  0  0  0  0
 22 21  1  0  0  0  0
 23 22  1  0  0  0  0
 23 24  1  0  0  0  0
 25 23  2  0  0  0  0
M  END
>  <MODEL>
7

>  <REMARK>
 VINA RESULT:      -6.9      3.399      8.232
  Name = 
  4 active torsions:
  status: ('A' for Active; 'I' for Inactive)
    1  A    between atoms: C_2  and  C_21
    2  A    between atoms: C_6  and  C_15
    3  A    between atoms: C_15  and  C_25
    4  A    between atoms: C_21  and  C_25
                            x       y       z     vdW  Elec       q    Type
                         _______ _______ _______ _____ _____    ______ ____

>  <TORSDO>
F 4

$$$$
=
 OpenBabel11052422123D

 25 28  0  0  1  0  0  0  0  0999 V2000
  161.0870  206.3240  152.1190 C   0  0  0  0  0  0  0  0  0  0  0  0
  161.1920  206.4210  150.7290 C   0  0  0  0  0  0  0  0  0  0  0  0
  161.0450  203.9050  152.0550 C   0  0  0  0  0  3  0  0  0  0  0  0
  161.0320  207.2730  153.1160 C   0  0  0  0  0  0  0  0  0  0  0  0
  161.9580  207.7270  148.6990 C   0  0  2  0  0  0  0  0  0  0  0  0
  161.3660  208.6620  155.5690 C   0  0  0  0  0  2  0  0  0  0  0  0
  161.1360  203.9690  150.6530 C   0  0  0  0  0  3  0  0  0  0  0  0
  160.9680  206.5580  154.2980 C   0  0  0  0  0  0  0  0  0  0  0  0
  160.8850  207.2050  155.6460 C   0  0  0  0  0  2  0  0  0  0  0  0
  161.3170  205.2910  148.5240 C   0  0  0  0  0  0  0  0  0  0  0  0
  161.1750  204.2650  147.8090 O   0  0  0  0  0  0  0  0  0  0  0  0
  161.1800  207.7540  150.0260 C   0  0  0  0  0  2  0  0  0  0  0  0
  160.7400  209.3960  154.3730 C   0  0  0  0  0  2  0  0  0  0  0  0
  161.0250  205.1060  152.7590 C   0  0  0  0  0  0  0  0  0  0  0  0
  160.9510  205.2610  154.0620 O   0  0  0  0  0  0  0  0  0  0  0  0
  161.5720  206.5580  147.9090 N   0  0  0  0  0  2  0  0  0  0  0  0
  161.1730  208.7620  153.0430 C   0  0  0  0  0  2  0  0  0  0  0  0
  163.4550  207.6610  148.9770 C   0  0  0  0  0  1  0  0  0  0  0  0
  161.2080  205.2170  149.9890 C   0  0  0  0  0  0  0  0  0  0  0  0
  161.6390  208.9810  147.8860 C   0  0  0  0  0  2  0  0  0  0  0  0
  161.9560  210.2740  148.6330 C   0  0  0  0  0  2  0  0  0  0  0  0
  161.2480  211.4520  147.9820 C   0  0  0  0  0  2  0  0  0  0  0  0
  162.0570  212.7080  148.0870 C   0  0  0  0  0  0  0  0  0  0  0  0
  163.5320  212.6470  147.8860 C   0  0  0  0  0  1  0  0  0  0  0  0
  161.4590  213.9190  148.5760 S   0  0  0  0  0  0  0  0  0  0  0  0
  1 14  1  0  0  0  0
  1  4  1  0  0  0  0
  2  1  2  0  0  0  0
  3 14  2  0  0  0  0
  4  8  2  0  0  0  0
  5 18  1  1  0  0  0
  5 12  1  0  0  0  0
  6  9  1  0  0  0  0
  7  3  1  0  0  0  0
  8  9  1  0  0  0  0
 10 19  1  0  0  0  0
 11 10  2  0  0  0  0
 12  2  1  0  0  0  0
 13  6  1  0  0  0  0
 14 15  1  0  0  0  0
 15  8  1  0  0  0  0
 16 10  1  0  0  0  0
 16  5  1  0  0  0  0
 17  4  1  0  0  0  0
 17 13  1  0  0  0  0
 19  7  2  0  0  0  0
 19  2  1  0  0  0  0
 20 21  1  0  0  0  0
 20  5  1  0  0  0  0
 22 23  1  0  0  0  0
 22 21  1  0  0  0  0
 23 25  2  0  0  0  0
 24 23  1  0  0  0  0
M  END
>  <MODEL>
8

>  <REMARK>
 VINA RESULT:      -6.5      3.173      6.730
  Name = 
  4 active torsions:
  status: ('A' for Active; 'I' for Inactive)
    1  A    between atoms: C_2  and  C_21
    2  A    between atoms: C_6  and  C_15
    3  A    between atoms: C_15  and  C_25
    4  A    between atoms: C_21  and  C_25
                            x       y       z     vdW  Elec       q    Type
                         _______ _______ _______ _____ _____    ______ ____

>  <TORSDO>
F 4

$$$$
