=
 OpenBabel11062408143D

 32 38  0  0  1  0  0  0  0  0999 V2000
  160.8020  208.1910  153.9230 C   0  0  1  0  0  3  0  0  0  0  0  0
  160.4210  210.4570  152.8090 C   0  0  0  0  0  0  0  0  0  0  0  0
  161.2920  207.8100  155.2950 C   0  0  0  0  0  3  0  0  0  0  0  0
  160.2650  209.6110  153.9160 C   0  0  0  0  0  0  0  0  0  0  0  0
  159.8670  211.7530  152.8410 C   0  0  0  0  0  0  0  0  0  0  0  0
  162.1720  211.4480  148.2160 C   0  0  0  0  0  2  0  0  0  0  0  0
  161.1450  209.9270  151.5960 C   0  0  2  0  0  3  0  0  0  0  0  0
  160.8510  213.0080  149.4680 O   0  0  0  0  0  0  0  0  0  0  0  0
  160.4580  212.0310  150.4010 C   0  0  2  0  0  3  0  0  0  0  0  0
  159.6030  210.0860  155.0580 C   0  0  0  0  0  0  0  0  0  0  0  0
  160.1070  212.7220  151.7130 C   0  0  0  0  0  2  0  0  0  0  0  0
  159.0770  211.3370  155.0690 N   0  0  0  0  0  0  0  0  0  0  0  0
  159.4730  209.1970  156.2640 C   0  0  0  0  0  2  0  0  0  0  0  0
  162.3320  209.0870  152.0620 C   0  0  0  0  0  2  0  0  0  0  0  0
  161.8440  207.8500  152.8330 C   0  0  2  0  0  3  0  0  0  0  0  0
  161.5990  211.0230  150.6300 C   0  0  2  0  0  3  0  0  0  0  0  0
  159.1840  212.1730  154.0000 C   0  0  0  0  0  0  0  0  0  0  0  0
  160.6690  208.2800  156.3880 C   0  0  0  0  0  3  0  0  0  0  0  0
  160.9560  212.3690  148.2200 C   0  0  0  0  0  2  0  0  0  0  0  0
  161.9810  210.3850  149.2910 C   0  0  0  0  0  2  0  0  0  0  0  0
  161.1730  205.9280  149.4460 C   0  0  2  0  0  3  0  0  0  0  0  0
  161.7440  202.9990  151.3270 C   0  0  0  0  0  1  0  0  0  0  0  0
  160.3720  206.5920  148.3450 C   0  0  0  0  0  1  0  0  0  0  0  0
  160.3260  204.6240  152.6860 C   0  0  0  0  0  2  0  0  0  0  0  0
  161.2960  206.7810  151.8710 C   0  0  2  0  0  3  0  0  0  0  0  0
  160.3170  204.8610  150.1330 C   0  0  0  0  0  2  0  0  0  0  0  0
  161.6190  205.3540  152.3330 C   0  0  2  0  0  3  0  0  0  0  0  0
  161.7300  206.9960  150.4030 C   0  0  1  0  0  3  0  0  0  0  0  0
  163.2440  207.0500  150.2610 C   0  0  0  0  0  1  0  0  0  0  0  0
  161.0200  204.3270  151.3790 C   0  0  2  0  0  0  0  0  0  0  0  0
  158.6130  213.5480  154.1080 C   0  0  0  0  0  2  0  0  0  0  0  0
  157.2670  213.5280  153.7440 O   0  0  0  0  0  1  0  0  0  0  0  0
  1  3  1  1  0  0  0
  2  5  2  0  0  0  0
  2  4  1  0  0  0  0
  3 18  2  0  0  0  0
  4  1  1  0  0  0  0
  4 10  2  0  0  0  0
  5 17  1  0  0  0  0
  6 19  1  0  0  0  0
  6 20  1  0  0  0  0
  7 14  1  1  0  0  0
  7  2  1  0  0  0  0
  8  9  1  0  0  0  0
  9 16  1  0  0  0  0
  9 11  1  1  0  0  0
 10 12  1  0  0  0  0
 10 13  1  0  0  0  0
 11  5  1  0  0  0  0
 13 18  1  0  0  0  0
 15 14  1  6  0  0  0
 15  1  1  0  0  0  0
 16 20  1  6  0  0  0
 16  7  1  0  0  0  0
 17 31  1  0  0  0  0
 17 12  2  0  0  0  0
 19  8  1  0  0  0  0
 21 23  1  6  0  0  0
 21 26  1  0  0  0  0
 21 28  1  0  0  0  0
 25 27  1  0  0  0  0
 25 15  1  1  0  0  0
 26 30  1  0  0  0  0
 27 24  1  1  0  0  0
 28 29  1  1  0  0  0
 28 25  1  0  0  0  0
 30 22  1  6  0  0  0
 30 27  1  0  0  0  0
 30 24  1  0  0  0  0
 32 31  1  0  0  0  0
M  END
>  <MODEL>
1

>  <REMARK>
 VINA RESULT:      -6.7      0.000      0.000
  Name = 
  2 active torsions:
  status: ('A' for Active; 'I' for Inactive)
    1  A    between atoms: C_13  and  CA_29
    2  A    between atoms: C_16  and  C_27
                            x       y       z     vdW  Elec       q    Type
                         _______ _______ _______ _____ _____    ______ ____

>  <TORSDO>
F 2

$$$$
=
 OpenBabel11062408143D

 32 38  0  0  1  0  0  0  0  0999 V2000
  161.6400  209.6160  150.9800 C   0  0  1  0  0  3  0  0  0  0  0  0
  161.3570  207.2890  149.9690 C   0  0  0  0  0  0  0  0  0  0  0  0
  162.5930  210.7410  150.6760 C   0  0  0  0  0  3  0  0  0  0  0  0
  161.5240  208.6710  149.7990 C   0  0  0  0  0  0  0  0  0  0  0  0
  161.2150  206.4610  148.8360 C   0  0  0  0  0  0  0  0  0  0  0  0
  160.9960  203.2020  152.8510 C   0  0  0  0  0  2  0  0  0  0  0  0
  161.2920  206.7400  151.3720 C   0  0  2  0  0  3  0  0  0  0  0  0
  160.8200  203.1260  150.4620 O   0  0  0  0  0  0  0  0  0  0  0  0
  160.6720  204.5230  150.3610 C   0  0  2  0  0  3  0  0  0  0  0  0
  161.5960  209.2010  148.5020 C   0  0  0  0  0  0  0  0  0  0  0  0
  161.1410  204.9640  148.9790 C   0  0  0  0  0  2  0  0  0  0  0  0
  161.4570  208.3880  147.4250 N   0  0  0  0  0  0  0  0  0  0  0  0
  161.8190  210.6770  148.3150 C   0  0  0  0  0  2  0  0  0  0  0  0
  162.3150  207.4770  152.2340 C   0  0  0  0  0  2  0  0  0  0  0  0
  161.9490  208.9660  152.3480 C   0  0  2  0  0  3  0  0  0  0  0  0
  161.5060  205.2270  151.4450 C   0  0  2  0  0  3  0  0  0  0  0  0
  161.2630  207.0470  147.5550 C   0  0  0  0  0  0  0  0  0  0  0  0
  162.6740  211.2360  149.4290 C   0  0  0  0  0  3  0  0  0  0  0  0
  160.1820  202.7290  151.6500 C   0  0  0  0  0  2  0  0  0  0  0  0
  161.0650  204.7240  152.8240 C   0  0  0  0  0  2  0  0  0  0  0  0
  159.8490  208.7520  155.6890 C   0  0  2  0  0  3  0  0  0  0  0  0
  159.0830  212.1430  155.0880 C   0  0  0  0  0  1  0  0  0  0  0  0
  159.3560  207.4100  156.1880 C   0  0  0  0  0  1  0  0  0  0  0  0
  158.9630  210.8380  152.9010 C   0  0  0  0  0  2  0  0  0  0  0  0
  160.7790  209.1720  153.3260 C   0  0  2  0  0  3  0  0  0  0  0  0
  158.6800  209.5420  155.0950 C   0  0  0  0  0  2  0  0  0  0  0  0
  160.3730  210.6460  153.4530 C   0  0  2  0  0  3  0  0  0  0  0  0
  161.0250  208.5470  154.7190 C   0  0  1  0  0  3  0  0  0  0  0  0
  162.2980  209.0780  155.3620 C   0  0  0  0  0  1  0  0  0  0  0  0
  159.1830  210.8010  154.3930 C   0  0  2  0  0  0  0  0  0  0  0  0
  161.1610  206.2160  146.3180 C   0  0  0  0  0  2  0  0  0  0  0  0
  162.4380  205.8890  145.8660 O   0  0  0  0  0  1  0  0  0  0  0  0
  1  3  1  6  0  0  0
  1 15  1  0  0  0  0
  2  7  1  0  0  0  0
  4  2  1  0  0  0  0
  4  1  1  0  0  0  0
  5 11  1  0  0  0  0
  5  2  2  0  0  0  0
  7 16  1  0  0  0  0
  7 14  1  1  0  0  0
  8 19  1  0  0  0  0
  9 11  1  6  0  0  0
  9  8  1  0  0  0  0
  9 16  1  0  0  0  0
 10  4  2  0  0  0  0
 12 17  2  0  0  0  0
 12 10  1  0  0  0  0
 13 10  1  0  0  0  0
 13 18  1  0  0  0  0
 15 14  1  6  0  0  0
 16 20  1  1  0  0  0
 17  5  1  0  0  0  0
 18  3  2  0  0  0  0
 19  6  1  0  0  0  0
 20  6  1  0  0  0  0
 21 23  1  6  0  0  0
 24 30  1  0  0  0  0
 25 15  1  6  0  0  0
 25 27  1  0  0  0  0
 25 28  1  0  0  0  0
 26 21  1  0  0  0  0
 27 24  1  6  0  0  0
 27 30  1  0  0  0  0
 28 29  1  1  0  0  0
 28 21  1  0  0  0  0
 30 22  1  1  0  0  0
 30 26  1  0  0  0  0
 31 17  1  0  0  0  0
 32 31  1  0  0  0  0
M  END
>  <MODEL>
2

>  <REMARK>
 VINA RESULT:      -5.6      3.137      7.259
  Name = 
  2 active torsions:
  status: ('A' for Active; 'I' for Inactive)
    1  A    between atoms: C_13  and  CA_29
    2  A    between atoms: C_16  and  C_27
                            x       y       z     vdW  Elec       q    Type
                         _______ _______ _______ _____ _____    ______ ____

>  <TORSDO>
F 2

$$$$
=
 OpenBabel11062408143D

 32 38  0  0  1  0  0  0  0  0999 V2000
  159.5400  210.5350  154.3600 C   0  0  1  0  0  3  0  0  0  0  0  0
  158.4840  212.2960  152.8430 C   0  0  0  0  0  0  0  0  0  0  0  0
  159.8720  210.5350  155.8290 C   0  0  0  0  0  3  0  0  0  0  0  0
  158.4810  211.5760  154.0460 C   0  0  0  0  0  0  0  0  0  0  0  0
  157.4530  213.2230  152.5850 C   0  0  0  0  0  0  0  0  0  0  0  0
  160.5140  213.5050  148.4210 C   0  0  0  0  0  2  0  0  0  0  0  0
  159.5780  212.0190  151.8410 C   0  0  2  0  0  3  0  0  0  0  0  0
  158.4580  214.4530  149.2090 O   0  0  0  0  0  0  0  0  0  0  0  0
  158.3310  213.4950  150.2330 C   0  0  2  0  0  3  0  0  0  0  0  0
  157.4790  211.8240  154.9950 C   0  0  0  0  0  0  0  0  0  0  0  0
  157.4850  214.0890  151.3530 C   0  0  0  0  0  2  0  0  0  0  0  0
  156.4950  212.7200  154.7280 N   0  0  0  0  0  0  0  0  0  0  0  0
  157.4970  211.0850  156.3050 C   0  0  0  0  0  2  0  0  0  0  0  0
  160.8920  211.8220  152.5930 C   0  0  0  0  0  2  0  0  0  0  0  0
  160.8170  210.5750  153.4900 C   0  0  2  0  0  3  0  0  0  0  0  0
  159.7180  213.1060  150.7750 C   0  0  2  0  0  3  0  0  0  0  0  0
  156.4510  213.4140  153.5580 C   0  0  0  0  0  0  0  0  0  0  0  0
  158.9150  210.7910  156.7360 C   0  0  0  0  0  3  0  0  0  0  0  0
  159.0510  213.8060  148.1100 C   0  0  0  0  0  2  0  0  0  0  0  0
  160.5750  212.5720  149.6230 C   0  0  0  0  0  2  0  0  0  0  0  0
  161.8780  208.1930  150.5210 C   0  0  2  0  0  3  0  0  0  0  0  0
  162.6260  205.8480  153.0470 C   0  0  0  0  0  1  0  0  0  0  0  0
  161.3250  208.4250  149.1300 C   0  0  0  0  0  1  0  0  0  0  0  0
  160.4350  207.0290  153.5990 C   0  0  0  0  0  2  0  0  0  0  0  0
  160.9480  209.2880  152.6550 C   0  0  2  0  0  3  0  0  0  0  0  0
  161.1930  206.9770  151.1500 C   0  0  0  0  0  2  0  0  0  0  0  0
  161.5010  208.1140  153.4720 C   0  0  2  0  0  3  0  0  0  0  0  0
  161.7560  209.4810  151.3520 C   0  0  1  0  0  3  0  0  0  0  0  0
  163.1490  210.0310  151.6230 C   0  0  0  0  0  1  0  0  0  0  0  0
  161.5720  206.8490  152.6240 C   0  0  2  0  0  0  0  0  0  0  0  0
  155.3580  214.4120  153.3590 C   0  0  0  0  0  2  0  0  0  0  0  0
  154.2410  213.7810  152.8120 O   0  0  0  0  0  1  0  0  0  0  0  0
  1  3  1  1  0  0  0
  2  4  1  0  0  0  0
  3 18  2  0  0  0  0
  4  1  1  0  0  0  0
  4 10  2  0  0  0  0
  5  2  2  0  0  0  0
  5 17  1  0  0  0  0
  6 20  1  0  0  0  0
  7 14  1  1  0  0  0
  7  2  1  0  0  0  0
  8  9  1  0  0  0  0
  9 16  1  0  0  0  0
  9 11  1  1  0  0  0
 10 13  1  0  0  0  0
 11  5  1  0  0  0  0
 12 10  1  0  0  0  0
 13 18  1  0  0  0  0
 15 14  1  6  0  0  0
 15  1  1  0  0  0  0
 16 20  1  6  0  0  0
 16  7  1  0  0  0  0
 17 12  2  0  0  0  0
 19  6  1  0  0  0  0
 19  8  1  0  0  0  0
 21 23  1  6  0  0  0
 21 26  1  0  0  0  0
 21 28  1  0  0  0  0
 25 27  1  0  0  0  0
 25 15  1  1  0  0  0
 26 30  1  0  0  0  0
 27 24  1  1  0  0  0
 28 29  1  1  0  0  0
 28 25  1  0  0  0  0
 30 22  1  1  0  0  0
 30 27  1  0  0  0  0
 30 24  1  0  0  0  0
 31 17  1  0  0  0  0
 32 31  1  0  0  0  0
M  END
>  <MODEL>
3

>  <REMARK>
 VINA RESULT:      -4.8      1.874      2.843
  Name = 
  2 active torsions:
  status: ('A' for Active; 'I' for Inactive)
    1  A    between atoms: C_13  and  CA_29
    2  A    between atoms: C_16  and  C_27
                            x       y       z     vdW  Elec       q    Type
                         _______ _______ _______ _____ _____    ______ ____

>  <TORSDO>
F 2

$$$$
=
 OpenBabel11062408143D

 32 38  0  0  1  0  0  0  0  0999 V2000
  159.6710  212.7430  151.5880 C   0  0  1  0  0  3  0  0  0  0  0  0
  160.8250  210.4670  151.4930 C   0  0  0  0  0  0  0  0  0  0  0  0
  160.1170  214.1200  151.1730 C   0  0  0  0  0  3  0  0  0  0  0  0
  160.4760  211.6750  150.8710 C   0  0  0  0  0  0  0  0  0  0  0  0
  161.5400  209.4930  150.7670 C   0  0  0  0  0  0  0  0  0  0  0  0
  160.9190  207.4070  155.4630 C   0  0  0  0  0  2  0  0  0  0  0  0
  160.3790  210.2360  152.9150 C   0  0  2  0  0  3  0  0  0  0  0  0
  161.8540  206.8080  153.3390 O   0  0  0  0  0  0  0  0  0  0  0  0
  161.2170  207.8770  152.6810 C   0  0  2  0  0  3  0  0  0  0  0  0
  160.8880  211.9140  149.5520 C   0  0  0  0  0  0  0  0  0  0  0  0
  162.0210  208.2320  151.4360 C   0  0  0  0  0  2  0  0  0  0  0  0
  161.5760  210.9630  148.8700 N   0  0  0  0  0  0  0  0  0  0  0  0
  160.5540  213.2260  148.8960 C   0  0  0  0  0  2  0  0  0  0  0  0
  160.5270  211.5420  153.6930 C   0  0  0  0  0  2  0  0  0  0  0  0
  159.5830  212.6150  153.1260 C   0  0  2  0  0  3  0  0  0  0  0  0
  161.1290  209.1000  153.6120 C   0  0  2  0  0  3  0  0  0  0  0  0
  161.9030  209.7690  149.4330 C   0  0  0  0  0  0  0  0  0  0  0  0
  160.5290  214.3440  149.9140 C   0  0  0  0  0  3  0  0  0  0  0  0
  160.9820  206.3660  154.3490 C   0  0  0  0  0  2  0  0  0  0  0  0
  160.3730  208.7070  154.8850 C   0  0  0  0  0  2  0  0  0  0  0  0
  156.5660  211.2110  155.2580 C   0  0  2  0  0  3  0  0  0  0  0  0
  155.2110  214.4530  154.9480 C   0  0  0  0  0  1  0  0  0  0  0  0
  156.2950  209.7210  155.2940 C   0  0  0  0  0  1  0  0  0  0  0  0
  156.2190  213.7310  152.7200 C   0  0  0  0  0  2  0  0  0  0  0  0
  158.1310  212.3610  153.5690 C   0  0  2  0  0  3  0  0  0  0  0  0
  155.5220  211.9030  154.3770 C   0  0  0  0  0  2  0  0  0  0  0  0
  157.3390  213.6620  153.7540 C   0  0  2  0  0  3  0  0  0  0  0  0
  158.0200  211.4660  154.8240 C   0  0  1  0  0  3  0  0  0  0  0  0
  158.7970  212.0380  156.0010 C   0  0  0  0  0  1  0  0  0  0  0  0
  155.8960  213.3650  154.1470 C   0  0  2  0  0  0  0  0  0  0  0  0
  162.6970  208.7930  148.6280 C   0  0  0  0  0  2  0  0  0  0  0  0
  161.8450  207.8360  148.0770 O   0  0  0  0  0  1  0  0  0  0  0  0
  1  3  1  1  0  0  0
  1 15  1  0  0  0  0
  2  7  1  0  0  0  0
  4  2  1  0  0  0  0
  4  1  1  0  0  0  0
  5 11  1  0  0  0  0
  5  2  2  0  0  0  0
  7 16  1  0  0  0  0
  7 14  1  1  0  0  0
  8 19  1  0  0  0  0
  9 11  1  6  0  0  0
  9  8  1  0  0  0  0
  9 16  1  0  0  0  0
 10  4  2  0  0  0  0
 12 17  2  0  0  0  0
 12 10  1  0  0  0  0
 13 10  1  0  0  0  0
 13 18  1  0  0  0  0
 15 14  1  6  0  0  0
 16 20  1  1  0  0  0
 17  5  1  0  0  0  0
 18  3  2  0  0  0  0
 19  6  1  0  0  0  0
 20  6  1  0  0  0  0
 21 23  1  6  0  0  0
 24 30  1  0  0  0  0
 25 15  1  1  0  0  0
 25 27  1  0  0  0  0
 25 28  1  0  0  0  0
 26 21  1  0  0  0  0
 27 24  1  6  0  0  0
 27 30  1  0  0  0  0
 28 21  1  0  0  0  0
 28 29  1  1  0  0  0
 30 26  1  0  0  0  0
 30 22  1  1  0  0  0
 31 17  1  0  0  0  0
 32 31  1  0  0  0  0
M  END
>  <MODEL>
4

>  <REMARK>
 VINA RESULT:      -4.1      2.822      7.468
  Name = 
  2 active torsions:
  status: ('A' for Active; 'I' for Inactive)
    1  A    between atoms: C_13  and  CA_29
    2  A    between atoms: C_16  and  C_27
                            x       y       z     vdW  Elec       q    Type
                         _______ _______ _______ _____ _____    ______ ____

>  <TORSDO>
F 2

$$$$
=
 OpenBabel11062408143D

 32 38  0  0  1  0  0  0  0  0999 V2000
  161.5600  208.5080  149.8860 C   0  0  1  0  0  3  0  0  0  0  0  0
  161.1960  206.9190  151.8510 C   0  0  0  0  0  0  0  0  0  0  0  0
  162.5050  208.4650  148.7140 C   0  0  0  0  0  3  0  0  0  0  0  0
  161.3660  207.1220  150.4740 C   0  0  0  0  0  0  0  0  0  0  0  0
  160.9790  205.6140  152.3400 C   0  0  0  0  0  0  0  0  0  0  0  0
  160.9650  208.5960  156.5710 C   0  0  0  0  0  2  0  0  0  0  0  0
  161.2080  208.1210  152.7620 C   0  0  2  0  0  3  0  0  0  0  0  0
  160.6470  206.2910  155.9940 O   0  0  0  0  0  0  0  0  0  0  0  0
  160.5080  206.5830  154.6240 C   0  0  2  0  0  3  0  0  0  0  0  0
  161.3670  206.0180  149.6100 C   0  0  0  0  0  0  0  0  0  0  0  0
  160.8990  205.3490  153.8200 C   0  0  0  0  0  2  0  0  0  0  0  0
  161.1560  204.7700  150.1000 N   0  0  0  0  0  0  0  0  0  0  0  0
  161.5930  206.2270  148.1380 C   0  0  0  0  0  2  0  0  0  0  0  0
  162.2870  209.0890  152.2810 C   0  0  0  0  0  2  0  0  0  0  0  0
  161.9430  209.6260  150.8820 C   0  0  2  0  0  3  0  0  0  0  0  0
  161.4120  207.7670  154.2360 C   0  0  2  0  0  3  0  0  0  0  0  0
  160.9570  204.5410  151.4270 C   0  0  0  0  0  0  0  0  0  0  0  0
  162.5180  207.3980  147.8980 C   0  0  0  0  0  3  0  0  0  0  0  0
  160.0770  207.3620  156.7040 C   0  0  0  0  0  2  0  0  0  0  0  0
  161.0470  208.9800  155.0980 C   0  0  0  0  0  2  0  0  0  0  0  0
  159.2460  212.0400  152.4680 C   0  0  2  0  0  3  0  0  0  0  0  0
  160.5020  214.4530  150.2220 C   0  0  0  0  0  1  0  0  0  0  0  0
  158.0270  211.4630  153.1580 C   0  0  0  0  0  1  0  0  0  0  0  0
  160.3060  212.2040  149.0380 C   0  0  0  0  0  2  0  0  0  0  0  0
  160.8350  210.6910  150.9580 C   0  0  2  0  0  3  0  0  0  0  0  0
  158.8440  212.6100  151.1050 C   0  0  0  0  0  2  0  0  0  0  0  0
  161.2210  211.9910  150.2410 C   0  0  2  0  0  3  0  0  0  0  0  0
  160.3570  210.9790  152.4000 C   0  0  1  0  0  3  0  0  0  0  0  0
  161.5060  211.4040  153.3040 C   0  0  0  0  0  1  0  0  0  0  0  0
  160.0800  213.0010  150.2990 C   0  0  2  0  0  0  0  0  0  0  0  0
  160.7740  203.1330  151.8900 C   0  0  0  0  0  2  0  0  0  0  0  0
  160.8400  202.2680  150.7980 O   0  0  0  0  0  1  0  0  0  0  0  0
  1  3  1  6  0  0  0
  1  4  1  0  0  0  0
  1 15  1  0  0  0  0
  2  5  1  0  0  0  0
  2  7  1  0  0  0  0
  4  2  2  0  0  0  0
  5 11  1  0  0  0  0
  6 19  1  0  0  0  0
  7 14  1  6  0  0  0
  7 16  1  0  0  0  0
  8 19  1  0  0  0  0
  9 11  1  6  0  0  0
  9  8  1  0  0  0  0
 10 12  2  0  0  0  0
 10  4  1  0  0  0  0
 12 17  1  0  0  0  0
 13 10  1  0  0  0  0
 15 14  1  1  0  0  0
 16  9  1  0  0  0  0
 16 20  1  1  0  0  0
 17 31  1  0  0  0  0
 17  5  2  0  0  0  0
 18 13  1  0  0  0  0
 18  3  2  0  0  0  0
 20  6  1  0  0  0  0
 21 23  1  6  0  0  0
 24 30  1  0  0  0  0
 25 15  1  1  0  0  0
 25 28  1  0  0  0  0
 26 21  1  0  0  0  0
 27 24  1  6  0  0  0
 27 30  1  0  0  0  0
 27 25  1  0  0  0  0
 28 21  1  0  0  0  0
 28 29  1  1  0  0  0
 30 22  1  6  0  0  0
 30 26  1  0  0  0  0
 32 31  1  0  0  0  0
M  END
>  <MODEL>
5

>  <REMARK>
 VINA RESULT:      -4.0      3.068      7.407
  Name = 
  2 active torsions:
  status: ('A' for Active; 'I' for Inactive)
    1  A    between atoms: C_13  and  CA_29
    2  A    between atoms: C_16  and  C_27
                            x       y       z     vdW  Elec       q    Type
                         _______ _______ _______ _____ _____    ______ ____

>  <TORSDO>
F 2

$$$$
