=
 OpenBabel11052423053D

 28 29  0  0  1  0  0  0  0  0999 V2000
  160.5100  206.7460  154.6610 C   0  0  0  0  0  2  0  0  0  0  0  0
  162.0210  208.1730  156.8020 C   0  0  0  0  0  1  0  0  0  0  0  0
  161.2860  208.9560  155.7220 C   0  0  0  0  0  0  0  0  0  0  0  0
  162.2830  206.3330  151.9660 C   0  0  0  0  0  3  0  0  0  0  0  0
  159.8740  209.2650  156.2210 C   0  0  0  0  0  1  0  0  0  0  0  0
  161.4790  211.0370  154.2530 C   0  0  0  0  0  2  0  0  0  0  0  0
  161.4530  210.1740  152.9930 C   0  0  1  0  0  3  0  0  0  0  0  0
  162.0690  210.2580  155.4270 C   0  0  1  0  0  3  0  0  0  0  0  0
  162.3340  208.0210  150.2210 C   0  0  0  0  0  1  0  0  0  0  0  0
  160.6690  208.8750  153.2290 C   0  0  1  0  0  3  0  0  0  0  0  0
  161.8240  205.6310  153.2130 C   0  0  0  0  0  2  0  0  0  0  0  0
  160.6360  208.0810  152.0370 O   0  0  0  0  0  0  0  0  0  0  0  0
  161.7590  207.4600  151.4710 C   0  0  0  0  0  0  0  0  0  0  0  0
  160.4900  205.9400  153.5080 O   0  0  0  0  0  0  0  0  0  0  0  0
  161.2260  208.0970  154.4370 C   0  0  2  0  0  3  0  0  0  0  0  0
  161.2080  211.9870  157.0100 O   0  0  0  0  0  0  0  0  0  0  0  0
  162.2460  211.1520  156.6200 C   0  0  0  0  0  0  0  0  0  0  0  0
  163.3310  211.1660  157.2610 O   0  0  0  0  0  1  0  0  0  0  0  0
  160.9090  210.9540  151.7850 C   0  0  2  0  0  3  0  0  0  0  0  0
  161.5810  210.9910  149.6730 C   0  0  0  0  0  1  0  0  0  0  0  0
  161.9540  211.3840  150.9590 O   0  0  0  0  0  0  0  0  0  0  0  0
  159.9960  212.1210  152.1790 C   0  0  2  0  0  3  0  0  0  0  0  0
  158.5650  211.6240  152.3190 C   0  0  0  0  0  2  0  0  0  0  0  0
  158.0730  211.8120  153.7410 C   0  0  0  0  0  2  0  0  0  0  0  0
  158.5760  213.1350  154.2770 C   0  0  0  0  0  1  0  0  0  0  0  0
  160.0700  213.1620  151.2140 O   0  0  0  0  0  0  0  0  0  0  0  0
  158.9470  213.5430  150.4900 C   0  0  0  0  0  3  0  0  0  0  0  0
  159.0700  213.9440  149.3040 O   0  0  0  0  0  0  0  0  0  0  0  0
  3  5  1  0  0  0  0
  3  2  1  0  0  0  0
  4 11  1  0  0  0  0
  6  8  1  0  0  0  0
  7 19  1  6  0  0  0
  7 10  1  0  0  0  0
  7  6  1  0  0  0  0
  8  3  1  0  0  0  0
  8 17  1  1  0  0  0
  9 13  1  0  0  0  0
 10 12  1  6  0  0  0
 10 15  1  0  0  0  0
 11 14  1  0  0  0  0
 13  4  2  0  0  0  0
 13 12  1  0  0  0  0
 14  1  1  0  0  0  0
 15  1  1  1  0  0  0
 15  3  1  0  0  0  0
 17 16  2  0  0  0  0
 17 18  1  0  0  0  0
 19 21  1  1  0  0  0
 19 22  1  0  0  0  0
 20 21  1  0  0  0  0
 22 23  1  6  0  0  0
 23 24  1  0  0  0  0
 24 25  1  0  0  0  0
 26 22  1  0  0  0  0
 27 26  1  0  0  0  0
 28 27  2  0  0  0  0
M  END
>  <MODEL>
1

>  <REMARK>
 VINA RESULT:      -4.2      0.000      0.000
  Name = 
  8 active torsions:
  status: ('A' for Active; 'I' for Inactive)
    1  A    between atoms: C_9  and  C_12
    2  A    between atoms: C_9  and  C_13
    3  A    between atoms: C_9  and  O_14
    4  A    between atoms: C_10  and  C_13
    5  A    between atoms: C_11  and  C_22
    6  A    between atoms: C_12  and  C_15
    7  A    between atoms: C_13  and  O_24
    8  A    between atoms: O_14  and  C_18
                            x       y       z     vdW  Elec       q    Type
                         _______ _______ _______ _____ _____    ______ ____

>  <TORSDO>
F 8

$$$$
=
 OpenBabel11052423053D

 28 29  0  0  1  0  0  0  0  0999 V2000
  158.0940  214.0710  153.1950 C   0  0  0  0  0  2  0  0  0  0  0  0
  155.5100  212.7670  153.9230 C   0  0  0  0  0  1  0  0  0  0  0  0
  156.7670  212.5050  154.7430 C   0  0  0  0  0  0  0  0  0  0  0  0
  159.9480  212.1710  151.3160 C   0  0  0  0  0  3  0  0  0  0  0  0
  156.8190  213.5180  155.8880 C   0  0  0  0  0  1  0  0  0  0  0  0
  158.0060  210.6610  156.0010 C   0  0  0  0  0  2  0  0  0  0  0  0
  159.2080  210.8040  155.0690 C   0  0  1  0  0  3  0  0  0  0  0  0
  156.7170  211.0560  155.2850 C   0  0  1  0  0  3  0  0  0  0  0  0
  161.5070  210.5800  152.2830 C   0  0  0  0  0  1  0  0  0  0  0  0
  159.3120  212.2330  154.5180 C   0  0  1  0  0  3  0  0  0  0  0  0
  158.9770  213.3180  151.2660 C   0  0  0  0  0  2  0  0  0  0  0  0
  160.4500  212.3630  153.6580 O   0  0  0  0  0  0  0  0  0  0  0  0
  160.5730  211.7290  152.4130 C   0  0  0  0  0  0  0  0  0  0  0  0
  159.1910  214.2090  152.3260 O   0  0  0  0  0  0  0  0  0  0  0  0
  158.0020  212.6640  153.8280 C   0  0  2  0  0  3  0  0  0  0  0  0
  154.5930  209.8180  155.7260 O   0  0  0  0  0  0  0  0  0  0  0  0
  155.5220  210.7610  156.1440 C   0  0  0  0  0  0  0  0  0  0  0  0
  155.3450  211.3700  157.2330 O   0  0  0  0  0  1  0  0  0  0  0  0
  160.5110  210.3630  155.7530 C   0  0  2  0  0  3  0  0  0  0  0  0
  161.6300  211.5820  157.2280 C   0  0  0  0  0  1  0  0  0  0  0  0
  161.4040  211.4360  155.8590 O   0  0  0  0  0  0  0  0  0  0  0  0
  161.1720  209.1560  155.0770 C   0  0  2  0  0  3  0  0  0  0  0  0
  160.1210  208.3560  154.3220 C   0  0  0  0  0  2  0  0  0  0  0  0
  160.7740  207.4700  153.2790 C   0  0  0  0  0  2  0  0  0  0  0  0
  161.0560  206.1100  153.8790 C   0  0  0  0  0  1  0  0  0  0  0  0
  161.8250  208.3390  156.0400 O   0  0  0  0  0  0  0  0  0  0  0  0
  161.1710  207.9490  157.2030 C   0  0  0  0  0  3  0  0  0  0  0  0
  160.5840  206.8380  157.2520 O   0  0  0  0  0  0  0  0  0  0  0  0
  2  3  1  0  0  0  0
  3  8  1  0  0  0  0
  3  5  1  0  0  0  0
  4 13  2  0  0  0  0
  7 19  1  1  0  0  0
  7  6  1  0  0  0  0
  8  6  1  0  0  0  0
  8 17  1  1  0  0  0
  9 13  1  0  0  0  0
 10 12  1  6  0  0  0
 10  7  1  0  0  0  0
 11  4  1  0  0  0  0
 11 14  1  0  0  0  0
 13 12  1  0  0  0  0
 14  1  1  0  0  0  0
 15  1  1  1  0  0  0
 15 10  1  0  0  0  0
 15  3  1  0  0  0  0
 16 17  2  0  0  0  0
 17 18  1  0  0  0  0
 19 21  1  6  0  0  0
 21 20  1  0  0  0  0
 22 23  1  1  0  0  0
 22 19  1  0  0  0  0
 22 26  1  0  0  0  0
 24 25  1  0  0  0  0
 24 23  1  0  0  0  0
 26 27  1  0  0  0  0
 27 28  2  0  0  0  0
M  END
>  <MODEL>
2

>  <REMARK>
 VINA RESULT:      -3.1      2.556      6.418
  Name = 
  8 active torsions:
  status: ('A' for Active; 'I' for Inactive)
    1  A    between atoms: C_9  and  C_12
    2  A    between atoms: C_9  and  C_13
    3  A    between atoms: C_9  and  O_14
    4  A    between atoms: C_10  and  C_13
    5  A    between atoms: C_11  and  C_22
    6  A    between atoms: C_12  and  C_15
    7  A    between atoms: C_13  and  O_24
    8  A    between atoms: O_14  and  C_18
                            x       y       z     vdW  Elec       q    Type
                         _______ _______ _______ _____ _____    ______ ____

>  <TORSDO>
F 8

$$$$
=
 OpenBabel11052423053D

 28 29  0  0  1  0  0  0  0  0999 V2000
  160.8500  207.0440  149.9560 C   0  0  0  0  0  2  0  0  0  0  0  0
  162.7720  207.2740  147.6840 C   0  0  0  0  0  1  0  0  0  0  0  0
  161.7700  206.1270  147.7370 C   0  0  0  0  0  0  0  0  0  0  0  0
  161.9450  205.0770  152.3030 C   0  0  0  0  0  3  0  0  0  0  0  0
  160.5070  206.5490  146.9860 C   0  0  0  0  0  1  0  0  0  0  0  0
  161.5280  203.6360  147.2280 C   0  0  0  0  0  2  0  0  0  0  0  0
  161.2360  203.3430  148.6990 C   0  0  1  0  0  3  0  0  0  0  0  0
  162.4100  204.8740  147.0910 C   0  0  1  0  0  3  0  0  0  0  0  0
  161.5140  202.6870  152.2470 C   0  0  0  0  0  1  0  0  0  0  0  0
  160.5810  204.5520  149.3830 C   0  0  1  0  0  3  0  0  0  0  0  0
  161.8240  206.5250  151.9180 C   0  0  0  0  0  2  0  0  0  0  0  0
  160.2960  204.2630  150.7570 O   0  0  0  0  0  0  0  0  0  0  0  0
  161.2760  204.0640  151.7410 C   0  0  0  0  0  0  0  0  0  0  0  0
  160.5870  206.7870  151.3140 O   0  0  0  0  0  0  0  0  0  0  0  0
  161.4400  205.8210  149.2170 C   0  0  2  0  0  3  0  0  0  0  0  0
  161.9700  205.6950  144.7730 O   0  0  0  0  0  0  0  0  0  0  0  0
  162.8320  205.0670  145.6630 C   0  0  0  0  0  0  0  0  0  0  0  0
  163.9510  204.6530  145.2590 O   0  0  0  0  0  1  0  0  0  0  0  0
  160.3900  202.0700  148.8660 C   0  0  2  0  0  3  0  0  0  0  0  0
  159.8100  200.5200  150.3400 C   0  0  0  0  0  1  0  0  0  0  0  0
  160.9020  201.2640  149.8890 O   0  0  0  0  0  0  0  0  0  0  0  0
  160.2260  201.2780  147.5630 C   0  0  2  0  0  3  0  0  0  0  0  0
  161.5830  200.7700  147.1010 C   0  0  0  0  0  2  0  0  0  0  0  0
  161.5900  199.2550  147.0350 C   0  0  0  0  0  2  0  0  0  0  0  0
  161.4630  198.8140  145.5930 C   0  0  0  0  0  1  0  0  0  0  0  0
  159.6260  202.0850  146.5590 O   0  0  0  0  0  0  0  0  0  0  0  0
  159.7390  201.7500  145.2150 C   0  0  0  0  0  3  0  0  0  0  0  0
  159.7190  202.6510  144.3380 O   0  0  0  0  0  0  0  0  0  0  0  0
  1 14  1  0  0  0  0
  2  3  1  0  0  0  0
  3 15  1  0  0  0  0
  5  3  1  0  0  0  0
  6  7  1  0  0  0  0
  7 19  1  6  0  0  0
  7 10  1  0  0  0  0
  8 17  1  6  0  0  0
  8  6  1  0  0  0  0
  8  3  1  0  0  0  0
 10 12  1  1  0  0  0
 11  4  1  0  0  0  0
 12 13  1  0  0  0  0
 13  9  1  0  0  0  0
 13  4  2  0  0  0  0
 14 11  1  0  0  0  0
 15 10  1  0  0  0  0
 15  1  1  6  0  0  0
 16 17  2  0  0  0  0
 18 17  1  0  0  0  0
 19 21  1  1  0  0  0
 21 20  1  0  0  0  0
 22 23  1  6  0  0  0
 22 19  1  0  0  0  0
 24 23  1  0  0  0  0
 25 24  1  0  0  0  0
 26 22  1  0  0  0  0
 27 26  1  0  0  0  0
 28 27  2  0  0  0  0
M  END
>  <MODEL>
3

>  <REMARK>
 VINA RESULT:      -3.1      5.729      9.961
  Name = 
  8 active torsions:
  status: ('A' for Active; 'I' for Inactive)
    1  A    between atoms: C_9  and  C_12
    2  A    between atoms: C_9  and  C_13
    3  A    between atoms: C_9  and  O_14
    4  A    between atoms: C_10  and  C_13
    5  A    between atoms: C_11  and  C_22
    6  A    between atoms: C_12  and  C_15
    7  A    between atoms: C_13  and  O_24
    8  A    between atoms: O_14  and  C_18
                            x       y       z     vdW  Elec       q    Type
                         _______ _______ _______ _____ _____    ______ ____

>  <TORSDO>
F 8

$$$$
=
 OpenBabel11052423053D

 28 29  0  0  1  0  0  0  0  0999 V2000
  161.9570  204.8160  153.1810 C   0  0  0  0  0  2  0  0  0  0  0  0
  160.0850  202.6170  152.4280 C   0  0  0  0  0  1  0  0  0  0  0  0
  160.9630  203.2810  151.3740 C   0  0  0  0  0  0  0  0  0  0  0  0
  160.6480  207.7590  152.7270 C   0  0  0  0  0  3  0  0  0  0  0  0
  162.2680  202.4930  151.2620 C   0  0  0  0  0  1  0  0  0  0  0  0
  160.9510  204.0690  148.9450 C   0  0  0  0  0  2  0  0  0  0  0  0
  161.2000  205.5090  149.3900 C   0  0  1  0  0  3  0  0  0  0  0  0
  160.2020  203.2940  150.0260 C   0  0  1  0  0  3  0  0  0  0  0  0
  160.8310  208.9030  150.5920 C   0  0  0  0  0  1  0  0  0  0  0  0
  161.9710  205.5510  150.7170 C   0  0  1  0  0  3  0  0  0  0  0  0
  160.9200  206.7230  153.7810 C   0  0  0  0  0  2  0  0  0  0  0  0
  162.2160  206.9040  151.1180 O   0  0  0  0  0  0  0  0  0  0  0  0
  161.2140  207.8020  151.5150 C   0  0  0  0  0  0  0  0  0  0  0  0
  162.1820  206.1380  153.6040 O   0  0  0  0  0  0  0  0  0  0  0  0
  161.2490  204.7370  151.8090 C   0  0  2  0  0  3  0  0  0  0  0  0
  160.7490  201.1540  148.8610 O   0  0  0  0  0  0  0  0  0  0  0  0
  159.8130  201.9320  149.5270 C   0  0  0  0  0  0  0  0  0  0  0  0
  158.6430  201.4940  149.6930 O   0  0  0  0  0  1  0  0  0  0  0  0
  161.9100  206.3240  148.2970 C   0  0  2  0  0  3  0  0  0  0  0  0
  162.5930  208.4330  148.2590 C   0  0  0  0  0  1  0  0  0  0  0  0
  161.4420  207.6430  148.2790 O   0  0  0  0  0  0  0  0  0  0  0  0
  161.8170  205.6830  146.9070 C   0  0  2  0  0  3  0  0  0  0  0  0
  163.1960  205.2140  146.4680 C   0  0  0  0  0  2  0  0  0  0  0  0
  163.0890  203.9550  145.6310 C   0  0  0  0  0  2  0  0  0  0  0  0
  161.8300  203.2040  146.0110 C   0  0  0  0  0  1  0  0  0  0  0  0
  161.2800  206.6030  145.9660 O   0  0  0  0  0  0  0  0  0  0  0  0
  160.4560  206.1670  144.9350 C   0  0  0  0  0  3  0  0  0  0  0  0
  160.9560  205.8270  143.8320 O   0  0  0  0  0  0  0  0  0  0  0  0
  1 14  1  0  0  0  0
  3 15  1  0  0  0  0
  3  2  1  0  0  0  0
  4 11  1  0  0  0  0
  5  3  1  0  0  0  0
  6  7  1  0  0  0  0
  6  8  1  0  0  0  0
  7 19  1  6  0  0  0
  7 10  1  0  0  0  0
  8 17  1  6  0  0  0
  8  3  1  0  0  0  0
  9 13  1  0  0  0  0
 10 12  1  1  0  0  0
 10 15  1  0  0  0  0
 12 13  1  0  0  0  0
 13  4  2  0  0  0  0
 14 11  1  0  0  0  0
 15  1  1  1  0  0  0
 16 17  2  0  0  0  0
 17 18  1  0  0  0  0
 19 21  1  6  0  0  0
 20 21  1  0  0  0  0
 22 23  1  6  0  0  0
 22 19  1  0  0  0  0
 24 25  1  0  0  0  0
 24 23  1  0  0  0  0
 26 22  1  0  0  0  0
 27 26  1  0  0  0  0
 28 27  2  0  0  0  0
M  END
>  <MODEL>
4

>  <REMARK>
 VINA RESULT:      -2.9      4.237      7.929
  Name = 
  8 active torsions:
  status: ('A' for Active; 'I' for Inactive)
    1  A    between atoms: C_9  and  C_12
    2  A    between atoms: C_9  and  C_13
    3  A    between atoms: C_9  and  O_14
    4  A    between atoms: C_10  and  C_13
    5  A    between atoms: C_11  and  C_22
    6  A    between atoms: C_12  and  C_15
    7  A    between atoms: C_13  and  O_24
    8  A    between atoms: O_14  and  C_18
                            x       y       z     vdW  Elec       q    Type
                         _______ _______ _______ _____ _____    ______ ____

>  <TORSDO>
F 8

$$$$
=
 OpenBabel11052423053D

 28 29  0  0  1  0  0  0  0  0999 V2000
  161.0670  210.9640  156.1130 C   0  0  0  0  0  2  0  0  0  0  0  0
  161.3860  208.4290  154.5710 C   0  0  0  0  0  1  0  0  0  0  0  0
  161.1860  209.7550  153.8470 C   0  0  0  0  0  0  0  0  0  0  0  0
  157.9420  211.7270  156.5970 C   0  0  0  0  0  3  0  0  0  0  0  0
  162.5600  210.3560  153.5470 C   0  0  0  0  0  1  0  0  0  0  0  0
  160.0250  210.7930  151.8230 C   0  0  0  0  0  2  0  0  0  0  0  0
  159.2020  211.7000  152.7350 C   0  0  1  0  0  3  0  0  0  0  0  0
  160.3940  209.4980  152.5420 C   0  0  1  0  0  3  0  0  0  0  0  0
  156.7030  213.0490  154.9800 C   0  0  0  0  0  1  0  0  0  0  0  0
  159.9540  212.0010  154.0400 C   0  0  1  0  0  3  0  0  0  0  0  0
  159.1330  211.0910  157.2580 C   0  0  0  0  0  2  0  0  0  0  0  0
  159.1820  212.8650  154.8820 O   0  0  0  0  0  0  0  0  0  0  0  0
  157.9790  212.4940  155.5010 C   0  0  0  0  0  0  0  0  0  0  0  0
  160.3110  211.7900  156.9640 O   0  0  0  0  0  0  0  0  0  0  0  0
  160.3710  210.7020  154.7570 C   0  0  2  0  0  3  0  0  0  0  0  0
  160.8170  207.1780  151.7170 O   0  0  0  0  0  1  0  0  0  0  0  0
  161.0600  208.5400  151.5970 C   0  0  0  0  0  0  0  0  0  0  0  0
  161.8490  208.9550  150.7070 O   0  0  0  0  0  0  0  0  0  0  0  0
  158.7750  212.9900  152.0160 C   0  0  2  0  0  3  0  0  0  0  0  0
  157.1590  214.4530  152.4170 C   0  0  0  0  0  1  0  0  0  0  0  0
  157.3830  213.1300  152.0310 O   0  0  0  0  0  0  0  0  0  0  0  0
  159.3290  213.0990  150.5910 C   0  0  2  0  0  3  0  0  0  0  0  0
  160.2400  214.3140  150.4890 C   0  0  0  0  0  2  0  0  0  0  0  0
  161.1710  214.1830  149.3000 C   0  0  0  0  0  2  0  0  0  0  0  0
  161.3790  212.7180  148.9830 C   0  0  0  0  0  1  0  0  0  0  0  0
  158.2700  213.1890  149.6480 O   0  0  0  0  0  0  0  0  0  0  0  0
  157.9870  214.3900  149.0070 C   0  0  0  0  0  3  0  0  0  0  0  0
  158.0030  214.4510  147.7510 O   0  0  0  0  0  0  0  0  0  0  0  0
  1 14  1  0  0  0  0
  3  2  1  0  0  0  0
  3 15  1  0  0  0  0
  4 11  1  0  0  0  0
  5  3  1  0  0  0  0
  6  8  1  0  0  0  0
  6  7  1  0  0  0  0
  7 19  1  6  0  0  0
  7 10  1  0  0  0  0
  8 17  1  6  0  0  0
  8  3  1  0  0  0  0
  9 13  1  0  0  0  0
 10 15  1  0  0  0  0
 10 12  1  1  0  0  0
 12 13  1  0  0  0  0
 13  4  2  0  0  0  0
 14 11  1  0  0  0  0
 15  1  1  1  0  0  0
 17 16  1  0  0  0  0
 18 17  2  0  0  0  0
 19 21  1  6  0  0  0
 21 20  1  0  0  0  0
 22 23  1  1  0  0  0
 22 19  1  0  0  0  0
 24 23  1  0  0  0  0
 25 24  1  0  0  0  0
 26 22  1  0  0  0  0
 27 26  1  0  0  0  0
 28 27  2  0  0  0  0
M  END
>  <MODEL>
5

>  <REMARK>
 VINA RESULT:      -2.9      1.756      5.134
  Name = 
  8 active torsions:
  status: ('A' for Active; 'I' for Inactive)
    1  A    between atoms: C_9  and  C_12
    2  A    between atoms: C_9  and  C_13
    3  A    between atoms: C_9  and  O_14
    4  A    between atoms: C_10  and  C_13
    5  A    between atoms: C_11  and  C_22
    6  A    between atoms: C_12  and  C_15
    7  A    between atoms: C_13  and  O_24
    8  A    between atoms: O_14  and  C_18
                            x       y       z     vdW  Elec       q    Type
                         _______ _______ _______ _____ _____    ______ ____

>  <TORSDO>
F 8

$$$$
=
 OpenBabel11052423053D

 28 29  0  0  1  0  0  0  0  0999 V2000
  161.8160  201.6420  147.9530 C   0  0  0  0  0  2  0  0  0  0  0  0
  160.6720  202.9160  145.5090 C   0  0  0  0  0  1  0  0  0  0  0  0
  161.4200  203.7530  146.5390 C   0  0  0  0  0  0  0  0  0  0  0  0
  159.8030  201.8370  150.5010 C   0  0  0  0  0  3  0  0  0  0  0  0
  162.8940  203.8160  146.1380 C   0  0  0  0  0  1  0  0  0  0  0  0
  161.3900  206.0320  147.6920 C   0  0  0  0  0  2  0  0  0  0  0  0
  161.2070  205.3630  149.0530 C   0  0  1  0  0  3  0  0  0  0  0  0
  160.7940  205.1680  146.5830 C   0  0  1  0  0  3  0  0  0  0  0  0
  159.8420  203.7530  151.9930 C   0  0  0  0  0  1  0  0  0  0  0  0
  161.8290  203.9600  149.0680 C   0  0  1  0  0  3  0  0  0  0  0  0
  160.2600  200.9120  149.4070 C   0  0  0  0  0  2  0  0  0  0  0  0
  161.6670  203.3470  150.3520 O   0  0  0  0  0  0  0  0  0  0  0  0
  160.4310  202.9530  150.8880 C   0  0  0  0  0  0  0  0  0  0  0  0
  161.6420  201.0150  149.2000 O   0  0  0  0  0  0  0  0  0  0  0  0
  161.2680  203.0870  147.9270 C   0  0  2  0  0  3  0  0  0  0  0  0
  161.9650  205.8280  144.4780 O   0  0  0  0  0  0  0  0  0  0  0  0
  160.8270  205.8960  145.2700 C   0  0  0  0  0  0  0  0  0  0  0  0
  159.8410  206.5790  144.8860 O   0  0  0  0  0  1  0  0  0  0  0  0
  161.7550  206.2380  150.1920 C   0  0  2  0  0  3  0  0  0  0  0  0
  162.7470  205.8540  152.1370 C   0  0  0  0  0  1  0  0  0  0  0  0
  161.5660  205.6160  151.4310 O   0  0  0  0  0  0  0  0  0  0  0  0
  161.1830  207.6610  150.1920 C   0  0  2  0  0  3  0  0  0  0  0  0
  162.2930  208.6570  149.8930 C   0  0  0  0  0  2  0  0  0  0  0  0
  161.9560  209.4770  148.6640 C   0  0  0  0  0  2  0  0  0  0  0  0
  161.9720  210.9480  149.0200 C   0  0  0  0  0  1  0  0  0  0  0  0
  160.5710  207.9540  151.4410 O   0  0  0  0  0  0  0  0  0  0  0  0
  160.9370  209.0830  152.1640 C   0  0  0  0  0  3  0  0  0  0  0  0
  160.0790  209.9640  152.4310 O   0  0  0  0  0  0  0  0  0  0  0  0
  1 14  1  0  0  0  0
  2  3  1  0  0  0  0
  3  8  1  0  0  0  0
  3 15  1  0  0  0  0
  4 13  2  0  0  0  0
  5  3  1  0  0  0  0
  6  7  1  0  0  0  0
  7 10  1  0  0  0  0
  7 19  1  1  0  0  0
  8 17  1  6  0  0  0
  8  6  1  0  0  0  0
 10 12  1  1  0  0  0
 11  4  1  0  0  0  0
 12 13  1  0  0  0  0
 13  9  1  0  0  0  0
 14 11  1  0  0  0  0
 15  1  1  6  0  0  0
 15 10  1  0  0  0  0
 16 17  2  0  0  0  0
 18 17  1  0  0  0  0
 19 22  1  0  0  0  0
 19 21  1  1  0  0  0
 21 20  1  0  0  0  0
 22 23  1  1  0  0  0
 22 26  1  0  0  0  0
 24 25  1  0  0  0  0
 24 23  1  0  0  0  0
 26 27  1  0  0  0  0
 27 28  2  0  0  0  0
M  END
>  <MODEL>
6

>  <REMARK>
 VINA RESULT:      -2.8      4.489      8.130
  Name = 
  8 active torsions:
  status: ('A' for Active; 'I' for Inactive)
    1  A    between atoms: C_9  and  C_12
    2  A    between atoms: C_9  and  C_13
    3  A    between atoms: C_9  and  O_14
    4  A    between atoms: C_10  and  C_13
    5  A    between atoms: C_11  and  C_22
    6  A    between atoms: C_12  and  C_15
    7  A    between atoms: C_13  and  O_24
    8  A    between atoms: O_14  and  C_18
                            x       y       z     vdW  Elec       q    Type
                         _______ _______ _______ _____ _____    ______ ____

>  <TORSDO>
F 8

$$$$
=
 OpenBabel11052423053D

 28 29  0  0  1  0  0  0  0  0999 V2000
  158.2350  212.3660  155.7180 C   0  0  0  0  0  2  0  0  0  0  0  0
  158.1650  214.3650  153.5030 C   0  0  0  0  0  1  0  0  0  0  0  0
  158.6180  212.9340  153.2400 C   0  0  0  0  0  0  0  0  0  0  0  0
  161.1760  212.1480  157.0890 C   0  0  0  0  0  3  0  0  0  0  0  0
  157.4030  212.1100  152.8160 C   0  0  0  0  0  1  0  0  0  0  0  0
  160.3100  211.5690  151.9010 C   0  0  0  0  0  2  0  0  0  0  0  0
  160.9300  211.0340  153.1910 C   0  0  1  0  0  3  0  0  0  0  0  0
  159.6960  212.9480  152.1290 C   0  0  1  0  0  3  0  0  0  0  0  0
  162.8580  210.6240  156.2260 C   0  0  0  0  0  1  0  0  0  0  0  0
  159.8930  210.9830  154.3210 C   0  0  1  0  0  3  0  0  0  0  0  0
  159.8220  212.7780  157.2600 C   0  0  0  0  0  2  0  0  0  0  0  0
  160.4780  210.4650  155.5220 O   0  0  0  0  0  0  0  0  0  0  0  0
  161.4610  211.1290  156.2700 C   0  0  0  0  0  0  0  0  0  0  0  0
  158.7990  211.8850  156.9130 O   0  0  0  0  0  0  0  0  0  0  0  0
  159.2320  212.3590  154.5370 C   0  0  2  0  0  3  0  0  0  0  0  0
  159.9610  213.3080  149.6720 O   0  0  0  0  0  0  0  0  0  0  0  0
  159.2340  213.5430  150.8310 C   0  0  0  0  0  0  0  0  0  0  0  0
  158.2030  214.2650  150.7830 O   0  0  0  0  0  1  0  0  0  0  0  0
  161.5990  209.6670  152.9730 C   0  0  2  0  0  3  0  0  0  0  0  0
  163.3780  210.3330  151.8310 C   0  0  0  0  0  1  0  0  0  0  0  0
  162.1960  209.6020  151.7090 O   0  0  0  0  0  0  0  0  0  0  0  0
  160.6490  208.4850  153.2010 C   0  0  2  0  0  3  0  0  0  0  0  0
  161.2100  207.5840  154.2910 C   0  0  0  0  0  2  0  0  0  0  0  0
  160.0850  206.9280  155.0690 C   0  0  0  0  0  2  0  0  0  0  0  0
  160.1740  207.3370  156.5240 C   0  0  0  0  0  1  0  0  0  0  0  0
  160.4620  207.7550  151.9970 O   0  0  0  0  0  0  0  0  0  0  0  0
  161.2060  206.6100  151.7350 C   0  0  0  0  0  3  0  0  0  0  0  0
  160.7840  205.7610  150.9090 O   0  0  0  0  0  0  0  0  0  0  0  0
  1 14  1  0  0  0  0
  3  2  1  0  0  0  0
  3 15  1  0  0  0  0
  4 11  1  0  0  0  0
  5  3  1  0  0  0  0
  6  8  1  0  0  0  0
  6  7  1  0  0  0  0
  7 19  1  6  0  0  0
  7 10  1  0  0  0  0
  8 17  1  6  0  0  0
  8  3  1  0  0  0  0
  9 13  1  0  0  0  0
 10 15  1  0  0  0  0
 10 12  1  1  0  0  0
 12 13  1  0  0  0  0
 13  4  2  0  0  0  0
 14 11  1  0  0  0  0
 15  1  1  1  0  0  0
 16 17  2  0  0  0  0
 18 17  1  0  0  0  0
 19 21  1  6  0  0  0
 19 22  1  0  0  0  0
 21 20  1  0  0  0  0
 22 23  1  1  0  0  0
 23 24  1  0  0  0  0
 24 25  1  0  0  0  0
 26 22  1  0  0  0  0
 27 26  1  0  0  0  0
 28 27  2  0  0  0  0
M  END
>  <MODEL>
7

>  <REMARK>
 VINA RESULT:      -2.6      1.590      5.874
  Name = 
  8 active torsions:
  status: ('A' for Active; 'I' for Inactive)
    1  A    between atoms: C_9  and  C_12
    2  A    between atoms: C_9  and  C_13
    3  A    between atoms: C_9  and  O_14
    4  A    between atoms: C_10  and  C_13
    5  A    between atoms: C_11  and  C_22
    6  A    between atoms: C_12  and  C_15
    7  A    between atoms: C_13  and  O_24
    8  A    between atoms: O_14  and  C_18
                            x       y       z     vdW  Elec       q    Type
                         _______ _______ _______ _____ _____    ______ ____

>  <TORSDO>
F 8

$$$$
=
 OpenBabel11052423053D

 28 29  0  0  1  0  0  0  0  0999 V2000
  161.8210  212.0600  149.5410 C   0  0  0  0  0  2  0  0  0  0  0  0
  159.0920  213.2660  149.6250 C   0  0  0  0  0  1  0  0  0  0  0  0
  159.7710  212.8000  150.9060 C   0  0  0  0  0  0  0  0  0  0  0  0
  161.7300  208.8120  149.4090 C   0  0  0  0  0  3  0  0  0  0  0  0
  160.5390  213.9780  151.5060 C   0  0  0  0  0  1  0  0  0  0  0  0
  159.2950  211.6630  153.1430 C   0  0  0  0  0  2  0  0  0  0  0  0
  160.2290  210.5110  152.7800 C   0  0  1  0  0  3  0  0  0  0  0  0
  158.6900  212.2830  151.8860 C   0  0  1  0  0  3  0  0  0  0  0  0
  161.6580  207.4710  151.4330 C   0  0  0  0  0  1  0  0  0  0  0  0
  161.3340  210.9770  151.8220 C   0  0  1  0  0  3  0  0  0  0  0  0
  161.8880  210.0380  148.5550 C   0  0  0  0  0  2  0  0  0  0  0  0
  162.2150  209.8940  151.4990 O   0  0  0  0  0  0  0  0  0  0  0  0
  161.8430  208.7740  150.7420 C   0  0  0  0  0  0  0  0  0  0  0  0
  162.6800  211.0030  149.1920 O   0  0  0  0  0  0  0  0  0  0  0  0
  160.7400  211.6440  150.5650 C   0  0  2  0  0  3  0  0  0  0  0  0
  156.7870  213.7790  151.2700 O   0  0  0  0  0  0  0  0  0  0  0  0
  157.6500  213.3040  152.2480 C   0  0  0  0  0  0  0  0  0  0  0  0
  157.5620  213.7470  153.4240 O   0  0  0  0  0  1  0  0  0  0  0  0
  160.8120  209.8380  154.0330 C   0  0  2  0  0  3  0  0  0  0  0  0
  160.7300  207.7600  154.8030 C   0  0  0  0  0  1  0  0  0  0  0  0
  159.9310  208.8730  154.5340 O   0  0  0  0  0  0  0  0  0  0  0  0
  161.2190  210.8370  155.1220 C   0  0  2  0  0  3  0  0  0  0  0  0
  162.7150  210.7280  155.3810 C   0  0  0  0  0  2  0  0  0  0  0  0
  162.9870  210.5450  156.8610 C   0  0  0  0  0  2  0  0  0  0  0  0
  164.1860  211.3780  157.2590 C   0  0  0  0  0  1  0  0  0  0  0  0
  160.4880  210.6000  156.3180 O   0  0  0  0  0  0  0  0  0  0  0  0
  159.6240  211.5620  156.8270 C   0  0  0  0  0  3  0  0  0  0  0  0
  158.5060  211.7540  156.2840 O   0  0  0  0  0  0  0  0  0  0  0  0
  2  3  1  0  0  0  0
  3  5  1  0  0  0  0
  3  8  1  0  0  0  0
  4 13  2  0  0  0  0
  7  6  1  0  0  0  0
  7 19  1  1  0  0  0
  8 17  1  1  0  0  0
  8  6  1  0  0  0  0
 10 12  1  6  0  0  0
 10  7  1  0  0  0  0
 11 14  1  0  0  0  0
 11  4  1  0  0  0  0
 13  9  1  0  0  0  0
 13 12  1  0  0  0  0
 14  1  1  0  0  0  0
 15  1  1  6  0  0  0
 15  3  1  0  0  0  0
 15 10  1  0  0  0  0
 16 17  2  0  0  0  0
 17 18  1  0  0  0  0
 19 21  1  1  0  0  0
 19 22  1  0  0  0  0
 21 20  1  0  0  0  0
 22 23  1  1  0  0  0
 22 26  1  0  0  0  0
 23 24  1  0  0  0  0
 24 25  1  0  0  0  0
 26 27  1  0  0  0  0
 28 27  2  0  0  0  0
M  END
>  <MODEL>
8

>  <REMARK>
 VINA RESULT:      -2.4      1.811      5.617
  Name = 
  8 active torsions:
  status: ('A' for Active; 'I' for Inactive)
    1  A    between atoms: C_9  and  C_12
    2  A    between atoms: C_9  and  C_13
    3  A    between atoms: C_9  and  O_14
    4  A    between atoms: C_10  and  C_13
    5  A    between atoms: C_11  and  C_22
    6  A    between atoms: C_12  and  C_15
    7  A    between atoms: C_13  and  O_24
    8  A    between atoms: O_14  and  C_18
                            x       y       z     vdW  Elec       q    Type
                         _______ _______ _______ _____ _____    ______ ____

>  <TORSDO>
F 8

$$$$
=
 OpenBabel11052423053D

 28 29  0  0  1  0  0  0  0  0999 V2000
  162.5660  212.2390  140.8840 C   0  0  0  0  0  2  0  0  0  0  0  0
  162.5320  209.3970  139.9720 C   0  0  0  0  0  1  0  0  0  0  0  0
  161.7300  210.4580  139.2290 C   0  0  0  0  0  0  0  0  0  0  0  0
  160.0670  212.9350  142.8450 C   0  0  0  0  0  3  0  0  0  0  0  0
  162.5990  211.0270  138.1070 C   0  0  0  0  0  1  0  0  0  0  0  0
  159.5110  210.8310  138.0210 C   0  0  0  0  0  2  0  0  0  0  0  0
  159.1190  211.9090  139.0300 C   0  0  1  0  0  3  0  0  0  0  0  0
  160.4450  209.8070  138.6610 C   0  0  1  0  0  3  0  0  0  0  0  0
  157.9370  213.6880  141.9520 C   0  0  0  0  0  1  0  0  0  0  0  0
  160.3620  212.6000  139.6100 C   0  0  1  0  0  3  0  0  0  0  0  0
  161.5250  212.5720  142.8520 C   0  0  0  0  0  2  0  0  0  0  0  0
  159.9860  213.6200  140.5430 O   0  0  0  0  0  0  0  0  0  0  0  0
  159.3790  213.3690  141.7830 C   0  0  0  0  0  0  0  0  0  0  0  0
  162.2160  213.2260  141.8230 O   0  0  0  0  0  0  0  0  0  0  0  0
  161.3370  211.5750  140.2230 C   0  0  2  0  0  3  0  0  0  0  0  0
  161.9910  208.4110  137.2840 O   0  0  0  0  0  0  0  0  0  0  0  0
  160.6990  208.6630  137.7230 C   0  0  0  0  0  0  0  0  0  0  0  0
  159.7500  207.9400  137.3170 O   0  0  0  0  0  1  0  0  0  0  0  0
  158.1380  212.9240  138.4230 C   0  0  2  0  0  3  0  0  0  0  0  0
  159.0110  214.4530  137.0760 C   0  0  0  0  0  1  0  0  0  0  0  0
  158.6950  214.2080  138.4130 O   0  0  0  0  0  0  0  0  0  0  0  0
  156.7640  212.9190  139.1030 C   0  0  2  0  0  3  0  0  0  0  0  0
  155.8190  212.0060  138.3370 C   0  0  0  0  0  2  0  0  0  0  0  0
  155.3290  210.8810  139.2280 C   0  0  0  0  0  2  0  0  0  0  0  0
  156.1590  209.6410  138.9750 C   0  0  0  0  0  1  0  0  0  0  0  0
  156.2360  214.2380  139.1740 O   0  0  0  0  0  0  0  0  0  0  0  0
  154.8950  214.4520  139.4690 C   0  0  0  0  0  3  0  0  0  0  0  0
  154.4710  214.2670  140.6380 O   0  0  0  0  0  0  0  0  0  0  0  0
  1 14  1  0  0  0  0
  3  2  1  0  0  0  0
  3 15  1  0  0  0  0
  4 11  1  0  0  0  0
  5  3  1  0  0  0  0
  6  8  1  0  0  0  0
  6  7  1  0  0  0  0
  7 19  1  6  0  0  0
  7 10  1  0  0  0  0
  8 17  1  6  0  0  0
  8  3  1  0  0  0  0
 10 15  1  0  0  0  0
 10 12  1  1  0  0  0
 12 13  1  0  0  0  0
 13  9  1  0  0  0  0
 13  4  2  0  0  0  0
 14 11  1  0  0  0  0
 15  1  1  6  0  0  0
 16 17  2  0  0  0  0
 18 17  1  0  0  0  0
 19 21  1  1  0  0  0
 19 22  1  0  0  0  0
 20 21  1  0  0  0  0
 22 23  1  6  0  0  0
 22 26  1  0  0  0  0
 23 24  1  0  0  0  0
 25 24  1  0  0  0  0
 26 27  1  0  0  0  0
 27 28  2  0  0  0  0
M  END
>  <MODEL>
9

>  <REMARK>
 VINA RESULT:      -2.1     11.598     14.848
  Name = 
  8 active torsions:
  status: ('A' for Active; 'I' for Inactive)
    1  A    between atoms: C_9  and  C_12
    2  A    between atoms: C_9  and  C_13
    3  A    between atoms: C_9  and  O_14
    4  A    between atoms: C_10  and  C_13
    5  A    between atoms: C_11  and  C_22
    6  A    between atoms: C_12  and  C_15
    7  A    between atoms: C_13  and  O_24
    8  A    between atoms: O_14  and  C_18
                            x       y       z     vdW  Elec       q    Type
                         _______ _______ _______ _____ _____    ______ ____

>  <TORSDO>
F 8

$$$$
