=
 OpenBabel11062410363D

 32 34  0  0  1  0  0  0  0  0999 V2000
  161.0350  206.2490  150.6580 N   0  0  2  0  0  0  0  0  0  0  0  0
  162.6360  210.5280  148.8360 C   0  0  0  0  0  2  0  0  0  0  0  0
  162.3000  211.0890  150.2250 C   0  0  0  0  0  2  0  0  0  0  0  0
  160.5530  204.2770  149.2600 C   0  0  2  0  0  3  0  0  0  0  0  0
  160.8670  206.5440  148.1790 C   0  0  0  0  0  2  0  0  0  0  0  0
  161.2970  204.5160  147.0030 F   0  0  0  0  0  0  0  0  0  0  0  0
  161.7200  209.3420  148.5300 C   0  0  0  0  0  2  0  0  0  0  0  0
  160.7660  207.2100  149.5720 C   0  0  2  0  0  3  0  0  0  0  0  0
  161.7510  208.3620  149.7040 C   0  0  2  0  0  3  0  0  0  0  0  0
  161.1490  208.2770  152.1520 C   0  0  0  0  0  0  0  0  0  0  0  0
  161.3620  205.1010  148.2540 C   0  0  2  0  0  3  0  0  0  0  0  0
  162.4330  210.0870  151.2090 O   0  0  0  0  0  0  0  0  0  0  0  0
  161.4100  209.1540  150.9590 C   0  0  1  0  0  3  0  0  0  0  0  0
  160.8670  208.8660  153.2860 C   0  0  0  0  0  0  0  0  0  0  0  0
  160.1300  205.1150  150.4740 C   0  0  0  0  0  2  0  0  0  0  0  0
  160.7830  206.8090  152.0020 C   0  0  2  0  0  3  0  0  0  0  0  0
  160.5870  209.4450  154.4190 C   0  0  0  0  0  3  0  0  0  0  0  0
  161.9470  200.8960  149.5560 O   0  0  0  0  0  0  0  0  0  0  0  0
  161.2320  201.8330  149.1160 C   0  0  0  0  0  0  0  0  0  0  0  0
  161.3460  203.1360  149.6960 N   0  0  0  0  0  2  0  0  0  0  0  0
  160.3060  201.5710  147.9740 C   0  0  0  0  0  2  0  0  0  0  0  0
  161.0910  201.0680  146.7770 C   0  0  0  0  0  2  0  0  0  0  0  0
  160.4880  201.5930  145.5240 C   0  0  0  0  0  0  0  0  0  0  0  0
  160.8200  202.8630  145.0710 O   0  0  0  0  0  1  0  0  0  0  0  0
  159.7000  200.8740  144.8560 O   0  0  0  0  0  0  0  0  0  0  0  0
  159.5140  207.1730  155.7300 O   0  0  0  0  0  0  0  0  0  0  0  0
  160.5640  208.4870  155.9260 P   0  0  1  0  0  0  0  0  0  0  0  0
  161.9610  207.9810  156.2100 O   0  0  0  0  0  1  0  0  0  0  0  0
  160.0370  209.4740  157.2000 O   0  0  0  0  0  0  0  0  0  0  0  0
  159.4550  210.5880  156.5930 C   0  0  0  0  0  1  0  0  0  0  0  0
  161.5560  205.9930  153.0390 C   0  0  0  0  0  2  0  0  0  0  0  0
  162.8750  205.5130  152.4650 C   0  0  0  0  0  1  0  0  0  0  0  0
  1 15  1  6  0  0  0
  1 16  1  0  0  0  0
  2  3  1  0  0  0  0
  3 12  1  0  0  0  0
  4 20  1  1  0  0  0
  4 15  1  0  0  0  0
  5 11  1  0  0  0  0
  7  2  1  0  0  0  0
  8  5  1  6  0  0  0
  8  9  1  0  0  0  0
  8  1  1  0  0  0  0
  9  7  1  6  0  0  0
  9 13  1  0  0  0  0
 10 14  2  0  0  0  0
 11  6  1  6  0  0  0
 11  4  1  0  0  0  0
 13 12  1  1  0  0  0
 13 10  1  0  0  0  0
 14 17  2  0  0  0  0
 16 10  1  0  0  0  0
 16 31  1  1  0  0  0
 17 27  1  0  0  0  0
 19 18  2  0  0  0  0
 19 20  1  0  0  0  0
 21 19  1  0  0  0  0
 22 21  1  0  0  0  0
 23 22  1  0  0  0  0
 24 23  1  0  0  0  0
 25 23  2  0  0  0  0
 27 26  2  6  0  0  0
 27 28  1  0  0  0  0
 27 29  1  0  0  0  0
 30 29  1  0  0  0  0
 32 31  1  0  0  0  0
M  END
>  <MODEL>
1

>  <REMARK>
 VINA RESULT:      -6.6      0.000      0.000
  Name = 
  7 active torsions:
  status: ('A' for Active; 'I' for Inactive)
    1  A    between atoms: C_1  and  C_10
    2  A    between atoms: C_6  and  C_31
    3  A    between atoms: C_8  and  N_23
    4  A    between atoms: C_10  and  C_24
    5  A    between atoms: P_11  and  O_18
    6  A    between atoms: P_11  and  C_32
    7  A    between atoms: C_19  and  C_24
                            x       y       z     vdW  Elec       q    Type
                         _______ _______ _______ _____ _____    ______ ____

>  <TORSDO>
F 7

$$$$
=
 OpenBabel11062410363D

 32 34  0  0  1  0  0  0  0  0999 V2000
  161.1640  206.8350  151.2500 N   0  0  2  0  0  0  0  0  0  0  0  0
  162.6340  210.5360  148.3630 C   0  0  0  0  0  2  0  0  0  0  0  0
  162.2460  211.4330  149.5470 C   0  0  0  0  0  2  0  0  0  0  0  0
  160.7890  204.5420  150.4290 C   0  0  2  0  0  3  0  0  0  0  0  0
  161.0370  206.4480  148.7820 C   0  0  0  0  0  2  0  0  0  0  0  0
  161.5720  204.2000  148.1980 F   0  0  0  0  0  0  0  0  0  0  0  0
  161.7720  209.2730  148.3770 C   0  0  0  0  0  2  0  0  0  0  0  0
  160.8810  207.4580  149.9430 C   0  0  2  0  0  3  0  0  0  0  0  0
  161.8160  208.6440  149.7710 C   0  0  2  0  0  3  0  0  0  0  0  0
  161.1650  209.1930  152.1460 C   0  0  0  0  0  0  0  0  0  0  0  0
  161.5880  205.1000  149.2470 C   0  0  2  0  0  3  0  0  0  0  0  0
  162.3970  210.7390  150.7650 O   0  0  0  0  0  0  0  0  0  0  0  0
  161.4170  209.7290  150.7640 C   0  0  1  0  0  3  0  0  0  0  0  0
  160.8350  210.0520  153.0770 C   0  0  0  0  0  0  0  0  0  0  0  0
  160.3070  205.6550  151.3680 C   0  0  0  0  0  2  0  0  0  0  0  0
  160.8600  207.7230  152.3920 C   0  0  2  0  0  3  0  0  0  0  0  0
  160.5090  210.9000  154.0100 C   0  0  0  0  0  3  0  0  0  0  0  0
  162.2970  201.4270  151.6480 O   0  0  0  0  0  0  0  0  0  0  0  0
  161.5550  202.1800  150.9660 C   0  0  0  0  0  0  0  0  0  0  0  0
  161.6170  203.5950  151.1630 N   0  0  0  0  0  2  0  0  0  0  0  0
  160.6510  201.5790  149.9410 C   0  0  0  0  0  2  0  0  0  0  0  0
  161.4160  200.5740  149.1010 C   0  0  0  0  0  2  0  0  0  0  0  0
  161.0700  200.7500  147.6660 C   0  0  0  0  0  0  0  0  0  0  0  0
  161.4640  199.7990  146.7340 O   0  0  0  0  0  0  0  0  0  0  0  0
  160.3920  201.7450  147.3000 O   0  0  0  0  0  1  0  0  0  0  0  0
  160.2930  211.7400  156.7090 O   0  0  0  0  0  1  0  0  0  0  0  0
  160.4910  210.3800  155.7180 P   0  0  1  0  0  0  0  0  0  0  0  0
  159.3380  209.4260  155.9320 O   0  0  0  0  0  0  0  0  0  0  0  0
  161.9560  209.6050  156.0750 O   0  0  0  0  0  0  0  0  0  0  0  0
  162.7900  210.6010  156.5880 C   0  0  0  0  0  1  0  0  0  0  0  0
  161.6420  207.2500  153.6180 C   0  0  0  0  0  2  0  0  0  0  0  0
  160.7070  206.6340  154.6410 C   0  0  0  0  0  1  0  0  0  0  0  0
  1 15  1  1  0  0  0
  1 16  1  0  0  0  0
  2  7  1  0  0  0  0
  2  3  1  0  0  0  0
  3 12  1  0  0  0  0
  4 20  1  1  0  0  0
  4 15  1  0  0  0  0
  5 11  1  0  0  0  0
  8  5  1  6  0  0  0
  8  1  1  0  0  0  0
  9  7  1  6  0  0  0
  9  8  1  0  0  0  0
  9 13  1  0  0  0  0
 10 16  1  0  0  0  0
 10 14  2  0  0  0  0
 11  6  1  6  0  0  0
 11  4  1  0  0  0  0
 13 12  1  1  0  0  0
 13 10  1  0  0  0  0
 14 17  2  0  0  0  0
 16 31  1  1  0  0  0
 17 27  1  0  0  0  0
 19 20  1  0  0  0  0
 19 18  2  0  0  0  0
 21 19  1  0  0  0  0
 22 21  1  0  0  0  0
 23 22  1  0  0  0  0
 24 23  2  0  0  0  0
 25 23  1  0  0  0  0
 27 28  2  1  0  0  0
 27 29  1  0  0  0  0
 27 26  1  0  0  0  0
 29 30  1  0  0  0  0
 31 32  1  0  0  0  0
M  END
>  <MODEL>
2

>  <REMARK>
 VINA RESULT:      -5.9      1.503      1.968
  Name = 
  7 active torsions:
  status: ('A' for Active; 'I' for Inactive)
    1  A    between atoms: C_1  and  C_10
    2  A    between atoms: C_6  and  C_31
    3  A    between atoms: C_8  and  N_23
    4  A    between atoms: C_10  and  C_24
    5  A    between atoms: P_11  and  O_18
    6  A    between atoms: P_11  and  C_32
    7  A    between atoms: C_19  and  C_24
                            x       y       z     vdW  Elec       q    Type
                         _______ _______ _______ _____ _____    ______ ____

>  <TORSDO>
F 7

$$$$
=
 OpenBabel11062410363D

 32 34  0  0  1  0  0  0  0  0999 V2000
  161.4150  207.6550  151.4690 N   0  0  2  0  0  0  0  0  0  0  0  0
  162.1840  204.7940  147.5420 C   0  0  0  0  0  2  0  0  0  0  0  0
  162.1190  206.1050  146.7450 C   0  0  0  0  0  2  0  0  0  0  0  0
  160.8080  206.7740  153.6890 C   0  0  2  0  0  3  0  0  0  0  0  0
  160.6700  205.2730  151.6550 C   0  0  0  0  0  2  0  0  0  0  0  0
  161.0030  204.3980  153.8460 F   0  0  0  0  0  0  0  0  0  0  0  0
  161.3310  204.9240  148.8050 C   0  0  0  0  0  2  0  0  0  0  0  0
  160.8260  206.5140  150.7430 C   0  0  2  0  0  3  0  0  0  0  0  0
  161.7100  206.2080  149.5440 C   0  0  2  0  0  3  0  0  0  0  0  0
  161.6820  208.7060  149.1920 C   0  0  0  0  0  0  0  0  0  0  0  0
  161.2950  205.4780  153.0340 C   0  0  2  0  0  3  0  0  0  0  0  0
  162.5580  207.1870  147.5360 O   0  0  0  0  0  0  0  0  0  0  0  0
  161.5900  207.3520  148.5450 C   0  0  1  0  0  3  0  0  0  0  0  0
  161.6100  209.7550  148.4130 C   0  0  0  0  0  0  0  0  0  0  0  0
  160.5950  207.8890  152.6570 C   0  0  0  0  0  2  0  0  0  0  0  0
  161.4220  208.9020  150.6770 C   0  0  2  0  0  3  0  0  0  0  0  0
  161.5420  210.8040  147.6440 C   0  0  0  0  0  3  0  0  0  0  0  0
  162.3220  208.2970  156.6640 O   0  0  0  0  0  0  0  0  0  0  0  0
  161.4230  207.9580  155.8510 C   0  0  0  0  0  0  0  0  0  0  0  0
  161.7760  207.2000  154.6900 N   0  0  0  0  0  2  0  0  0  0  0  0
  160.0050  208.3260  156.1350 C   0  0  0  0  0  2  0  0  0  0  0  0
  159.9420  209.7150  156.7420 C   0  0  0  0  0  2  0  0  0  0  0  0
  159.9390  210.7360  155.6620 C   0  0  0  0  0  0  0  0  0  0  0  0
  160.8380  211.7940  155.7030 O   0  0  0  0  0  1  0  0  0  0  0  0
  159.1440  210.6250  154.6930 O   0  0  0  0  0  0  0  0  0  0  0  0
  161.1410  212.6260  149.7780 O   0  0  0  0  0  1  0  0  0  0  0  0
  161.9410  212.4160  148.3000 P   0  0  1  0  0  0  0  0  0  0  0  0
  163.4360  212.5040  148.5170 O   0  0  0  0  0  0  0  0  0  0  0  0
  161.4470  213.6010  147.1930 O   0  0  0  0  0  0  0  0  0  0  0  0
  162.1670  213.3430  146.0250 C   0  0  0  0  0  1  0  0  0  0  0  0
  162.4760  209.8520  151.2470 C   0  0  0  0  0  2  0  0  0  0  0  0
  162.0550  210.3600  152.6120 C   0  0  0  0  0  1  0  0  0  0  0  0
  1 15  1  1  0  0  0
  2  7  1  0  0  0  0
  3 12  1  0  0  0  0
  3  2  1  0  0  0  0
  4 20  1  1  0  0  0
  5 11  1  0  0  0  0
  8  1  1  0  0  0  0
  8  5  1  1  0  0  0
  9  7  1  6  0  0  0
  9  8  1  0  0  0  0
 10 16  1  0  0  0  0
 11  4  1  0  0  0  0
 11  6  1  1  0  0  0
 13 12  1  6  0  0  0
 13 10  1  0  0  0  0
 13  9  1  0  0  0  0
 14 10  2  0  0  0  0
 15  4  1  0  0  0  0
 16 31  1  1  0  0  0
 16  1  1  0  0  0  0
 17 27  1  0  0  0  0
 17 14  2  0  0  0  0
 19 21  1  0  0  0  0
 19 18  2  0  0  0  0
 20 19  1  0  0  0  0
 21 22  1  0  0  0  0
 23 24  1  0  0  0  0
 23 22  1  0  0  0  0
 25 23  2  0  0  0  0
 27 28  2  1  0  0  0
 27 26  1  0  0  0  0
 29 27  1  0  0  0  0
 30 29  1  0  0  0  0
 31 32  1  0  0  0  0
M  END
>  <MODEL>
3

>  <REMARK>
 VINA RESULT:      -5.8      3.455      7.800
  Name = 
  7 active torsions:
  status: ('A' for Active; 'I' for Inactive)
    1  A    between atoms: C_1  and  C_10
    2  A    between atoms: C_6  and  C_31
    3  A    between atoms: C_8  and  N_23
    4  A    between atoms: C_10  and  C_24
    5  A    between atoms: P_11  and  O_18
    6  A    between atoms: P_11  and  C_32
    7  A    between atoms: C_19  and  C_24
                            x       y       z     vdW  Elec       q    Type
                         _______ _______ _______ _____ _____    ______ ____

>  <TORSDO>
F 7

$$$$
=
 OpenBabel11062410363D

 32 34  0  0  1  0  0  0  0  0999 V2000
  161.2430  206.2000  151.6830 N   0  0  2  0  0  0  0  0  0  0  0  0
  161.1980  208.7890  147.5000 C   0  0  0  0  0  2  0  0  0  0  0  0
  161.2970  207.4200  146.8120 C   0  0  0  0  0  2  0  0  0  0  0  0
  161.5860  207.2160  153.9010 C   0  0  2  0  0  3  0  0  0  0  0  0
  162.0930  208.5500  151.8110 C   0  0  0  0  0  2  0  0  0  0  0  0
  161.5090  209.6030  153.8670 F   0  0  0  0  0  0  0  0  0  0  0  0
  161.8570  208.7150  148.8780 C   0  0  0  0  0  2  0  0  0  0  0  0
  161.9930  207.2530  150.9730 C   0  0  2  0  0  3  0  0  0  0  0  0
  161.3050  207.5100  149.6410 C   0  0  2  0  0  3  0  0  0  0  0  0
  161.2360  204.9940  149.4680 C   0  0  0  0  0  0  0  0  0  0  0  0
  161.2700  208.4810  153.0970 C   0  0  2  0  0  3  0  0  0  0  0  0
  160.6900  206.4230  147.6040 O   0  0  0  0  0  0  0  0  0  0  0  0
  161.4960  206.2890  148.7500 C   0  0  1  0  0  3  0  0  0  0  0  0
  161.3550  203.8870  148.7800 C   0  0  0  0  0  0  0  0  0  0  0  0
  161.8750  206.0170  152.9890 C   0  0  0  0  0  2  0  0  0  0  0  0
  161.2750  204.8980  150.9850 C   0  0  2  0  0  3  0  0  0  0  0  0
  161.4690  202.7800  148.1020 C   0  0  0  0  0  3  0  0  0  0  0  0
  159.4110  207.0050  156.8490 O   0  0  0  0  0  0  0  0  0  0  0  0
  160.4110  207.3150  156.1520 C   0  0  0  0  0  0  0  0  0  0  0  0
  160.4640  206.9140  154.7800 N   0  0  0  0  0  2  0  0  0  0  0  0
  161.5050  208.1260  156.7650 C   0  0  0  0  0  2  0  0  0  0  0  0
  160.9520  209.4490  157.2610 C   0  0  0  0  0  2  0  0  0  0  0  0
  161.9160  210.5400  156.9600 C   0  0  0  0  0  0  0  0  0  0  0  0
  161.5480  211.8660  157.1500 O   0  0  0  0  0  1  0  0  0  0  0  0
  163.0780  210.2620  156.5640 O   0  0  0  0  0  0  0  0  0  0  0  0
  161.6540  200.9900  150.2920 O   0  0  0  0  0  1  0  0  0  0  0  0
  160.8890  201.2440  148.8030 P   0  0  1  0  0  0  0  0  0  0  0  0
  159.3930  201.3300  149.0110 O   0  0  0  0  0  0  0  0  0  0  0  0
  161.2520  199.9780  147.7350 O   0  0  0  0  0  0  0  0  0  0  0  0
  161.1910  200.5380  146.4580 C   0  0  0  0  0  1  0  0  0  0  0  0
  160.0980  204.0450  151.4610 C   0  0  0  0  0  2  0  0  0  0  0  0
  160.5750  202.9560  152.4030 C   0  0  0  0  0  1  0  0  0  0  0  0
  1 15  1  1  0  0  0
  2  7  1  0  0  0  0
  3  2  1  0  0  0  0
  3 12  1  0  0  0  0
  4 20  1  1  0  0  0
  5 11  1  0  0  0  0
  8  1  1  0  0  0  0
  8  5  1  1  0  0  0
  9  7  1  6  0  0  0
  9  8  1  0  0  0  0
 10 16  1  0  0  0  0
 11  6  1  1  0  0  0
 11  4  1  0  0  0  0
 13 12  1  6  0  0  0
 13 10  1  0  0  0  0
 13  9  1  0  0  0  0
 14 10  2  0  0  0  0
 15  4  1  0  0  0  0
 16 31  1  1  0  0  0
 16  1  1  0  0  0  0
 17 14  2  0  0  0  0
 17 27  1  0  0  0  0
 19 21  1  0  0  0  0
 19 18  2  0  0  0  0
 20 19  1  0  0  0  0
 21 22  1  0  0  0  0
 23 24  1  0  0  0  0
 23 22  1  0  0  0  0
 25 23  2  0  0  0  0
 27 28  2  1  0  0  0
 27 26  1  0  0  0  0
 29 27  1  0  0  0  0
 30 29  1  0  0  0  0
 31 32  1  0  0  0  0
M  END
>  <MODEL>
4

>  <REMARK>
 VINA RESULT:      -5.7      3.074      8.453
  Name = 
  7 active torsions:
  status: ('A' for Active; 'I' for Inactive)
    1  A    between atoms: C_1  and  C_10
    2  A    between atoms: C_6  and  C_31
    3  A    between atoms: C_8  and  N_23
    4  A    between atoms: C_10  and  C_24
    5  A    between atoms: P_11  and  O_18
    6  A    between atoms: P_11  and  C_32
    7  A    between atoms: C_19  and  C_24
                            x       y       z     vdW  Elec       q    Type
                         _______ _______ _______ _____ _____    ______ ____

>  <TORSDO>
F 7

$$$$
=
 OpenBabel11062410363D

 32 34  0  0  1  0  0  0  0  0999 V2000
  161.2400  205.8870  150.4530 N   0  0  2  0  0  0  0  0  0  0  0  0
  161.3830  200.9900  150.8970 C   0  0  0  0  0  2  0  0  0  0  0  0
  161.1870  200.9830  149.3740 C   0  0  0  0  0  2  0  0  0  0  0  0
  160.9980  207.4150  152.3710 C   0  0  2  0  0  3  0  0  0  0  0  0
  160.5430  204.9410  152.6630 C   0  0  0  0  0  2  0  0  0  0  0  0
  161.2240  206.3210  154.4830 F   0  0  0  0  0  0  0  0  0  0  0  0
  160.7420  202.2470  151.4870 C   0  0  0  0  0  2  0  0  0  0  0  0
  160.5470  204.7710  151.1250 C   0  0  2  0  0  3  0  0  0  0  0  0
  161.2290  203.4750  150.7160 C   0  0  2  0  0  3  0  0  0  0  0  0
  161.1360  204.4430  148.3880 C   0  0  0  0  0  0  0  0  0  0  0  0
  161.3800  206.1350  153.1220 C   0  0  2  0  0  3  0  0  0  0  0  0
  161.7420  202.1450  148.7980 O   0  0  0  0  0  0  0  0  0  0  0  0
  160.9480  203.2190  149.2410 C   0  0  1  0  0  3  0  0  0  0  0  0
  160.9370  204.3190  147.1010 C   0  0  0  0  0  0  0  0  0  0  0  0
  160.6190  207.1290  150.9130 C   0  0  0  0  0  2  0  0  0  0  0  0
  161.1160  205.8430  148.9810 C   0  0  2  0  0  3  0  0  0  0  0  0
  160.7430  204.2040  145.8180 C   0  0  0  0  0  3  0  0  0  0  0  0
  162.9750  210.4770  152.7900 O   0  0  0  0  0  0  0  0  0  0  0  0
  161.9640  209.7290  152.7810 C   0  0  0  0  0  0  0  0  0  0  0  0
  162.1110  208.3510  152.4220 N   0  0  0  0  0  2  0  0  0  0  0  0
  160.6380  210.2880  153.1790 C   0  0  0  0  0  2  0  0  0  0  0  0
  160.6940  210.7810  154.6120 C   0  0  0  0  0  2  0  0  0  0  0  0
  160.7340  209.6210  155.5410 C   0  0  0  0  0  0  0  0  0  0  0  0
  161.9120  209.3020  156.2050 O   0  0  0  0  0  1  0  0  0  0  0  0
  159.6920  208.9480  155.7520 O   0  0  0  0  0  0  0  0  0  0  0  0
  161.0010  205.0310  143.1190 O   0  0  0  0  0  0  0  0  0  0  0  0
  161.2360  205.5240  144.7210 P   0  0  1  0  0  0  0  0  0  0  0  0
  160.3880  206.7440  145.0050 O   0  0  0  0  0  1  0  0  0  0  0  0
  162.8710  205.8830  144.9900 O   0  0  0  0  0  0  0  0  0  0  0  0
  163.4370  204.7030  145.4760 C   0  0  0  0  0  1  0  0  0  0  0  0
  162.2440  206.6650  148.3570 C   0  0  0  0  0  2  0  0  0  0  0  0
  161.8370  208.1210  148.2330 C   0  0  0  0  0  1  0  0  0  0  0  0
  1 15  1  1  0  0  0
  1  8  1  0  0  0  0
  2  7  1  0  0  0  0
  3  2  1  0  0  0  0
  4 20  1  6  0  0  0
  4 11  1  0  0  0  0
  5 11  1  0  0  0  0
  8  5  1  1  0  0  0
  9  8  1  0  0  0  0
  9  7  1  1  0  0  0
 10 16  1  0  0  0  0
 11  6  1  1  0  0  0
 12 13  1  0  0  0  0
 12  3  1  0  0  0  0
 13 10  1  6  0  0  0
 13  9  1  0  0  0  0
 14 10  2  0  0  0  0
 15  4  1  0  0  0  0
 16 31  1  6  0  0  0
 16  1  1  0  0  0  0
 17 14  2  0  0  0  0
 19 18  2  0  0  0  0
 19 21  1  0  0  0  0
 20 19  1  0  0  0  0
 21 22  1  0  0  0  0
 22 23  1  0  0  0  0
 23 25  2  0  0  0  0
 23 24  1  0  0  0  0
 27 26  2  6  0  0  0
 27 29  1  0  0  0  0
 27 28  1  0  0  0  0
 27 17  1  0  0  0  0
 29 30  1  0  0  0  0
 32 31  1  0  0  0  0
M  END
>  <MODEL>
5

>  <REMARK>
 VINA RESULT:      -5.2      3.079      8.918
  Name = 
  7 active torsions:
  status: ('A' for Active; 'I' for Inactive)
    1  A    between atoms: C_1  and  C_10
    2  A    between atoms: C_6  and  C_31
    3  A    between atoms: C_8  and  N_23
    4  A    between atoms: C_10  and  C_24
    5  A    between atoms: P_11  and  O_18
    6  A    between atoms: P_11  and  C_32
    7  A    between atoms: C_19  and  C_24
                            x       y       z     vdW  Elec       q    Type
                         _______ _______ _______ _____ _____    ______ ____

>  <TORSDO>
F 7

$$$$
=
 OpenBabel11062410363D

 32 34  0  0  1  0  0  0  0  0999 V2000
  161.6730  207.6350  149.2870 N   0  0  2  0  0  0  0  0  0  0  0  0
  161.4050  205.0080  153.4370 C   0  0  0  0  0  2  0  0  0  0  0  0
  161.0940  203.8260  152.5080 C   0  0  0  0  0  2  0  0  0  0  0  0
  161.7160  210.0980  149.2430 C   0  0  2  0  0  3  0  0  0  0  0  0
  161.0640  208.8850  151.3670 C   0  0  0  0  0  2  0  0  0  0  0  0
  162.0040  211.0750  151.4040 F   0  0  0  0  0  0  0  0  0  0  0  0
  160.9280  206.3070  152.7870 C   0  0  0  0  0  2  0  0  0  0  0  0
  160.9350  207.5700  150.5630 C   0  0  2  0  0  3  0  0  0  0  0  0
  161.4640  206.3850  151.3560 C   0  0  2  0  0  3  0  0  0  0  0  0
  161.2810  205.1460  149.1660 C   0  0  0  0  0  0  0  0  0  0  0  0
  162.0370  209.8720  150.7240 C   0  0  2  0  0  3  0  0  0  0  0  0
  161.7060  204.0100  151.2510 O   0  0  0  0  0  0  0  0  0  0  0  0
  161.0480  205.1000  150.6510 C   0  0  1  0  0  3  0  0  0  0  0  0
  160.9730  204.0800  148.4730 C   0  0  0  0  0  0  0  0  0  0  0  0
  161.2030  208.8190  148.5690 C   0  0  0  0  0  2  0  0  0  0  0  0
  161.4320  206.4620  148.4200 C   0  0  2  0  0  3  0  0  0  0  0  0
  160.6720  203.0210  147.7760 C   0  0  0  0  0  3  0  0  0  0  0  0
  164.1330  212.2560  147.5200 O   0  0  0  0  0  0  0  0  0  0  0  0
  163.0740  211.9250  148.1130 C   0  0  0  0  0  0  0  0  0  0  0  0
  162.9110  210.5750  148.5610 N   0  0  0  0  0  2  0  0  0  0  0  0
  162.0260  212.9570  148.3670 C   0  0  0  0  0  2  0  0  0  0  0  0
  161.7490  213.7360  147.0950 C   0  0  0  0  0  2  0  0  0  0  0  0
  160.9400  212.9060  146.1630 C   0  0  0  0  0  0  0  0  0  0  0  0
  159.8650  212.1680  146.6440 O   0  0  0  0  0  1  0  0  0  0  0  0
  161.2090  212.8960  144.9340 O   0  0  0  0  0  0  0  0  0  0  0  0
  160.2470  203.9300  145.1250 O   0  0  0  0  0  0  0  0  0  0  0  0
  161.1980  202.8980  146.0740 P   0  0  1  0  0  0  0  0  0  0  0  0
  162.6490  203.3130  145.9740 O   0  0  0  0  0  1  0  0  0  0  0  0
  161.0180  201.2940  145.5550 O   0  0  0  0  0  0  0  0  0  0  0  0
  159.8050  201.2590  144.8640 C   0  0  0  0  0  1  0  0  0  0  0  0
  162.5790  206.3370  147.4160 C   0  0  0  0  0  2  0  0  0  0  0  0
  162.0590  206.4460  145.9960 C   0  0  0  0  0  1  0  0  0  0  0  0
  1 15  1  6  0  0  0
  1  8  1  0  0  0  0
  3  2  1  0  0  0  0
  4 20  1  6  0  0  0
  4 11  1  0  0  0  0
  7  2  1  0  0  0  0
  8  9  1  0  0  0  0
  8  5  1  1  0  0  0
  9  7  1  1  0  0  0
 11  5  1  0  0  0  0
 11  6  1  1  0  0  0
 12  3  1  0  0  0  0
 13 10  1  6  0  0  0
 13 12  1  0  0  0  0
 13  9  1  0  0  0  0
 14 10  2  0  0  0  0
 15  4  1  0  0  0  0
 16 31  1  6  0  0  0
 16 10  1  0  0  0  0
 16  1  1  0  0  0  0
 17 14  2  0  0  0  0
 18 19  2  0  0  0  0
 19 21  1  0  0  0  0
 19 20  1  0  0  0  0
 22 21  1  0  0  0  0
 23 24  1  0  0  0  0
 23 22  1  0  0  0  0
 25 23  2  0  0  0  0
 27 26  2  6  0  0  0
 27 17  1  0  0  0  0
 28 27  1  0  0  0  0
 29 27  1  0  0  0  0
 30 29  1  0  0  0  0
 32 31  1  0  0  0  0
M  END
>  <MODEL>
6

>  <REMARK>
 VINA RESULT:      -4.8      3.837      8.620
  Name = 
  7 active torsions:
  status: ('A' for Active; 'I' for Inactive)
    1  A    between atoms: C_1  and  C_10
    2  A    between atoms: C_6  and  C_31
    3  A    between atoms: C_8  and  N_23
    4  A    between atoms: C_10  and  C_24
    5  A    between atoms: P_11  and  O_18
    6  A    between atoms: P_11  and  C_32
    7  A    between atoms: C_19  and  C_24
                            x       y       z     vdW  Elec       q    Type
                         _______ _______ _______ _____ _____    ______ ____

>  <TORSDO>
F 7

$$$$
=
 OpenBabel11062410363D

 32 34  0  0  1  0  0  0  0  0999 V2000
  161.3410  206.1910  150.9850 N   0  0  2  0  0  0  0  0  0  0  0  0
  160.1130  208.1700  155.3180 C   0  0  0  0  0  2  0  0  0  0  0  0
  160.5250  209.5000  154.6730 C   0  0  0  0  0  2  0  0  0  0  0  0
  161.6130  203.7680  150.6310 C   0  0  2  0  0  3  0  0  0  0  0  0
  161.4910  204.6930  152.9840 C   0  0  0  0  0  2  0  0  0  0  0  0
  160.8530  202.4540  152.4750 F   0  0  0  0  0  0  0  0  0  0  0  0
  160.9080  207.0280  154.6840 C   0  0  0  0  0  2  0  0  0  0  0  0
  161.6790  206.1210  152.4190 C   0  0  2  0  0  3  0  0  0  0  0  0
  160.8080  207.1250  153.1600 C   0  0  2  0  0  3  0  0  0  0  0  0
  161.4440  208.6930  151.2890 C   0  0  0  0  0  0  0  0  0  0  0  0
  160.8650  203.7390  151.9670 C   0  0  2  0  0  3  0  0  0  0  0  0
  160.3170  209.4600  153.2780 O   0  0  0  0  0  0  0  0  0  0  0  0
  161.2440  208.5310  152.7710 C   0  0  1  0  0  3  0  0  0  0  0  0
  161.8010  209.8740  150.8520 C   0  0  0  0  0  0  0  0  0  0  0  0
  162.1340  205.1710  150.2990 C   0  0  0  0  0  2  0  0  0  0  0  0
  161.6700  207.4970  150.3770 C   0  0  2  0  0  3  0  0  0  0  0  0
  162.1540  211.0460  150.4090 C   0  0  0  0  0  3  0  0  0  0  0  0
  160.2190  202.9770  147.3300 O   0  0  0  0  0  0  0  0  0  0  0  0
  161.0460  203.3910  148.1820 C   0  0  0  0  0  0  0  0  0  0  0  0
  160.7250  203.3040  149.5740 N   0  0  0  0  0  2  0  0  0  0  0  0
  162.3600  203.9320  147.7230 C   0  0  0  0  0  2  0  0  0  0  0  0
  162.3850  204.0100  146.2080 C   0  0  0  0  0  2  0  0  0  0  0  0
  162.0610  205.3940  145.7720 C   0  0  0  0  0  0  0  0  0  0  0  0
  161.3440  205.6030  144.6010 O   0  0  0  0  0  0  0  0  0  0  0  0
  162.4080  206.3750  146.4790 O   0  0  0  0  0  1  0  0  0  0  0  0
  163.5850  212.0850  148.1940 O   0  0  0  0  0  1  0  0  0  0  0  0
  162.1150  211.3830  148.6560 P   0  0  1  0  0  0  0  0  0  0  0  0
  161.9180  210.0840  147.9080 O   0  0  0  0  0  0  0  0  0  0  0  0
  160.8320  212.4410  148.3250 O   0  0  0  0  0  0  0  0  0  0  0  0
  160.6970  212.4400  146.9350 C   0  0  0  0  0  1  0  0  0  0  0  0
  160.8430  207.6790  149.1030 C   0  0  0  0  0  2  0  0  0  0  0  0
  159.9660  206.4670  148.8580 C   0  0  0  0  0  1  0  0  0  0  0  0
  1 15  1  6  0  0  0
  1  8  1  0  0  0  0
  3  2  1  0  0  0  0
  4 20  1  6  0  0  0
  4 11  1  0  0  0  0
  7  2  1  0  0  0  0
  8  5  1  1  0  0  0
  8  9  1  0  0  0  0
  9  7  1  1  0  0  0
 11  6  1  1  0  0  0
 11  5  1  0  0  0  0
 12  3  1  0  0  0  0
 13 10  1  6  0  0  0
 13  9  1  0  0  0  0
 13 12  1  0  0  0  0
 14 10  2  0  0  0  0
 15  4  1  0  0  0  0
 16 31  1  6  0  0  0
 16  1  1  0  0  0  0
 16 10  1  0  0  0  0
 17 14  2  0  0  0  0
 18 19  2  0  0  0  0
 19 20  1  0  0  0  0
 21 19  1  0  0  0  0
 22 21  1  0  0  0  0
 23 22  1  0  0  0  0
 23 25  1  0  0  0  0
 24 23  2  0  0  0  0
 26 27  1  0  0  0  0
 27 28  2  6  0  0  0
 27 17  1  0  0  0  0
 29 27  1  0  0  0  0
 30 29  1  0  0  0  0
 32 31  1  0  0  0  0
M  END
>  <MODEL>
7

>  <REMARK>
 VINA RESULT:      -4.8      2.716      5.133
  Name = 
  7 active torsions:
  status: ('A' for Active; 'I' for Inactive)
    1  A    between atoms: C_1  and  C_10
    2  A    between atoms: C_6  and  C_31
    3  A    between atoms: C_8  and  N_23
    4  A    between atoms: C_10  and  C_24
    5  A    between atoms: P_11  and  O_18
    6  A    between atoms: P_11  and  C_32
    7  A    between atoms: C_19  and  C_24
                            x       y       z     vdW  Elec       q    Type
                         _______ _______ _______ _____ _____    ______ ____

>  <TORSDO>
F 7

$$$$
=
 OpenBabel11062410363D

 32 34  0  0  1  0  0  0  0  0999 V2000
  161.1020  206.0630  151.1330 N   0  0  2  0  0  0  0  0  0  0  0  0
  160.4900  208.2110  155.5150 C   0  0  0  0  0  2  0  0  0  0  0  0
  160.9630  209.4860  154.8040 C   0  0  0  0  0  2  0  0  0  0  0  0
  161.1060  203.6200  150.8100 C   0  0  2  0  0  3  0  0  0  0  0  0
  161.3000  204.5850  153.1420 C   0  0  0  0  0  2  0  0  0  0  0  0
  160.4060  202.4110  152.7480 F   0  0  0  0  0  0  0  0  0  0  0  0
  161.1090  206.9880  154.8350 C   0  0  0  0  0  2  0  0  0  0  0  0
  161.5680  205.9800  152.5300 C   0  0  2  0  0  3  0  0  0  0  0  0
  160.8720  207.0730  153.3260 C   0  0  2  0  0  3  0  0  0  0  0  0
  161.4720  208.5460  151.3680 C   0  0  0  0  0  0  0  0  0  0  0  0
  160.4910  203.6820  152.2110 C   0  0  2  0  0  3  0  0  0  0  0  0
  160.6190  209.4470  153.4370 O   0  0  0  0  0  0  0  0  0  0  0  0
  161.4010  208.4260  152.8650 C   0  0  1  0  0  3  0  0  0  0  0  0
  161.8960  209.6810  150.8730 C   0  0  0  0  0  0  0  0  0  0  0  0
  161.7250  204.9620  150.3980 C   0  0  0  0  0  2  0  0  0  0  0  0
  161.4940  207.3220  150.4660 C   0  0  2  0  0  3  0  0  0  0  0  0
  162.3140  210.8080  150.3710 C   0  0  0  0  0  3  0  0  0  0  0  0
  159.1590  201.7110  148.3540 O   0  0  0  0  0  0  0  0  0  0  0  0
  160.0760  201.9690  149.1760 C   0  0  0  0  0  0  0  0  0  0  0  0
  160.0810  203.2290  149.8530 N   0  0  0  0  0  2  0  0  0  0  0  0
  161.1200  200.9370  149.4530 C   0  0  0  0  0  2  0  0  0  0  0  0
  162.1720  200.9600  148.3610 C   0  0  0  0  0  2  0  0  0  0  0  0
  161.5810  200.4790  147.0840 C   0  0  0  0  0  0  0  0  0  0  0  0
  161.0710  201.3900  146.1680 O   0  0  0  0  0  0  0  0  0  0  0  0
  161.5720  199.2490  146.8190 O   0  0  0  0  0  1  0  0  0  0  0  0
  163.5600  211.8400  148.0440 O   0  0  0  0  0  1  0  0  0  0  0  0
  162.1400  211.1230  148.6220 P   0  0  1  0  0  0  0  0  0  0  0  0
  161.9070  209.8110  147.9060 O   0  0  0  0  0  0  0  0  0  0  0  0
  160.8190  212.1580  148.3760 O   0  0  0  0  0  0  0  0  0  0  0  0
  160.9150  212.5760  147.0480 C   0  0  0  0  0  1  0  0  0  0  0  0
  160.5700  207.5660  149.2720 C   0  0  0  0  0  2  0  0  0  0  0  0
  160.8640  206.5780  148.1600 C   0  0  0  0  0  1  0  0  0  0  0  0
  1 15  1  6  0  0  0
  1  8  1  0  0  0  0
  3  2  1  0  0  0  0
  4 20  1  6  0  0  0
  4 11  1  0  0  0  0
  7  2  1  0  0  0  0
  8  5  1  1  0  0  0
  8  9  1  0  0  0  0
  9  7  1  1  0  0  0
 11  6  1  1  0  0  0
 11  5  1  0  0  0  0
 12  3  1  0  0  0  0
 13 10  1  6  0  0  0
 13  9  1  0  0  0  0
 13 12  1  0  0  0  0
 14 10  2  0  0  0  0
 15  4  1  0  0  0  0
 16 31  1  6  0  0  0
 16  1  1  0  0  0  0
 16 10  1  0  0  0  0
 17 14  2  0  0  0  0
 18 19  2  0  0  0  0
 19 21  1  0  0  0  0
 19 20  1  0  0  0  0
 22 21  1  0  0  0  0
 23 22  1  0  0  0  0
 24 23  2  0  0  0  0
 25 23  1  0  0  0  0
 26 27  1  0  0  0  0
 27 28  2  6  0  0  0
 27 17  1  0  0  0  0
 29 27  1  0  0  0  0
 30 29  1  0  0  0  0
 32 31  1  0  0  0  0
M  END
>  <MODEL>
8

>  <REMARK>
 VINA RESULT:      -4.3      2.602      4.948
  Name = 
  7 active torsions:
  status: ('A' for Active; 'I' for Inactive)
    1  A    between atoms: C_1  and  C_10
    2  A    between atoms: C_6  and  C_31
    3  A    between atoms: C_8  and  N_23
    4  A    between atoms: C_10  and  C_24
    5  A    between atoms: P_11  and  O_18
    6  A    between atoms: P_11  and  C_32
    7  A    between atoms: C_19  and  C_24
                            x       y       z     vdW  Elec       q    Type
                         _______ _______ _______ _____ _____    ______ ____

>  <TORSDO>
F 7

$$$$
=
 OpenBabel11062410363D

 32 34  0  0  1  0  0  0  0  0999 V2000
  161.0400  210.1640  151.1820 N   0  0  2  0  0  0  0  0  0  0  0  0
  161.2240  205.8920  153.6130 C   0  0  0  0  0  2  0  0  0  0  0  0
  160.7970  206.7230  154.8300 C   0  0  0  0  0  2  0  0  0  0  0  0
  161.9840  210.4830  148.9280 C   0  0  2  0  0  3  0  0  0  0  0  0
  162.5860  208.4220  150.2690 C   0  0  0  0  0  2  0  0  0  0  0  0
  162.6480  208.4380  147.8860 F   0  0  0  0  0  0  0  0  0  0  0  0
  162.0110  206.7750  152.6440 C   0  0  0  0  0  2  0  0  0  0  0  0
  161.9740  209.0770  151.5300 C   0  0  2  0  0  3  0  0  0  0  0  0
  161.2230  208.0570  152.3710 C   0  0  2  0  0  3  0  0  0  0  0  0
  160.3530  210.0770  153.6070 C   0  0  0  0  0  0  0  0  0  0  0  0
  161.9690  208.9510  148.9750 C   0  0  2  0  0  3  0  0  0  0  0  0
  160.0260  207.8330  154.4270 O   0  0  0  0  0  0  0  0  0  0  0  0
  160.9000  208.6810  153.7230 C   0  0  1  0  0  3  0  0  0  0  0  0
  160.0260  210.6920  154.7150 C   0  0  0  0  0  0  0  0  0  0  0  0
  161.7580  211.0980  150.3150 C   0  0  0  0  0  2  0  0  0  0  0  0
  160.5690  210.9210  152.3600 C   0  0  2  0  0  3  0  0  0  0  0  0
  159.6960  211.3100  155.8130 C   0  0  0  0  0  3  0  0  0  0  0  0
  160.1360  212.4810  146.4670 O   0  0  0  0  0  0  0  0  0  0  0  0
  161.0740  212.1450  147.2360 C   0  0  0  0  0  0  0  0  0  0  0  0
  160.9560  210.9440  148.0050 N   0  0  0  0  0  2  0  0  0  0  0  0
  162.3030  212.9900  147.3000 C   0  0  0  0  0  2  0  0  0  0  0  0
  163.2110  212.6710  146.1280 C   0  0  0  0  0  2  0  0  0  0  0  0
  162.9660  213.6370  145.0250 C   0  0  0  0  0  0  0  0  0  0  0  0
  161.8420  214.4530  145.0520 O   0  0  0  0  0  1  0  0  0  0  0  0
  163.7930  213.7390  144.0820 O   0  0  0  0  0  0  0  0  0  0  0  0
  158.1270  213.1750  157.2610 O   0  0  0  0  0  1  0  0  0  0  0  0
  158.7690  212.8350  155.7310 P   0  0  1  0  0  0  0  0  0  0  0  0
  159.6960  213.9530  155.3120 O   0  0  0  0  0  0  0  0  0  0  0  0
  157.5210  212.6620  154.5970 O   0  0  0  0  0  0  0  0  0  0  0  0
  156.3360  212.8120  155.3200 C   0  0  0  0  0  1  0  0  0  0  0  0
  159.2630  211.6350  152.0090 C   0  0  0  0  0  2  0  0  0  0  0  0
  159.5210  213.0950  151.6940 C   0  0  0  0  0  1  0  0  0  0  0  0
  1 15  1  6  0  0  0
  1  8  1  0  0  0  0
  1 16  1  0  0  0  0
  2  3  1  0  0  0  0
  4 20  1  6  0  0  0
  4 11  1  0  0  0  0
  4 15  1  0  0  0  0
  7  2  1  0  0  0  0
  8  5  1  6  0  0  0
  8  9  1  0  0  0  0
  9  7  1  1  0  0  0
  9 13  1  0  0  0  0
 10 14  2  0  0  0  0
 11  6  1  6  0  0  0
 11  5  1  0  0  0  0
 12  3  1  0  0  0  0
 13 10  1  6  0  0  0
 13 12  1  0  0  0  0
 14 17  2  0  0  0  0
 16 31  1  6  0  0  0
 16 10  1  0  0  0  0
 18 19  2  0  0  0  0
 19 21  1  0  0  0  0
 19 20  1  0  0  0  0
 22 21  1  0  0  0  0
 23 24  1  0  0  0  0
 23 22  1  0  0  0  0
 25 23  2  0  0  0  0
 27 28  2  6  0  0  0
 27 17  1  0  0  0  0
 27 26  1  0  0  0  0
 29 30  1  0  0  0  0
 29 27  1  0  0  0  0
 32 31  1  0  0  0  0
M  END
>  <MODEL>
9

>  <REMARK>
 VINA RESULT:      -4.2      4.840      7.178
  Name = 
  7 active torsions:
  status: ('A' for Active; 'I' for Inactive)
    1  A    between atoms: C_1  and  C_10
    2  A    between atoms: C_6  and  C_31
    3  A    between atoms: C_8  and  N_23
    4  A    between atoms: C_10  and  C_24
    5  A    between atoms: P_11  and  O_18
    6  A    between atoms: P_11  and  C_32
    7  A    between atoms: C_19  and  C_24
                            x       y       z     vdW  Elec       q    Type
                         _______ _______ _______ _____ _____    ______ ____

>  <TORSDO>
F 7

$$$$
