=
 OpenBabel11062409393D

 34 38  0  0  1  0  0  0  0  0999 V2000
  160.3960  211.5700  153.5900 C   0  0  2  0  0  3  0  0  0  0  0  0
  157.4600  213.6580  153.2100 C   0  0  0  0  0  3  0  0  0  0  0  0
  158.7530  213.6260  155.5560 S   0  0  0  0  0  0  0  0  0  0  0  0
  160.0440  210.0200  155.7370 N   0  0  0  0  0  0  0  0  0  0  0  0
  160.5690  208.6790  155.5670 C   0  0  0  0  0  1  0  0  0  0  0  0
  159.2800  211.9590  155.8390 C   0  0  0  0  0  0  0  0  0  0  0  0
  160.0060  211.1580  154.9430 C   0  0  0  0  0  0  0  0  0  0  0  0
  159.1190  210.7290  156.9010 S   0  0  0  0  0  0  0  0  0  0  0  0
  157.0450  213.5350  151.8050 C   0  0  0  0  0  3  0  0  0  0  0  0
  157.7980  213.4030  150.7080 C   0  0  0  0  0  0  0  0  0  0  0  0
  159.2730  213.3900  150.6930 C   0  0  0  0  0  3  0  0  0  0  0  0
  158.6160  213.3080  153.7700 C   0  0  1  0  0  3  0  0  0  0  0  0
  160.0980  213.0320  151.6720 C   0  0  0  0  0  3  0  0  0  0  0  0
  159.7090  212.5930  153.0180 C   0  0  0  0  0  0  0  0  0  0  0  0
  157.1050  213.3570  149.4050 C   0  0  0  0  0  0  0  0  0  0  0  0
  157.7750  212.9320  148.2630 O   0  0  0  0  0  0  0  0  0  0  0  0
  155.8980  213.7060  149.3130 O   0  0  0  0  0  1  0  0  0  0  0  0
  161.1780  209.7150  152.0420 C   0  0  0  0  0  0  0  0  0  0  0  0
  161.4100  210.8660  152.8580 N   0  0  0  0  0  2  0  0  0  0  0  0
  160.1020  209.0660  152.1310 O   0  0  0  0  0  0  0  0  0  0  0  0
  162.2240  209.2780  151.0750 C   0  0  0  0  0  2  0  0  0  0  0  0
  161.1650  206.5290  148.6910 C   0  0  0  0  0  3  0  0  0  0  0  0
  161.9070  206.8150  151.3810 C   0  0  0  0  0  3  0  0  0  0  0  0
  160.8460  203.0330  149.8790 C   0  0  0  0  0  0  0  0  0  0  0  0
  160.8310  204.1540  149.0360 C   0  0  0  0  0  3  0  0  0  0  0  0
  161.1830  205.4120  149.5310 C   0  0  0  0  0  0  0  0  0  0  0  0
  161.5710  204.4410  151.7260 C   0  0  0  0  0  3  0  0  0  0  0  0
  161.5570  205.5570  150.8850 C   0  0  0  0  0  0  0  0  0  0  0  0
  161.2170  203.1850  151.2240 C   0  0  0  0  0  3  0  0  0  0  0  0
  161.8910  207.9300  150.5350 C   0  0  0  0  0  0  0  0  0  0  0  0
  161.5160  207.7860  149.1930 C   0  0  0  0  0  3  0  0  0  0  0  0
  160.4730  201.7110  149.3510 C   0  0  0  0  0  0  0  0  0  0  0  0
  159.2730  201.3280  149.3770 O   0  0  0  0  0  1  0  0  0  0  0  0
  161.4440  200.8710  148.8180 O   0  0  0  0  0  0  0  0  0  0  0  0
  1 19  1  6  0  0  0
  1  7  1  0  0  0  0
  3  6  1  0  0  0  0
  4  8  1  0  0  0  0
  5  4  1  0  0  0  0
  6  8  1  0  0  0  0
  7  4  1  0  0  0  0
  7  6  2  0  0  0  0
  9  2  2  0  0  0  0
 10  9  1  0  0  0  0
 11 10  2  0  0  0  0
 11 13  1  0  0  0  0
 12  2  1  1  0  0  0
 12  3  1  0  0  0  0
 13 14  2  0  0  0  0
 14  1  1  0  0  0  0
 14 12  1  0  0  0  0
 15 10  1  0  0  0  0
 16 15  2  0  0  0  0
 17 15  1  0  0  0  0
 18 20  2  0  0  0  0
 18 19  1  0  0  0  0
 21 18  1  0  0  0  0
 22 31  2  0  0  0  0
 22 26  1  0  0  0  0
 24 29  1  0  0  0  0
 25 26  1  0  0  0  0
 25 24  2  0  0  0  0
 26 28  2  0  0  0  0
 28 23  1  0  0  0  0
 28 27  1  0  0  0  0
 29 27  2  0  0  0  0
 30 21  1  0  0  0  0
 30 23  2  0  0  0  0
 31 30  1  0  0  0  0
 32 33  1  0  0  0  0
 32 24  1  0  0  0  0
 34 32  2  0  0  0  0
M  END
>  <MODEL>
1

>  <REMARK>
 VINA RESULT:      -9.2      0.000      0.000
  Name = 
  5 active torsions:
  status: ('A' for Active; 'I' for Inactive)
    1  A    between atoms: C_1  and  N_9
    2  A    between atoms: C_3  and  C_25
    3  A    between atoms: C_7  and  C_11
    4  A    between atoms: C_8  and  C_18
    5  A    between atoms: C_18  and  C_30
                            x       y       z     vdW  Elec       q    Type
                         _______ _______ _______ _____ _____    ______ ____

>  <TORSDO>
F 5

$$$$
=
 OpenBabel11062409393D

 34 38  0  0  1  0  0  0  0  0999 V2000
  160.9230  209.7050  154.0380 C   0  0  2  0  0  3  0  0  0  0  0  0
  158.2060  211.7450  155.2930 C   0  0  0  0  0  3  0  0  0  0  0  0
  159.8300  210.5100  157.0290 S   0  0  0  0  0  0  0  0  0  0  0  0
  160.7390  207.2880  155.1600 N   0  0  0  0  0  0  0  0  0  0  0  0
  161.0850  206.2080  154.2550 C   0  0  0  0  0  1  0  0  0  0  0  0
  160.2120  208.9210  156.3480 C   0  0  0  0  0  0  0  0  0  0  0  0
  160.7020  208.6720  155.0560 C   0  0  0  0  0  0  0  0  0  0  0  0
  160.0840  207.3250  156.6710 S   0  0  0  0  0  0  0  0  0  0  0  0
  157.5700  212.3550  154.1160 C   0  0  0  0  0  3  0  0  0  0  0  0
  158.1280  212.7840  152.9790 C   0  0  0  0  0  0  0  0  0  0  0  0
  159.5740  212.7580  152.6860 C   0  0  0  0  0  3  0  0  0  0  0  0
  159.3890  211.1410  155.3800 C   0  0  1  0  0  3  0  0  0  0  0  0
  160.4950  211.9400  153.1870 C   0  0  0  0  0  3  0  0  0  0  0  0
  160.2710  210.8870  154.1860 C   0  0  0  0  0  0  0  0  0  0  0  0
  157.2440  213.4140  151.9790 C   0  0  0  0  0  0  0  0  0  0  0  0
  157.5690  213.3800  150.6260 O   0  0  0  0  0  0  0  0  0  0  0  0
  156.1850  213.9930  152.3390 O   0  0  0  0  0  1  0  0  0  0  0  0
  161.2770  208.8030  151.6900 C   0  0  0  0  0  0  0  0  0  0  0  0
  161.7330  209.4520  152.8800 N   0  0  0  0  0  2  0  0  0  0  0  0
  160.1970  208.1530  151.6820 O   0  0  0  0  0  0  0  0  0  0  0  0
  162.0900  208.8960  150.4450 C   0  0  0  0  0  2  0  0  0  0  0  0
  162.1540  206.4390  147.5600 C   0  0  0  0  0  3  0  0  0  0  0  0
  161.5380  206.4600  150.2970 C   0  0  0  0  0  3  0  0  0  0  0  0
  161.1270  202.9150  148.0710 C   0  0  0  0  0  0  0  0  0  0  0  0
  161.5740  204.0890  147.4480 C   0  0  0  0  0  3  0  0  0  0  0  0
  161.7120  205.2690  148.1830 C   0  0  0  0  0  0  0  0  0  0  0  0
  160.9550  204.1110  150.1830 C   0  0  0  0  0  3  0  0  0  0  0  0
  161.4020  205.2800  149.5610 C   0  0  0  0  0  0  0  0  0  0  0  0
  160.8190  202.9340  149.4400 C   0  0  0  0  0  3  0  0  0  0  0  0
  161.9850  207.6280  149.6690 C   0  0  0  0  0  0  0  0  0  0  0  0
  162.2880  207.6170  148.3020 C   0  0  0  0  0  3  0  0  0  0  0  0
  160.9830  201.6770  147.2900 C   0  0  0  0  0  0  0  0  0  0  0  0
  161.2070  200.5570  147.8230 O   0  0  0  0  0  1  0  0  0  0  0  0
  160.5960  201.7300  145.9560 O   0  0  0  0  0  0  0  0  0  0  0  0
  1 19  1  6  0  0  0
  1 14  1  0  0  0  0
  1  7  1  0  0  0  0
  4  8  1  0  0  0  0
  5  4  1  0  0  0  0
  6  8  1  0  0  0  0
  6  3  1  0  0  0  0
  7  4  1  0  0  0  0
  7  6  2  0  0  0  0
  9  2  2  0  0  0  0
 10  9  1  0  0  0  0
 11 10  2  0  0  0  0
 11 13  1  0  0  0  0
 12  2  1  6  0  0  0
 12  3  1  0  0  0  0
 13 14  2  0  0  0  0
 14 12  1  0  0  0  0
 15 17  1  0  0  0  0
 15 10  1  0  0  0  0
 16 15  2  0  0  0  0
 18 19  1  0  0  0  0
 20 18  2  0  0  0  0
 21 18  1  0  0  0  0
 22 26  2  0  0  0  0
 22 31  1  0  0  0  0
 24 29  1  0  0  0  0
 25 24  2  0  0  0  0
 25 26  1  0  0  0  0
 26 28  1  0  0  0  0
 28 27  1  0  0  0  0
 28 23  2  0  0  0  0
 29 27  2  0  0  0  0
 30 23  1  0  0  0  0
 30 21  1  0  0  0  0
 31 30  2  0  0  0  0
 32 33  1  0  0  0  0
 32 24  1  0  0  0  0
 34 32  2  0  0  0  0
M  END
>  <MODEL>
2

>  <REMARK>
 VINA RESULT:      -9.1      1.620      2.267
  Name = 
  5 active torsions:
  status: ('A' for Active; 'I' for Inactive)
    1  A    between atoms: C_1  and  N_9
    2  A    between atoms: C_3  and  C_25
    3  A    between atoms: C_7  and  C_11
    4  A    between atoms: C_8  and  C_18
    5  A    between atoms: C_18  and  C_30
                            x       y       z     vdW  Elec       q    Type
                         _______ _______ _______ _____ _____    ______ ____

>  <TORSDO>
F 5

$$$$
=
 OpenBabel11062409393D

 34 38  0  0  1  0  0  0  0  0999 V2000
  161.4750  208.9610  152.4750 C   0  0  2  0  0  3  0  0  0  0  0  0
  159.1430  211.2570  154.0270 C   0  0  0  0  0  3  0  0  0  0  0  0
  160.7450  209.7690  155.5740 S   0  0  0  0  0  0  0  0  0  0  0  0
  161.0920  206.5400  153.5360 N   0  0  0  0  0  0  0  0  0  0  0  0
  161.2250  205.4640  152.5720 C   0  0  0  0  0  1  0  0  0  0  0  0
  160.8710  208.1740  154.8140 C   0  0  0  0  0  0  0  0  0  0  0  0
  161.2160  207.9210  153.4770 C   0  0  0  0  0  0  0  0  0  0  0  0
  160.5760  206.5930  155.1000 S   0  0  0  0  0  0  0  0  0  0  0  0
  158.4890  211.9870  152.9310 C   0  0  0  0  0  3  0  0  0  0  0  0
  158.9980  212.3910  151.7610 C   0  0  0  0  0  0  0  0  0  0  0  0
  160.4000  212.2050  151.3400 C   0  0  0  0  0  3  0  0  0  0  0  0
  160.2460  210.5140  153.9910 C   0  0  1  0  0  3  0  0  0  0  0  0
  161.2530  211.2640  151.7330 C   0  0  0  0  0  3  0  0  0  0  0  0
  160.9870  210.2050  152.7160 C   0  0  0  0  0  0  0  0  0  0  0  0
  158.1160  213.1630  150.8640 C   0  0  0  0  0  0  0  0  0  0  0  0
  158.5160  213.4600  149.5650 O   0  0  0  0  0  0  0  0  0  0  0  0
  156.9910  213.5630  151.2640 O   0  0  0  0  0  1  0  0  0  0  0  0
  161.5340  208.0400  150.1090 C   0  0  0  0  0  0  0  0  0  0  0  0
  162.1460  208.6600  151.2420 N   0  0  0  0  0  2  0  0  0  0  0  0
  160.4220  207.4560  150.2140 O   0  0  0  0  0  0  0  0  0  0  0  0
  162.2210  208.0850  148.7870 C   0  0  0  0  0  2  0  0  0  0  0  0
  161.9150  205.5550  145.9820 C   0  0  0  0  0  3  0  0  0  0  0  0
  161.6820  205.6410  148.7760 C   0  0  0  0  0  3  0  0  0  0  0  0
  161.0080  202.0380  146.7140 C   0  0  0  0  0  0  0  0  0  0  0  0
  161.3510  203.1990  146.0070 C   0  0  0  0  0  3  0  0  0  0  0  0
  161.5760  204.3990  146.6880 C   0  0  0  0  0  0  0  0  0  0  0  0
  161.1160  203.2860  148.8000 C   0  0  0  0  0  3  0  0  0  0  0  0
  161.4590  204.4420  148.0950 C   0  0  0  0  0  0  0  0  0  0  0  0
  160.8930  202.0890  148.1130 C   0  0  0  0  0  3  0  0  0  0  0  0
  162.0250  206.7970  148.0640 C   0  0  0  0  0  0  0  0  0  0  0  0
  162.1360  206.7530  146.6690 C   0  0  0  0  0  3  0  0  0  0  0  0
  160.7720  200.7790  145.9920 C   0  0  0  0  0  0  0  0  0  0  0  0
  160.0470  200.7600  144.9620 O   0  0  0  0  0  0  0  0  0  0  0  0
  161.3500  199.5960  146.4380 O   0  0  0  0  0  1  0  0  0  0  0  0
  1 19  1  6  0  0  0
  1 14  1  0  0  0  0
  1  7  1  0  0  0  0
  4  8  1  0  0  0  0
  5  4  1  0  0  0  0
  6  8  1  0  0  0  0
  6  3  1  0  0  0  0
  7  4  1  0  0  0  0
  7  6  2  0  0  0  0
  9  2  2  0  0  0  0
 10  9  1  0  0  0  0
 11 13  1  0  0  0  0
 11 10  2  0  0  0  0
 12  2  1  6  0  0  0
 12  3  1  0  0  0  0
 13 14  2  0  0  0  0
 14 12  1  0  0  0  0
 15 17  1  0  0  0  0
 15 10  1  0  0  0  0
 16 15  2  0  0  0  0
 18 20  2  0  0  0  0
 18 19  1  0  0  0  0
 21 18  1  0  0  0  0
 22 31  2  0  0  0  0
 22 26  1  0  0  0  0
 24 29  1  0  0  0  0
 25 26  1  0  0  0  0
 25 24  2  0  0  0  0
 26 28  2  0  0  0  0
 28 23  1  0  0  0  0
 28 27  1  0  0  0  0
 29 27  2  0  0  0  0
 30 23  2  0  0  0  0
 30 21  1  0  0  0  0
 31 30  1  0  0  0  0
 32 34  1  0  0  0  0
 32 24  1  0  0  0  0
 33 32  2  0  0  0  0
M  END
>  <MODEL>
3

>  <REMARK>
 VINA RESULT:      -8.3      2.228      3.143
  Name = 
  5 active torsions:
  status: ('A' for Active; 'I' for Inactive)
    1  A    between atoms: C_1  and  N_9
    2  A    between atoms: C_3  and  C_25
    3  A    between atoms: C_7  and  C_11
    4  A    between atoms: C_8  and  C_18
    5  A    between atoms: C_18  and  C_30
                            x       y       z     vdW  Elec       q    Type
                         _______ _______ _______ _____ _____    ______ ____

>  <TORSDO>
F 5

$$$$
=
 OpenBabel11062409393D

 34 38  0  0  1  0  0  0  0  0999 V2000
  158.8540  211.3060  153.6740 C   0  0  2  0  0  3  0  0  0  0  0  0
  158.5800  214.3480  151.7270 C   0  0  0  0  0  3  0  0  0  0  0  0
  158.2230  214.4510  154.3800 S   0  0  0  0  0  0  0  0  0  0  0  0
  156.6300  211.0450  155.1310 N   0  0  0  0  0  0  0  0  0  0  0  0
  156.1770  209.6720  155.2450 C   0  0  0  0  0  1  0  0  0  0  0  0
  157.3490  212.9840  154.8470 C   0  0  0  0  0  0  0  0  0  0  0  0
  157.7090  211.6670  154.5170 C   0  0  0  0  0  0  0  0  0  0  0  0
  155.9620  212.4900  155.5550 S   0  0  0  0  0  0  0  0  0  0  0  0
  158.9210  213.9860  150.3440 C   0  0  0  0  0  3  0  0  0  0  0  0
  159.8180  213.1000  149.8970 C   0  0  0  0  0  0  0  0  0  0  0  0
  160.7130  212.2990  150.7540 C   0  0  0  0  0  3  0  0  0  0  0  0
  158.7910  213.6570  152.8450 C   0  0  1  0  0  3  0  0  0  0  0  0
  160.5180  211.9240  152.0150 C   0  0  0  0  0  3  0  0  0  0  0  0
  159.3600  212.2620  152.8520 C   0  0  0  0  0  0  0  0  0  0  0  0
  159.9910  212.9810  148.4360 C   0  0  0  0  0  0  0  0  0  0  0  0
  158.9110  213.1630  147.5790 O   0  0  0  0  0  0  0  0  0  0  0  0
  161.1210  212.7110  147.9480 O   0  0  0  0  0  1  0  0  0  0  0  0
  160.5620  209.5410  154.3180 C   0  0  0  0  0  0  0  0  0  0  0  0
  159.3720  209.9670  153.6510 N   0  0  0  0  0  2  0  0  0  0  0  0
  161.3980  210.3800  154.7480 O   0  0  0  0  0  0  0  0  0  0  0  0
  160.8170  208.0850  154.5060 C   0  0  0  0  0  2  0  0  0  0  0  0
  161.2030  207.5620  150.7730 C   0  0  0  0  0  3  0  0  0  0  0  0
  160.9240  206.0190  153.0990 C   0  0  0  0  0  3  0  0  0  0  0  0
  161.2220  204.1420  149.3470 C   0  0  0  0  0  0  0  0  0  0  0  0
  161.2640  205.5400  149.4390 C   0  0  0  0  0  3  0  0  0  0  0  0
  161.1650  206.1680  150.6830 C   0  0  0  0  0  0  0  0  0  0  0  0
  160.9820  203.9980  151.7640 C   0  0  0  0  0  3  0  0  0  0  0  0
  161.0250  205.3910  151.8550 C   0  0  0  0  0  0  0  0  0  0  0  0
  161.0810  203.3760  150.5160 C   0  0  0  0  0  3  0  0  0  0  0  0
  160.9670  207.4150  153.1840 C   0  0  0  0  0  0  0  0  0  0  0  0
  161.1010  208.1850  152.0210 C   0  0  0  0  0  3  0  0  0  0  0  0
  161.3260  203.4870  148.0340 C   0  0  0  0  0  0  0  0  0  0  0  0
  161.1640  202.2420  147.9260 O   0  0  0  0  0  1  0  0  0  0  0  0
  161.6030  204.2370  146.8970 O   0  0  0  0  0  0  0  0  0  0  0  0
  1 19  1  6  0  0  0
  1  7  1  0  0  0  0
  3  6  1  0  0  0  0
  4  5  1  0  0  0  0
  4  8  1  0  0  0  0
  6  8  1  0  0  0  0
  7  6  2  0  0  0  0
  7  4  1  0  0  0  0
  9  2  2  0  0  0  0
 10  9  1  0  0  0  0
 10 11  2  0  0  0  0
 11 13  1  0  0  0  0
 12  2  1  6  0  0  0
 12 14  1  0  0  0  0
 12  3  1  0  0  0  0
 13 14  2  0  0  0  0
 14  1  1  0  0  0  0
 15 10  1  0  0  0  0
 16 15  2  0  0  0  0
 17 15  1  0  0  0  0
 18 21  1  0  0  0  0
 18 20  2  0  0  0  0
 19 18  1  0  0  0  0
 22 31  1  0  0  0  0
 23 30  1  0  0  0  0
 24 25  2  0  0  0  0
 24 29  1  0  0  0  0
 25 26  1  0  0  0  0
 26 22  2  0  0  0  0
 26 28  1  0  0  0  0
 27 28  1  0  0  0  0
 28 23  2  0  0  0  0
 29 27  2  0  0  0  0
 30 21  1  0  0  0  0
 31 30  2  0  0  0  0
 32 24  1  0  0  0  0
 33 32  1  0  0  0  0
 34 32  2  0  0  0  0
M  END
>  <MODEL>
4

>  <REMARK>
 VINA RESULT:      -7.4      1.958      2.573
  Name = 
  5 active torsions:
  status: ('A' for Active; 'I' for Inactive)
    1  A    between atoms: C_1  and  N_9
    2  A    between atoms: C_3  and  C_25
    3  A    between atoms: C_7  and  C_11
    4  A    between atoms: C_8  and  C_18
    5  A    between atoms: C_18  and  C_30
                            x       y       z     vdW  Elec       q    Type
                         _______ _______ _______ _____ _____    ______ ____

>  <TORSDO>
F 5

$$$$
=
 OpenBabel11062409393D

 34 38  0  0  1  0  0  0  0  0999 V2000
  160.2430  212.1500  151.2770 C   0  0  2  0  0  3  0  0  0  0  0  0
  157.8390  214.2930  152.9360 C   0  0  0  0  0  3  0  0  0  0  0  0
  157.3880  213.5240  150.4100 S   0  0  0  0  0  0  0  0  0  0  0  0
  160.9340  213.3030  148.9690 N   0  0  0  0  0  0  0  0  0  0  0  0
  162.3370  213.1340  148.6420 C   0  0  0  0  0  1  0  0  0  0  0  0
  158.9500  213.5260  149.5760 C   0  0  0  0  0  0  0  0  0  0  0  0
  160.1210  212.8850  150.0140 C   0  0  0  0  0  0  0  0  0  0  0  0
  159.7250  214.2080  148.3110 S   0  0  0  0  0  0  0  0  0  0  0  0
  158.3130  214.4530  154.3190 C   0  0  0  0  0  2  0  0  0  0  0  0
  158.9320  213.5700  155.1090 C   0  0  0  0  0  0  0  0  0  0  0  0
  159.2430  212.1760  154.7370 C   0  0  0  0  0  3  0  0  0  0  0  0
  158.2190  213.4010  152.0240 C   0  0  0  0  0  0  0  0  0  0  0  0
  159.4320  211.6780  153.5180 C   0  0  0  0  0  3  0  0  0  0  0  0
  159.3370  212.4180  152.2530 C   0  0  0  0  0  0  0  0  0  0  0  0
  159.2460  213.9900  156.4890 C   0  0  0  0  0  0  0  0  0  0  0  0
  160.5570  213.9600  156.9560 O   0  0  0  0  0  0  0  0  0  0  0  0
  158.3310  214.3790  157.2610 O   0  0  0  0  0  1  0  0  0  0  0  0
  161.1850  209.8400  151.7500 C   0  0  0  0  0  0  0  0  0  0  0  0
  161.3300  211.2420  151.5120 N   0  0  0  0  0  2  0  0  0  0  0  0
  160.0650  209.3470  152.0500 O   0  0  0  0  0  0  0  0  0  0  0  0
  162.3760  208.9500  151.6430 C   0  0  0  0  0  2  0  0  0  0  0  0
  161.2610  206.4460  149.0250 C   0  0  0  0  0  3  0  0  0  0  0  0
  161.9400  206.4880  151.7470 C   0  0  0  0  0  3  0  0  0  0  0  0
  160.7510  202.8880  149.9270 C   0  0  0  0  0  0  0  0  0  0  0  0
  160.8110  204.0700  149.1750 C   0  0  0  0  0  3  0  0  0  0  0  0
  161.2050  205.2690  149.7750 C   0  0  0  0  0  0  0  0  0  0  0  0
  161.4870  204.1130  151.8960 C   0  0  0  0  0  3  0  0  0  0  0  0
  161.5470  205.2900  151.1460 C   0  0  0  0  0  0  0  0  0  0  0  0
  161.0910  202.9180  151.2880 C   0  0  0  0  0  3  0  0  0  0  0  0
  161.9980  207.6650  150.9900 C   0  0  0  0  0  0  0  0  0  0  0  0
  161.6540  207.6430  149.6330 C   0  0  0  0  0  3  0  0  0  0  0  0
  160.3350  201.6300  149.2880 C   0  0  0  0  0  0  0  0  0  0  0  0
  159.1130  201.3440  149.1760 O   0  0  0  0  0  1  0  0  0  0  0  0
  161.2880  200.7430  148.8000 O   0  0  0  0  0  0  0  0  0  0  0  0
  1 19  1  1  0  0  0
  1 14  1  0  0  0  0
  2  9  1  0  0  0  0
  3 12  1  0  0  0  0
  4  7  1  0  0  0  0
  5  4  1  0  0  0  0
  6  7  2  0  0  0  0
  6  3  1  0  0  0  0
  7  1  1  0  0  0  0
  8  4  1  0  0  0  0
  8  6  1  0  0  0  0
  9 10  1  0  0  0  0
 10 15  1  0  0  0  0
 11 10  2  0  0  0  0
 12 14  1  0  0  0  0
 12  2  2  0  0  0  0
 13 11  1  0  0  0  0
 14 13  2  0  0  0  0
 15 16  2  0  0  0  0
 15 17  1  0  0  0  0
 18 20  2  0  0  0  0
 19 18  1  0  0  0  0
 21 18  1  0  0  0  0
 22 31  2  0  0  0  0
 22 26  1  0  0  0  0
 24 29  1  0  0  0  0
 25 26  1  0  0  0  0
 25 24  2  0  0  0  0
 26 28  2  0  0  0  0
 28 23  1  0  0  0  0
 28 27  1  0  0  0  0
 29 27  2  0  0  0  0
 30 21  1  0  0  0  0
 30 23  2  0  0  0  0
 31 30  1  0  0  0  0
 32 24  1  0  0  0  0
 33 32  1  0  0  0  0
 34 32  2  0  0  0  0
M  END
>  <MODEL>
5

>  <REMARK>
 VINA RESULT:      -7.2      2.675      4.160
  Name = 
  5 active torsions:
  status: ('A' for Active; 'I' for Inactive)
    1  A    between atoms: C_1  and  N_9
    2  A    between atoms: C_3  and  C_25
    3  A    between atoms: C_7  and  C_11
    4  A    between atoms: C_8  and  C_18
    5  A    between atoms: C_18  and  C_30
                            x       y       z     vdW  Elec       q    Type
                         _______ _______ _______ _____ _____    ______ ____

>  <TORSDO>
F 5

$$$$
=
 OpenBabel11062409393D

 34 38  0  0  1  0  0  0  0  0999 V2000
  161.0270  208.1200  151.3650 C   0  0  2  0  0  3  0  0  0  0  0  0
  161.6400  211.1340  153.2790 C   0  0  0  0  0  3  0  0  0  0  0  0
  160.5870  211.3300  150.8230 S   0  0  0  0  0  0  0  0  0  0  0  0
  162.2170  208.3840  148.9890 N   0  0  0  0  0  0  0  0  0  0  0  0
  162.8100  207.1520  148.5040 C   0  0  0  0  0  1  0  0  0  0  0  0
  161.3760  210.1050  149.8170 C   0  0  0  0  0  0  0  0  0  0  0  0
  161.4960  208.7390  150.1210 C   0  0  0  0  0  0  0  0  0  0  0  0
  162.2840  209.9460  148.4690 S   0  0  0  0  0  0  0  0  0  0  0  0
  162.1200  210.6950  154.5980 C   0  0  0  0  0  2  0  0  0  0  0  0
  161.7620  209.6250  155.3160 C   0  0  0  0  0  0  0  0  0  0  0  0
  160.7340  208.6450  154.9160 C   0  0  0  0  0  3  0  0  0  0  0  0
  161.0360  210.4180  152.3330 C   0  0  0  0  0  0  0  0  0  0  0  0
  160.3380  208.3310  153.6860 C   0  0  0  0  0  3  0  0  0  0  0  0
  160.8270  208.9300  152.4370 C   0  0  0  0  0  0  0  0  0  0  0  0
  162.3740  209.4620  156.6490 C   0  0  0  0  0  0  0  0  0  0  0  0
  163.0570  210.5160  157.2470 O   0  0  0  0  0  0  0  0  0  0  0  0
  162.2860  208.3640  157.2610 O   0  0  0  0  0  1  0  0  0  0  0  0
  161.8690  205.7950  151.9430 C   0  0  0  0  0  0  0  0  0  0  0  0
  160.8640  206.6980  151.4770 N   0  0  0  0  0  2  0  0  0  0  0  0
  163.0740  206.1560  152.0250 O   0  0  0  0  0  0  0  0  0  0  0  0
  161.4870  204.4090  152.3350 C   0  0  0  0  0  2  0  0  0  0  0  0
  160.4590  201.5100  150.1210 C   0  0  0  0  0  3  0  0  0  0  0  0
  161.4200  204.1320  149.8490 C   0  0  0  0  0  3  0  0  0  0  0  0
  160.6790  201.7930  146.4330 C   0  0  0  0  0  0  0  0  0  0  0  0
  160.4450  201.2660  147.7110 C   0  0  0  0  0  3  0  0  0  0  0  0
  160.6900  202.0380  148.8490 C   0  0  0  0  0  0  0  0  0  0  0  0
  161.4080  203.8850  147.4390 C   0  0  0  0  0  3  0  0  0  0  0  0
  161.1730  203.3590  148.7120 C   0  0  0  0  0  0  0  0  0  0  0  0
  161.1610  203.1060  146.3050 C   0  0  0  0  0  3  0  0  0  0  0  0
  161.1840  203.5990  151.1220 C   0  0  0  0  0  0  0  0  0  0  0  0
  160.7090  202.2880  151.2560 C   0  0  0  0  0  3  0  0  0  0  0  0
  160.4200  200.9740  145.2390 C   0  0  0  0  0  0  0  0  0  0  0  0
  159.7760  201.4490  144.2660 O   0  0  0  0  0  0  0  0  0  0  0  0
  160.8840  199.6650  145.1730 O   0  0  0  0  0  1  0  0  0  0  0  0
  1 19  1  1  0  0  0
  1 14  1  0  0  0  0
  2  9  1  0  0  0  0
  3 12  1  0  0  0  0
  4  7  1  0  0  0  0
  5  4  1  0  0  0  0
  6  7  2  0  0  0  0
  6  3  1  0  0  0  0
  7  1  1  0  0  0  0
  8  4  1  0  0  0  0
  8  6  1  0  0  0  0
  9 10  1  0  0  0  0
 10 15  1  0  0  0  0
 11 10  2  0  0  0  0
 12 14  1  0  0  0  0
 12  2  2  0  0  0  0
 13 11  1  0  0  0  0
 14 13  2  0  0  0  0
 15 16  2  0  0  0  0
 15 17  1  0  0  0  0
 18 20  2  0  0  0  0
 18 21  1  0  0  0  0
 19 18  1  0  0  0  0
 22 31  1  0  0  0  0
 23 30  1  0  0  0  0
 24 25  2  0  0  0  0
 25 26  1  0  0  0  0
 26 22  2  0  0  0  0
 27 28  1  0  0  0  0
 28 26  1  0  0  0  0
 28 23  2  0  0  0  0
 29 24  1  0  0  0  0
 29 27  2  0  0  0  0
 30 31  2  0  0  0  0
 30 21  1  0  0  0  0
 32 24  1  0  0  0  0
 33 32  2  0  0  0  0
 34 32  1  0  0  0  0
M  END
>  <MODEL>
6

>  <REMARK>
 VINA RESULT:      -7.1      4.048      5.923
  Name = 
  5 active torsions:
  status: ('A' for Active; 'I' for Inactive)
    1  A    between atoms: C_1  and  N_9
    2  A    between atoms: C_3  and  C_25
    3  A    between atoms: C_7  and  C_11
    4  A    between atoms: C_8  and  C_18
    5  A    between atoms: C_18  and  C_30
                            x       y       z     vdW  Elec       q    Type
                         _______ _______ _______ _____ _____    ______ ____

>  <TORSDO>
F 5

$$$$
=
 OpenBabel11062409393D

 34 38  0  0  1  0  0  0  0  0999 V2000
  160.8920  211.1060  151.5250 C   0  0  2  0  0  3  0  0  0  0  0  0
  159.8630  212.0100  154.8790 C   0  0  0  0  0  3  0  0  0  0  0  0
  158.1370  212.3060  152.8510 S   0  0  0  0  0  0  0  0  0  0  0  0
  160.4470  213.1970  149.9240 N   0  0  0  0  0  0  0  0  0  0  0  0
  161.4750  213.3750  148.9160 C   0  0  0  0  0  1  0  0  0  0  0  0
  159.0650  212.8700  151.4530 C   0  0  0  0  0  0  0  0  0  0  0  0
  160.2280  212.2740  150.9380 C   0  0  0  0  0  0  0  0  0  0  0  0
  159.1670  214.1170  150.4030 S   0  0  0  0  0  0  0  0  0  0  0  0
  160.9770  211.6440  155.7660 C   0  0  0  0  0  2  0  0  0  0  0  0
  161.8180  210.6070  155.6860 C   0  0  0  0  0  0  0  0  0  0  0  0
  161.7620  209.5520  154.6550 C   0  0  0  0  0  3  0  0  0  0  0  0
  159.6460  211.6390  153.6190 C   0  0  0  0  0  0  0  0  0  0  0  0
  161.2660  209.6370  153.4240 C   0  0  0  0  0  3  0  0  0  0  0  0
  160.6260  210.8150  152.8250 C   0  0  0  0  0  0  0  0  0  0  0  0
  162.8190  210.4550  156.7600 C   0  0  0  0  0  0  0  0  0  0  0  0
  163.5230  211.5590  157.2310 O   0  0  0  0  0  0  0  0  0  0  0  0
  163.0490  209.3230  157.2610 O   0  0  0  0  0  1  0  0  0  0  0  0
  161.6270  209.0330  150.2550 C   0  0  0  0  0  0  0  0  0  0  0  0
  161.8540  210.3420  150.7830 N   0  0  0  0  0  2  0  0  0  0  0  0
  160.6510  208.3380  150.6470 O   0  0  0  0  0  0  0  0  0  0  0  0
  162.5560  208.4830  149.2290 C   0  0  0  0  0  2  0  0  0  0  0  0
  161.3580  204.8960  149.4600 C   0  0  0  0  0  3  0  0  0  0  0  0
  162.1990  206.7130  147.4970 C   0  0  0  0  0  3  0  0  0  0  0  0
  161.1240  202.7930  146.4180 C   0  0  0  0  0  0  0  0  0  0  0  0
  161.0610  203.1950  147.7600 C   0  0  0  0  0  3  0  0  0  0  0  0
  161.4170  204.4970  148.1230 C   0  0  0  0  0  0  0  0  0  0  0  0
  161.9050  205.0120  145.7970 C   0  0  0  0  0  3  0  0  0  0  0  0
  161.8410  205.4130  147.1340 C   0  0  0  0  0  0  0  0  0  0  0  0
  161.5470  203.7080  145.4410 C   0  0  0  0  0  3  0  0  0  0  0  0
  162.1340  207.1090  148.8380 C   0  0  0  0  0  0  0  0  0  0  0  0
  161.7180  206.1990  149.8180 C   0  0  0  0  0  3  0  0  0  0  0  0
  160.7470  201.4210  146.0430 C   0  0  0  0  0  0  0  0  0  0  0  0
  161.0410  200.4510  146.7920 O   0  0  0  0  0  1  0  0  0  0  0  0
  160.0620  201.1820  144.8580 O   0  0  0  0  0  0  0  0  0  0  0  0
  1 19  1  1  0  0  0
  1 14  1  0  0  0  0
  2  9  1  0  0  0  0
  3 12  1  0  0  0  0
  4  8  1  0  0  0  0
  4  7  1  0  0  0  0
  5  4  1  0  0  0  0
  6  3  1  0  0  0  0
  7  6  2  0  0  0  0
  7  1  1  0  0  0  0
  8  6  1  0  0  0  0
 10  9  1  0  0  0  0
 10 15  1  0  0  0  0
 11 10  2  0  0  0  0
 12  2  2  0  0  0  0
 13 11  1  0  0  0  0
 14 13  2  0  0  0  0
 14 12  1  0  0  0  0
 15 16  2  0  0  0  0
 15 17  1  0  0  0  0
 18 20  2  0  0  0  0
 18 19  1  0  0  0  0
 21 18  1  0  0  0  0
 22 31  1  0  0  0  0
 23 30  1  0  0  0  0
 24 25  2  0  0  0  0
 25 26  1  0  0  0  0
 26 22  2  0  0  0  0
 27 28  1  0  0  0  0
 28 23  2  0  0  0  0
 28 26  1  0  0  0  0
 29 27  2  0  0  0  0
 29 24  1  0  0  0  0
 30 21  1  0  0  0  0
 30 31  2  0  0  0  0
 32 24  1  0  0  0  0
 32 33  1  0  0  0  0
 34 32  2  0  0  0  0
M  END
>  <MODEL>
7

>  <REMARK>
 VINA RESULT:      -6.8      2.744      5.137
  Name = 
  5 active torsions:
  status: ('A' for Active; 'I' for Inactive)
    1  A    between atoms: C_1  and  N_9
    2  A    between atoms: C_3  and  C_25
    3  A    between atoms: C_7  and  C_11
    4  A    between atoms: C_8  and  C_18
    5  A    between atoms: C_18  and  C_30
                            x       y       z     vdW  Elec       q    Type
                         _______ _______ _______ _____ _____    ______ ____

>  <TORSDO>
F 5

$$$$
=
 OpenBabel11062409393D

 34 38  0  0  1  0  0  0  0  0999 V2000
  161.1620  211.1440  150.4960 C   0  0  2  0  0  3  0  0  0  0  0  0
  159.7160  212.6670  153.4470 C   0  0  0  0  0  3  0  0  0  0  0  0
  158.7970  213.3600  151.0290 S   0  0  0  0  0  0  0  0  0  0  0  0
  161.9370  213.0960  148.8460 N   0  0  0  0  0  0  0  0  0  0  0  0
  163.1800  212.8030  148.1560 C   0  0  0  0  0  1  0  0  0  0  0  0
  160.1910  213.4250  149.9390 C   0  0  0  0  0  0  0  0  0  0  0  0
  161.1450  212.4100  149.7560 C   0  0  0  0  0  0  0  0  0  0  0  0
  161.0060  214.4490  148.9620 S   0  0  0  0  0  0  0  0  0  0  0  0
  160.3540  212.0170  154.6020 C   0  0  0  0  0  2  0  0  0  0  0  0
  160.7470  210.7470  154.7490 C   0  0  0  0  0  0  0  0  0  0  0  0
  160.5740  209.6880  153.7370 C   0  0  0  0  0  3  0  0  0  0  0  0
  159.7080  212.2790  152.1740 C   0  0  0  0  0  0  0  0  0  0  0  0
  160.4760  209.8250  152.4180 C   0  0  0  0  0  3  0  0  0  0  0  0
  160.4860  211.0900  151.6730 C   0  0  0  0  0  0  0  0  0  0  0  0
  161.3130  210.3540  156.0540 C   0  0  0  0  0  0  0  0  0  0  0  0
  160.5220  210.3590  157.1980 O   0  0  0  0  0  1  0  0  0  0  0  0
  162.5220  210.0110  156.1470 O   0  0  0  0  0  0  0  0  0  0  0  0
  161.9360  209.5240  148.7000 C   0  0  0  0  0  0  0  0  0  0  0  0
  161.9340  210.0230  150.0400 N   0  0  0  0  0  2  0  0  0  0  0  0
  161.0400  209.8640  147.8820 O   0  0  0  0  0  0  0  0  0  0  0  0
  163.0120  208.5890  148.2660 C   0  0  0  0  0  2  0  0  0  0  0  0
  161.9220  205.1300  147.1670 C   0  0  0  0  0  3  0  0  0  0  0  0
  162.1090  206.6270  149.5310 C   0  0  0  0  0  3  0  0  0  0  0  0
  160.6020  202.7030  149.6360 C   0  0  0  0  0  0  0  0  0  0  0  0
  161.0130  203.2650  148.4200 C   0  0  0  0  0  3  0  0  0  0  0  0
  161.5150  204.5690  148.3800 C   0  0  0  0  0  0  0  0  0  0  0  0
  161.1990  204.7640  150.7830 C   0  0  0  0  0  3  0  0  0  0  0  0
  161.6100  205.3240  149.5710 C   0  0  0  0  0  0  0  0  0  0  0  0
  160.6980  203.4590  150.8150 C   0  0  0  0  0  3  0  0  0  0  0  0
  162.5190  207.1830  148.3130 C   0  0  0  0  0  0  0  0  0  0  0  0
  162.4200  206.4360  147.1330 C   0  0  0  0  0  3  0  0  0  0  0  0
  160.0740  201.3300  149.6710 C   0  0  0  0  0  0  0  0  0  0  0  0
  160.8280  200.3630  149.9640 O   0  0  0  0  0  1  0  0  0  0  0  0
  158.7370  201.0850  149.3830 O   0  0  0  0  0  0  0  0  0  0  0  0
  1 19  1  1  0  0  0
  1 14  1  0  0  0  0
  2  9  1  0  0  0  0
  3 12  1  0  0  0  0
  4  8  1  0  0  0  0
  4  7  1  0  0  0  0
  5  4  1  0  0  0  0
  6  3  1  0  0  0  0
  7  6  2  0  0  0  0
  7  1  1  0  0  0  0
  8  6  1  0  0  0  0
  9 10  1  0  0  0  0
 10 15  1  0  0  0  0
 11 10  2  0  0  0  0
 12  2  2  0  0  0  0
 13 11  1  0  0  0  0
 14 12  1  0  0  0  0
 14 13  2  0  0  0  0
 15 17  2  0  0  0  0
 15 16  1  0  0  0  0
 18 19  1  0  0  0  0
 20 18  2  0  0  0  0
 21 30  1  0  0  0  0
 21 18  1  0  0  0  0
 22 26  1  0  0  0  0
 23 28  1  0  0  0  0
 24 32  1  0  0  0  0
 24 29  1  0  0  0  0
 25 24  2  0  0  0  0
 26 25  1  0  0  0  0
 26 28  2  0  0  0  0
 27 29  2  0  0  0  0
 28 27  1  0  0  0  0
 30 23  2  0  0  0  0
 31 22  2  0  0  0  0
 31 30  1  0  0  0  0
 32 33  1  0  0  0  0
 34 32  2  0  0  0  0
M  END
>  <MODEL>
8

>  <REMARK>
 VINA RESULT:      -6.4      2.742      4.793
  Name = 
  5 active torsions:
  status: ('A' for Active; 'I' for Inactive)
    1  A    between atoms: C_1  and  N_9
    2  A    between atoms: C_3  and  C_25
    3  A    between atoms: C_7  and  C_11
    4  A    between atoms: C_8  and  C_18
    5  A    between atoms: C_18  and  C_30
                            x       y       z     vdW  Elec       q    Type
                         _______ _______ _______ _____ _____    ______ ____

>  <TORSDO>
F 5

$$$$
