=
 OpenBabel11062408153D

 32 37  0  0  1  0  0  0  0  0999 V2000
  161.0460  208.1400  154.2080 C   0  0  2  0  0  0  0  0  0  0  0  0
  161.2420  208.2220  151.6390 C   0  0  2  0  0  3  0  0  0  0  0  0
  161.0840  209.3720  157.2520 O   0  0  0  0  0  1  0  0  0  0  0  0
  161.8690  208.6720  155.2230 O   0  0  0  0  0  0  0  0  0  0  0  0
  161.9260  207.8580  152.9720 C   0  0  2  0  0  3  0  0  0  0  0  0
  162.1660  207.9150  150.4330 C   0  0  2  0  0  3  0  0  0  0  0  0
  161.0920  212.9880  149.7450 C   0  0  0  0  0  2  0  0  0  0  0  0
  160.7660  209.6620  151.7020 C   0  0  0  0  0  0  0  0  0  0  0  0
  162.0180  211.1170  148.3520 C   0  0  0  0  0  2  0  0  0  0  0  0
  162.0390  210.2260  149.5880 C   0  0  2  0  0  3  0  0  0  0  0  0
  162.1730  206.3860  153.0710 C   0  0  0  0  0  2  0  0  0  0  0  0
  159.7370  209.8250  155.2870 C   0  0  2  0  0  0  0  0  0  0  0  0
  161.9120  208.7720  149.1930 C   0  0  0  0  0  2  0  0  0  0  0  0
  161.1670  209.7020  155.8940 C   0  0  1  0  0  0  0  0  0  0  0  0
  160.9740  205.8920  153.8310 C   0  0  0  0  0  2  0  0  0  0  0  0
  158.6850  209.0380  156.0810 C   0  0  0  0  0  1  0  0  0  0  0  0
  160.1060  210.0500  152.7990 C   0  0  0  0  0  3  0  0  0  0  0  0
  159.8800  209.1110  153.9610 C   0  0  1  0  0  3  0  0  0  0  0  0
  160.8980  210.6170  150.5310 C   0  0  2  0  0  3  0  0  0  0  0  0
  160.5110  206.9180  154.6730 O   0  0  0  0  0  0  0  0  0  0  0  0
  162.1910  212.5770  148.7660 C   0  0  0  0  0  2  0  0  0  0  0  0
  161.0960  212.0730  150.9670 C   0  0  0  0  0  2  0  0  0  0  0  0
  161.7300  211.8430  156.8680 O   0  0  0  0  0  1  0  0  0  0  0  0
  161.9860  211.0060  155.7780 C   0  0  1  0  0  3  0  0  0  0  0  0
  163.4140  210.7370  155.7040 N   0  0  0  0  0  2  0  0  0  0  0  0
  163.9490  211.1050  156.8910 O   0  0  0  0  0  1  0  0  0  0  0  0
  158.3160  211.3700  155.9650 O   0  0  0  0  0  1  0  0  0  0  0  0
  159.3070  211.1630  155.1140 O   0  0  0  0  0  0  0  0  0  0  0  0
  162.2430  206.5380  150.1230 O   0  0  0  0  0  0  0  0  0  0  0  0
  160.8560  204.6160  149.9050 C   0  0  0  0  0  2  0  0  0  0  0  0
  160.9890  206.1050  149.6610 C   0  0  0  0  0  3  0  0  0  0  0  0
  161.1900  205.1280  148.5220 C   0  0  0  0  0  2  0  0  0  0  0  0
  1 20  1  1  0  0  0
  1  4  1  0  0  0  0
  2  8  1  1  0  0  0
  2  5  1  0  0  0  0
  4 14  1  0  0  0  0
  5 11  1  6  0  0  0
  5  1  1  0  0  0  0
  6 29  1  6  0  0  0
  6  2  1  0  0  0  0
  7 22  1  0  0  0  0
  8 17  2  0  0  0  0
  9 21  1  0  0  0  0
 10  9  1  6  0  0  0
 10 19  1  0  0  0  0
 11 15  1  0  0  0  0
 12 14  1  0  0  0  0
 12 16  1  1  0  0  0
 13 10  1  0  0  0  0
 13  6  1  0  0  0  0
 14  3  1  1  0  0  0
 15 20  1  0  0  0  0
 18 17  1  6  0  0  0
 18  1  1  0  0  0  0
 18 12  1  0  0  0  0
 19 22  1  1  0  0  0
 19  8  1  0  0  0  0
 21  7  1  0  0  0  0
 24 14  1  0  0  0  0
 24 23  1  1  0  0  0
 25 24  1  0  0  0  0
 25 26  1  0  0  0  0
 28 12  1  0  0  0  0
 28 27  1  0  0  0  0
 31 30  1  0  0  0  0
 31 29  1  0  0  0  0
 32 31  1  0  0  0  0
 32 30  1  0  0  0  0
M  END
>  <MODEL>
1

>  <REMARK>
 VINA RESULT:      -4.2      0.000      0.000
  Name = 
  5 active torsions:
  status: ('A' for Active; 'I' for Inactive)
    1  A    between atoms: C_6  and  O_29
    2  A    between atoms: N_15  and  C_26
    3  A    between atoms: C_16  and  O_22
    4  A    between atoms: C_18  and  O_29
    5  A    between atoms: C_19  and  C_26
                            x       y       z     vdW  Elec       q    Type
                         _______ _______ _______ _____ _____    ______ ____

>  <TORSDO>
F 5

$$$$
=
 OpenBabel11062408153D

 32 37  0  0  1  0  0  0  0  0999 V2000
  159.2180  210.4850  155.6810 C   0  0  2  0  0  0  0  0  0  0  0  0
  158.0040  212.3450  154.3750 C   0  0  2  0  0  3  0  0  0  0  0  0
  161.3610  208.0320  156.0980 O   0  0  0  0  0  1  0  0  0  0  0  0
  159.5180  209.1490  155.3400 O   0  0  0  0  0  0  0  0  0  0  0  0
  157.9440  210.9040  154.9180 C   0  0  2  0  0  3  0  0  0  0  0  0
  156.7000  212.7150  153.6230 C   0  0  2  0  0  3  0  0  0  0  0  0
  160.3650  213.6260  150.0040 C   0  0  0  0  0  2  0  0  0  0  0  0
  159.2640  212.5120  153.5450 C   0  0  0  0  0  0  0  0  0  0  0  0
  157.9530  214.2310  150.3460 C   0  0  0  0  0  2  0  0  0  0  0  0
  157.9110  213.3130  151.5620 C   0  0  2  0  0  3  0  0  0  0  0  0
  156.8750  210.7580  155.9540 C   0  0  0  0  0  2  0  0  0  0  0  0
  161.6020  210.3750  155.5220 C   0  0  2  0  0  0  0  0  0  0  0  0
  156.8610  213.7850  152.5430 C   0  0  0  0  0  2  0  0  0  0  0  0
  160.9200  209.0120  155.2000 C   0  0  1  0  0  0  0  0  0  0  0  0
  157.6230  210.9540  157.2430 C   0  0  0  0  0  2  0  0  0  0  0  0
  162.0840  210.4700  156.9770 C   0  0  0  0  0  1  0  0  0  0  0  0
  160.4110  212.0560  154.0610 C   0  0  0  0  0  3  0  0  0  0  0  0
  160.4550  211.3540  155.3980 C   0  0  1  0  0  3  0  0  0  0  0  0
  159.2840  213.2790  152.2370 C   0  0  2  0  0  3  0  0  0  0  0  0
  158.9540  210.5340  157.0690 O   0  0  0  0  0  0  0  0  0  0  0  0
  158.9880  213.7160  149.3480 C   0  0  0  0  0  2  0  0  0  0  0  0
  160.3100  212.7310  151.2390 C   0  0  0  0  0  2  0  0  0  0  0  0
  161.1380  207.1140  153.7170 O   0  0  0  0  0  1  0  0  0  0  0  0
  161.2210  208.5090  153.7720 C   0  0  1  0  0  3  0  0  0  0  0  0
  160.3050  209.0820  152.7980 N   0  0  0  0  0  2  0  0  0  0  0  0
  161.0120  209.2870  151.6620 O   0  0  0  0  0  1  0  0  0  0  0  0
  163.7190  210.9770  155.3870 O   0  0  0  0  0  1  0  0  0  0  0  0
  162.6620  210.7020  154.6420 O   0  0  0  0  0  0  0  0  0  0  0  0
  155.6140  212.9870  154.4860 O   0  0  0  0  0  0  0  0  0  0  0  0
  156.3930  214.2810  156.3260 C   0  0  0  0  0  2  0  0  0  0  0  0
  155.7310  214.3030  154.9630 C   0  0  0  0  0  3  0  0  0  0  0  0
  154.8940  214.4530  156.2160 C   0  0  0  0  0  2  0  0  0  0  0  0
  1  4  1  6  0  0  0
  1 20  1  0  0  0  0
  2  8  1  6  0  0  0
  2  5  1  0  0  0  0
  5  1  1  0  0  0  0
  5 11  1  1  0  0  0
  6  2  1  0  0  0  0
  6 29  1  1  0  0  0
  7 22  1  0  0  0  0
  8 17  2  0  0  0  0
 10  9  1  6  0  0  0
 10 19  1  0  0  0  0
 10 13  1  0  0  0  0
 11 15  1  0  0  0  0
 12 16  1  1  0  0  0
 13  6  1  0  0  0  0
 14  4  1  0  0  0  0
 14 12  1  0  0  0  0
 14  3  1  1  0  0  0
 18 17  1  6  0  0  0
 18 12  1  0  0  0  0
 18  1  1  0  0  0  0
 19 22  1  6  0  0  0
 19  8  1  0  0  0  0
 20 15  1  0  0  0  0
 21  7  1  0  0  0  0
 21  9  1  0  0  0  0
 24 23  1  1  0  0  0
 24 14  1  0  0  0  0
 25 24  1  0  0  0  0
 26 25  1  0  0  0  0
 28 27  1  0  0  0  0
 28 12  1  0  0  0  0
 29 31  1  0  0  0  0
 31 32  1  0  0  0  0
 31 30  1  0  0  0  0
 32 30  1  0  0  0  0
M  END
>  <MODEL>
2

>  <REMARK>
 VINA RESULT:      -3.4      3.065      6.073
  Name = 
  5 active torsions:
  status: ('A' for Active; 'I' for Inactive)
    1  A    between atoms: C_6  and  O_29
    2  A    between atoms: N_15  and  C_26
    3  A    between atoms: C_16  and  O_22
    4  A    between atoms: C_18  and  O_29
    5  A    between atoms: C_19  and  C_26
                            x       y       z     vdW  Elec       q    Type
                         _______ _______ _______ _____ _____    ______ ____

>  <TORSDO>
F 5

$$$$
=
 OpenBabel11062408153D

 32 37  0  0  1  0  0  0  0  0999 V2000
  161.9040  209.9780  148.6320 C   0  0  2  0  0  0  0  0  0  0  0  0
  161.7910  209.0280  151.0250 C   0  0  2  0  0  3  0  0  0  0  0  0
  161.1600  212.0540  146.1990 O   0  0  0  0  0  1  0  0  0  0  0  0
  160.8890  210.3930  147.7440 O   0  0  0  0  0  0  0  0  0  0  0  0
  161.3190  208.8970  149.5640 C   0  0  2  0  0  3  0  0  0  0  0  0
  161.1780  207.9170  151.9150 C   0  0  2  0  0  3  0  0  0  0  0  0
  159.6890  212.2730  154.3970 C   0  0  0  0  0  2  0  0  0  0  0  0
  161.5080  210.4380  151.5140 C   0  0  0  0  0  0  0  0  0  0  0  0
  159.8370  209.8280  154.9410 C   0  0  0  0  0  2  0  0  0  0  0  0
  160.2030  209.5420  153.4890 C   0  0  2  0  0  3  0  0  0  0  0  0
  161.8110  207.6260  148.9470 C   0  0  0  0  0  2  0  0  0  0  0  0
  162.1920  212.3380  148.3740 C   0  0  2  0  0  0  0  0  0  0  0  0
  161.0330  208.2820  153.3920 C   0  0  0  0  0  2  0  0  0  0  0  0
  160.9790  211.7940  147.5630 C   0  0  1  0  0  0  0  0  0  0  0  0
  163.0690  208.0560  148.2460 C   0  0  0  0  0  2  0  0  0  0  0  0
  163.4640  212.4740  147.5230 C   0  0  0  0  0  1  0  0  0  0  0  0
  161.8560  211.4530  150.7150 C   0  0  0  0  0  3  0  0  0  0  0  0
  162.4640  211.2160  149.3520 C   0  0  1  0  0  3  0  0  0  0  0  0
  160.9760  210.7270  152.9040 C   0  0  2  0  0  3  0  0  0  0  0  0
  162.9460  209.4040  147.8680 O   0  0  0  0  0  0  0  0  0  0  0  0
  158.9640  211.0790  155.0150 C   0  0  0  0  0  2  0  0  0  0  0  0
  160.0810  211.9710  152.9530 C   0  0  0  0  0  2  0  0  0  0  0  0
  159.7880  213.8030  148.1940 O   0  0  0  0  0  1  0  0  0  0  0  0
  159.6360  212.4280  147.9870 C   0  0  1  0  0  3  0  0  0  0  0  0
  158.6000  212.2040  146.9910 N   0  0  0  0  0  2  0  0  0  0  0  0
  157.4430  212.6780  147.5100 O   0  0  0  0  0  1  0  0  0  0  0  0
  162.7820  214.4530  148.5760 O   0  0  0  0  0  1  0  0  0  0  0  0
  161.9280  213.5580  149.0420 O   0  0  0  0  0  0  0  0  0  0  0  0
  161.7880  206.6550  151.7340 O   0  0  0  0  0  0  0  0  0  0  0  0
  161.5300  204.3050  152.0110 C   0  0  0  0  0  2  0  0  0  0  0  0
  160.8350  205.6510  151.9750 C   0  0  0  0  0  3  0  0  0  0  0  0
  160.7700  204.7310  150.7740 C   0  0  0  0  0  2  0  0  0  0  0  0
  1  4  1  6  0  0  0
  1 18  1  0  0  0  0
  1  5  1  0  0  0  0
  2  8  1  1  0  0  0
  2  6  1  0  0  0  0
  5 11  1  6  0  0  0
  5  2  1  0  0  0  0
  6 29  1  1  0  0  0
  6 13  1  0  0  0  0
  7 21  1  0  0  0  0
  8 19  1  0  0  0  0
  9 21  1  0  0  0  0
 10 13  1  1  0  0  0
 10  9  1  0  0  0  0
 12 16  1  6  0  0  0
 12 28  1  0  0  0  0
 12 18  1  0  0  0  0
 14  3  1  6  0  0  0
 14  4  1  0  0  0  0
 14 24  1  0  0  0  0
 14 12  1  0  0  0  0
 15 11  1  0  0  0  0
 17  8  2  0  0  0  0
 18 17  1  1  0  0  0
 19 22  1  6  0  0  0
 19 10  1  0  0  0  0
 20 15  1  0  0  0  0
 20  1  1  0  0  0  0
 22  7  1  0  0  0  0
 24 23  1  6  0  0  0
 25 26  1  0  0  0  0
 25 24  1  0  0  0  0
 27 28  1  0  0  0  0
 29 31  1  0  0  0  0
 31 30  1  0  0  0  0
 32 31  1  0  0  0  0
 32 30  1  0  0  0  0
M  END
>  <MODEL>
3

>  <REMARK>
 VINA RESULT:      -2.2      3.820      6.508
  Name = 
  5 active torsions:
  status: ('A' for Active; 'I' for Inactive)
    1  A    between atoms: C_6  and  O_29
    2  A    between atoms: N_15  and  C_26
    3  A    between atoms: C_16  and  O_22
    4  A    between atoms: C_18  and  O_29
    5  A    between atoms: C_19  and  C_26
                            x       y       z     vdW  Elec       q    Type
                         _______ _______ _______ _____ _____    ______ ____

>  <TORSDO>
F 5

$$$$
=
 OpenBabel11062408153D

 32 37  0  0  1  0  0  0  0  0999 V2000
  161.2790  204.8370  149.2330 C   0  0  2  0  0  0  0  0  0  0  0  0
  161.6220  206.7610  150.9130 C   0  0  2  0  0  3  0  0  0  0  0  0
  160.6170  203.5040  146.3060 O   0  0  0  0  0  1  0  0  0  0  0  0
  160.2660  204.6020  148.2780 O   0  0  0  0  0  0  0  0  0  0  0  0
  160.6740  205.6670  150.3840 C   0  0  2  0  0  3  0  0  0  0  0  0
  160.9680  207.5600  152.0680 C   0  0  2  0  0  3  0  0  0  0  0  0
  162.1990  211.3370  148.6660 C   0  0  0  0  0  2  0  0  0  0  0  0
  162.0850  207.6210  149.7510 C   0  0  0  0  0  0  0  0  0  0  0  0
  161.5690  211.2060  151.0920 C   0  0  0  0  0  2  0  0  0  0  0  0
  161.2850  209.7170  150.9220 C   0  0  2  0  0  3  0  0  0  0  0  0
  160.4010  204.6330  151.4300 C   0  0  0  0  0  2  0  0  0  0  0  0
  162.3460  205.0060  147.1000 C   0  0  2  0  0  0  0  0  0  0  0  0
  161.4810  208.9900  152.2330 C   0  0  0  0  0  2  0  0  0  0  0  0
  160.8210  204.7140  146.9810 C   0  0  1  0  0  0  0  0  0  0  0  0
  161.4110  203.5640  151.1210 C   0  0  0  0  0  2  0  0  0  0  0  0
  163.2050  203.7360  147.0040 C   0  0  0  0  0  1  0  0  0  0  0  0
  162.5050  206.9970  148.6450 C   0  0  0  0  0  3  0  0  0  0  0  0
  162.4780  205.4910  148.5270 C   0  0  1  0  0  3  0  0  0  0  0  0
  162.2070  209.1300  149.8520 C   0  0  2  0  0  3  0  0  0  0  0  0
  161.6970  203.5870  149.7450 O   0  0  0  0  0  0  0  0  0  0  0  0
  161.3240  211.9300  149.7700 C   0  0  0  0  0  2  0  0  0  0  0  0
  161.9330  209.8400  148.5210 C   0  0  0  0  0  2  0  0  0  0  0  0
  160.6870  207.0500  146.3700 O   0  0  0  0  0  1  0  0  0  0  0  0
  160.0540  205.8130  146.2150 C   0  0  1  0  0  3  0  0  0  0  0  0
  159.9460  205.5030  144.7980 N   0  0  0  0  0  2  0  0  0  0  0  0
  160.7720  206.3520  144.1420 O   0  0  0  0  0  1  0  0  0  0  0  0
  163.3560  205.3190  145.1640 O   0  0  0  0  0  1  0  0  0  0  0  0
  162.8130  205.9730  146.1770 O   0  0  0  0  0  0  0  0  0  0  0  0
  160.9470  206.8560  153.2940 O   0  0  0  0  0  0  0  0  0  0  0  0
  161.3360  207.0990  155.6300 C   0  0  0  0  0  2  0  0  0  0  0  0
  160.9010  207.7820  154.3490 C   0  0  0  0  0  3  0  0  0  0  0  0
  159.8660  207.3340  155.3590 C   0  0  0  0  0  2  0  0  0  0  0  0
  1  4  1  6  0  0  0
  1 20  1  0  0  0  0
  1  5  1  0  0  0  0
  2  8  1  6  0  0  0
  2  6  1  0  0  0  0
  5  2  1  0  0  0  0
  5 11  1  1  0  0  0
  6 13  1  0  0  0  0
  6 29  1  1  0  0  0
  7 21  1  0  0  0  0
  8 19  1  0  0  0  0
 10  9  1  1  0  0  0
 10 13  1  0  0  0  0
 12 16  1  6  0  0  0
 12 18  1  0  0  0  0
 14  3  1  6  0  0  0
 14 12  1  0  0  0  0
 14  4  1  0  0  0  0
 15 11  1  0  0  0  0
 17  8  2  0  0  0  0
 18 17  1  6  0  0  0
 18  1  1  0  0  0  0
 19 22  1  6  0  0  0
 19 10  1  0  0  0  0
 20 15  1  0  0  0  0
 21  9  1  0  0  0  0
 22  7  1  0  0  0  0
 24 23  1  6  0  0  0
 24 14  1  0  0  0  0
 25 24  1  0  0  0  0
 26 25  1  0  0  0  0
 27 28  1  0  0  0  0
 28 12  1  0  0  0  0
 29 31  1  0  0  0  0
 31 32  1  0  0  0  0
 31 30  1  0  0  0  0
 32 30  1  0  0  0  0
M  END
>  <MODEL>
4

>  <REMARK>
 VINA RESULT:      -1.8      3.512      7.583
  Name = 
  5 active torsions:
  status: ('A' for Active; 'I' for Inactive)
    1  A    between atoms: C_6  and  O_29
    2  A    between atoms: N_15  and  C_26
    3  A    between atoms: C_16  and  O_22
    4  A    between atoms: C_18  and  O_29
    5  A    between atoms: C_19  and  C_26
                            x       y       z     vdW  Elec       q    Type
                         _______ _______ _______ _____ _____    ______ ____

>  <TORSDO>
F 5

$$$$
=
 OpenBabel11062408153D

 32 37  0  0  1  0  0  0  0  0999 V2000
  161.0690  208.4260  151.9370 C   0  0  2  0  0  0  0  0  0  0  0  0
  160.9570  211.0000  151.8580 C   0  0  2  0  0  3  0  0  0  0  0  0
  161.0710  205.3920  150.6800 O   0  0  0  0  0  1  0  0  0  0  0  0
  160.2770  207.4390  151.3130 O   0  0  0  0  0  0  0  0  0  0  0  0
  160.2010  209.6860  152.1370 C   0  0  2  0  0  3  0  0  0  0  0  0
  160.0420  212.2310  152.0790 C   0  0  2  0  0  3  0  0  0  0  0  0
  161.6550  212.9180  147.1510 C   0  0  0  0  0  2  0  0  0  0  0  0
  161.5780  210.9310  150.4740 C   0  0  0  0  0  0  0  0  0  0  0  0
  160.5800  214.3270  148.9280 C   0  0  0  0  0  2  0  0  0  0  0  0
  160.4320  213.0850  149.8020 C   0  0  2  0  0  3  0  0  0  0  0  0
  159.8010  209.5850  153.5750 C   0  0  0  0  0  2  0  0  0  0  0  0
  162.5140  207.3180  150.3860 C   0  0  2  0  0  0  0  0  0  0  0  0
  160.4190  213.4680  151.2640 C   0  0  0  0  0  2  0  0  0  0  0  0
  161.0620  206.7540  150.3550 C   0  0  1  0  0  0  0  0  0  0  0  0
  160.9190  208.7870  154.1840 C   0  0  0  0  0  2  0  0  0  0  0  0
  163.4560  206.4890  151.2710 C   0  0  0  0  0  1  0  0  0  0  0  0
  162.2420  209.8180  150.1470 C   0  0  0  0  0  3  0  0  0  0  0  0
  162.3370  208.6440  151.0940 C   0  0  1  0  0  3  0  0  0  0  0  0
  161.5790  212.1120  149.5220 C   0  0  2  0  0  3  0  0  0  0  0  0
  161.4620  207.9380  153.2030 O   0  0  0  0  0  0  0  0  0  0  0  0
  160.5480  213.9260  147.4550 C   0  0  0  0  0  2  0  0  0  0  0  0
  161.5200  211.6900  148.0490 C   0  0  0  0  0  2  0  0  0  0  0  0
  160.9860  207.9330  148.2440 O   0  0  0  0  0  1  0  0  0  0  0  0
  160.3860  206.9020  148.9750 C   0  0  1  0  0  3  0  0  0  0  0  0
  160.4560  205.6670  148.2090 N   0  0  0  0  0  2  0  0  0  0  0  0
  160.8320  206.0010  146.9520 O   0  0  0  0  0  1  0  0  0  0  0  0
  163.5940  206.3200  148.7420 O   0  0  0  0  0  1  0  0  0  0  0  0
  163.0850  207.4870  149.1020 O   0  0  0  0  0  0  0  0  0  0  0  0
  159.8320  212.5350  153.4440 O   0  0  0  0  0  0  0  0  0  0  0  0
  158.1710  213.2790  154.9780 C   0  0  0  0  0  2  0  0  0  0  0  0
  158.6930  213.3490  153.5570 C   0  0  0  0  0  3  0  0  0  0  0  0
  157.4940  212.4840  153.8840 C   0  0  0  0  0  2  0  0  0  0  0  0
  1  4  1  6  0  0  0
  1  5  1  0  0  0  0
  1 20  1  0  0  0  0
  2  8  1  6  0  0  0
  2  6  1  0  0  0  0
  2  5  1  0  0  0  0
  5 11  1  1  0  0  0
  6 29  1  1  0  0  0
  7 21  1  0  0  0  0
  7 22  1  0  0  0  0
 10  9  1  6  0  0  0
 10 13  1  0  0  0  0
 11 15  1  0  0  0  0
 12 18  1  0  0  0  0
 12 16  1  1  0  0  0
 13  6  1  0  0  0  0
 14 12  1  0  0  0  0
 14  3  1  1  0  0  0
 14  4  1  0  0  0  0
 17  8  2  0  0  0  0
 18 17  1  6  0  0  0
 18  1  1  0  0  0  0
 19 22  1  6  0  0  0
 19 10  1  0  0  0  0
 19  8  1  0  0  0  0
 20 15  1  0  0  0  0
 21  9  1  0  0  0  0
 24 23  1  6  0  0  0
 24 14  1  0  0  0  0
 25 24  1  0  0  0  0
 26 25  1  0  0  0  0
 27 28  1  0  0  0  0
 28 12  1  0  0  0  0
 29 31  1  0  0  0  0
 31 32  1  0  0  0  0
 31 30  1  0  0  0  0
 32 30  1  0  0  0  0
M  END
>  <MODEL>
5

>  <REMARK>
 VINA RESULT:      -1.5      2.737      6.303
  Name = 
  5 active torsions:
  status: ('A' for Active; 'I' for Inactive)
    1  A    between atoms: C_6  and  O_29
    2  A    between atoms: N_15  and  C_26
    3  A    between atoms: C_16  and  O_22
    4  A    between atoms: C_18  and  O_29
    5  A    between atoms: C_19  and  C_26
                            x       y       z     vdW  Elec       q    Type
                         _______ _______ _______ _____ _____    ______ ____

>  <TORSDO>
F 5

$$$$
=
 OpenBabel11062408153D

 32 37  0  0  1  0  0  0  0  0999 V2000
  159.4620  210.8190  154.1450 C   0  0  2  0  0  0  0  0  0  0  0  0
  158.5940  212.8430  152.8070 C   0  0  2  0  0  3  0  0  0  0  0  0
  160.9770  207.9360  154.5620 O   0  0  0  0  0  1  0  0  0  0  0  0
  159.3870  209.4320  153.8930 O   0  0  0  0  0  0  0  0  0  0  0  0
  158.2490  211.4980  153.4760 C   0  0  2  0  0  3  0  0  0  0  0  0
  157.3430  213.4840  152.1550 C   0  0  2  0  0  3  0  0  0  0  0  0
  160.6770  213.2290  148.1340 C   0  0  0  0  0  2  0  0  0  0  0  0
  159.7540  212.6380  151.8480 C   0  0  0  0  0  0  0  0  0  0  0  0
  158.5410  214.4390  148.6540 C   0  0  0  0  0  2  0  0  0  0  0  0
  158.4170  213.6350  149.9440 C   0  0  2  0  0  3  0  0  0  0  0  0
  157.3030  211.6880  154.6190 C   0  0  0  0  0  2  0  0  0  0  0  0
  161.7130  210.1050  153.7660 C   0  0  2  0  0  0  0  0  0  0  0  0
  157.6340  214.4120  150.9770 C   0  0  0  0  0  2  0  0  0  0  0  0
  160.6870  208.9400  153.6300 C   0  0  1  0  0  0  0  0  0  0  0  0
  158.2200  211.7660  155.8080 C   0  0  0  0  0  2  0  0  0  0  0  0
  162.3670  210.1620  155.1540 C   0  0  0  0  0  1  0  0  0  0  0  0
  160.8070  211.9400  152.2880 C   0  0  0  0  0  3  0  0  0  0  0  0
  160.8320  211.3310  153.6700 C   0  0  1  0  0  3  0  0  0  0  0  0
  159.8090  213.2980  150.4830 C   0  0  2  0  0  3  0  0  0  0  0  0
  159.3790  211.0150  155.5420 O   0  0  0  0  0  0  0  0  0  0  0  0
  159.2970  213.6220  147.6090 C   0  0  0  0  0  2  0  0  0  0  0  0
  160.5490  212.4510  149.4410 C   0  0  0  0  0  2  0  0  0  0  0  0
  161.3660  209.1080  151.3150 O   0  0  0  0  0  1  0  0  0  0  0  0
  160.6900  208.2930  152.2280 C   0  0  1  0  0  3  0  0  0  0  0  0
  161.3090  206.9770  152.2460 N   0  0  0  0  0  2  0  0  0  0  0  0
  161.3760  206.5520  150.9630 O   0  0  0  0  0  1  0  0  0  0  0  0
  163.7900  210.6630  153.2820 O   0  0  0  0  0  1  0  0  0  0  0  0
  162.7120  210.1020  152.7630 O   0  0  0  0  0  0  0  0  0  0  0  0
  156.4620  214.0700  153.0930 O   0  0  0  0  0  0  0  0  0  0  0  0
  154.1390  214.4440  153.4570 C   0  0  0  0  0  2  0  0  0  0  0  0
  155.2630  214.4060  152.4410 C   0  0  0  0  0  3  0  0  0  0  0  0
  154.2980  213.2440  152.5500 C   0  0  0  0  0  2  0  0  0  0  0  0
  1  4  1  6  0  0  0
  1 20  1  0  0  0  0
  2  8  1  6  0  0  0
  2  5  1  0  0  0  0
  5  1  1  0  0  0  0
  5 11  1  1  0  0  0
  6  2  1  0  0  0  0
  6 29  1  1  0  0  0
  7 22  1  0  0  0  0
  8 17  2  0  0  0  0
 10  9  1  6  0  0  0
 10 19  1  0  0  0  0
 10 13  1  0  0  0  0
 11 15  1  0  0  0  0
 12 16  1  1  0  0  0
 13  6  1  0  0  0  0
 14 12  1  0  0  0  0
 14  4  1  0  0  0  0
 14  3  1  1  0  0  0
 18 17  1  6  0  0  0
 18 12  1  0  0  0  0
 18  1  1  0  0  0  0
 19 22  1  6  0  0  0
 19  8  1  0  0  0  0
 20 15  1  0  0  0  0
 21  7  1  0  0  0  0
 21  9  1  0  0  0  0
 24 23  1  6  0  0  0
 24 25  1  0  0  0  0
 24 14  1  0  0  0  0
 26 25  1  0  0  0  0
 28 27  1  0  0  0  0
 28 12  1  0  0  0  0
 31 32  1  0  0  0  0
 31 29  1  0  0  0  0
 31 30  1  0  0  0  0
 32 30  1  0  0  0  0
M  END
>  <MODEL>
6

>  <REMARK>
 VINA RESULT:      -1.5      3.259      5.958
  Name = 
  5 active torsions:
  status: ('A' for Active; 'I' for Inactive)
    1  A    between atoms: C_6  and  O_29
    2  A    between atoms: N_15  and  C_26
    3  A    between atoms: C_16  and  O_22
    4  A    between atoms: C_18  and  O_29
    5  A    between atoms: C_19  and  C_26
                            x       y       z     vdW  Elec       q    Type
                         _______ _______ _______ _____ _____    ______ ____

>  <TORSDO>
F 5

$$$$
=
 OpenBabel11062408153D

 32 37  0  0  1  0  0  0  0  0999 V2000
  161.7020  209.4610  150.7250 C   0  0  2  0  0  0  0  0  0  0  0  0
  161.9500  207.1480  149.6170 C   0  0  2  0  0  3  0  0  0  0  0  0
  160.7050  211.5870  153.0210 O   0  0  0  0  0  1  0  0  0  0  0  0
  160.5800  210.1150  151.2790 O   0  0  0  0  0  0  0  0  0  0  0  0
  161.2060  208.4980  149.6270 C   0  0  2  0  0  3  0  0  0  0  0  0
  161.4170  206.2220  148.4950 C   0  0  2  0  0  3  0  0  0  0  0  0
  160.8000  203.2600  152.7610 C   0  0  0  0  0  2  0  0  0  0  0  0
  161.8870  206.5360  151.0050 C   0  0  0  0  0  0  0  0  0  0  0  0
  160.8310  202.8930  150.2780 C   0  0  0  0  0  2  0  0  0  0  0  0
  160.8960  204.4020  150.0710 C   0  0  2  0  0  3  0  0  0  0  0  0
  161.4630  209.2680  148.3710 C   0  0  0  0  0  2  0  0  0  0  0  0
  162.1430  209.6360  153.0690 C   0  0  2  0  0  0  0  0  0  0  0  0
  161.5800  204.7260  148.7620 C   0  0  0  0  0  2  0  0  0  0  0  0
  160.7580  210.2310  152.6780 C   0  0  1  0  0  0  0  0  0  0  0  0
  162.6030  210.1700  148.7540 C   0  0  0  0  0  2  0  0  0  0  0  0
  163.2420  210.7030  153.1700 C   0  0  0  0  0  1  0  0  0  0  0  0
  162.1690  207.3270  152.0460 C   0  0  0  0  0  3  0  0  0  0  0  0
  162.4920  208.7920  151.8630 C   0  0  1  0  0  3  0  0  0  0  0  0
  161.6480  205.0550  151.2330 C   0  0  2  0  0  3  0  0  0  0  0  0
  162.5310  210.4400  150.1310 O   0  0  0  0  0  0  0  0  0  0  0  0
  160.1000  202.5840  151.5830 C   0  0  0  0  0  2  0  0  0  0  0  0
  160.8910  204.7670  152.5350 C   0  0  0  0  0  2  0  0  0  0  0  0
  159.9860  208.2930  153.9040 O   0  0  0  0  0  1  0  0  0  0  0  0
  159.5780  209.5240  153.3800 C   0  0  1  0  0  3  0  0  0  0  0  0
  159.0220  210.3400  154.4480 N   0  0  0  0  0  2  0  0  0  0  0  0
  159.1300  209.6240  155.5910 O   0  0  0  0  0  1  0  0  0  0  0  0
  162.3520  209.6820  155.2640 O   0  0  0  0  0  1  0  0  0  0  0  0
  162.1150  208.8620  154.2550 O   0  0  0  0  0  0  0  0  0  0  0  0
  161.8710  206.5860  147.2060 O   0  0  0  0  0  0  0  0  0  0  0  0
  162.3320  205.8280  144.9970 C   0  0  0  0  0  2  0  0  0  0  0  0
  161.7540  205.4760  146.3530 C   0  0  0  0  0  3  0  0  0  0  0  0
  160.8340  205.8280  145.2040 C   0  0  0  0  0  2  0  0  0  0  0  0
  1 20  1  6  0  0  0
  1  4  1  0  0  0  0
  1 18  1  0  0  0  0
  2  5  1  0  0  0  0
  2  8  1  1  0  0  0
  4 14  1  0  0  0  0
  5 11  1  6  0  0  0
  5  1  1  0  0  0  0
  6 29  1  6  0  0  0
  6 13  1  0  0  0  0
  6  2  1  0  0  0  0
  8 19  1  0  0  0  0
  8 17  2  0  0  0  0
  9 21  1  0  0  0  0
 10 13  1  6  0  0  0
 10  9  1  0  0  0  0
 10 19  1  0  0  0  0
 11 15  1  0  0  0  0
 12 16  1  1  0  0  0
 12 28  1  0  0  0  0
 14  3  1  1  0  0  0
 14 12  1  0  0  0  0
 14 24  1  0  0  0  0
 15 20  1  0  0  0  0
 18 17  1  1  0  0  0
 18 12  1  0  0  0  0
 19 22  1  1  0  0  0
 21  7  1  0  0  0  0
 22  7  1  0  0  0  0
 24 23  1  1  0  0  0
 24 25  1  0  0  0  0
 25 26  1  0  0  0  0
 28 27  1  0  0  0  0
 30 32  1  0  0  0  0
 30 31  1  0  0  0  0
 31 29  1  0  0  0  0
 32 31  1  0  0  0  0
M  END
>  <MODEL>
7

>  <REMARK>
 VINA RESULT:      -1.4      2.217      5.284
  Name = 
  5 active torsions:
  status: ('A' for Active; 'I' for Inactive)
    1  A    between atoms: C_6  and  O_29
    2  A    between atoms: N_15  and  C_26
    3  A    between atoms: C_16  and  O_22
    4  A    between atoms: C_18  and  O_29
    5  A    between atoms: C_19  and  C_26
                            x       y       z     vdW  Elec       q    Type
                         _______ _______ _______ _____ _____    ______ ____

>  <TORSDO>
F 5

$$$$
