=
 OpenBabel11062409353D

 34 38  0  0  1  0  0  0  0  0999 V2000
  160.6910  208.2020  151.9580 N   0  0  2  0  0  0  0  0  0  0  0  0
  161.8720  207.4770  152.4700 C   0  0  2  0  0  3  0  0  0  0  0  0
  161.6040  207.5290  151.0100 C   0  0  1  0  0  3  0  0  0  0  0  0
  160.3960  206.6790  148.9890 C   0  0  0  0  0  2  0  0  0  0  0  0
  161.4140  204.1120  149.5060 O   0  0  0  0  0  0  0  0  0  0  0  0
  161.4890  205.4300  145.4660 C   0  0  1  0  0  3  0  0  0  0  0  0
  160.8330  206.3590  146.5110 C   0  0  0  0  0  2  0  0  0  0  0  0
  161.3030  206.0700  147.9330 C   0  0  2  0  0  3  0  0  0  0  0  0
  162.5020  203.9300  147.3130 C   0  0  0  0  0  2  0  0  0  0  0  0
  161.3880  204.5520  148.1540 C   0  0  1  0  0  3  0  0  0  0  0  0
  162.7410  204.6950  145.9950 C   0  0  0  0  0  2  0  0  0  0  0  0
  161.8840  205.1340  150.3580 C   0  0  0  0  0  2  0  0  0  0  0  0
  160.9040  206.3200  150.3930 C   0  0  1  0  0  3  0  0  0  0  0  0
  160.4770  204.4890  144.8790 C   0  0  0  0  0  0  0  0  0  0  0  0
  160.7390  203.3010  144.7830 O   0  0  0  0  0  0  0  0  0  0  0  0
  159.2590  204.9350  144.4680 F   0  0  0  0  0  0  0  0  0  0  0  0
  162.1940  210.5640  153.8750 C   0  0  0  0  0  2  0  0  0  0  0  0
  160.8510  211.2570  153.8950 C   0  0  1  0  0  3  0  0  0  0  0  0
  158.9900  211.2190  152.3790 O   0  0  0  0  0  1  0  0  0  0  0  0
  159.9600  210.4250  152.9990 C   0  0  1  0  0  3  0  0  0  0  0  0
  162.3060  209.9220  152.5070 C   0  0  0  0  0  2  0  0  0  0  0  0
  160.8860  209.6730  151.9970 C   0  0  1  0  0  0  0  0  0  0  0  0
  159.5800  210.2460  155.8000 O   0  0  0  0  0  0  0  0  0  0  0  0
  160.3070  211.3120  155.2830 C   0  0  0  0  0  0  0  0  0  0  0  0
  160.5050  212.3350  155.9890 O   0  0  0  0  0  1  0  0  0  0  0  0
  160.7270  210.1900  150.5410 C   0  0  0  0  0  2  0  0  0  0  0  0
  160.9450  212.6760  150.0910 C   0  0  0  0  0  3  0  0  0  0  0  0
  161.9670  213.3780  148.0130 C   0  0  0  0  0  2  0  0  0  0  0  0
  161.1480  213.5840  149.1950 N   0  0  0  0  0  0  0  0  0  0  0  0
  162.3520  211.0490  148.7330 C   0  0  0  0  0  2  0  0  0  0  0  0
  161.6320  211.3320  150.0490 C   0  0  2  0  0  3  0  0  0  0  0  0
  163.0350  212.3140  148.2430 C   0  0  0  0  0  2  0  0  0  0  0  0
  161.4300  206.2520  153.1560 C   0  0  0  0  0  0  0  0  0  0  0  0
  161.0840  205.2890  153.6970 N   0  0  0  0  0  0  0  0  0  0  0  0
  1 22  1  6  0  0  0
  1  2  1  0  0  0  0
  2 33  1  1  0  0  0
  3 13  1  1  0  0  0
  3  1  1  0  0  0  0
  3  2  1  0  0  0  0
  5 12  1  0  0  0  0
  6 14  1  1  0  0  0
  6 11  1  0  0  0  0
  6  7  1  0  0  0  0
  8  7  1  6  0  0  0
  8 10  1  0  0  0  0
  8  4  1  0  0  0  0
 10  9  1  6  0  0  0
 10  5  1  0  0  0  0
 11  9  1  0  0  0  0
 12 13  1  0  0  0  0
 13  4  1  6  0  0  0
 15 14  2  0  0  0  0
 16 14  1  0  0  0  0
 17 18  1  0  0  0  0
 18 24  1  1  0  0  0
 20 19  1  6  0  0  0
 20 18  1  0  0  0  0
 21 17  1  0  0  0  0
 22 26  1  6  0  0  0
 22 21  1  0  0  0  0
 22 20  1  0  0  0  0
 24 23  2  0  0  0  0
 24 25  1  0  0  0  0
 28 32  1  0  0  0  0
 28 29  1  0  0  0  0
 29 27  2  0  0  0  0
 30 31  1  0  0  0  0
 31 27  1  0  0  0  0
 31 26  1  6  0  0  0
 32 30  1  0  0  0  0
 33 34  3  0  0  0  0
M  END
>  <MODEL>
1

>  <REMARK>
 VINA RESULT:      -5.8      0.000      0.000
  Name = 
  7 active torsions:
  status: ('A' for Active; 'I' for Inactive)
    1  A    between atoms: C_1  and  C_20
    2  A    between atoms: C_1  and  C_34
    3  A    between atoms: N_5  and  C_34
    4  A    between atoms: C_7  and  C_11
    5  A    between atoms: C_8  and  C_18
    6  A    between atoms: C_13  and  C_23
    7  A    between atoms: C_31  and  C_33
                            x       y       z     vdW  Elec       q    Type
                         _______ _______ _______ _____ _____    ______ ____

>  <TORSDO>
F 7

$$$$
=
 OpenBabel11062409353D

 34 38  0  0  1  0  0  0  0  0999 V2000
  160.8920  208.0250  152.4240 N   0  0  2  0  0  0  0  0  0  0  0  0
  161.9300  207.0760  152.8770 C   0  0  2  0  0  3  0  0  0  0  0  0
  161.7410  207.3380  151.4270 C   0  0  1  0  0  3  0  0  0  0  0  0
  160.5480  206.9080  149.2690 C   0  0  0  0  0  2  0  0  0  0  0  0
  161.1160  204.1700  149.5440 O   0  0  0  0  0  0  0  0  0  0  0  0
  161.6570  205.8670  145.6840 C   0  0  1  0  0  3  0  0  0  0  0  0
  161.0870  206.7780  146.7940 C   0  0  0  0  0  2  0  0  0  0  0  0
  161.4140  206.2710  148.1960 C   0  0  2  0  0  3  0  0  0  0  0  0
  162.3000  204.0400  147.3980 C   0  0  0  0  0  2  0  0  0  0  0  0
  161.2460  204.7450  148.2500 C   0  0  1  0  0  3  0  0  0  0  0  0
  162.7410  204.8870  146.1870 C   0  0  0  0  0  2  0  0  0  0  0  0
  161.6840  205.0090  150.5260 C   0  0  0  0  0  2  0  0  0  0  0  0
  160.9010  206.3290  150.6470 C   0  0  1  0  0  3  0  0  0  0  0  0
  160.5490  205.1670  144.9480 C   0  0  0  0  0  0  0  0  0  0  0  0
  160.7770  204.1190  144.3660 O   0  0  0  0  0  0  0  0  0  0  0  0
  159.2870  205.6740  144.9350 F   0  0  0  0  0  0  0  0  0  0  0  0
  160.0330  211.1550  151.4320 C   0  0  0  0  0  2  0  0  0  0  0  0
  161.4900  211.3300  151.0710 C   0  0  1  0  0  3  0  0  0  0  0  0
  163.4930  210.2860  151.8820 O   0  0  0  0  0  1  0  0  0  0  0  0
  162.1660  210.0500  151.5090 C   0  0  1  0  0  3  0  0  0  0  0  0
  160.0180  210.2720  152.6640 C   0  0  0  0  0  2  0  0  0  0  0  0
  161.2980  209.4350  152.6480 C   0  0  1  0  0  0  0  0  0  0  0  0
  162.0560  210.4940  148.7800 O   0  0  0  0  0  0  0  0  0  0  0  0
  161.6480  211.5380  149.6020 C   0  0  0  0  0  0  0  0  0  0  0  0
  161.4120  212.6700  149.1050 O   0  0  0  0  0  1  0  0  0  0  0  0
  162.0060  209.4890  154.0290 C   0  0  0  0  0  2  0  0  0  0  0  0
  160.0750  209.2240  155.6500 C   0  0  0  0  0  3  0  0  0  0  0  0
  158.7150  211.1640  156.1380 C   0  0  0  0  0  2  0  0  0  0  0  0
  158.9740  209.7360  156.0920 N   0  0  0  0  0  0  0  0  0  0  0  0
  160.9280  211.5610  155.1210 C   0  0  0  0  0  2  0  0  0  0  0  0
  161.2520  210.0730  155.2350 C   0  0  2  0  0  3  0  0  0  0  0  0
  160.0040  211.9700  156.2560 C   0  0  0  0  0  2  0  0  0  0  0  0
  161.2820  205.8600  153.3950 C   0  0  0  0  0  0  0  0  0  0  0  0
  160.7730  204.9030  153.8010 N   0  0  0  0  0  0  0  0  0  0  0  0
  1 22  1  1  0  0  0
  1  2  1  0  0  0  0
  2 33  1  6  0  0  0
  3 13  1  6  0  0  0
  3  1  1  0  0  0  0
  3  2  1  0  0  0  0
  5 12  1  0  0  0  0
  6 14  1  1  0  0  0
  6 11  1  0  0  0  0
  6  7  1  0  0  0  0
  8  7  1  6  0  0  0
  8 10  1  0  0  0  0
  8  4  1  0  0  0  0
 10  9  1  1  0  0  0
 10  5  1  0  0  0  0
 11  9  1  0  0  0  0
 12 13  1  0  0  0  0
 13  4  1  6  0  0  0
 15 14  2  0  0  0  0
 16 14  1  0  0  0  0
 17 21  1  0  0  0  0
 18 24  1  6  0  0  0
 18 17  1  0  0  0  0
 18 20  1  0  0  0  0
 20 19  1  1  0  0  0
 20 22  1  0  0  0  0
 22 21  1  0  0  0  0
 22 26  1  1  0  0  0
 23 24  2  0  0  0  0
 25 24  1  0  0  0  0
 27 29  2  0  0  0  0
 28 32  1  0  0  0  0
 29 28  1  0  0  0  0
 30 31  1  0  0  0  0
 30 32  1  0  0  0  0
 31 26  1  6  0  0  0
 31 27  1  0  0  0  0
 33 34  3  0  0  0  0
M  END
>  <MODEL>
2

>  <REMARK>
 VINA RESULT:      -5.3      2.079      4.016
  Name = 
  7 active torsions:
  status: ('A' for Active; 'I' for Inactive)
    1  A    between atoms: C_1  and  C_20
    2  A    between atoms: C_1  and  C_34
    3  A    between atoms: N_5  and  C_34
    4  A    between atoms: C_7  and  C_11
    5  A    between atoms: C_8  and  C_18
    6  A    between atoms: C_13  and  C_23
    7  A    between atoms: C_31  and  C_33
                            x       y       z     vdW  Elec       q    Type
                         _______ _______ _______ _____ _____    ______ ____

>  <TORSDO>
F 7

$$$$
=
 OpenBabel11062409353D

 34 38  0  0  1  0  0  0  0  0999 V2000
  160.8300  206.0410  152.0120 N   0  0  2  0  0  0  0  0  0  0  0  0
  161.5900  204.8200  152.3490 C   0  0  2  0  0  3  0  0  0  0  0  0
  161.7230  205.4330  151.0020 C   0  0  1  0  0  3  0  0  0  0  0  0
  160.7830  205.8170  148.7140 C   0  0  0  0  0  2  0  0  0  0  0  0
  161.0050  203.0630  148.2010 O   0  0  0  0  0  0  0  0  0  0  0  0
  162.2310  205.7000  145.1010 C   0  0  1  0  0  3  0  0  0  0  0  0
  161.6250  206.3260  146.3770 C   0  0  0  0  0  2  0  0  0  0  0  0
  161.7070  205.3970  147.5840 C   0  0  2  0  0  3  0  0  0  0  0  0
  162.4390  203.3850  146.2350 C   0  0  0  0  0  2  0  0  0  0  0  0
  161.3660  203.9610  147.1590 C   0  0  1  0  0  3  0  0  0  0  0  0
  163.1250  204.4720  145.3830 C   0  0  0  0  0  2  0  0  0  0  0  0
  161.5280  203.4940  149.4390 C   0  0  0  0  0  2  0  0  0  0  0  0
  160.8870  204.8220  149.8800 C   0  0  1  0  0  3  0  0  0  0  0  0
  161.1590  205.4090  144.0890 C   0  0  0  0  0  0  0  0  0  0  0  0
  161.3290  205.7190  142.9220 O   0  0  0  0  0  0  0  0  0  0  0  0
  160.0060  204.7840  144.4500 F   0  0  0  0  0  0  0  0  0  0  0  0
  161.5720  207.2470  155.0960 C   0  0  0  0  0  2  0  0  0  0  0  0
  160.7790  208.4690  154.6970 C   0  0  1  0  0  3  0  0  0  0  0  0
  160.2690  209.4400  152.5620 O   0  0  0  0  0  1  0  0  0  0  0  0
  160.3770  208.2330  153.2580 C   0  0  1  0  0  3  0  0  0  0  0  0
  162.2560  206.7690  153.8310 C   0  0  0  0  0  2  0  0  0  0  0  0
  161.4190  207.2480  152.6440 C   0  0  1  0  0  0  0  0  0  0  0  0
  159.0000  209.8750  155.7590 O   0  0  0  0  0  0  0  0  0  0  0  0
  159.5750  208.6240  155.5660 C   0  0  0  0  0  0  0  0  0  0  0  0
  159.0810  207.6140  156.1300 O   0  0  0  0  0  1  0  0  0  0  0  0
  162.3180  207.9280  151.5760 C   0  0  0  0  0  2  0  0  0  0  0  0
  161.7460  208.6890  149.2260 C   0  0  0  0  0  3  0  0  0  0  0  0
  162.3040  210.9550  148.5890 C   0  0  0  0  0  2  0  0  0  0  0  0
  161.9610  209.5720  148.3080 N   0  0  0  0  0  0  0  0  0  0  0  0
  162.2460  210.4400  151.0020 C   0  0  0  0  0  2  0  0  0  0  0  0
  161.7230  209.0390  150.6950 C   0  0  2  0  0  3  0  0  0  0  0  0
  161.7590  211.4100  149.9390 C   0  0  0  0  0  2  0  0  0  0  0  0
  160.6620  203.6810  152.4420 C   0  0  0  0  0  0  0  0  0  0  0  0
  159.9330  202.7840  152.5140 N   0  0  0  0  0  0  0  0  0  0  0  0
  1  2  1  0  0  0  0
  1 22  1  1  0  0  0
  2 33  1  6  0  0  0
  3 13  1  6  0  0  0
  3  1  1  0  0  0  0
  3  2  1  0  0  0  0
  5 12  1  0  0  0  0
  6 14  1  6  0  0  0
  6 11  1  0  0  0  0
  6  7  1  0  0  0  0
  8  7  1  6  0  0  0
  8  4  1  0  0  0  0
 10  9  1  1  0  0  0
 10  8  1  0  0  0  0
 10  5  1  0  0  0  0
 11  9  1  0  0  0  0
 12 13  1  0  0  0  0
 13  4  1  6  0  0  0
 14 16  1  0  0  0  0
 15 14  2  0  0  0  0
 18 17  1  0  0  0  0
 18 24  1  1  0  0  0
 20 19  1  6  0  0  0
 20 18  1  0  0  0  0
 21 17  1  0  0  0  0
 22 26  1  6  0  0  0
 22 20  1  0  0  0  0
 22 21  1  0  0  0  0
 24 23  2  0  0  0  0
 24 25  1  0  0  0  0
 27 31  1  0  0  0  0
 28 32  1  0  0  0  0
 29 28  1  0  0  0  0
 29 27  2  0  0  0  0
 31 30  1  0  0  0  0
 31 26  1  1  0  0  0
 32 30  1  0  0  0  0
 33 34  3  0  0  0  0
M  END
>  <MODEL>
3

>  <REMARK>
 VINA RESULT:      -5.0      1.826      2.481
  Name = 
  7 active torsions:
  status: ('A' for Active; 'I' for Inactive)
    1  A    between atoms: C_1  and  C_20
    2  A    between atoms: C_1  and  C_34
    3  A    between atoms: N_5  and  C_34
    4  A    between atoms: C_7  and  C_11
    5  A    between atoms: C_8  and  C_18
    6  A    between atoms: C_13  and  C_23
    7  A    between atoms: C_31  and  C_33
                            x       y       z     vdW  Elec       q    Type
                         _______ _______ _______ _____ _____    ______ ____

>  <TORSDO>
F 7

$$$$
=
 OpenBabel11062409353D

 34 38  0  0  1  0  0  0  0  0999 V2000
  160.5480  208.1240  152.7270 N   0  0  2  0  0  0  0  0  0  0  0  0
  161.7530  207.3130  152.9950 C   0  0  2  0  0  3  0  0  0  0  0  0
  161.3940  207.6760  151.6000 C   0  0  1  0  0  3  0  0  0  0  0  0
  160.3940  207.1560  149.3650 C   0  0  0  0  0  2  0  0  0  0  0  0
  161.0040  204.4420  149.7650 O   0  0  0  0  0  0  0  0  0  0  0  0
  161.8210  206.0470  145.9150 C   0  0  1  0  0  3  0  0  0  0  0  0
  161.1400  206.9730  146.9480 C   0  0  0  0  0  2  0  0  0  0  0  0
  161.3620  206.5130  148.3860 C   0  0  2  0  0  3  0  0  0  0  0  0
  162.3650  204.2850  147.7290 C   0  0  0  0  0  2  0  0  0  0  0  0
  161.2270  204.9850  148.4700 C   0  0  1  0  0  3  0  0  0  0  0  0
  162.8840  205.1110  146.5340 C   0  0  0  0  0  2  0  0  0  0  0  0
  161.4680  205.3230  150.7660 C   0  0  0  0  0  2  0  0  0  0  0  0
  160.6470  206.6240  150.7830 C   0  0  1  0  0  3  0  0  0  0  0  0
  160.7960  205.2990  145.1120 C   0  0  0  0  0  0  0  0  0  0  0  0
  161.0980  204.2460  144.5750 O   0  0  0  0  0  0  0  0  0  0  0  0
  159.5250  205.7670  144.9880 F   0  0  0  0  0  0  0  0  0  0  0  0
  163.0340  210.2120  153.7140 C   0  0  0  0  0  2  0  0  0  0  0  0
  162.1150  210.6060  154.8470 C   0  0  1  0  0  3  0  0  0  0  0  0
  159.7260  210.5670  155.0790 O   0  0  0  0  0  1  0  0  0  0  0  0
  160.8270  209.8530  154.5960 C   0  0  1  0  0  3  0  0  0  0  0  0
  162.1320  209.9460  152.5260 C   0  0  0  0  0  2  0  0  0  0  0  0
  160.7570  209.5530  153.0680 C   0  0  1  0  0  0  0  0  0  0  0  0
  163.6580  211.0350  156.7710 O   0  0  0  0  0  1  0  0  0  0  0  0
  162.7060  210.2250  156.1630 C   0  0  0  0  0  0  0  0  0  0  0  0
  162.3410  209.1590  156.7240 O   0  0  0  0  0  0  0  0  0  0  0  0
  159.6360  210.3590  152.3580 C   0  0  0  0  0  2  0  0  0  0  0  0
  158.5290  212.5710  152.9150 C   0  0  0  0  0  3  0  0  0  0  0  0
  158.5270  214.3070  151.2300 C   0  0  0  0  0  2  0  0  0  0  0  0
  158.0420  213.6700  152.4420 N   0  0  0  0  0  0  0  0  0  0  0  0
  160.1380  212.4590  150.9480 C   0  0  0  0  0  2  0  0  0  0  0  0
  159.7330  211.8920  152.3070 C   0  0  2  0  0  3  0  0  0  0  0  0
  159.9900  213.9710  150.9610 C   0  0  0  0  0  2  0  0  0  0  0  0
  161.3460  205.9670  153.4280 C   0  0  0  0  0  0  0  0  0  0  0  0
  161.0260  204.9080  153.7700 N   0  0  0  0  0  0  0  0  0  0  0  0
  1  2  1  0  0  0  0
  1 22  1  1  0  0  0
  2 33  1  6  0  0  0
  3 13  1  6  0  0  0
  3  1  1  0  0  0  0
  3  2  1  0  0  0  0
  5 12  1  0  0  0  0
  6 14  1  1  0  0  0
  6 11  1  0  0  0  0
  6  7  1  0  0  0  0
  8  7  1  6  0  0  0
  8 10  1  0  0  0  0
  8  4  1  0  0  0  0
 10  9  1  1  0  0  0
 10  5  1  0  0  0  0
 11  9  1  0  0  0  0
 12 13  1  0  0  0  0
 13  4  1  6  0  0  0
 15 14  2  0  0  0  0
 16 14  1  0  0  0  0
 17 18  1  0  0  0  0
 18 24  1  1  0  0  0
 20 18  1  0  0  0  0
 20 19  1  6  0  0  0
 21 22  1  0  0  0  0
 21 17  1  0  0  0  0
 22 26  1  6  0  0  0
 22 20  1  0  0  0  0
 24 25  2  0  0  0  0
 24 23  1  0  0  0  0
 28 29  1  0  0  0  0
 29 27  2  0  0  0  0
 30 32  1  0  0  0  0
 30 31  1  0  0  0  0
 31 26  1  6  0  0  0
 31 27  1  0  0  0  0
 32 28  1  0  0  0  0
 33 34  3  0  0  0  0
M  END
>  <MODEL>
4

>  <REMARK>
 VINA RESULT:      -5.0      1.723      2.219
  Name = 
  7 active torsions:
  status: ('A' for Active; 'I' for Inactive)
    1  A    between atoms: C_1  and  C_20
    2  A    between atoms: C_1  and  C_34
    3  A    between atoms: N_5  and  C_34
    4  A    between atoms: C_7  and  C_11
    5  A    between atoms: C_8  and  C_18
    6  A    between atoms: C_13  and  C_23
    7  A    between atoms: C_31  and  C_33
                            x       y       z     vdW  Elec       q    Type
                         _______ _______ _______ _____ _____    ______ ____

>  <TORSDO>
F 7

$$$$
=
 OpenBabel11062409353D

 34 38  0  0  1  0  0  0  0  0999 V2000
  161.7530  209.9530  152.8230 N   0  0  2  0  0  0  0  0  0  0  0  0
  161.0040  210.3990  151.6300 C   0  0  2  0  0  3  0  0  0  0  0  0
  160.9150  208.9870  152.0800 C   0  0  1  0  0  3  0  0  0  0  0  0
  161.9460  206.7100  152.2230 C   0  0  0  0  0  2  0  0  0  0  0  0
  161.7920  206.5050  149.4250 O   0  0  0  0  0  0  0  0  0  0  0  0
  160.6570  203.0780  151.6690 C   0  0  1  0  0  3  0  0  0  0  0  0
  161.1970  204.2970  152.4480 C   0  0  0  0  0  2  0  0  0  0  0  0
  161.0780  205.5980  151.6590 C   0  0  2  0  0  3  0  0  0  0  0  0
  160.4380  204.4580  149.4930 C   0  0  0  0  0  2  0  0  0  0  0  0
  161.4610  205.3540  150.1920 C   0  0  1  0  0  3  0  0  0  0  0  0
  159.7710  203.4610  150.4620 C   0  0  0  0  0  2  0  0  0  0  0  0
  161.2080  207.6630  149.9820 C   0  0  0  0  0  2  0  0  0  0  0  0
  161.8080  207.9760  151.3640 C   0  0  1  0  0  3  0  0  0  0  0  0
  161.7750  202.1500  151.2880 C   0  0  0  0  0  0  0  0  0  0  0  0
  161.6760  201.4620  150.2860 O   0  0  0  0  0  0  0  0  0  0  0  0
  162.9110  202.0780  152.0330 F   0  0  0  0  0  0  0  0  0  0  0  0
  162.1460  209.6700  156.1810 C   0  0  0  0  0  2  0  0  0  0  0  0
  160.7000  209.2340  156.2110 C   0  0  1  0  0  3  0  0  0  0  0  0
  158.8520  209.6580  154.7390 O   0  0  0  0  0  1  0  0  0  0  0  0
  160.2170  209.3550  154.7830 C   0  0  1  0  0  3  0  0  0  0  0  0
  162.2430  210.7010  155.0740 C   0  0  0  0  0  2  0  0  0  0  0  0
  161.1160  210.4170  154.0800 C   0  0  1  0  0  0  0  0  0  0  0  0
  159.3990  207.1190  156.5270 O   0  0  0  0  0  0  0  0  0  0  0  0
  160.5830  207.8270  156.6940 C   0  0  0  0  0  0  0  0  0  0  0  0
  161.5650  207.2800  157.2610 O   0  0  0  0  0  1  0  0  0  0  0  0
  160.3400  211.7190  153.7420 C   0  0  0  0  0  2  0  0  0  0  0  0
  158.0190  212.7270  153.8990 C   0  0  0  0  0  3  0  0  0  0  0  0
  157.6280  214.4480  155.5540 C   0  0  0  0  0  2  0  0  0  0  0  0
  157.3110  213.7130  154.3410 N   0  0  0  0  0  0  0  0  0  0  0  0
  159.6310  213.0370  155.8420 C   0  0  0  0  0  2  0  0  0  0  0  0
  159.1950  212.1690  154.6640 C   0  0  2  0  0  3  0  0  0  0  0  0
  158.4060  213.5930  156.5470 C   0  0  0  0  0  2  0  0  0  0  0  0
  161.9500  210.6600  150.5320 C   0  0  0  0  0  0  0  0  0  0  0  0
  162.6930  210.8640  149.6690 N   0  0  0  0  0  0  0  0  0  0  0  0
  1 22  1  1  0  0  0
  2 33  1  6  0  0  0
  2  3  1  0  0  0  0
  2  1  1  0  0  0  0
  3 13  1  6  0  0  0
  3  1  1  0  0  0  0
  5 12  1  0  0  0  0
  5 10  1  0  0  0  0
  6 14  1  6  0  0  0
  6  7  1  0  0  0  0
  8  4  1  1  0  0  0
  8  7  1  0  0  0  0
  9 11  1  0  0  0  0
 10  9  1  6  0  0  0
 10  8  1  0  0  0  0
 11  6  1  0  0  0  0
 13 12  1  6  0  0  0
 13  4  1  0  0  0  0
 14 16  1  0  0  0  0
 15 14  2  0  0  0  0
 17 18  1  0  0  0  0
 18 24  1  6  0  0  0
 20 19  1  1  0  0  0
 20 18  1  0  0  0  0
 21 17  1  0  0  0  0
 22 26  1  6  0  0  0
 22 20  1  0  0  0  0
 22 21  1  0  0  0  0
 23 24  2  0  0  0  0
 24 25  1  0  0  0  0
 27 29  2  0  0  0  0
 27 31  1  0  0  0  0
 28 32  1  0  0  0  0
 29 28  1  0  0  0  0
 30 32  1  0  0  0  0
 31 26  1  6  0  0  0
 31 30  1  0  0  0  0
 34 33  3  0  0  0  0
M  END
>  <MODEL>
5

>  <REMARK>
 VINA RESULT:      -4.9      3.040      5.025
  Name = 
  7 active torsions:
  status: ('A' for Active; 'I' for Inactive)
    1  A    between atoms: C_1  and  C_20
    2  A    between atoms: C_1  and  C_34
    3  A    between atoms: N_5  and  C_34
    4  A    between atoms: C_7  and  C_11
    5  A    between atoms: C_8  and  C_18
    6  A    between atoms: C_13  and  C_23
    7  A    between atoms: C_31  and  C_33
                            x       y       z     vdW  Elec       q    Type
                         _______ _______ _______ _____ _____    ______ ____

>  <TORSDO>
F 7

$$$$
=
 OpenBabel11062409353D

 34 38  0  0  1  0  0  0  0  0999 V2000
  161.9650  205.8470  149.9340 N   0  0  2  0  0  0  0  0  0  0  0  0
  160.8120  204.9750  150.2380 C   0  0  2  0  0  3  0  0  0  0  0  0
  160.9420  206.2980  150.9010 C   0  0  1  0  0  3  0  0  0  0  0  0
  162.0790  207.7100  152.6270 C   0  0  0  0  0  2  0  0  0  0  0  0
  160.8380  206.1880  154.6370 O   0  0  0  0  0  0  0  0  0  0  0  0
  160.8950  210.4040  155.1780 C   0  0  1  0  0  3  0  0  0  0  0  0
  161.6260  209.8300  153.9450 C   0  0  0  0  0  2  0  0  0  0  0  0
  161.1270  208.4410  153.5580 C   0  0  2  0  0  3  0  0  0  0  0  0
  159.7480  208.1360  155.6580 C   0  0  0  0  0  2  0  0  0  0  0  0
  160.9080  207.5970  154.8230 C   0  0  1  0  0  3  0  0  0  0  0  0
  159.5820  209.6630  155.5160 C   0  0  0  0  0  2  0  0  0  0  0  0
  160.4560  205.8750  153.3150 C   0  0  0  0  0  2  0  0  0  0  0  0
  161.5360  206.3090  152.3080 C   0  0  1  0  0  3  0  0  0  0  0  0
  161.8240  210.4900  156.3560 C   0  0  0  0  0  0  0  0  0  0  0  0
  161.7770  211.4620  157.0930 O   0  0  0  0  0  0  0  0  0  0  0  0
  162.7060  209.4920  156.6280 F   0  0  0  0  0  0  0  0  0  0  0  0
  159.9020  205.8280  147.2400 C   0  0  0  0  0  2  0  0  0  0  0  0
  161.1450  205.5790  146.4180 C   0  0  1  0  0  3  0  0  0  0  0  0
  163.4600  206.0920  146.7910 O   0  0  0  0  0  1  0  0  0  0  0  0
  162.2910  205.6280  147.4030 C   0  0  1  0  0  3  0  0  0  0  0  0
  160.3340  206.7320  148.3770 C   0  0  0  0  0  2  0  0  0  0  0  0
  161.8280  206.5000  148.6080 C   0  0  1  0  0  0  0  0  0  0  0  0
  160.4560  204.1110  144.5100 O   0  0  0  0  0  0  0  0  0  0  0  0
  161.0760  204.2480  145.7470 C   0  0  0  0  0  0  0  0  0  0  0  0
  161.5810  203.2410  146.3090 O   0  0  0  0  0  1  0  0  0  0  0  0
  162.5880  207.8520  148.6880 C   0  0  0  0  0  2  0  0  0  0  0  0
  161.5950  210.0430  147.8860 C   0  0  0  0  0  3  0  0  0  0  0  0
  161.9560  212.0230  149.2290 C   0  0  0  0  0  2  0  0  0  0  0  0
  161.6190  211.3300  147.9970 N   0  0  0  0  0  0  0  0  0  0  0  0
  162.3310  209.8380  150.3120 C   0  0  0  0  0  2  0  0  0  0  0  0
  161.8130  209.1250  149.0650 C   0  0  2  0  0  3  0  0  0  0  0  0
  161.6360  211.1810  150.4590 C   0  0  0  0  0  2  0  0  0  0  0  0
  161.2720  203.8190  151.0260 C   0  0  0  0  0  0  0  0  0  0  0  0
  161.6340  202.9100  151.6440 N   0  0  0  0  0  0  0  0  0  0  0  0
  1 22  1  6  0  0  0
  1  2  1  0  0  0  0
  1  3  1  0  0  0  0
  2  3  1  0  0  0  0
  2 33  1  1  0  0  0
  3 13  1  1  0  0  0
  5 10  1  0  0  0  0
  6 11  1  0  0  0  0
  6 14  1  1  0  0  0
  7  6  1  0  0  0  0
  8  4  1  6  0  0  0
  8  7  1  0  0  0  0
  8 10  1  0  0  0  0
 10  9  1  6  0  0  0
 11  9  1  0  0  0  0
 12  5  1  0  0  0  0
 13  4  1  1  0  0  0
 13 12  1  0  0  0  0
 14 16  1  0  0  0  0
 14 15  2  0  0  0  0
 17 21  1  0  0  0  0
 18 24  1  1  0  0  0
 18 17  1  0  0  0  0
 18 20  1  0  0  0  0
 20 19  1  6  0  0  0
 20 22  1  0  0  0  0
 21 22  1  0  0  0  0
 22 26  1  6  0  0  0
 23 24  2  0  0  0  0
 24 25  1  0  0  0  0
 27 29  2  0  0  0  0
 27 31  1  0  0  0  0
 28 32  1  0  0  0  0
 29 28  1  0  0  0  0
 30 32  1  0  0  0  0
 31 26  1  6  0  0  0
 31 30  1  0  0  0  0
 33 34  3  0  0  0  0
M  END
>  <MODEL>
6

>  <REMARK>
 VINA RESULT:      -4.7      3.004      7.795
  Name = 
  7 active torsions:
  status: ('A' for Active; 'I' for Inactive)
    1  A    between atoms: C_1  and  C_20
    2  A    between atoms: C_1  and  C_34
    3  A    between atoms: N_5  and  C_34
    4  A    between atoms: C_7  and  C_11
    5  A    between atoms: C_8  and  C_18
    6  A    between atoms: C_13  and  C_23
    7  A    between atoms: C_31  and  C_33
                            x       y       z     vdW  Elec       q    Type
                         _______ _______ _______ _____ _____    ______ ____

>  <TORSDO>
F 7

$$$$
=
 OpenBabel11062409353D

 34 38  0  0  1  0  0  0  0  0999 V2000
  161.1630  208.1020  149.1320 N   0  0  2  0  0  0  0  0  0  0  0  0
  162.4020  208.8080  148.7490 C   0  0  2  0  0  3  0  0  0  0  0  0
  162.1490  208.4650  150.1720 C   0  0  1  0  0  3  0  0  0  0  0  0
  160.4520  209.0010  151.9320 C   0  0  0  0  0  2  0  0  0  0  0  0
  162.1930  210.9480  152.9670 O   0  0  0  0  0  0  0  0  0  0  0  0
  160.2240  208.4420  155.7800 C   0  0  1  0  0  3  0  0  0  0  0  0
  159.8640  208.2670  154.2880 C   0  0  0  0  0  2  0  0  0  0  0  0
  160.9470  208.8000  153.3540 C   0  0  2  0  0  3  0  0  0  0  0  0
  162.2590  209.9290  155.1990 C   0  0  0  0  0  2  0  0  0  0  0  0
  161.4900  210.1310  153.8940 C   0  0  1  0  0  3  0  0  0  0  0  0
  161.7210  208.7400  156.0210 C   0  0  0  0  0  2  0  0  0  0  0  0
  162.7100  210.1730  151.9070 C   0  0  0  0  0  2  0  0  0  0  0  0
  161.5770  209.5710  151.0570 C   0  0  1  0  0  3  0  0  0  0  0  0
  159.3260  209.4560  156.4300 C   0  0  0  0  0  0  0  0  0  0  0  0
  159.7830  210.2260  157.2590 O   0  0  0  0  0  0  0  0  0  0  0  0
  158.0120  209.5460  156.0940 F   0  0  0  0  0  0  0  0  0  0  0  0
  162.7920  206.0230  147.0020 C   0  0  0  0  0  2  0  0  0  0  0  0
  161.4220  205.5560  146.5700 C   0  0  1  0  0  3  0  0  0  0  0  0
  159.2960  205.5330  147.6850 O   0  0  0  0  0  1  0  0  0  0  0  0
  160.4490  206.2930  147.4640 C   0  0  1  0  0  3  0  0  0  0  0  0
  162.6770  206.3260  148.4820 C   0  0  0  0  0  2  0  0  0  0  0  0
  161.2140  206.6630  148.7720 C   0  0  1  0  0  0  0  0  0  0  0  0
  161.9930  205.3560  144.1410 O   0  0  0  0  0  0  0  0  0  0  0  0
  161.1790  205.8870  145.1360 C   0  0  0  0  0  0  0  0  0  0  0  0
  160.2320  206.6550  144.8250 O   0  0  0  0  0  1  0  0  0  0  0  0
  160.7000  205.8680  150.0030 C   0  0  0  0  0  2  0  0  0  0  0  0
  160.9820  203.4760  149.2100 C   0  0  0  0  0  3  0  0  0  0  0  0
  160.6430  201.6930  150.8090 C   0  0  0  0  0  2  0  0  0  0  0  0
  160.7430  202.2320  149.4640 N   0  0  0  0  0  0  0  0  0  0  0  0
  161.0200  203.9600  151.7070 C   0  0  0  0  0  2  0  0  0  0  0  0
  161.2900  204.4790  150.2960 C   0  0  2  0  0  3  0  0  0  0  0  0
  161.4560  202.5080  151.8080 C   0  0  0  0  0  2  0  0  0  0  0  0
  162.0740  210.1880  148.3570 C   0  0  0  0  0  0  0  0  0  0  0  0
  161.8160  211.2740  148.0470 N   0  0  0  0  0  0  0  0  0  0  0  0
  1 22  1  6  0  0  0
  1  3  1  0  0  0  0
  2 33  1  1  0  0  0
  2  1  1  0  0  0  0
  2  3  1  0  0  0  0
  3 13  1  1  0  0  0
  5 10  1  0  0  0  0
  6 11  1  0  0  0  0
  6 14  1  6  0  0  0
  7  6  1  0  0  0  0
  8  4  1  6  0  0  0
  8 10  1  0  0  0  0
  8  7  1  0  0  0  0
  9 11  1  0  0  0  0
 10  9  1  1  0  0  0
 12  5  1  0  0  0  0
 13 12  1  1  0  0  0
 13  4  1  0  0  0  0
 14 15  2  0  0  0  0
 16 14  1  0  0  0  0
 17 21  1  0  0  0  0
 18 24  1  6  0  0  0
 18 17  1  0  0  0  0
 18 20  1  0  0  0  0
 20 19  1  1  0  0  0
 20 22  1  0  0  0  0
 21 22  1  0  0  0  0
 22 26  1  1  0  0  0
 23 24  2  0  0  0  0
 25 24  1  0  0  0  0
 27 29  2  0  0  0  0
 27 31  1  0  0  0  0
 28 32  1  0  0  0  0
 29 28  1  0  0  0  0
 30 32  1  0  0  0  0
 31 26  1  6  0  0  0
 31 30  1  0  0  0  0
 34 33  3  0  0  0  0
M  END
>  <MODEL>
7

>  <REMARK>
 VINA RESULT:      -3.8      3.088      8.792
  Name = 
  7 active torsions:
  status: ('A' for Active; 'I' for Inactive)
    1  A    between atoms: C_1  and  C_20
    2  A    between atoms: C_1  and  C_34
    3  A    between atoms: N_5  and  C_34
    4  A    between atoms: C_7  and  C_11
    5  A    between atoms: C_8  and  C_18
    6  A    between atoms: C_13  and  C_23
    7  A    between atoms: C_31  and  C_33
                            x       y       z     vdW  Elec       q    Type
                         _______ _______ _______ _____ _____    ______ ____

>  <TORSDO>
F 7

$$$$
=
 OpenBabel11062409353D

 34 38  0  0  1  0  0  0  0  0999 V2000
  161.7600  205.1860  150.3210 N   0  0  2  0  0  0  0  0  0  0  0  0
  160.6860  204.2930  150.8020 C   0  0  2  0  0  3  0  0  0  0  0  0
  160.7800  205.6860  151.3100 C   0  0  1  0  0  3  0  0  0  0  0  0
  162.1240  207.2730  152.7040 C   0  0  0  0  0  2  0  0  0  0  0  0
  160.9260  206.2030  155.0090 O   0  0  0  0  0  0  0  0  0  0  0  0
  161.2980  210.4340  154.8240 C   0  0  1  0  0  3  0  0  0  0  0  0
  161.9030  209.6090  153.6660 C   0  0  0  0  0  2  0  0  0  0  0  0
  161.2880  208.2180  153.5500 C   0  0  2  0  0  3  0  0  0  0  0  0
  160.0390  208.3710  155.7450 C   0  0  0  0  0  2  0  0  0  0  0  0
  161.1010  207.6130  154.9490 C   0  0  1  0  0  3  0  0  0  0  0  0
  159.9650  209.8610  155.3550 C   0  0  0  0  0  2  0  0  0  0  0  0
  160.4340  205.7060  153.7840 C   0  0  0  0  0  2  0  0  0  0  0  0
  161.4690  205.8840  152.6580 C   0  0  1  0  0  3  0  0  0  0  0  0
  162.3080  210.6420  155.9160 C   0  0  0  0  0  0  0  0  0  0  0  0
  161.9440  210.6690  157.0800 O   0  0  0  0  0  0  0  0  0  0  0  0
  163.6310  210.7830  155.6290 F   0  0  0  0  0  0  0  0  0  0  0  0
  163.0810  207.3140  148.0320 C   0  0  0  0  0  2  0  0  0  0  0  0
  161.7090  207.9450  147.9760 C   0  0  1  0  0  3  0  0  0  0  0  0
  159.5160  207.0880  148.4430 O   0  0  0  0  0  1  0  0  0  0  0  0
  160.8440  207.0980  148.8820 C   0  0  1  0  0  3  0  0  0  0  0  0
  162.8460  205.8340  148.2550 C   0  0  0  0  0  2  0  0  0  0  0  0
  161.4910  205.6810  148.9470 C   0  0  1  0  0  0  0  0  0  0  0  0
  161.3710  210.3990  147.6210 O   0  0  0  0  0  0  0  0  0  0  0  0
  161.7580  209.3570  148.4550 C   0  0  0  0  0  0  0  0  0  0  0  0
  162.1550  209.6050  149.6230 O   0  0  0  0  0  1  0  0  0  0  0  0
  160.6290  204.6030  148.2370 C   0  0  0  0  0  2  0  0  0  0  0  0
  161.2160  203.3050  146.1390 C   0  0  0  0  0  3  0  0  0  0  0  0
  160.9010  200.9060  146.1510 C   0  0  0  0  0  2  0  0  0  0  0  0
  161.0750  202.1920  145.4980 N   0  0  0  0  0  0  0  0  0  0  0  0
  160.9690  202.0490  148.3370 C   0  0  0  0  0  2  0  0  0  0  0  0
  161.3200  203.3640  147.6440 C   0  0  2  0  0  3  0  0  0  0  0  0
  161.5320  200.8850  147.5390 C   0  0  0  0  0  2  0  0  0  0  0  0
  161.2690  203.2570  151.6710 C   0  0  0  0  0  0  0  0  0  0  0  0
  161.7270  202.4420  152.3530 N   0  0  0  0  0  0  0  0  0  0  0  0
  1 22  1  6  0  0  0
  1  2  1  0  0  0  0
  1  3  1  0  0  0  0
  2  3  1  0  0  0  0
  2 33  1  1  0  0  0
  3 13  1  1  0  0  0
  6 11  1  0  0  0  0
  6 14  1  1  0  0  0
  7  6  1  0  0  0  0
  8  4  1  6  0  0  0
  8  7  1  0  0  0  0
  8 10  1  0  0  0  0
 10  5  1  0  0  0  0
 10  9  1  6  0  0  0
 11  9  1  0  0  0  0
 12  5  1  0  0  0  0
 13  4  1  6  0  0  0
 13 12  1  0  0  0  0
 14 15  2  0  0  0  0
 16 14  1  0  0  0  0
 17 21  1  0  0  0  0
 18 17  1  0  0  0  0
 18 24  1  1  0  0  0
 18 20  1  0  0  0  0
 20 19  1  6  0  0  0
 20 22  1  0  0  0  0
 21 22  1  0  0  0  0
 22 26  1  6  0  0  0
 23 24  2  0  0  0  0
 24 25  1  0  0  0  0
 27 31  1  0  0  0  0
 28 32  1  0  0  0  0
 29 27  2  0  0  0  0
 29 28  1  0  0  0  0
 31 26  1  1  0  0  0
 31 30  1  0  0  0  0
 32 30  1  0  0  0  0
 33 34  3  0  0  0  0
M  END
>  <MODEL>
8

>  <REMARK>
 VINA RESULT:      -3.6      3.649      8.182
  Name = 
  7 active torsions:
  status: ('A' for Active; 'I' for Inactive)
    1  A    between atoms: C_1  and  C_20
    2  A    between atoms: C_1  and  C_34
    3  A    between atoms: N_5  and  C_34
    4  A    between atoms: C_7  and  C_11
    5  A    between atoms: C_8  and  C_18
    6  A    between atoms: C_13  and  C_23
    7  A    between atoms: C_31  and  C_33
                            x       y       z     vdW  Elec       q    Type
                         _______ _______ _______ _____ _____    ______ ____

>  <TORSDO>
F 7

$$$$
=
 OpenBabel11062409353D

 34 38  0  0  1  0  0  0  0  0999 V2000
  160.4750  211.5860  153.4610 N   0  0  2  0  0  0  0  0  0  0  0  0
  159.8100  211.6180  152.1420 C   0  0  2  0  0  3  0  0  0  0  0  0
  160.0370  210.3220  152.8320 C   0  0  1  0  0  3  0  0  0  0  0  0
  161.2780  208.1710  153.1440 C   0  0  0  0  0  2  0  0  0  0  0  0
  162.1190  208.3100  150.4670 O   0  0  0  0  0  0  0  0  0  0  0  0
  160.8010  204.5210  151.8730 C   0  0  1  0  0  3  0  0  0  0  0  0
  160.8590  205.6820  152.8890 C   0  0  0  0  0  2  0  0  0  0  0  0
  160.8280  207.0530  152.2200 C   0  0  2  0  0  3  0  0  0  0  0  0
  161.1380  206.1370  149.8820 C   0  0  0  0  0  2  0  0  0  0  0  0
  161.7180  207.0410  150.9680 C   0  0  1  0  0  3  0  0  0  0  0  0
  160.3340  204.9570  150.4660 C   0  0  0  0  0  2  0  0  0  0  0  0
  161.2180  209.3180  150.8730 C   0  0  0  0  0  2  0  0  0  0  0  0
  161.2580  209.5140  152.3990 C   0  0  1  0  0  3  0  0  0  0  0  0
  162.1050  203.7770  151.8380 C   0  0  0  0  0  0  0  0  0  0  0  0
  162.1100  202.5730  151.6360 O   0  0  0  0  0  0  0  0  0  0  0  0
  163.2880  204.4260  152.0110 F   0  0  0  0  0  0  0  0  0  0  0  0
  157.1890  211.4690  154.2980 C   0  0  0  0  0  2  0  0  0  0  0  0
  157.2800  212.9680  154.4580 C   0  0  1  0  0  3  0  0  0  0  0  0
  159.1170  214.4320  154.9540 O   0  0  0  0  0  1  0  0  0  0  0  0
  158.7350  213.3070  154.2170 C   0  0  1  0  0  3  0  0  0  0  0  0
  158.5300  210.9240  154.7450 C   0  0  0  0  0  2  0  0  0  0  0  0
  159.5670  212.0310  154.5470 C   0  0  1  0  0  0  0  0  0  0  0  0
  155.0590  213.8790  153.7470 O   0  0  0  0  0  1  0  0  0  0  0  0
  156.4030  213.6590  153.4680 C   0  0  0  0  0  0  0  0  0  0  0  0
  156.8840  214.0410  152.3700 O   0  0  0  0  0  0  0  0  0  0  0  0
  160.4350  212.2040  155.8230 C   0  0  0  0  0  2  0  0  0  0  0  0
  162.1880  210.7590  156.9500 C   0  0  0  0  0  3  0  0  0  0  0  0
  161.9560  208.3550  156.8030 C   0  0  0  0  0  2  0  0  0  0  0  0
  162.7060  209.5780  157.0310 N   0  0  0  0  0  0  0  0  0  0  0  0
  159.9590  209.7160  156.3040 C   0  0  0  0  0  2  0  0  0  0  0  0
  160.7140  210.9800  156.7110 C   0  0  2  0  0  3  0  0  0  0  0  0
  160.4730  208.5340  157.1080 C   0  0  0  0  0  2  0  0  0  0  0  0
  160.7980  211.9720  151.1090 C   0  0  0  0  0  0  0  0  0  0  0  0
  161.5730  212.2500  150.2960 N   0  0  0  0  0  0  0  0  0  0  0  0
  1 22  1  1  0  0  0
  2 33  1  6  0  0  0
  2  3  1  0  0  0  0
  2  1  1  0  0  0  0
  3 13  1  6  0  0  0
  3  1  1  0  0  0  0
  5 12  1  0  0  0  0
  5 10  1  0  0  0  0
  6 14  1  6  0  0  0
  6  7  1  0  0  0  0
  8  7  1  1  0  0  0
  8  4  1  0  0  0  0
  9 11  1  0  0  0  0
 10  9  1  6  0  0  0
 10  8  1  0  0  0  0
 11  6  1  0  0  0  0
 13 12  1  6  0  0  0
 13  4  1  0  0  0  0
 14 16  1  0  0  0  0
 15 14  2  0  0  0  0
 17 18  1  0  0  0  0
 17 21  1  0  0  0  0
 18 24  1  6  0  0  0
 20 18  1  0  0  0  0
 20 22  1  0  0  0  0
 20 19  1  1  0  0  0
 22 21  1  0  0  0  0
 22 26  1  1  0  0  0
 24 23  1  0  0  0  0
 25 24  2  0  0  0  0
 27 29  2  0  0  0  0
 28 29  1  0  0  0  0
 28 32  1  0  0  0  0
 30 31  1  0  0  0  0
 30 32  1  0  0  0  0
 31 26  1  6  0  0  0
 31 27  1  0  0  0  0
 34 33  3  0  0  0  0
M  END
>  <MODEL>
9

>  <REMARK>
 VINA RESULT:      -3.5      3.323      5.992
  Name = 
  7 active torsions:
  status: ('A' for Active; 'I' for Inactive)
    1  A    between atoms: C_1  and  C_20
    2  A    between atoms: C_1  and  C_34
    3  A    between atoms: N_5  and  C_34
    4  A    between atoms: C_7  and  C_11
    5  A    between atoms: C_8  and  C_18
    6  A    between atoms: C_13  and  C_23
    7  A    between atoms: C_31  and  C_33
                            x       y       z     vdW  Elec       q    Type
                         _______ _______ _______ _____ _____    ______ ____

>  <TORSDO>
F 7

$$$$
