=
 OpenBabel11052422433D

 31 34  0  0  1  0  0  0  0  0999 V2000
  161.8840  210.6570  149.4690 C   0  0  0  0  0  0  0  0  0  0  0  0
  161.0920  207.9730  152.0920 C   0  0  1  0  0  3  0  0  0  0  0  0
  161.3790  208.6730  153.4170 C   0  0  0  0  0  0  0  0  0  0  0  0
  161.5000  210.8610  154.6940 C   0  0  0  0  0  2  0  0  0  0  0  0
  161.5460  208.6580  150.8150 C   0  0  0  0  0  0  0  0  0  0  0  0
  162.2370  209.8690  148.3720 C   0  0  0  0  0  3  0  0  0  0  0  0
  161.6790  210.0770  153.4750 N   0  0  0  0  0  2  0  0  0  0  0  0
  161.2430  205.7790  150.8690 C   0  0  2  0  0  3  0  0  0  0  0  0
  161.8840  212.1380  149.3510 C   0  0  0  0  0  1  0  0  0  0  0  0
  160.9400  206.5250  154.5260 C   0  0  0  0  0  3  0  0  0  0  0  0
  161.7760  210.0440  155.8710 N   0  0  0  0  0  2  0  0  0  0  0  0
  161.7990  206.4710  149.7500 O   0  0  0  0  0  0  0  0  0  0  0  0
  161.5950  206.5180  152.1580 C   0  0  2  0  0  3  0  0  0  0  0  0
  161.5280  210.0540  150.6770 C   0  0  0  0  0  3  0  0  0  0  0  0
  161.5110  207.9910  156.9300 O   0  0  0  0  0  0  0  0  0  0  0  0
  161.8500  207.8690  149.6830 C   0  0  0  0  0  0  0  0  0  0  0  0
  162.2150  208.4770  148.4780 C   0  0  0  0  0  3  0  0  0  0  0  0
  161.0480  205.8390  153.3860 C   0  0  0  0  0  3  0  0  0  0  0  0
  161.2590  207.9710  154.5660 C   0  0  0  0  0  0  0  0  0  0  0  0
  161.5020  208.6430  155.8540 C   0  0  0  0  0  0  0  0  0  0  0  0
  161.7730  204.3500  150.8870 C   0  0  0  0  0  2  0  0  0  0  0  0
  159.6350  201.4800  149.7360 F   0  0  0  0  0  0  0  0  0  0  0  0
  161.6390  203.8930  148.1090 O   0  0  0  0  0  0  0  0  0  0  0  0
  159.8730  203.2440  151.7730 O   0  0  0  0  0  0  0  0  0  0  0  0
  160.6410  203.3790  150.7850 C   0  0  0  0  0  0  0  0  0  0  0  0
  161.1120  202.7790  148.3700 C   0  0  0  0  0  0  0  0  0  0  0  0
  160.4580  202.5460  149.6280 N   0  0  0  0  0  0  0  0  0  0  0  0
  161.1820  201.6910  147.3540 C   0  0  0  0  0  2  0  0  0  0  0  0
  160.9140  202.2400  145.9950 C   0  0  0  0  0  0  0  0  0  0  0  0
  161.5690  203.2310  145.5770 O   0  0  0  0  0  0  0  0  0  0  0  0
  159.9470  201.6230  145.1550 N   0  0  0  0  0  1  0  0  0  0  0  0
  1 14  1  0  0  0  0
  2  5  1  6  0  0  0
  2 13  1  0  0  0  0
  2  3  1  0  0  0  0
  3  7  1  0  0  0  0
  3 19  2  0  0  0  0
  4 11  1  0  0  0  0
  6 17  1  0  0  0  0
  6  1  2  0  0  0  0
  7  4  1  0  0  0  0
  8 21  1  1  0  0  0
  8 13  1  0  0  0  0
  9  1  1  0  0  0  0
 10 19  1  0  0  0  0
 12  8  1  0  0  0  0
 13 18  1  1  0  0  0
 14  5  2  0  0  0  0
 16 12  1  0  0  0  0
 16  5  1  0  0  0  0
 17 16  2  0  0  0  0
 18 10  2  0  0  0  0
 19 20  1  0  0  0  0
 20 11  1  0  0  0  0
 20 15  2  0  0  0  0
 23 26  2  0  0  0  0
 25 21  1  0  0  0  0
 25 24  2  0  0  0  0
 26 27  1  0  0  0  0
 27 22  1  0  0  0  0
 27 25  1  0  0  0  0
 28 26  1  0  0  0  0
 29 28  1  0  0  0  0
 30 29  2  0  0  0  0
 31 29  1  0  0  0  0
M  END
>  <MODEL>
1

>  <REMARK>
 VINA RESULT:      -9.2      0.000      0.000
  Name = 
  4 active torsions:
  status: ('A' for Active; 'I' for Inactive)
    1  A    between atoms: C_1  and  C_24
    2  A    between atoms: C_9  and  C_23
    3  A    between atoms: C_15  and  C_23
    4  A    between atoms: C_19  and  C_24
                            x       y       z     vdW  Elec       q    Type
                         _______ _______ _______ _____ _____    ______ ____

>  <TORSDO>
F 4

$$$$
=
 OpenBabel11052422433D

 31 34  0  0  1  0  0  0  0  0999 V2000
  161.0000  203.5710  150.0340 C   0  0  0  0  0  0  0  0  0  0  0  0
  160.8650  207.1110  151.5060 C   0  0  1  0  0  3  0  0  0  0  0  0
  161.4110  207.9860  150.3820 C   0  0  0  0  0  0  0  0  0  0  0  0
  161.7430  208.2970  147.8860 C   0  0  0  0  0  2  0  0  0  0  0  0
  161.0150  205.6060  151.3700 C   0  0  0  0  0  0  0  0  0  0  0  0
  161.1310  202.8010  151.1900 C   0  0  0  0  0  3  0  0  0  0  0  0
  161.6770  207.4510  149.0750 N   0  0  0  0  0  2  0  0  0  0  0  0
  160.8110  206.7940  154.0020 C   0  0  2  0  0  3  0  0  0  0  0  0
  160.9330  202.9110  148.7040 C   0  0  0  0  0  1  0  0  0  0  0  0
  161.2810  209.8830  151.9370 C   0  0  0  0  0  3  0  0  0  0  0  0
  162.2880  209.6070  148.2220 N   0  0  0  0  0  2  0  0  0  0  0  0
  161.0940  205.4090  153.8050 O   0  0  0  0  0  0  0  0  0  0  0  0
  161.4110  207.6100  152.8580 C   0  0  2  0  0  3  0  0  0  0  0  0
  160.9280  204.9630  150.1250 C   0  0  0  0  0  3  0  0  0  0  0  0
  162.3140  211.3870  149.7180 O   0  0  0  0  0  0  0  0  0  0  0  0
  161.0900  204.8150  152.5380 C   0  0  0  0  0  0  0  0  0  0  0  0
  161.1710  203.4220  152.4410 C   0  0  0  0  0  3  0  0  0  0  0  0
  161.1600  209.0870  153.0010 C   0  0  0  0  0  3  0  0  0  0  0  0
  161.5600  209.3120  150.6000 C   0  0  0  0  0  0  0  0  0  0  0  0
  162.0560  210.1730  149.5120 C   0  0  0  0  0  0  0  0  0  0  0  0
  161.3720  207.2340  155.3490 C   0  0  0  0  0  2  0  0  0  0  0  0
  159.1400  209.5790  157.2610 F   0  0  0  0  0  0  0  0  0  0  0  0
  162.6160  209.4080  156.6410 O   0  0  0  0  0  0  0  0  0  0  0  0
  159.2740  207.0080  156.4300 O   0  0  0  0  0  0  0  0  0  0  0  0
  160.2730  207.7450  156.2230 C   0  0  0  0  0  0  0  0  0  0  0  0
  161.4680  209.9030  156.7980 C   0  0  0  0  0  0  0  0  0  0  0  0
  160.2940  209.0770  156.7660 N   0  0  0  0  0  0  0  0  0  0  0  0
  161.3380  211.3730  157.0140 C   0  0  0  0  0  2  0  0  0  0  0  0
  160.4550  211.9680  155.9710 C   0  0  0  0  0  0  0  0  0  0  0  0
  160.7750  211.8900  154.7560 O   0  0  0  0  0  0  0  0  0  0  0  0
  159.2310  212.5890  156.3450 N   0  0  0  0  0  1  0  0  0  0  0  0
  1 14  2  0  0  0  0
  1  6  1  0  0  0  0
  2  3  1  6  0  0  0
  2 13  1  0  0  0  0
  3 19  2  0  0  0  0
  4 11  1  0  0  0  0
  4  7  1  0  0  0  0
  5  2  1  0  0  0  0
  5 16  2  0  0  0  0
  6 17  2  0  0  0  0
  7  3  1  0  0  0  0
  8 21  1  1  0  0  0
  9  1  1  0  0  0  0
 10 18  2  0  0  0  0
 11 20  1  0  0  0  0
 12  8  1  0  0  0  0
 13 18  1  1  0  0  0
 13  8  1  0  0  0  0
 14  5  1  0  0  0  0
 16 12  1  0  0  0  0
 17 16  1  0  0  0  0
 19 10  1  0  0  0  0
 20 15  2  0  0  0  0
 20 19  1  0  0  0  0
 21 25  1  0  0  0  0
 23 26  2  0  0  0  0
 25 24  2  0  0  0  0
 25 27  1  0  0  0  0
 26 28  1  0  0  0  0
 27 26  1  0  0  0  0
 27 22  1  0  0  0  0
 29 31  1  0  0  0  0
 29 28  1  0  0  0  0
 30 29  2  0  0  0  0
M  END
>  <MODEL>
2

>  <REMARK>
 VINA RESULT:      -8.9      3.553      7.972
  Name = 
  4 active torsions:
  status: ('A' for Active; 'I' for Inactive)
    1  A    between atoms: C_1  and  C_24
    2  A    between atoms: C_9  and  C_23
    3  A    between atoms: C_15  and  C_23
    4  A    between atoms: C_19  and  C_24
                            x       y       z     vdW  Elec       q    Type
                         _______ _______ _______ _____ _____    ______ ____

>  <TORSDO>
F 4

$$$$
=
 OpenBabel11052422433D

 31 34  0  0  1  0  0  0  0  0999 V2000
  161.2290  205.1670  148.9030 C   0  0  0  0  0  0  0  0  0  0  0  0
  161.9100  208.2950  151.0170 C   0  0  1  0  0  3  0  0  0  0  0  0
  161.3620  207.9230  152.3910 C   0  0  0  0  0  0  0  0  0  0  0  0
  160.8280  206.0800  154.0510 C   0  0  0  0  0  2  0  0  0  0  0  0
  161.5760  207.3820  149.8490 C   0  0  0  0  0  0  0  0  0  0  0  0
  161.1230  205.7200  147.6260 C   0  0  0  0  0  3  0  0  0  0  0  0
  160.9110  206.5910  152.6840 N   0  0  0  0  0  2  0  0  0  0  0  0
  162.1680  210.1740  149.3630 C   0  0  2  0  0  3  0  0  0  0  0  0
  161.0900  203.6990  149.0920 C   0  0  0  0  0  1  0  0  0  0  0  0
  161.8580  210.2240  153.0950 C   0  0  0  0  0  3  0  0  0  0  0  0
  160.4720  207.1520  154.9740 N   0  0  0  0  0  2  0  0  0  0  0  0
  161.7110  209.2960  148.3340 O   0  0  0  0  0  0  0  0  0  0  0  0
  161.5580  209.7610  150.7010 C   0  0  2  0  0  3  0  0  0  0  0  0
  161.4680  205.9920  150.0050 C   0  0  0  0  0  3  0  0  0  0  0  0
  160.7940  209.3630  155.6210 O   0  0  0  0  0  0  0  0  0  0  0  0
  161.5240  207.9250  148.5460 C   0  0  0  0  0  0  0  0  0  0  0  0
  161.2750  207.0960  147.4480 C   0  0  0  0  0  3  0  0  0  0  0  0
  161.9890  210.6500  151.8370 C   0  0  0  0  0  3  0  0  0  0  0  0
  161.3870  208.8480  153.3760 C   0  0  0  0  0  0  0  0  0  0  0  0
  160.8910  208.4920  154.7170 C   0  0  0  0  0  0  0  0  0  0  0  0
  161.7940  211.6060  149.0020 C   0  0  0  0  0  2  0  0  0  0  0  0
  163.0300  213.4860  145.9900 F   0  0  0  0  0  0  0  0  0  0  0  0
  160.0230  211.8260  146.8210 O   0  0  0  0  0  0  0  0  0  0  0  0
  163.9380  212.0360  148.0850 O   0  0  0  0  0  0  0  0  0  0  0  0
  162.6920  212.1180  147.9230 C   0  0  0  0  0  0  0  0  0  0  0  0
  160.7960  212.7020  146.3490 C   0  0  0  0  0  0  0  0  0  0  0  0
  162.1740  212.7670  146.7490 N   0  0  0  0  0  0  0  0  0  0  0  0
  160.2590  213.6860  145.3660 C   0  0  0  0  0  2  0  0  0  0  0  0
  160.1210  213.0490  144.0260 C   0  0  0  0  0  0  0  0  0  0  0  0
  158.9950  212.9940  143.4680 O   0  0  0  0  0  0  0  0  0  0  0  0
  161.2690  212.5380  143.3600 N   0  0  0  0  0  1  0  0  0  0  0  0
  1  9  1  0  0  0  0
  1 14  1  0  0  0  0
  2  5  1  6  0  0  0
  2  3  1  0  0  0  0
  3  7  1  0  0  0  0
  3 19  2  0  0  0  0
  4 11  1  0  0  0  0
  5 14  2  0  0  0  0
  6  1  2  0  0  0  0
  7  4  1  0  0  0  0
  8 21  1  6  0  0  0
  8 13  1  0  0  0  0
 10 19  1  0  0  0  0
 12 16  1  0  0  0  0
 12  8  1  0  0  0  0
 13  2  1  0  0  0  0
 13 18  1  1  0  0  0
 16  5  1  0  0  0  0
 17  6  1  0  0  0  0
 17 16  2  0  0  0  0
 18 10  2  0  0  0  0
 19 20  1  0  0  0  0
 20 11  1  0  0  0  0
 20 15  2  0  0  0  0
 22 27  1  0  0  0  0
 25 24  2  0  0  0  0
 25 21  1  0  0  0  0
 26 27  1  0  0  0  0
 26 23  2  0  0  0  0
 27 25  1  0  0  0  0
 28 26  1  0  0  0  0
 29 28  1  0  0  0  0
 30 29  2  0  0  0  0
 31 29  1  0  0  0  0
M  END
>  <MODEL>
3

>  <REMARK>
 VINA RESULT:      -8.7      4.515      6.962
  Name = 
  4 active torsions:
  status: ('A' for Active; 'I' for Inactive)
    1  A    between atoms: C_1  and  C_24
    2  A    between atoms: C_9  and  C_23
    3  A    between atoms: C_15  and  C_23
    4  A    between atoms: C_19  and  C_24
                            x       y       z     vdW  Elec       q    Type
                         _______ _______ _______ _____ _____    ______ ____

>  <TORSDO>
F 4

$$$$
=
 OpenBabel11052422433D

 31 34  0  0  1  0  0  0  0  0999 V2000
  161.0030  207.8590  155.4300 C   0  0  0  0  0  0  0  0  0  0  0  0
  160.8220  207.6500  151.6040 C   0  0  1  0  0  3  0  0  0  0  0  0
  161.0680  206.1720  151.3150 C   0  0  0  0  0  0  0  0  0  0  0  0
  160.9040  203.7780  152.1380 C   0  0  0  0  0  2  0  0  0  0  0  0
  161.0800  208.1500  153.0150 C   0  0  0  0  0  0  0  0  0  0  0  0
  161.4150  209.1800  155.6110 C   0  0  0  0  0  3  0  0  0  0  0  0
  161.1360  205.2020  152.3720 N   0  0  0  0  0  2  0  0  0  0  0  0
  161.2590  209.9900  150.7870 C   0  0  2  0  0  3  0  0  0  0  0  0
  160.7520  206.9900  156.6100 C   0  0  0  0  0  1  0  0  0  0  0  0
  161.0570  206.7460  148.9270 C   0  0  0  0  0  3  0  0  0  0  0  0
  161.3800  203.3950  150.8140 N   0  0  0  0  0  2  0  0  0  0  0  0
  161.6250  210.3570  152.1170 O   0  0  0  0  0  0  0  0  0  0  0  0
  161.5610  208.5100  150.5600 C   0  0  2  0  0  3  0  0  0  0  0  0
  160.8240  207.3520  154.1410 C   0  0  0  0  0  3  0  0  0  0  0  0
  161.5210  203.9350  148.5560 O   0  0  0  0  0  0  0  0  0  0  0  0
  161.4410  209.5020  153.2100 C   0  0  0  0  0  0  0  0  0  0  0  0
  161.6290  210.0010  154.5020 C   0  0  0  0  0  3  0  0  0  0  0  0
  161.2080  208.0490  149.1710 C   0  0  0  0  0  3  0  0  0  0  0  0
  161.1350  205.7610  150.0300 C   0  0  0  0  0  0  0  0  0  0  0  0
  161.3410  204.3320  149.7370 C   0  0  0  0  0  0  0  0  0  0  0  0
  162.0170  210.8670  149.7980 C   0  0  0  0  0  2  0  0  0  0  0  0
  160.7710  214.1520  148.4600 F   0  0  0  0  0  0  0  0  0  0  0  0
  163.6260  212.1540  147.8750 O   0  0  0  0  0  0  0  0  0  0  0  0
  160.6140  212.5760  150.6530 O   0  0  0  0  0  0  0  0  0  0  0  0
  161.3960  212.2250  149.7310 C   0  0  0  0  0  0  0  0  0  0  0  0
  162.6470  212.9110  147.6390 C   0  0  0  0  0  0  0  0  0  0  0  0
  161.6070  213.1010  148.6110 N   0  0  0  0  0  0  0  0  0  0  0  0
  162.5750  213.6110  146.3250 C   0  0  0  0  0  2  0  0  0  0  0  0
  161.6150  212.9130  145.4250 C   0  0  0  0  0  0  0  0  0  0  0  0
  160.5730  212.3890  145.9000 O   0  0  0  0  0  0  0  0  0  0  0  0
  161.8530  212.8730  144.0230 N   0  0  0  0  0  1  0  0  0  0  0  0
  1  6  1  0  0  0  0
  1  9  1  0  0  0  0
  2  3  1  1  0  0  0
  2  5  1  0  0  0  0
  3  7  1  0  0  0  0
  4  7  1  0  0  0  0
  5 16  2  0  0  0  0
  5 14  1  0  0  0  0
  8 21  1  6  0  0  0
  8 12  1  0  0  0  0
 10 18  2  0  0  0  0
 10 19  1  0  0  0  0
 11  4  1  0  0  0  0
 12 16  1  0  0  0  0
 13 18  1  6  0  0  0
 13  8  1  0  0  0  0
 13  2  1  0  0  0  0
 14  1  2  0  0  0  0
 15 20  2  0  0  0  0
 16 17  1  0  0  0  0
 17  6  2  0  0  0  0
 19  3  2  0  0  0  0
 20 19  1  0  0  0  0
 20 11  1  0  0  0  0
 22 27  1  0  0  0  0
 25 21  1  0  0  0  0
 25 24  2  0  0  0  0
 26 23  2  0  0  0  0
 26 27  1  0  0  0  0
 27 25  1  0  0  0  0
 28 26  1  0  0  0  0
 29 30  2  0  0  0  0
 29 28  1  0  0  0  0
 31 29  1  0  0  0  0
M  END
>  <MODEL>
4

>  <REMARK>
 VINA RESULT:      -8.1      4.061      7.687
  Name = 
  4 active torsions:
  status: ('A' for Active; 'I' for Inactive)
    1  A    between atoms: C_1  and  C_24
    2  A    between atoms: C_9  and  C_23
    3  A    between atoms: C_15  and  C_23
    4  A    between atoms: C_19  and  C_24
                            x       y       z     vdW  Elec       q    Type
                         _______ _______ _______ _____ _____    ______ ____

>  <TORSDO>
F 4

$$$$
=
 OpenBabel11052422433D

 31 34  0  0  1  0  0  0  0  0999 V2000
  161.1180  212.6830  150.0030 C   0  0  0  0  0  0  0  0  0  0  0  0
  160.8000  209.3630  151.8980 C   0  0  1  0  0  3  0  0  0  0  0  0
  160.8750  209.7800  153.3630 C   0  0  0  0  0  0  0  0  0  0  0  0
  160.4760  211.5940  155.0920 C   0  0  0  0  0  2  0  0  0  0  0  0
  161.1540  210.4010  150.8460 C   0  0  0  0  0  0  0  0  0  0  0  0
  161.6770  212.2560  148.7970 C   0  0  0  0  0  3  0  0  0  0  0  0
  160.8690  211.1630  153.7520 N   0  0  0  0  0  2  0  0  0  0  0  0
  161.4640  207.5850  150.2450 C   0  0  2  0  0  3  0  0  0  0  0  0
  160.8110  214.1220  150.2110 C   0  0  0  0  0  1  0  0  0  0  0  0
  160.8530  207.3910  153.9340 C   0  0  0  0  0  3  0  0  0  0  0  0
  160.8680  210.5970  156.0820 N   0  0  0  0  0  2  0  0  0  0  0  0
  161.9080  208.6130  149.3580 O   0  0  0  0  0  0  0  0  0  0  0  0
  161.5960  208.0600  151.6900 C   0  0  2  0  0  3  0  0  0  0  0  0
  160.8460  211.7590  151.0140 C   0  0  0  0  0  3  0  0  0  0  0  0
  160.9980  208.3430  156.6410 O   0  0  0  0  0  0  0  0  0  0  0  0
  161.6660  209.9700  149.6020 C   0  0  0  0  0  0  0  0  0  0  0  0
  161.9450  210.9000  148.5960 C   0  0  0  0  0  3  0  0  0  0  0  0
  161.1530  207.0220  152.6870 C   0  0  0  0  0  3  0  0  0  0  0  0
  160.8570  208.8220  154.3160 C   0  0  0  0  0  0  0  0  0  0  0  0
  160.8970  209.2120  155.7360 C   0  0  0  0  0  0  0  0  0  0  0  0
  162.2820  206.3240  149.9990 C   0  0  0  0  0  2  0  0  0  0  0  0
  160.8860  203.4090  148.0800 F   0  0  0  0  0  0  0  0  0  0  0  0
  162.4740  206.4370  147.1900 O   0  0  0  0  0  0  0  0  0  0  0  0
  160.5860  204.7240  150.4250 O   0  0  0  0  0  0  0  0  0  0  0  0
  161.3880  205.2010  149.5810 C   0  0  0  0  0  0  0  0  0  0  0  0
  162.1690  205.2150  147.1720 C   0  0  0  0  0  0  0  0  0  0  0  0
  161.4770  204.6080  148.2740 N   0  0  0  0  0  0  0  0  0  0  0  0
  162.5450  204.3930  145.9860 C   0  0  0  0  0  2  0  0  0  0  0  0
  161.4270  204.3750  145.0010 C   0  0  0  0  0  0  0  0  0  0  0  0
  160.6410  203.3930  144.9590 O   0  0  0  0  0  0  0  0  0  0  0  0
  161.2240  205.4840  144.1340 N   0  0  0  0  0  1  0  0  0  0  0  0
  1  9  1  0  0  0  0
  1 14  1  0  0  0  0
  2  5  1  6  0  0  0
  2  3  1  0  0  0  0
  3  7  1  0  0  0  0
  3 19  2  0  0  0  0
  4 11  1  0  0  0  0
  5 14  2  0  0  0  0
  6  1  2  0  0  0  0
  7  4  1  0  0  0  0
  8 21  1  1  0  0  0
  8 13  1  0  0  0  0
 10 19  1  0  0  0  0
 12 16  1  0  0  0  0
 12  8  1  0  0  0  0
 13  2  1  0  0  0  0
 13 18  1  1  0  0  0
 16  5  1  0  0  0  0
 17  6  1  0  0  0  0
 17 16  2  0  0  0  0
 18 10  2  0  0  0  0
 19 20  1  0  0  0  0
 20 11  1  0  0  0  0
 20 15  2  0  0  0  0
 22 27  1  0  0  0  0
 25 21  1  0  0  0  0
 25 24  2  0  0  0  0
 26 23  2  0  0  0  0
 26 27  1  0  0  0  0
 27 25  1  0  0  0  0
 28 26  1  0  0  0  0
 29 28  1  0  0  0  0
 30 29  2  0  0  0  0
 31 29  1  0  0  0  0
M  END
>  <MODEL>
5

>  <REMARK>
 VINA RESULT:      -8.0      1.837      2.131
  Name = 
  4 active torsions:
  status: ('A' for Active; 'I' for Inactive)
    1  A    between atoms: C_1  and  C_24
    2  A    between atoms: C_9  and  C_23
    3  A    between atoms: C_15  and  C_23
    4  A    between atoms: C_19  and  C_24
                            x       y       z     vdW  Elec       q    Type
                         _______ _______ _______ _____ _____    ______ ____

>  <TORSDO>
F 4

$$$$
=
 OpenBabel11052422433D

 31 34  0  0  1  0  0  0  0  0999 V2000
  161.0850  208.3590  154.0900 C   0  0  0  0  0  0  0  0  0  0  0  0
  160.9520  207.5690  150.3390 C   0  0  1  0  0  3  0  0  0  0  0  0
  161.0880  206.0510  150.2880 C   0  0  0  0  0  0  0  0  0  0  0  0
  160.7270  203.8340  151.4660 C   0  0  0  0  0  2  0  0  0  0  0  0
  161.2240  208.2630  151.6630 C   0  0  0  0  0  0  0  0  0  0  0  0
  161.5940  209.6580  154.0760 C   0  0  0  0  0  3  0  0  0  0  0  0
  161.0640  205.2550  151.4840 N   0  0  0  0  0  2  0  0  0  0  0  0
  161.5810  209.7150  149.1820 C   0  0  2  0  0  3  0  0  0  0  0  0
  160.7490  207.7060  155.3820 C   0  0  0  0  0  1  0  0  0  0  0  0
  161.1600  206.2440  147.8410 C   0  0  0  0  0  3  0  0  0  0  0  0
  161.1940  203.2150  150.2310 N   0  0  0  0  0  2  0  0  0  0  0  0
  161.9520  210.2580  150.4500 O   0  0  0  0  0  0  0  0  0  0  0  0
  161.7710  208.2000  149.1960 C   0  0  2  0  0  3  0  0  0  0  0  0
  160.8890  207.6720  152.8900 C   0  0  0  0  0  3  0  0  0  0  0  0
  161.4130  203.3830  147.9210 O   0  0  0  0  0  0  0  0  0  0  0  0
  161.6850  209.5990  151.6560 C   0  0  0  0  0  0  0  0  0  0  0  0
  161.8890  210.2790  152.8600 C   0  0  0  0  0  3  0  0  0  0  0  0
  161.4070  207.5550  147.8850 C   0  0  0  0  0  3  0  0  0  0  0  0
  161.1440  205.4400  149.0840 C   0  0  0  0  0  0  0  0  0  0  0  0
  161.2440  203.9720  149.0210 C   0  0  0  0  0  0  0  0  0  0  0  0
  162.4200  210.3690  148.0920 C   0  0  0  0  0  2  0  0  0  0  0  0
  161.5670  213.9770  148.7150 F   0  0  0  0  0  0  0  0  0  0  0  0
  160.2860  211.4500  146.6020 O   0  0  0  0  0  0  0  0  0  0  0  0
  163.6470  212.2520  148.8450 O   0  0  0  0  0  0  0  0  0  0  0  0
  162.5640  211.8320  148.3600 C   0  0  0  0  0  0  0  0  0  0  0  0
  160.3030  212.4340  147.3890 C   0  0  0  0  0  0  0  0  0  0  0  0
  161.4790  212.7520  148.1510 N   0  0  0  0  0  0  0  0  0  0  0  0
  159.0760  213.2690  147.5300 C   0  0  0  0  0  2  0  0  0  0  0  0
  158.1510  213.0170  146.3900 C   0  0  0  0  0  0  0  0  0  0  0  0
  157.1990  212.2040  146.5190 O   0  0  0  0  0  0  0  0  0  0  0  0
  158.3200  213.7240  145.1670 N   0  0  0  0  0  1  0  0  0  0  0  0
  1  9  1  0  0  0  0
  2  3  1  1  0  0  0
  2  5  1  0  0  0  0
  3  7  1  0  0  0  0
  4  7  1  0  0  0  0
  5 14  1  0  0  0  0
  6  1  1  0  0  0  0
  8 21  1  6  0  0  0
  8 13  1  0  0  0  0
  8 12  1  0  0  0  0
 10 18  2  0  0  0  0
 10 19  1  0  0  0  0
 11  4  1  0  0  0  0
 12 16  1  0  0  0  0
 13 18  1  6  0  0  0
 13  2  1  0  0  0  0
 14  1  2  0  0  0  0
 15 20  2  0  0  0  0
 16  5  2  0  0  0  0
 16 17  1  0  0  0  0
 17  6  2  0  0  0  0
 19  3  2  0  0  0  0
 20 19  1  0  0  0  0
 20 11  1  0  0  0  0
 21 25  1  0  0  0  0
 23 26  2  0  0  0  0
 25 24  2  0  0  0  0
 26 28  1  0  0  0  0
 26 27  1  0  0  0  0
 27 25  1  0  0  0  0
 27 22  1  0  0  0  0
 29 30  2  0  0  0  0
 29 28  1  0  0  0  0
 31 29  1  0  0  0  0
M  END
>  <MODEL>
6

>  <REMARK>
 VINA RESULT:      -7.9      4.123      7.709
  Name = 
  4 active torsions:
  status: ('A' for Active; 'I' for Inactive)
    1  A    between atoms: C_1  and  C_24
    2  A    between atoms: C_9  and  C_23
    3  A    between atoms: C_15  and  C_23
    4  A    between atoms: C_19  and  C_24
                            x       y       z     vdW  Elec       q    Type
                         _______ _______ _______ _____ _____    ______ ____

>  <TORSDO>
F 4

$$$$
=
 OpenBabel11052422433D

 31 34  0  0  1  0  0  0  0  0999 V2000
  160.8270  203.9700  152.2640 C   0  0  0  0  0  0  0  0  0  0  0  0
  160.9550  205.8880  148.9450 C   0  0  1  0  0  3  0  0  0  0  0  0
  161.2080  204.7950  147.9110 C   0  0  0  0  0  0  0  0  0  0  0  0
  160.9520  202.3520  147.2780 C   0  0  0  0  0  2  0  0  0  0  0  0
  161.1030  205.5240  150.4120 C   0  0  0  0  0  0  0  0  0  0  0  0
  161.2370  204.9550  153.1630 C   0  0  0  0  0  3  0  0  0  0  0  0
  161.1800  203.4040  148.2670 N   0  0  0  0  0  2  0  0  0  0  0  0
  161.4820  208.2680  149.5690 C   0  0  2  0  0  3  0  0  0  0  0  0
  160.4720  202.6140  152.7580 C   0  0  0  0  0  1  0  0  0  0  0  0
  161.3970  206.5760  146.2300 C   0  0  0  0  0  3  0  0  0  0  0  0
  161.5300  202.7270  145.9930 N   0  0  0  0  0  2  0  0  0  0  0  0
  161.7430  207.8320  150.9040 O   0  0  0  0  0  0  0  0  0  0  0  0
  161.7850  207.1370  148.5890 C   0  0  2  0  0  3  0  0  0  0  0  0
  160.7480  204.2580  150.9000 C   0  0  0  0  0  3  0  0  0  0  0  0
  161.8590  204.4000  144.4120 O   0  0  0  0  0  0  0  0  0  0  0  0
  161.4620  206.5310  151.3360 C   0  0  0  0  0  0  0  0  0  0  0  0
  161.5490  206.2360  152.7000 C   0  0  0  0  0  3  0  0  0  0  0  0
  161.5420  207.5260  147.1560 C   0  0  0  0  0  3  0  0  0  0  0  0
  161.3750  205.1470  146.6160 C   0  0  0  0  0  0  0  0  0  0  0  0
  161.5880  204.0990  145.6030 C   0  0  0  0  0  0  0  0  0  0  0  0
  162.3270  209.5000  149.2710 C   0  0  0  0  0  2  0  0  0  0  0  0
  160.8180  212.8980  149.8290 F   0  0  0  0  0  0  0  0  0  0  0  0
  163.3070  211.6080  147.6760 O   0  0  0  0  0  0  0  0  0  0  0  0
  161.2970  210.5690  151.1190 O   0  0  0  0  0  0  0  0  0  0  0  0
  161.7510  210.6990  149.9520 C   0  0  0  0  0  0  0  0  0  0  0  0
  162.3220  212.2910  148.0670 C   0  0  0  0  0  0  0  0  0  0  0  0
  161.6330  211.9670  149.2850 N   0  0  0  0  0  0  0  0  0  0  0  0
  161.8710  213.4470  147.2410 C   0  0  0  0  0  2  0  0  0  0  0  0
  161.0570  212.9670  146.0890 C   0  0  0  0  0  0  0  0  0  0  0  0
  161.4890  213.0980  144.9140 O   0  0  0  0  0  0  0  0  0  0  0  0
  159.8090  212.3240  146.3190 N   0  0  0  0  0  1  0  0  0  0  0  0
  1  9  1  0  0  0  0
  1  6  1  0  0  0  0
  2  3  1  6  0  0  0
  2  5  1  0  0  0  0
  3  7  1  0  0  0  0
  4  7  1  0  0  0  0
  5 14  1  0  0  0  0
  5 16  2  0  0  0  0
  8 21  1  6  0  0  0
  8 12  1  0  0  0  0
 10 19  1  0  0  0  0
 10 18  2  0  0  0  0
 11  4  1  0  0  0  0
 12 16  1  0  0  0  0
 13 18  1  6  0  0  0
 13  2  1  0  0  0  0
 13  8  1  0  0  0  0
 14  1  2  0  0  0  0
 15 20  2  0  0  0  0
 16 17  1  0  0  0  0
 17  6  2  0  0  0  0
 19  3  2  0  0  0  0
 20 11  1  0  0  0  0
 20 19  1  0  0  0  0
 21 25  1  0  0  0  0
 23 26  2  0  0  0  0
 25 24  2  0  0  0  0
 26 27  1  0  0  0  0
 27 22  1  0  0  0  0
 27 25  1  0  0  0  0
 28 26  1  0  0  0  0
 29 31  1  0  0  0  0
 29 28  1  0  0  0  0
 30 29  2  0  0  0  0
M  END
>  <MODEL>
7

>  <REMARK>
 VINA RESULT:      -7.9      3.649      8.378
  Name = 
  4 active torsions:
  status: ('A' for Active; 'I' for Inactive)
    1  A    between atoms: C_1  and  C_24
    2  A    between atoms: C_9  and  C_23
    3  A    between atoms: C_15  and  C_23
    4  A    between atoms: C_19  and  C_24
                            x       y       z     vdW  Elec       q    Type
                         _______ _______ _______ _____ _____    ______ ____

>  <TORSDO>
F 4

$$$$
=
 OpenBabel11052422433D

 31 34  0  0  1  0  0  0  0  0999 V2000
  161.8260  210.2250  149.9930 C   0  0  0  0  0  0  0  0  0  0  0  0
  161.7290  206.7470  151.6100 C   0  0  1  0  0  3  0  0  0  0  0  0
  161.3630  205.8250  150.4520 C   0  0  0  0  0  0  0  0  0  0  0  0
  161.4200  205.4130  147.9490 C   0  0  0  0  0  2  0  0  0  0  0  0
  161.6030  208.2460  151.3920 C   0  0  0  0  0  0  0  0  0  0  0  0
  161.5180  211.0400  151.0840 C   0  0  0  0  0  3  0  0  0  0  0  0
  161.3020  206.3070  149.0990 N   0  0  0  0  0  2  0  0  0  0  0  0
  161.3980  207.1640  154.0700 C   0  0  2  0  0  3  0  0  0  0  0  0
  162.0970  210.8320  148.6640 C   0  0  0  0  0  1  0  0  0  0  0  0
  161.2500  203.9930  152.0840 C   0  0  0  0  0  3  0  0  0  0  0  0
  160.8290  204.1150  148.2500 N   0  0  0  0  0  2  0  0  0  0  0  0
  161.1500  208.5400  153.7760 O   0  0  0  0  0  0  0  0  0  0  0  0
  160.9810  206.3010  152.8810 C   0  0  2  0  0  3  0  0  0  0  0  0
  161.8810  208.8380  150.1510 C   0  0  0  0  0  3  0  0  0  0  0  0
  160.5710  202.3950  149.7950 O   0  0  0  0  0  0  0  0  0  0  0  0
  161.3490  209.0820  152.5020 C   0  0  0  0  0  0  0  0  0  0  0  0
  161.2860  210.4690  152.3370 C   0  0  0  0  0  3  0  0  0  0  0  0
  161.2060  204.8320  153.1210 C   0  0  0  0  0  3  0  0  0  0  0  0
  161.1810  204.5090  150.6970 C   0  0  0  0  0  0  0  0  0  0  0  0
  160.8590  203.6020  149.5820 C   0  0  0  0  0  0  0  0  0  0  0  0
  160.6360  206.7760  155.3310 C   0  0  0  0  0  2  0  0  0  0  0  0
  159.2210  210.1150  156.3210 F   0  0  0  0  0  0  0  0  0  0  0  0
  162.0890  208.2630  157.2340 O   0  0  0  0  0  0  0  0  0  0  0  0
  158.4520  207.6960  155.3840 O   0  0  0  0  0  0  0  0  0  0  0  0
  159.6620  207.8490  155.6970 C   0  0  0  0  0  0  0  0  0  0  0  0
  161.3700  209.2530  156.9320 C   0  0  0  0  0  0  0  0  0  0  0  0
  160.0820  209.0740  156.3210 N   0  0  0  0  0  0  0  0  0  0  0  0
  161.8770  210.6270  157.2110 C   0  0  0  0  0  2  0  0  0  0  0  0
  163.2010  210.8270  156.5590 C   0  0  0  0  0  0  0  0  0  0  0  0
  164.2180  211.0660  157.2610 O   0  0  0  0  0  0  0  0  0  0  0  0
  163.3250  210.7090  155.1470 N   0  0  0  0  0  1  0  0  0  0  0  0
  1 14  2  0  0  0  0
  1  6  1  0  0  0  0
  2  3  1  6  0  0  0
  2 13  1  0  0  0  0
  3 19  2  0  0  0  0
  4 11  1  0  0  0  0
  4  7  1  0  0  0  0
  5  2  1  0  0  0  0
  5 16  2  0  0  0  0
  6 17  2  0  0  0  0
  7  3  1  0  0  0  0
  8 21  1  1  0  0  0
  9  1  1  0  0  0  0
 10 18  2  0  0  0  0
 11 20  1  0  0  0  0
 12  8  1  0  0  0  0
 13 18  1  1  0  0  0
 13  8  1  0  0  0  0
 14  5  1  0  0  0  0
 16 12  1  0  0  0  0
 17 16  1  0  0  0  0
 19 10  1  0  0  0  0
 20 15  2  0  0  0  0
 20 19  1  0  0  0  0
 21 25  1  0  0  0  0
 22 27  1  0  0  0  0
 24 25  2  0  0  0  0
 25 27  1  0  0  0  0
 26 28  1  0  0  0  0
 26 23  2  0  0  0  0
 27 26  1  0  0  0  0
 29 28  1  0  0  0  0
 29 30  2  0  0  0  0
 31 29  1  0  0  0  0
M  END
>  <MODEL>
8

>  <REMARK>
 VINA RESULT:      -7.9      2.816      7.589
  Name = 
  4 active torsions:
  status: ('A' for Active; 'I' for Inactive)
    1  A    between atoms: C_1  and  C_24
    2  A    between atoms: C_9  and  C_23
    3  A    between atoms: C_15  and  C_23
    4  A    between atoms: C_19  and  C_24
                            x       y       z     vdW  Elec       q    Type
                         _______ _______ _______ _____ _____    ______ ____

>  <TORSDO>
F 4

$$$$
=
 OpenBabel11052422433D

 31 34  0  0  1  0  0  0  0  0999 V2000
  160.5080  201.9970  150.8030 C   0  0  0  0  0  0  0  0  0  0  0  0
  161.0570  205.2980  148.9270 C   0  0  1  0  0  3  0  0  0  0  0  0
  161.4170  204.8500  147.5150 C   0  0  0  0  0  0  0  0  0  0  0  0
  161.2060  203.0710  145.7180 C   0  0  0  0  0  2  0  0  0  0  0  0
  161.0240  204.2420  150.0200 C   0  0  0  0  0  0  0  0  0  0  0  0
  160.8210  202.3720  152.1100 C   0  0  0  0  0  3  0  0  0  0  0  0
  161.3280  203.4720  147.1180 N   0  0  0  0  0  2  0  0  0  0  0  0
  161.5370  207.0070  150.7120 C   0  0  2  0  0  3  0  0  0  0  0  0
  160.0790  200.6040  150.5110 C   0  0  0  0  0  1  0  0  0  0  0  0
  161.8290  207.2130  146.9840 C   0  0  0  0  0  3  0  0  0  0  0  0
  161.9390  203.9940  144.8580 N   0  0  0  0  0  2  0  0  0  0  0  0
  161.6310  205.9470  151.6640 O   0  0  0  0  0  0  0  0  0  0  0  0
  161.9400  206.4950  149.3300 C   0  0  2  0  0  3  0  0  0  0  0  0
  160.5960  202.9310  149.7680 C   0  0  0  0  0  3  0  0  0  0  0  0
  162.4760  206.2040  144.3730 O   0  0  0  0  0  0  0  0  0  0  0  0
  161.2830  204.6270  151.3540 C   0  0  0  0  0  0  0  0  0  0  0  0
  161.2030  203.6870  152.3860 C   0  0  0  0  0  3  0  0  0  0  0  0
  161.8740  207.5620  148.2710 C   0  0  0  0  0  3  0  0  0  0  0  0
  161.7420  205.7860  146.5950 C   0  0  0  0  0  0  0  0  0  0  0  0
  162.0610  205.3700  145.2190 C   0  0  0  0  0  0  0  0  0  0  0  0
  162.4280  208.1600  151.1560 C   0  0  0  0  0  2  0  0  0  0  0  0
  160.6820  211.2710  152.3430 F   0  0  0  0  0  0  0  0  0  0  0  0
  160.9390  207.9560  153.5410 O   0  0  0  0  0  0  0  0  0  0  0  0
  161.5810  210.0950  150.0790 O   0  0  0  0  0  0  0  0  0  0  0  0
  161.6560  209.4400  151.1510 C   0  0  0  0  0  0  0  0  0  0  0  0
  160.8860  209.2150  153.5530 C   0  0  0  0  0  0  0  0  0  0  0  0
  161.0690  209.9760  152.3490 N   0  0  0  0  0  0  0  0  0  0  0  0
  160.6350  209.9150  154.8460 C   0  0  0  0  0  2  0  0  0  0  0  0
  161.8330  209.8100  155.7260 C   0  0  0  0  0  0  0  0  0  0  0  0
  162.7200  210.7030  155.6900 O   0  0  0  0  0  0  0  0  0  0  0  0
  161.9570  208.7230  156.6340 N   0  0  0  0  0  1  0  0  0  0  0  0
  1  6  1  0  0  0  0
  2  3  1  6  0  0  0
  2 13  1  0  0  0  0
  2  5  1  0  0  0  0
  4  7  1  0  0  0  0
  5 16  2  0  0  0  0
  6 17  2  0  0  0  0
  7  3  1  0  0  0  0
  8 21  1  1  0  0  0
  8 12  1  0  0  0  0
  9  1  1  0  0  0  0
 10 18  2  0  0  0  0
 11 20  1  0  0  0  0
 11  4  1  0  0  0  0
 13 18  1  6  0  0  0
 13  8  1  0  0  0  0
 14  5  1  0  0  0  0
 14  1  2  0  0  0  0
 15 20  2  0  0  0  0
 16 12  1  0  0  0  0
 16 17  1  0  0  0  0
 19 10  1  0  0  0  0
 19  3  2  0  0  0  0
 20 19  1  0  0  0  0
 22 27  1  0  0  0  0
 23 26  2  0  0  0  0
 24 25  2  0  0  0  0
 25 21  1  0  0  0  0
 25 27  1  0  0  0  0
 26 28  1  0  0  0  0
 27 26  1  0  0  0  0
 28 29  1  0  0  0  0
 29 31  1  0  0  0  0
 30 29  2  0  0  0  0
M  END
>  <MODEL>
9

>  <REMARK>
 VINA RESULT:      -7.7      2.792      8.670
  Name = 
  4 active torsions:
  status: ('A' for Active; 'I' for Inactive)
    1  A    between atoms: C_1  and  C_24
    2  A    between atoms: C_9  and  C_23
    3  A    between atoms: C_15  and  C_23
    4  A    between atoms: C_19  and  C_24
                            x       y       z     vdW  Elec       q    Type
                         _______ _______ _______ _____ _____    ______ ____

>  <TORSDO>
F 4

$$$$
