=
 OpenBabel11052421493D

 30 32  0  0  1  0  0  0  0  0999 V2000
  159.1350  211.7130  153.4880 C   0  0  1  0  0  3  0  0  0  0  0  0
  160.9210  210.6990  155.0720 C   0  0  2  0  0  3  0  0  0  0  0  0
  159.1910  210.7140  152.4850 O   0  0  0  0  0  0  0  0  0  0  0  0
  160.7790  206.9420  153.9070 C   0  0  0  0  0  2  0  0  0  0  0  0
  159.5660  207.1570  155.7580 C   0  0  0  0  0  2  0  0  0  0  0  0
  161.2440  208.4100  153.7980 C   0  0  2  0  0  3  0  0  0  0  0  0
  161.5250  210.1780  152.1590 C   0  0  0  0  0  2  0  0  0  0  0  0
  160.3030  210.9330  151.6470 C   0  0  0  0  0  2  0  0  0  0  0  0
  160.3360  209.3130  154.7070 C   0  0  1  0  0  3  0  0  0  0  0  0
  160.7020  206.5230  155.2410 O   0  0  0  0  0  0  0  0  0  0  0  0
  161.1920  208.7790  152.3670 N   0  0  0  0  0  0  0  0  0  0  0  0
  162.2370  208.0400  151.6720 C   0  0  0  0  0  1  0  0  0  0  0  0
  160.4330  211.9400  154.2970 C   0  0  2  0  0  3  0  0  0  0  0  0
  160.8860  208.6980  156.9950 O   0  0  0  0  0  1  0  0  0  0  0  0
  159.8920  208.6200  156.0140 C   0  0  2  0  0  3  0  0  0  0  0  0
  158.2430  213.1800  151.5400 C   0  0  1  0  0  3  0  0  0  0  0  0
  157.2280  214.2370  151.2020 C   0  0  0  0  0  3  0  0  0  0  0  0
  159.8010  213.6270  150.8010 Cl  0  0  0  0  0  0  0  0  0  0  0  0
  157.0250  212.9860  153.7380 C   0  0  0  0  0  3  0  0  0  0  0  0
  154.7170  213.7490  153.9730 C   0  0  0  0  0  1  0  0  0  0  0  0
  158.3720  212.9830  153.0670 C   0  0  1  0  0  3  0  0  0  0  0  0
  156.1700  214.4510  151.9870 C   0  0  0  0  0  3  0  0  0  0  0  0
  156.0130  213.7080  153.2490 C   0  0  0  0  0  0  0  0  0  0  0  0
  162.4390  211.7360  157.2570 O   0  0  0  0  0  0  0  0  0  0  0  0
  163.0710  211.2380  156.2890 C   0  0  0  0  0  0  0  0  0  0  0  0
  164.4940  211.2280  156.3070 N   0  0  0  0  0  1  0  0  0  0  0  0
  162.3760  210.6750  155.1770 N   0  0  0  0  0  2  0  0  0  0  0  0
  160.2530  212.9890  155.2050 O   0  0  0  0  0  0  0  0  0  0  0  0
  158.5760  213.7580  157.0790 S   0  0  0  0  0  1  0  0  0  0  0  0
  159.5170  212.4450  156.2580 C   0  0  0  0  0  2  0  0  0  0  0  0
  1  3  1  6  0  0  0
  1 13  1  0  0  0  0
  2 27  1  6  0  0  0
  4 10  1  0  0  0  0
  5 15  1  0  0  0  0
  6  4  1  6  0  0  0
  6  9  1  0  0  0  0
  7 11  1  0  0  0  0
  8  7  1  0  0  0  0
  8  3  1  0  0  0  0
  9  2  1  0  0  0  0
  9 15  1  0  0  0  0
 10  5  1  0  0  0  0
 11  6  1  0  0  0  0
 12 11  1  0  0  0  0
 13  2  1  0  0  0  0
 13 28  1  0  0  0  0
 15 14  1  0  0  0  0
 16 21  1  0  0  0  0
 17 16  1  0  0  0  0
 17 22  2  0  0  0  0
 18 16  1  0  0  0  0
 21  1  1  0  0  0  0
 21 19  1  0  0  0  0
 22 23  1  0  0  0  0
 23 19  2  0  0  0  0
 23 20  1  0  0  0  0
 25 26  1  0  0  0  0
 25 24  2  0  0  0  0
 27 25  1  0  0  0  0
 28 30  1  0  0  0  0
 30 29  1  0  0  0  0
M  END
>  <MODEL>
1

>  <REMARK>
 VINA RESULT:      -4.0      0.000      0.000
  Name = 
  4 active torsions:
  status: ('A' for Active; 'I' for Inactive)
    1  A    between atoms: C_1  and  C_22
    2  A    between atoms: C_4  and  N_25
    3  A    between atoms: O_10  and  C_23
    4  A    between atoms: O_10  and  C_26
                            x       y       z     vdW  Elec       q    Type
                         _______ _______ _______ _____ _____    ______ ____

>  <TORSDO>
F 4

$$$$
=
 OpenBabel11052421493D

 30 32  0  0  1  0  0  0  0  0999 V2000
  158.6930  211.3180  154.6100 C   0  0  1  0  0  3  0  0  0  0  0  0
  161.0320  210.3350  155.1510 C   0  0  2  0  0  3  0  0  0  0  0  0
  158.6400  210.9260  153.2490 O   0  0  0  0  0  0  0  0  0  0  0  0
  161.2800  207.6210  152.3120 C   0  0  0  0  0  2  0  0  0  0  0  0
  160.6580  206.6210  154.1970 C   0  0  0  0  0  2  0  0  0  0  0  0
  161.3970  209.0550  152.8720 C   0  0  2  0  0  3  0  0  0  0  0  0
  160.8270  211.3470  152.3120 C   0  0  0  0  0  2  0  0  0  0  0  0
  159.3850  211.8230  152.4580 C   0  0  0  0  0  2  0  0  0  0  0  0
  160.6450  209.1390  154.2480 C   0  0  1  0  0  3  0  0  0  0  0  0
  161.6880  206.6650  153.2500 O   0  0  0  0  0  0  0  0  0  0  0  0
  160.8500  209.9690  151.8480 N   0  0  0  0  0  0  0  0  0  0  0  0
  161.7620  209.9750  150.7120 C   0  0  0  0  0  1  0  0  0  0  0  0
  160.1040  211.5670  155.1920 C   0  0  2  0  0  3  0  0  0  0  0  0
  161.9620  207.8020  155.7940 O   0  0  0  0  0  1  0  0  0  0  0  0
  160.7560  207.8480  155.0890 C   0  0  2  0  0  3  0  0  0  0  0  0
  156.8210  212.9380  153.8290 C   0  0  1  0  0  3  0  0  0  0  0  0
  155.5830  213.6560  154.2960 C   0  0  0  0  0  3  0  0  0  0  0  0
  157.8190  214.0740  152.8870 Cl  0  0  0  0  0  0  0  0  0  0  0  0
  156.6870  211.6900  156.0150 C   0  0  0  0  0  3  0  0  0  0  0  0
  154.5920  211.5470  157.2610 C   0  0  0  0  0  1  0  0  0  0  0  0
  157.6080  212.3330  155.0130 C   0  0  1  0  0  3  0  0  0  0  0  0
  154.9300  213.2600  155.3910 C   0  0  0  0  0  3  0  0  0  0  0  0
  155.4520  212.1560  156.2130 C   0  0  0  0  0  0  0  0  0  0  0  0
  162.9350  210.6210  157.2610 O   0  0  0  0  0  0  0  0  0  0  0  0
  163.3170  210.8760  156.0880 C   0  0  0  0  0  0  0  0  0  0  0  0
  164.6530  211.3100  155.8620 N   0  0  0  0  0  1  0  0  0  0  0  0
  162.4270  210.7260  154.9830 N   0  0  0  0  0  2  0  0  0  0  0  0
  160.0030  212.0040  156.5170 O   0  0  0  0  0  0  0  0  0  0  0  0
  159.2160  214.4380  157.1260 S   0  0  0  0  0  1  0  0  0  0  0  0
  160.4950  213.3100  156.5140 C   0  0  0  0  0  2  0  0  0  0  0  0
  1  3  1  6  0  0  0
  1 21  1  0  0  0  0
  1 13  1  0  0  0  0
  2 27  1  6  0  0  0
  2 13  1  0  0  0  0
  4 10  1  0  0  0  0
  5 15  1  0  0  0  0
  6  4  1  6  0  0  0
  6  9  1  0  0  0  0
  7  8  1  0  0  0  0
  8  3  1  0  0  0  0
  9 15  1  0  0  0  0
  9  2  1  0  0  0  0
 10  5  1  0  0  0  0
 11  7  1  0  0  0  0
 11  6  1  0  0  0  0
 12 11  1  0  0  0  0
 13 28  1  0  0  0  0
 15 14  1  0  0  0  0
 16 17  1  0  0  0  0
 16 21  1  0  0  0  0
 17 22  2  0  0  0  0
 18 16  1  0  0  0  0
 19 23  2  0  0  0  0
 21 19  1  0  0  0  0
 22 23  1  0  0  0  0
 23 20  1  0  0  0  0
 25 24  2  0  0  0  0
 26 25  1  0  0  0  0
 27 25  1  0  0  0  0
 30 28  1  0  0  0  0
 30 29  1  0  0  0  0
M  END
>  <MODEL>
2

>  <REMARK>
 VINA RESULT:      -3.9      1.591      2.027
  Name = 
  4 active torsions:
  status: ('A' for Active; 'I' for Inactive)
    1  A    between atoms: C_1  and  C_22
    2  A    between atoms: C_4  and  N_25
    3  A    between atoms: O_10  and  C_23
    4  A    between atoms: O_10  and  C_26
                            x       y       z     vdW  Elec       q    Type
                         _______ _______ _______ _____ _____    ______ ____

>  <TORSDO>
F 4

$$$$
=
 OpenBabel11052421493D

 30 32  0  0  1  0  0  0  0  0999 V2000
  160.3910  208.9300  153.8560 C   0  0  1  0  0  3  0  0  0  0  0  0
  159.5250  211.2370  153.0480 C   0  0  2  0  0  3  0  0  0  0  0  0
  160.4450  209.2290  155.2410 O   0  0  0  0  0  0  0  0  0  0  0  0
  157.8820  212.5320  156.3820 C   0  0  0  0  0  2  0  0  0  0  0  0
  156.2820  211.7100  155.0760 C   0  0  0  0  0  2  0  0  0  0  0  0
  159.0710  212.2830  155.4290 C   0  0  2  0  0  3  0  0  0  0  0  0
  161.3540  211.4590  155.4410 C   0  0  0  0  0  2  0  0  0  0  0  0
  161.6140  209.9590  155.5320 C   0  0  0  0  0  2  0  0  0  0  0  0
  158.6410  211.2570  154.3190 C   0  0  1  0  0  3  0  0  0  0  0  0
  156.7250  212.8920  155.6820 O   0  0  0  0  0  0  0  0  0  0  0  0
  160.2030  211.8130  156.2550 N   0  0  0  0  0  0  0  0  0  0  0  0
  160.6560  212.9270  157.0760 C   0  0  0  0  0  1  0  0  0  0  0  0
  160.5820  210.1250  152.8940 C   0  0  2  0  0  3  0  0  0  0  0  0
  157.0230  212.4310  152.9360 O   0  0  0  0  0  1  0  0  0  0  0  0
  157.1690  211.4090  153.8780 C   0  0  2  0  0  3  0  0  0  0  0  0
  160.6680  206.3800  154.2630 C   0  0  1  0  0  3  0  0  0  0  0  0
  161.1630  205.1110  153.6260 C   0  0  0  0  0  3  0  0  0  0  0  0
  161.2410  206.4340  155.9490 Cl  0  0  0  0  0  0  0  0  0  0  0  0
  160.9730  207.4150  151.9850 C   0  0  0  0  0  3  0  0  0  0  0  0
  161.0450  206.0350  149.9720 C   0  0  0  0  0  1  0  0  0  0  0  0
  161.1150  207.6270  153.4680 C   0  0  1  0  0  3  0  0  0  0  0  0
  161.3350  205.0260  152.3050 C   0  0  0  0  0  3  0  0  0  0  0  0
  161.1180  206.2020  151.4460 C   0  0  0  0  0  0  0  0  0  0  0  0
  159.1580  212.6640  150.6020 O   0  0  0  0  0  0  0  0  0  0  0  0
  159.8830  213.1930  151.4850 C   0  0  0  0  0  0  0  0  0  0  0  0
  160.4990  214.4500  151.2310 N   0  0  0  0  0  1  0  0  0  0  0  0
  160.0850  212.5490  152.7430 N   0  0  0  0  0  2  0  0  0  0  0  0
  160.5670  209.6760  151.5680 O   0  0  0  0  0  0  0  0  0  0  0  0
  161.8550  209.6150  149.2760 S   0  0  0  0  0  1  0  0  0  0  0  0
  161.7490  210.1570  151.0020 C   0  0  0  0  0  2  0  0  0  0  0  0
  1  3  1  1  0  0  0
  2 27  1  1  0  0  0
  2  9  1  0  0  0  0
  3  8  1  0  0  0  0
  5 10  1  0  0  0  0
  6 11  1  0  0  0  0
  6  4  1  1  0  0  0
  7  8  1  0  0  0  0
  7 11  1  0  0  0  0
  9  6  1  0  0  0  0
 10  4  1  0  0  0  0
 11 12  1  0  0  0  0
 13  2  1  0  0  0  0
 13  1  1  0  0  0  0
 14 15  1  0  0  0  0
 15  9  1  0  0  0  0
 15  5  1  0  0  0  0
 16 18  1  0  0  0  0
 17 16  1  0  0  0  0
 19 21  1  0  0  0  0
 20 23  1  0  0  0  0
 21  1  1  0  0  0  0
 21 16  1  0  0  0  0
 22 17  2  0  0  0  0
 23 19  2  0  0  0  0
 23 22  1  0  0  0  0
 24 25  2  0  0  0  0
 25 27  1  0  0  0  0
 26 25  1  0  0  0  0
 28 13  1  0  0  0  0
 29 30  1  0  0  0  0
 30 28  1  0  0  0  0
M  END
>  <MODEL>
3

>  <REMARK>
 VINA RESULT:      -3.4      3.288      6.659
  Name = 
  4 active torsions:
  status: ('A' for Active; 'I' for Inactive)
    1  A    between atoms: C_1  and  C_22
    2  A    between atoms: C_4  and  N_25
    3  A    between atoms: O_10  and  C_23
    4  A    between atoms: O_10  and  C_26
                            x       y       z     vdW  Elec       q    Type
                         _______ _______ _______ _____ _____    ______ ____

>  <TORSDO>
F 4

$$$$
=
 OpenBabel11052421493D

 30 32  0  0  1  0  0  0  0  0999 V2000
  160.5610  211.6050  151.9220 C   0  0  1  0  0  3  0  0  0  0  0  0
  160.7330  209.8510  153.8250 C   0  0  2  0  0  3  0  0  0  0  0  0
  160.2590  212.7270  152.7340 O   0  0  0  0  0  0  0  0  0  0  0  0
  161.4920  212.2400  156.8590 C   0  0  0  0  0  2  0  0  0  0  0  0
  163.4060  211.3550  156.1570 C   0  0  0  0  0  2  0  0  0  0  0  0
  160.5600  211.5320  155.8530 C   0  0  2  0  0  3  0  0  0  0  0  0
  158.6710  211.9830  154.3960 C   0  0  0  0  0  2  0  0  0  0  0  0
  158.8930  212.7200  153.0800 C   0  0  0  0  0  2  0  0  0  0  0  0
  161.4150  210.9560  154.6680 C   0  0  1  0  0  3  0  0  0  0  0  0
  162.5460  211.4100  157.2590 O   0  0  0  0  0  0  0  0  0  0  0  0
  159.5510  212.5210  155.4210 N   0  0  0  0  0  0  0  0  0  0  0  0
  158.6770  212.8000  156.5530 C   0  0  0  0  0  1  0  0  0  0  0  0
  160.1090  210.2300  152.4660 C   0  0  2  0  0  3  0  0  0  0  0  0
  162.7210  209.1420  155.6260 O   0  0  0  0  0  1  0  0  0  0  0  0
  162.8030  210.4380  155.1050 C   0  0  2  0  0  3  0  0  0  0  0  0
  159.5590  213.1330  150.0770 C   0  0  1  0  0  3  0  0  0  0  0  0
  159.6580  213.4700  148.6140 C   0  0  0  0  0  3  0  0  0  0  0  0
  157.8380  212.9990  150.5170 Cl  0  0  0  0  0  0  0  0  0  0  0  0
  161.6680  211.8010  149.7150 C   0  0  0  0  0  3  0  0  0  0  0  0
  163.1390  212.2580  147.8210 C   0  0  0  0  0  1  0  0  0  0  0  0
  160.3370  211.8430  150.4170 C   0  0  1  0  0  3  0  0  0  0  0  0
  160.7410  213.1460  147.9050 C   0  0  0  0  0  3  0  0  0  0  0  0
  161.8360  212.3790  148.5230 C   0  0  0  0  0  0  0  0  0  0  0  0
  161.0950  207.0830  154.4250 O   0  0  0  0  0  0  0  0  0  0  0  0
  160.0530  207.6440  154.8560 C   0  0  0  0  0  0  0  0  0  0  0  0
  159.1010  206.8900  155.5960 N   0  0  0  0  0  1  0  0  0  0  0  0
  159.8230  209.0320  154.6180 N   0  0  0  0  0  2  0  0  0  0  0  0
  160.4150  209.2270  151.5400 O   0  0  0  0  0  0  0  0  0  0  0  0
  162.2500  207.5240  150.7340 S   0  0  0  0  0  1  0  0  0  0  0  0
  161.7830  208.9930  151.6870 C   0  0  0  0  0  2  0  0  0  0  0  0
  1 13  1  0  0  0  0
  1  3  1  1  0  0  0
  2 27  1  1  0  0  0
  2  9  1  0  0  0  0
  3  8  1  0  0  0  0
  4 10  1  0  0  0  0
  5 10  1  0  0  0  0
  6  4  1  1  0  0  0
  7 11  1  0  0  0  0
  8  7  1  0  0  0  0
  9 15  1  0  0  0  0
  9  6  1  0  0  0  0
 11  6  1  0  0  0  0
 11 12  1  0  0  0  0
 13  2  1  0  0  0  0
 15 14  1  0  0  0  0
 15  5  1  0  0  0  0
 16 21  1  0  0  0  0
 16 18  1  0  0  0  0
 17 16  1  0  0  0  0
 19 21  1  0  0  0  0
 20 23  1  0  0  0  0
 21  1  1  0  0  0  0
 22 23  1  0  0  0  0
 22 17  2  0  0  0  0
 23 19  2  0  0  0  0
 24 25  2  0  0  0  0
 25 26  1  0  0  0  0
 27 25  1  0  0  0  0
 28 30  1  0  0  0  0
 28 13  1  0  0  0  0
 29 30  1  0  0  0  0
M  END
>  <MODEL>
4

>  <REMARK>
 VINA RESULT:      -1.5      2.870      5.220
  Name = 
  4 active torsions:
  status: ('A' for Active; 'I' for Inactive)
    1  A    between atoms: C_1  and  C_22
    2  A    between atoms: C_4  and  N_25
    3  A    between atoms: O_10  and  C_23
    4  A    between atoms: O_10  and  C_26
                            x       y       z     vdW  Elec       q    Type
                         _______ _______ _______ _____ _____    ______ ____

>  <TORSDO>
F 4

$$$$
=
 OpenBabel11052421493D

 30 32  0  0  1  0  0  0  0  0999 V2000
  160.8640  207.4740  152.1620 C   0  0  1  0  0  3  0  0  0  0  0  0
  161.4380  209.7840  153.1920 C   0  0  2  0  0  3  0  0  0  0  0  0
  160.0830  206.9830  153.2380 O   0  0  0  0  0  0  0  0  0  0  0  0
  158.4750  210.1180  155.7610 C   0  0  0  0  0  2  0  0  0  0  0  0
  157.9720  211.2910  153.9410 C   0  0  0  0  0  2  0  0  0  0  0  0
  159.8620  209.6170  155.3020 C   0  0  2  0  0  3  0  0  0  0  0  0
  161.2230  207.6080  155.2750 C   0  0  0  0  0  2  0  0  0  0  0  0
  160.9210  206.5050  154.2660 C   0  0  0  0  0  2  0  0  0  0  0  0
  159.9940  209.8020  153.7480 C   0  0  1  0  0  3  0  0  0  0  0  0
  158.2220  211.4190  155.3120 O   0  0  0  0  0  0  0  0  0  0  0  0
  159.9840  208.2100  155.7380 N   0  0  0  0  0  0  0  0  0  0  0  0
  160.0820  208.1930  157.1910 C   0  0  0  0  0  1  0  0  0  0  0  0
  161.9660  208.4940  152.5310 C   0  0  2  0  0  3  0  0  0  0  0  0
  160.0940  212.2040  153.3820 O   0  0  0  0  0  1  0  0  0  0  0  0
  159.2910  211.0700  153.2170 C   0  0  2  0  0  3  0  0  0  0  0  0
  160.5700  205.0300  151.3350 C   0  0  1  0  0  3  0  0  0  0  0  0
  160.7370  204.1430  150.1310 C   0  0  0  0  0  3  0  0  0  0  0  0
  161.2070  204.1800  152.7640 Cl  0  0  0  0  0  0  0  0  0  0  0  0
  161.0100  206.9390  149.7480 C   0  0  0  0  0  3  0  0  0  0  0  0
  160.6850  206.6810  147.3420 C   0  0  0  0  0  1  0  0  0  0  0  0
  161.2560  206.3990  151.1320 C   0  0  1  0  0  3  0  0  0  0  0  0
  160.8310  204.6600  148.9030 C   0  0  0  0  0  3  0  0  0  0  0  0
  160.8530  206.1190  148.7070 C   0  0  0  0  0  0  0  0  0  0  0  0
  164.0620  210.7030  152.5400 O   0  0  0  0  0  0  0  0  0  0  0  0
  163.7110  210.7440  153.7490 C   0  0  0  0  0  0  0  0  0  0  0  0
  164.6230  211.2190  154.7320 N   0  0  0  0  0  1  0  0  0  0  0  0
  162.4040  210.3280  154.1410 N   0  0  0  0  0  2  0  0  0  0  0  0
  162.6940  208.8440  151.3890 O   0  0  0  0  0  0  0  0  0  0  0  0
  162.3310  209.9080  149.0110 S   0  0  0  0  0  1  0  0  0  0  0  0
  161.9640  209.8700  150.7850 C   0  0  0  0  0  2  0  0  0  0  0  0
  1 13  1  0  0  0  0
  1  3  1  1  0  0  0
  2  9  1  0  0  0  0
  2 27  1  1  0  0  0
  3  8  1  0  0  0  0
  5 10  1  0  0  0  0
  6 11  1  0  0  0  0
  6  4  1  6  0  0  0
  7 11  1  0  0  0  0
  8  7  1  0  0  0  0
  9  6  1  0  0  0  0
 10  4  1  0  0  0  0
 11 12  1  0  0  0  0
 13  2  1  0  0  0  0
 15 14  1  0  0  0  0
 15  9  1  0  0  0  0
 15  5  1  0  0  0  0
 16 18  1  0  0  0  0
 17 16  1  0  0  0  0
 19 21  1  0  0  0  0
 20 23  1  0  0  0  0
 21 16  1  0  0  0  0
 21  1  1  0  0  0  0
 22 17  2  0  0  0  0
 23 22  1  0  0  0  0
 23 19  2  0  0  0  0
 24 25  2  0  0  0  0
 25 27  1  0  0  0  0
 25 26  1  0  0  0  0
 28 13  1  0  0  0  0
 29 30  1  0  0  0  0
 30 28  1  0  0  0  0
M  END
>  <MODEL>
5

>  <REMARK>
 VINA RESULT:      -1.1      3.589      6.444
  Name = 
  4 active torsions:
  status: ('A' for Active; 'I' for Inactive)
    1  A    between atoms: C_1  and  C_22
    2  A    between atoms: C_4  and  N_25
    3  A    between atoms: O_10  and  C_23
    4  A    between atoms: O_10  and  C_26
                            x       y       z     vdW  Elec       q    Type
                         _______ _______ _______ _____ _____    ______ ____

>  <TORSDO>
F 4

$$$$
