=
 OpenBabel11052422263D

 31 35  0  0  1  0  0  0  0  0999 V2000
  161.9030  209.9170  149.2970 C   0  0  0  0  0  0  0  0  0  0  0  0
  161.3410  206.6830  151.1500 C   0  0  0  0  0  0  0  0  0  0  0  0
  161.2970  205.6460  150.1600 C   0  0  0  0  0  0  0  0  0  0  0  0
  161.3700  204.8730  147.8400 C   0  0  0  0  0  0  0  0  0  0  0  0
  161.5390  208.0680  150.8550 C   0  0  0  0  0  0  0  0  0  0  0  0
  161.9610  210.8180  150.3590 C   0  0  0  0  0  3  0  0  0  0  0  0
  161.4150  205.9030  148.7810 C   0  0  0  0  0  3  0  0  0  0  0  0
  161.2110  207.2970  153.5330 C   0  0  0  0  0  0  0  0  0  0  0  0
  162.0660  210.4000  147.9020 C   0  0  0  0  0  1  0  0  0  0  0  0
  161.0090  203.9680  151.9060 C   0  0  0  0  0  3  0  0  0  0  0  0
  161.4900  205.1630  146.4880 O   0  0  0  0  0  1  0  0  0  0  0  0
  161.4440  208.5890  153.1990 N   0  0  0  0  0  0  0  0  0  0  0  0
  161.1920  206.3110  152.5210 C   0  0  0  0  0  0  0  0  0  0  0  0
  161.6980  208.5590  149.5460 C   0  0  0  0  0  3  0  0  0  0  0  0
  161.2060  203.5530  148.2580 C   0  0  0  0  0  3  0  0  0  0  0  0
  161.5950  209.0000  151.9200 C   0  0  0  0  0  0  0  0  0  0  0  0
  161.8070  210.3590  151.6670 C   0  0  0  0  0  3  0  0  0  0  0  0
  161.0400  204.9640  152.8700 C   0  0  0  0  0  3  0  0  0  0  0  0
  161.1290  204.2940  150.5630 C   0  0  0  0  0  0  0  0  0  0  0  0
  161.0860  203.2660  149.6160 C   0  0  0  0  0  3  0  0  0  0  0  0
  161.4200  207.9160  157.2610 O   0  0  0  0  0  1  0  0  0  0  0  0
  159.7460  207.3860  155.5620 C   0  0  0  0  0  2  0  0  0  0  0  0
  160.9880  208.1440  155.9500 C   0  0  2  0  0  0  0  0  0  0  0  0
  161.1040  206.9460  155.0010 C   0  0  2  0  0  3  0  0  0  0  0  0
  161.1250  209.5100  155.4020 N   0  0  0  0  0  0  0  0  0  0  0  0
  159.8970  210.3160  155.5860 C   0  0  0  0  0  0  0  0  0  0  0  0
  159.3300  210.0460  156.8200 F   0  0  0  0  0  0  0  0  0  0  0  0
  158.9610  210.0380  154.6020 F   0  0  0  0  0  0  0  0  0  0  0  0
  160.2180  211.8020  155.5620 C   0  0  0  0  0  1  0  0  0  0  0  0
  163.1290  210.7010  155.1930 O   0  0  0  0  0  1  0  0  0  0  0  0
  162.2310  210.1560  156.1110 C   0  0  0  0  0  2  0  0  0  0  0  0
  1 14  2  0  0  0  0
  1  6  1  0  0  0  0
  2 13  1  0  0  0  0
  3 19  1  0  0  0  0
  3  2  1  0  0  0  0
  4 15  2  0  0  0  0
  4  7  1  0  0  0  0
  5  2  2  0  0  0  0
  5 16  1  0  0  0  0
  6 17  2  0  0  0  0
  7  3  2  0  0  0  0
  9  1  1  0  0  0  0
 10 18  2  0  0  0  0
 11  4  1  0  0  0  0
 12  8  1  0  0  0  0
 13 18  1  0  0  0  0
 13  8  2  0  0  0  0
 14  5  1  0  0  0  0
 15 20  1  0  0  0  0
 16 12  2  0  0  0  0
 17 16  1  0  0  0  0
 19 10  1  0  0  0  0
 20 19  2  0  0  0  0
 22 23  1  0  0  0  0
 23 21  1  1  0  0  0
 24  8  1  6  0  0  0
 24 22  1  0  0  0  0
 24 23  1  0  0  0  0
 25 26  1  0  0  0  0
 25 23  1  0  0  0  0
 25 31  1  0  0  0  0
 26 27  1  0  0  0  0
 28 26  1  0  0  0  0
 29 26  1  0  0  0  0
 30 31  1  0  0  0  0
M  END
>  <MODEL>
1

>  <REMARK>
 VINA RESULT:      -9.2      0.000      0.000
  Name = 
  4 active torsions:
  status: ('A' for Active; 'I' for Inactive)
    1  A    between atoms: C_1  and  N_19
    2  A    between atoms: C_7  and  N_19
    3  A    between atoms: C_15  and  C_23
    4  A    between atoms: N_19  and  C_22
                            x       y       z     vdW  Elec       q    Type
                         _______ _______ _______ _____ _____    ______ ____

>  <TORSDO>
F 4

$$$$
=
 OpenBabel11052422263D

 31 35  0  0  1  0  0  0  0  0999 V2000
  161.4240  207.0820  147.4800 C   0  0  0  0  0  0  0  0  0  0  0  0
  161.1690  204.9470  150.5760 C   0  0  0  0  0  0  0  0  0  0  0  0
  161.0180  203.5930  150.1290 C   0  0  0  0  0  0  0  0  0  0  0  0
  160.8070  201.9150  148.3610 C   0  0  0  0  0  0  0  0  0  0  0  0
  161.3000  206.0720  149.7030 C   0  0  0  0  0  0  0  0  0  0  0  0
  161.6000  208.3420  148.0470 C   0  0  0  0  0  3  0  0  0  0  0  0
  160.9520  203.2420  148.7680 C   0  0  0  0  0  3  0  0  0  0  0  0
  161.3350  206.5090  152.4750 C   0  0  0  0  0  0  0  0  0  0  0  0
  161.3960  206.9280  146.0030 C   0  0  0  0  0  1  0  0  0  0  0  0
  160.9910  202.8140  152.4400 C   0  0  0  0  0  3  0  0  0  0  0  0
  160.7460  201.6060  147.0090 O   0  0  0  0  0  1  0  0  0  0  0  0
  161.4970  207.5320  151.6010 N   0  0  0  0  0  0  0  0  0  0  0  0
  161.2060  205.1910  151.9830 C   0  0  0  0  0  0  0  0  0  0  0  0
  161.2790  205.9620  148.3010 C   0  0  0  0  0  3  0  0  0  0  0  0
  160.7250  200.8990  149.3120 C   0  0  0  0  0  3  0  0  0  0  0  0
  161.4740  207.3620  150.2600 C   0  0  0  0  0  0  0  0  0  0  0  0
  161.6250  208.4810  149.4350 C   0  0  0  0  0  3  0  0  0  0  0  0
  161.1270  204.1210  152.8830 C   0  0  0  0  0  3  0  0  0  0  0  0
  160.9310  202.5420  151.0810 C   0  0  0  0  0  0  0  0  0  0  0  0
  160.7870  201.2130  150.6690 C   0  0  0  0  0  3  0  0  0  0  0  0
  161.8170  208.6780  155.5380 O   0  0  0  0  0  1  0  0  0  0  0  0
  160.0800  207.3240  154.4820 C   0  0  0  0  0  2  0  0  0  0  0  0
  161.2300  208.2840  154.3320 C   0  0  2  0  0  0  0  0  0  0  0  0
  161.4250  206.8120  153.9550 C   0  0  2  0  0  3  0  0  0  0  0  0
  161.1120  209.2910  153.2560 N   0  0  0  0  0  0  0  0  0  0  0  0
  159.9980  210.2380  153.4910 C   0  0  0  0  0  0  0  0  0  0  0  0
  159.2460  209.8280  154.5790 F   0  0  0  0  0  0  0  0  0  0  0  0
  159.1640  210.3180  152.3860 F   0  0  0  0  0  0  0  0  0  0  0  0
  160.5280  211.6240  153.8170 C   0  0  0  0  0  1  0  0  0  0  0  0
  162.7850  210.1940  151.8920 O   0  0  0  0  0  1  0  0  0  0  0  0
  162.3710  210.0350  153.2150 C   0  0  0  0  0  2  0  0  0  0  0  0
  1  6  2  0  0  0  0
  1 14  1  0  0  0  0
  2 13  1  0  0  0  0
  3  2  2  0  0  0  0
  3 19  1  0  0  0  0
  4  7  2  0  0  0  0
  4 15  1  0  0  0  0
  5 16  1  0  0  0  0
  5  2  1  0  0  0  0
  6 17  1  0  0  0  0
  7  3  1  0  0  0  0
  9  1  1  0  0  0  0
 10 18  1  0  0  0  0
 11  4  1  0  0  0  0
 12  8  2  0  0  0  0
 13  8  1  0  0  0  0
 13 18  2  0  0  0  0
 14  5  2  0  0  0  0
 15 20  2  0  0  0  0
 16 12  1  0  0  0  0
 17 16  2  0  0  0  0
 19 10  2  0  0  0  0
 20 19  1  0  0  0  0
 23 22  1  0  0  0  0
 23 21  1  1  0  0  0
 24  8  1  6  0  0  0
 24 23  1  0  0  0  0
 24 22  1  0  0  0  0
 25 26  1  0  0  0  0
 25 23  1  0  0  0  0
 26 29  1  0  0  0  0
 26 27  1  0  0  0  0
 28 26  1  0  0  0  0
 30 31  1  0  0  0  0
 31 25  1  0  0  0  0
M  END
>  <MODEL>
2

>  <REMARK>
 VINA RESULT:      -8.4      1.679      2.425
  Name = 
  4 active torsions:
  status: ('A' for Active; 'I' for Inactive)
    1  A    between atoms: C_1  and  N_19
    2  A    between atoms: C_7  and  N_19
    3  A    between atoms: C_15  and  C_23
    4  A    between atoms: N_19  and  C_22
                            x       y       z     vdW  Elec       q    Type
                         _______ _______ _______ _____ _____    ______ ____

>  <TORSDO>
F 4

$$$$
=
 OpenBabel11052422263D

 31 35  0  0  1  0  0  0  0  0999 V2000
  160.8410  208.5270  153.7860 C   0  0  0  0  0  0  0  0  0  0  0  0
  161.5710  208.0020  150.1250 C   0  0  0  0  0  0  0  0  0  0  0  0
  161.3720  206.6060  149.8640 C   0  0  0  0  0  0  0  0  0  0  0  0
  160.8200  204.3330  150.5830 C   0  0  0  0  0  0  0  0  0  0  0  0
  161.3950  208.6130  151.4060 C   0  0  0  0  0  0  0  0  0  0  0  0
  161.0330  209.9030  153.8940 C   0  0  0  0  0  3  0  0  0  0  0  0
  161.0090  205.6870  150.8660 C   0  0  0  0  0  3  0  0  0  0  0  0
  162.1830  210.2210  149.2460 C   0  0  0  0  0  0  0  0  0  0  0  0
  160.4420  207.7350  154.9780 C   0  0  0  0  0  1  0  0  0  0  0  0
  161.8970  206.9540  147.5080 C   0  0  0  0  0  3  0  0  0  0  0  0
  160.4620  203.4550  151.5960 O   0  0  0  0  0  1  0  0  0  0  0  0
  161.9600  210.7530  150.4720 N   0  0  0  0  0  0  0  0  0  0  0  0
  161.9570  208.8420  149.0370 C   0  0  0  0  0  0  0  0  0  0  0  0
  161.0170  207.8930  152.5550 C   0  0  0  0  0  3  0  0  0  0  0  0
  160.9900  203.8630  149.2810 C   0  0  0  0  0  3  0  0  0  0  0  0
  161.5910  210.0090  151.5380 C   0  0  0  0  0  0  0  0  0  0  0  0
  161.4070  210.6420  152.7720 C   0  0  0  0  0  3  0  0  0  0  0  0
  162.1010  208.3040  147.7520 C   0  0  0  0  0  3  0  0  0  0  0  0
  161.5410  206.1040  148.5450 C   0  0  0  0  0  0  0  0  0  0  0  0
  161.3500  204.7480  148.2660 C   0  0  0  0  0  3  0  0  0  0  0  0
  161.5810  212.9150  146.6560 O   0  0  0  0  0  1  0  0  0  0  0  0
  162.9270  212.5390  148.6600 C   0  0  0  0  0  2  0  0  0  0  0  0
  161.6160  212.3620  147.9410 C   0  0  2  0  0  0  0  0  0  0  0  0
  162.5470  211.1580  148.1140 C   0  0  2  0  0  3  0  0  0  0  0  0
  160.3930  212.4500  148.7670 N   0  0  0  0  0  0  0  0  0  0  0  0
  160.4120  213.6150  149.6800 C   0  0  0  0  0  0  0  0  0  0  0  0
  161.4880  214.4360  149.3820 F   0  0  0  0  0  0  0  0  0  0  0  0
  160.5180  213.2150  151.0040 F   0  0  0  0  0  0  0  0  0  0  0  0
  159.1560  214.4530  149.5110 C   0  0  0  0  0  1  0  0  0  0  0  0
  159.4780  211.8050  146.7120 O   0  0  0  0  0  1  0  0  0  0  0  0
  159.2570  212.5770  147.8530 C   0  0  0  0  0  2  0  0  0  0  0  0
  1  6  1  0  0  0  0
  1  9  1  0  0  0  0
  2  5  1  0  0  0  0
  3  2  1  0  0  0  0
  3  7  2  0  0  0  0
  4  7  1  0  0  0  0
  4 11  1  0  0  0  0
  5 16  2  0  0  0  0
  5 14  1  0  0  0  0
  8 12  2  0  0  0  0
 10 18  2  0  0  0  0
 10 19  1  0  0  0  0
 12 16  1  0  0  0  0
 13  8  1  0  0  0  0
 13  2  2  0  0  0  0
 14  1  2  0  0  0  0
 15  4  2  0  0  0  0
 16 17  1  0  0  0  0
 17  6  2  0  0  0  0
 18 13  1  0  0  0  0
 19  3  1  0  0  0  0
 20 19  2  0  0  0  0
 20 15  1  0  0  0  0
 23 21  1  6  0  0  0
 23 24  1  0  0  0  0
 23 22  1  0  0  0  0
 23 25  1  0  0  0  0
 24 22  1  0  0  0  0
 24  8  1  1  0  0  0
 25 26  1  0  0  0  0
 26 28  1  0  0  0  0
 27 26  1  0  0  0  0
 29 26  1  0  0  0  0
 30 31  1  0  0  0  0
 31 25  1  0  0  0  0
M  END
>  <MODEL>
3

>  <REMARK>
 VINA RESULT:      -6.9      3.318      5.919
  Name = 
  4 active torsions:
  status: ('A' for Active; 'I' for Inactive)
    1  A    between atoms: C_1  and  N_19
    2  A    between atoms: C_7  and  N_19
    3  A    between atoms: C_15  and  C_23
    4  A    between atoms: N_19  and  C_22
                            x       y       z     vdW  Elec       q    Type
                         _______ _______ _______ _____ _____    ______ ____

>  <TORSDO>
F 4

$$$$
=
 OpenBabel11052422263D

 31 35  0  0  1  0  0  0  0  0999 V2000
  161.9460  209.2430  149.0230 C   0  0  0  0  0  0  0  0  0  0  0  0
  161.2870  207.1360  152.0790 C   0  0  0  0  0  0  0  0  0  0  0  0
  161.1840  205.7790  151.6260 C   0  0  0  0  0  0  0  0  0  0  0  0
  161.1860  204.0880  149.8580 C   0  0  0  0  0  0  0  0  0  0  0  0
  161.5350  208.2520  151.2210 C   0  0  0  0  0  0  0  0  0  0  0  0
  162.0580  210.5070  149.5990 C   0  0  0  0  0  3  0  0  0  0  0  0
  161.2880  205.4170  150.2700 C   0  0  0  0  0  3  0  0  0  0  0  0
  161.2220  208.7130  153.9710 C   0  0  0  0  0  0  0  0  0  0  0  0
  162.1040  209.0770  147.5560 C   0  0  0  0  0  1  0  0  0  0  0  0
  160.8590  205.0200  153.9200 C   0  0  0  0  0  3  0  0  0  0  0  0
  161.2940  203.7680  148.5120 O   0  0  0  0  0  1  0  0  0  0  0  0
  161.5000  209.7270  153.1170 N   0  0  0  0  0  0  0  0  0  0  0  0
  161.1470  207.3910  153.4770 C   0  0  0  0  0  0  0  0  0  0  0  0
  161.6910  208.1310  149.8270 C   0  0  0  0  0  3  0  0  0  0  0  0
  160.9770  203.0810  150.7990 C   0  0  0  0  0  3  0  0  0  0  0  0
  161.6470  209.5460  151.7860 C   0  0  0  0  0  0  0  0  0  0  0  0
  161.9080  210.6570  150.9780 C   0  0  0  0  0  3  0  0  0  0  0  0
  160.9470  206.3290  154.3680 C   0  0  0  0  0  3  0  0  0  0  0  0
  160.9700  204.7360  152.5670 C   0  0  0  0  0  0  0  0  0  0  0  0
  160.8690  203.4060  152.1500 C   0  0  0  0  0  3  0  0  0  0  0  0
  160.3750  210.7940  157.0160 O   0  0  0  0  0  1  0  0  0  0  0  0
  159.7340  208.6750  155.9840 C   0  0  0  0  0  2  0  0  0  0  0  0
  160.1190  210.1210  155.8170 C   0  0  2  0  0  0  0  0  0  0  0  0
  161.1260  209.0270  155.4490 C   0  0  2  0  0  3  0  0  0  0  0  0
  159.4380  210.8650  154.7360 N   0  0  0  0  0  0  0  0  0  0  0  0
  158.0160  211.1350  155.0480 C   0  0  0  0  0  0  0  0  0  0  0  0
  157.5000  210.1200  155.8360 F   0  0  0  0  0  0  0  0  0  0  0  0
  157.2550  211.2230  153.8910 F   0  0  0  0  0  0  0  0  0  0  0  0
  157.8730  212.4260  155.8370 C   0  0  0  0  0  1  0  0  0  0  0  0
  159.9490  212.6220  153.2780 O   0  0  0  0  0  1  0  0  0  0  0  0
  160.1420  212.1370  154.5710 C   0  0  0  0  0  2  0  0  0  0  0  0
  1  6  2  0  0  0  0
  1 14  1  0  0  0  0
  2 13  1  0  0  0  0
  3  2  2  0  0  0  0
  3 19  1  0  0  0  0
  4  7  2  0  0  0  0
  4 15  1  0  0  0  0
  5 16  1  0  0  0  0
  5  2  1  0  0  0  0
  6 17  1  0  0  0  0
  7  3  1  0  0  0  0
  9  1  1  0  0  0  0
 10 18  1  0  0  0  0
 11  4  1  0  0  0  0
 12  8  2  0  0  0  0
 13  8  1  0  0  0  0
 13 18  2  0  0  0  0
 14  5  2  0  0  0  0
 15 20  2  0  0  0  0
 16 12  1  0  0  0  0
 17 16  2  0  0  0  0
 19 10  2  0  0  0  0
 20 19  1  0  0  0  0
 23 22  1  0  0  0  0
 23 21  1  1  0  0  0
 24  8  1  6  0  0  0
 24 23  1  0  0  0  0
 24 22  1  0  0  0  0
 25 26  1  0  0  0  0
 25 23  1  0  0  0  0
 26 27  1  0  0  0  0
 26 29  1  0  0  0  0
 28 26  1  0  0  0  0
 30 31  1  0  0  0  0
 31 25  1  0  0  0  0
M  END
>  <MODEL>
4

>  <REMARK>
 VINA RESULT:      -6.9      1.558      2.021
  Name = 
  4 active torsions:
  status: ('A' for Active; 'I' for Inactive)
    1  A    between atoms: C_1  and  N_19
    2  A    between atoms: C_7  and  N_19
    3  A    between atoms: C_15  and  C_23
    4  A    between atoms: N_19  and  C_22
                            x       y       z     vdW  Elec       q    Type
                         _______ _______ _______ _____ _____    ______ ____

>  <TORSDO>
F 4

$$$$
=
 OpenBabel11052422263D

 31 35  0  0  1  0  0  0  0  0999 V2000
  161.9210  210.1010  149.6090 C   0  0  0  0  0  0  0  0  0  0  0  0
  161.2970  206.7350  151.1870 C   0  0  0  0  0  0  0  0  0  0  0  0
  161.2010  206.9570  152.6010 C   0  0  0  0  0  0  0  0  0  0  0  0
  161.2640  208.4130  154.5660 C   0  0  0  0  0  0  0  0  0  0  0  0
  161.5310  207.7670  150.2260 C   0  0  0  0  0  0  0  0  0  0  0  0
  161.9560  209.7530  148.2610 C   0  0  0  0  0  3  0  0  0  0  0  0
  161.3640  208.2270  153.1870 C   0  0  0  0  0  3  0  0  0  0  0  0
  161.2360  205.1280  149.3210 C   0  0  0  0  0  0  0  0  0  0  0  0
  162.1050  211.5170  150.0170 C   0  0  0  0  0  1  0  0  0  0  0  0
  160.7580  204.5860  152.9610 C   0  0  0  0  0  3  0  0  0  0  0  0
  161.4290  209.6800  155.1090 O   0  0  0  0  0  1  0  0  0  0  0  0
  161.4180  206.1510  148.4520 N   0  0  0  0  0  0  0  0  0  0  0  0
  161.1330  205.4010  150.7030 C   0  0  0  0  0  0  0  0  0  0  0  0
  161.7080  209.1180  150.5780 C   0  0  0  0  0  3  0  0  0  0  0  0
  160.9970  207.3280  155.3990 C   0  0  0  0  0  3  0  0  0  0  0  0
  161.5750  207.4330  148.8510 C   0  0  0  0  0  0  0  0  0  0  0  0
  161.7830  208.4210  147.8830 C   0  0  0  0  0  3  0  0  0  0  0  0
  160.8580  204.3590  151.5970 C   0  0  0  0  0  3  0  0  0  0  0  0
  160.9310  205.8650  153.4690 C   0  0  0  0  0  0  0  0  0  0  0  0
  160.8310  206.0570  154.8510 C   0  0  0  0  0  3  0  0  0  0  0  0
  160.5220  202.5570  146.6370 O   0  0  0  0  0  1  0  0  0  0  0  0
  162.3260  203.1990  148.1540 C   0  0  0  0  0  2  0  0  0  0  0  0
  161.2050  203.6180  147.2400 C   0  0  2  0  0  0  0  0  0  0  0  0
  161.0240  203.7390  148.7570 C   0  0  2  0  0  3  0  0  0  0  0  0
  161.4260  204.8430  146.4430 N   0  0  0  0  0  0  0  0  0  0  0  0
  162.7080  204.8090  145.7020 C   0  0  0  0  0  0  0  0  0  0  0  0
  162.8890  203.5650  145.1210 F   0  0  0  0  0  0  0  0  0  0  0  0
  163.7810  205.0630  146.5420 F   0  0  0  0  0  0  0  0  0  0  0  0
  162.7060  205.8280  144.5750 C   0  0  0  0  0  1  0  0  0  0  0  0
  159.7260  206.2030  145.5840 O   0  0  0  0  0  1  0  0  0  0  0  0
  160.3230  204.9470  145.4860 C   0  0  0  0  0  2  0  0  0  0  0  0
  1  9  1  0  0  0  0
  1 14  1  0  0  0  0
  2  3  1  0  0  0  0
  3  7  2  0  0  0  0
  3 19  1  0  0  0  0
  4 11  1  0  0  0  0
  4 15  2  0  0  0  0
  5 14  2  0  0  0  0
  5  2  1  0  0  0  0
  6  1  2  0  0  0  0
  7  4  1  0  0  0  0
  8 13  1  0  0  0  0
 10 19  1  0  0  0  0
 12 16  1  0  0  0  0
 12  8  2  0  0  0  0
 13  2  2  0  0  0  0
 13 18  1  0  0  0  0
 16  5  1  0  0  0  0
 17  6  1  0  0  0  0
 17 16  2  0  0  0  0
 18 10  2  0  0  0  0
 19 20  2  0  0  0  0
 20 15  1  0  0  0  0
 22 24  1  0  0  0  0
 23 21  1  6  0  0  0
 23 22  1  0  0  0  0
 23 24  1  0  0  0  0
 24  8  1  6  0  0  0
 25 23  1  0  0  0  0
 26 25  1  0  0  0  0
 26 28  1  0  0  0  0
 27 26  1  0  0  0  0
 29 26  1  0  0  0  0
 31 30  1  0  0  0  0
 31 25  1  0  0  0  0
M  END
>  <MODEL>
5

>  <REMARK>
 VINA RESULT:      -6.3      3.648      7.489
  Name = 
  4 active torsions:
  status: ('A' for Active; 'I' for Inactive)
    1  A    between atoms: C_1  and  N_19
    2  A    between atoms: C_7  and  N_19
    3  A    between atoms: C_15  and  C_23
    4  A    between atoms: N_19  and  C_22
                            x       y       z     vdW  Elec       q    Type
                         _______ _______ _______ _____ _____    ______ ____

>  <TORSDO>
F 4

$$$$
=
 OpenBabel11052422263D

 31 35  0  0  1  0  0  0  0  0999 V2000
  160.8870  203.6460  152.1990 C   0  0  0  0  0  0  0  0  0  0  0  0
  161.5320  206.4810  149.8000 C   0  0  0  0  0  0  0  0  0  0  0  0
  161.5780  205.9050  148.4870 C   0  0  0  0  0  0  0  0  0  0  0  0
  161.4820  203.9910  146.9660 C   0  0  0  0  0  0  0  0  0  0  0  0
  161.3060  205.7350  150.9980 C   0  0  0  0  0  0  0  0  0  0  0  0
  160.8310  204.3360  153.4080 C   0  0  0  0  0  3  0  0  0  0  0  0
  161.4350  204.5240  148.2560 C   0  0  0  0  0  3  0  0  0  0  0  0
  161.6880  208.5070  151.1940 C   0  0  0  0  0  0  0  0  0  0  0  0
  160.6950  202.1730  152.1740 C   0  0  0  0  0  1  0  0  0  0  0  0
  161.9210  208.1130  147.5110 C   0  0  0  0  0  3  0  0  0  0  0  0
  161.3370  202.6240  146.7750 O   0  0  0  0  0  1  0  0  0  0  0  0
  161.4290  207.7560  152.2910 N   0  0  0  0  0  0  0  0  0  0  0  0
  161.7080  207.8940  149.9210 C   0  0  0  0  0  0  0  0  0  0  0  0
  161.1190  204.3400  151.0100 C   0  0  0  0  0  3  0  0  0  0  0  0
  161.6740  204.8310  145.8710 C   0  0  0  0  0  3  0  0  0  0  0  0
  161.2510  206.4170  152.2370 C   0  0  0  0  0  0  0  0  0  0  0  0
  161.0120  205.7200  153.4260 C   0  0  0  0  0  3  0  0  0  0  0  0
  161.8880  208.6790  148.7760 C   0  0  0  0  0  3  0  0  0  0  0  0
  161.7740  206.7420  147.3560 C   0  0  0  0  0  0  0  0  0  0  0  0
  161.8200  206.2030  146.0670 C   0  0  0  0  0  3  0  0  0  0  0  0
  160.8480  211.9140  152.6110 O   0  0  0  0  0  1  0  0  0  0  0  0
  162.7060  210.3280  152.5790 C   0  0  0  0  0  2  0  0  0  0  0  0
  161.2210  210.5670  152.6590 C   0  0  2  0  0  0  0  0  0  0  0  0
  161.8240  210.0050  151.3670 C   0  0  2  0  0  3  0  0  0  0  0  0
  160.4550  209.6670  153.5460 N   0  0  0  0  0  0  0  0  0  0  0  0
  161.0270  209.6000  154.9100 C   0  0  0  0  0  0  0  0  0  0  0  0
  161.7790  210.7340  155.1680 F   0  0  0  0  0  0  0  0  0  0  0  0
  161.8420  208.4880  155.0600 F   0  0  0  0  0  0  0  0  0  0  0  0
  159.9250  209.5530  155.9550 C   0  0  0  0  0  1  0  0  0  0  0  0
  158.7070  210.7030  152.3860 O   0  0  0  0  0  1  0  0  0  0  0  0
  159.0900  210.1890  153.6250 C   0  0  0  0  0  2  0  0  0  0  0  0
  1  6  1  0  0  0  0
  2 13  2  0  0  0  0
  2  5  1  0  0  0  0
  3  2  1  0  0  0  0
  4  7  1  0  0  0  0
  5 14  1  0  0  0  0
  5 16  2  0  0  0  0
  6 17  2  0  0  0  0
  7  3  2  0  0  0  0
  8 12  2  0  0  0  0
  9  1  1  0  0  0  0
 10 18  2  0  0  0  0
 11  4  1  0  0  0  0
 13  8  1  0  0  0  0
 14  1  2  0  0  0  0
 15 20  1  0  0  0  0
 15  4  2  0  0  0  0
 16 12  1  0  0  0  0
 16 17  1  0  0  0  0
 18 13  1  0  0  0  0
 19 10  1  0  0  0  0
 19  3  1  0  0  0  0
 20 19  2  0  0  0  0
 22 23  1  0  0  0  0
 23 21  1  6  0  0  0
 23 25  1  0  0  0  0
 24  8  1  1  0  0  0
 24 22  1  0  0  0  0
 24 23  1  0  0  0  0
 25 31  1  0  0  0  0
 25 26  1  0  0  0  0
 26 28  1  0  0  0  0
 26 27  1  0  0  0  0
 26 29  1  0  0  0  0
 30 31  1  0  0  0  0
M  END
>  <MODEL>
6

>  <REMARK>
 VINA RESULT:      -6.3      1.979      4.304
  Name = 
  4 active torsions:
  status: ('A' for Active; 'I' for Inactive)
    1  A    between atoms: C_1  and  N_19
    2  A    between atoms: C_7  and  N_19
    3  A    between atoms: C_15  and  C_23
    4  A    between atoms: N_19  and  C_22
                            x       y       z     vdW  Elec       q    Type
                         _______ _______ _______ _____ _____    ______ ____

>  <TORSDO>
F 4

$$$$
