=
 OpenBabel11052423203D

 27 31  0  0  0  0  0  0  0  0999 V2000
  161.5110  207.2680  152.9860 C   0  0  0  0  0  2  0  0  0  0  0  0
  161.7850  208.0330  150.6320 C   0  0  0  0  0  0  0  0  0  0  0  0
  160.7800  209.9900  151.6600 O   0  0  0  0  0  0  0  0  0  0  0  0
  162.4680  207.7600  149.4160 N   0  0  0  0  0  0  0  0  0  0  0  0
  158.6390  210.8030  155.8480 F   0  0  0  0  0  0  0  0  0  0  0  0
  159.5860  210.1080  155.1740 C   0  0  0  0  0  0  0  0  0  0  0  0
  161.3930  207.0270  151.5770 N   0  0  0  0  0  0  0  0  0  0  0  0
  162.0080  209.9160  149.4960 N   0  0  0  0  0  0  0  0  0  0  0  0
  161.2010  208.3990  153.6170 C   0  0  0  0  0  0  0  0  0  0  0  0
  161.5080  209.3110  150.6830 C   0  0  0  0  0  0  0  0  0  0  0  0
  159.8170  210.3890  153.7450 C   0  0  0  0  0  2  0  0  0  0  0  0
  162.6280  208.9500  148.6790 N   0  0  0  0  0  0  0  0  0  0  0  0
  160.2810  209.1560  155.8010 C   0  0  0  0  0  3  0  0  0  0  0  0
  161.3860  208.4060  155.1090 C   0  0  0  0  0  2  0  0  0  0  0  0
  160.5820  209.5970  152.9860 C   0  0  0  0  0  0  0  0  0  0  0  0
  162.8570  211.8490  148.2350 C   0  0  0  0  0  3  0  0  0  0  0  0
  161.7930  214.0160  148.4100 C   0  0  0  0  0  3  0  0  0  0  0  0
  160.8610  213.4850  149.3060 C   0  0  0  0  0  3  0  0  0  0  0  0
  160.9280  212.1350  149.6650 C   0  0  0  0  0  3  0  0  0  0  0  0
  161.9270  211.3050  149.1330 C   0  0  0  0  0  0  0  0  0  0  0  0
  162.7910  213.1980  147.8750 C   0  0  0  0  0  3  0  0  0  0  0  0
  160.7520  203.0270  150.2600 C   0  0  0  0  0  3  0  0  0  0  0  0
  161.1570  205.6730  151.1310 C   0  0  0  0  0  0  0  0  0  0  0  0
  161.2190  204.6010  152.0380 C   0  0  0  0  0  3  0  0  0  0  0  0
  161.0140  203.2870  151.6070 C   0  0  0  0  0  3  0  0  0  0  0  0
  160.6960  204.0800  149.3450 C   0  0  0  0  0  3  0  0  0  0  0  0
  160.9010  205.3940  149.7760 C   0  0  0  0  0  3  0  0  0  0  0  0
  1  9  1  0  0  0  0
  2 10  2  0  0  0  0
  2  7  1  0  0  0  0
  3 15  1  0  0  0  0
  4  2  1  0  0  0  0
  6 13  2  0  0  0  0
  6  5  1  0  0  0  0
  7  1  1  0  0  0  0
  8 10  1  0  0  0  0
  9 14  1  0  0  0  0
 10  3  1  0  0  0  0
 11  6  1  0  0  0  0
 12  4  2  0  0  0  0
 12  8  1  0  0  0  0
 14 13  1  0  0  0  0
 15  9  2  0  0  0  0
 15 11  1  0  0  0  0
 16 20  1  0  0  0  0
 17 18  2  0  0  0  0
 18 19  1  0  0  0  0
 20  8  1  0  0  0  0
 20 19  2  0  0  0  0
 21 16  2  0  0  0  0
 21 17  1  0  0  0  0
 22 25  1  0  0  0  0
 23  7  1  0  0  0  0
 23 24  1  0  0  0  0
 25 24  2  0  0  0  0
 26 27  1  0  0  0  0
 26 22  2  0  0  0  0
 27 23  2  0  0  0  0
M  END
>  <MODEL>
1

>  <REMARK>
 VINA RESULT:      -8.5      0.000      0.000
  Name = 
  2 active torsions:
  status: ('A' for Active; 'I' for Inactive)
    1  A    between atoms: C_9  and  N_15
    2  A    between atoms: C_14  and  N_17
                            x       y       z     vdW  Elec       q    Type
                         _______ _______ _______ _____ _____    ______ ____

>  <TORSDO>
F 2

$$$$
=
 OpenBabel11052423203D

 27 31  0  0  0  0  0  0  0  0999 V2000
  161.5620  206.6970  152.5480 C   0  0  0  0  0  2  0  0  0  0  0  0
  161.8390  207.6920  150.2820 C   0  0  0  0  0  0  0  0  0  0  0  0
  160.8000  209.5260  151.4880 O   0  0  0  0  0  0  0  0  0  0  0  0
  162.5340  207.5480  149.0500 N   0  0  0  0  0  0  0  0  0  0  0  0
  158.6210  209.8960  155.7180 F   0  0  0  0  0  0  0  0  0  0  0  0
  159.5830  209.2840  154.9870 C   0  0  0  0  0  0  0  0  0  0  0  0
  161.4560  206.5930  151.1210 N   0  0  0  0  0  0  0  0  0  0  0  0
  162.0430  209.6800  149.3360 N   0  0  0  0  0  0  0  0  0  0  0  0
  161.2320  207.7570  153.2840 C   0  0  0  0  0  0  0  0  0  0  0  0
  161.5440  208.9550  150.4550 C   0  0  0  0  0  0  0  0  0  0  0  0
  159.8180  209.7060  153.5940 C   0  0  0  0  0  2  0  0  0  0  0  0
  162.6820  208.8070  148.4340 N   0  0  0  0  0  0  0  0  0  0  0  0
  160.2870  208.2850  155.5240 C   0  0  0  0  0  3  0  0  0  0  0  0
  161.4070  207.6220  154.7700 C   0  0  0  0  0  2  0  0  0  0  0  0
  160.5990  209.0020  152.7670 C   0  0  0  0  0  0  0  0  0  0  0  0
  161.0100  211.8550  149.8300 C   0  0  0  0  0  3  0  0  0  0  0  0
  161.7240  213.8640  148.6820 C   0  0  0  0  0  3  0  0  0  0  0  0
  162.6570  213.1170  147.9590 C   0  0  0  0  0  3  0  0  0  0  0  0
  162.7660  211.7390  148.1710 C   0  0  0  0  0  3  0  0  0  0  0  0
  161.9430  211.0960  149.1090 C   0  0  0  0  0  0  0  0  0  0  0  0
  160.9000  213.2330  149.6190 C   0  0  0  0  0  3  0  0  0  0  0  0
  160.7700  202.7510  149.4160 C   0  0  0  0  0  3  0  0  0  0  0  0
  161.2420  205.2860  150.5440 C   0  0  0  0  0  0  0  0  0  0  0  0
  161.1370  205.1280  149.1510 C   0  0  0  0  0  3  0  0  0  0  0  0
  160.9070  203.8690  148.5900 C   0  0  0  0  0  3  0  0  0  0  0  0
  160.8620  202.8930  150.8020 C   0  0  0  0  0  3  0  0  0  0  0  0
  161.0930  204.1530  151.3630 C   0  0  0  0  0  3  0  0  0  0  0  0
  1  9  1  0  0  0  0
  2 10  2  0  0  0  0
  2  7  1  0  0  0  0
  3 15  1  0  0  0  0
  4  2  1  0  0  0  0
  6 13  2  0  0  0  0
  6  5  1  0  0  0  0
  7  1  1  0  0  0  0
  8 10  1  0  0  0  0
  9 14  1  0  0  0  0
 10  3  1  0  0  0  0
 11  6  1  0  0  0  0
 12  4  2  0  0  0  0
 12  8  1  0  0  0  0
 14 13  1  0  0  0  0
 15  9  2  0  0  0  0
 15 11  1  0  0  0  0
 17 21  2  0  0  0  0
 18 19  2  0  0  0  0
 18 17  1  0  0  0  0
 19 20  1  0  0  0  0
 20  8  1  0  0  0  0
 20 16  2  0  0  0  0
 21 16  1  0  0  0  0
 22 26  1  0  0  0  0
 23  7  1  0  0  0  0
 23 27  1  0  0  0  0
 24 23  2  0  0  0  0
 25 24  1  0  0  0  0
 25 22  2  0  0  0  0
 26 27  2  0  0  0  0
M  END
>  <MODEL>
2

>  <REMARK>
 VINA RESULT:      -8.0      0.618      1.455
  Name = 
  2 active torsions:
  status: ('A' for Active; 'I' for Inactive)
    1  A    between atoms: C_9  and  N_15
    2  A    between atoms: C_14  and  N_17
                            x       y       z     vdW  Elec       q    Type
                         _______ _______ _______ _____ _____    ______ ____

>  <TORSDO>
F 2

$$$$
=
 OpenBabel11052423203D

 27 31  0  0  0  0  0  0  0  0999 V2000
  162.0430  208.9070  152.2290 C   0  0  0  0  0  2  0  0  0  0  0  0
  161.3340  206.5210  152.3030 C   0  0  0  0  0  0  0  0  0  0  0  0
  161.1240  207.0110  149.9340 O   0  0  0  0  0  0  0  0  0  0  0  0
  161.3720  205.3440  153.0990 N   0  0  0  0  0  0  0  0  0  0  0  0
  161.1680  211.0350  147.3660 F   0  0  0  0  0  0  0  0  0  0  0  0
  161.6310  210.3800  148.4580 C   0  0  0  0  0  0  0  0  0  0  0  0
  161.2860  207.8510  152.8380 N   0  0  0  0  0  0  0  0  0  0  0  0
  161.2500  204.7540  150.9770 N   0  0  0  0  0  0  0  0  0  0  0  0
  162.1780  209.1210  150.9210 C   0  0  0  0  0  0  0  0  0  0  0  0
  161.2600  206.1760  151.0430 C   0  0  0  0  0  0  0  0  0  0  0  0
  161.2370  208.9780  148.6880 C   0  0  0  0  0  2  0  0  0  0  0  0
  161.3270  204.2050  152.2720 N   0  0  0  0  0  0  0  0  0  0  0  0
  162.4150  211.0190  149.3300 C   0  0  0  0  0  3  0  0  0  0  0  0
  163.0030  210.3120  150.5200 C   0  0  0  0  0  2  0  0  0  0  0  0
  161.4880  208.3570  149.8450 C   0  0  0  0  0  0  0  0  0  0  0  0
  160.7250  202.6200  149.8750 C   0  0  0  0  0  3  0  0  0  0  0  0
  161.0350  202.3380  147.4910 C   0  0  0  0  0  3  0  0  0  0  0  0
  161.4900  203.6560  147.3950 C   0  0  0  0  0  3  0  0  0  0  0  0
  161.5620  204.4550  148.5410 C   0  0  0  0  0  3  0  0  0  0  0  0
  161.1790  203.9440  149.7910 C   0  0  0  0  0  0  0  0  0  0  0  0
  160.6520  201.8200  148.7310 C   0  0  0  0  0  3  0  0  0  0  0  0
  159.6700  208.5410  156.7180 C   0  0  0  0  0  3  0  0  0  0  0  0
  160.7200  208.0810  154.1470 C   0  0  0  0  0  0  0  0  0  0  0  0
  160.4680  209.3890  154.5970 C   0  0  0  0  0  3  0  0  0  0  0  0
  159.9420  209.6180  155.8710 C   0  0  0  0  0  3  0  0  0  0  0  0
  159.9240  207.2360  156.2900 C   0  0  0  0  0  3  0  0  0  0  0  0
  160.4490  207.0080  155.0140 C   0  0  0  0  0  3  0  0  0  0  0  0
  1  7  1  0  0  0  0
  2  7  1  0  0  0  0
  2  4  1  0  0  0  0
  3 10  1  0  0  0  0
  5  6  1  0  0  0  0
  6 11  1  0  0  0  0
  6 13  2  0  0  0  0
  7 23  1  0  0  0  0
  8 10  1  0  0  0  0
  8 12  1  0  0  0  0
  9  1  1  0  0  0  0
 10  2  2  0  0  0  0
 11 15  1  0  0  0  0
 12  4  2  0  0  0  0
 13 14  1  0  0  0  0
 14  9  1  0  0  0  0
 15  3  1  0  0  0  0
 15  9  2  0  0  0  0
 17 21  1  0  0  0  0
 18 17  2  0  0  0  0
 18 19  1  0  0  0  0
 19 20  2  0  0  0  0
 20 16  1  0  0  0  0
 20  8  1  0  0  0  0
 21 16  2  0  0  0  0
 23 24  2  0  0  0  0
 23 27  1  0  0  0  0
 24 25  1  0  0  0  0
 25 22  2  0  0  0  0
 26 22  1  0  0  0  0
 27 26  2  0  0  0  0
M  END
>  <MODEL>
3

>  <REMARK>
 VINA RESULT:      -7.5      2.683      6.733
  Name = 
  2 active torsions:
  status: ('A' for Active; 'I' for Inactive)
    1  A    between atoms: C_9  and  N_15
    2  A    between atoms: C_14  and  N_17
                            x       y       z     vdW  Elec       q    Type
                         _______ _______ _______ _____ _____    ______ ____

>  <TORSDO>
F 2

$$$$
=
 OpenBabel11052423203D

 27 31  0  0  0  0  0  0  0  0999 V2000
  162.5650  208.6010  148.4380 C   0  0  0  0  0  2  0  0  0  0  0  0
  161.8780  209.7640  150.5310 C   0  0  0  0  0  0  0  0  0  0  0  0
  160.9350  207.5530  150.8780 O   0  0  0  0  0  0  0  0  0  0  0  0
  162.1470  210.8950  151.3490 N   0  0  0  0  0  0  0  0  0  0  0  0
  160.2260  203.7730  148.0510 F   0  0  0  0  0  0  0  0  0  0  0  0
  161.0010  204.8460  148.3370 C   0  0  0  0  0  0  0  0  0  0  0  0
  162.0230  209.7520  149.1040 N   0  0  0  0  0  0  0  0  0  0  0  0
  161.3490  209.2800  152.6220 N   0  0  0  0  0  0  0  0  0  0  0  0
  162.2810  207.3290  148.7150 C   0  0  0  0  0  0  0  0  0  0  0  0
  161.4020  208.8040  151.2820 C   0  0  0  0  0  0  0  0  0  0  0  0
  160.6770  205.6870  149.5040 C   0  0  0  0  0  2  0  0  0  0  0  0
  161.8240  210.6040  152.6890 N   0  0  0  0  0  0  0  0  0  0  0  0
  162.0310  205.1490  147.5440 C   0  0  0  0  0  3  0  0  0  0  0  0
  162.9550  206.2920  147.8620 C   0  0  0  0  0  2  0  0  0  0  0  0
  161.2730  206.8670  149.7090 C   0  0  0  0  0  0  0  0  0  0  0  0
  160.3960  209.2590  154.8890 C   0  0  0  0  0  3  0  0  0  0  0  0
  159.9980  207.1740  156.0530 C   0  0  0  0  0  3  0  0  0  0  0  0
  160.4900  206.4660  154.9540 C   0  0  0  0  0  3  0  0  0  0  0  0
  160.9350  207.1560  153.8220 C   0  0  0  0  0  3  0  0  0  0  0  0
  160.8920  208.5580  153.7790 C   0  0  0  0  0  0  0  0  0  0  0  0
  159.9500  208.5700  156.0210 C   0  0  0  0  0  3  0  0  0  0  0  0
  161.6690  213.4080  146.9490 C   0  0  0  0  0  3  0  0  0  0  0  0
  161.9070  210.9820  148.3570 C   0  0  0  0  0  0  0  0  0  0  0  0
  162.9930  211.8710  148.2680 C   0  0  0  0  0  3  0  0  0  0  0  0
  162.8770  213.0740  147.5660 C   0  0  0  0  0  3  0  0  0  0  0  0
  160.5780  212.5410  147.0360 C   0  0  0  0  0  3  0  0  0  0  0  0
  160.6940  211.3380  147.7380 C   0  0  0  0  0  3  0  0  0  0  0  0
  1  9  1  0  0  0  0
  1  7  1  0  0  0  0
  2 10  2  0  0  0  0
  2  4  1  0  0  0  0
  3 10  1  0  0  0  0
  4 12  2  0  0  0  0
  5  6  1  0  0  0  0
  6 11  1  0  0  0  0
  7  2  1  0  0  0  0
  8 12  1  0  0  0  0
  8 20  1  0  0  0  0
  9 15  2  0  0  0  0
 10  8  1  0  0  0  0
 11 15  1  0  0  0  0
 13 14  1  0  0  0  0
 13  6  2  0  0  0  0
 14  9  1  0  0  0  0
 15  3  1  0  0  0  0
 16 21  1  0  0  0  0
 18 17  1  0  0  0  0
 19 18  2  0  0  0  0
 20 19  1  0  0  0  0
 20 16  2  0  0  0  0
 21 17  2  0  0  0  0
 22 26  2  0  0  0  0
 22 25  1  0  0  0  0
 23  7  1  0  0  0  0
 24 23  1  0  0  0  0
 25 24  2  0  0  0  0
 26 27  1  0  0  0  0
 27 23  2  0  0  0  0
M  END
>  <MODEL>
4

>  <REMARK>
 VINA RESULT:      -7.0      2.682      7.166
  Name = 
  2 active torsions:
  status: ('A' for Active; 'I' for Inactive)
    1  A    between atoms: C_9  and  N_15
    2  A    between atoms: C_14  and  N_17
                            x       y       z     vdW  Elec       q    Type
                         _______ _______ _______ _____ _____    ______ ____

>  <TORSDO>
F 2

$$$$
=
 OpenBabel11052423203D

 27 31  0  0  0  0  0  0  0  0999 V2000
  160.6280  207.3610  151.2560 C   0  0  0  0  0  2  0  0  0  0  0  0
  160.9660  209.8210  151.4500 C   0  0  0  0  0  0  0  0  0  0  0  0
  161.9790  209.3660  149.2910 O   0  0  0  0  0  0  0  0  0  0  0  0
  160.5270  210.9810  152.1440 N   0  0  0  0  0  0  0  0  0  0  0  0
  163.2680  205.3760  147.0110 F   0  0  0  0  0  0  0  0  0  0  0  0
  162.4020  205.9610  147.8720 C   0  0  0  0  0  0  0  0  0  0  0  0
  161.0110  208.5090  152.0280 N   0  0  0  0  0  0  0  0  0  0  0  0
  161.2410  211.5840  150.1460 N   0  0  0  0  0  0  0  0  0  0  0  0
  160.9440  207.1320  149.9820 C   0  0  0  0  0  0  0  0  0  0  0  0
  161.3920  210.1740  150.2650 C   0  0  0  0  0  0  0  0  0  0  0  0
  162.5200  207.4030  148.1570 C   0  0  0  0  0  2  0  0  0  0  0  0
  160.6860  212.1170  151.3270 N   0  0  0  0  0  0  0  0  0  0  0  0
  161.4700  205.2220  148.4780 C   0  0  0  0  0  3  0  0  0  0  0  0
  160.4490  205.8420  149.3910 C   0  0  0  0  0  2  0  0  0  0  0  0
  161.8370  207.9830  149.1490 C   0  0  0  0  0  0  0  0  0  0  0  0
  160.7420  213.4560  148.6320 C   0  0  0  0  0  3  0  0  0  0  0  0
  162.2200  214.0000  146.7930 C   0  0  0  0  0  3  0  0  0  0  0  0
  163.0630  212.9480  147.1610 C   0  0  0  0  0  3  0  0  0  0  0  0
  162.7440  212.1510  148.2650 C   0  0  0  0  0  3  0  0  0  0  0  0
  161.5810  212.3980  149.0110 C   0  0  0  0  0  0  0  0  0  0  0  0
  161.0600  214.2540  147.5290 C   0  0  0  0  0  3  0  0  0  0  0  0
  161.3810  208.0640  156.2480 C   0  0  0  0  0  3  0  0  0  0  0  0
  161.1550  208.3550  153.4570 C   0  0  0  0  0  0  0  0  0  0  0  0
  160.8310  207.1370  154.0820 C   0  0  0  0  0  3  0  0  0  0  0  0
  160.9470  206.9910  155.4670 C   0  0  0  0  0  3  0  0  0  0  0  0
  161.6970  209.2840  155.6440 C   0  0  0  0  0  3  0  0  0  0  0  0
  161.5810  209.4290  154.2590 C   0  0  0  0  0  3  0  0  0  0  0  0
  1  7  1  0  0  0  0
  2  7  1  0  0  0  0
  2  4  1  0  0  0  0
  3 10  1  0  0  0  0
  5  6  1  0  0  0  0
  6 11  1  0  0  0  0
  6 13  2  0  0  0  0
  7 23  1  0  0  0  0
  8 10  1  0  0  0  0
  8 12  1  0  0  0  0
  9  1  1  0  0  0  0
 10  2  2  0  0  0  0
 11 15  1  0  0  0  0
 12  4  2  0  0  0  0
 13 14  1  0  0  0  0
 14  9  1  0  0  0  0
 15  3  1  0  0  0  0
 15  9  2  0  0  0  0
 16 20  1  0  0  0  0
 17 18  2  0  0  0  0
 17 21  1  0  0  0  0
 18 19  1  0  0  0  0
 19 20  2  0  0  0  0
 20  8  1  0  0  0  0
 21 16  2  0  0  0  0
 23 24  2  0  0  0  0
 23 27  1  0  0  0  0
 24 25  1  0  0  0  0
 25 22  2  0  0  0  0
 26 22  1  0  0  0  0
 27 26  2  0  0  0  0
M  END
>  <MODEL>
5

>  <REMARK>
 VINA RESULT:      -6.7      2.872      5.141
  Name = 
  2 active torsions:
  status: ('A' for Active; 'I' for Inactive)
    1  A    between atoms: C_9  and  N_15
    2  A    between atoms: C_14  and  N_17
                            x       y       z     vdW  Elec       q    Type
                         _______ _______ _______ _____ _____    ______ ____

>  <TORSDO>
F 2

$$$$
=
 OpenBabel11052423203D

 27 31  0  0  0  0  0  0  0  0999 V2000
  162.3070  209.6400  151.0020 C   0  0  0  0  0  2  0  0  0  0  0  0
  161.6570  207.2800  150.5420 C   0  0  0  0  0  0  0  0  0  0  0  0
  161.2390  208.3220  148.3890 O   0  0  0  0  0  0  0  0  0  0  0  0
  161.7860  205.9480  151.0190 N   0  0  0  0  0  0  0  0  0  0  0  0
  160.9830  212.8470  146.8910 F   0  0  0  0  0  0  0  0  0  0  0  0
  161.5500  211.9670  147.7500 C   0  0  0  0  0  0  0  0  0  0  0  0
  161.6260  208.4370  151.3890 N   0  0  0  0  0  0  0  0  0  0  0  0
  161.4990  205.8860  148.8330 N   0  0  0  0  0  0  0  0  0  0  0  0
  162.3280  210.1710  149.7800 C   0  0  0  0  0  0  0  0  0  0  0  0
  161.4840  207.2490  149.2450 C   0  0  0  0  0  0  0  0  0  0  0  0
  161.2060  210.5360  147.6590 C   0  0  0  0  0  2  0  0  0  0  0  0
  161.6960  205.0430  149.9440 N   0  0  0  0  0  0  0  0  0  0  0  0
  162.3910  212.4060  148.6900 C   0  0  0  0  0  3  0  0  0  0  0  0
  163.0910  211.4550  149.6220 C   0  0  0  0  0  2  0  0  0  0  0  0
  161.5660  209.6630  148.6060 C   0  0  0  0  0  0  0  0  0  0  0  0
  161.7230  204.0700  147.1920 C   0  0  0  0  0  3  0  0  0  0  0  0
  161.0620  204.3860  144.8840 C   0  0  0  0  0  3  0  0  0  0  0  0
  160.6830  205.7000  145.1740 C   0  0  0  0  0  3  0  0  0  0  0  0
  160.8240  206.1970  146.4730 C   0  0  0  0  0  3  0  0  0  0  0  0
  161.3460  205.3870  147.4940 C   0  0  0  0  0  0  0  0  0  0  0  0
  161.5810  203.5710  145.8930 C   0  0  0  0  0  3  0  0  0  0  0  0
  160.3260  208.1020  155.4310 C   0  0  0  0  0  3  0  0  0  0  0  0
  161.1670  208.3200  152.7540 C   0  0  0  0  0  0  0  0  0  0  0  0
  160.8350  209.4660  153.4980 C   0  0  0  0  0  3  0  0  0  0  0  0
  160.4140  209.3580  154.8260 C   0  0  0  0  0  3  0  0  0  0  0  0
  160.6620  206.9550  154.7090 C   0  0  0  0  0  3  0  0  0  0  0  0
  161.0830  207.0630  153.3800 C   0  0  0  0  0  3  0  0  0  0  0  0
  1  7  1  0  0  0  0
  2  4  1  0  0  0  0
  2  7  1  0  0  0  0
  3 15  1  0  0  0  0
  3 10  1  0  0  0  0
  5  6  1  0  0  0  0
  6 13  2  0  0  0  0
  7 23  1  0  0  0  0
  8 10  1  0  0  0  0
  8 12  1  0  0  0  0
  9  1  1  0  0  0  0
 10  2  2  0  0  0  0
 11  6  1  0  0  0  0
 11 15  1  0  0  0  0
 12  4  2  0  0  0  0
 13 14  1  0  0  0  0
 14  9  1  0  0  0  0
 15  9  2  0  0  0  0
 16 20  1  0  0  0  0
 17 18  2  0  0  0  0
 17 21  1  0  0  0  0
 18 19  1  0  0  0  0
 19 20  2  0  0  0  0
 20  8  1  0  0  0  0
 21 16  2  0  0  0  0
 23 27  2  0  0  0  0
 23 24  1  0  0  0  0
 24 25  2  0  0  0  0
 25 22  1  0  0  0  0
 26 22  2  0  0  0  0
 27 26  1  0  0  0  0
M  END
>  <MODEL>
6

>  <REMARK>
 VINA RESULT:      -6.5      2.840      6.173
  Name = 
  2 active torsions:
  status: ('A' for Active; 'I' for Inactive)
    1  A    between atoms: C_9  and  N_15
    2  A    between atoms: C_14  and  N_17
                            x       y       z     vdW  Elec       q    Type
                         _______ _______ _______ _____ _____    ______ ____

>  <TORSDO>
F 2

$$$$
=
 OpenBabel11052423203D

 27 31  0  0  0  0  0  0  0  0999 V2000
  160.7020  210.3340  151.5710 C   0  0  0  0  0  2  0  0  0  0  0  0
  161.2390  208.5740  149.8920 C   0  0  0  0  0  0  0  0  0  0  0  0
  161.4770  207.3430  151.9720 O   0  0  0  0  0  0  0  0  0  0  0  0
  161.1200  208.2350  148.5170 N   0  0  0  0  0  0  0  0  0  0  0  0
  161.7130  208.6150  156.5670 F   0  0  0  0  0  0  0  0  0  0  0  0
  161.2070  208.8840  155.3390 C   0  0  0  0  0  0  0  0  0  0  0  0
  161.3840  209.9160  150.3790 N   0  0  0  0  0  0  0  0  0  0  0  0
  161.1930  206.3720  149.6970 N   0  0  0  0  0  0  0  0  0  0  0  0
  160.5790  209.6260  152.6930 C   0  0  0  0  0  0  0  0  0  0  0  0
  161.2850  207.4720  150.5960 C   0  0  0  0  0  0  0  0  0  0  0  0
  161.5020  207.9770  154.2150 C   0  0  0  0  0  2  0  0  0  0  0  0
  161.0810  206.8340  148.3710 N   0  0  0  0  0  0  0  0  0  0  0  0
  160.4740  209.9840  155.1520 C   0  0  0  0  0  3  0  0  0  0  0  0
  159.8400  210.2870  153.8220 C   0  0  0  0  0  2  0  0  0  0  0  0
  161.2100  208.3030  152.9520 C   0  0  0  0  0  0  0  0  0  0  0  0
  160.8310  204.0210  149.0780 C   0  0  0  0  0  3  0  0  0  0  0  0
  161.2080  202.2400  150.6730 C   0  0  0  0  0  3  0  0  0  0  0  0
  161.5800  203.1820  151.6360 C   0  0  0  0  0  3  0  0  0  0  0  0
  161.5780  204.5440  151.3180 C   0  0  0  0  0  3  0  0  0  0  0  0
  161.2030  204.9750  150.0360 C   0  0  0  0  0  0  0  0  0  0  0  0
  160.8340  202.6590  149.3940 C   0  0  0  0  0  3  0  0  0  0  0  0
  163.0670  212.8970  147.8450 C   0  0  0  0  0  3  0  0  0  0  0  0
  161.9680  210.9310  149.5330 C   0  0  0  0  0  0  0  0  0  0  0  0
  161.4080  212.2190  149.4710 C   0  0  0  0  0  3  0  0  0  0  0  0
  161.9560  213.1970  148.6360 C   0  0  0  0  0  3  0  0  0  0  0  0
  163.6290  211.6190  147.8880 C   0  0  0  0  0  3  0  0  0  0  0  0
  163.0810  210.6410  148.7230 C   0  0  0  0  0  3  0  0  0  0  0  0
  1  9  1  0  0  0  0
  2  7  1  0  0  0  0
  2 10  2  0  0  0  0
  3 15  1  0  0  0  0
  4  2  1  0  0  0  0
  6  5  1  0  0  0  0
  7  1  1  0  0  0  0
  8 20  1  0  0  0  0
  8 10  1  0  0  0  0
  9 15  2  0  0  0  0
  9 14  1  0  0  0  0
 10  3  1  0  0  0  0
 11  6  1  0  0  0  0
 12  4  2  0  0  0  0
 12  8  1  0  0  0  0
 13  6  2  0  0  0  0
 14 13  1  0  0  0  0
 15 11  1  0  0  0  0
 16 21  2  0  0  0  0
 16 20  1  0  0  0  0
 17 18  2  0  0  0  0
 19 18  1  0  0  0  0
 20 19  2  0  0  0  0
 21 17  1  0  0  0  0
 22 26  2  0  0  0  0
 22 25  1  0  0  0  0
 23  7  1  0  0  0  0
 24 23  1  0  0  0  0
 25 24  2  0  0  0  0
 26 27  1  0  0  0  0
 27 23  2  0  0  0  0
M  END
>  <MODEL>
7

>  <REMARK>
 VINA RESULT:      -6.0      1.328      6.245
  Name = 
  2 active torsions:
  status: ('A' for Active; 'I' for Inactive)
    1  A    between atoms: C_9  and  N_15
    2  A    between atoms: C_14  and  N_17
                            x       y       z     vdW  Elec       q    Type
                         _______ _______ _______ _____ _____    ______ ____

>  <TORSDO>
F 2

$$$$
=
 OpenBabel11052423203D

 27 31  0  0  0  0  0  0  0  0999 V2000
  161.8690  211.1420  140.3560 C   0  0  0  0  0  2  0  0  0  0  0  0
  159.6580  210.7770  139.2670 C   0  0  0  0  0  0  0  0  0  0  0  0
  159.0100  211.9630  141.2840 O   0  0  0  0  0  0  0  0  0  0  0  0
  159.0350  210.4550  138.0310 N   0  0  0  0  0  0  0  0  0  0  0  0
  161.2740  213.1090  145.3270 F   0  0  0  0  0  0  0  0  0  0  0  0
  161.3720  212.8990  143.9930 C   0  0  0  0  0  0  0  0  0  0  0  0
  160.9440  210.2850  139.6700 N   0  0  0  0  0  0  0  0  0  0  0  0
  157.6400  211.6770  139.2260 N   0  0  0  0  0  0  0  0  0  0  0  0
  161.5670  212.0040  141.3260 C   0  0  0  0  0  0  0  0  0  0  0  0
  158.8330  211.5000  139.9800 C   0  0  0  0  0  0  0  0  0  0  0  0
  160.1580  212.5900  143.2140 C   0  0  0  0  0  2  0  0  0  0  0  0
  157.7490  211.0270  137.9810 N   0  0  0  0  0  0  0  0  0  0  0  0
  162.5680  212.9420  143.4010 C   0  0  0  0  0  3  0  0  0  0  0  0
  162.7130  212.7790  141.9130 C   0  0  0  0  0  2  0  0  0  0  0  0
  160.2230  212.1690  141.9460 C   0  0  0  0  0  0  0  0  0  0  0  0
  155.2160  211.7690  139.6290 C   0  0  0  0  0  3  0  0  0  0  0  0
  154.1560  213.8090  140.3890 C   0  0  0  0  0  3  0  0  0  0  0  0
  155.3950  214.4530  140.3860 C   0  0  0  0  0  3  0  0  0  0  0  0
  156.5450  213.7550  140.0040 C   0  0  0  0  0  3  0  0  0  0  0  0
  156.4660  212.4060  139.6230 C   0  0  0  0  0  0  0  0  0  0  0  0
  154.0660  212.4660  140.0110 C   0  0  0  0  0  3  0  0  0  0  0  0
  162.3400  206.5780  138.1040 C   0  0  0  0  0  3  0  0  0  0  0  0
  161.4360  209.0330  139.1410 C   0  0  0  0  0  0  0  0  0  0  0  0
  161.5090  208.8230  137.7530 C   0  0  0  0  0  3  0  0  0  0  0  0
  161.9610  207.6050  137.2370 C   0  0  0  0  0  3  0  0  0  0  0  0
  162.2640  206.7670  139.4860 C   0  0  0  0  0  3  0  0  0  0  0  0
  161.8110  207.9860  140.0010 C   0  0  0  0  0  3  0  0  0  0  0  0
  1  9  1  0  0  0  0
  2  7  1  0  0  0  0
  2 10  2  0  0  0  0
  3 15  1  0  0  0  0
  4  2  1  0  0  0  0
  6  5  1  0  0  0  0
  7  1  1  0  0  0  0
  8 20  1  0  0  0  0
  8 10  1  0  0  0  0
  9 14  1  0  0  0  0
  9 15  2  0  0  0  0
 10  3  1  0  0  0  0
 11  6  1  0  0  0  0
 12  4  2  0  0  0  0
 12  8  1  0  0  0  0
 13  6  2  0  0  0  0
 14 13  1  0  0  0  0
 15 11  1  0  0  0  0
 16 21  1  0  0  0  0
 18 17  1  0  0  0  0
 19 18  2  0  0  0  0
 20 16  2  0  0  0  0
 20 19  1  0  0  0  0
 21 17  2  0  0  0  0
 22 26  1  0  0  0  0
 23  7  1  0  0  0  0
 23 27  1  0  0  0  0
 24 23  2  0  0  0  0
 25 24  1  0  0  0  0
 25 22  2  0  0  0  0
 26 27  2  0  0  0  0
M  END
>  <MODEL>
8

>  <REMARK>
 VINA RESULT:      -5.6      9.664     11.990
  Name = 
  2 active torsions:
  status: ('A' for Active; 'I' for Inactive)
    1  A    between atoms: C_9  and  N_15
    2  A    between atoms: C_14  and  N_17
                            x       y       z     vdW  Elec       q    Type
                         _______ _______ _______ _____ _____    ______ ____

>  <TORSDO>
F 2

$$$$
