=
 OpenBabel11062410393D

 32 37  0  0  1  0  0  0  0  0999 V2000
  161.3000  207.7950  149.1640 C   0  0  1  0  0  3  0  0  0  0  0  0
  161.1070  205.3640  153.4650 C   0  0  0  0  0  3  0  0  0  0  0  0
  161.3800  204.1680  152.8020 C   0  0  0  0  0  3  0  0  0  0  0  0
  162.1830  210.0650  149.4390 N   0  0  0  0  0  0  0  0  0  0  0  0
  160.8260  209.0400  151.3630 C   0  0  0  0  0  2  0  0  0  0  0  0
  161.4270  211.3410  151.2490 O   0  0  0  0  0  0  0  0  0  0  0  0
  161.0150  206.5570  152.7440 C   0  0  0  0  0  3  0  0  0  0  0  0
  161.1090  207.7370  150.6620 C   0  0  0  0  0  0  0  0  0  0  0  0
  161.1930  206.5740  151.3490 C   0  0  0  0  0  0  0  0  0  0  0  0
  161.6400  205.3000  149.3690 C   0  0  0  0  0  3  0  0  0  0  0  0
  161.5060  210.2090  150.7040 C   0  0  0  0  0  0  0  0  0  0  0  0
  161.5590  204.1630  151.4180 C   0  0  0  0  0  3  0  0  0  0  0  0
  161.4690  205.3510  150.6880 C   0  0  0  0  0  0  0  0  0  0  0  0
  162.4570  208.7440  148.8790 C   0  0  0  0  0  2  0  0  0  0  0  0
  161.5560  206.4820  148.5620 N   0  0  0  0  0  0  0  0  0  0  0  0
  161.6290  206.3860  147.1040 C   0  0  2  0  0  3  0  0  0  0  0  0
  160.2140  206.4300  146.4540 C   0  0  0  0  0  2  0  0  0  0  0  0
  161.4400  204.0830  146.6620 N   0  0  1  0  0  0  0  0  0  0  0  0
  161.2870  203.6410  145.2870 C   0  0  0  0  0  2  0  0  0  0  0  0
  160.5200  204.7170  144.5220 C   0  0  0  0  0  3  0  0  0  0  0  0
  162.6860  203.9720  147.2460 O   0  0  0  0  0  0  0  0  0  0  0  0
  160.1040  205.9180  145.0140 C   0  0  0  0  0  3  0  0  0  0  0  0
  163.1690  205.3360  145.4600 O   0  0  0  0  0  1  0  0  0  0  0  0
  162.4280  205.1710  146.6440 C   0  0  2  0  0  0  0  0  0  0  0  0
  162.5100  211.1980  148.6770 N   0  0  0  0  0  2  0  0  0  0  0  0
  161.4260  213.2680  148.5360 O   0  0  0  0  0  0  0  0  0  0  0  0
  161.2630  211.8820  148.3480 C   0  0  1  0  0  3  0  0  0  0  0  0
  161.3930  212.8290  147.1990 C   0  0  2  0  0  3  0  0  0  0  0  0
  162.7910  212.9430  146.6020 C   0  0  0  0  0  2  0  0  0  0  0  0
  162.7100  213.4790  145.2150 C   0  0  0  0  0  0  0  0  0  0  0  0
  163.4910  213.0490  144.3260 O   0  0  0  0  0  0  0  0  0  0  0  0
  161.7240  214.4510  144.8850 N   0  0  0  0  0  1  0  0  0  0  0  0
  1 14  1  1  0  0  0
  1  8  1  0  0  0  0
  3  2  1  0  0  0  0
  4 11  1  0  0  0  0
  7  2  2  0  0  0  0
  8  9  2  0  0  0  0
  8  5  1  0  0  0  0
  9  7  1  0  0  0  0
 10 13  2  0  0  0  0
 11  6  2  0  0  0  0
 11  5  1  0  0  0  0
 12  3  2  0  0  0  0
 13  9  1  0  0  0  0
 13 12  1  0  0  0  0
 14  4  1  0  0  0  0
 15  1  1  0  0  0  0
 15 10  1  0  0  0  0
 16 17  1  6  0  0  0
 16 15  1  0  0  0  0
 18 19  1  6  0  0  0
 18 21  1  0  0  0  0
 20 22  2  0  0  0  0
 20 19  1  0  0  0  0
 22 17  1  0  0  0  0
 24 23  1  6  0  0  0
 24 18  1  0  0  0  0
 24 16  1  0  0  0  0
 24 21  1  0  0  0  0
 25  4  1  0  0  0  0
 27 26  1  0  0  0  0
 27 25  1  1  0  0  0
 28 29  1  1  0  0  0
 28 27  1  0  0  0  0
 28 26  1  0  0  0  0
 30 29  1  0  0  0  0
 31 30  2  0  0  0  0
 32 30  1  0  0  0  0
M  END
>  <MODEL>
1

>  <REMARK>
 VINA RESULT:      -8.2      0.000      0.000
  Name = 
  5 active torsions:
  status: ('A' for Active; 'I' for Inactive)
    1  A    between atoms: C_1  and  C_10
    2  A    between atoms: C_6  and  N_31
    3  A    between atoms: N_8  and  N_23
    4  A    between atoms: C_10  and  C_24
    5  A    between atoms: C_19  and  N_23
                            x       y       z     vdW  Elec       q    Type
                         _______ _______ _______ _____ _____    ______ ____

>  <TORSDO>
F 5

$$$$
=
 OpenBabel11062410393D

 32 37  0  0  1  0  0  0  0  0999 V2000
  160.6480  209.4790  152.1910 C   0  0  1  0  0  3  0  0  0  0  0  0
  159.6960  209.8400  157.0290 C   0  0  0  0  0  3  0  0  0  0  0  0
  160.4240  208.6730  157.2610 C   0  0  0  0  0  3  0  0  0  0  0  0
  160.8620  211.6810  151.1380 N   0  0  0  0  0  0  0  0  0  0  0  0
  159.2480  211.4260  153.1190 C   0  0  0  0  0  2  0  0  0  0  0  0
  159.3150  213.3420  151.7080 O   0  0  0  0  0  0  0  0  0  0  0  0
  159.5620  210.3340  155.7290 C   0  0  0  0  0  3  0  0  0  0  0  0
  160.0230  210.1610  153.3860 C   0  0  0  0  0  0  0  0  0  0  0  0
  160.1530  209.6690  154.6390 C   0  0  0  0  0  0  0  0  0  0  0  0
  161.4660  207.8060  153.8990 C   0  0  0  0  0  3  0  0  0  0  0  0
  159.8140  212.2170  151.9700 C   0  0  0  0  0  0  0  0  0  0  0  0
  161.0180  207.9990  156.1930 C   0  0  0  0  0  3  0  0  0  0  0  0
  160.8900  208.4850  154.8880 C   0  0  0  0  0  0  0  0  0  0  0  0
  161.5880  210.4760  151.5260 C   0  0  0  0  0  2  0  0  0  0  0  0
  161.3690  208.2500  152.5390 N   0  0  0  0  0  0  0  0  0  0  0  0
  161.9070  207.4270  151.4560 C   0  0  2  0  0  3  0  0  0  0  0  0
  161.1790  207.7040  150.1080 C   0  0  0  0  0  2  0  0  0  0  0  0
  160.5550  205.5030  151.4570 N   0  0  1  0  0  0  0  0  0  0  0  0
  160.6960  204.5440  150.3750 C   0  0  0  0  0  2  0  0  0  0  0  0
  161.0870  205.3040  149.1110 C   0  0  0  0  0  3  0  0  0  0  0  0
  161.1490  205.2090  152.6680 O   0  0  0  0  0  0  0  0  0  0  0  0
  161.3320  206.6410  149.0140 C   0  0  0  0  0  3  0  0  0  0  0  0
  162.9780  205.1910  151.2770 O   0  0  0  0  0  1  0  0  0  0  0  0
  161.9130  205.9420  151.8050 C   0  0  2  0  0  0  0  0  0  0  0  0
  161.1410  212.2610  149.8900 N   0  0  0  0  0  2  0  0  0  0  0  0
  161.6210  211.1990  147.8600 O   0  0  0  0  0  0  0  0  0  0  0  0
  162.0600  211.3710  149.1870 C   0  0  1  0  0  3  0  0  0  0  0  0
  162.7490  212.0230  148.0330 C   0  0  2  0  0  3  0  0  0  0  0  0
  162.3530  213.4730  147.7700 C   0  0  0  0  0  2  0  0  0  0  0  0
  161.9050  213.6300  146.3580 C   0  0  0  0  0  0  0  0  0  0  0  0
  160.7720  214.1150  146.1070 O   0  0  0  0  0  0  0  0  0  0  0  0
  162.7760  213.2690  145.2920 N   0  0  0  0  0  1  0  0  0  0  0  0
  1 14  1  1  0  0  0
  1 15  1  0  0  0  0
  1  8  1  0  0  0  0
  2  3  1  0  0  0  0
  4 14  1  0  0  0  0
  4 11  1  0  0  0  0
  5  8  1  0  0  0  0
  6 11  2  0  0  0  0
  7  2  2  0  0  0  0
  8  9  2  0  0  0  0
  9 13  1  0  0  0  0
  9  7  1  0  0  0  0
 10 13  2  0  0  0  0
 11  5  1  0  0  0  0
 12  3  2  0  0  0  0
 13 12  1  0  0  0  0
 15 10  1  0  0  0  0
 16 17  1  6  0  0  0
 16 24  1  0  0  0  0
 16 15  1  0  0  0  0
 18 19  1  6  0  0  0
 18 24  1  0  0  0  0
 18 21  1  0  0  0  0
 20 19  1  0  0  0  0
 22 20  2  0  0  0  0
 22 17  1  0  0  0  0
 24 23  1  6  0  0  0
 24 21  1  0  0  0  0
 25  4  1  0  0  0  0
 26 28  1  0  0  0  0
 26 27  1  0  0  0  0
 27 25  1  1  0  0  0
 28 29  1  1  0  0  0
 28 27  1  0  0  0  0
 30 29  1  0  0  0  0
 31 30  2  0  0  0  0
 32 30  1  0  0  0  0
M  END
>  <MODEL>
2

>  <REMARK>
 VINA RESULT:      -7.1      2.880      4.194
  Name = 
  5 active torsions:
  status: ('A' for Active; 'I' for Inactive)
    1  A    between atoms: C_1  and  C_10
    2  A    between atoms: C_6  and  N_31
    3  A    between atoms: N_8  and  N_23
    4  A    between atoms: C_10  and  C_24
    5  A    between atoms: C_19  and  N_23
                            x       y       z     vdW  Elec       q    Type
                         _______ _______ _______ _____ _____    ______ ____

>  <TORSDO>
F 5

$$$$
=
 OpenBabel11062410393D

 32 37  0  0  1  0  0  0  0  0999 V2000
  161.8010  205.9230  149.3100 C   0  0  1  0  0  3  0  0  0  0  0  0
  161.9540  209.5840  152.6300 C   0  0  0  0  0  3  0  0  0  0  0  0
  161.9680  210.5210  151.5970 C   0  0  0  0  0  3  0  0  0  0  0  0
  160.5110  204.0060  150.1270 N   0  0  0  0  0  0  0  0  0  0  0  0
  161.8120  205.4180  151.8310 C   0  0  0  0  0  2  0  0  0  0  0  0
  160.8340  203.3080  152.3370 O   0  0  0  0  0  0  0  0  0  0  0  0
  161.9130  208.2190  152.3340 C   0  0  0  0  0  3  0  0  0  0  0  0
  161.8370  206.4450  150.7280 C   0  0  0  0  0  0  0  0  0  0  0  0
  161.8850  207.7690  151.0020 C   0  0  0  0  0  0  0  0  0  0  0  0
  161.8830  208.3690  148.6820 C   0  0  0  0  0  3  0  0  0  0  0  0
  161.0130  204.1980  151.4650 C   0  0  0  0  0  0  0  0  0  0  0  0
  161.9410  210.0950  150.2690 C   0  0  0  0  0  3  0  0  0  0  0  0
  161.9000  208.7320  149.9630 C   0  0  0  0  0  0  0  0  0  0  0  0
  160.5330  205.0940  149.1520 C   0  0  0  0  0  2  0  0  0  0  0  0
  161.8450  206.9880  148.3020 N   0  0  0  0  0  0  0  0  0  0  0  0
  161.9460  206.6080  146.8930 C   0  0  2  0  0  3  0  0  0  0  0  0
  160.5500  206.5780  146.2030 C   0  0  0  0  0  2  0  0  0  0  0  0
  161.6710  204.2720  146.8960 N   0  0  1  0  0  0  0  0  0  0  0  0
  161.5310  203.5790  145.6280 C   0  0  0  0  0  2  0  0  0  0  0  0
  160.8280  204.5140  144.6470 C   0  0  0  0  0  3  0  0  0  0  0  0
  162.8980  204.2300  147.5290 O   0  0  0  0  0  0  0  0  0  0  0  0
  160.4520  205.8020  144.8860 C   0  0  0  0  0  3  0  0  0  0  0  0
  163.4790  205.2040  145.5290 O   0  0  0  0  0  1  0  0  0  0  0  0
  162.7040  205.2980  146.6990 C   0  0  2  0  0  0  0  0  0  0  0  0
  160.0740  202.7390  149.7090 N   0  0  0  0  0  2  0  0  0  0  0  0
  160.7440  200.4970  149.7880 O   0  0  0  0  0  0  0  0  0  0  0  0
  161.2090  201.8260  149.8110 C   0  0  1  0  0  3  0  0  0  0  0  0
  161.3730  200.9490  148.6130 C   0  0  2  0  0  3  0  0  0  0  0  0
  160.3220  201.1300  147.5220 C   0  0  0  0  0  2  0  0  0  0  0  0
  160.7140  200.3660  146.3060 C   0  0  0  0  0  0  0  0  0  0  0  0
  161.5800  199.4560  146.3850 O   0  0  0  0  0  0  0  0  0  0  0  0
  160.0820  200.6380  145.0610 N   0  0  0  0  0  1  0  0  0  0  0  0
  1 14  1  1  0  0  0
  1  8  1  0  0  0  0
  3  2  1  0  0  0  0
  4 11  1  0  0  0  0
  7  2  2  0  0  0  0
  8  9  2  0  0  0  0
  8  5  1  0  0  0  0
  9  7  1  0  0  0  0
 10 13  2  0  0  0  0
 11  5  1  0  0  0  0
 11  6  2  0  0  0  0
 12  3  2  0  0  0  0
 13 12  1  0  0  0  0
 13  9  1  0  0  0  0
 14  4  1  0  0  0  0
 15 10  1  0  0  0  0
 15  1  1  0  0  0  0
 16 17  1  1  0  0  0
 16 15  1  0  0  0  0
 18 19  1  6  0  0  0
 18 21  1  0  0  0  0
 20 22  2  0  0  0  0
 20 19  1  0  0  0  0
 22 17  1  0  0  0  0
 24 23  1  6  0  0  0
 24 16  1  0  0  0  0
 24 18  1  0  0  0  0
 24 21  1  0  0  0  0
 25  4  1  0  0  0  0
 26 27  1  0  0  0  0
 27 25  1  6  0  0  0
 28 29  1  6  0  0  0
 28 26  1  0  0  0  0
 28 27  1  0  0  0  0
 30 31  2  0  0  0  0
 30 29  1  0  0  0  0
 32 30  1  0  0  0  0
M  END
>  <MODEL>
3

>  <REMARK>
 VINA RESULT:      -7.1      3.563      6.865
  Name = 
  5 active torsions:
  status: ('A' for Active; 'I' for Inactive)
    1  A    between atoms: C_1  and  C_10
    2  A    between atoms: C_6  and  N_31
    3  A    between atoms: N_8  and  N_23
    4  A    between atoms: C_10  and  C_24
    5  A    between atoms: C_19  and  N_23
                            x       y       z     vdW  Elec       q    Type
                         _______ _______ _______ _____ _____    ______ ____

>  <TORSDO>
F 5

$$$$
=
 OpenBabel11062410393D

 32 37  0  0  1  0  0  0  0  0999 V2000
  161.8760  209.7700  151.9800 C   0  0  1  0  0  3  0  0  0  0  0  0
  161.4850  204.8810  151.3500 C   0  0  0  0  0  3  0  0  0  0  0  0
  161.0830  204.7410  152.6780 C   0  0  0  0  0  3  0  0  0  0  0  0
  161.3110  211.0000  149.9380 N   0  0  0  0  0  0  0  0  0  0  0  0
  162.4010  208.6860  149.7080 C   0  0  0  0  0  2  0  0  0  0  0  0
  162.1390  210.2090  147.8970 O   0  0  0  0  0  0  0  0  0  0  0  0
  161.7850  206.1470  150.8410 C   0  0  0  0  0  3  0  0  0  0  0  0
  161.9740  208.5150  151.1440 C   0  0  0  0  0  0  0  0  0  0  0  0
  161.6890  207.2930  151.6500 C   0  0  0  0  0  0  0  0  0  0  0  0
  161.1760  208.1810  153.8160 C   0  0  0  0  0  3  0  0  0  0  0  0
  161.9310  209.9880  149.1190 C   0  0  0  0  0  0  0  0  0  0  0  0
  160.9810  205.8660  153.4980 C   0  0  0  0  0  3  0  0  0  0  0  0
  161.2790  207.1370  152.9980 C   0  0  0  0  0  0  0  0  0  0  0  0
  160.8830  210.7050  151.3030 C   0  0  0  0  0  2  0  0  0  0  0  0
  161.4700  209.5100  153.3660 N   0  0  0  0  0  0  0  0  0  0  0  0
  161.4650  210.6260  154.3120 C   0  0  2  0  0  3  0  0  0  0  0  0
  161.9920  210.1950  155.7120 C   0  0  0  0  0  2  0  0  0  0  0  0
  159.3720  210.4790  155.3760 N   0  0  1  0  0  0  0  0  0  0  0  0
  159.1030  211.3330  156.5190 C   0  0  0  0  0  2  0  0  0  0  0  0
  160.4170  211.5670  157.2610 C   0  0  0  0  0  3  0  0  0  0  0  0
  158.8390  210.8380  154.1540 O   0  0  0  0  0  0  0  0  0  0  0  0
  161.6480  211.1160  156.8880 C   0  0  0  0  0  3  0  0  0  0  0  0
  160.1170  212.6900  154.6280 O   0  0  0  0  0  1  0  0  0  0  0  0
  160.1010  211.3020  154.4010 C   0  0  2  0  0  0  0  0  0  0  0  0
  161.1900  212.3160  149.4670 N   0  0  0  0  0  2  0  0  0  0  0  0
  160.3560  214.4180  150.0750 O   0  0  0  0  0  0  0  0  0  0  0  0
  160.3740  213.0550  150.4270 C   0  0  1  0  0  3  0  0  0  0  0  0
  159.1750  213.7000  149.8110 C   0  0  2  0  0  3  0  0  0  0  0  0
  159.0320  213.5100  148.3050 C   0  0  0  0  0  2  0  0  0  0  0  0
  157.6260  213.1540  147.9680 C   0  0  0  0  0  0  0  0  0  0  0  0
  156.6850  213.5230  148.7180 O   0  0  0  0  0  0  0  0  0  0  0  0
  157.3430  212.4280  146.7770 N   0  0  0  0  0  1  0  0  0  0  0  0
  1 14  1  6  0  0  0
  1 15  1  0  0  0  0
  2  3  1  0  0  0  0
  3 12  2  0  0  0  0
  4 14  1  0  0  0  0
  5  8  1  0  0  0  0
  6 11  2  0  0  0  0
  7  2  2  0  0  0  0
  7  9  1  0  0  0  0
  8  9  2  0  0  0  0
  8  1  1  0  0  0  0
  9 13  1  0  0  0  0
 11  5  1  0  0  0  0
 11  4  1  0  0  0  0
 13 12  1  0  0  0  0
 13 10  2  0  0  0  0
 15 10  1  0  0  0  0
 16 15  1  6  0  0  0
 16 24  1  0  0  0  0
 16 17  1  0  0  0  0
 17 22  1  0  0  0  0
 18 19  1  1  0  0  0
 19 20  1  0  0  0  0
 21 24  1  0  0  0  0
 21 18  1  0  0  0  0
 22 20  2  0  0  0  0
 24 23  1  1  0  0  0
 24 18  1  0  0  0  0
 25  4  1  0  0  0  0
 26 27  1  0  0  0  0
 27 25  1  6  0  0  0
 28 29  1  6  0  0  0
 28 26  1  0  0  0  0
 28 27  1  0  0  0  0
 30 29  1  0  0  0  0
 30 31  2  0  0  0  0
 32 30  1  0  0  0  0
M  END
>  <MODEL>
4

>  <REMARK>
 VINA RESULT:      -7.0      3.765      6.917
  Name = 
  5 active torsions:
  status: ('A' for Active; 'I' for Inactive)
    1  A    between atoms: C_1  and  C_10
    2  A    between atoms: C_6  and  N_31
    3  A    between atoms: N_8  and  N_23
    4  A    between atoms: C_10  and  C_24
    5  A    between atoms: C_19  and  N_23
                            x       y       z     vdW  Elec       q    Type
                         _______ _______ _______ _____ _____    ______ ____

>  <TORSDO>
F 5

$$$$
=
 OpenBabel11062410393D

 32 37  0  0  1  0  0  0  0  0999 V2000
  162.0030  210.3100  149.8570 C   0  0  1  0  0  3  0  0  0  0  0  0
  159.7800  211.6160  154.0760 C   0  0  0  0  0  3  0  0  0  0  0  0
  159.2520  212.7450  153.4500 C   0  0  0  0  0  3  0  0  0  0  0  0
  162.1260  207.8760  149.6070 N   0  0  0  0  0  0  0  0  0  0  0  0
  162.2370  208.8680  151.9730 C   0  0  0  0  0  2  0  0  0  0  0  0
  162.7340  206.5950  151.4690 O   0  0  0  0  0  0  0  0  0  0  0  0
  160.5900  210.7330  153.3580 C   0  0  0  0  0  3  0  0  0  0  0  0
  161.6670  210.0980  151.3150 C   0  0  0  0  0  0  0  0  0  0  0  0
  160.8870  210.9640  152.0030 C   0  0  0  0  0  0  0  0  0  0  0  0
  160.5960  212.3950  150.1020 C   0  0  0  0  0  3  0  0  0  0  0  0
  162.3620  207.7100  151.0200 C   0  0  0  0  0  0  0  0  0  0  0  0
  159.5360  212.9930  152.1060 C   0  0  0  0  0  3  0  0  0  0  0  0
  160.3460  212.1160  151.3790 C   0  0  0  0  0  0  0  0  0  0  0  0
  161.5120  209.0930  149.0850 C   0  0  0  0  0  2  0  0  0  0  0  0
  161.4220  211.5370  149.3020 N   0  0  0  0  0  0  0  0  0  0  0  0
  161.7800  211.9230  147.9380 C   0  0  2  0  0  3  0  0  0  0  0  0
  162.7900  213.1090  147.9220 C   0  0  0  0  0  2  0  0  0  0  0  0
  160.2380  213.6120  147.3850 N   0  0  1  0  0  0  0  0  0  0  0  0
  160.4240  214.3580  146.1530 C   0  0  0  0  0  2  0  0  0  0  0  0
  161.9220  214.4530  145.8730 C   0  0  0  0  0  3  0  0  0  0  0  0
  159.2890  212.6090  147.4020 O   0  0  0  0  0  0  0  0  0  0  0  0
  162.9190  213.8840  146.6070 C   0  0  0  0  0  3  0  0  0  0  0  0
  160.6660  211.8690  145.7160 O   0  0  0  0  0  1  0  0  0  0  0  0
  160.5540  212.2110  147.0760 C   0  0  2  0  0  0  0  0  0  0  0  0
  162.5670  206.9030  148.6970 N   0  0  0  0  0  2  0  0  0  0  0  0
  162.2550  206.2300  146.4760 O   0  0  0  0  0  0  0  0  0  0  0  0
  161.6730  206.9410  147.5430 C   0  0  1  0  0  3  0  0  0  0  0  0
  161.1840  205.5910  147.1290 C   0  0  2  0  0  3  0  0  0  0  0  0
  161.7240  204.4210  147.9450 C   0  0  0  0  0  2  0  0  0  0  0  0
  161.2790  203.1330  147.3450 C   0  0  0  0  0  0  0  0  0  0  0  0
  161.2060  203.0120  146.0950 O   0  0  0  0  0  0  0  0  0  0  0  0
  160.9730  202.0260  148.1850 N   0  0  0  0  0  1  0  0  0  0  0  0
  1 14  1  6  0  0  0
  1  8  1  0  0  0  0
  3  2  1  0  0  0  0
  4 11  1  0  0  0  0
  7  2  2  0  0  0  0
  8  5  1  0  0  0  0
  8  9  2  0  0  0  0
  9  7  1  0  0  0  0
 10 13  2  0  0  0  0
 11  6  2  0  0  0  0
 11  5  1  0  0  0  0
 12  3  2  0  0  0  0
 13  9  1  0  0  0  0
 13 12  1  0  0  0  0
 14  4  1  0  0  0  0
 15  1  1  0  0  0  0
 15 10  1  0  0  0  0
 16 17  1  1  0  0  0
 16 15  1  0  0  0  0
 18 19  1  6  0  0  0
 18 21  1  0  0  0  0
 20 19  1  0  0  0  0
 20 22  2  0  0  0  0
 22 17  1  0  0  0  0
 24 23  1  6  0  0  0
 24 18  1  0  0  0  0
 24 21  1  0  0  0  0
 24 16  1  0  0  0  0
 25  4  1  0  0  0  0
 26 28  1  0  0  0  0
 26 27  1  0  0  0  0
 27 25  1  1  0  0  0
 28 27  1  0  0  0  0
 28 29  1  1  0  0  0
 30 29  1  0  0  0  0
 30 32  1  0  0  0  0
 31 30  2  0  0  0  0
M  END
>  <MODEL>
5

>  <REMARK>
 VINA RESULT:      -7.0      2.254      7.264
  Name = 
  5 active torsions:
  status: ('A' for Active; 'I' for Inactive)
    1  A    between atoms: C_1  and  C_10
    2  A    between atoms: C_6  and  N_31
    3  A    between atoms: N_8  and  N_23
    4  A    between atoms: C_10  and  C_24
    5  A    between atoms: C_19  and  N_23
                            x       y       z     vdW  Elec       q    Type
                         _______ _______ _______ _____ _____    ______ ____

>  <TORSDO>
F 5

$$$$
=
 OpenBabel11062410393D

 32 37  0  0  1  0  0  0  0  0999 V2000
  161.9080  208.9600  150.3880 C   0  0  1  0  0  3  0  0  0  0  0  0
  160.4920  209.9130  155.0280 C   0  0  0  0  0  3  0  0  0  0  0  0
  160.1850  211.2250  154.6660 C   0  0  0  0  0  3  0  0  0  0  0  0
  161.4270  206.6440  149.7460 N   0  0  0  0  0  0  0  0  0  0  0  0
  162.0060  207.1370  152.1990 C   0  0  0  0  0  2  0  0  0  0  0  0
  161.9000  204.9420  151.2810 O   0  0  0  0  0  0  0  0  0  0  0  0
  160.9940  209.0250  154.0750 C   0  0  0  0  0  3  0  0  0  0  0  0
  161.6790  208.5600  151.8280 C   0  0  0  0  0  0  0  0  0  0  0  0
  161.2000  209.4320  152.7440 C   0  0  0  0  0  0  0  0  0  0  0  0
  161.0640  211.2160  151.1500 C   0  0  0  0  0  3  0  0  0  0  0  0
  161.7580  206.1750  151.0690 C   0  0  0  0  0  0  0  0  0  0  0  0
  160.3820  211.6490  153.3510 C   0  0  0  0  0  3  0  0  0  0  0  0
  160.8850  210.7680  152.3900 C   0  0  0  0  0  0  0  0  0  0  0  0
  161.0680  208.0400  149.5110 C   0  0  0  0  0  2  0  0  0  0  0  0
  161.5790  210.3640  150.1190 N   0  0  0  0  0  0  0  0  0  0  0  0
  161.8790  210.9080  148.7950 C   0  0  2  0  0  3  0  0  0  0  0  0
  163.3170  211.5030  148.7300 C   0  0  0  0  0  2  0  0  0  0  0  0
  161.2620  213.1740  148.9420 N   0  0  1  0  0  0  0  0  0  0  0  0
  161.6020  214.0670  147.8490 C   0  0  0  0  0  2  0  0  0  0  0  0
  162.9090  213.5830  147.2240 C   0  0  0  0  0  3  0  0  0  0  0  0
  159.9640  212.7100  149.0240 O   0  0  0  0  0  0  0  0  0  0  0  0
  163.6090  212.4690  147.5770 C   0  0  0  0  0  3  0  0  0  0  0  0
  160.5690  211.9320  146.9470 O   0  0  0  0  0  1  0  0  0  0  0  0
  160.8280  211.9110  148.3290 C   0  0  2  0  0  0  0  0  0  0  0  0
  161.5320  205.7840  148.6420 N   0  0  0  0  0  2  0  0  0  0  0  0
  162.2780  206.6240  146.5880 O   0  0  0  0  0  0  0  0  0  0  0  0
  161.1690  206.5470  147.4520 C   0  0  1  0  0  3  0  0  0  0  0  0
  161.2500  205.7510  146.1910 C   0  0  2  0  0  3  0  0  0  0  0  0
  161.7250  204.3110  146.3560 C   0  0  0  0  0  2  0  0  0  0  0  0
  160.9470  203.4120  145.4580 C   0  0  0  0  0  0  0  0  0  0  0  0
  160.4020  203.8740  144.4230 O   0  0  0  0  0  0  0  0  0  0  0  0
  160.8540  202.0230  145.7510 N   0  0  0  0  0  1  0  0  0  0  0  0
  1 14  1  6  0  0  0
  1  8  1  0  0  0  0
  3  2  1  0  0  0  0
  4 11  1  0  0  0  0
  7  2  2  0  0  0  0
  8  5  1  0  0  0  0
  8  9  2  0  0  0  0
  9  7  1  0  0  0  0
 10 13  2  0  0  0  0
 11  6  2  0  0  0  0
 11  5  1  0  0  0  0
 12  3  2  0  0  0  0
 13  9  1  0  0  0  0
 13 12  1  0  0  0  0
 14  4  1  0  0  0  0
 15  1  1  0  0  0  0
 15 10  1  0  0  0  0
 16 17  1  1  0  0  0
 16 15  1  0  0  0  0
 18 19  1  6  0  0  0
 18 21  1  0  0  0  0
 20 22  2  0  0  0  0
 20 19  1  0  0  0  0
 22 17  1  0  0  0  0
 24 23  1  6  0  0  0
 24 16  1  0  0  0  0
 24 18  1  0  0  0  0
 24 21  1  0  0  0  0
 25  4  1  0  0  0  0
 26 27  1  0  0  0  0
 27 25  1  1  0  0  0
 28 29  1  1  0  0  0
 28 26  1  0  0  0  0
 28 27  1  0  0  0  0
 30 32  1  0  0  0  0
 30 29  1  0  0  0  0
 31 30  2  0  0  0  0
M  END
>  <MODEL>
6

>  <REMARK>
 VINA RESULT:      -6.8      2.006      6.915
  Name = 
  5 active torsions:
  status: ('A' for Active; 'I' for Inactive)
    1  A    between atoms: C_1  and  C_10
    2  A    between atoms: C_6  and  N_31
    3  A    between atoms: N_8  and  N_23
    4  A    between atoms: C_10  and  C_24
    5  A    between atoms: C_19  and  N_23
                            x       y       z     vdW  Elec       q    Type
                         _______ _______ _______ _____ _____    ______ ____

>  <TORSDO>
F 5

$$$$
=
 OpenBabel11062410393D

 32 37  0  0  1  0  0  0  0  0999 V2000
  160.8360  210.7480  151.4880 C   0  0  1  0  0  3  0  0  0  0  0  0
  160.0460  212.5250  156.0340 C   0  0  0  0  0  3  0  0  0  0  0  0
  160.8970  211.5540  156.5620 C   0  0  0  0  0  3  0  0  0  0  0  0
  160.7850  212.5200  149.7960 N   0  0  0  0  0  0  0  0  0  0  0  0
  159.2860  212.7640  151.8660 C   0  0  0  0  0  2  0  0  0  0  0  0
  159.1030  214.1410  149.9320 O   0  0  0  0  0  0  0  0  0  0  0  0
  159.8120  212.5740  154.6570 C   0  0  0  0  0  3  0  0  0  0  0  0
  160.1930  211.7160  152.4550 C   0  0  0  0  0  0  0  0  0  0  0  0
  160.4220  211.6530  153.7870 C   0  0  0  0  0  0  0  0  0  0  0  0
  161.8850  209.7680  153.5670 C   0  0  0  0  0  3  0  0  0  0  0  0
  159.7220  213.2000  150.4930 C   0  0  0  0  0  0  0  0  0  0  0  0
  161.5120  210.6310  155.7150 C   0  0  0  0  0  3  0  0  0  0  0  0
  161.2840  210.6720  154.3370 C   0  0  0  0  0  0  0  0  0  0  0  0
  161.6440  211.5610  150.4850 C   0  0  0  0  0  2  0  0  0  0  0  0
  161.6890  209.7540  152.1470 N   0  0  0  0  0  0  0  0  0  0  0  0
  162.2640  208.6810  151.3350 C   0  0  2  0  0  3  0  0  0  0  0  0
  161.8260  208.7910  149.8450 C   0  0  0  0  0  2  0  0  0  0  0  0
  160.6420  206.9790  151.3840 N   0  0  1  0  0  0  0  0  0  0  0  0
  160.8070  205.8240  150.5190 C   0  0  0  0  0  2  0  0  0  0  0  0
  161.5220  206.2780  149.2480 C   0  0  0  0  0  3  0  0  0  0  0  0
  160.9690  206.8440  152.7190 O   0  0  0  0  0  0  0  0  0  0  0  0
  161.9890  207.5310  148.9870 C   0  0  0  0  0  3  0  0  0  0  0  0
  162.9800  206.3330  151.7280 O   0  0  0  0  0  1  0  0  0  0  0  0
  161.9740  207.2990  151.9120 C   0  0  2  0  0  0  0  0  0  0  0  0
  160.9550  212.7010  148.4140 N   0  0  0  0  0  2  0  0  0  0  0  0
  163.1090  212.6760  147.4980 O   0  0  0  0  0  0  0  0  0  0  0  0
  162.1870  213.4600  148.2170 C   0  0  1  0  0  3  0  0  0  0  0  0
  162.4980  213.7200  146.7790 C   0  0  2  0  0  3  0  0  0  0  0  0
  161.5110  213.1260  145.7790 C   0  0  0  0  0  2  0  0  0  0  0  0
  162.0180  213.3140  144.3910 C   0  0  0  0  0  0  0  0  0  0  0  0
  161.2140  213.5540  143.4540 O   0  0  0  0  0  0  0  0  0  0  0  0
  163.4160  213.2600  144.1320 N   0  0  0  0  0  1  0  0  0  0  0  0
  1 14  1  6  0  0  0
  1 15  1  0  0  0  0
  1  8  1  0  0  0  0
  2  3  1  0  0  0  0
  4 14  1  0  0  0  0
  4 11  1  0  0  0  0
  5  8  1  0  0  0  0
  6 11  2  0  0  0  0
  7  2  2  0  0  0  0
  8  9  2  0  0  0  0
  9 13  1  0  0  0  0
  9  7  1  0  0  0  0
 10 13  2  0  0  0  0
 11  5  1  0  0  0  0
 12  3  2  0  0  0  0
 13 12  1  0  0  0  0
 15 10  1  0  0  0  0
 16 17  1  6  0  0  0
 16 24  1  0  0  0  0
 16 15  1  0  0  0  0
 18 19  1  6  0  0  0
 18 24  1  0  0  0  0
 18 21  1  0  0  0  0
 20 19  1  0  0  0  0
 22 20  2  0  0  0  0
 22 17  1  0  0  0  0
 24 23  1  6  0  0  0
 24 21  1  0  0  0  0
 25  4  1  0  0  0  0
 26 27  1  0  0  0  0
 27 25  1  6  0  0  0
 28 29  1  6  0  0  0
 28 26  1  0  0  0  0
 28 27  1  0  0  0  0
 30 29  1  0  0  0  0
 31 30  2  0  0  0  0
 32 30  1  0  0  0  0
M  END
>  <MODEL>
7

>  <REMARK>
 VINA RESULT:      -6.7      3.005      4.872
  Name = 
  5 active torsions:
  status: ('A' for Active; 'I' for Inactive)
    1  A    between atoms: C_1  and  C_10
    2  A    between atoms: C_6  and  N_31
    3  A    between atoms: N_8  and  N_23
    4  A    between atoms: C_10  and  C_24
    5  A    between atoms: C_19  and  N_23
                            x       y       z     vdW  Elec       q    Type
                         _______ _______ _______ _____ _____    ______ ____

>  <TORSDO>
F 5

$$$$
=
 OpenBabel11062410393D

 32 37  0  0  1  0  0  0  0  0999 V2000
  161.4200  208.9440  153.1140 C   0  0  1  0  0  3  0  0  0  0  0  0
  161.6750  204.8060  150.4200 C   0  0  0  0  0  3  0  0  0  0  0  0
  161.2750  204.0590  151.5280 C   0  0  0  0  0  3  0  0  0  0  0  0
  160.7300  210.8690  151.7630 N   0  0  0  0  0  0  0  0  0  0  0  0
  162.1140  209.0210  150.6390 C   0  0  0  0  0  2  0  0  0  0  0  0
  161.6850  211.1400  149.6430 O   0  0  0  0  0  0  0  0  0  0  0  0
  161.8160  206.1920  150.5260 C   0  0  0  0  0  3  0  0  0  0  0  0
  161.6920  208.1970  151.8280 C   0  0  0  0  0  0  0  0  0  0  0  0
  161.5600  206.8540  151.7400 C   0  0  0  0  0  0  0  0  0  0  0  0
  160.9040  206.6490  154.0360 C   0  0  0  0  0  3  0  0  0  0  0  0
  161.4880  210.3890  150.6340 C   0  0  0  0  0  0  0  0  0  0  0  0
  161.0160  204.6970  152.7420 C   0  0  0  0  0  3  0  0  0  0  0  0
  161.1540  206.0830  152.8580 C   0  0  0  0  0  0  0  0  0  0  0  0
  160.3240  209.9650  152.8350 C   0  0  0  0  0  2  0  0  0  0  0  0
  161.0300  208.0650  154.2210 N   0  0  0  0  0  0  0  0  0  0  0  0
  160.8660  208.6510  155.5520 C   0  0  2  0  0  3  0  0  0  0  0  0
  159.4690  209.3180  155.7170 C   0  0  0  0  0  2  0  0  0  0  0  0
  161.5770  210.8800  155.2980 N   0  0  1  0  0  0  0  0  0  0  0  0
  161.3710  211.8120  156.3930 C   0  0  0  0  0  2  0  0  0  0  0  0
  160.0990  211.4070  157.1330 C   0  0  0  0  0  3  0  0  0  0  0  0
  162.8400  210.3500  155.1230 O   0  0  0  0  0  0  0  0  0  0  0  0
  159.3190  210.3210  156.8660 C   0  0  0  0  0  3  0  0  0  0  0  0
  162.3720  209.6470  157.2610 O   0  0  0  0  0  1  0  0  0  0  0  0
  161.9990  209.6100  155.9050 C   0  0  2  0  0  0  0  0  0  0  0  0
  160.4470  212.2380  151.8950 N   0  0  0  0  0  2  0  0  0  0  0  0
  158.8590  213.7090  152.7860 O   0  0  0  0  0  0  0  0  0  0  0  0
  159.1230  212.3570  152.4990 C   0  0  1  0  0  3  0  0  0  0  0  0
  158.1720  213.1710  151.6830 C   0  0  2  0  0  3  0  0  0  0  0  0
  158.7490  213.7580  150.3990 C   0  0  0  0  0  2  0  0  0  0  0  0
  157.8670  213.4270  149.2460 C   0  0  0  0  0  0  0  0  0  0  0  0
  156.6340  213.2480  149.4260 O   0  0  0  0  0  0  0  0  0  0  0  0
  158.4110  213.3500  147.9340 N   0  0  0  0  0  1  0  0  0  0  0  0
  1 14  1  6  0  0  0
  1 15  1  0  0  0  0
  2  7  2  0  0  0  0
  2  3  1  0  0  0  0
  3 12  2  0  0  0  0
  4 25  1  0  0  0  0
  4 14  1  0  0  0  0
  5  8  1  0  0  0  0
  6 11  2  0  0  0  0
  7  9  1  0  0  0  0
  8  1  1  0  0  0  0
  9  8  2  0  0  0  0
  9 13  1  0  0  0  0
 10 15  1  0  0  0  0
 11  5  1  0  0  0  0
 11  4  1  0  0  0  0
 12 13  1  0  0  0  0
 13 10  2  0  0  0  0
 16 15  1  6  0  0  0
 16 17  1  0  0  0  0
 16 24  1  0  0  0  0
 17 22  1  0  0  0  0
 18 24  1  0  0  0  0
 18 19  1  1  0  0  0
 19 20  1  0  0  0  0
 21 18  1  0  0  0  0
 21 24  1  0  0  0  0
 22 20  2  0  0  0  0
 24 23  1  1  0  0  0
 27 25  1  6  0  0  0
 27 26  1  0  0  0  0
 28 29  1  6  0  0  0
 28 27  1  0  0  0  0
 28 26  1  0  0  0  0
 30 31  2  0  0  0  0
 30 29  1  0  0  0  0
 32 30  1  0  0  0  0
M  END
>  <MODEL>
8

>  <REMARK>
 VINA RESULT:      -6.7      4.134      7.095
  Name = 
  5 active torsions:
  status: ('A' for Active; 'I' for Inactive)
    1  A    between atoms: C_1  and  C_10
    2  A    between atoms: C_6  and  N_31
    3  A    between atoms: N_8  and  N_23
    4  A    between atoms: C_10  and  C_24
    5  A    between atoms: C_19  and  N_23
                            x       y       z     vdW  Elec       q    Type
                         _______ _______ _______ _____ _____    ______ ____

>  <TORSDO>
F 5

$$$$
=
 OpenBabel11062410393D

 32 37  0  0  1  0  0  0  0  0999 V2000
  161.1370  206.9810  149.5030 C   0  0  1  0  0  3  0  0  0  0  0  0
  160.8850  203.2990  152.7930 C   0  0  0  0  0  3  0  0  0  0  0  0
  161.1070  202.3720  151.7750 C   0  0  0  0  0  3  0  0  0  0  0  0
  162.1070  209.0090  150.4770 N   0  0  0  0  0  0  0  0  0  0  0  0
  160.7270  207.4640  151.9940 C   0  0  0  0  0  2  0  0  0  0  0  0
  161.4150  209.6570  152.6170 O   0  0  0  0  0  0  0  0  0  0  0  0
  160.8330  204.6630  152.4970 C   0  0  0  0  0  3  0  0  0  0  0  0
  160.9560  206.4480  150.9050 C   0  0  0  0  0  0  0  0  0  0  0  0
  161.0000  205.1240  151.1790 C   0  0  0  0  0  0  0  0  0  0  0  0
  161.3830  204.5420  148.8850 C   0  0  0  0  0  3  0  0  0  0  0  0
  161.4460  208.7600  151.7340 C   0  0  0  0  0  0  0  0  0  0  0  0
  161.2750  202.8080  150.4600 C   0  0  0  0  0  3  0  0  0  0  0  0
  161.2240  204.1710  150.1530 C   0  0  0  0  0  0  0  0  0  0  0  0
  162.3270  207.9310  149.5170 C   0  0  0  0  0  2  0  0  0  0  0  0
  161.3380  205.9240  148.5050 N   0  0  0  0  0  0  0  0  0  0  0  0
  161.3960  206.3010  147.0930 C   0  0  2  0  0  3  0  0  0  0  0  0
  159.9940  206.2240  146.4190 C   0  0  0  0  0  2  0  0  0  0  0  0
  161.7310  204.2680  145.9590 N   0  0  1  0  0  0  0  0  0  0  0  0
  161.6510  204.2490  144.5090 C   0  0  0  0  0  2  0  0  0  0  0  0
  160.6390  205.3060  144.0730 C   0  0  0  0  0  3  0  0  0  0  0  0
  162.9830  204.2660  146.5410 O   0  0  0  0  0  0  0  0  0  0  0  0
  159.9700  206.1700  144.8880 C   0  0  0  0  0  3  0  0  0  0  0  0
  163.0970  206.1870  145.2830 O   0  0  0  0  0  1  0  0  0  0  0  0
  162.4410  205.5010  146.3220 C   0  0  2  0  0  0  0  0  0  0  0  0
  162.4720  210.3150  150.1150 N   0  0  0  0  0  2  0  0  0  0  0  0
  161.5810  212.4790  150.1870 O   0  0  0  0  0  0  0  0  0  0  0  0
  161.2510  211.1160  150.0690 C   0  0  1  0  0  3  0  0  0  0  0  0
  161.2000  212.0490  148.9030 C   0  0  2  0  0  3  0  0  0  0  0  0
  162.4270  212.0310  147.9970 C   0  0  0  0  0  2  0  0  0  0  0  0
  162.1570  212.8130  146.7590 C   0  0  0  0  0  0  0  0  0  0  0  0
  163.1140  213.2540  146.0710 O   0  0  0  0  0  0  0  0  0  0  0  0
  160.8160  213.0290  146.3330 N   0  0  0  0  0  1  0  0  0  0  0  0
  1 14  1  1  0  0  0
  1  8  1  0  0  0  0
  3  2  1  0  0  0  0
  4 11  1  0  0  0  0
  7  2  2  0  0  0  0
  8  9  2  0  0  0  0
  8  5  1  0  0  0  0
  9  7  1  0  0  0  0
 10 13  2  0  0  0  0
 11  5  1  0  0  0  0
 11  6  2  0  0  0  0
 12  3  2  0  0  0  0
 13 12  1  0  0  0  0
 13  9  1  0  0  0  0
 14  4  1  0  0  0  0
 15 10  1  0  0  0  0
 15  1  1  0  0  0  0
 16 17  1  6  0  0  0
 16 15  1  0  0  0  0
 18 19  1  6  0  0  0
 18 24  1  0  0  0  0
 18 21  1  0  0  0  0
 20 19  1  0  0  0  0
 20 22  2  0  0  0  0
 22 17  1  0  0  0  0
 24 23  1  6  0  0  0
 24 21  1  0  0  0  0
 24 16  1  0  0  0  0
 25  4  1  0  0  0  0
 27 25  1  6  0  0  0
 27 26  1  0  0  0  0
 28 29  1  6  0  0  0
 28 27  1  0  0  0  0
 28 26  1  0  0  0  0
 30 29  1  0  0  0  0
 31 30  2  0  0  0  0
 32 30  1  0  0  0  0
M  END
>  <MODEL>
9

>  <REMARK>
 VINA RESULT:      -6.4      1.139      1.469
  Name = 
  5 active torsions:
  status: ('A' for Active; 'I' for Inactive)
    1  A    between atoms: C_1  and  C_10
    2  A    between atoms: C_6  and  N_31
    3  A    between atoms: N_8  and  N_23
    4  A    between atoms: C_10  and  C_24
    5  A    between atoms: C_19  and  N_23
                            x       y       z     vdW  Elec       q    Type
                         _______ _______ _______ _____ _____    ______ ____

>  <TORSDO>
F 5

$$$$
