=
 OpenBabel11062408153D

 32 35  0  0  1  0  0  0  0  0999 V2000
  160.9650  209.8620  153.6210 C   0  0  1  0  0  3  0  0  0  0  0  0
  161.3400  208.1230  151.7690 C   0  0  0  0  0  0  0  0  0  0  0  0
  161.1600  209.9850  155.1410 C   0  0  0  0  0  2  0  0  0  0  0  0
  160.7580  208.4040  153.1430 C   0  0  1  0  0  3  0  0  0  0  0  0
  161.6010  206.7890  151.3960 C   0  0  0  0  0  0  0  0  0  0  0  0
  161.9570  208.8620  149.5330 C   0  0  0  0  0  0  0  0  0  0  0  0
  162.2430  207.5290  149.1620 C   0  0  0  0  0  0  0  0  0  0  0  0
  161.3040  207.3940  154.1690 C   0  0  2  0  0  3  0  0  0  0  0  0
  162.0490  206.5080  150.0990 C   0  0  0  0  0  3  0  0  0  0  0  0
  161.2060  205.9820  153.6700 C   0  0  0  0  0  3  0  0  0  0  0  0
  160.6190  207.5350  155.5310 C   0  0  0  0  0  2  0  0  0  0  0  0
  161.5040  209.1420  150.8240 C   0  0  0  0  0  3  0  0  0  0  0  0
  161.3910  205.6940  152.3780 C   0  0  0  0  0  0  0  0  0  0  0  0
  160.2800  208.9880  155.8930 C   0  0  0  0  0  2  0  0  0  0  0  0
  162.0890  209.9140  148.6350 O   0  0  0  0  0  1  0  0  0  0  0  0
  160.3080  204.0590  150.8780 C   0  0  0  0  0  1  0  0  0  0  0  0
  161.3630  204.2640  151.9490 C   0  0  0  0  0  2  0  0  0  0  0  0
  158.7210  210.2610  152.9820 O   0  0  0  0  0  0  0  0  0  0  0  0
  159.8330  210.7360  153.1660 C   0  0  0  0  0  0  0  0  0  0  0  0
  157.9590  214.3200  151.5300 S   0  0  0  0  0  0  0  0  0  0  0  0
  157.7970  213.3050  153.0520 C   0  0  0  0  0  2  0  0  0  0  0  0
  159.7170  213.9530  151.1450 C   0  0  1  0  0  3  0  0  0  0  0  0
  160.0800  212.2030  152.9420 C   0  0  1  0  0  3  0  0  0  0  0  0
  160.0570  212.4970  151.4370 C   0  0  0  0  0  2  0  0  0  0  0  0
  159.1370  213.1210  153.7480 C   0  0  2  0  0  3  0  0  0  0  0  0
  158.9470  212.6760  155.1890 C   0  0  0  0  0  1  0  0  0  0  0  0
  158.9660  214.4390  148.8210 O   0  0  0  0  0  0  0  0  0  0  0  0
  161.2010  214.4140  149.3240 O   0  0  0  0  0  1  0  0  0  0  0  0
  160.0130  214.2790  149.7200 C   0  0  0  0  0  0  0  0  0  0  0  0
  162.7040  207.1580  147.8900 O   0  0  0  0  0  0  0  0  0  0  0  0
  161.9630  206.3920  146.9470 C   0  0  0  0  0  2  0  0  0  0  0  0
  162.6930  205.0980  146.6400 C   0  0  0  0  0  1  0  0  0  0  0  0
  1 19  1  1  0  0  0
  1  3  1  0  0  0  0
  3 14  1  0  0  0  0
  4  2  1  6  0  0  0
  4  1  1  0  0  0  0
  4  8  1  0  0  0  0
  5  2  1  0  0  0  0
  5 13  1  0  0  0  0
  6 12  1  0  0  0  0
  7  6  2  0  0  0  0
  7  9  1  0  0  0  0
  8 10  1  6  0  0  0
  8 11  1  0  0  0  0
  9  5  2  0  0  0  0
 11 14  1  0  0  0  0
 12  2  2  0  0  0  0
 13 10  2  0  0  0  0
 15  6  1  0  0  0  0
 16 17  1  0  0  0  0
 17 13  1  0  0  0  0
 18 19  2  0  0  0  0
 20 21  1  0  0  0  0
 21 25  1  0  0  0  0
 22 29  1  6  0  0  0
 22 24  1  0  0  0  0
 22 20  1  0  0  0  0
 23 19  1  6  0  0  0
 23 25  1  0  0  0  0
 24 23  1  0  0  0  0
 25 26  1  1  0  0  0
 27 29  2  0  0  0  0
 28 29  1  0  0  0  0
 30  7  1  0  0  0  0
 31 30  1  0  0  0  0
 32 31  1  0  0  0  0
M  END
>  <MODEL>
1

>  <REMARK>
 VINA RESULT:      -8.2      0.000      0.000
  Name = 
  6 active torsions:
  status: ('A' for Active; 'I' for Inactive)
    1  A    between atoms: C_1  and  C_27
    2  A    between atoms: C_9  and  O_11
    3  A    between atoms: O_11  and  C_12
    4  A    between atoms: C_15  and  C_26
    5  A    between atoms: C_16  and  C_27
    6  A    between atoms: C_25  and  C_29
                            x       y       z     vdW  Elec       q    Type
                         _______ _______ _______ _____ _____    ______ ____

>  <TORSDO>
F 6

$$$$
=
 OpenBabel11062408153D

 32 35  0  0  1  0  0  0  0  0999 V2000
  161.3340  210.0740  154.7720 C   0  0  1  0  0  3  0  0  0  0  0  0
  161.2590  208.7230  152.5910 C   0  0  0  0  0  0  0  0  0  0  0  0
  161.6210  209.8370  156.2640 C   0  0  0  0  0  2  0  0  0  0  0  0
  160.8120  208.8150  154.0380 C   0  0  1  0  0  3  0  0  0  0  0  0
  161.2250  207.4710  151.9420 C   0  0  0  0  0  0  0  0  0  0  0  0
  161.9060  209.7830  150.4970 C   0  0  0  0  0  0  0  0  0  0  0  0
  161.8980  208.5270  149.8490 C   0  0  0  0  0  0  0  0  0  0  0  0
  161.1900  207.5270  154.7950 C   0  0  2  0  0  3  0  0  0  0  0  0
  161.5450  207.3890  150.5810 C   0  0  0  0  0  3  0  0  0  0  0  0
  160.7840  206.2960  154.0400 C   0  0  0  0  0  3  0  0  0  0  0  0
  160.6140  207.5070  156.2130 C   0  0  0  0  0  2  0  0  0  0  0  0
  161.5810  209.8670  151.8530 C   0  0  0  0  0  3  0  0  0  0  0  0
  160.8450  206.2550  152.7050 C   0  0  0  0  0  0  0  0  0  0  0  0
  160.5940  208.8890  156.8810 C   0  0  0  0  0  2  0  0  0  0  0  0
  162.2060  210.9550  149.8140 O   0  0  0  0  0  1  0  0  0  0  0  0
  161.7340  204.0920  151.9120 C   0  0  0  0  0  1  0  0  0  0  0  0
  160.5070  204.9780  152.0080 C   0  0  0  0  0  2  0  0  0  0  0  0
  160.7090  212.3520  154.9330 O   0  0  0  0  0  0  0  0  0  0  0  0
  160.3820  211.2210  154.6000 C   0  0  0  0  0  0  0  0  0  0  0  0
  156.3850  212.9480  154.3210 S   0  0  0  0  0  0  0  0  0  0  0  0
  158.0290  213.2590  153.5640 C   0  0  0  0  0  2  0  0  0  0  0  0
  156.5820  211.1570  154.6720 C   0  0  1  0  0  3  0  0  0  0  0  0
  159.0210  210.9660  154.0110 C   0  0  1  0  0  3  0  0  0  0  0  0
  157.9940  210.8350  155.1420 C   0  0  0  0  0  2  0  0  0  0  0  0
  158.6060  211.9970  152.9400 C   0  0  2  0  0  3  0  0  0  0  0  0
  159.7190  212.3320  151.9600 C   0  0  0  0  0  1  0  0  0  0  0  0
  155.4660  211.4160  156.8840 O   0  0  0  0  0  1  0  0  0  0  0  0
  154.8430  209.7200  155.4760 O   0  0  0  0  0  0  0  0  0  0  0  0
  155.5830  210.7170  155.6900 C   0  0  0  0  0  0  0  0  0  0  0  0
  162.2130  208.3510  148.4930 O   0  0  0  0  0  0  0  0  0  0  0  0
  162.4030  207.0920  147.8590 C   0  0  0  0  0  2  0  0  0  0  0  0
  161.1040  206.6260  147.2270 C   0  0  0  0  0  1  0  0  0  0  0  0
  1 19  1  1  0  0  0
  1  3  1  0  0  0  0
  3 14  1  0  0  0  0
  4  2  1  6  0  0  0
  4  1  1  0  0  0  0
  4  8  1  0  0  0  0
  5  2  1  0  0  0  0
  5 13  1  0  0  0  0
  6 12  1  0  0  0  0
  7  6  2  0  0  0  0
  7  9  1  0  0  0  0
  8 10  1  6  0  0  0
  8 11  1  0  0  0  0
  9  5  2  0  0  0  0
 11 14  1  0  0  0  0
 12  2  2  0  0  0  0
 13 10  2  0  0  0  0
 15  6  1  0  0  0  0
 16 17  1  0  0  0  0
 17 13  1  0  0  0  0
 19 18  2  0  0  0  0
 20 22  1  0  0  0  0
 21 20  1  0  0  0  0
 22 24  1  0  0  0  0
 22 29  1  1  0  0  0
 23 19  1  1  0  0  0
 23 24  1  0  0  0  0
 25 26  1  1  0  0  0
 25 21  1  0  0  0  0
 25 23  1  0  0  0  0
 28 29  2  0  0  0  0
 29 27  1  0  0  0  0
 30  7  1  0  0  0  0
 31 30  1  0  0  0  0
 32 31  1  0  0  0  0
M  END
>  <MODEL>
2

>  <REMARK>
 VINA RESULT:      -7.9      1.987      3.449
  Name = 
  6 active torsions:
  status: ('A' for Active; 'I' for Inactive)
    1  A    between atoms: C_1  and  C_27
    2  A    between atoms: C_9  and  O_11
    3  A    between atoms: O_11  and  C_12
    4  A    between atoms: C_15  and  C_26
    5  A    between atoms: C_16  and  C_27
    6  A    between atoms: C_25  and  C_29
                            x       y       z     vdW  Elec       q    Type
                         _______ _______ _______ _____ _____    ______ ____

>  <TORSDO>
F 6

$$$$
=
 OpenBabel11062408153D

 32 35  0  0  1  0  0  0  0  0999 V2000
  162.0250  206.7390  151.5960 C   0  0  1  0  0  3  0  0  0  0  0  0
  161.4570  205.2130  149.6120 C   0  0  0  0  0  0  0  0  0  0  0  0
  162.4420  206.6040  153.0700 C   0  0  0  0  0  2  0  0  0  0  0  0
  161.2090  205.5320  151.0740 C   0  0  1  0  0  3  0  0  0  0  0  0
  161.1290  203.9310  149.1250 C   0  0  0  0  0  0  0  0  0  0  0  0
  162.0250  205.9180  147.3510 C   0  0  0  0  0  0  0  0  0  0  0  0
  161.7210  204.6270  146.8630 C   0  0  0  0  0  0  0  0  0  0  0  0
  161.4430  204.2800  151.9390 C   0  0  2  0  0  3  0  0  0  0  0  0
  161.2650  203.6540  147.7580 C   0  0  0  0  0  3  0  0  0  0  0  0
  160.7410  203.0760  151.3820 C   0  0  0  0  0  3  0  0  0  0  0  0
  161.0450  204.5100  153.4000 C   0  0  0  0  0  2  0  0  0  0  0  0
  161.8840  206.1970  148.7120 C   0  0  0  0  0  3  0  0  0  0  0  0
  160.6360  202.8900  150.0630 C   0  0  0  0  0  0  0  0  0  0  0  0
  161.3460  205.9320  153.8950 C   0  0  0  0  0  2  0  0  0  0  0  0
  162.4410  206.9390  146.5060 O   0  0  0  0  0  1  0  0  0  0  0  0
  161.0560  200.6930  149.0180 C   0  0  0  0  0  1  0  0  0  0  0  0
  159.9990  201.6360  149.5620 C   0  0  0  0  0  2  0  0  0  0  0  0
  160.0520  208.0200  151.3260 O   0  0  0  0  0  0  0  0  0  0  0  0
  161.2740  208.0210  151.3810 C   0  0  0  0  0  0  0  0  0  0  0  0
  160.7240  212.2680  150.5490 S   0  0  0  0  0  0  0  0  0  0  0  0
  160.4470  211.1400  151.9710 C   0  0  0  0  0  2  0  0  0  0  0  0
  162.0890  211.3480  149.7340 C   0  0  1  0  0  3  0  0  0  0  0  0
  162.0400  209.3070  151.2350 C   0  0  1  0  0  3  0  0  0  0  0  0
  161.8670  209.8440  149.8100 C   0  0  0  0  0  2  0  0  0  0  0  0
  161.7030  210.3550  152.3170 C   0  0  2  0  0  3  0  0  0  0  0  0
  161.6150  209.7720  153.7170 C   0  0  0  0  0  1  0  0  0  0  0  0
  161.1170  211.7740  147.4810 O   0  0  0  0  0  0  0  0  0  0  0  0
  163.3430  212.1580  147.8630 O   0  0  0  0  0  1  0  0  0  0  0  0
  162.2290  211.7820  148.3140 C   0  0  0  0  0  0  0  0  0  0  0  0
  161.8360  204.2600  145.5140 O   0  0  0  0  0  0  0  0  0  0  0  0
  160.8460  204.4900  144.5200 C   0  0  0  0  0  2  0  0  0  0  0  0
  161.2890  205.6040  143.5900 C   0  0  0  0  0  1  0  0  0  0  0  0
  1 19  1  1  0  0  0
  1  3  1  0  0  0  0
  3 14  1  0  0  0  0
  4  2  1  6  0  0  0
  4  1  1  0  0  0  0
  4  8  1  0  0  0  0
  5  2  1  0  0  0  0
  5 13  1  0  0  0  0
  6 12  1  0  0  0  0
  7  6  2  0  0  0  0
  7  9  1  0  0  0  0
  8 10  1  6  0  0  0
  8 11  1  0  0  0  0
  9  5  2  0  0  0  0
 11 14  1  0  0  0  0
 12  2  2  0  0  0  0
 13 10  2  0  0  0  0
 15  6  1  0  0  0  0
 16 17  1  0  0  0  0
 17 13  1  0  0  0  0
 18 19  2  0  0  0  0
 20 21  1  0  0  0  0
 21 25  1  0  0  0  0
 22 29  1  6  0  0  0
 22 24  1  0  0  0  0
 22 20  1  0  0  0  0
 23 19  1  1  0  0  0
 23 25  1  0  0  0  0
 24 23  1  0  0  0  0
 25 26  1  1  0  0  0
 27 29  2  0  0  0  0
 28 29  1  0  0  0  0
 30  7  1  0  0  0  0
 31 30  1  0  0  0  0
 32 31  1  0  0  0  0
M  END
>  <MODEL>
3

>  <REMARK>
 VINA RESULT:      -7.7      2.171      3.711
  Name = 
  6 active torsions:
  status: ('A' for Active; 'I' for Inactive)
    1  A    between atoms: C_1  and  C_27
    2  A    between atoms: C_9  and  O_11
    3  A    between atoms: O_11  and  C_12
    4  A    between atoms: C_15  and  C_26
    5  A    between atoms: C_16  and  C_27
    6  A    between atoms: C_25  and  C_29
                            x       y       z     vdW  Elec       q    Type
                         _______ _______ _______ _____ _____    ______ ____

>  <TORSDO>
F 6

$$$$
=
 OpenBabel11062408153D

 32 35  0  0  1  0  0  0  0  0999 V2000
  162.2230  207.3460  149.5140 C   0  0  1  0  0  3  0  0  0  0  0  0
  161.2300  207.8120  151.8350 C   0  0  0  0  0  0  0  0  0  0  0  0
  163.0480  208.0820  148.4460 C   0  0  0  0  0  2  0  0  0  0  0  0
  161.3830  208.2930  150.4040 C   0  0  1  0  0  3  0  0  0  0  0  0
  160.8730  208.7390  152.8360 C   0  0  0  0  0  0  0  0  0  0  0  0
  161.0830  206.0080  153.4640 C   0  0  0  0  0  0  0  0  0  0  0  0
  160.7490  206.9360  154.4750 C   0  0  0  0  0  0  0  0  0  0  0  0
  161.9440  209.7280  150.3830 C   0  0  2  0  0  3  0  0  0  0  0  0
  160.6380  208.2900  154.1420 C   0  0  0  0  0  3  0  0  0  0  0  0
  161.2040  210.6320  151.3250 C   0  0  0  0  0  3  0  0  0  0  0  0
  161.9590  210.3150  148.9690 C   0  0  0  0  0  2  0  0  0  0  0  0
  161.3120  206.4520  152.1600 C   0  0  0  0  0  3  0  0  0  0  0  0
  160.7440  210.1780  152.4950 C   0  0  0  0  0  0  0  0  0  0  0  0
  162.2830  209.2790  147.8840 C   0  0  0  0  0  2  0  0  0  0  0  0
  161.1670  204.6450  153.7220 O   0  0  0  0  0  1  0  0  0  0  0  0
  158.7370  211.5630  152.8810 C   0  0  0  0  0  1  0  0  0  0  0  0
  160.0860  211.1390  153.4290 C   0  0  0  0  0  2  0  0  0  0  0  0
  160.1990  206.5740  148.5570 O   0  0  0  0  0  0  0  0  0  0  0  0
  161.3490  206.3060  148.8740 C   0  0  0  0  0  0  0  0  0  0  0  0
  160.3410  202.4770  147.0420 S   0  0  0  0  0  0  0  0  0  0  0  0
  160.8420  204.1440  146.4590 C   0  0  0  0  0  2  0  0  0  0  0  0
  161.1400  202.5150  148.6950 C   0  0  1  0  0  3  0  0  0  0  0  0
  161.9050  204.9300  148.6260 C   0  0  1  0  0  3  0  0  0  0  0  0
  161.0270  203.8920  149.3350 C   0  0  0  0  0  2  0  0  0  0  0  0
  162.1250  204.6110  147.1320 C   0  0  2  0  0  3  0  0  0  0  0  0
  162.7640  205.7520  146.3580 C   0  0  0  0  0  1  0  0  0  0  0  0
  159.2220  201.0870  149.3880 O   0  0  0  0  0  0  0  0  0  0  0  0
  161.2160  200.9520  150.5070 O   0  0  0  0  0  1  0  0  0  0  0  0
  160.5400  201.4780  149.5840 C   0  0  0  0  0  0  0  0  0  0  0  0
  160.5050  206.5780  155.8100 O   0  0  0  0  0  0  0  0  0  0  0  0
  160.2830  207.4970  156.8720 C   0  0  0  0  0  2  0  0  0  0  0  0
  161.5760  208.2090  157.2230 C   0  0  0  0  0  1  0  0  0  0  0  0
  1 19  1  6  0  0  0
  1  4  1  0  0  0  0
  2 12  2  0  0  0  0
  2  5  1  0  0  0  0
  3  1  1  0  0  0  0
  4  2  1  1  0  0  0
  5  9  2  0  0  0  0
  6 15  1  0  0  0  0
  6  7  2  0  0  0  0
  7 30  1  0  0  0  0
  8 11  1  6  0  0  0
  8  4  1  0  0  0  0
  8 10  1  0  0  0  0
  9  7  1  0  0  0  0
 10 13  2  0  0  0  0
 12  6  1  0  0  0  0
 13  5  1  0  0  0  0
 13 17  1  0  0  0  0
 14  3  1  0  0  0  0
 14 11  1  0  0  0  0
 16 17  1  0  0  0  0
 18 19  2  0  0  0  0
 20 22  1  0  0  0  0
 21 20  1  0  0  0  0
 21 25  1  0  0  0  0
 22 24  1  0  0  0  0
 22 29  1  1  0  0  0
 23 19  1  6  0  0  0
 23 24  1  0  0  0  0
 25 26  1  6  0  0  0
 25 23  1  0  0  0  0
 27 29  2  0  0  0  0
 29 28  1  0  0  0  0
 30 31  1  0  0  0  0
 31 32  1  0  0  0  0
M  END
>  <MODEL>
4

>  <REMARK>
 VINA RESULT:      -6.3      3.588      8.459
  Name = 
  6 active torsions:
  status: ('A' for Active; 'I' for Inactive)
    1  A    between atoms: C_1  and  C_27
    2  A    between atoms: C_9  and  O_11
    3  A    between atoms: O_11  and  C_12
    4  A    between atoms: C_15  and  C_26
    5  A    between atoms: C_16  and  C_27
    6  A    between atoms: C_25  and  C_29
                            x       y       z     vdW  Elec       q    Type
                         _______ _______ _______ _____ _____    ______ ____

>  <TORSDO>
F 6

$$$$
=
 OpenBabel11062408153D

 32 35  0  0  1  0  0  0  0  0999 V2000
  161.6320  206.8150  152.8880 C   0  0  1  0  0  3  0  0  0  0  0  0
  161.4260  207.8530  150.5490 C   0  0  0  0  0  0  0  0  0  0  0  0
  161.9640  205.4530  153.5180 C   0  0  0  0  0  2  0  0  0  0  0  0
  161.0370  206.7060  151.4630 C   0  0  1  0  0  3  0  0  0  0  0  0
  161.3220  207.6820  149.1530 C   0  0  0  0  0  0  0  0  0  0  0  0
  162.0360  210.1860  150.2100 C   0  0  0  0  0  0  0  0  0  0  0  0
  161.9570  210.0120  148.8110 C   0  0  0  0  0  0  0  0  0  0  0  0
  161.3930  205.3580  150.8080 C   0  0  2  0  0  3  0  0  0  0  0  0
  161.5890  208.7620  148.3020 C   0  0  0  0  0  3  0  0  0  0  0  0
  160.9140  205.2830  149.3880 C   0  0  0  0  0  3  0  0  0  0  0  0
  160.8690  204.1710  151.6190 C   0  0  0  0  0  2  0  0  0  0  0  0
  161.7650  209.1110  151.0600 C   0  0  0  0  0  3  0  0  0  0  0  0
  160.9250  206.3630  148.5990 C   0  0  0  0  0  0  0  0  0  0  0  0
  160.9250  204.3990  153.1360 C   0  0  0  0  0  2  0  0  0  0  0  0
  162.3550  211.4130  150.7780 O   0  0  0  0  0  1  0  0  0  0  0  0
  161.6410  205.6030  146.3620 C   0  0  0  0  0  1  0  0  0  0  0  0
  160.5130  206.2140  147.1720 C   0  0  0  0  0  2  0  0  0  0  0  0
  159.7160  207.0740  154.2550 O   0  0  0  0  0  0  0  0  0  0  0  0
  160.7180  207.5970  153.7860 C   0  0  0  0  0  0  0  0  0  0  0  0
  159.0800  211.1470  155.7210 S   0  0  0  0  0  0  0  0  0  0  0  0
  159.8140  209.5530  156.2600 C   0  0  0  0  0  2  0  0  0  0  0  0
  159.9240  211.3010  154.0980 C   0  0  1  0  0  3  0  0  0  0  0  0
  161.0480  209.0290  154.1050 C   0  0  1  0  0  3  0  0  0  0  0  0
  160.0420  209.9510  153.4040 C   0  0  0  0  0  2  0  0  0  0  0  0
  161.1720  209.3150  155.6160 C   0  0  2  0  0  3  0  0  0  0  0  0
  161.9560  208.2530  156.3700 C   0  0  0  0  0  1  0  0  0  0  0  0
  157.9170  212.6800  153.5750 O   0  0  0  0  0  1  0  0  0  0  0  0
  159.7350  212.7240  152.1820 O   0  0  0  0  0  0  0  0  0  0  0  0
  159.1980  212.2710  153.2270 C   0  0  0  0  0  0  0  0  0  0  0  0
  162.2150  211.0350  147.8850 O   0  0  0  0  0  0  0  0  0  0  0  0
  161.2960  212.0590  147.5260 C   0  0  0  0  0  2  0  0  0  0  0  0
  161.8610  213.4180  147.8920 C   0  0  0  0  0  1  0  0  0  0  0  0
  1  3  1  0  0  0  0
  1 19  1  1  0  0  0
  2 12  1  0  0  0  0
  4  2  1  6  0  0  0
  4  1  1  0  0  0  0
  5  2  2  0  0  0  0
  6 15  1  0  0  0  0
  6 12  2  0  0  0  0
  7  6  1  0  0  0  0
  8 10  1  6  0  0  0
  8  4  1  0  0  0  0
  8 11  1  0  0  0  0
  9  7  2  0  0  0  0
  9  5  1  0  0  0  0
 11 14  1  0  0  0  0
 13  5  1  0  0  0  0
 13 10  2  0  0  0  0
 14  3  1  0  0  0  0
 16 17  1  0  0  0  0
 17 13  1  0  0  0  0
 19 18  2  0  0  0  0
 20 21  1  0  0  0  0
 22 29  1  6  0  0  0
 22 20  1  0  0  0  0
 23 19  1  1  0  0  0
 23 25  1  0  0  0  0
 24 22  1  0  0  0  0
 24 23  1  0  0  0  0
 25 21  1  0  0  0  0
 25 26  1  1  0  0  0
 28 29  2  0  0  0  0
 29 27  1  0  0  0  0
 30  7  1  0  0  0  0
 31 30  1  0  0  0  0
 31 32  1  0  0  0  0
M  END
>  <MODEL>
5

>  <REMARK>
 VINA RESULT:      -6.3      2.005      4.246
  Name = 
  6 active torsions:
  status: ('A' for Active; 'I' for Inactive)
    1  A    between atoms: C_1  and  C_27
    2  A    between atoms: C_9  and  O_11
    3  A    between atoms: O_11  and  C_12
    4  A    between atoms: C_15  and  C_26
    5  A    between atoms: C_16  and  C_27
    6  A    between atoms: C_25  and  C_29
                            x       y       z     vdW  Elec       q    Type
                         _______ _______ _______ _____ _____    ______ ____

>  <TORSDO>
F 6

$$$$
=
 OpenBabel11062408153D

 32 35  0  0  1  0  0  0  0  0999 V2000
  161.8600  204.2010  150.3990 C   0  0  1  0  0  3  0  0  0  0  0  0
  161.4670  203.9220  147.8780 C   0  0  0  0  0  0  0  0  0  0  0  0
  162.1400  203.3170  151.6260 C   0  0  0  0  0  2  0  0  0  0  0  0
  161.0880  203.4680  149.2760 C   0  0  1  0  0  3  0  0  0  0  0  0
  161.1770  203.0820  146.7830 C   0  0  0  0  0  0  0  0  0  0  0  0
  162.2420  205.6450  146.3420 C   0  0  0  0  0  0  0  0  0  0  0  0
  161.9770  204.7970  145.2430 C   0  0  0  0  0  0  0  0  0  0  0  0
  161.2360  201.9400  149.3970 C   0  0  2  0  0  3  0  0  0  0  0  0
  161.4360  203.5290  145.4810 C   0  0  0  0  0  3  0  0  0  0  0  0
  160.5810  201.2220  148.2540 C   0  0  0  0  0  3  0  0  0  0  0  0
  160.7080  201.4190  150.7370 C   0  0  0  0  0  2  0  0  0  0  0  0
  161.9790  205.2030  147.6400 C   0  0  0  0  0  3  0  0  0  0  0  0
  160.5950  201.7360  147.0200 C   0  0  0  0  0  0  0  0  0  0  0  0
  160.9700  202.3760  151.9070 C   0  0  0  0  0  2  0  0  0  0  0  0
  162.7400  206.9300  146.1690 O   0  0  0  0  0  1  0  0  0  0  0  0
  160.8470  199.7160  145.6220 C   0  0  0  0  0  1  0  0  0  0  0  0
  160.0000  200.9430  145.9040 C   0  0  0  0  0  2  0  0  0  0  0  0
  159.9160  205.4850  150.8230 O   0  0  0  0  0  0  0  0  0  0  0  0
  161.1390  205.4510  150.8110 C   0  0  0  0  0  0  0  0  0  0  0  0
  160.6760  209.6060  152.0580 S   0  0  0  0  0  0  0  0  0  0  0  0
  160.4610  207.9510  152.8230 C   0  0  0  0  0  2  0  0  0  0  0  0
  161.9480  209.1650  150.8100 C   0  0  1  0  0  3  0  0  0  0  0  0
  161.9360  206.6630  151.2100 C   0  0  1  0  0  3  0  0  0  0  0  0
  161.6810  207.7930  150.2060 C   0  0  0  0  0  2  0  0  0  0  0  0
  161.7110  207.0980  152.6740 C   0  0  2  0  0  3  0  0  0  0  0  0
  161.7020  205.9370  153.6540 C   0  0  0  0  0  1  0  0  0  0  0  0
  161.7330  211.5280  150.0520 O   0  0  0  0  0  1  0  0  0  0  0  0
  162.2940  209.8890  148.5540 O   0  0  0  0  0  0  0  0  0  0  0  0
  162.0030  210.2030  149.7380 C   0  0  0  0  0  0  0  0  0  0  0  0
  162.2140  205.1580  143.9080 O   0  0  0  0  0  0  0  0  0  0  0  0
  161.2750  205.8130  143.0640 C   0  0  0  0  0  2  0  0  0  0  0  0
  161.9390  206.2140  141.7600 C   0  0  0  0  0  1  0  0  0  0  0  0
  1 19  1  1  0  0  0
  1  3  1  0  0  0  0
  3 14  1  0  0  0  0
  4  2  1  6  0  0  0
  4  8  1  0  0  0  0
  4  1  1  0  0  0  0
  5 13  1  0  0  0  0
  5  2  2  0  0  0  0
  6 12  2  0  0  0  0
  7  9  2  0  0  0  0
  7  6  1  0  0  0  0
  8 10  1  6  0  0  0
  8 11  1  0  0  0  0
  9  5  1  0  0  0  0
 11 14  1  0  0  0  0
 12  2  1  0  0  0  0
 13 10  2  0  0  0  0
 15  6  1  0  0  0  0
 16 17  1  0  0  0  0
 17 13  1  0  0  0  0
 19 18  2  0  0  0  0
 20 21  1  0  0  0  0
 22 29  1  6  0  0  0
 22 20  1  0  0  0  0
 23 19  1  6  0  0  0
 23 25  1  0  0  0  0
 24 22  1  0  0  0  0
 24 23  1  0  0  0  0
 25 21  1  0  0  0  0
 25 26  1  1  0  0  0
 28 29  2  0  0  0  0
 29 27  1  0  0  0  0
 30  7  1  0  0  0  0
 31 30  1  0  0  0  0
 32 31  1  0  0  0  0
M  END
>  <MODEL>
6

>  <REMARK>
 VINA RESULT:      -5.9      3.079      5.951
  Name = 
  6 active torsions:
  status: ('A' for Active; 'I' for Inactive)
    1  A    between atoms: C_1  and  C_27
    2  A    between atoms: C_9  and  O_11
    3  A    between atoms: O_11  and  C_12
    4  A    between atoms: C_15  and  C_26
    5  A    between atoms: C_16  and  C_27
    6  A    between atoms: C_25  and  C_29
                            x       y       z     vdW  Elec       q    Type
                         _______ _______ _______ _____ _____    ______ ____

>  <TORSDO>
F 6

$$$$
