=
 OpenBabel11062408203D

 32 34  0  0  1  0  0  0  0  0999 V2000
  160.2450  211.8690  154.8680 C   0  0  2  0  0  3  0  0  0  0  0  0
  159.6420  210.7020  154.0760 C   0  0  2  0  0  0  0  0  0  0  0  0
  161.2170  211.4830  156.0010 C   0  0  2  0  0  3  0  0  0  0  0  0
  158.8200  211.3870  155.1640 C   0  0  2  0  0  3  0  0  0  0  0  0
  161.8350  210.0910  155.8600 C   0  0  1  0  0  3  0  0  0  0  0  0
  160.6260  211.6610  157.2590 O   0  0  0  0  0  1  0  0  0  0  0  0
  160.0000  209.2460  154.4080 C   0  0  0  0  0  2  0  0  0  0  0  0
  162.7660  209.8020  157.0300 C   0  0  0  0  0  1  0  0  0  0  0  0
  160.7300  209.0470  155.7330 C   0  0  1  0  0  3  0  0  0  0  0  0
  157.4560  213.5650  156.8850 C   0  0  0  0  0  2  0  0  0  0  0  0
  155.8720  211.6080  156.0640 C   0  0  0  0  0  2  0  0  0  0  0  0
  156.3870  211.8620  154.6510 C   0  0  0  0  0  2  0  0  0  0  0  0
  157.8120  212.4220  154.6540 C   0  0  0  0  0  3  0  0  0  0  0  0
  155.6780  213.1840  156.9560 S   0  0  0  0  0  0  0  0  0  0  0  0
  157.9020  213.7340  155.4360 C   0  0  0  0  0  2  0  0  0  0  0  0
  159.2420  210.9970  152.6230 C   0  0  0  0  0  2  0  0  0  0  0  0
  160.2020  211.9190  151.8620 C   0  0  2  0  0  3  0  0  0  0  0  0
  160.2840  214.2460  151.3630 O   0  0  0  0  0  0  0  0  0  0  0  0
  159.5690  213.2100  151.4260 C   0  0  0  0  0  0  0  0  0  0  0  0
  157.3560  214.2480  151.5780 C   0  0  0  0  0  2  0  0  0  0  0  0
  158.1330  213.2810  151.1100 C   0  0  0  0  0  3  0  0  0  0  0  0
  160.9480  211.1860  150.7490 C   0  0  0  0  0  2  0  0  0  0  0  0
  161.8710  210.1510  151.3090 C   0  0  0  0  0  0  0  0  0  0  0  0
  162.4960  210.3900  152.3770 O   0  0  0  0  0  0  0  0  0  0  0  0
  162.0570  208.8640  150.6270 C   0  0  0  0  0  0  0  0  0  0  0  0
  162.3790  207.8390  151.2870 O   0  0  0  0  0  0  0  0  0  0  0  0
  161.8780  208.7870  149.2440 O   0  0  0  0  0  0  0  0  0  0  0  0
  161.1000  206.8010  148.1550 C   0  0  0  0  0  1  0  0  0  0  0  0
  162.3000  207.6580  148.4960 C   0  0  0  0  0  2  0  0  0  0  0  0
  161.2860  207.7020  155.7640 N   0  0  0  0  0  2  0  0  0  0  0  0
  160.5330  206.9060  154.8110 C   0  0  0  0  0  2  0  0  0  0  0  0
  161.4890  206.0840  153.9740 C   0  0  0  0  0  1  0  0  0  0  0  0
  1  4  1  0  0  0  0
  1  3  1  0  0  0  0
  2  7  1  0  0  0  0
  2  1  1  0  0  0  0
  2  4  1  0  0  0  0
  3  6  1  0  0  0  0
  5  3  1  0  0  0  0
  5  8  1  0  0  0  0
  7  9  1  0  0  0  0
  9 30  1  0  0  0  0
  9  5  1  0  0  0  0
 10 14  1  0  0  0  0
 11 14  1  0  0  0  0
 12 13  1  0  0  0  0
 12 11  1  0  0  0  0
 13  4  1  0  0  0  0
 13 15  1  0  0  0  0
 15 10  1  0  0  0  0
 16  2  1  0  0  0  0
 17 16  1  0  0  0  0
 18 19  2  0  0  0  0
 19 17  1  0  0  0  0
 21 19  1  0  0  0  0
 21 20  2  0  0  0  0
 22 23  1  0  0  0  0
 22 17  1  0  0  0  0
 23 24  2  0  0  0  0
 25 26  2  0  0  0  0
 25 23  1  0  0  0  0
 27 25  1  0  0  0  0
 28 29  1  0  0  0  0
 29 27  1  0  0  0  0
 31 30  1  0  0  0  0
 32 31  1  0  0  0  0
M  END
>  <MODEL>
1

>  <REMARK>
 VINA RESULT:      -4.6      0.000      0.000
  Name = 
  12 active torsions:
  status: ('A' for Active; 'I' for Inactive)
    1  A    between atoms: C_1  and  C_5
    2  A    between atoms: C_1  and  C_24
    3  A    between atoms: C_3  and  O_15
    4  A    between atoms: C_3  and  C_22
    5  A    between atoms: C_10  and  C_28
    6  A    between atoms: N_14  and  C_21
    7  A    between atoms: N_14  and  C_29
    8  A    between atoms: O_15  and  C_26
    9  A    between atoms: C_16  and  C_20
   10  A    between atoms: C_16  and  C_24
   11  A    between atoms: C_22  and  C_27
   12  A    between atoms: C_24  and  C_27
                            x       y       z     vdW  Elec       q    Type
                         _______ _______ _______ _____ _____    ______ ____

>  <TORSDO>
F 12

$$$$
=
 OpenBabel11062408203D

 32 34  0  0  1  0  0  0  0  0999 V2000
  159.4990  210.6670  152.6430 C   0  0  2  0  0  3  0  0  0  0  0  0
  160.7170  209.9990  151.9940 C   0  0  2  0  0  0  0  0  0  0  0  0
  159.1420  212.0720  152.1180 C   0  0  2  0  0  3  0  0  0  0  0  0
  160.8540  210.6660  153.3600 C   0  0  2  0  0  3  0  0  0  0  0  0
  159.6930  212.3880  150.7250 C   0  0  1  0  0  3  0  0  0  0  0  0
  159.4840  213.0640  153.0470 O   0  0  0  0  0  1  0  0  0  0  0  0
  161.5170  210.7050  150.8880 C   0  0  0  0  0  2  0  0  0  0  0  0
  159.2960  213.7970  150.3050 C   0  0  0  0  0  1  0  0  0  0  0  0
  161.2040  212.1880  150.7120 C   0  0  1  0  0  3  0  0  0  0  0  0
  160.2560  211.4690  156.2860 C   0  0  0  0  0  2  0  0  0  0  0  0
  162.7530  210.7360  155.7970 C   0  0  0  0  0  2  0  0  0  0  0  0
  162.1950  209.4750  155.1470 C   0  0  0  0  0  2  0  0  0  0  0  0
  160.8030  209.7060  154.5530 C   0  0  0  0  0  3  0  0  0  0  0  0
  161.7650  211.1800  157.2610 S   0  0  0  0  0  0  0  0  0  0  0  0
  159.8060  210.1750  155.6140 C   0  0  0  0  0  2  0  0  0  0  0  0
  160.7250  208.4630  151.9740 C   0  0  0  0  0  2  0  0  0  0  0  0
  161.7800  207.8340  151.0580 C   0  0  2  0  0  3  0  0  0  0  0  0
  160.1700  206.7510  149.6770 O   0  0  0  0  0  0  0  0  0  0  0  0
  161.2370  207.4200  149.7200 C   0  0  0  0  0  0  0  0  0  0  0  0
  162.3100  206.8310  147.5980 C   0  0  0  0  0  2  0  0  0  0  0  0
  161.9500  207.7570  148.4770 C   0  0  0  0  0  3  0  0  0  0  0  0
  162.5870  206.7470  151.7650 C   0  0  0  0  0  2  0  0  0  0  0  0
  161.6980  205.8490  152.5650 C   0  0  0  0  0  0  0  0  0  0  0  0
  161.3430  206.1970  153.7220 O   0  0  0  0  0  0  0  0  0  0  0  0
  161.2370  204.5670  152.0150 C   0  0  0  0  0  0  0  0  0  0  0  0
  160.4890  203.8170  152.7000 O   0  0  0  0  0  0  0  0  0  0  0  0
  161.6380  204.1860  150.7330 O   0  0  0  0  0  0  0  0  0  0  0  0
  161.1100  203.4110  148.5290 C   0  0  0  0  0  1  0  0  0  0  0  0
  160.9730  203.1580  150.0150 C   0  0  0  0  0  2  0  0  0  0  0  0
  161.7730  212.6400  149.4510 N   0  0  0  0  0  2  0  0  0  0  0  0
  161.6000  211.5610  148.4930 C   0  0  0  0  0  2  0  0  0  0  0  0
  160.9230  212.0940  147.2490 C   0  0  0  0  0  1  0  0  0  0  0  0
  1  4  1  0  0  0  0
  2  1  1  0  0  0  0
  2  4  1  0  0  0  0
  3  1  1  0  0  0  0
  3  6  1  0  0  0  0
  4 13  1  0  0  0  0
  5  3  1  0  0  0  0
  7  2  1  0  0  0  0
  8  5  1  0  0  0  0
  9  5  1  0  0  0  0
  9  7  1  0  0  0  0
 10 14  1  0  0  0  0
 11 14  1  0  0  0  0
 12 11  1  0  0  0  0
 13 12  1  0  0  0  0
 13 15  1  0  0  0  0
 15 10  1  0  0  0  0
 16  2  1  0  0  0  0
 17 22  1  0  0  0  0
 17 16  1  0  0  0  0
 18 19  2  0  0  0  0
 19 17  1  0  0  0  0
 20 21  2  0  0  0  0
 21 19  1  0  0  0  0
 22 23  1  0  0  0  0
 23 24  2  0  0  0  0
 25 23  1  0  0  0  0
 25 26  2  0  0  0  0
 27 25  1  0  0  0  0
 28 29  1  0  0  0  0
 29 27  1  0  0  0  0
 30  9  1  0  0  0  0
 31 30  1  0  0  0  0
 32 31  1  0  0  0  0
M  END
>  <MODEL>
2

>  <REMARK>
 VINA RESULT:      -4.5      2.886      5.721
  Name = 
  12 active torsions:
  status: ('A' for Active; 'I' for Inactive)
    1  A    between atoms: C_1  and  C_5
    2  A    between atoms: C_1  and  C_24
    3  A    between atoms: C_3  and  O_15
    4  A    between atoms: C_3  and  C_22
    5  A    between atoms: C_10  and  C_28
    6  A    between atoms: N_14  and  C_21
    7  A    between atoms: N_14  and  C_29
    8  A    between atoms: O_15  and  C_26
    9  A    between atoms: C_16  and  C_20
   10  A    between atoms: C_16  and  C_24
   11  A    between atoms: C_22  and  C_27
   12  A    between atoms: C_24  and  C_27
                            x       y       z     vdW  Elec       q    Type
                         _______ _______ _______ _____ _____    ______ ____

>  <TORSDO>
F 12

$$$$
=
 OpenBabel11062408203D

 32 34  0  0  1  0  0  0  0  0999 V2000
  160.8610  211.3100  154.1190 C   0  0  2  0  0  3  0  0  0  0  0  0
  160.4850  209.8700  153.7470 C   0  0  2  0  0  0  0  0  0  0  0  0
  161.6540  211.4820  155.4300 C   0  0  2  0  0  3  0  0  0  0  0  0
  159.4440  210.7870  154.3860 C   0  0  2  0  0  3  0  0  0  0  0  0
  162.3860  210.2220  155.8980 C   0  0  1  0  0  3  0  0  0  0  0  0
  160.8500  212.0200  156.4430 O   0  0  0  0  0  1  0  0  0  0  0  0
  160.8860  208.6870  154.6410 C   0  0  0  0  0  2  0  0  0  0  0  0
  163.1250  210.4920  157.2010 C   0  0  0  0  0  1  0  0  0  0  0  0
  161.3960  209.0690  156.0270 C   0  0  1  0  0  3  0  0  0  0  0  0
  158.4630  213.7170  154.4940 C   0  0  0  0  0  2  0  0  0  0  0  0
  156.6490  211.8880  155.1070 C   0  0  0  0  0  2  0  0  0  0  0  0
  157.0110  211.1760  153.8070 C   0  0  0  0  0  2  0  0  0  0  0  0
  158.4650  211.4330  153.4010 C   0  0  0  0  0  3  0  0  0  0  0  0
  156.6810  213.6920  154.8670 S   0  0  0  0  0  0  0  0  0  0  0  0
  158.7460  212.9260  153.2210 C   0  0  0  0  0  2  0  0  0  0  0  0
  160.3130  209.5740  152.2500 C   0  0  0  0  0  2  0  0  0  0  0  0
  161.2690  208.5160  151.6870 C   0  0  2  0  0  3  0  0  0  0  0  0
  162.3510  210.1950  150.3890 O   0  0  0  0  0  0  0  0  0  0  0  0
  162.0230  208.9810  150.4720 C   0  0  0  0  0  0  0  0  0  0  0  0
  161.5100  207.8240  148.3760 C   0  0  0  0  0  2  0  0  0  0  0  0
  162.3460  208.0480  149.3800 C   0  0  0  0  0  3  0  0  0  0  0  0
  160.5950  207.1570  151.5180 C   0  0  0  0  0  2  0  0  0  0  0  0
  161.5410  206.0420  151.8320 C   0  0  0  0  0  0  0  0  0  0  0  0
  162.4260  206.2100  152.7120 O   0  0  0  0  0  0  0  0  0  0  0  0
  161.4480  204.7580  151.1260 C   0  0  0  0  0  0  0  0  0  0  0  0
  161.8650  203.7020  151.6750 O   0  0  0  0  0  0  0  0  0  0  0  0
  160.8990  204.7180  149.8420 O   0  0  0  0  0  0  0  0  0  0  0  0
  161.6500  203.9400  147.7050 C   0  0  0  0  0  1  0  0  0  0  0  0
  161.0000  203.5660  149.0200 C   0  0  0  0  0  2  0  0  0  0  0  0
  162.0330  207.9080  156.6280 N   0  0  0  0  0  2  0  0  0  0  0  0
  160.9880  206.9320  156.8880 C   0  0  0  0  0  2  0  0  0  0  0  0
  159.7090  207.6510  157.2600 C   0  0  0  0  0  1  0  0  0  0  0  0
  1  4  1  0  0  0  0
  1  3  1  0  0  0  0
  2  1  1  0  0  0  0
  2  4  1  0  0  0  0
  2  7  1  0  0  0  0
  3  5  1  0  0  0  0
  3  6  1  0  0  0  0
  5  9  1  0  0  0  0
  5  8  1  0  0  0  0
  7  9  1  0  0  0  0
  9 30  1  0  0  0  0
 10 14  1  0  0  0  0
 12 11  1  0  0  0  0
 13 12  1  0  0  0  0
 13  4  1  0  0  0  0
 14 11  1  0  0  0  0
 15 13  1  0  0  0  0
 15 10  1  0  0  0  0
 16  2  1  0  0  0  0
 17 16  1  0  0  0  0
 18 19  2  0  0  0  0
 19 17  1  0  0  0  0
 20 21  2  0  0  0  0
 21 19  1  0  0  0  0
 22 17  1  0  0  0  0
 22 23  1  0  0  0  0
 23 24  2  0  0  0  0
 25 26  2  0  0  0  0
 25 23  1  0  0  0  0
 27 25  1  0  0  0  0
 28 29  1  0  0  0  0
 29 27  1  0  0  0  0
 30 31  1  0  0  0  0
 31 32  1  0  0  0  0
M  END
>  <MODEL>
3

>  <REMARK>
 VINA RESULT:      -4.3      1.918      3.385
  Name = 
  12 active torsions:
  status: ('A' for Active; 'I' for Inactive)
    1  A    between atoms: C_1  and  C_5
    2  A    between atoms: C_1  and  C_24
    3  A    between atoms: C_3  and  O_15
    4  A    between atoms: C_3  and  C_22
    5  A    between atoms: C_10  and  C_28
    6  A    between atoms: N_14  and  C_21
    7  A    between atoms: N_14  and  C_29
    8  A    between atoms: O_15  and  C_26
    9  A    between atoms: C_16  and  C_20
   10  A    between atoms: C_16  and  C_24
   11  A    between atoms: C_22  and  C_27
   12  A    between atoms: C_24  and  C_27
                            x       y       z     vdW  Elec       q    Type
                         _______ _______ _______ _____ _____    ______ ____

>  <TORSDO>
F 12

$$$$
=
 OpenBabel11062408203D

 32 34  0  0  1  0  0  0  0  0999 V2000
  158.5690  211.7370  152.8390 C   0  0  2  0  0  3  0  0  0  0  0  0
  160.0500  212.1110  152.7020 C   0  0  2  0  0  0  0  0  0  0  0  0
  157.6160  212.3740  151.8090 C   0  0  2  0  0  3  0  0  0  0  0  0
  159.1880  212.7970  153.7590 C   0  0  2  0  0  3  0  0  0  0  0  0
  158.2970  212.8530  150.5250 C   0  0  1  0  0  3  0  0  0  0  0  0
  156.8420  213.3870  152.3920 O   0  0  0  0  0  1  0  0  0  0  0  0
  160.5320  213.0630  151.5970 C   0  0  0  0  0  2  0  0  0  0  0  0
  157.2760  213.4740  149.5820 C   0  0  0  0  0  1  0  0  0  0  0  0
  159.4240  213.8200  150.8700 C   0  0  1  0  0  3  0  0  0  0  0  0
  156.9630  212.7480  155.9060 C   0  0  0  0  0  2  0  0  0  0  0  0
  158.9570  214.4260  156.3740 C   0  0  0  0  0  2  0  0  0  0  0  0
  159.9150  213.2640  156.1380 C   0  0  0  0  0  2  0  0  0  0  0  0
  159.3310  212.2280  155.1740 C   0  0  0  0  0  3  0  0  0  0  0  0
  157.4750  213.8510  157.2610 S   0  0  0  0  0  0  0  0  0  0  0  0
  158.0080  211.6570  155.6910 C   0  0  0  0  0  2  0  0  0  0  0  0
  161.0660  211.0760  153.2090 C   0  0  0  0  0  2  0  0  0  0  0  0
  161.0860  209.7550  152.4320 C   0  0  2  0  0  3  0  0  0  0  0  0
  160.7450  207.4190  152.7460 O   0  0  0  0  0  0  0  0  0  0  0  0
  160.7160  208.5650  153.2710 C   0  0  0  0  0  0  0  0  0  0  0  0
  160.6220  207.8520  155.6120 C   0  0  0  0  0  2  0  0  0  0  0  0
  160.2940  208.7280  154.6720 C   0  0  0  0  0  3  0  0  0  0  0  0
  162.3710  209.5750  151.6280 C   0  0  0  0  0  2  0  0  0  0  0  0
  162.0780  209.3920  150.1730 C   0  0  0  0  0  0  0  0  0  0  0  0
  161.9180  210.4040  149.4410 O   0  0  0  0  0  0  0  0  0  0  0  0
  161.9740  208.0470  149.5930 C   0  0  0  0  0  0  0  0  0  0  0  0
  162.3320  207.0400  150.2630 O   0  0  0  0  0  0  0  0  0  0  0  0
  161.4800  207.8940  148.2960 O   0  0  0  0  0  0  0  0  0  0  0  0
  160.7550  206.0740  146.9190 C   0  0  0  0  0  1  0  0  0  0  0  0
  161.9390  206.8620  147.4370 C   0  0  0  0  0  2  0  0  0  0  0  0
  159.9790  214.4160  149.6630 N   0  0  0  0  0  2  0  0  0  0  0  0
  160.9240  213.4620  149.1110 C   0  0  0  0  0  2  0  0  0  0  0  0
  161.2680  213.8570  147.6910 C   0  0  0  0  0  1  0  0  0  0  0  0
  1  4  1  0  0  0  0
  2  1  1  0  0  0  0
  2 16  1  0  0  0  0
  2  4  1  0  0  0  0
  3  6  1  0  0  0  0
  3  1  1  0  0  0  0
  4 13  1  0  0  0  0
  5  9  1  0  0  0  0
  5  3  1  0  0  0  0
  7  2  1  0  0  0  0
  8  5  1  0  0  0  0
  9  7  1  0  0  0  0
 10 14  1  0  0  0  0
 11 14  1  0  0  0  0
 12 11  1  0  0  0  0
 13 15  1  0  0  0  0
 13 12  1  0  0  0  0
 15 10  1  0  0  0  0
 17 16  1  0  0  0  0
 17 19  1  0  0  0  0
 18 19  2  0  0  0  0
 19 21  1  0  0  0  0
 21 20  2  0  0  0  0
 22 17  1  0  0  0  0
 23 22  1  0  0  0  0
 24 23  2  0  0  0  0
 25 23  1  0  0  0  0
 25 26  2  0  0  0  0
 27 25  1  0  0  0  0
 28 29  1  0  0  0  0
 29 27  1  0  0  0  0
 30  9  1  0  0  0  0
 31 30  1  0  0  0  0
 32 31  1  0  0  0  0
M  END
>  <MODEL>
4

>  <REMARK>
 VINA RESULT:      -4.0      2.585      5.088
  Name = 
  12 active torsions:
  status: ('A' for Active; 'I' for Inactive)
    1  A    between atoms: C_1  and  C_5
    2  A    between atoms: C_1  and  C_24
    3  A    between atoms: C_3  and  O_15
    4  A    between atoms: C_3  and  C_22
    5  A    between atoms: C_10  and  C_28
    6  A    between atoms: N_14  and  C_21
    7  A    between atoms: N_14  and  C_29
    8  A    between atoms: O_15  and  C_26
    9  A    between atoms: C_16  and  C_20
   10  A    between atoms: C_16  and  C_24
   11  A    between atoms: C_22  and  C_27
   12  A    between atoms: C_24  and  C_27
                            x       y       z     vdW  Elec       q    Type
                         _______ _______ _______ _____ _____    ______ ____

>  <TORSDO>
F 12

$$$$
=
 OpenBabel11062408203D

 32 34  0  0  1  0  0  0  0  0999 V2000
  161.2380  211.0800  154.5790 C   0  0  2  0  0  3  0  0  0  0  0  0
  160.7120  210.2400  153.4080 C   0  0  2  0  0  0  0  0  0  0  0  0
  161.5090  210.3130  155.8890 C   0  0  2  0  0  3  0  0  0  0  0  0
  159.7430  211.0840  154.2330 C   0  0  2  0  0  3  0  0  0  0  0  0
  161.7150  208.8070  155.7100 C   0  0  1  0  0  3  0  0  0  0  0  0
  160.5310  210.5910  156.8520 O   0  0  0  0  0  1  0  0  0  0  0  0
  160.4800  208.7280  153.5530 C   0  0  0  0  0  2  0  0  0  0  0  0
  161.9640  208.1430  157.0580 C   0  0  0  0  0  1  0  0  0  0  0  0
  160.5160  208.2050  154.9860 C   0  0  1  0  0  3  0  0  0  0  0  0
  158.4470  213.4610  155.7270 C   0  0  0  0  0  2  0  0  0  0  0  0
  156.8750  212.2090  154.0030 C   0  0  0  0  0  2  0  0  0  0  0  0
  157.9770  212.3780  152.9630 C   0  0  0  0  0  2  0  0  0  0  0  0
  159.3660  212.4290  153.6050 C   0  0  0  0  0  3  0  0  0  0  0  0
  156.7710  213.6900  155.0560 S   0  0  0  0  0  0  0  0  0  0  0  0
  159.4810  213.5760  154.6110 C   0  0  0  0  0  2  0  0  0  0  0  0
  161.0410  210.7530  151.9980 C   0  0  0  0  0  2  0  0  0  0  0  0
  161.6750  209.7150  151.0650 C   0  0  2  0  0  3  0  0  0  0  0  0
  162.2970  209.4540  148.7800 O   0  0  0  0  0  0  0  0  0  0  0  0
  162.0060  210.2610  149.7040 C   0  0  0  0  0  0  0  0  0  0  0  0
  162.2610  212.2150  148.2500 C   0  0  0  0  0  2  0  0  0  0  0  0
  162.0240  211.7110  149.4540 C   0  0  0  0  0  3  0  0  0  0  0  0
  160.8900  208.4060  151.0360 C   0  0  0  0  0  2  0  0  0  0  0  0
  161.7320  207.2820  150.5220 C   0  0  0  0  0  0  0  0  0  0  0  0
  162.9330  207.1900  150.8900 O   0  0  0  0  0  0  0  0  0  0  0  0
  161.1730  206.2900  149.5960 C   0  0  0  0  0  0  0  0  0  0  0  0
  160.3390  205.4380  150.0090 O   0  0  0  0  0  0  0  0  0  0  0  0
  161.5760  206.2940  148.2590 O   0  0  0  0  0  0  0  0  0  0  0  0
  162.7380  205.1480  146.5050 C   0  0  0  0  0  1  0  0  0  0  0  0
  161.5730  205.1140  147.4710 C   0  0  0  0  0  2  0  0  0  0  0  0
  160.6100  206.7530  154.9520 N   0  0  0  0  0  2  0  0  0  0  0  0
  161.5390  206.4100  153.8890 C   0  0  0  0  0  2  0  0  0  0  0  0
  161.1630  205.0660  153.3050 C   0  0  0  0  0  1  0  0  0  0  0  0
  1  3  1  0  0  0  0
  2  7  1  0  0  0  0
  2  4  1  0  0  0  0
  2  1  1  0  0  0  0
  3  6  1  0  0  0  0
  4  1  1  0  0  0  0
  5  3  1  0  0  0  0
  5  8  1  0  0  0  0
  7  9  1  0  0  0  0
  9  5  1  0  0  0  0
 11 14  1  0  0  0  0
 12 13  1  0  0  0  0
 12 11  1  0  0  0  0
 13  4  1  0  0  0  0
 13 15  1  0  0  0  0
 14 10  1  0  0  0  0
 15 10  1  0  0  0  0
 16  2  1  0  0  0  0
 17 16  1  0  0  0  0
 18 19  2  0  0  0  0
 19 17  1  0  0  0  0
 20 21  2  0  0  0  0
 21 19  1  0  0  0  0
 22 17  1  0  0  0  0
 23 24  2  0  0  0  0
 23 22  1  0  0  0  0
 25 26  2  0  0  0  0
 25 23  1  0  0  0  0
 27 25  1  0  0  0  0
 28 29  1  0  0  0  0
 29 27  1  0  0  0  0
 30  9  1  0  0  0  0
 31 30  1  0  0  0  0
 32 31  1  0  0  0  0
M  END
>  <MODEL>
5

>  <REMARK>
 VINA RESULT:      -3.9      1.848      2.749
  Name = 
  12 active torsions:
  status: ('A' for Active; 'I' for Inactive)
    1  A    between atoms: C_1  and  C_5
    2  A    between atoms: C_1  and  C_24
    3  A    between atoms: C_3  and  O_15
    4  A    between atoms: C_3  and  C_22
    5  A    between atoms: C_10  and  C_28
    6  A    between atoms: N_14  and  C_21
    7  A    between atoms: N_14  and  C_29
    8  A    between atoms: O_15  and  C_26
    9  A    between atoms: C_16  and  C_20
   10  A    between atoms: C_16  and  C_24
   11  A    between atoms: C_22  and  C_27
   12  A    between atoms: C_24  and  C_27
                            x       y       z     vdW  Elec       q    Type
                         _______ _______ _______ _____ _____    ______ ____

>  <TORSDO>
F 12

$$$$
=
 OpenBabel11062408203D

 32 34  0  0  1  0  0  0  0  0999 V2000
  162.1160  207.5380  152.6290 C   0  0  2  0  0  3  0  0  0  0  0  0
  161.5840  207.8680  151.2290 C   0  0  2  0  0  0  0  0  0  0  0  0
  161.8150  206.1180  153.1470 C   0  0  2  0  0  3  0  0  0  0  0  0
  160.8310  208.3580  152.4620 C   0  0  2  0  0  3  0  0  0  0  0  0
  161.5020  205.0970  152.0520 C   0  0  1  0  0  3  0  0  0  0  0  0
  160.8220  206.1380  154.1350 O   0  0  0  0  0  1  0  0  0  0  0  0
  160.8020  206.8290  150.4100 C   0  0  0  0  0  2  0  0  0  0  0  0
  161.2080  203.7340  152.6660 C   0  0  0  0  0  1  0  0  0  0  0  0
  160.3480  205.6000  151.1920 C   0  0  1  0  0  3  0  0  0  0  0  0
  160.4140  209.5870  155.2690 C   0  0  0  0  0  2  0  0  0  0  0  0
  158.6980  210.3810  153.4150 C   0  0  0  0  0  2  0  0  0  0  0  0
  159.8950  210.7090  152.5290 C   0  0  0  0  0  2  0  0  0  0  0  0
  161.1000  209.8170  152.8420 C   0  0  0  0  0  3  0  0  0  0  0  0
  159.0630  210.8010  155.1490 S   0  0  0  0  0  0  0  0  0  0  0  0
  161.5370  209.9500  154.3030 C   0  0  0  0  0  2  0  0  0  0  0  0
  162.3630  208.9250  150.4330 C   0  0  0  0  0  2  0  0  0  0  0  0
  161.9560  209.0560  148.9610 C   0  0  2  0  0  3  0  0  0  0  0  0
  163.2490  207.1530  148.3430 O   0  0  0  0  0  0  0  0  0  0  0  0
  162.1810  207.8000  148.1670 C   0  0  0  0  0  0  0  0  0  0  0  0
  161.3360  206.2040  146.5120 C   0  0  0  0  0  2  0  0  0  0  0  0
  161.1930  207.3450  147.1750 C   0  0  0  0  0  3  0  0  0  0  0  0
  162.5280  210.3140  148.3110 C   0  0  0  0  0  2  0  0  0  0  0  0
  161.6320  211.4900  148.5310 C   0  0  0  0  0  0  0  0  0  0  0  0
  161.3310  211.8290  149.7050 O   0  0  0  0  0  0  0  0  0  0  0  0
  161.1020  212.2510  147.3920 C   0  0  0  0  0  0  0  0  0  0  0  0
  159.8770  212.5510  147.3470 O   0  0  0  0  0  0  0  0  0  0  0  0
  161.9620  212.6350  146.3610 O   0  0  0  0  0  0  0  0  0  0  0  0
  162.5170  213.3190  144.1340 C   0  0  0  0  0  1  0  0  0  0  0  0
  161.5140  213.4160  145.2640 C   0  0  0  0  0  2  0  0  0  0  0  0
  159.9220  204.5760  150.2500 N   0  0  0  0  0  2  0  0  0  0  0  0
  161.0650  204.2670  149.4090 C   0  0  0  0  0  2  0  0  0  0  0  0
  160.8630  202.9150  148.7600 C   0  0  0  0  0  1  0  0  0  0  0  0
  1  3  1  0  0  0  0
  2  4  1  0  0  0  0
  2  1  1  0  0  0  0
  3  6  1  0  0  0  0
  4  1  1  0  0  0  0
  4 13  1  0  0  0  0
  5  8  1  0  0  0  0
  5  3  1  0  0  0  0
  7  9  1  0  0  0  0
  7  2  1  0  0  0  0
  9  5  1  0  0  0  0
 11 14  1  0  0  0  0
 12 13  1  0  0  0  0
 12 11  1  0  0  0  0
 13 15  1  0  0  0  0
 14 10  1  0  0  0  0
 15 10  1  0  0  0  0
 16  2  1  0  0  0  0
 17 16  1  0  0  0  0
 19 18  2  0  0  0  0
 19 17  1  0  0  0  0
 20 21  2  0  0  0  0
 21 19  1  0  0  0  0
 22 23  1  0  0  0  0
 22 17  1  0  0  0  0
 23 24  2  0  0  0  0
 25 23  1  0  0  0  0
 26 25  2  0  0  0  0
 27 25  1  0  0  0  0
 28 29  1  0  0  0  0
 29 27  1  0  0  0  0
 30  9  1  0  0  0  0
 31 30  1  0  0  0  0
 32 31  1  0  0  0  0
M  END
>  <MODEL>
6

>  <REMARK>
 VINA RESULT:      -3.7      3.168      5.837
  Name = 
  12 active torsions:
  status: ('A' for Active; 'I' for Inactive)
    1  A    between atoms: C_1  and  C_5
    2  A    between atoms: C_1  and  C_24
    3  A    between atoms: C_3  and  O_15
    4  A    between atoms: C_3  and  C_22
    5  A    between atoms: C_10  and  C_28
    6  A    between atoms: N_14  and  C_21
    7  A    between atoms: N_14  and  C_29
    8  A    between atoms: O_15  and  C_26
    9  A    between atoms: C_16  and  C_20
   10  A    between atoms: C_16  and  C_24
   11  A    between atoms: C_22  and  C_27
   12  A    between atoms: C_24  and  C_27
                            x       y       z     vdW  Elec       q    Type
                         _______ _______ _______ _____ _____    ______ ____

>  <TORSDO>
F 12

$$$$
=
 OpenBabel11062408203D

 32 34  0  0  1  0  0  0  0  0999 V2000
  160.0360  210.0620  152.7390 C   0  0  2  0  0  3  0  0  0  0  0  0
  161.3210  210.2520  151.9230 C   0  0  2  0  0  0  0  0  0  0  0  0
  158.9520  211.1420  152.5510 C   0  0  2  0  0  3  0  0  0  0  0  0
  161.2940  210.6400  153.3990 C   0  0  2  0  0  3  0  0  0  0  0  0
  159.0690  211.9370  151.2480 C   0  0  1  0  0  3  0  0  0  0  0  0
  158.8770  211.9860  153.6670 O   0  0  0  0  0  1  0  0  0  0  0  0
  161.4940  211.4520  150.9790 C   0  0  0  0  0  2  0  0  0  0  0  0
  157.9650  212.9820  151.1640 C   0  0  0  0  0  1  0  0  0  0  0  0
  160.4580  212.5600  151.1480 C   0  0  1  0  0  3  0  0  0  0  0  0
  159.7840  209.2000  155.6810 C   0  0  0  0  0  2  0  0  0  0  0  0
  161.5940  210.9710  156.4560 C   0  0  0  0  0  2  0  0  0  0  0  0
  162.5900  210.2680  155.5410 C   0  0  0  0  0  2  0  0  0  0  0  0
  161.8990  209.6010  154.3480 C   0  0  0  0  0  3  0  0  0  0  0  0
  160.5060  209.7510  157.2580 S   0  0  0  0  0  0  0  0  0  0  0  0
  160.8590  208.5730  154.7990 C   0  0  0  0  0  2  0  0  0  0  0  0
  162.0950  208.9760  151.5610 C   0  0  0  0  0  2  0  0  0  0  0  0
  161.2220  207.7560  151.2470 C   0  0  2  0  0  3  0  0  0  0  0  0
  163.0840  206.3690  151.7750 O   0  0  0  0  0  0  0  0  0  0  0  0
  161.8290  206.4570  151.6950 C   0  0  0  0  0  0  0  0  0  0  0  0
  161.3470  204.0560  151.6920 C   0  0  0  0  0  2  0  0  0  0  0  0
  160.9830  205.2920  152.0040 C   0  0  0  0  0  3  0  0  0  0  0  0
  160.7350  207.7490  149.8000 C   0  0  0  0  0  2  0  0  0  0  0  0
  161.7790  207.2010  148.8810 C   0  0  0  0  0  0  0  0  0  0  0  0
  162.8810  207.7990  148.7670 O   0  0  0  0  0  0  0  0  0  0  0  0
  161.5320  205.9740  148.1130 C   0  0  0  0  0  0  0  0  0  0  0  0
  160.4650  205.3240  148.2860 O   0  0  0  0  0  0  0  0  0  0  0  0
  162.4880  205.5340  147.1950 O   0  0  0  0  0  0  0  0  0  0  0  0
  161.3440  204.6090  145.3050 C   0  0  0  0  0  1  0  0  0  0  0  0
  162.3020  205.6730  145.7950 C   0  0  0  0  0  2  0  0  0  0  0  0
  160.5390  213.4540  150.0030 N   0  0  0  0  0  2  0  0  0  0  0  0
  161.2360  212.7380  148.9490 C   0  0  0  0  0  2  0  0  0  0  0  0
  162.1480  213.6920  148.2080 C   0  0  0  0  0  1  0  0  0  0  0  0
  1  4  1  0  0  0  0
  2  1  1  0  0  0  0
  2  4  1  0  0  0  0
  3  1  1  0  0  0  0
  3  6  1  0  0  0  0
  4 13  1  0  0  0  0
  5  3  1  0  0  0  0
  7  9  1  0  0  0  0
  7  2  1  0  0  0  0
  8  5  1  0  0  0  0
  9  5  1  0  0  0  0
 10 14  1  0  0  0  0
 11 14  1  0  0  0  0
 12 11  1  0  0  0  0
 13 15  1  0  0  0  0
 13 12  1  0  0  0  0
 15 10  1  0  0  0  0
 16  2  1  0  0  0  0
 17 16  1  0  0  0  0
 17 19  1  0  0  0  0
 19 18  2  0  0  0  0
 19 21  1  0  0  0  0
 20 21  2  0  0  0  0
 22 17  1  0  0  0  0
 23 22  1  0  0  0  0
 24 23  2  0  0  0  0
 25 26  2  0  0  0  0
 25 23  1  0  0  0  0
 27 25  1  0  0  0  0
 28 29  1  0  0  0  0
 29 27  1  0  0  0  0
 30  9  1  0  0  0  0
 31 30  1  0  0  0  0
 32 31  1  0  0  0  0
M  END
>  <MODEL>
7

>  <REMARK>
 VINA RESULT:      -3.7      2.892      5.865
  Name = 
  12 active torsions:
  status: ('A' for Active; 'I' for Inactive)
    1  A    between atoms: C_1  and  C_5
    2  A    between atoms: C_1  and  C_24
    3  A    between atoms: C_3  and  O_15
    4  A    between atoms: C_3  and  C_22
    5  A    between atoms: C_10  and  C_28
    6  A    between atoms: N_14  and  C_21
    7  A    between atoms: N_14  and  C_29
    8  A    between atoms: O_15  and  C_26
    9  A    between atoms: C_16  and  C_20
   10  A    between atoms: C_16  and  C_24
   11  A    between atoms: C_22  and  C_27
   12  A    between atoms: C_24  and  C_27
                            x       y       z     vdW  Elec       q    Type
                         _______ _______ _______ _____ _____    ______ ____

>  <TORSDO>
F 12

$$$$
=
 OpenBabel11062408203D

 32 34  0  0  1  0  0  0  0  0999 V2000
  162.1000  208.1870  153.0400 C   0  0  2  0  0  3  0  0  0  0  0  0
  161.5390  208.8660  151.7840 C   0  0  2  0  0  0  0  0  0  0  0  0
  162.0280  206.6480  153.0630 C   0  0  2  0  0  3  0  0  0  0  0  0
  160.7000  208.8140  153.0580 C   0  0  2  0  0  3  0  0  0  0  0  0
  161.8990  205.9980  151.6840 C   0  0  1  0  0  3  0  0  0  0  0  0
  161.0320  206.1990  153.9410 O   0  0  0  0  0  1  0  0  0  0  0  0
  160.9470  208.0400  150.6310 C   0  0  0  0  0  2  0  0  0  0  0  0
  161.8240  204.4830  151.8160 C   0  0  0  0  0  1  0  0  0  0  0  0
  160.6890  206.5720  150.9550 C   0  0  1  0  0  3  0  0  0  0  0  0
  161.7010  209.0340  155.9760 C   0  0  0  0  0  2  0  0  0  0  0  0
  159.0850  209.2860  155.6500 C   0  0  0  0  0  2  0  0  0  0  0  0
  159.3770  210.3380  154.5860 C   0  0  0  0  0  2  0  0  0  0  0  0
  160.7230  210.0960  153.8960 C   0  0  0  0  0  3  0  0  0  0  0  0
  160.2690  209.4360  157.0250 S   0  0  0  0  0  0  0  0  0  0  0  0
  161.8800  210.0970  154.8970 C   0  0  0  0  0  2  0  0  0  0  0  0
  162.1450  210.2280  151.4140 C   0  0  0  0  0  2  0  0  0  0  0  0
  161.2950  211.0760  150.4610 C   0  0  2  0  0  3  0  0  0  0  0  0
  161.9800  210.0790  148.4100 O   0  0  0  0  0  0  0  0  0  0  0  0
  161.8530  211.1470  149.0680 C   0  0  0  0  0  0  0  0  0  0  0  0
  163.4430  212.5740  147.8710 C   0  0  0  0  0  2  0  0  0  0  0  0
  162.2770  212.4310  148.4870 C   0  0  0  0  0  3  0  0  0  0  0  0
  160.9370  212.4350  151.0580 C   0  0  0  0  0  2  0  0  0  0  0  0
  159.4630  212.6780  151.0050 C   0  0  0  0  0  0  0  0  0  0  0  0
  158.7130  212.1280  151.8540 O   0  0  0  0  0  0  0  0  0  0  0  0
  158.8830  213.5480  149.9740 C   0  0  0  0  0  0  0  0  0  0  0  0
  159.5910  214.4370  149.4260 O   0  0  0  0  0  0  0  0  0  0  0  0
  157.5450  213.3850  149.6100 O   0  0  0  0  0  0  0  0  0  0  0  0
  157.4550  212.5770  147.3570 C   0  0  0  0  0  1  0  0  0  0  0  0
  157.0800  213.6950  148.3060 C   0  0  0  0  0  2  0  0  0  0  0  0
  160.4480  205.8540  149.7120 N   0  0  0  0  0  2  0  0  0  0  0  0
  160.8500  206.7310  148.6260 C   0  0  0  0  0  2  0  0  0  0  0  0
  161.9200  206.0520  147.7990 C   0  0  0  0  0  1  0  0  0  0  0  0
  1  4  1  0  0  0  0
  1  3  1  0  0  0  0
  2  1  1  0  0  0  0
  2  4  1  0  0  0  0
  3  6  1  0  0  0  0
  4 13  1  0  0  0  0
  5  8  1  0  0  0  0
  5  3  1  0  0  0  0
  7  9  1  0  0  0  0
  7  2  1  0  0  0  0
  9  5  1  0  0  0  0
 10 14  1  0  0  0  0
 11 14  1  0  0  0  0
 12 11  1  0  0  0  0
 13 12  1  0  0  0  0
 13 15  1  0  0  0  0
 15 10  1  0  0  0  0
 16  2  1  0  0  0  0
 17 22  1  0  0  0  0
 17 16  1  0  0  0  0
 18 19  2  0  0  0  0
 19 17  1  0  0  0  0
 20 21  2  0  0  0  0
 21 19  1  0  0  0  0
 23 22  1  0  0  0  0
 23 24  2  0  0  0  0
 25 23  1  0  0  0  0
 26 25  2  0  0  0  0
 27 25  1  0  0  0  0
 28 29  1  0  0  0  0
 29 27  1  0  0  0  0
 30  9  1  0  0  0  0
 31 30  1  0  0  0  0
 32 31  1  0  0  0  0
M  END
>  <MODEL>
8

>  <REMARK>
 VINA RESULT:      -3.5      2.805      5.381
  Name = 
  12 active torsions:
  status: ('A' for Active; 'I' for Inactive)
    1  A    between atoms: C_1  and  C_5
    2  A    between atoms: C_1  and  C_24
    3  A    between atoms: C_3  and  O_15
    4  A    between atoms: C_3  and  C_22
    5  A    between atoms: C_10  and  C_28
    6  A    between atoms: N_14  and  C_21
    7  A    between atoms: N_14  and  C_29
    8  A    between atoms: O_15  and  C_26
    9  A    between atoms: C_16  and  C_20
   10  A    between atoms: C_16  and  C_24
   11  A    between atoms: C_22  and  C_27
   12  A    between atoms: C_24  and  C_27
                            x       y       z     vdW  Elec       q    Type
                         _______ _______ _______ _____ _____    ______ ____

>  <TORSDO>
F 12

$$$$
=
 OpenBabel11062408203D

 32 34  0  0  1  0  0  0  0  0999 V2000
  160.8400  212.1050  152.4450 C   0  0  2  0  0  3  0  0  0  0  0  0
  160.5800  210.9190  153.3820 C   0  0  2  0  0  0  0  0  0  0  0  0
  159.6130  212.9700  152.0970 C   0  0  2  0  0  3  0  0  0  0  0  0
  160.7040  210.6860  151.8780 C   0  0  2  0  0  3  0  0  0  0  0  0
  158.4560  212.8610  153.0930 C   0  0  1  0  0  3  0  0  0  0  0  0
  159.1860  212.7410  150.7820 O   0  0  0  0  0  1  0  0  0  0  0  0
  159.1730  210.6310  153.9290 C   0  0  0  0  0  2  0  0  0  0  0  0
  157.2940  213.7410  152.6550 C   0  0  0  0  0  1  0  0  0  0  0  0
  158.0460  211.4010  153.2480 C   0  0  1  0  0  3  0  0  0  0  0  0
  161.5880  210.3370  148.9350 C   0  0  0  0  0  2  0  0  0  0  0  0
  161.2140  208.0890  150.2840 C   0  0  0  0  0  2  0  0  0  0  0  0
  162.1250  208.6550  151.3680 C   0  0  0  0  0  2  0  0  0  0  0  0
  162.0750  210.1840  151.4150 C   0  0  0  0  0  3  0  0  0  0  0  0
  161.8290  208.5580  148.6360 S   0  0  0  0  0  0  0  0  0  0  0  0
  162.4830  210.8050  150.0780 C   0  0  0  0  0  2  0  0  0  0  0  0
  161.7620  210.4600  154.2480 C   0  0  0  0  0  2  0  0  0  0  0  0
  161.3860  209.9900  155.6580 C   0  0  2  0  0  3  0  0  0  0  0  0
  162.8240  211.0560  157.2290 O   0  0  0  0  0  0  0  0  0  0  0  0
  161.6710  211.0120  156.7220 C   0  0  0  0  0  0  0  0  0  0  0  0
  160.2510  212.9950  156.4990 C   0  0  0  0  0  2  0  0  0  0  0  0
  160.6180  211.9270  157.1940 C   0  0  0  0  0  3  0  0  0  0  0  0
  161.9310  208.5980  155.9700 C   0  0  0  0  0  2  0  0  0  0  0  0
  160.9200  207.5410  155.6620 C   0  0  0  0  0  0  0  0  0  0  0  0
  160.1300  207.1560  156.5640 O   0  0  0  0  0  0  0  0  0  0  0  0
  160.8420  206.9470  154.3210 C   0  0  0  0  0  0  0  0  0  0  0  0
  160.0730  207.4440  153.4530 O   0  0  0  0  0  0  0  0  0  0  0  0
  161.6200  205.8280  154.0180 O   0  0  0  0  0  0  0  0  0  0  0  0
  162.0290  205.0270  151.7980 C   0  0  0  0  0  1  0  0  0  0  0  0
  161.2080  204.8660  153.0590 C   0  0  0  0  0  2  0  0  0  0  0  0
  156.8440  211.2870  154.0600 N   0  0  0  0  0  2  0  0  0  0  0  0
  157.2730  211.0980  155.4350 C   0  0  0  0  0  2  0  0  0  0  0  0
  156.5990  212.1250  156.3190 C   0  0  0  0  0  1  0  0  0  0  0  0
  1  2  1  0  0  0  0
  2  7  1  0  0  0  0
  2 16  1  0  0  0  0
  3  1  1  0  0  0  0
  3  5  1  0  0  0  0
  4  1  1  0  0  0  0
  4  2  1  0  0  0  0
  5  9  1  0  0  0  0
  6  3  1  0  0  0  0
  8  5  1  0  0  0  0
  9  7  1  0  0  0  0
  9 30  1  0  0  0  0
 10 15  1  0  0  0  0
 11 12  1  0  0  0  0
 12 13  1  0  0  0  0
 13  4  1  0  0  0  0
 14 10  1  0  0  0  0
 14 11  1  0  0  0  0
 15 13  1  0  0  0  0
 16 17  1  0  0  0  0
 17 22  1  0  0  0  0
 17 19  1  0  0  0  0
 19 21  1  0  0  0  0
 19 18  2  0  0  0  0
 20 21  2  0  0  0  0
 23 22  1  0  0  0  0
 23 24  2  0  0  0  0
 25 23  1  0  0  0  0
 26 25  2  0  0  0  0
 27 25  1  0  0  0  0
 28 29  1  0  0  0  0
 29 27  1  0  0  0  0
 30 31  1  0  0  0  0
 31 32  1  0  0  0  0
M  END
>  <MODEL>
9

>  <REMARK>
 VINA RESULT:      -3.4      2.913      6.045
  Name = 
  12 active torsions:
  status: ('A' for Active; 'I' for Inactive)
    1  A    between atoms: C_1  and  C_5
    2  A    between atoms: C_1  and  C_24
    3  A    between atoms: C_3  and  O_15
    4  A    between atoms: C_3  and  C_22
    5  A    between atoms: C_10  and  C_28
    6  A    between atoms: N_14  and  C_21
    7  A    between atoms: N_14  and  C_29
    8  A    between atoms: O_15  and  C_26
    9  A    between atoms: C_16  and  C_20
   10  A    between atoms: C_16  and  C_24
   11  A    between atoms: C_22  and  C_27
   12  A    between atoms: C_24  and  C_27
                            x       y       z     vdW  Elec       q    Type
                         _______ _______ _______ _____ _____    ______ ____

>  <TORSDO>
F 12

$$$$
