=
 OpenBabel11052422553D

 28 32  0  0  0  0  0  0  0  0999 V2000
  161.1320  207.4530  152.2190 N   0  0  0  0  0  0  0  0  0  0  0  0
  161.2610  206.4970  147.3630 C   0  0  0  0  0  3  0  0  0  0  0  0
  161.1320  202.4900  152.0820 C   0  0  0  0  0  1  0  0  0  0  0  0
  161.2620  204.0760  147.1610 C   0  0  0  0  0  0  0  0  0  0  0  0
  161.2140  205.1390  149.3340 C   0  0  0  0  0  0  0  0  0  0  0  0
  161.3070  205.4680  145.1760 C   0  0  0  0  0  0  0  0  0  0  0  0
  161.2470  205.2330  147.9840 C   0  0  0  0  0  0  0  0  0  0  0  0
  161.2170  202.6010  149.1640 C   0  0  0  0  0  2  0  0  0  0  0  0
  161.2920  204.2060  145.7700 C   0  0  0  0  0  3  0  0  0  0  0  0
  161.1320  205.0040  152.1260 C   0  0  0  0  0  0  0  0  0  0  0  0
  161.1970  206.2700  150.0950 N   0  0  0  0  0  0  0  0  0  0  0  0
  161.2490  202.8480  147.6850 C   0  0  0  0  0  3  0  0  0  0  0  0
  161.0610  206.1720  154.2340 C   0  0  0  0  0  3  0  0  0  0  0  0
  161.1540  203.8150  151.3810 C   0  0  0  0  0  0  0  0  0  0  0  0
  161.0890  204.9770  153.4310 N   0  0  0  0  0  0  0  0  0  0  0  0
  161.3360  205.5850  143.7930 O   0  0  0  0  0  1  0  0  0  0  0  0
  161.2910  206.6140  145.9720 C   0  0  0  0  0  3  0  0  0  0  0  0
  161.1950  203.8760  149.9730 C   0  0  0  0  0  0  0  0  0  0  0  0
  161.0800  207.3710  153.6490 C   0  0  0  0  0  3  0  0  0  0  0  0
  161.1560  206.2370  151.4520 C   0  0  0  0  0  0  0  0  0  0  0  0
  161.1110  208.7620  151.5770 C   0  0  0  0  0  2  0  0  0  0  0  0
  160.7410  209.8180  152.5630 C   0  0  0  0  0  0  0  0  0  0  0  0
  160.1060  211.8140  154.3790 C   0  0  0  0  0  0  0  0  0  0  0  0
  159.4700  210.3960  152.5380 C   0  0  0  0  0  3  0  0  0  0  0  0
  161.6760  210.2630  153.5020 C   0  0  0  0  0  3  0  0  0  0  0  0
  161.3410  211.2430  154.3850 N   0  0  0  0  0  0  0  0  0  0  0  0
  159.7790  212.8820  155.3600 C   0  0  0  0  0  1  0  0  0  0  0  0
  159.1470  211.4000  153.4530 C   0  0  0  0  0  3  0  0  0  0  0  0
  1 19  1  0  0  0  0
  2  7  1  0  0  0  0
  4 12  2  0  0  0  0
  4  7  1  0  0  0  0
  5 18  1  0  0  0  0
  5 11  1  0  0  0  0
  6  9  2  0  0  0  0
  6 17  1  0  0  0  0
  7  5  2  0  0  0  0
  8 18  1  0  0  0  0
  9  4  1  0  0  0  0
 10 15  2  0  0  0  0
 11 20  2  0  0  0  0
 12  8  1  0  0  0  0
 14  3  1  0  0  0  0
 14 10  1  0  0  0  0
 15 13  1  0  0  0  0
 16  6  1  0  0  0  0
 17  2  2  0  0  0  0
 18 14  2  0  0  0  0
 19 13  2  0  0  0  0
 20 10  1  0  0  0  0
 20  1  1  0  0  0  0
 21  1  1  0  0  0  0
 21 22  1  0  0  0  0
 22 25  1  0  0  0  0
 23 26  1  0  0  0  0
 23 27  1  0  0  0  0
 24 22  2  0  0  0  0
 24 28  1  0  0  0  0
 25 26  2  0  0  0  0
 28 23  2  0  0  0  0
M  END
>  <MODEL>
1

>  <REMARK>
 VINA RESULT:     -10.0      0.000      0.000
  Name = 
  2 active torsions:
  status: ('A' for Active; 'I' for Inactive)
    1  A    between atoms: N_1  and  C_2
    2  A    between atoms: C_2  and  C_3
                            x       y       z     vdW  Elec       q    Type
                         _______ _______ _______ _____ _____    ______ ____

>  <TORSDO>
F 2

$$$$
=
 OpenBabel11052422553D

 28 32  0  0  0  0  0  0  0  0999 V2000
  161.9640  208.8390  150.0560 N   0  0  0  0  0  0  0  0  0  0  0  0
  161.4250  204.2180  148.3610 C   0  0  0  0  0  2  0  0  0  0  0  0
  161.0070  206.2620  154.1900 C   0  0  0  0  0  1  0  0  0  0  0  0
  160.9460  202.8470  150.3080 C   0  0  0  0  0  0  0  0  0  0  0  0
  161.3180  205.2270  150.5290 C   0  0  0  0  0  0  0  0  0  0  0  0
  161.0570  201.8430  148.1030 C   0  0  0  0  0  0  0  0  0  0  0  0
  161.2330  204.1220  149.7520 C   0  0  0  0  0  0  0  0  0  0  0  0
  160.8220  203.8240  152.5920 C   0  0  0  0  0  3  0  0  0  0  0  0
  160.8620  201.7240  149.4800 C   0  0  0  0  0  3  0  0  0  0  0  0
  161.4900  207.5460  152.0830 C   0  0  0  0  0  0  0  0  0  0  0  0
  161.5920  206.4370  149.9630 N   0  0  0  0  0  0  0  0  0  0  0  0
  160.7520  202.6850  151.6190 C   0  0  0  0  0  3  0  0  0  0  0  0
  161.8530  209.9270  152.1790 C   0  0  0  0  0  3  0  0  0  0  0  0
  161.2110  206.3200  152.7060 C   0  0  0  0  0  0  0  0  0  0  0  0
  161.5730  208.6480  152.7780 N   0  0  0  0  0  0  0  0  0  0  0  0
  160.9700  200.7220  147.2900 O   0  0  0  0  0  1  0  0  0  0  0  0
  161.3380  203.0890  147.5430 C   0  0  0  0  0  3  0  0  0  0  0  0
  161.1220  205.1470  151.9290 C   0  0  0  0  0  0  0  0  0  0  0  0
  162.0410  210.0210  150.8620 C   0  0  0  0  0  3  0  0  0  0  0  0
  161.6810  207.5800  150.6910 C   0  0  0  0  0  0  0  0  0  0  0  0
  162.1290  208.9460  148.6110 C   0  0  0  0  0  2  0  0  0  0  0  0
  162.0430  210.3720  148.1840 C   0  0  0  0  0  0  0  0  0  0  0  0
  161.8320  213.0310  147.4250 C   0  0  0  0  0  0  0  0  0  0  0  0
  163.1490  211.2160  148.3060 C   0  0  0  0  0  3  0  0  0  0  0  0
  160.8420  210.8880  147.6860 C   0  0  0  0  0  3  0  0  0  0  0  0
  160.7620  212.1950  147.3190 N   0  0  0  0  0  0  0  0  0  0  0  0
  161.7040  214.4530  147.0130 C   0  0  0  0  0  1  0  0  0  0  0  0
  163.0460  212.5540  147.9230 C   0  0  0  0  0  3  0  0  0  0  0  0
  1 20  1  0  0  0  0
  1 19  1  0  0  0  0
  2  7  1  0  0  0  0
  4 12  1  0  0  0  0
  5 18  1  0  0  0  0
  6  9  1  0  0  0  0
  7  4  1  0  0  0  0
  7  5  2  0  0  0  0
  9  4  2  0  0  0  0
 10 14  1  0  0  0  0
 10 15  2  0  0  0  0
 11  5  1  0  0  0  0
 11 20  2  0  0  0  0
 12  8  2  0  0  0  0
 13 15  1  0  0  0  0
 14  3  1  0  0  0  0
 16  6  1  0  0  0  0
 17  6  2  0  0  0  0
 17  2  1  0  0  0  0
 18  8  1  0  0  0  0
 18 14  2  0  0  0  0
 19 13  2  0  0  0  0
 20 10  1  0  0  0  0
 21  1  1  0  0  0  0
 22 24  1  0  0  0  0
 22 21  1  0  0  0  0
 23 28  1  0  0  0  0
 25 22  2  0  0  0  0
 26 23  2  0  0  0  0
 26 25  1  0  0  0  0
 27 23  1  0  0  0  0
 28 24  2  0  0  0  0
M  END
>  <MODEL>
2

>  <REMARK>
 VINA RESULT:      -9.5      3.219      4.505
  Name = 
  2 active torsions:
  status: ('A' for Active; 'I' for Inactive)
    1  A    between atoms: N_1  and  C_2
    2  A    between atoms: C_2  and  C_3
                            x       y       z     vdW  Elec       q    Type
                         _______ _______ _______ _____ _____    ______ ____

>  <TORSDO>
F 2

$$$$
=
 OpenBabel11052422553D

 28 32  0  0  0  0  0  0  0  0999 V2000
  161.5780  208.0400  152.0980 N   0  0  0  0  0  0  0  0  0  0  0  0
  161.6640  206.4780  147.4000 C   0  0  0  0  0  2  0  0  0  0  0  0
  160.7930  203.1590  152.5550 C   0  0  0  0  0  1  0  0  0  0  0  0
  161.2860  204.0800  147.4900 C   0  0  0  0  0  0  0  0  0  0  0  0
  161.3570  205.4000  149.5160 C   0  0  0  0  0  0  0  0  0  0  0  0
  161.5960  205.1890  145.3560 C   0  0  0  0  0  0  0  0  0  0  0  0
  161.4350  205.3190  148.1670 C   0  0  0  0  0  0  0  0  0  0  0  0
  160.9610  202.8910  149.6510 C   0  0  0  0  0  3  0  0  0  0  0  0
  161.3670  204.0290  146.0960 C   0  0  0  0  0  3  0  0  0  0  0  0
  161.1920  205.6280  152.2980 C   0  0  0  0  0  0  0  0  0  0  0  0
  161.5030  206.6060  150.1350 N   0  0  0  0  0  0  0  0  0  0  0  0
  161.0650  202.9440  148.1550 C   0  0  0  0  0  3  0  0  0  0  0  0
  161.2590  207.0470  154.2460 C   0  0  0  0  0  3  0  0  0  0  0  0
  161.0420  204.3670  151.7020 C   0  0  0  0  0  0  0  0  0  0  0  0
  161.1150  205.7710  153.5940 N   0  0  0  0  0  0  0  0  0  0  0  0
  161.6750  205.1270  143.9720 O   0  0  0  0  0  1  0  0  0  0  0  0
  161.7440  206.4140  146.0080 C   0  0  0  0  0  3  0  0  0  0  0  0
  161.1230  204.2440  150.3000 C   0  0  0  0  0  0  0  0  0  0  0  0
  161.4810  208.1460  153.5240 C   0  0  0  0  0  3  0  0  0  0  0  0
  161.4260  206.7490  151.4830 C   0  0  0  0  0  0  0  0  0  0  0  0
  161.7800  209.2460  151.3040 C   0  0  0  0  0  2  0  0  0  0  0  0
  160.8590  210.3270  151.7590 C   0  0  0  0  0  0  0  0  0  0  0  0
  159.1310  212.3480  152.5440 C   0  0  0  0  0  0  0  0  0  0  0  0
  159.8890  210.0690  152.7300 C   0  0  0  0  0  3  0  0  0  0  0  0
  160.9360  211.6040  151.1940 C   0  0  0  0  0  3  0  0  0  0  0  0
  160.0790  212.5800  151.5950 N   0  0  0  0  0  0  0  0  0  0  0  0
  158.2130  213.4420  152.9570 C   0  0  0  0  0  1  0  0  0  0  0  0
  159.0190  211.0850  153.1290 C   0  0  0  0  0  3  0  0  0  0  0  0
  1 19  1  0  0  0  0
  2  7  1  0  0  0  0
  4 12  1  0  0  0  0
  4  7  1  0  0  0  0
  5 11  1  0  0  0  0
  5 18  1  0  0  0  0
  6 17  2  0  0  0  0
  6  9  1  0  0  0  0
  7  5  2  0  0  0  0
  8 18  1  0  0  0  0
  9  4  2  0  0  0  0
 10 15  2  0  0  0  0
 11 20  2  0  0  0  0
 12  8  2  0  0  0  0
 14 10  1  0  0  0  0
 14  3  1  0  0  0  0
 15 13  1  0  0  0  0
 16  6  1  0  0  0  0
 17  2  1  0  0  0  0
 18 14  2  0  0  0  0
 19 13  2  0  0  0  0
 20  1  1  0  0  0  0
 20 10  1  0  0  0  0
 21 22  1  0  0  0  0
 21  1  1  0  0  0  0
 22 24  1  0  0  0  0
 23 27  1  0  0  0  0
 23 28  1  0  0  0  0
 24 28  2  0  0  0  0
 25 26  1  0  0  0  0
 25 22  2  0  0  0  0
 26 23  2  0  0  0  0
M  END
>  <MODEL>
3

>  <REMARK>
 VINA RESULT:      -9.2      1.131      1.217
  Name = 
  2 active torsions:
  status: ('A' for Active; 'I' for Inactive)
    1  A    between atoms: N_1  and  C_2
    2  A    between atoms: C_2  and  C_3
                            x       y       z     vdW  Elec       q    Type
                         _______ _______ _______ _____ _____    ______ ____

>  <TORSDO>
F 2

$$$$
=
 OpenBabel11052422553D

 28 32  0  0  0  0  0  0  0  0999 V2000
  161.3670  205.0260  148.8480 N   0  0  0  0  0  0  0  0  0  0  0  0
  160.7600  206.4640  153.5470 C   0  0  0  0  0  3  0  0  0  0  0  0
  162.3310  209.8910  148.6360 C   0  0  0  0  0  1  0  0  0  0  0  0
  161.2060  208.8510  153.5750 C   0  0  0  0  0  0  0  0  0  0  0  0
  161.3600  207.5850  151.5190 C   0  0  0  0  0  0  0  0  0  0  0  0
  160.5940  207.6980  155.6190 C   0  0  0  0  0  0  0  0  0  0  0  0
  161.1160  207.6330  152.8500 C   0  0  0  0  0  0  0  0  0  0  0  0
  161.8370  210.0830  151.5090 C   0  0  0  0  0  2  0  0  0  0  0  0
  160.9450  208.8700  154.9480 C   0  0  0  0  0  3  0  0  0  0  0  0
  161.8390  207.4290  148.7680 C   0  0  0  0  0  0  0  0  0  0  0  0
  161.2630  206.4000  150.8520 N   0  0  0  0  0  0  0  0  0  0  0  0
  161.5380  209.9970  152.9750 C   0  0  0  0  0  3  0  0  0  0  0  0
  161.9370  206.0720  146.7780 C   0  0  0  0  0  3  0  0  0  0  0  0
  161.9550  208.6680  149.4170 C   0  0  0  0  0  0  0  0  0  0  0  0
  162.0500  207.3220  147.4840 N   0  0  0  0  0  0  0  0  0  0  0  0
  160.3370  207.7290  156.9820 O   0  0  0  0  0  1  0  0  0  0  0  0
  160.5010  206.4950  154.9190 C   0  0  0  0  0  3  0  0  0  0  0  0
  161.7150  208.7540  150.8030 C   0  0  0  0  0  0  0  0  0  0  0  0
  161.6050  204.9610  147.4370 C   0  0  0  0  0  3  0  0  0  0  0  0
  161.4870  206.2930  149.5170 C   0  0  0  0  0  0  0  0  0  0  0  0
  160.9640  203.8200  149.5620 C   0  0  0  0  0  2  0  0  0  0  0  0
  161.0360  202.6340  148.6600 C   0  0  0  0  0  0  0  0  0  0  0  0
  161.2060  200.4640  146.9430 C   0  0  0  0  0  0  0  0  0  0  0  0
  161.4960  201.4070  149.1410 C   0  0  0  0  0  3  0  0  0  0  0  0
  160.6760  202.7490  147.3140 C   0  0  0  0  0  3  0  0  0  0  0  0
  160.7660  201.6700  146.4900 N   0  0  0  0  0  0  0  0  0  0  0  0
  161.2900  199.3090  146.0110 C   0  0  0  0  0  1  0  0  0  0  0  0
  161.5810  200.3110  148.2800 C   0  0  0  0  0  3  0  0  0  0  0  0
  1 20  1  0  0  0  0
  1 21  1  0  0  0  0
  2 17  2  0  0  0  0
  3 14  1  0  0  0  0
  4  9  1  0  0  0  0
  5  7  2  0  0  0  0
  6 16  1  0  0  0  0
  7  2  1  0  0  0  0
  7  4  1  0  0  0  0
  8 12  1  0  0  0  0
  9  6  2  0  0  0  0
 10 14  1  0  0  0  0
 10 20  1  0  0  0  0
 11  5  1  0  0  0  0
 12  4  2  0  0  0  0
 13 19  2  0  0  0  0
 13 15  1  0  0  0  0
 14 18  2  0  0  0  0
 15 10  2  0  0  0  0
 17  6  1  0  0  0  0
 18  8  1  0  0  0  0
 18  5  1  0  0  0  0
 19  1  1  0  0  0  0
 20 11  2  0  0  0  0
 22 24  1  0  0  0  0
 22 21  1  0  0  0  0
 23 28  1  0  0  0  0
 25 22  2  0  0  0  0
 26 23  2  0  0  0  0
 26 25  1  0  0  0  0
 27 23  1  0  0  0  0
 28 24  2  0  0  0  0
M  END
>  <MODEL>
4

>  <REMARK>
 VINA RESULT:      -8.9      3.267      8.711
  Name = 
  2 active torsions:
  status: ('A' for Active; 'I' for Inactive)
    1  A    between atoms: N_1  and  C_2
    2  A    between atoms: C_2  and  C_3
                            x       y       z     vdW  Elec       q    Type
                         _______ _______ _______ _____ _____    ______ ____

>  <TORSDO>
F 2

$$$$
=
 OpenBabel11052422553D

 28 32  0  0  0  0  0  0  0  0999 V2000
  160.5010  211.0930  153.6580 N   0  0  0  0  0  0  0  0  0  0  0  0
  161.0400  207.7380  150.0570 C   0  0  0  0  0  2  0  0  0  0  0  0
  160.7820  206.8230  156.1750 C   0  0  0  0  0  1  0  0  0  0  0  0
  161.1880  205.5850  151.1710 C   0  0  0  0  0  0  0  0  0  0  0  0
  160.9220  207.6240  152.4450 C   0  0  0  0  0  0  0  0  0  0  0  0
  161.3030  205.7200  148.7520 C   0  0  0  0  0  0  0  0  0  0  0  0
  161.0490  206.9950  151.2520 C   0  0  0  0  0  0  0  0  0  0  0  0
  161.0760  205.3880  153.6480 C   0  0  0  0  0  3  0  0  0  0  0  0
  161.3130  204.9640  149.9250 C   0  0  0  0  0  3  0  0  0  0  0  0
  160.6430  208.9730  154.8790 C   0  0  0  0  0  0  0  0  0  0  0  0
  160.7880  208.9790  152.4890 N   0  0  0  0  0  0  0  0  0  0  0  0
  161.2030  204.8210  152.2650 C   0  0  0  0  0  3  0  0  0  0  0  0
  160.3530  211.0640  156.0420 C   0  0  0  0  0  3  0  0  0  0  0  0
  160.7840  207.5770  154.8790 C   0  0  0  0  0  0  0  0  0  0  0  0
  160.5050  209.6330  155.9970 N   0  0  0  0  0  0  0  0  0  0  0  0
  161.4270  205.0940  147.5200 O   0  0  0  0  0  1  0  0  0  0  0  0
  161.1660  207.1070  148.8170 C   0  0  0  0  0  3  0  0  0  0  0  0
  160.9250  206.8900  153.6560 C   0  0  0  0  0  0  0  0  0  0  0  0
  160.3490  211.7720  154.9110 C   0  0  0  0  0  3  0  0  0  0  0  0
  160.6480  209.6630  153.6550 C   0  0  0  0  0  0  0  0  0  0  0  0
  160.4560  211.8600  152.4190 C   0  0  0  0  0  2  0  0  0  0  0  0
  159.1390  212.5460  152.2810 C   0  0  0  0  0  0  0  0  0  0  0  0
  156.6770  213.7840  151.9740 C   0  0  0  0  0  0  0  0  0  0  0  0
  158.2680  212.6310  153.3690 C   0  0  0  0  0  3  0  0  0  0  0  0
  158.7490  213.0830  151.0510 C   0  0  0  0  0  3  0  0  0  0  0  0
  157.5370  213.6870  150.9240 N   0  0  0  0  0  0  0  0  0  0  0  0
  155.3620  214.4530  151.7960 C   0  0  0  0  0  1  0  0  0  0  0  0
  157.0280  213.2560  153.2180 C   0  0  0  0  0  3  0  0  0  0  0  0
  1 19  1  0  0  0  0
  2  7  1  0  0  0  0
  4  7  1  0  0  0  0
  4 12  1  0  0  0  0
  5 11  1  0  0  0  0
  5 18  1  0  0  0  0
  6 17  2  0  0  0  0
  6  9  1  0  0  0  0
  7  5  2  0  0  0  0
  8 18  1  0  0  0  0
  9  4  2  0  0  0  0
 10 15  2  0  0  0  0
 11 20  2  0  0  0  0
 12  8  2  0  0  0  0
 14 10  1  0  0  0  0
 14  3  1  0  0  0  0
 15 13  1  0  0  0  0
 16  6  1  0  0  0  0
 17  2  1  0  0  0  0
 18 14  2  0  0  0  0
 19 13  2  0  0  0  0
 20  1  1  0  0  0  0
 20 10  1  0  0  0  0
 21  1  1  0  0  0  0
 22 21  1  0  0  0  0
 22 24  1  0  0  0  0
 23 28  1  0  0  0  0
 25 22  2  0  0  0  0
 26 25  1  0  0  0  0
 26 23  2  0  0  0  0
 27 23  1  0  0  0  0
 28 24  2  0  0  0  0
M  END
>  <MODEL>
5

>  <REMARK>
 VINA RESULT:      -8.3      2.294      4.400
  Name = 
  2 active torsions:
  status: ('A' for Active; 'I' for Inactive)
    1  A    between atoms: N_1  and  C_2
    2  A    between atoms: C_2  and  C_3
                            x       y       z     vdW  Elec       q    Type
                         _______ _______ _______ _____ _____    ______ ____

>  <TORSDO>
F 2

$$$$
=
 OpenBabel11052422553D

 28 32  0  0  0  0  0  0  0  0999 V2000
  161.0780  203.8570  149.6370 N   0  0  0  0  0  0  0  0  0  0  0  0
  161.7800  208.6860  148.8020 C   0  0  0  0  0  2  0  0  0  0  0  0
  161.1110  205.7650  154.2200 C   0  0  0  0  0  1  0  0  0  0  0  0
  161.8170  209.7410  150.9900 C   0  0  0  0  0  0  0  0  0  0  0  0
  161.4930  207.3540  150.7700 C   0  0  0  0  0  0  0  0  0  0  0  0
  162.1090  211.0740  148.9850 C   0  0  0  0  0  0  0  0  0  0  0  0
  161.6910  208.5670  150.2020 C   0  0  0  0  0  0  0  0  0  0  0  0
  161.5230  208.4220  153.0780 C   0  0  0  0  0  3  0  0  0  0  0  0
  162.0250  210.9790  150.3750 C   0  0  0  0  0  3  0  0  0  0  0  0
  161.0980  204.8220  151.8900 C   0  0  0  0  0  0  0  0  0  0  0  0
  161.3780  206.2460  149.9850 N   0  0  0  0  0  0  0  0  0  0  0  0
  161.7440  209.6980  152.3220 C   0  0  0  0  0  3  0  0  0  0  0  0
  160.8070  202.4530  151.5500 C   0  0  0  0  0  3  0  0  0  0  0  0
  161.2050  205.9380  152.7340 C   0  0  0  0  0  0  0  0  0  0  0  0
  160.9180  203.6250  152.3800 N   0  0  0  0  0  0  0  0  0  0  0  0
  162.3160  212.3080  148.3850 O   0  0  0  0  0  1  0  0  0  0  0  0
  161.9870  209.9280  148.1990 C   0  0  0  0  0  3  0  0  0  0  0  0
  161.4050  207.2170  152.1770 C   0  0  0  0  0  0  0  0  0  0  0  0
  160.8860  202.5630  150.2240 C   0  0  0  0  0  3  0  0  0  0  0  0
  161.1870  205.0030  150.4990 C   0  0  0  0  0  0  0  0  0  0  0  0
  161.2060  203.9740  148.1900 C   0  0  0  0  0  2  0  0  0  0  0  0
  161.1940  202.6230  147.5570 C   0  0  0  0  0  0  0  0  0  0  0  0
  161.2060  200.1360  146.3330 C   0  0  0  0  0  0  0  0  0  0  0  0
  161.5760  201.4960  148.2870 C   0  0  0  0  0  3  0  0  0  0  0  0
  160.8290  202.4770  146.2150 C   0  0  0  0  0  3  0  0  0  0  0  0
  160.8420  201.2470  145.6360 N   0  0  0  0  0  0  0  0  0  0  0  0
  161.2060  198.8080  145.6640 C   0  0  0  0  0  1  0  0  0  0  0  0
  161.5820  200.2420  147.6740 C   0  0  0  0  0  3  0  0  0  0  0  0
  1 19  1  0  0  0  0
  1 20  1  0  0  0  0
  2  7  1  0  0  0  0
  4 12  1  0  0  0  0
  5 18  1  0  0  0  0
  6  9  1  0  0  0  0
  7  5  2  0  0  0  0
  7  4  1  0  0  0  0
  9  4  2  0  0  0  0
 10 15  2  0  0  0  0
 10 14  1  0  0  0  0
 11 20  2  0  0  0  0
 11  5  1  0  0  0  0
 12  8  2  0  0  0  0
 13 15  1  0  0  0  0
 14  3  1  0  0  0  0
 16  6  1  0  0  0  0
 17  2  1  0  0  0  0
 17  6  2  0  0  0  0
 18 14  2  0  0  0  0
 18  8  1  0  0  0  0
 19 13  2  0  0  0  0
 20 10  1  0  0  0  0
 21  1  1  0  0  0  0
 22 21  1  0  0  0  0
 22 24  1  0  0  0  0
 23 28  1  0  0  0  0
 25 22  2  0  0  0  0
 26 25  1  0  0  0  0
 26 23  2  0  0  0  0
 27 23  1  0  0  0  0
 28 24  2  0  0  0  0
M  END
>  <MODEL>
6

>  <REMARK>
 VINA RESULT:      -7.9      2.813      7.738
  Name = 
  2 active torsions:
  status: ('A' for Active; 'I' for Inactive)
    1  A    between atoms: N_1  and  C_2
    2  A    between atoms: C_2  and  C_3
                            x       y       z     vdW  Elec       q    Type
                         _______ _______ _______ _____ _____    ______ ____

>  <TORSDO>
F 2

$$$$
=
 OpenBabel11052422553D

 28 32  0  0  0  0  0  0  0  0999 V2000
  161.6400  207.4720  152.6570 N   0  0  0  0  0  0  0  0  0  0  0  0
  161.9500  211.0640  149.2630 C   0  0  0  0  0  2  0  0  0  0  0  0
  159.0860  211.1790  154.7510 C   0  0  0  0  0  1  0  0  0  0  0  0
  160.7280  212.9520  150.1800 C   0  0  0  0  0  0  0  0  0  0  0  0
  160.9120  210.8790  151.4120 C   0  0  0  0  0  0  0  0  0  0  0  0
  161.7890  213.1220  148.0050 C   0  0  0  0  0  0  0  0  0  0  0  0
  161.1880  211.6150  150.3100 C   0  0  0  0  0  0  0  0  0  0  0  0
  159.6220  212.8330  152.4040 C   0  0  0  0  0  3  0  0  0  0  0  0
  161.0330  213.6890  149.0310 C   0  0  0  0  0  3  0  0  0  0  0  0
  160.3840  209.3160  153.6710 C   0  0  0  0  0  0  0  0  0  0  0  0
  161.3710  209.5990  151.5070 N   0  0  0  0  0  0  0  0  0  0  0  0
  160.0020  213.5370  151.1350 C   0  0  0  0  0  3  0  0  0  0  0  0
  160.6540  207.2130  154.8160 C   0  0  0  0  0  3  0  0  0  0  0  0
  159.8880  210.6280  153.6100 C   0  0  0  0  0  0  0  0  0  0  0  0
  160.1600  208.5610  154.7130 N   0  0  0  0  0  0  0  0  0  0  0  0
  162.0850  213.8620  146.8700 O   0  0  0  0  0  1  0  0  0  0  0  0
  162.2480  211.8090  148.1200 C   0  0  0  0  0  3  0  0  0  0  0  0
  160.1510  211.4210  152.4760 C   0  0  0  0  0  0  0  0  0  0  0  0
  161.3710  206.6850  153.8240 C   0  0  0  0  0  3  0  0  0  0  0  0
  161.1320  208.8160  152.5920 C   0  0  0  0  0  0  0  0  0  0  0  0
  162.4590  206.9110  151.5890 C   0  0  0  0  0  2  0  0  0  0  0  0
  161.8390  205.6610  151.0620 C   0  0  0  0  0  0  0  0  0  0  0  0
  160.7220  203.3440  150.0290 C   0  0  0  0  0  0  0  0  0  0  0  0
  161.8630  204.4870  151.8170 C   0  0  0  0  0  3  0  0  0  0  0  0
  161.2570  205.6450  149.7910 C   0  0  0  0  0  3  0  0  0  0  0  0
  160.7140  204.4970  149.3050 N   0  0  0  0  0  0  0  0  0  0  0  0
  160.1180  202.1090  149.4630 C   0  0  0  0  0  1  0  0  0  0  0  0
  161.3000  203.3190  151.3000 C   0  0  0  0  0  3  0  0  0  0  0  0
  1 19  1  0  0  0  0
  2  7  1  0  0  0  0
  4  7  1  0  0  0  0
  4 12  1  0  0  0  0
  5 11  1  0  0  0  0
  5 18  1  0  0  0  0
  6 17  2  0  0  0  0
  6  9  1  0  0  0  0
  7  5  2  0  0  0  0
  8 18  1  0  0  0  0
  9  4  2  0  0  0  0
 10 15  2  0  0  0  0
 11 20  2  0  0  0  0
 12  8  2  0  0  0  0
 14 10  1  0  0  0  0
 14  3  1  0  0  0  0
 15 13  1  0  0  0  0
 16  6  1  0  0  0  0
 17  2  1  0  0  0  0
 18 14  2  0  0  0  0
 19 13  2  0  0  0  0
 20  1  1  0  0  0  0
 20 10  1  0  0  0  0
 21  1  1  0  0  0  0
 22 21  1  0  0  0  0
 22 24  1  0  0  0  0
 23 28  1  0  0  0  0
 25 22  2  0  0  0  0
 26 25  1  0  0  0  0
 26 23  2  0  0  0  0
 27 23  1  0  0  0  0
 28 24  2  0  0  0  0
M  END
>  <MODEL>
7

>  <REMARK>
 VINA RESULT:      -7.8      2.945      7.260
  Name = 
  2 active torsions:
  status: ('A' for Active; 'I' for Inactive)
    1  A    between atoms: N_1  and  C_2
    2  A    between atoms: C_2  and  C_3
                            x       y       z     vdW  Elec       q    Type
                         _______ _______ _______ _____ _____    ______ ____

>  <TORSDO>
F 2

$$$$
=
 OpenBabel11052422553D

 28 32  0  0  0  0  0  0  0  0999 V2000
  160.7520  209.3750  155.6360 N   0  0  0  0  0  0  0  0  0  0  0  0
  161.6930  210.8620  151.0080 C   0  0  0  0  0  3  0  0  0  0  0  0
  161.0760  205.0870  153.1550 C   0  0  0  0  0  1  0  0  0  0  0  0
  161.8740  208.8350  149.6820 C   0  0  0  0  0  0  0  0  0  0  0  0
  161.4230  208.7270  152.0560 C   0  0  0  0  0  0  0  0  0  0  0  0
  162.1410  211.0070  148.6380 C   0  0  0  0  0  0  0  0  0  0  0  0
  161.6600  209.4570  150.9410 C   0  0  0  0  0  0  0  0  0  0  0  0
  161.6080  206.5820  150.7020 C   0  0  0  0  0  2  0  0  0  0  0  0
  162.1120  209.6160  148.5470 C   0  0  0  0  0  3  0  0  0  0  0  0
  160.9170  207.2710  154.3900 C   0  0  0  0  0  0  0  0  0  0  0  0
  161.2190  209.3550  153.2490 N   0  0  0  0  0  0  0  0  0  0  0  0
  161.8540  207.5070  149.5470 C   0  0  0  0  0  3  0  0  0  0  0  0
  160.4470  207.2870  156.7540 C   0  0  0  0  0  3  0  0  0  0  0  0
  161.1270  206.5860  153.1840 C   0  0  0  0  0  0  0  0  0  0  0  0
  160.6730  206.6230  155.4970 N   0  0  0  0  0  0  0  0  0  0  0  0
  162.3780  211.7720  147.5040 O   0  0  0  0  0  1  0  0  0  0  0  0
  161.9320  211.6310  149.8670 C   0  0  0  0  0  3  0  0  0  0  0  0
  161.3820  207.3130  152.0040 C   0  0  0  0  0  0  0  0  0  0  0  0
  160.4840  208.6180  156.8230 C   0  0  0  0  0  3  0  0  0  0  0  0
  160.9690  208.6750  154.3990 C   0  0  0  0  0  0  0  0  0  0  0  0
  160.7510  210.8310  155.7010 C   0  0  0  0  0  2  0  0  0  0  0  0
  159.4210  211.3690  155.2930 C   0  0  0  0  0  0  0  0  0  0  0  0
  156.9450  212.3980  154.5880 C   0  0  0  0  0  0  0  0  0  0  0  0
  159.2720  212.0380  154.0760 C   0  0  0  0  0  3  0  0  0  0  0  0
  158.3170  211.2360  156.1390 C   0  0  0  0  0  3  0  0  0  0  0  0
  157.1110  211.7480  155.7720 N   0  0  0  0  0  0  0  0  0  0  0  0
  155.6110  212.9430  154.2220 C   0  0  0  0  0  1  0  0  0  0  0  0
  158.0260  212.5560  153.7170 C   0  0  0  0  0  3  0  0  0  0  0  0
  1 21  1  0  0  0  0
  1 19  1  0  0  0  0
  3 14  1  0  0  0  0
  4  7  1  0  0  0  0
  5 11  1  0  0  0  0
  6 17  1  0  0  0  0
  7  2  1  0  0  0  0
  7  5  2  0  0  0  0
  8 18  1  0  0  0  0
  9  6  2  0  0  0  0
  9  4  1  0  0  0  0
 10 20  1  0  0  0  0
 10 15  2  0  0  0  0
 11 20  2  0  0  0  0
 12  4  2  0  0  0  0
 12  8  1  0  0  0  0
 13 19  2  0  0  0  0
 14 10  1  0  0  0  0
 15 13  1  0  0  0  0
 16  6  1  0  0  0  0
 17  2  2  0  0  0  0
 18  5  1  0  0  0  0
 18 14  2  0  0  0  0
 20  1  1  0  0  0  0
 22 21  1  0  0  0  0
 22 25  1  0  0  0  0
 23 26  1  0  0  0  0
 24 22  2  0  0  0  0
 26 25  2  0  0  0  0
 27 23  1  0  0  0  0
 28 24  1  0  0  0  0
 28 23  2  0  0  0  0
M  END
>  <MODEL>
8

>  <REMARK>
 VINA RESULT:      -7.7      3.103      4.467
  Name = 
  2 active torsions:
  status: ('A' for Active; 'I' for Inactive)
    1  A    between atoms: N_1  and  C_2
    2  A    between atoms: C_2  and  C_3
                            x       y       z     vdW  Elec       q    Type
                         _______ _______ _______ _____ _____    ______ ____

>  <TORSDO>
F 2

$$$$
=
 OpenBabel11052422553D

 28 32  0  0  0  0  0  0  0  0999 V2000
  162.0380  210.1100  149.3690 N   0  0  0  0  0  0  0  0  0  0  0  0
  160.4310  211.4370  153.8600 C   0  0  0  0  0  2  0  0  0  0  0  0
  161.6130  205.7520  151.7100 C   0  0  0  0  0  1  0  0  0  0  0  0
  160.1830  209.3720  155.1150 C   0  0  0  0  0  0  0  0  0  0  0  0
  160.9420  209.3430  152.8190 C   0  0  0  0  0  0  0  0  0  0  0  0
  159.6720  211.5030  156.1540 C   0  0  0  0  0  0  0  0  0  0  0  0
  160.5260  210.0330  153.9060 C   0  0  0  0  0  0  0  0  0  0  0  0
  160.6930  207.1600  154.0990 C   0  0  0  0  0  3  0  0  0  0  0  0
  159.7600  210.1120  156.2230 C   0  0  0  0  0  3  0  0  0  0  0  0
  161.8200  207.9710  150.5460 C   0  0  0  0  0  0  0  0  0  0  0  0
  161.2670  210.0090  151.6740 N   0  0  0  0  0  0  0  0  0  0  0  0
  160.2520  208.0440  155.2270 C   0  0  0  0  0  3  0  0  0  0  0  0
  162.5910  208.0660  148.2630 C   0  0  0  0  0  3  0  0  0  0  0  0
  161.4910  207.2470  151.7010 C   0  0  0  0  0  0  0  0  0  0  0  0
  162.2380  207.3610  149.4680 N   0  0  0  0  0  0  0  0  0  0  0  0
  159.2520  212.2270  157.2610 O   0  0  0  0  0  1  0  0  0  0  0  0
  160.0070  212.1660  154.9740 C   0  0  0  0  0  3  0  0  0  0  0  0
  161.0480  207.9310  152.8510 C   0  0  0  0  0  0  0  0  0  0  0  0
  162.4960  209.3960  148.2140 C   0  0  0  0  0  3  0  0  0  0  0  0
  161.6980  209.3700  150.5550 C   0  0  0  0  0  0  0  0  0  0  0  0
  161.9740  211.5650  149.3310 C   0  0  0  0  0  2  0  0  0  0  0  0
  161.7690  212.0390  147.9310 C   0  0  0  0  0  0  0  0  0  0  0  0
  161.3390  212.9540  145.3500 C   0  0  0  0  0  0  0  0  0  0  0  0
  162.8180  212.6310  147.2240 C   0  0  0  0  0  3  0  0  0  0  0  0
  160.5150  211.9250  147.3250 C   0  0  0  0  0  3  0  0  0  0  0  0
  160.3270  212.3800  146.0570 N   0  0  0  0  0  0  0  0  0  0  0  0
  161.0930  213.4380  143.9660 C   0  0  0  0  0  1  0  0  0  0  0  0
  162.6040  213.0910  145.9230 C   0  0  0  0  0  3  0  0  0  0  0  0
  1 20  1  0  0  0  0
  2  7  1  0  0  0  0
  2 17  1  0  0  0  0
  4 12  1  0  0  0  0
  4  9  2  0  0  0  0
  5 18  1  0  0  0  0
  5  7  2  0  0  0  0
  6  9  1  0  0  0  0
  6 16  1  0  0  0  0
  7  4  1  0  0  0  0
  8 12  2  0  0  0  0
 10 20  1  0  0  0  0
 10 14  1  0  0  0  0
 11  5  1  0  0  0  0
 13 15  1  0  0  0  0
 14  3  1  0  0  0  0
 14 18  2  0  0  0  0
 15 10  2  0  0  0  0
 17  6  2  0  0  0  0
 18  8  1  0  0  0  0
 19 13  2  0  0  0  0
 19  1  1  0  0  0  0
 20 11  2  0  0  0  0
 21  1  1  0  0  0  0
 22 21  1  0  0  0  0
 23 28  2  0  0  0  0
 23 26  1  0  0  0  0
 24 22  2  0  0  0  0
 25 22  1  0  0  0  0
 26 25  2  0  0  0  0
 27 23  1  0  0  0  0
 28 24  1  0  0  0  0
M  END
>  <MODEL>
9

>  <REMARK>
 VINA RESULT:      -7.5      4.597      7.833
  Name = 
  2 active torsions:
  status: ('A' for Active; 'I' for Inactive)
    1  A    between atoms: N_1  and  C_2
    2  A    between atoms: C_2  and  C_3
                            x       y       z     vdW  Elec       q    Type
                         _______ _______ _______ _____ _____    ______ ____

>  <TORSDO>
F 2

$$$$
