=
 OpenBabel11052423073D

 27 31  0  0  1  0  0  0  0  0999 V2000
  162.4370  210.1750  151.6760 N   0  0  0  0  0  2  0  0  0  0  0  0
  161.3820  210.0100  153.8400 C   0  0  0  0  0  0  0  0  0  0  0  0
  159.4780  210.9960  152.4760 C   0  0  0  0  0  2  0  0  0  0  0  0
  160.2440  212.6120  156.8550 N   0  0  0  0  0  0  0  0  0  0  0  0
  158.1540  213.8210  157.2600 C   0  0  0  0  0  1  0  0  0  0  0  0
  162.2420  210.2630  154.7960 N   0  0  0  0  0  0  0  0  0  0  0  0
  158.7030  212.3540  155.3080 C   0  0  0  0  0  0  0  0  0  0  0  0
  160.5390  213.3850  149.6990 C   0  0  0  0  0  2  0  0  0  0  0  0
  157.3700  212.4180  154.6410 C   0  0  0  0  0  1  0  0  0  0  0  0
  161.2050  212.3320  148.8350 C   0  0  1  0  0  3  0  0  0  0  0  0
  159.7910  211.6100  154.9040 C   0  0  0  0  0  0  0  0  0  0  0  0
  161.8320  209.3630  152.6500 N   0  0  0  0  0  0  0  0  0  0  0  0
  159.0220  212.9590  156.4750 N   0  0  0  0  0  0  0  0  0  0  0  0
  160.7030  211.7880  155.8950 C   0  0  0  0  0  0  0  0  0  0  0  0
  161.4070  210.8000  150.8390 C   0  0  2  0  0  3  0  0  0  0  0  0
  159.9610  210.5520  153.8590 C   0  0  2  0  0  3  0  0  0  0  0  0
  159.6800  212.6900  150.7400 C   0  0  0  0  0  2  0  0  0  0  0  0
  161.9350  211.0820  155.9030 N   0  0  0  0  0  2  0  0  0  0  0  0
  161.9340  212.9550  147.8230 O   0  0  0  0  0  1  0  0  0  0  0  0
  162.1430  211.5100  149.7000 C   0  0  0  0  0  2  0  0  0  0  0  0
  160.5050  211.7790  151.6530 C   0  0  1  0  0  3  0  0  0  0  0  0
  160.9550  205.3250  151.8320 N   0  0  0  0  0  0  0  0  0  0  0  0
  161.5300  207.9830  152.3760 C   0  0  0  0  0  0  0  0  0  0  0  0
  161.3940  207.5390  151.0520 C   0  0  0  0  0  3  0  0  0  0  0  0
  161.1030  206.1970  150.7990 C   0  0  0  0  0  3  0  0  0  0  0  0
  161.0850  205.7250  153.1250 C   0  0  0  0  0  3  0  0  0  0  0  0
  161.3740  207.0590  153.4200 C   0  0  0  0  0  3  0  0  0  0  0  0
  1 12  1  0  0  0  0
  2 16  1  0  0  0  0
  2  6  2  0  0  0  0
  6 18  1  0  0  0  0
  7 13  1  0  0  0  0
  8 17  1  0  0  0  0
  9  7  1  0  0  0  0
 10 19  1  6  0  0  0
 10  8  1  0  0  0  0
 10 20  1  0  0  0  0
 11  7  2  0  0  0  0
 11 14  1  0  0  0  0
 12  2  1  0  0  0  0
 13  4  1  0  0  0  0
 13  5  1  0  0  0  0
 14 18  1  0  0  0  0
 14  4  2  0  0  0  0
 15 20  1  6  0  0  0
 15 21  1  0  0  0  0
 15  1  1  0  0  0  0
 16  3  1  6  0  0  0
 16 11  1  0  0  0  0
 21 17  1  6  0  0  0
 21  3  1  0  0  0  0
 22 26  1  0  0  0  0
 23 12  1  0  0  0  0
 23 27  1  0  0  0  0
 24 23  2  0  0  0  0
 25 24  1  0  0  0  0
 25 22  2  0  0  0  0
 26 27  2  0  0  0  0
M  END
>  <MODEL>
1

>  <REMARK>
 VINA RESULT:      -5.7      0.000      0.000
  Name = 
  1 active torsions:
  status: ('A' for Active; 'I' for Inactive)
    1  A    between atoms: C_9  and  N_15
                            x       y       z     vdW  Elec       q    Type
                         _______ _______ _______ _____ _____    ______ ____

>  <TORSDO>
F 1

$$$$
=
 OpenBabel11052423073D

 27 31  0  0  1  0  0  0  0  0999 V2000
  162.7970  210.7780  150.1320 N   0  0  0  0  0  2  0  0  0  0  0  0
  161.7390  210.1110  152.1960 C   0  0  0  0  0  0  0  0  0  0  0  0
  159.8710  211.4740  151.1430 C   0  0  0  0  0  2  0  0  0  0  0  0
  160.7000  211.9100  155.7800 N   0  0  0  0  0  0  0  0  0  0  0  0
  158.6560  213.0500  156.4970 C   0  0  0  0  0  1  0  0  0  0  0  0
  162.6090  210.0860  153.1770 N   0  0  0  0  0  0  0  0  0  0  0  0
  159.1490  212.1030  154.2340 C   0  0  0  0  0  0  0  0  0  0  0  0
  161.0150  214.4450  149.0440 C   0  0  0  0  0  2  0  0  0  0  0  0
  157.8180  212.3790  153.6180 C   0  0  0  0  0  1  0  0  0  0  0  0
  161.6410  213.6210  147.9360 C   0  0  1  0  0  3  0  0  0  0  0  0
  160.2080  211.4470  153.6440 C   0  0  0  0  0  0  0  0  0  0  0  0
  162.1640  209.7690  150.8770 N   0  0  0  0  0  0  0  0  0  0  0  0
  159.4900  212.3840  155.5120 N   0  0  0  0  0  0  0  0  0  0  0  0
  161.1280  211.3380  154.6390 C   0  0  0  0  0  0  0  0  0  0  0  0
  161.7890  211.6290  149.4900 C   0  0  2  0  0  3  0  0  0  0  0  0
  160.3380  210.6800  152.3660 C   0  0  2  0  0  3  0  0  0  0  0  0
  160.1320  213.5420  149.8860 C   0  0  0  0  0  2  0  0  0  0  0  0
  162.3330  210.6100  154.4570 N   0  0  0  0  0  2  0  0  0  0  0  0
  162.3900  214.4530  147.1070 O   0  0  0  0  0  1  0  0  0  0  0  0
  162.5490  212.5760  148.5580 C   0  0  0  0  0  2  0  0  0  0  0  0
  160.9240  212.4020  150.5320 C   0  0  1  0  0  3  0  0  0  0  0  0
  161.1410  206.0990  149.0810 N   0  0  0  0  0  0  0  0  0  0  0  0
  161.8120  208.5130  150.2690 C   0  0  0  0  0  0  0  0  0  0  0  0
  161.7720  208.3920  148.8720 C   0  0  0  0  0  3  0  0  0  0  0  0
  161.4310  207.1680  148.2940 C   0  0  0  0  0  3  0  0  0  0  0  0
  161.1740  206.1850  150.4380 C   0  0  0  0  0  3  0  0  0  0  0  0
  161.5100  207.3910  151.0550 C   0  0  0  0  0  3  0  0  0  0  0  0
  1 12  1  0  0  0  0
  2 16  1  0  0  0  0
  2  6  2  0  0  0  0
  6 18  1  0  0  0  0
  7 13  1  0  0  0  0
  8 17  1  0  0  0  0
  9  7  1  0  0  0  0
 10 19  1  6  0  0  0
 10 20  1  0  0  0  0
 10  8  1  0  0  0  0
 11  7  2  0  0  0  0
 11 14  1  0  0  0  0
 12  2  1  0  0  0  0
 13  4  1  0  0  0  0
 13  5  1  0  0  0  0
 14  4  2  0  0  0  0
 15 20  1  6  0  0  0
 15  1  1  0  0  0  0
 15 21  1  0  0  0  0
 16  3  1  6  0  0  0
 16 11  1  0  0  0  0
 18 14  1  0  0  0  0
 21 17  1  6  0  0  0
 21  3  1  0  0  0  0
 22 26  1  0  0  0  0
 23 12  1  0  0  0  0
 23 27  1  0  0  0  0
 24 23  2  0  0  0  0
 25 24  1  0  0  0  0
 25 22  2  0  0  0  0
 26 27  2  0  0  0  0
M  END
>  <MODEL>
2

>  <REMARK>
 VINA RESULT:      -4.6      1.413      1.778
  Name = 
  1 active torsions:
  status: ('A' for Active; 'I' for Inactive)
    1  A    between atoms: C_9  and  N_15
                            x       y       z     vdW  Elec       q    Type
                         _______ _______ _______ _____ _____    ______ ____

>  <TORSDO>
F 1

$$$$
=
 OpenBabel11052423073D

 27 31  0  0  1  0  0  0  0  0999 V2000
  159.1960  210.7080  154.4760 N   0  0  0  0  0  2  0  0  0  0  0  0
  160.9230  209.3440  153.4870 C   0  0  0  0  0  0  0  0  0  0  0  0
  160.9300  211.3200  151.8900 C   0  0  0  0  0  2  0  0  0  0  0  0
  161.3340  206.9470  150.1340 N   0  0  0  0  0  0  0  0  0  0  0  0
  162.0930  207.4440  147.8590 C   0  0  0  0  0  1  0  0  0  0  0  0
  160.6290  208.0710  153.5960 N   0  0  0  0  0  0  0  0  0  0  0  0
  161.8110  209.0590  149.7510 C   0  0  0  0  0  0  0  0  0  0  0  0
  157.5320  212.9520  151.3120 C   0  0  0  0  0  2  0  0  0  0  0  0
  162.3360  210.2660  149.0500 C   0  0  0  0  0  1  0  0  0  0  0  0
  157.3890  213.5130  152.7130 C   0  0  1  0  0  3  0  0  0  0  0  0
  161.4040  208.9820  151.0650 C   0  0  0  0  0  0  0  0  0  0  0  0
  160.5210  210.2440  154.5190 N   0  0  0  0  0  0  0  0  0  0  0  0
  161.7350  207.8180  149.2170 N   0  0  0  0  0  0  0  0  0  0  0  0
  161.1380  207.6630  151.2560 C   0  0  0  0  0  0  0  0  0  0  0  0
  159.0990  211.8530  153.5640 C   0  0  2  0  0  3  0  0  0  0  0  0
  161.5040  209.9380  152.2130 C   0  0  2  0  0  3  0  0  0  0  0  0
  158.9760  212.5350  151.0980 C   0  0  0  0  0  2  0  0  0  0  0  0
  160.7940  207.1540  152.5360 N   0  0  0  0  0  2  0  0  0  0  0  0
  156.0870  213.9740  152.8970 O   0  0  0  0  0  1  0  0  0  0  0  0
  157.6810  212.4110  153.7140 C   0  0  0  0  0  2  0  0  0  0  0  0
  159.4180  211.4560  152.0890 C   0  0  1  0  0  3  0  0  0  0  0  0
  163.2940  211.8380  157.2590 N   0  0  0  0  0  0  0  0  0  0  0  0
  161.4640  210.7910  155.4590 C   0  0  0  0  0  0  0  0  0  0  0  0
  162.7880  210.3290  155.4790 C   0  0  0  0  0  3  0  0  0  0  0  0
  163.6940  210.8690  156.3940 C   0  0  0  0  0  3  0  0  0  0  0  0
  162.0180  212.3080  157.2610 C   0  0  0  0  0  3  0  0  0  0  0  0
  161.0820  211.7930  156.3620 C   0  0  0  0  0  3  0  0  0  0  0  0
  1 12  1  0  0  0  0
  2  6  2  0  0  0  0
  2 12  1  0  0  0  0
  3 21  1  0  0  0  0
  4 14  2  0  0  0  0
  5 13  1  0  0  0  0
  7 11  2  0  0  0  0
  8 10  1  0  0  0  0
  9  7  1  0  0  0  0
 10 19  1  1  0  0  0
 10 20  1  0  0  0  0
 11 14  1  0  0  0  0
 11 16  1  0  0  0  0
 12 23  1  0  0  0  0
 13  7  1  0  0  0  0
 13  4  1  0  0  0  0
 14 18  1  0  0  0  0
 15 20  1  6  0  0  0
 15  1  1  0  0  0  0
 16  3  1  6  0  0  0
 16  2  1  0  0  0  0
 17  8  1  0  0  0  0
 18  6  1  0  0  0  0
 21 17  1  6  0  0  0
 21 15  1  0  0  0  0
 22 26  1  0  0  0  0
 23 24  2  0  0  0  0
 23 27  1  0  0  0  0
 24 25  1  0  0  0  0
 25 22  2  0  0  0  0
 27 26  2  0  0  0  0
M  END
>  <MODEL>
3

>  <REMARK>
 VINA RESULT:      -4.5      2.455      6.048
  Name = 
  1 active torsions:
  status: ('A' for Active; 'I' for Inactive)
    1  A    between atoms: C_9  and  N_15
                            x       y       z     vdW  Elec       q    Type
                         _______ _______ _______ _____ _____    ______ ____

>  <TORSDO>
F 1

$$$$
