=
 OpenBabel11062409533D

 34 37  0  0  1  0  0  0  0  0999 V2000
  161.6390  208.5530  154.0220 C   0  0  2  0  0  3  0  0  0  0  0  0
  157.3670  210.7570  155.9650 C   0  0  0  0  0  1  0  0  0  0  0  0
  159.7770  209.1930  155.6620 C   0  0  0  0  0  2  0  0  0  0  0  0
  162.8630  210.6440  154.5970 C   0  0  0  0  0  2  0  0  0  0  0  0
  162.4620  210.4630  156.0660 C   0  0  0  0  0  2  0  0  0  0  0  0
  161.1450  208.5060  155.4770 C   0  0  2  0  0  3  0  0  0  0  0  0
  161.8080  210.0380  153.6660 C   0  0  2  0  0  3  0  0  0  0  0  0
  162.1690  209.0570  156.3790 N   0  0  0  0  0  2  0  0  0  0  0  0
  158.3760  211.1780  154.9390 C   0  0  0  0  0  0  0  0  0  0  0  0
  158.1490  212.3040  154.1030 C   0  0  0  0  0  0  0  0  0  0  0  0
  159.1020  212.6320  153.1300 C   0  0  0  0  0  3  0  0  0  0  0  0
  159.5610  210.4230  154.7960 C   0  0  0  0  0  0  0  0  0  0  0  0
  160.2650  211.8840  152.9820 C   0  0  0  0  0  3  0  0  0  0  0  0
  160.5020  210.7800  153.8020 C   0  0  0  0  0  0  0  0  0  0  0  0
  160.7480  208.5590  151.7800 C   0  0  1  0  0  3  0  0  0  0  0  0
  162.9590  207.4100  151.4650 O   0  0  0  0  0  0  0  0  0  0  0  0
  161.1390  206.4420  152.8190 C   0  0  2  0  0  3  0  0  0  0  0  0
  160.7400  207.8450  153.0740 N   0  0  1  0  0  0  0  0  0  0  0  0
  160.9310  205.5900  153.9810 N   0  0  0  0  0  1  0  0  0  0  0  0
  163.3380  205.4670  152.6400 O   0  0  0  0  0  0  0  0  0  0  0  0
  162.0350  208.3670  150.9330 C   0  0  2  0  0  3  0  0  0  0  0  0
  162.5420  206.3850  152.3070 C   0  0  0  0  0  0  0  0  0  0  0  0
  159.6320  208.1930  151.0280 O   0  0  0  0  0  1  0  0  0  0  0  0
  162.6850  209.5990  150.7430 O   0  0  0  0  0  0  0  0  0  0  0  0
  162.0600  210.2850  149.6770 C   0  0  2  0  0  3  0  0  0  0  0  0
  161.9330  209.4100  148.4380 C   0  0  0  0  0  1  0  0  0  0  0  0
  162.7190  211.5120  149.3640 O   0  0  0  0  0  0  0  0  0  0  0  0
  162.2570  212.3690  148.3640 C   0  0  0  0  0  0  0  0  0  0  0  0
  162.9600  212.6060  147.3430 O   0  0  0  0  0  0  0  0  0  0  0  0
  160.9350  212.9840  148.5160 C   0  0  0  0  0  3  0  0  0  0  0  0
  160.5780  213.5330  149.6320 N   0  0  0  0  0  2  0  0  0  0  0  0
  156.9530  213.1780  154.2070 C   0  0  0  0  0  0  0  0  0  0  0  0
  157.0610  214.4160  154.4030 O   0  0  0  0  0  1  0  0  0  0  0  0
  155.6800  212.6330  154.0580 O   0  0  0  0  0  0  0  0  0  0  0  0
  1 18  1  6  0  0  0
  1  6  1  0  0  0  0
  4  5  1  0  0  0  0
  5  8  1  0  0  0  0
  6  3  1  6  0  0  0
  6  8  1  0  0  0  0
  7 14  1  0  0  0  0
  7  1  1  0  0  0  0
  7  4  1  1  0  0  0
  9  2  1  0  0  0  0
 10 32  1  0  0  0  0
 10  9  2  0  0  0  0
 11 10  1  0  0  0  0
 12  9  1  0  0  0  0
 12  3  1  0  0  0  0
 13 11  2  0  0  0  0
 13 14  1  0  0  0  0
 14 12  2  0  0  0  0
 15 23  1  6  0  0  0
 15 18  1  0  0  0  0
 16 22  1  0  0  0  0
 17 18  1  0  0  0  0
 17 19  1  1  0  0  0
 21 16  1  0  0  0  0
 21 15  1  0  0  0  0
 22 20  2  0  0  0  0
 22 17  1  0  0  0  0
 24 21  1  0  0  0  0
 25 24  1  0  0  0  0
 26 25  1  0  0  0  0
 27 25  1  0  0  0  0
 28 30  1  0  0  0  0
 28 27  1  0  0  0  0
 29 28  2  0  0  0  0
 30 31  2  0  0  0  0
 32 33  1  0  0  0  0
 34 32  2  0  0  0  0
M  END
>  <MODEL>
1

>  <REMARK>
 VINA RESULT:      -3.5      0.000      0.000
  Name = 
  7 active torsions:
  status: ('A' for Active; 'I' for Inactive)
    1  A    between atoms: C_1  and  N_9
    2  A    between atoms: C_3  and  C_25
    3  A    between atoms: C_7  and  O_16
    4  A    between atoms: C_7  and  O_21
    5  A    between atoms: C_11  and  O_21
    6  A    between atoms: C_11  and  C_26
    7  A    between atoms: O_16  and  C_28
                            x       y       z     vdW  Elec       q    Type
                         _______ _______ _______ _____ _____    ______ ____

>  <TORSDO>
F 7

$$$$
=
 OpenBabel11062409533D

 34 37  0  0  1  0  0  0  0  0999 V2000
  161.6390  208.6560  154.0940 C   0  0  2  0  0  3  0  0  0  0  0  0
  157.4870  211.0060  156.1210 C   0  0  0  0  0  1  0  0  0  0  0  0
  159.8570  209.3900  155.7820 C   0  0  0  0  0  2  0  0  0  0  0  0
  162.9190  210.7450  154.5370 C   0  0  0  0  0  2  0  0  0  0  0  0
  162.5760  210.6280  156.0270 C   0  0  0  0  0  2  0  0  0  0  0  0
  161.2050  208.6720  155.5680 C   0  0  2  0  0  3  0  0  0  0  0  0
  161.8170  210.1230  153.6730 C   0  0  2  0  0  3  0  0  0  0  0  0
  162.2740  209.2400  156.4060 N   0  0  0  0  0  2  0  0  0  0  0  0
  158.4590  211.3700  155.0400 C   0  0  0  0  0  0  0  0  0  0  0  0
  158.2160  212.4670  154.1700 C   0  0  0  0  0  0  0  0  0  0  0  0
  159.1320  212.7410  153.1480 C   0  0  0  0  0  3  0  0  0  0  0  0
  159.6250  210.5890  154.8790 C   0  0  0  0  0  0  0  0  0  0  0  0
  160.2770  211.9670  152.9820 C   0  0  0  0  0  3  0  0  0  0  0  0
  160.5290  210.8920  153.8340 C   0  0  0  0  0  0  0  0  0  0  0  0
  160.6930  208.5620  151.8770 C   0  0  1  0  0  3  0  0  0  0  0  0
  162.8510  207.3130  151.5810 O   0  0  0  0  0  0  0  0  0  0  0  0
  161.0320  206.4980  153.0330 C   0  0  2  0  0  3  0  0  0  0  0  0
  160.6920  207.9270  153.2120 N   0  0  1  0  0  0  0  0  0  0  0  0
  160.8210  205.7240  154.2480 N   0  0  0  0  0  1  0  0  0  0  0  0
  163.1870  205.4300  152.8610 O   0  0  0  0  0  0  0  0  0  0  0  0
  161.9500  208.2710  151.0140 C   0  0  2  0  0  3  0  0  0  0  0  0
  162.4180  206.3570  152.4920 C   0  0  0  0  0  0  0  0  0  0  0  0
  159.5450  208.1950  151.1740 O   0  0  0  0  0  1  0  0  0  0  0  0
  162.6400  209.4640  150.7340 O   0  0  0  0  0  0  0  0  0  0  0  0
  162.4240  209.8100  149.3810 C   0  0  2  0  0  3  0  0  0  0  0  0
  162.0260  211.2710  149.2270 C   0  0  0  0  0  1  0  0  0  0  0  0
  161.4690  208.9560  148.7510 O   0  0  0  0  0  0  0  0  0  0  0  0
  161.8110  207.7000  148.2500 C   0  0  0  0  0  0  0  0  0  0  0  0
  163.0090  207.4280  147.9580 O   0  0  0  0  0  0  0  0  0  0  0  0
  160.7570  206.6970  148.0760 C   0  0  0  0  0  3  0  0  0  0  0  0
  160.6320  205.7100  148.9040 N   0  0  0  0  0  2  0  0  0  0  0  0
  157.0380  213.3650  154.2890 C   0  0  0  0  0  0  0  0  0  0  0  0
  156.0990  213.3260  153.4520 O   0  0  0  0  0  0  0  0  0  0  0  0
  156.9450  214.2510  155.3590 O   0  0  0  0  0  1  0  0  0  0  0  0
  1 18  1  6  0  0  0
  1  6  1  0  0  0  0
  4  5  1  0  0  0  0
  5  8  1  0  0  0  0
  6  3  1  6  0  0  0
  6  8  1  0  0  0  0
  7 14  1  0  0  0  0
  7  1  1  0  0  0  0
  7  4  1  1  0  0  0
  9  2  1  0  0  0  0
 10 32  1  0  0  0  0
 10  9  2  0  0  0  0
 11 10  1  0  0  0  0
 12  9  1  0  0  0  0
 12  3  1  0  0  0  0
 13 11  2  0  0  0  0
 13 14  1  0  0  0  0
 14 12  2  0  0  0  0
 15 23  1  6  0  0  0
 15 18  1  0  0  0  0
 16 22  1  0  0  0  0
 17 18  1  0  0  0  0
 17 19  1  1  0  0  0
 21 16  1  0  0  0  0
 21 15  1  0  0  0  0
 22 20  2  0  0  0  0
 22 17  1  0  0  0  0
 24 21  1  0  0  0  0
 25 24  1  0  0  0  0
 26 25  1  0  0  0  0
 27 25  1  0  0  0  0
 28 27  1  0  0  0  0
 29 28  2  0  0  0  0
 30 28  1  0  0  0  0
 30 31  2  0  0  0  0
 32 34  1  0  0  0  0
 33 32  2  0  0  0  0
M  END
>  <MODEL>
2

>  <REMARK>
 VINA RESULT:      -3.0      1.526      2.260
  Name = 
  7 active torsions:
  status: ('A' for Active; 'I' for Inactive)
    1  A    between atoms: C_1  and  N_9
    2  A    between atoms: C_3  and  C_25
    3  A    between atoms: C_7  and  O_16
    4  A    between atoms: C_7  and  O_21
    5  A    between atoms: C_11  and  O_21
    6  A    between atoms: C_11  and  C_26
    7  A    between atoms: O_16  and  C_28
                            x       y       z     vdW  Elec       q    Type
                         _______ _______ _______ _____ _____    ______ ____

>  <TORSDO>
F 7

$$$$
=
 OpenBabel11062409533D

 34 37  0  0  1  0  0  0  0  0999 V2000
  160.8210  211.0560  152.2550 C   0  0  2  0  0  3  0  0  0  0  0  0
  160.8340  206.6340  149.5490 C   0  0  0  0  0  1  0  0  0  0  0  0
  161.1630  209.3930  150.3350 C   0  0  0  0  0  2  0  0  0  0  0  0
  162.9800  210.3330  153.2640 C   0  0  0  0  0  2  0  0  0  0  0  0
  163.5960  210.2490  151.8620 C   0  0  0  0  0  2  0  0  0  0  0  0
  161.4470  210.8110  150.8720 C   0  0  2  0  0  3  0  0  0  0  0  0
  161.4750  210.0500  153.2150 C   0  0  2  0  0  3  0  0  0  0  0  0
  162.8880  211.1120  150.9060 N   0  0  0  0  0  2  0  0  0  0  0  0
  160.9680  206.9570  151.0070 C   0  0  0  0  0  0  0  0  0  0  0  0
  160.9040  205.9390  151.9960 C   0  0  0  0  0  0  0  0  0  0  0  0
  160.9910  206.2970  153.3470 C   0  0  0  0  0  3  0  0  0  0  0  0
  161.1410  208.3040  151.3940 C   0  0  0  0  0  0  0  0  0  0  0  0
  161.1520  207.6240  153.7300 C   0  0  0  0  0  3  0  0  0  0  0  0
  161.2230  208.6320  152.7680 C   0  0  0  0  0  0  0  0  0  0  0  0
  158.8640  210.8540  153.6500 C   0  0  1  0  0  3  0  0  0  0  0  0
  159.2830  213.3290  153.6870 O   0  0  0  0  0  0  0  0  0  0  0  0
  158.6680  212.1160  151.6300 C   0  0  2  0  0  3  0  0  0  0  0  0
  159.3400  210.9530  152.2540 N   0  0  1  0  0  0  0  0  0  0  0  0
  158.8740  212.1640  150.1900 N   0  0  0  0  0  1  0  0  0  0  0  0
  159.2580  214.4530  151.6780 O   0  0  0  0  0  0  0  0  0  0  0  0
  158.9190  212.1790  154.4570 C   0  0  2  0  0  3  0  0  0  0  0  0
  159.0760  213.3800  152.3130 C   0  0  0  0  0  0  0  0  0  0  0  0
  157.5670  210.3420  153.6760 O   0  0  0  0  0  1  0  0  0  0  0  0
  159.7890  212.0480  155.5540 O   0  0  0  0  0  0  0  0  0  0  0  0
  159.2930  211.0410  156.4130 C   0  0  2  0  0  3  0  0  0  0  0  0
  158.1100  211.5310  157.2360 C   0  0  0  0  0  1  0  0  0  0  0  0
  160.3100  210.5030  157.2590 O   0  0  0  0  0  0  0  0  0  0  0  0
  160.8920  209.2570  157.0220 C   0  0  0  0  0  0  0  0  0  0  0  0
  160.1910  208.2070  157.0300 O   0  0  0  0  0  0  0  0  0  0  0  0
  162.3310  209.1890  156.7550 C   0  0  0  0  0  3  0  0  0  0  0  0
  163.1320  210.1160  157.1720 N   0  0  0  0  0  2  0  0  0  0  0  0
  160.7620  204.4950  151.6810 C   0  0  0  0  0  0  0  0  0  0  0  0
  160.4810  203.6540  152.5750 O   0  0  0  0  0  1  0  0  0  0  0  0
  160.9130  204.0520  150.3700 O   0  0  0  0  0  0  0  0  0  0  0  0
  1 18  1  6  0  0  0
  1  7  1  0  0  0  0
  2  9  1  0  0  0  0
  3 12  1  0  0  0  0
  5  4  1  0  0  0  0
  6  3  1  1  0  0  0
  6  8  1  0  0  0  0
  6  1  1  0  0  0  0
  7  4  1  6  0  0  0
  8  5  1  0  0  0  0
  9 12  2  0  0  0  0
  9 10  1  0  0  0  0
 10 11  2  0  0  0  0
 11 13  1  0  0  0  0
 12 14  1  0  0  0  0
 14  7  1  0  0  0  0
 14 13  2  0  0  0  0
 15 23  1  6  0  0  0
 15 21  1  0  0  0  0
 16 21  1  0  0  0  0
 17 19  1  6  0  0  0
 17 18  1  0  0  0  0
 17 22  1  0  0  0  0
 18 15  1  0  0  0  0
 20 22  2  0  0  0  0
 21 24  1  0  0  0  0
 22 16  1  0  0  0  0
 24 25  1  0  0  0  0
 25 26  1  0  0  0  0
 25 27  1  0  0  0  0
 28 29  2  0  0  0  0
 28 27  1  0  0  0  0
 30 28  1  0  0  0  0
 30 31  2  0  0  0  0
 32 10  1  0  0  0  0
 32 33  1  0  0  0  0
 34 32  2  0  0  0  0
M  END
>  <MODEL>
3

>  <REMARK>
 VINA RESULT:      -2.0      2.812      7.134
  Name = 
  7 active torsions:
  status: ('A' for Active; 'I' for Inactive)
    1  A    between atoms: C_1  and  N_9
    2  A    between atoms: C_3  and  C_25
    3  A    between atoms: C_7  and  O_16
    4  A    between atoms: C_7  and  O_21
    5  A    between atoms: C_11  and  O_21
    6  A    between atoms: C_11  and  C_26
    7  A    between atoms: O_16  and  C_28
                            x       y       z     vdW  Elec       q    Type
                         _______ _______ _______ _____ _____    ______ ____

>  <TORSDO>
F 7

$$$$
=
 OpenBabel11062409533D

 34 37  0  0  1  0  0  0  0  0999 V2000
  161.5640  208.6420  153.5550 C   0  0  2  0  0  3  0  0  0  0  0  0
  157.6240  211.3540  155.5530 C   0  0  0  0  0  1  0  0  0  0  0  0
  159.9170  209.6240  155.2550 C   0  0  0  0  0  2  0  0  0  0  0  0
  162.9320  210.7190  153.6810 C   0  0  0  0  0  2  0  0  0  0  0  0
  162.6820  210.7810  155.1920 C   0  0  0  0  0  2  0  0  0  0  0  0
  161.2270  208.8380  155.0420 C   0  0  2  0  0  3  0  0  0  0  0  0
  161.7580  210.0460  152.9620 C   0  0  2  0  0  3  0  0  0  0  0  0
  162.3650  209.4560  155.7440 N   0  0  0  0  0  2  0  0  0  0  0  0
  158.5340  211.5600  154.3800 C   0  0  0  0  0  0  0  0  0  0  0  0
  158.2680  212.5620  153.4080 C   0  0  0  0  0  0  0  0  0  0  0  0
  159.1240  212.6870  152.3080 C   0  0  0  0  0  3  0  0  0  0  0  0
  159.6630  210.7230  154.2380 C   0  0  0  0  0  0  0  0  0  0  0  0
  160.2320  211.8570  152.1610 C   0  0  0  0  0  3  0  0  0  0  0  0
  160.5070  210.8740  153.1120 C   0  0  0  0  0  0  0  0  0  0  0  0
  160.8510  207.8940  151.3760 C   0  0  1  0  0  3  0  0  0  0  0  0
  162.5870  206.1820  151.9780 O   0  0  0  0  0  0  0  0  0  0  0  0
  160.4800  206.4350  153.2330 C   0  0  2  0  0  3  0  0  0  0  0  0
  160.5410  207.8560  152.8210 N   0  0  1  0  0  0  0  0  0  0  0  0
  159.9420  206.2730  154.5760 N   0  0  0  0  0  1  0  0  0  0  0  0
  162.2530  204.9350  153.8830 O   0  0  0  0  0  0  0  0  0  0  0  0
  162.0530  207.0120  150.9410 C   0  0  2  0  0  3  0  0  0  0  0  0
  161.8150  205.7870  153.0640 C   0  0  0  0  0  0  0  0  0  0  0  0
  159.7210  207.5450  150.6370 O   0  0  0  0  0  1  0  0  0  0  0  0
  163.0760  207.8110  150.3990 O   0  0  0  0  0  0  0  0  0  0  0  0
  162.9760  207.7860  148.9890 C   0  0  2  0  0  3  0  0  0  0  0  0
  162.0630  208.8860  148.4660 C   0  0  0  0  0  1  0  0  0  0  0  0
  162.5600  206.5100  148.5000 O   0  0  0  0  0  0  0  0  0  0  0  0
  161.7020  206.3770  147.4070 C   0  0  0  0  0  0  0  0  0  0  0  0
  160.4620  206.5760  147.5340 O   0  0  0  0  0  0  0  0  0  0  0  0
  162.2670  206.0100  146.1050 C   0  0  0  0  0  3  0  0  0  0  0  0
  162.4930  204.7730  145.8000 N   0  0  0  0  0  2  0  0  0  0  0  0
  157.1280  213.5090  153.4960 C   0  0  0  0  0  0  0  0  0  0  0  0
  156.1740  213.4640  152.6760 O   0  0  0  0  0  0  0  0  0  0  0  0
  157.0860  214.4530  154.5190 O   0  0  0  0  0  1  0  0  0  0  0  0
  1 18  1  6  0  0  0
  1  6  1  0  0  0  0
  4  5  1  0  0  0  0
  5  8  1  0  0  0  0
  6  3  1  6  0  0  0
  6  8  1  0  0  0  0
  7 14  1  0  0  0  0
  7  1  1  0  0  0  0
  7  4  1  1  0  0  0
  9  2  1  0  0  0  0
 10 32  1  0  0  0  0
 10  9  2  0  0  0  0
 11 10  1  0  0  0  0
 12  9  1  0  0  0  0
 12  3  1  0  0  0  0
 13 11  2  0  0  0  0
 13 14  1  0  0  0  0
 14 12  2  0  0  0  0
 15 23  1  6  0  0  0
 15 18  1  0  0  0  0
 16 22  1  0  0  0  0
 17 19  1  1  0  0  0
 18 17  1  0  0  0  0
 21 15  1  0  0  0  0
 21 16  1  0  0  0  0
 22 17  1  0  0  0  0
 22 20  2  0  0  0  0
 24 21  1  0  0  0  0
 25 24  1  0  0  0  0
 26 25  1  0  0  0  0
 27 25  1  0  0  0  0
 28 29  2  0  0  0  0
 28 27  1  0  0  0  0
 30 28  1  0  0  0  0
 31 30  2  0  0  0  0
 32 34  1  0  0  0  0
 33 32  2  0  0  0  0
M  END
>  <MODEL>
4

>  <REMARK>
 VINA RESULT:      -1.8      2.068      2.964
  Name = 
  7 active torsions:
  status: ('A' for Active; 'I' for Inactive)
    1  A    between atoms: C_1  and  N_9
    2  A    between atoms: C_3  and  C_25
    3  A    between atoms: C_7  and  O_16
    4  A    between atoms: C_7  and  O_21
    5  A    between atoms: C_11  and  O_21
    6  A    between atoms: C_11  and  C_26
    7  A    between atoms: O_16  and  C_28
                            x       y       z     vdW  Elec       q    Type
                         _______ _______ _______ _____ _____    ______ ____

>  <TORSDO>
F 7

$$$$
=
 OpenBabel11062409533D

 34 37  0  0  1  0  0  0  0  0999 V2000
  160.8590  211.0880  152.5220 C   0  0  2  0  0  3  0  0  0  0  0  0
  160.8380  206.5160  150.0780 C   0  0  0  0  0  1  0  0  0  0  0  0
  161.1390  209.3240  150.6850 C   0  0  0  0  0  2  0  0  0  0  0  0
  163.0860  210.4730  153.4500 C   0  0  0  0  0  2  0  0  0  0  0  0
  163.6280  210.3210  152.0240 C   0  0  0  0  0  2  0  0  0  0  0  0
  161.4160  210.7760  151.1230 C   0  0  2  0  0  3  0  0  0  0  0  0
  161.5880  210.1550  153.5010 C   0  0  2  0  0  3  0  0  0  0  0  0
  162.8480  211.1110  151.0600 N   0  0  0  0  0  2  0  0  0  0  0  0
  161.0420  206.9270  151.5050 C   0  0  0  0  0  0  0  0  0  0  0  0
  161.0570  205.9680  152.5530 C   0  0  0  0  0  0  0  0  0  0  0  0
  161.2070  206.4060  153.8740 C   0  0  0  0  0  3  0  0  0  0  0  0
  161.2010  208.2990  151.8040 C   0  0  0  0  0  0  0  0  0  0  0  0
  161.3540  207.7570  154.1710 C   0  0  0  0  0  3  0  0  0  0  0  0
  161.3480  208.7080  153.1500 C   0  0  0  0  0  0  0  0  0  0  0  0
  158.9930  210.8350  154.0290 C   0  0  1  0  0  3  0  0  0  0  0  0
  159.3600  213.3190  154.0580 O   0  0  0  0  0  0  0  0  0  0  0  0
  158.6500  212.1040  152.0330 C   0  0  2  0  0  3  0  0  0  0  0  0
  159.3820  210.9530  152.6080 N   0  0  1  0  0  0  0  0  0  0  0  0
  158.7680  212.1640  150.5830 N   0  0  0  0  0  1  0  0  0  0  0  0
  159.1910  214.4530  152.0620 O   0  0  0  0  0  0  0  0  0  0  0  0
  159.0670  212.1570  154.8410 C   0  0  2  0  0  3  0  0  0  0  0  0
  159.0700  213.3730  152.6990 C   0  0  0  0  0  0  0  0  0  0  0  0
  157.7110  210.2950  154.1280 O   0  0  0  0  0  1  0  0  0  0  0  0
  160.0040  212.0400  155.8830 O   0  0  0  0  0  0  0  0  0  0  0  0
  159.3490  211.5360  157.0300 C   0  0  2  0  0  3  0  0  0  0  0  0
  159.6570  210.0620  157.2560 C   0  0  0  0  0  1  0  0  0  0  0  0
  157.9390  211.7570  156.9880 O   0  0  0  0  0  0  0  0  0  0  0  0
  157.3870  213.0390  157.0160 C   0  0  0  0  0  0  0  0  0  0  0  0
  158.1090  214.0460  157.2530 O   0  0  0  0  0  0  0  0  0  0  0  0
  155.9530  213.1960  156.7560 C   0  0  0  0  0  3  0  0  0  0  0  0
  155.4900  213.1930  155.5470 N   0  0  0  0  0  2  0  0  0  0  0  0
  160.9350  204.5050  152.3290 C   0  0  0  0  0  0  0  0  0  0  0  0
  159.9320  203.8620  152.7350 O   0  0  0  0  0  1  0  0  0  0  0  0
  161.9300  203.8230  151.6330 O   0  0  0  0  0  0  0  0  0  0  0  0
  1 18  1  6  0  0  0
  1  7  1  0  0  0  0
  2  9  1  0  0  0  0
  3 12  1  0  0  0  0
  5  4  1  0  0  0  0
  6  3  1  1  0  0  0
  6  1  1  0  0  0  0
  7  4  1  6  0  0  0
  8  6  1  0  0  0  0
  8  5  1  0  0  0  0
  9 12  2  0  0  0  0
  9 10  1  0  0  0  0
 10 11  2  0  0  0  0
 11 13  1  0  0  0  0
 12 14  1  0  0  0  0
 14  7  1  0  0  0  0
 14 13  2  0  0  0  0
 15 23  1  6  0  0  0
 15 21  1  0  0  0  0
 16 21  1  0  0  0  0
 17 19  1  6  0  0  0
 17 18  1  0  0  0  0
 17 22  1  0  0  0  0
 18 15  1  0  0  0  0
 20 22  2  0  0  0  0
 21 24  1  0  0  0  0
 22 16  1  0  0  0  0
 24 25  1  0  0  0  0
 25 26  1  0  0  0  0
 27 28  1  0  0  0  0
 27 25  1  0  0  0  0
 28 29  2  0  0  0  0
 30 28  1  0  0  0  0
 31 30  2  0  0  0  0
 32 10  1  0  0  0  0
 32 33  1  0  0  0  0
 34 32  2  0  0  0  0
M  END
>  <MODEL>
5

>  <REMARK>
 VINA RESULT:      -1.4      2.984      7.126
  Name = 
  7 active torsions:
  status: ('A' for Active; 'I' for Inactive)
    1  A    between atoms: C_1  and  N_9
    2  A    between atoms: C_3  and  C_25
    3  A    between atoms: C_7  and  O_16
    4  A    between atoms: C_7  and  O_21
    5  A    between atoms: C_11  and  O_21
    6  A    between atoms: C_11  and  C_26
    7  A    between atoms: O_16  and  C_28
                            x       y       z     vdW  Elec       q    Type
                         _______ _______ _______ _____ _____    ______ ____

>  <TORSDO>
F 7

$$$$
=
 OpenBabel11062409533D

 34 37  0  0  1  0  0  0  0  0999 V2000
  161.0210  212.2560  140.5070 C   0  0  2  0  0  3  0  0  0  0  0  0
  162.0210  214.4530  145.0940 C   0  0  0  0  0  1  0  0  0  0  0  0
  161.5470  214.0320  142.2760 C   0  0  0  0  0  2  0  0  0  0  0  0
  158.5990  212.4200  141.0640 C   0  0  0  0  0  2  0  0  0  0  0  0
  158.7460  213.9390  141.2130 C   0  0  0  0  0  2  0  0  0  0  0  0
  161.1380  213.7570  140.8150 C   0  0  2  0  0  3  0  0  0  0  0  0
  159.9100  211.7080  141.4160 C   0  0  2  0  0  3  0  0  0  0  0  0
  159.8920  214.4510  140.4480 N   0  0  0  0  0  2  0  0  0  0  0  0
  161.2120  213.2650  144.6690 C   0  0  0  0  0  0  0  0  0  0  0  0
  160.7100  212.3360  145.6200 C   0  0  0  0  0  0  0  0  0  0  0  0
  159.9970  211.2190  145.1700 C   0  0  0  0  0  3  0  0  0  0  0  0
  160.9690  213.0620  143.2920 C   0  0  0  0  0  0  0  0  0  0  0  0
  159.7640  211.0130  143.8130 C   0  0  0  0  0  3  0  0  0  0  0  0
  160.2470  211.9210  142.8700 C   0  0  0  0  0  0  0  0  0  0  0  0
  162.1770  210.1910  140.0410 C   0  0  1  0  0  3  0  0  0  0  0  0
  162.5100  211.4730  137.9080 O   0  0  0  0  0  0  0  0  0  0  0  0
  163.4600  212.2080  140.0620 C   0  0  2  0  0  3  0  0  0  0  0  0
  162.3000  211.5210  140.6740 N   0  0  1  0  0  0  0  0  0  0  0  0
  163.8230  213.4220  140.7770 N   0  0  0  0  0  1  0  0  0  0  0  0
  163.5980  213.4980  138.0290 O   0  0  0  0  0  0  0  0  0  0  0  0
  162.2150  210.1980  138.4890 C   0  0  2  0  0  3  0  0  0  0  0  0
  163.2150  212.4470  138.6070 C   0  0  0  0  0  0  0  0  0  0  0  0
  163.1660  209.3370  140.5310 O   0  0  0  0  0  1  0  0  0  0  0  0
  161.0040  209.7090  137.9670 O   0  0  0  0  0  0  0  0  0  0  0  0
  161.0610  208.2960  137.9320 C   0  0  2  0  0  3  0  0  0  0  0  0
  159.9010  207.7040  137.1440 C   0  0  0  0  0  1  0  0  0  0  0  0
  161.1280  207.7260  139.2390 O   0  0  0  0  0  0  0  0  0  0  0  0
  162.0700  206.7530  139.5770 C   0  0  0  0  0  0  0  0  0  0  0  0
  162.1650  206.3330  140.7640 O   0  0  0  0  0  0  0  0  0  0  0  0
  162.9420  206.2180  138.5270 C   0  0  0  0  0  3  0  0  0  0  0  0
  162.5900  206.2590  137.2820 N   0  0  0  0  0  2  0  0  0  0  0  0
  160.8840  212.4880  147.0870 C   0  0  0  0  0  0  0  0  0  0  0  0
  159.9820  212.9940  147.8050 O   0  0  0  0  0  1  0  0  0  0  0  0
  162.0510  212.0390  147.6990 O   0  0  0  0  0  0  0  0  0  0  0  0
  1 18  1  1  0  0  0
  1  6  1  0  0  0  0
  1  7  1  0  0  0  0
  3 12  1  0  0  0  0
  4  5  1  0  0  0  0
  6  3  1  1  0  0  0
  7  4  1  6  0  0  0
  7 14  1  0  0  0  0
  8  6  1  0  0  0  0
  8  5  1  0  0  0  0
  9  2  1  0  0  0  0
  9 10  1  0  0  0  0
 10 32  1  0  0  0  0
 11 10  2  0  0  0  0
 12  9  2  0  0  0  0
 13 11  1  0  0  0  0
 14 12  1  0  0  0  0
 14 13  2  0  0  0  0
 15 23  1  1  0  0  0
 15 18  1  0  0  0  0
 16 21  1  0  0  0  0
 16 22  1  0  0  0  0
 17 18  1  0  0  0  0
 17 19  1  1  0  0  0
 20 22  2  0  0  0  0
 21 15  1  0  0  0  0
 22 17  1  0  0  0  0
 24 21  1  0  0  0  0
 25 24  1  0  0  0  0
 25 27  1  0  0  0  0
 26 25  1  0  0  0  0
 27 28  1  0  0  0  0
 28 29  2  0  0  0  0
 30 28  1  0  0  0  0
 31 30  2  0  0  0  0
 32 34  2  0  0  0  0
 32 33  1  0  0  0  0
M  END
>  <MODEL>
6

>  <REMARK>
 VINA RESULT:      -0.7      8.143     12.560
  Name = 
  7 active torsions:
  status: ('A' for Active; 'I' for Inactive)
    1  A    between atoms: C_1  and  N_9
    2  A    between atoms: C_3  and  C_25
    3  A    between atoms: C_7  and  O_16
    4  A    between atoms: C_7  and  O_21
    5  A    between atoms: C_11  and  O_21
    6  A    between atoms: C_11  and  C_26
    7  A    between atoms: O_16  and  C_28
                            x       y       z     vdW  Elec       q    Type
                         _______ _______ _______ _____ _____    ______ ____

>  <TORSDO>
F 7

$$$$
