=
 OpenBabel11062408183D

 32 35  0  0  1  0  0  0  0  0999 V2000
  159.6000  211.3570  154.9380 C   0  0  1  0  0  3  0  0  0  0  0  0
  156.4190  211.9160  154.5520 C   0  0  0  0  0  3  0  0  0  0  0  0
  160.0810  213.1410  150.6960 C   0  0  0  0  0  2  0  0  0  0  0  0
  158.7170  211.4290  153.6740 C   0  0  1  0  0  3  0  0  0  0  0  0
  158.1360  214.4530  150.9570 O   0  0  0  0  0  0  0  0  0  0  0  0
  158.2410  213.6040  152.0310 C   0  0  0  0  0  0  0  0  0  0  0  0
  157.4470  212.2630  153.7750 C   0  0  0  0  0  0  0  0  0  0  0  0
  157.2700  213.3320  152.8400 N   0  0  0  0  0  0  0  0  0  0  0  0
  159.5520  212.9310  152.1090 C   0  0  1  0  0  3  0  0  0  0  0  0
  159.2930  214.3420  150.1410 C   0  0  0  0  0  2  0  0  0  0  0  0
  159.4180  211.5640  152.4390 O   0  0  0  0  0  0  0  0  0  0  0  0
  156.4140  210.7230  155.4540 C   0  0  0  0  0  2  0  0  0  0  0  0
  155.2720  209.9550  155.2330 O   0  0  0  0  0  1  0  0  0  0  0  0
  159.3610  212.7990  155.9820 S   0  0  0  0  0  0  0  0  0  0  0  0
  160.8190  213.0610  156.9660 C   0  0  0  0  0  1  0  0  0  0  0  0
  158.1920  212.5990  156.9020 O   0  0  0  0  0  0  0  0  0  0  0  0
  159.1240  214.0150  155.1330 O   0  0  0  0  0  0  0  0  0  0  0  0
  158.6080  209.4720  156.1410 O   0  0  0  0  0  1  0  0  0  0  0  0
  159.8200  209.9990  155.6780 C   0  0  1  0  0  0  0  0  0  0  0  0
  160.8390  206.7300  153.9260 C   0  0  0  0  0  3  0  0  0  0  0  0
  161.5100  208.5910  152.5410 C   0  0  0  0  0  3  0  0  0  0  0  0
  160.4030  209.0110  154.6760 C   0  0  0  0  0  0  0  0  0  0  0  0
  161.4510  207.2120  152.7630 C   0  0  0  0  0  0  0  0  0  0  0  0
  160.9950  209.4770  153.4880 C   0  0  0  0  0  3  0  0  0  0  0  0
  160.3230  207.6130  154.8790 C   0  0  0  0  0  0  0  0  0  0  0  0
  159.7340  207.0840  156.0220 O   0  0  0  0  0  1  0  0  0  0  0  0
  161.9560  206.2570  151.7240 C   0  0  0  0  0  3  0  0  0  0  0  0
  160.8510  205.9070  150.7400 C   0  0  0  0  0  2  0  0  0  0  0  0
  161.2280  204.9270  151.8260 C   0  0  0  0  0  2  0  0  0  0  0  0
  160.7530  210.1450  156.8110 N   0  0  0  0  0  2  0  0  0  0  0  0
  162.0650  209.5850  156.5130 C   0  0  0  0  0  2  0  0  0  0  0  0
  163.0830  210.7030  156.4300 C   0  0  0  0  0  1  0  0  0  0  0  0
  1 19  1  0  0  0  0
  1 14  1  1  0  0  0
  2 12  1  0  0  0  0
  4  7  1  0  0  0  0
  4  1  1  1  0  0  0
  5  6  1  0  0  0  0
  6  9  1  0  0  0  0
  6  8  2  0  0  0  0
  7  2  2  0  0  0  0
  8  7  1  0  0  0  0
  9  3  1  6  0  0  0
  9 11  1  0  0  0  0
 10  3  1  0  0  0  0
 10  5  1  0  0  0  0
 11  4  1  0  0  0  0
 13 12  1  0  0  0  0
 14 16  2  0  0  0  0
 14 15  1  0  0  0  0
 17 14  2  0  0  0  0
 19 18  1  1  0  0  0
 19 30  1  0  0  0  0
 20 25  1  0  0  0  0
 21 23  1  0  0  0  0
 21 24  2  0  0  0  0
 22 25  2  0  0  0  0
 22 19  1  0  0  0  0
 23 20  2  0  0  0  0
 24 22  1  0  0  0  0
 25 26  1  0  0  0  0
 27 29  1  0  0  0  0
 27 23  1  0  0  0  0
 28 27  1  0  0  0  0
 28 29  1  0  0  0  0
 31 30  1  0  0  0  0
 32 31  1  0  0  0  0
M  END
>  <MODEL>
1

>  <REMARK>
 VINA RESULT:      -5.9      0.000      0.000
  Name = 
  8 active torsions:
  status: ('A' for Active; 'I' for Inactive)
    1  A    between atoms: N_1  and  C_4
    2  A    between atoms: N_1  and  C_27
    3  A    between atoms: S_2  and  C_5
    4  A    between atoms: C_5  and  C_10
    5  A    between atoms: C_5  and  C_27
    6  A    between atoms: C_6  and  C_25
    7  A    between atoms: C_7  and  C_19
    8  A    between atoms: C_16  and  C_27
                            x       y       z     vdW  Elec       q    Type
                         _______ _______ _______ _____ _____    ______ ____

>  <TORSDO>
F 8

$$$$
=
 OpenBabel11062408183D

 32 35  0  0  1  0  0  0  0  0999 V2000
  161.0840  210.5090  154.2030 C   0  0  1  0  0  3  0  0  0  0  0  0
  160.6200  211.4280  151.1170 C   0  0  0  0  0  3  0  0  0  0  0  0
  158.2130  213.9660  155.3060 C   0  0  0  0  0  2  0  0  0  0  0  0
  160.7270  211.8770  153.5820 C   0  0  1  0  0  3  0  0  0  0  0  0
  157.1270  213.8170  153.2140 O   0  0  0  0  0  0  0  0  0  0  0  0
  158.2240  212.9920  153.2000 C   0  0  0  0  0  0  0  0  0  0  0  0
  160.0220  211.8510  152.2330 C   0  0  0  0  0  0  0  0  0  0  0  0
  158.7550  212.5070  152.1250 N   0  0  0  0  0  0  0  0  0  0  0  0
  158.8190  212.7990  154.5370 C   0  0  1  0  0  3  0  0  0  0  0  0
  156.9530  214.3630  154.5130 C   0  0  0  0  0  2  0  0  0  0  0  0
  160.2310  212.8560  154.4920 O   0  0  0  0  0  0  0  0  0  0  0  0
  162.0080  210.8730  151.0660 C   0  0  0  0  0  2  0  0  0  0  0  0
  162.3110  210.4440  149.7750 O   0  0  0  0  0  1  0  0  0  0  0  0
  162.2250  210.6960  155.5780 S   0  0  0  0  0  0  0  0  0  0  0  0
  162.2720  209.1840  156.5120 C   0  0  0  0  0  1  0  0  0  0  0  0
  161.7820  211.8070  156.4860 O   0  0  0  0  0  0  0  0  0  0  0  0
  163.6050  210.9930  155.0650 O   0  0  0  0  0  0  0  0  0  0  0  0
  158.8050  209.7650  153.7200 O   0  0  0  0  0  1  0  0  0  0  0  0
  159.9990  209.3970  154.3530 C   0  0  1  0  0  0  0  0  0  0  0  0
  161.1040  205.7710  153.7010 C   0  0  0  0  0  3  0  0  0  0  0  0
  161.2840  207.0170  151.6400 C   0  0  0  0  0  3  0  0  0  0  0  0
  160.5200  208.1400  153.6680 C   0  0  0  0  0  0  0  0  0  0  0  0
  161.4390  205.8180  152.3430 C   0  0  0  0  0  0  0  0  0  0  0  0
  160.8330  208.1620  152.2970 C   0  0  0  0  0  3  0  0  0  0  0  0
  160.6530  206.9160  154.3650 C   0  0  0  0  0  0  0  0  0  0  0  0
  160.3420  206.8190  155.7170 O   0  0  0  0  0  1  0  0  0  0  0  0
  161.8740  204.5740  151.6290 C   0  0  0  0  0  3  0  0  0  0  0  0
  160.8050  204.1230  150.6470 C   0  0  0  0  0  2  0  0  0  0  0  0
  160.9530  203.4150  151.9730 C   0  0  0  0  0  2  0  0  0  0  0  0
  159.7250  209.0950  155.7710 N   0  0  0  0  0  2  0  0  0  0  0  0
  158.5220  209.7620  156.2490 C   0  0  0  0  0  2  0  0  0  0  0  0
  158.9010  210.8230  157.2600 C   0  0  0  0  0  1  0  0  0  0  0  0
  1 19  1  0  0  0  0
  1 14  1  1  0  0  0
  2  7  2  0  0  0  0
  4  1  1  1  0  0  0
  4 11  1  0  0  0  0
  5 10  1  0  0  0  0
  6  5  1  0  0  0  0
  6  9  1  0  0  0  0
  7  4  1  0  0  0  0
  8  7  1  0  0  0  0
  8  6  2  0  0  0  0
  9  3  1  1  0  0  0
 10  3  1  0  0  0  0
 11  9  1  0  0  0  0
 12  2  1  0  0  0  0
 13 12  1  0  0  0  0
 14 16  2  0  0  0  0
 14 15  1  0  0  0  0
 17 14  2  0  0  0  0
 19 18  1  6  0  0  0
 19 30  1  0  0  0  0
 20 25  1  0  0  0  0
 21 24  2  0  0  0  0
 21 23  1  0  0  0  0
 22 19  1  0  0  0  0
 22 25  2  0  0  0  0
 23 20  2  0  0  0  0
 24 22  1  0  0  0  0
 25 26  1  0  0  0  0
 27 29  1  0  0  0  0
 27 23  1  0  0  0  0
 28 27  1  0  0  0  0
 28 29  1  0  0  0  0
 30 31  1  0  0  0  0
 31 32  1  0  0  0  0
M  END
>  <MODEL>
2

>  <REMARK>
 VINA RESULT:      -5.0      2.091      3.482
  Name = 
  8 active torsions:
  status: ('A' for Active; 'I' for Inactive)
    1  A    between atoms: N_1  and  C_4
    2  A    between atoms: N_1  and  C_27
    3  A    between atoms: S_2  and  C_5
    4  A    between atoms: C_5  and  C_10
    5  A    between atoms: C_5  and  C_27
    6  A    between atoms: C_6  and  C_25
    7  A    between atoms: C_7  and  C_19
    8  A    between atoms: C_16  and  C_27
                            x       y       z     vdW  Elec       q    Type
                         _______ _______ _______ _____ _____    ______ ____

>  <TORSDO>
F 8

$$$$
=
 OpenBabel11062408183D

 32 35  0  0  1  0  0  0  0  0999 V2000
  160.9750  210.5290  154.4360 C   0  0  1  0  0  3  0  0  0  0  0  0
  159.3570  212.1460  152.1240 C   0  0  0  0  0  3  0  0  0  0  0  0
  157.5420  211.8140  157.2600 C   0  0  0  0  0  2  0  0  0  0  0  0
  160.0090  211.7310  154.5100 C   0  0  1  0  0  3  0  0  0  0  0  0
  156.0190  211.9330  155.4600 O   0  0  0  0  0  0  0  0  0  0  0  0
  157.2790  211.7190  154.9570 C   0  0  0  0  0  0  0  0  0  0  0  0
  158.9990  211.8640  153.3790 C   0  0  0  0  0  0  0  0  0  0  0  0
  157.6100  211.9060  153.7210 N   0  0  0  0  0  0  0  0  0  0  0  0
  158.2620  211.3600  155.9970 C   0  0  1  0  0  3  0  0  0  0  0  0
  156.0510  211.8740  156.8780 C   0  0  0  0  0  2  0  0  0  0  0  0
  159.4920  212.0290  155.8050 O   0  0  0  0  0  0  0  0  0  0  0  0
  160.7730  212.2950  151.6680 C   0  0  0  0  0  2  0  0  0  0  0  0
  160.8210  212.4640  150.2850 O   0  0  0  0  0  1  0  0  0  0  0  0
  162.3210  210.7020  155.6140 S   0  0  0  0  0  0  0  0  0  0  0  0
  161.9160  211.9770  156.7860 C   0  0  0  0  0  1  0  0  0  0  0  0
  163.5930  211.0820  154.9130 O   0  0  0  0  0  0  0  0  0  0  0  0
  162.5260  209.4110  156.3540 O   0  0  0  0  0  0  0  0  0  0  0  0
  159.0320  209.0780  154.1220 O   0  0  0  0  0  1  0  0  0  0  0  0
  160.4290  209.0820  154.2210 C   0  0  1  0  0  0  0  0  0  0  0  0
  161.4690  206.7410  151.3530 C   0  0  0  0  0  3  0  0  0  0  0  0
  161.9870  209.0130  150.7220 C   0  0  0  0  0  3  0  0  0  0  0  0
  160.9900  208.5620  152.9040 C   0  0  0  0  0  0  0  0  0  0  0  0
  161.9930  207.6470  150.4240 C   0  0  0  0  0  0  0  0  0  0  0  0
  161.4940  209.4620  151.9480 C   0  0  0  0  0  3  0  0  0  0  0  0
  160.9750  207.1840  152.5830 C   0  0  0  0  0  0  0  0  0  0  0  0
  160.4740  206.2430  153.4750 O   0  0  0  0  0  1  0  0  0  0  0  0
  162.4730  207.1670  149.0880 C   0  0  0  0  0  3  0  0  0  0  0  0
  161.3840  207.3310  148.0410 C   0  0  0  0  0  2  0  0  0  0  0  0
  161.6600  205.9670  148.6310 C   0  0  0  0  0  2  0  0  0  0  0  0
  160.8430  208.1800  155.3120 N   0  0  0  0  0  2  0  0  0  0  0  0
  159.7150  207.7620  156.1330 C   0  0  0  0  0  2  0  0  0  0  0  0
  160.2100  206.8800  157.2590 C   0  0  0  0  0  1  0  0  0  0  0  0
  1 14  1  1  0  0  0
  2  7  2  0  0  0  0
  4  1  1  1  0  0  0
  4 11  1  0  0  0  0
  5 10  1  0  0  0  0
  6  5  1  0  0  0  0
  6  9  1  0  0  0  0
  7  8  1  0  0  0  0
  7  4  1  0  0  0  0
  8  6  2  0  0  0  0
  9  3  1  1  0  0  0
 10  3  1  0  0  0  0
 11  9  1  0  0  0  0
 12  2  1  0  0  0  0
 13 12  1  0  0  0  0
 14 17  2  0  0  0  0
 14 15  1  0  0  0  0
 16 14  2  0  0  0  0
 19 18  1  6  0  0  0
 19  1  1  0  0  0  0
 19 30  1  0  0  0  0
 20 25  1  0  0  0  0
 21 24  2  0  0  0  0
 22 19  1  0  0  0  0
 23 21  1  0  0  0  0
 23 20  2  0  0  0  0
 24 22  1  0  0  0  0
 25 22  2  0  0  0  0
 25 26  1  0  0  0  0
 27 23  1  0  0  0  0
 28 29  1  0  0  0  0
 28 27  1  0  0  0  0
 29 27  1  0  0  0  0
 30 31  1  0  0  0  0
 31 32  1  0  0  0  0
M  END
>  <MODEL>
3

>  <REMARK>
 VINA RESULT:      -5.0      2.148      3.987
  Name = 
  8 active torsions:
  status: ('A' for Active; 'I' for Inactive)
    1  A    between atoms: N_1  and  C_4
    2  A    between atoms: N_1  and  C_27
    3  A    between atoms: S_2  and  C_5
    4  A    between atoms: C_5  and  C_10
    5  A    between atoms: C_5  and  C_27
    6  A    between atoms: C_6  and  C_25
    7  A    between atoms: C_7  and  C_19
    8  A    between atoms: C_16  and  C_27
                            x       y       z     vdW  Elec       q    Type
                         _______ _______ _______ _____ _____    ______ ____

>  <TORSDO>
F 8

$$$$
=
 OpenBabel11062408183D

 32 35  0  0  1  0  0  0  0  0999 V2000
  158.2130  211.9450  153.8090 C   0  0  1  0  0  3  0  0  0  0  0  0
  160.4970  212.0260  156.1240 C   0  0  0  0  0  3  0  0  0  0  0  0
  160.7950  208.6400  151.8530 C   0  0  0  0  0  2  0  0  0  0  0  0
  159.7190  211.6080  153.7760 C   0  0  1  0  0  3  0  0  0  0  0  0
  161.6820  208.0050  153.9470 O   0  0  0  0  0  0  0  0  0  0  0  0
  160.9380  209.1470  154.1130 C   0  0  0  0  0  0  0  0  0  0  0  0
  160.3530  211.1870  155.0950 C   0  0  0  0  0  0  0  0  0  0  0  0
  161.0100  209.9170  155.1500 N   0  0  0  0  0  0  0  0  0  0  0  0
  160.1200  209.4800  152.9310 C   0  0  1  0  0  3  0  0  0  0  0  0
  161.5490  207.5340  152.6150 C   0  0  0  0  0  2  0  0  0  0  0  0
  160.1600  210.8630  152.6430 O   0  0  0  0  0  0  0  0  0  0  0  0
  160.0010  213.4370  156.1320 C   0  0  0  0  0  2  0  0  0  0  0  0
  159.2170  213.6670  157.2610 O   0  0  0  0  0  1  0  0  0  0  0  0
  157.3640  211.0100  155.0870 S   0  0  0  0  0  0  0  0  0  0  0  0
  155.6400  210.8800  154.6730 C   0  0  0  0  0  1  0  0  0  0  0  0
  157.4870  211.6980  156.4160 O   0  0  0  0  0  0  0  0  0  0  0  0
  157.9450  209.6290  155.1860 O   0  0  0  0  0  0  0  0  0  0  0  0
  158.6680  214.3370  154.0390 O   0  0  0  0  0  1  0  0  0  0  0  0
  157.7210  213.4100  153.5850 C   0  0  1  0  0  0  0  0  0  0  0  0
  158.4680  213.9220  149.8470 C   0  0  0  0  0  3  0  0  0  0  0  0
  156.0750  213.7850  150.1460 C   0  0  0  0  0  3  0  0  0  0  0  0
  157.5470  213.6200  152.0870 C   0  0  0  0  0  0  0  0  0  0  0  0
  157.1790  213.9530  149.3040 C   0  0  0  0  0  0  0  0  0  0  0  0
  156.2600  213.6240  151.5200 C   0  0  0  0  0  3  0  0  0  0  0  0
  158.6590  213.7630  151.2230 C   0  0  0  0  0  0  0  0  0  0  0  0
  159.9590  213.7480  151.7140 O   0  0  0  0  0  1  0  0  0  0  0  0
  156.9870  214.0740  147.8220 C   0  0  0  0  0  3  0  0  0  0  0  0
  157.2600  212.7430  147.1390 C   0  0  0  0  0  2  0  0  0  0  0  0
  158.3000  213.8380  147.0950 C   0  0  0  0  0  2  0  0  0  0  0  0
  156.4330  213.6580  154.2600 N   0  0  0  0  0  2  0  0  0  0  0  0
  156.5960  214.4480  155.4730 C   0  0  0  0  0  2  0  0  0  0  0  0
  155.3500  214.3260  156.3240 C   0  0  0  0  0  1  0  0  0  0  0  0
  1 14  1  1  0  0  0
  2 12  1  0  0  0  0
  3 10  1  0  0  0  0
  4  1  1  1  0  0  0
  4  7  1  0  0  0  0
  5  6  1  0  0  0  0
  6  8  2  0  0  0  0
  7  8  1  0  0  0  0
  7  2  2  0  0  0  0
  9  3  1  6  0  0  0
  9  6  1  0  0  0  0
 10  5  1  0  0  0  0
 11  9  1  0  0  0  0
 11  4  1  0  0  0  0
 12 13  1  0  0  0  0
 14 17  2  0  0  0  0
 14 16  2  0  0  0  0
 15 14  1  0  0  0  0
 19  1  1  0  0  0  0
 19 18  1  1  0  0  0
 19 30  1  0  0  0  0
 20 25  1  0  0  0  0
 21 24  2  0  0  0  0
 22 19  1  0  0  0  0
 23 20  2  0  0  0  0
 23 21  1  0  0  0  0
 24 22  1  0  0  0  0
 25 26  1  0  0  0  0
 25 22  2  0  0  0  0
 27 23  1  0  0  0  0
 28 27  1  0  0  0  0
 29 28  1  0  0  0  0
 29 27  1  0  0  0  0
 30 31  1  0  0  0  0
 31 32  1  0  0  0  0
M  END
>  <MODEL>
4

>  <REMARK>
 VINA RESULT:      -4.0      1.939      6.328
  Name = 
  8 active torsions:
  status: ('A' for Active; 'I' for Inactive)
    1  A    between atoms: N_1  and  C_4
    2  A    between atoms: N_1  and  C_27
    3  A    between atoms: S_2  and  C_5
    4  A    between atoms: C_5  and  C_10
    5  A    between atoms: C_5  and  C_27
    6  A    between atoms: C_6  and  C_25
    7  A    between atoms: C_7  and  C_19
    8  A    between atoms: C_16  and  C_27
                            x       y       z     vdW  Elec       q    Type
                         _______ _______ _______ _____ _____    ______ ____

>  <TORSDO>
F 8

$$$$
=
 OpenBabel11062408183D

 32 35  0  0  1  0  0  0  0  0999 V2000
  159.4480  211.8320  154.8150 C   0  0  1  0  0  3  0  0  0  0  0  0
  158.4400  213.6080  152.2830 C   0  0  0  0  0  3  0  0  0  0  0  0
  156.2120  214.0780  157.2430 C   0  0  0  0  0  2  0  0  0  0  0  0
  158.7920  213.2270  154.7370 C   0  0  1  0  0  3  0  0  0  0  0  0
  154.9030  214.4160  155.3070 O   0  0  0  0  0  0  0  0  0  0  0  0
  156.1100  213.8800  154.9330 C   0  0  0  0  0  0  0  0  0  0  0  0
  157.9310  213.5080  153.5130 C   0  0  0  0  0  0  0  0  0  0  0  0
  156.5690  213.8950  153.7250 N   0  0  0  0  0  0  0  0  0  0  0  0
  156.8980  213.3790  156.0760 C   0  0  1  0  0  3  0  0  0  0  0  0
  154.8110  214.4530  156.7230 C   0  0  0  0  0  2  0  0  0  0  0  0
  158.2620  213.7290  155.9620 O   0  0  0  0  0  0  0  0  0  0  0  0
  159.8820  213.3920  151.9520 C   0  0  0  0  0  2  0  0  0  0  0  0
  160.1670  213.8920  150.6820 O   0  0  0  0  0  1  0  0  0  0  0  0
  160.5720  211.7190  156.2120 S   0  0  0  0  0  0  0  0  0  0  0  0
  162.1490  211.1190  155.6520 C   0  0  0  0  0  1  0  0  0  0  0  0
  160.0380  210.7700  157.2460 O   0  0  0  0  0  0  0  0  0  0  0  0
  160.7610  213.0740  156.8320 O   0  0  0  0  0  0  0  0  0  0  0  0
  157.6730  210.7960  153.4890 O   0  0  0  0  0  1  0  0  0  0  0  0
  158.6250  210.5470  154.4860 C   0  0  1  0  0  0  0  0  0  0  0  0
  160.8250  207.4050  154.1960 C   0  0  0  0  0  3  0  0  0  0  0  0
  160.9680  208.6420  152.1270 C   0  0  0  0  0  3  0  0  0  0  0  0
  159.5920  209.4970  153.9540 C   0  0  0  0  0  0  0  0  0  0  0  0
  161.3470  207.5450  152.9050 C   0  0  0  0  0  0  0  0  0  0  0  0
  160.1040  209.6070  152.6480 C   0  0  0  0  0  3  0  0  0  0  0  0
  159.9600  208.3680  154.7240 C   0  0  0  0  0  0  0  0  0  0  0  0
  159.4750  208.1880  156.0150 O   0  0  0  0  0  1  0  0  0  0  0  0
  162.2330  206.4810  152.3300 C   0  0  0  0  0  3  0  0  0  0  0  0
  161.5720  205.8310  151.1260 C   0  0  0  0  0  2  0  0  0  0  0  0
  161.5770  205.1160  152.4580 C   0  0  0  0  0  2  0  0  0  0  0  0
  157.9480  210.0160  155.6840 N   0  0  0  0  0  2  0  0  0  0  0  0
  156.5000  210.1430  155.5950 C   0  0  0  0  0  2  0  0  0  0  0  0
  155.9380  210.4780  156.9600 C   0  0  0  0  0  1  0  0  0  0  0  0
  1 14  1  1  0  0  0
  2  7  2  0  0  0  0
  4  1  1  1  0  0  0
  4 11  1  0  0  0  0
  5 10  1  0  0  0  0
  6  5  1  0  0  0  0
  6  9  1  0  0  0  0
  7  8  1  0  0  0  0
  7  4  1  0  0  0  0
  8  6  2  0  0  0  0
  9  3  1  1  0  0  0
 10  3  1  0  0  0  0
 11  9  1  0  0  0  0
 12  2  1  0  0  0  0
 13 12  1  0  0  0  0
 14 17  2  0  0  0  0
 14 16  2  0  0  0  0
 15 14  1  0  0  0  0
 19 18  1  6  0  0  0
 19  1  1  0  0  0  0
 19 30  1  0  0  0  0
 20 25  1  0  0  0  0
 21 24  2  0  0  0  0
 21 23  1  0  0  0  0
 22 19  1  0  0  0  0
 22 25  2  0  0  0  0
 23 20  2  0  0  0  0
 24 22  1  0  0  0  0
 25 26  1  0  0  0  0
 27 29  1  0  0  0  0
 27 23  1  0  0  0  0
 28 27  1  0  0  0  0
 28 29  1  0  0  0  0
 31 30  1  0  0  0  0
 31 32  1  0  0  0  0
M  END
>  <MODEL>
5

>  <REMARK>
 VINA RESULT:      -3.9      1.826      3.768
  Name = 
  8 active torsions:
  status: ('A' for Active; 'I' for Inactive)
    1  A    between atoms: N_1  and  C_4
    2  A    between atoms: N_1  and  C_27
    3  A    between atoms: S_2  and  C_5
    4  A    between atoms: C_5  and  C_10
    5  A    between atoms: C_5  and  C_27
    6  A    between atoms: C_6  and  C_25
    7  A    between atoms: C_7  and  C_19
    8  A    between atoms: C_16  and  C_27
                            x       y       z     vdW  Elec       q    Type
                         _______ _______ _______ _____ _____    ______ ____

>  <TORSDO>
F 8

$$$$
=
 OpenBabel11062408183D

 32 35  0  0  1  0  0  0  0  0999 V2000
  159.5220  210.2230  154.9680 C   0  0  1  0  0  3  0  0  0  0  0  0
  160.4180  207.6420  156.7320 C   0  0  0  0  0  3  0  0  0  0  0  0
  163.0880  212.3960  156.9600 C   0  0  0  0  0  2  0  0  0  0  0  0
  160.2550  210.1110  156.3220 C   0  0  1  0  0  3  0  0  0  0  0  0
  164.2450  210.3600  157.2590 O   0  0  0  0  0  0  0  0  0  0  0  0
  162.9790  210.0840  156.8060 C   0  0  0  0  0  0  0  0  0  0  0  0
  161.0240  208.8210  156.5760 C   0  0  0  0  0  0  0  0  0  0  0  0
  162.4200  208.9200  156.8740 N   0  0  0  0  0  0  0  0  0  0  0  0
  162.2620  211.2830  156.3290 C   0  0  1  0  0  3  0  0  0  0  0  0
  164.4600  211.7630  157.2610 C   0  0  0  0  0  2  0  0  0  0  0  0
  160.9180  211.2930  156.7640 O   0  0  0  0  0  0  0  0  0  0  0  0
  158.9430  207.4330  156.6110 C   0  0  0  0  0  2  0  0  0  0  0  0
  158.6750  206.1860  156.0490 O   0  0  0  0  0  1  0  0  0  0  0  0
  157.9310  211.0360  155.1540 S   0  0  0  0  0  0  0  0  0  0  0  0
  158.1870  212.7140  155.6860 C   0  0  0  0  0  1  0  0  0  0  0  0
  157.0930  210.3310  156.1810 O   0  0  0  0  0  0  0  0  0  0  0  0
  157.2020  211.0490  153.8410 O   0  0  0  0  0  0  0  0  0  0  0  0
  161.4760  211.2740  153.9380 O   0  0  0  0  0  1  0  0  0  0  0  0
  160.3120  210.5460  153.6600 C   0  0  1  0  0  0  0  0  0  0  0  0
  161.8210  207.9500  151.2570 C   0  0  0  0  0  3  0  0  0  0  0  0
  160.8780  206.7910  153.1530 C   0  0  0  0  0  3  0  0  0  0  0  0
  160.7300  209.2250  153.0290 C   0  0  0  0  0  0  0  0  0  0  0  0
  161.5360  206.7520  151.9210 C   0  0  0  0  0  0  0  0  0  0  0  0
  160.4780  208.0120  153.6970 C   0  0  0  0  0  3  0  0  0  0  0  0
  161.4220  209.1770  151.7950 C   0  0  0  0  0  0  0  0  0  0  0  0
  161.7210  210.3380  151.0920 O   0  0  0  0  0  1  0  0  0  0  0  0
  162.0120  205.4460  151.3600 C   0  0  0  0  0  3  0  0  0  0  0  0
  160.9190  204.7930  150.5300 C   0  0  0  0  0  2  0  0  0  0  0  0
  161.1990  204.2950  151.9290 C   0  0  0  0  0  2  0  0  0  0  0  0
  159.4840  211.2990  152.6990 N   0  0  0  0  0  2  0  0  0  0  0  0
  160.0600  212.5980  152.3820 C   0  0  0  0  0  2  0  0  0  0  0  0
  158.9550  213.6260  152.2690 C   0  0  0  0  0  1  0  0  0  0  0  0
  1 14  1  1  0  0  0
  3 10  1  0  0  0  0
  4  1  1  6  0  0  0
  4  7  1  0  0  0  0
  4 11  1  0  0  0  0
  5 10  1  0  0  0  0
  6  8  2  0  0  0  0
  6  5  1  0  0  0  0
  7  2  2  0  0  0  0
  7  8  1  0  0  0  0
  9 11  1  0  0  0  0
  9  6  1  0  0  0  0
  9  3  1  1  0  0  0
 12  2  1  0  0  0  0
 13 12  1  0  0  0  0
 14 15  1  0  0  0  0
 14 16  2  0  0  0  0
 17 14  2  0  0  0  0
 19 18  1  1  0  0  0
 19  1  1  0  0  0  0
 20 25  2  0  0  0  0
 20 23  1  0  0  0  0
 21 24  1  0  0  0  0
 22 19  1  0  0  0  0
 22 24  2  0  0  0  0
 23 21  2  0  0  0  0
 25 22  1  0  0  0  0
 26 25  1  0  0  0  0
 27 23  1  0  0  0  0
 27 29  1  0  0  0  0
 28 27  1  0  0  0  0
 28 29  1  0  0  0  0
 30 19  1  0  0  0  0
 31 30  1  0  0  0  0
 32 31  1  0  0  0  0
M  END
>  <MODEL>
6

>  <REMARK>
 VINA RESULT:      -3.7      1.962      4.835
  Name = 
  8 active torsions:
  status: ('A' for Active; 'I' for Inactive)
    1  A    between atoms: N_1  and  C_4
    2  A    between atoms: N_1  and  C_27
    3  A    between atoms: S_2  and  C_5
    4  A    between atoms: C_5  and  C_10
    5  A    between atoms: C_5  and  C_27
    6  A    between atoms: C_6  and  C_25
    7  A    between atoms: C_7  and  C_19
    8  A    between atoms: C_16  and  C_27
                            x       y       z     vdW  Elec       q    Type
                         _______ _______ _______ _____ _____    ______ ____

>  <TORSDO>
F 8

$$$$
=
 OpenBabel11062408183D

 32 35  0  0  1  0  0  0  0  0999 V2000
  160.0870  212.0310  140.2070 C   0  0  1  0  0  3  0  0  0  0  0  0
  159.8100  213.0780  137.1400 C   0  0  0  0  0  3  0  0  0  0  0  0
  156.3140  209.5010  139.3250 C   0  0  0  0  0  2  0  0  0  0  0  0
  158.8610  212.1790  139.2800 C   0  0  1  0  0  3  0  0  0  0  0  0
  156.8330  209.4120  137.0230 O   0  0  0  0  0  0  0  0  0  0  0  0
  157.7060  210.2750  137.6370 C   0  0  0  0  0  0  0  0  0  0  0  0
  159.1280  212.1270  137.7820 C   0  0  0  0  0  0  0  0  0  0  0  0
  158.4360  211.1400  137.0110 N   0  0  0  0  0  0  0  0  0  0  0  0
  157.6490  210.2030  139.1110 C   0  0  1  0  0  3  0  0  0  0  0  0
  156.0190  208.7770  137.9970 C   0  0  0  0  0  2  0  0  0  0  0  0
  157.6850  211.4880  139.6980 O   0  0  0  0  0  0  0  0  0  0  0  0
  160.4430  214.2550  137.8100 C   0  0  0  0  0  2  0  0  0  0  0  0
  161.8300  214.1870  137.6980 O   0  0  0  0  0  1  0  0  0  0  0  0
  161.2810  210.8730  139.5270 S   0  0  0  0  0  0  0  0  0  0  0  0
  162.6580  210.7270  140.6410 C   0  0  0  0  0  1  0  0  0  0  0  0
  161.7880  211.3550  138.1980 O   0  0  0  0  0  0  0  0  0  0  0  0
  160.6480  209.5210  139.3570 O   0  0  0  0  0  0  0  0  0  0  0  0
  160.4240  214.4530  140.2430 O   0  0  0  0  0  1  0  0  0  0  0  0
  160.6760  213.2710  140.9510 C   0  0  1  0  0  0  0  0  0  0  0  0
  159.8640  212.9170  144.6930 C   0  0  0  0  0  3  0  0  0  0  0  0
  158.1610  214.2820  143.6590 C   0  0  0  0  0  3  0  0  0  0  0  0
  159.9780  213.3800  142.3000 C   0  0  0  0  0  0  0  0  0  0  0  0
  158.6790  213.6550  144.7960 C   0  0  0  0  0  0  0  0  0  0  0  0
  158.8030  214.1420  142.4270 C   0  0  0  0  0  3  0  0  0  0  0  0
  160.5100  212.7720  143.4620 C   0  0  0  0  0  0  0  0  0  0  0  0
  161.6790  212.0210  143.4110 O   0  0  0  0  0  1  0  0  0  0  0  0
  158.0210  213.8460  146.1290 C   0  0  0  0  0  3  0  0  0  0  0  0
  157.6390  212.5030  146.7310 C   0  0  0  0  0  2  0  0  0  0  0  0
  156.5800  213.3650  146.0840 C   0  0  0  0  0  2  0  0  0  0  0  0
  162.1280  213.1330  141.1680 N   0  0  0  0  0  2  0  0  0  0  0  0
  162.8230  214.4070  141.0450 C   0  0  0  0  0  2  0  0  0  0  0  0
  164.0330  214.2370  140.1520 C   0  0  0  0  0  1  0  0  0  0  0  0
  1 14  1  6  0  0  0
  1 19  1  0  0  0  0
  2  7  2  0  0  0  0
  2 12  1  0  0  0  0
  4 11  1  0  0  0  0
  4  1  1  1  0  0  0
  5  6  1  0  0  0  0
  5 10  1  0  0  0  0
  6  9  1  0  0  0  0
  7  4  1  0  0  0  0
  8  6  2  0  0  0  0
  8  7  1  0  0  0  0
  9  3  1  6  0  0  0
  9 11  1  0  0  0  0
 10  3  1  0  0  0  0
 13 12  1  0  0  0  0
 14 15  1  0  0  0  0
 16 14  2  0  0  0  0
 17 14  2  0  0  0  0
 19 18  1  6  0  0  0
 19 30  1  0  0  0  0
 19 22  1  0  0  0  0
 20 23  1  0  0  0  0
 21 23  2  0  0  0  0
 22 24  2  0  0  0  0
 22 25  1  0  0  0  0
 23 27  1  0  0  0  0
 24 21  1  0  0  0  0
 25 20  2  0  0  0  0
 26 25  1  0  0  0  0
 27 28  1  0  0  0  0
 29 27  1  0  0  0  0
 29 28  1  0  0  0  0
 31 30  1  0  0  0  0
 32 31  1  0  0  0  0
M  END
>  <MODEL>
7

>  <REMARK>
 VINA RESULT:      -3.6     11.051     14.702
  Name = 
  8 active torsions:
  status: ('A' for Active; 'I' for Inactive)
    1  A    between atoms: N_1  and  C_4
    2  A    between atoms: N_1  and  C_27
    3  A    between atoms: S_2  and  C_5
    4  A    between atoms: C_5  and  C_10
    5  A    between atoms: C_5  and  C_27
    6  A    between atoms: C_6  and  C_25
    7  A    between atoms: C_7  and  C_19
    8  A    between atoms: C_16  and  C_27
                            x       y       z     vdW  Elec       q    Type
                         _______ _______ _______ _____ _____    ______ ____

>  <TORSDO>
F 8

$$$$
=
 OpenBabel11062408183D

 32 35  0  0  1  0  0  0  0  0999 V2000
  159.6450  210.7180  153.8550 C   0  0  1  0  0  3  0  0  0  0  0  0
  160.4960  211.9220  156.7540 C   0  0  0  0  0  3  0  0  0  0  0  0
  155.4690  210.0560  155.7360 C   0  0  0  0  0  2  0  0  0  0  0  0
  159.1170  210.4360  155.2780 C   0  0  1  0  0  3  0  0  0  0  0  0
  155.8000  211.8350  157.2530 O   0  0  0  0  0  0  0  0  0  0  0  0
  156.9750  211.6050  156.5820 C   0  0  0  0  0  0  0  0  0  0  0  0
  159.2970  211.5460  156.3050 C   0  0  0  0  0  0  0  0  0  0  0  0
  158.1300  212.0440  156.9660 N   0  0  0  0  0  0  0  0  0  0  0  0
  156.8130  210.7030  155.4250 C   0  0  1  0  0  3  0  0  0  0  0  0
  154.7700  211.0210  156.7120 C   0  0  0  0  0  2  0  0  0  0  0  0
  157.8630  209.7610  155.3480 O   0  0  0  0  0  0  0  0  0  0  0  0
  161.7910  211.3580  156.2630 C   0  0  0  0  0  2  0  0  0  0  0  0
  162.7760  211.4870  157.2410 O   0  0  0  0  0  1  0  0  0  0  0  0
  159.1150  212.3330  153.2720 S   0  0  0  0  0  0  0  0  0  0  0  0
  159.6820  212.5720  151.6040 C   0  0  0  0  0  1  0  0  0  0  0  0
  159.6870  213.4210  154.1340 O   0  0  0  0  0  0  0  0  0  0  0  0
  157.6150  212.4200  153.2920 O   0  0  0  0  0  0  0  0  0  0  0  0
  162.0080  210.5270  154.4550 O   0  0  0  0  0  1  0  0  0  0  0  0
  161.0820  210.2720  153.4360 C   0  0  1  0  0  0  0  0  0  0  0  0
  161.1460  206.4710  154.0210 C   0  0  0  0  0  3  0  0  0  0  0  0
  160.7570  206.8860  151.6740 C   0  0  0  0  0  3  0  0  0  0  0  0
  161.0530  208.7680  153.2000 C   0  0  0  0  0  0  0  0  0  0  0  0
  160.9380  205.9830  152.7260 C   0  0  0  0  0  0  0  0  0  0  0  0
  160.8170  208.2600  151.9100 C   0  0  0  0  0  3  0  0  0  0  0  0
  161.2080  207.8470  154.2640 C   0  0  0  0  0  0  0  0  0  0  0  0
  161.4250  208.2810  155.5670 O   0  0  0  0  0  1  0  0  0  0  0  0
  160.8230  204.5080  152.4840 C   0  0  0  0  0  3  0  0  0  0  0  0
  161.9730  204.0190  151.6190 C   0  0  0  0  0  2  0  0  0  0  0  0
  160.6080  204.2270  151.0060 C   0  0  0  0  0  2  0  0  0  0  0  0
  161.5190  210.9460  152.1990 N   0  0  0  0  0  2  0  0  0  0  0  0
  162.4810  210.1470  151.4530 C   0  0  0  0  0  2  0  0  0  0  0  0
  162.3290  210.4280  149.9730 C   0  0  0  0  0  1  0  0  0  0  0  0
  1 14  1  1  0  0  0
  3 10  1  0  0  0  0
  4  1  1  6  0  0  0
  4 11  1  0  0  0  0
  4  7  1  0  0  0  0
  6  8  2  0  0  0  0
  6  5  1  0  0  0  0
  7  2  2  0  0  0  0
  7  8  1  0  0  0  0
  9  3  1  1  0  0  0
  9  6  1  0  0  0  0
 10  5  1  0  0  0  0
 11  9  1  0  0  0  0
 12  2  1  0  0  0  0
 12 13  1  0  0  0  0
 14 17  2  0  0  0  0
 14 16  2  0  0  0  0
 15 14  1  0  0  0  0
 19  1  1  0  0  0  0
 19 18  1  1  0  0  0
 20 25  1  0  0  0  0
 21 24  2  0  0  0  0
 21 23  1  0  0  0  0
 22 19  1  0  0  0  0
 22 25  2  0  0  0  0
 23 20  2  0  0  0  0
 24 22  1  0  0  0  0
 25 26  1  0  0  0  0
 27 23  1  0  0  0  0
 28 27  1  0  0  0  0
 29 28  1  0  0  0  0
 29 27  1  0  0  0  0
 30 19  1  0  0  0  0
 31 30  1  0  0  0  0
 32 31  1  0  0  0  0
M  END
>  <MODEL>
8

>  <REMARK>
 VINA RESULT:      -3.6      2.062      4.317
  Name = 
  8 active torsions:
  status: ('A' for Active; 'I' for Inactive)
    1  A    between atoms: N_1  and  C_4
    2  A    between atoms: N_1  and  C_27
    3  A    between atoms: S_2  and  C_5
    4  A    between atoms: C_5  and  C_10
    5  A    between atoms: C_5  and  C_27
    6  A    between atoms: C_6  and  C_25
    7  A    between atoms: C_7  and  C_19
    8  A    between atoms: C_16  and  C_27
                            x       y       z     vdW  Elec       q    Type
                         _______ _______ _______ _____ _____    ______ ____

>  <TORSDO>
F 8

$$$$
=
 OpenBabel11062408183D

 32 35  0  0  1  0  0  0  0  0999 V2000
  159.3740  211.0500  154.3140 C   0  0  1  0  0  3  0  0  0  0  0  0
  161.2680  209.8110  156.6510 C   0  0  0  0  0  3  0  0  0  0  0  0
  161.1050  207.7130  151.6160 C   0  0  0  0  0  2  0  0  0  0  0  0
  160.7080  210.2740  154.2510 C   0  0  1  0  0  3  0  0  0  0  0  0
  161.4940  206.3180  153.4800 O   0  0  0  0  0  0  0  0  0  0  0  0
  161.1010  207.5540  153.9310 C   0  0  0  0  0  0  0  0  0  0  0  0
  161.0170  209.3530  155.4230 C   0  0  0  0  0  0  0  0  0  0  0  0
  161.2620  207.9710  155.1440 N   0  0  0  0  0  0  0  0  0  0  0  0
  160.5740  208.4190  152.8570 C   0  0  1  0  0  3  0  0  0  0  0  0
  161.4000  206.2700  152.0650 C   0  0  0  0  0  2  0  0  0  0  0  0
  161.0520  209.7440  152.9730 O   0  0  0  0  0  0  0  0  0  0  0  0
  161.2090  211.2550  157.0370 C   0  0  0  0  0  2  0  0  0  0  0  0
  162.4890  211.8080  157.0360 O   0  0  0  0  0  1  0  0  0  0  0  0
  158.2560  210.3260  155.5200 S   0  0  0  0  0  0  0  0  0  0  0  0
  156.5800  210.5300  154.9640 C   0  0  0  0  0  1  0  0  0  0  0  0
  158.4050  211.0010  156.8530 O   0  0  0  0  0  0  0  0  0  0  0  0
  158.5420  208.8590  155.6700 O   0  0  0  0  0  0  0  0  0  0  0  0
  160.6190  213.1500  154.4710 O   0  0  0  0  0  1  0  0  0  0  0  0
  159.3550  212.6080  154.2040 C   0  0  1  0  0  0  0  0  0  0  0  0
  157.3790  213.7390  151.1050 C   0  0  0  0  0  3  0  0  0  0  0  0
  159.6630  213.3080  150.4500 C   0  0  0  0  0  3  0  0  0  0  0  0
  158.9870  212.9700  152.7720 C   0  0  0  0  0  0  0  0  0  0  0  0
  158.3620  213.6870  150.1100 C   0  0  0  0  0  0  0  0  0  0  0  0
  159.9690  212.9510  151.7650 C   0  0  0  0  0  3  0  0  0  0  0  0
  157.6790  213.3820  152.4230 C   0  0  0  0  0  0  0  0  0  0  0  0
  156.6650  213.4420  153.3730 O   0  0  0  0  0  1  0  0  0  0  0  0
  158.0430  214.1190  148.7100 C   0  0  0  0  0  3  0  0  0  0  0  0
  157.4470  212.9660  147.9190 C   0  0  0  0  0  2  0  0  0  0  0  0
  158.8930  213.3530  147.7100 C   0  0  0  0  0  2  0  0  0  0  0  0
  158.3650  213.2030  155.1220 N   0  0  0  0  0  2  0  0  0  0  0  0
  158.8390  214.4530  155.7000 C   0  0  0  0  0  2  0  0  0  0  0  0
  158.5960  214.4420  157.1940 C   0  0  0  0  0  1  0  0  0  0  0  0
  1 14  1  1  0  0  0
  2 12  1  0  0  0  0
  3 10  1  0  0  0  0
  4  1  1  6  0  0  0
  4  7  1  0  0  0  0
  5  6  1  0  0  0  0
  6  8  2  0  0  0  0
  7  2  2  0  0  0  0
  8  7  1  0  0  0  0
  9  3  1  6  0  0  0
  9 11  1  0  0  0  0
  9  6  1  0  0  0  0
 10  5  1  0  0  0  0
 11  4  1  0  0  0  0
 13 12  1  0  0  0  0
 14 17  2  0  0  0  0
 14 16  2  0  0  0  0
 15 14  1  0  0  0  0
 19  1  1  0  0  0  0
 19 18  1  1  0  0  0
 19 30  1  0  0  0  0
 20 25  1  0  0  0  0
 21 24  2  0  0  0  0
 22 19  1  0  0  0  0
 23 21  1  0  0  0  0
 23 20  2  0  0  0  0
 24 22  1  0  0  0  0
 25 22  2  0  0  0  0
 25 26  1  0  0  0  0
 27 23  1  0  0  0  0
 28 27  1  0  0  0  0
 29 28  1  0  0  0  0
 29 27  1  0  0  0  0
 30 31  1  0  0  0  0
 31 32  1  0  0  0  0
M  END
>  <MODEL>
9

>  <REMARK>
 VINA RESULT:      -3.4      1.986      6.103
  Name = 
  8 active torsions:
  status: ('A' for Active; 'I' for Inactive)
    1  A    between atoms: N_1  and  C_4
    2  A    between atoms: N_1  and  C_27
    3  A    between atoms: S_2  and  C_5
    4  A    between atoms: C_5  and  C_10
    5  A    between atoms: C_5  and  C_27
    6  A    between atoms: C_6  and  C_25
    7  A    between atoms: C_7  and  C_19
    8  A    between atoms: C_16  and  C_27
                            x       y       z     vdW  Elec       q    Type
                         _______ _______ _______ _____ _____    ______ ____

>  <TORSDO>
F 8

$$$$
