=
 OpenBabel11052422023D

 30 34  0  0  1  0  0  0  0  0999 V2000
  160.2220  207.8240  154.0150 C   0  0  1  0  0  3  0  0  0  0  0  0
  159.1650  210.6980  156.1880 C   0  0  0  0  0  2  0  0  0  0  0  0
  163.8560  211.1030  155.0830 C   0  0  0  0  0  1  0  0  0  0  0  0
  160.6080  207.9070  152.5050 C   0  0  2  0  0  3  0  0  0  0  0  0
  160.8360  206.6220  154.7480 C   0  0  0  0  0  2  0  0  0  0  0  0
  161.5570  204.3460  151.8880 N   0  0  0  0  0  2  0  0  0  0  0  0
  160.9960  206.4000  148.2970 C   0  0  0  0  0  2  0  0  0  0  0  0
  161.3730  205.5340  152.6650 C   0  0  0  0  0  0  0  0  0  0  0  0
  161.2790  209.3530  150.5100 C   0  0  0  0  0  2  0  0  0  0  0  0
  163.2650  209.7690  152.4400 O   0  0  0  0  0  1  0  0  0  0  0  0
  160.9390  205.4480  153.8850 N   0  0  0  0  0  0  0  0  0  0  0  0
  161.6930  206.8930  152.0940 C   0  0  1  0  0  3  0  0  0  0  0  0
  159.9980  211.8190  156.2650 O   0  0  0  0  0  0  0  0  0  0  0  0
  162.3250  208.3020  150.1210 C   0  0  2  0  0  3  0  0  0  0  0  0
  161.3650  207.8070  147.8350 C   0  0  0  0  0  2  0  0  0  0  0  0
  159.3310  210.0350  154.8300 C   0  0  0  0  0  2  0  0  0  0  0  0
  161.8710  209.7280  154.3840 C   0  0  1  0  0  3  0  0  0  0  0  0
  160.9490  211.5370  157.2590 C   0  0  0  0  0  2  0  0  0  0  0  0
  160.5300  209.0880  154.8200 C   0  0  2  0  0  3  0  0  0  0  0  0
  159.7340  210.0730  152.0880 F   0  0  0  0  0  0  0  0  0  0  0  0
  161.9670  210.0510  152.8790 C   0  0  2  0  0  3  0  0  0  0  0  0
  160.9040  209.3420  152.0040 C   0  0  1  0  0  0  0  0  0  0  0  0
  162.5770  208.3250  148.6110 C   0  0  0  0  0  2  0  0  0  0  0  0
  160.6900  206.4020  149.7910 C   0  0  0  0  0  2  0  0  0  0  0  0
  162.3640  210.8950  155.2610 C   0  0  1  0  0  3  0  0  0  0  0  0
  162.0840  210.6490  156.7390 C   0  0  0  0  0  2  0  0  0  0  0  0
  161.9150  206.8950  150.5750 C   0  0  2  0  0  3  0  0  0  0  0  0
  161.2460  203.1220  152.3790 O   0  0  0  0  0  0  0  0  0  0  0  0
  161.2650  202.2750  151.2690 C   0  0  0  0  0  2  0  0  0  0  0  0
  160.4970  202.9130  150.1320 C   0  0  0  0  0  1  0  0  0  0  0  0
  1  5  1  1  0  0  0
  1 19  1  0  0  0  0
  2 13  1  0  0  0  0
  3 25  1  0  0  0  0
  4  1  1  0  0  0  0
  6 28  1  0  0  0  0
  6  8  1  0  0  0  0
  7 24  1  0  0  0  0
  8 11  2  0  0  0  0
  9 22  1  0  0  0  0
 10 21  1  0  0  0  0
 11  5  1  0  0  0  0
 12  4  1  0  0  0  0
 12  8  1  0  0  0  0
 13 18  1  0  0  0  0
 14  9  1  0  0  0  0
 14 27  1  0  0  0  0
 15  7  1  0  0  0  0
 15 23  1  0  0  0  0
 16  2  1  0  0  0  0
 17 19  1  0  0  0  0
 17 25  1  0  0  0  0
 19 16  1  0  0  0  0
 21 17  1  0  0  0  0
 22 20  1  0  0  0  0
 22  4  1  0  0  0  0
 22 21  1  0  0  0  0
 23 14  1  0  0  0  0
 24 27  1  0  0  0  0
 25 26  1  0  0  0  0
 26 18  1  0  0  0  0
 27 12  1  0  0  0  0
 29 28  1  0  0  0  0
 30 29  1  0  0  0  0
M  END
>  <MODEL>
1

>  <REMARK>
 VINA RESULT:      -5.4      0.000      0.000
  Name = 
  2 active torsions:
  status: ('A' for Active; 'I' for Inactive)
    1  A    between atoms: N_6  and  O_21
    2  A    between atoms: C_9  and  O_21
                            x       y       z     vdW  Elec       q    Type
                         _______ _______ _______ _____ _____    ______ ____

>  <TORSDO>
F 2

$$$$
=
 OpenBabel11052422023D

 30 34  0  0  1  0  0  0  0  0999 V2000
  162.2860  209.3970  149.0200 C   0  0  1  0  0  3  0  0  0  0  0  0
  163.6730  212.6460  147.7500 C   0  0  0  0  0  2  0  0  0  0  0  0
  159.2620  213.3480  149.6040 C   0  0  0  0  0  1  0  0  0  0  0  0
  162.0590  209.0170  150.5170 C   0  0  2  0  0  3  0  0  0  0  0  0
  161.3910  208.6230  148.0410 C   0  0  0  0  0  2  0  0  0  0  0  0
  160.5080  205.6440  150.0950 N   0  0  0  0  0  2  0  0  0  0  0  0
  161.7660  206.2430  154.0300 C   0  0  0  0  0  2  0  0  0  0  0  0
  160.8450  206.9840  149.7210 C   0  0  0  0  0  0  0  0  0  0  0  0
  161.8550  209.7800  152.9450 C   0  0  0  0  0  2  0  0  0  0  0  0
  159.8210  211.1210  151.5640 O   0  0  0  0  0  1  0  0  0  0  0  0
  161.1440  207.2540  148.4870 N   0  0  0  0  0  0  0  0  0  0  0  0
  160.8410  208.0980  150.7370 C   0  0  1  0  0  3  0  0  0  0  0  0
  163.0650  213.8380  148.1580 O   0  0  0  0  0  0  0  0  0  0  0  0
  160.6660  208.8290  153.1270 C   0  0  2  0  0  3  0  0  0  0  0  0
  161.7140  207.4460  154.9670 C   0  0  0  0  0  2  0  0  0  0  0  0
  163.5060  211.5920  148.8330 C   0  0  0  0  0  2  0  0  0  0  0  0
  161.0030  211.5370  149.5260 C   0  0  1  0  0  3  0  0  0  0  0  0
  161.9940  214.0570  147.2780 C   0  0  0  0  0  2  0  0  0  0  0  0
  162.1540  210.8910  148.7160 C   0  0  2  0  0  3  0  0  0  0  0  0
  163.3620  210.7550  151.4710 F   0  0  0  0  0  0  0  0  0  0  0  0
  161.1050  211.3380  151.0530 C   0  0  2  0  0  3  0  0  0  0  0  0
  162.0870  210.2220  151.4890 C   0  0  1  0  0  0  0  0  0  0  0  0
  160.5580  208.3730  154.5850 C   0  0  0  0  0  2  0  0  0  0  0  0
  161.9330  206.7070  152.5880 C   0  0  0  0  0  2  0  0  0  0  0  0
  160.6660  212.9920  149.1520 C   0  0  1  0  0  3  0  0  0  0  0  0
  160.7610  213.2260  147.6480 C   0  0  0  0  0  2  0  0  0  0  0  0
  160.7600  207.6160  152.1920 C   0  0  2  0  0  3  0  0  0  0  0  0
  160.5350  204.6290  149.1990 O   0  0  0  0  0  0  0  0  0  0  0  0
  161.1500  203.5710  149.8720 C   0  0  0  0  0  2  0  0  0  0  0  0
  160.6940  203.5570  151.3150 C   0  0  0  0  0  1  0  0  0  0  0  0
  1  5  1  6  0  0  0
  1  4  1  0  0  0  0
  2 13  1  0  0  0  0
  2 16  1  0  0  0  0
  4 12  1  0  0  0  0
  4 22  1  0  0  0  0
  5 11  1  0  0  0  0
  7 15  1  0  0  0  0
  8  6  1  0  0  0  0
  8 12  1  0  0  0  0
  9 14  1  0  0  0  0
 11  8  2  0  0  0  0
 12 27  1  0  0  0  0
 14 23  1  0  0  0  0
 17 21  1  0  0  0  0
 18 26  1  0  0  0  0
 18 13  1  0  0  0  0
 19 16  1  0  0  0  0
 19  1  1  0  0  0  0
 19 17  1  0  0  0  0
 20 22  1  0  0  0  0
 21 22  1  0  0  0  0
 21 10  1  0  0  0  0
 22  9  1  0  0  0  0
 23 15  1  0  0  0  0
 24  7  1  0  0  0  0
 25 17  1  0  0  0  0
 25  3  1  0  0  0  0
 26 25  1  0  0  0  0
 27 24  1  0  0  0  0
 27 14  1  0  0  0  0
 28 29  1  0  0  0  0
 28  6  1  0  0  0  0
 29 30  1  0  0  0  0
M  END
>  <MODEL>
2

>  <REMARK>
 VINA RESULT:      -4.2      2.939      5.638
  Name = 
  2 active torsions:
  status: ('A' for Active; 'I' for Inactive)
    1  A    between atoms: N_6  and  O_21
    2  A    between atoms: C_9  and  O_21
                            x       y       z     vdW  Elec       q    Type
                         _______ _______ _______ _____ _____    ______ ____

>  <TORSDO>
F 2

$$$$
=
 OpenBabel11052422023D

 30 34  0  0  1  0  0  0  0  0999 V2000
  161.7550  211.6790  149.7700 C   0  0  1  0  0  3  0  0  0  0  0  0
  162.5690  213.8250  146.7990 C   0  0  0  0  0  2  0  0  0  0  0  0
  157.8470  212.7830  146.8360 C   0  0  0  0  0  1  0  0  0  0  0  0
  160.9250  212.1150  151.0180 C   0  0  2  0  0  3  0  0  0  0  0  0
  161.7510  210.1640  149.5210 C   0  0  0  0  0  2  0  0  0  0  0  0
  160.8690  208.8920  152.9090 N   0  0  0  0  0  2  0  0  0  0  0  0
  159.7250  212.0860  155.3410 C   0  0  0  0  0  2  0  0  0  0  0  0
  160.9390  209.7250  151.7470 C   0  0  0  0  0  0  0  0  0  0  0  0
  159.3080  213.7830  152.0790 C   0  0  0  0  0  2  0  0  0  0  0  0
  157.9630  212.7450  149.8530 O   0  0  0  0  0  1  0  0  0  0  0  0
  161.7260  209.4020  150.7670 N   0  0  0  0  0  0  0  0  0  0  0  0
  160.0950  210.9690  151.6320 C   0  0  1  0  0  3  0  0  0  0  0  0
  161.5200  214.4530  146.1200 O   0  0  0  0  0  0  0  0  0  0  0  0
  158.5310  212.6130  152.6940 C   0  0  2  0  0  3  0  0  0  0  0  0
  158.8570  213.3170  155.1010 C   0  0  0  0  0  2  0  0  0  0  0  0
  162.1950  213.6480  148.2620 C   0  0  0  0  0  2  0  0  0  0  0  0
  159.8310  212.5780  148.3670 C   0  0  1  0  0  3  0  0  0  0  0  0
  161.0320  213.5170  145.1950 C   0  0  0  0  0  2  0  0  0  0  0  0
  161.3630  212.3830  148.4690 C   0  0  2  0  0  3  0  0  0  0  0  0
  160.9910  214.4530  150.6240 F   0  0  0  0  0  0  0  0  0  0  0  0
  159.2000  213.3280  149.5580 C   0  0  2  0  0  3  0  0  0  0  0  0
  160.1040  213.4110  150.8130 C   0  0  1  0  0  0  0  0  0  0  0  0
  157.8410  213.0470  153.9900 C   0  0  0  0  0  2  0  0  0  0  0  0
  160.4540  211.6990  154.0590 C   0  0  0  0  0  2  0  0  0  0  0  0
  159.3190  213.1050  147.0130 C   0  0  1  0  0  3  0  0  0  0  0  0
  160.0880  212.4990  145.8440 C   0  0  0  0  0  2  0  0  0  0  0  0
  159.4360  211.4000  152.9490 C   0  0  2  0  0  3  0  0  0  0  0  0
  161.6430  207.7870  153.0370 O   0  0  0  0  0  0  0  0  0  0  0  0
  160.9920  207.0020  153.9920 C   0  0  0  0  0  2  0  0  0  0  0  0
  160.4710  207.8870  155.1040 C   0  0  0  0  0  1  0  0  0  0  0  0
  1  5  1  6  0  0  0
  1  4  1  0  0  0  0
  2 16  1  0  0  0  0
  3 25  1  0  0  0  0
  4 12  1  0  0  0  0
  5 11  1  0  0  0  0
  6 28  1  0  0  0  0
  8  6  1  0  0  0  0
  9 14  1  0  0  0  0
 11  8  2  0  0  0  0
 12  8  1  0  0  0  0
 12 27  1  0  0  0  0
 13  2  1  0  0  0  0
 14 27  1  0  0  0  0
 14 23  1  0  0  0  0
 15  7  1  0  0  0  0
 16 19  1  0  0  0  0
 17 19  1  0  0  0  0
 17 21  1  0  0  0  0
 18 26  1  0  0  0  0
 18 13  1  0  0  0  0
 19  1  1  0  0  0  0
 20 22  1  0  0  0  0
 21 10  1  0  0  0  0
 21 22  1  0  0  0  0
 22  4  1  0  0  0  0
 22  9  1  0  0  0  0
 23 15  1  0  0  0  0
 24  7  1  0  0  0  0
 25 17  1  0  0  0  0
 26 25  1  0  0  0  0
 27 24  1  0  0  0  0
 28 29  1  0  0  0  0
 29 30  1  0  0  0  0
M  END
>  <MODEL>
3

>  <REMARK>
 VINA RESULT:      -4.2      4.192      7.394
  Name = 
  2 active torsions:
  status: ('A' for Active; 'I' for Inactive)
    1  A    between atoms: N_6  and  O_21
    2  A    between atoms: C_9  and  O_21
                            x       y       z     vdW  Elec       q    Type
                         _______ _______ _______ _____ _____    ______ ____

>  <TORSDO>
F 2

$$$$
=
 OpenBabel11052422023D

 30 34  0  0  1  0  0  0  0  0999 V2000
  160.2700  211.2480  154.1990 C   0  0  1  0  0  3  0  0  0  0  0  0
  161.8400  209.5170  157.1370 C   0  0  0  0  0  2  0  0  0  0  0  0
  160.4530  206.2530  153.8500 C   0  0  0  0  0  1  0  0  0  0  0  0
  160.8780  211.3580  152.7650 C   0  0  2  0  0  3  0  0  0  0  0  0
  158.7400  211.3750  154.2350 C   0  0  0  0  0  2  0  0  0  0  0  0
  158.1020  213.1560  151.0270 N   0  0  0  0  0  2  0  0  0  0  0  0
  161.6140  213.2700  148.7740 C   0  0  0  0  0  2  0  0  0  0  0  0
  158.6900  212.2980  152.0100 C   0  0  0  0  0  0  0  0  0  0  0  0
  162.5890  210.5280  151.0610 C   0  0  0  0  0  2  0  0  0  0  0  0
  161.0250  208.2960  151.7010 O   0  0  0  0  0  1  0  0  0  0  0  0
  158.2420  212.3070  153.2280 N   0  0  0  0  0  0  0  0  0  0  0  0
  159.8150  211.3610  151.6480 C   0  0  1  0  0  3  0  0  0  0  0  0
  162.2350  208.1830  156.9950 O   0  0  0  0  0  0  0  0  0  0  0  0
  161.5070  210.5760  149.9750 C   0  0  2  0  0  3  0  0  0  0  0  0
  162.7000  212.2370  148.4870 C   0  0  0  0  0  2  0  0  0  0  0  0
  161.9280  210.2200  155.7920 C   0  0  0  0  0  2  0  0  0  0  0  0
  160.7150  208.7470  154.0300 C   0  0  1  0  0  3  0  0  0  0  0  0
  161.0980  207.4040  157.2610 C   0  0  0  0  0  2  0  0  0  0  0  0
  160.6680  209.9830  154.9620 C   0  0  2  0  0  3  0  0  0  0  0  0
  163.0890  210.7030  153.3220 F   0  0  0  0  0  0  0  0  0  0  0  0
  161.6350  208.9070  152.8010 C   0  0  2  0  0  3  0  0  0  0  0  0
  162.0380  210.3690  152.4890 C   0  0  1  0  0  0  0  0  0  0  0  0
  162.1340  210.8200  148.6000 C   0  0  0  0  0  2  0  0  0  0  0  0
  161.0400  213.0540  150.1690 C   0  0  0  0  0  2  0  0  0  0  0  0
  160.9200  207.3930  154.7360 C   0  0  1  0  0  3  0  0  0  0  0  0
  160.1570  207.3220  156.0540 C   0  0  0  0  0  2  0  0  0  0  0  0
  160.4450  211.6420  150.2770 C   0  0  2  0  0  3  0  0  0  0  0  0
  157.1100  214.0230  151.3440 O   0  0  0  0  0  0  0  0  0  0  0  0
  156.3270  214.1110  150.1920 C   0  0  0  0  0  2  0  0  0  0  0  0
  156.9830  213.3280  149.0740 C   0  0  0  0  0  1  0  0  0  0  0  0
  1  5  1  6  0  0  0
  1 19  1  0  0  0  0
  3 25  1  0  0  0  0
  4  1  1  0  0  0  0
  6 28  1  0  0  0  0
  6  8  1  0  0  0  0
  7 24  1  0  0  0  0
  8 11  2  0  0  0  0
  9 22  1  0  0  0  0
 10 21  1  0  0  0  0
 11  5  1  0  0  0  0
 12  8  1  0  0  0  0
 12  4  1  0  0  0  0
 13  2  1  0  0  0  0
 13 18  1  0  0  0  0
 14 27  1  0  0  0  0
 14  9  1  0  0  0  0
 15 23  1  0  0  0  0
 15  7  1  0  0  0  0
 16  2  1  0  0  0  0
 17 25  1  0  0  0  0
 17 19  1  0  0  0  0
 19 16  1  0  0  0  0
 21 17  1  0  0  0  0
 22  4  1  0  0  0  0
 22 21  1  0  0  0  0
 22 20  1  0  0  0  0
 23 14  1  0  0  0  0
 24 27  1  0  0  0  0
 25 26  1  0  0  0  0
 26 18  1  0  0  0  0
 27 12  1  0  0  0  0
 29 28  1  0  0  0  0
 30 29  1  0  0  0  0
M  END
>  <MODEL>
4

>  <REMARK>
 VINA RESULT:      -3.9      3.648      5.774
  Name = 
  2 active torsions:
  status: ('A' for Active; 'I' for Inactive)
    1  A    between atoms: N_6  and  O_21
    2  A    between atoms: C_9  and  O_21
                            x       y       z     vdW  Elec       q    Type
                         _______ _______ _______ _____ _____    ______ ____

>  <TORSDO>
F 2

$$$$
=
 OpenBabel11052422023D

 30 34  0  0  1  0  0  0  0  0999 V2000
  158.4400  211.3280  138.1330 C   0  0  1  0  0  3  0  0  0  0  0  0
  155.4400  213.2900  137.0180 C   0  0  0  0  0  2  0  0  0  0  0  0
  156.5620  214.4440  141.5780 C   0  0  0  0  0  1  0  0  0  0  0  0
  159.8640  211.9040  138.4080 C   0  0  2  0  0  3  0  0  0  0  0  0
  158.1440  210.0210  138.8850 C   0  0  0  0  0  2  0  0  0  0  0  0
  161.5960  208.8050  139.5750 N   0  0  0  0  0  2  0  0  0  0  0  0
  164.3450  211.7970  138.6170 C   0  0  0  0  0  2  0  0  0  0  0  0
  160.4810  209.6760  139.3560 C   0  0  0  0  0  0  0  0  0  0  0  0
  161.3390  213.9460  138.8300 C   0  0  0  0  0  2  0  0  0  0  0  0
  159.4610  213.9320  140.9070 O   0  0  0  0  0  1  0  0  0  0  0  0
  159.3310  209.1810  139.0150 N   0  0  0  0  0  0  0  0  0  0  0  0
  160.6160  211.1680  139.5350 C   0  0  1  0  0  3  0  0  0  0  0  0
  155.0540  214.4050  137.7680 O   0  0  0  0  0  0  0  0  0  0  0  0
  162.0790  213.1650  139.9230 C   0  0  2  0  0  3  0  0  0  0  0  0
  164.3630  213.3050  138.8480 C   0  0  0  0  0  2  0  0  0  0  0  0
  156.9430  213.0920  137.1380 C   0  0  0  0  0  2  0  0  0  0  0  0
  157.5680  213.1710  139.6580 C   0  0  1  0  0  3  0  0  0  0  0  0
  154.2380  213.9220  138.8030 C   0  0  0  0  0  2  0  0  0  0  0  0
  157.2960  212.3080  138.4010 C   0  0  2  0  0  3  0  0  0  0  0  0
  159.5510  214.0030  137.3480 F   0  0  0  0  0  0  0  0  0  0  0  0
  158.9020  213.9460  139.6260 C   0  0  2  0  0  3  0  0  0  0  0  0
  159.9080  213.4440  138.5610 C   0  0  1  0  0  0  0  0  0  0  0  0
  163.5160  213.6710  140.0680 C   0  0  0  0  0  2  0  0  0  0  0  0
  162.9130  211.3140  138.4150 C   0  0  0  0  0  2  0  0  0  0  0  0
  156.3940  214.0550  140.1210 C   0  0  1  0  0  3  0  0  0  0  0  0
  155.0550  213.3440  139.9630 C   0  0  0  0  0  2  0  0  0  0  0  0
  162.0670  211.6550  139.6500 C   0  0  2  0  0  3  0  0  0  0  0  0
  161.4970  207.4670  139.3900 O   0  0  0  0  0  0  0  0  0  0  0  0
  162.4700  207.1620  138.4370 C   0  0  0  0  0  2  0  0  0  0  0  0
  161.9350  207.4650  137.0540 C   0  0  0  0  0  1  0  0  0  0  0  0
  1 19  1  0  0  0  0
  1  4  1  0  0  0  0
  1  5  1  1  0  0  0
  2 16  1  0  0  0  0
  2 13  1  0  0  0  0
  4 22  1  0  0  0  0
  4 12  1  0  0  0  0
  5 11  1  0  0  0  0
  7 15  1  0  0  0  0
  8 12  1  0  0  0  0
  8  6  1  0  0  0  0
  9 14  1  0  0  0  0
 11  8  2  0  0  0  0
 12 27  1  0  0  0  0
 13 18  1  0  0  0  0
 14 23  1  0  0  0  0
 15 23  1  0  0  0  0
 16 19  1  0  0  0  0
 17 25  1  0  0  0  0
 18 26  1  0  0  0  0
 19 17  1  0  0  0  0
 20 22  1  0  0  0  0
 21 17  1  0  0  0  0
 21 10  1  0  0  0  0
 22  9  1  0  0  0  0
 22 21  1  0  0  0  0
 24  7  1  0  0  0  0
 24 27  1  0  0  0  0
 25  3  1  0  0  0  0
 26 25  1  0  0  0  0
 27 14  1  0  0  0  0
 28  6  1  0  0  0  0
 29 28  1  0  0  0  0
 30 29  1  0  0  0  0
M  END
>  <MODEL>
5

>  <REMARK>
 VINA RESULT:      -3.8     13.586     14.970
  Name = 
  2 active torsions:
  status: ('A' for Active; 'I' for Inactive)
    1  A    between atoms: N_6  and  O_21
    2  A    between atoms: C_9  and  O_21
                            x       y       z     vdW  Elec       q    Type
                         _______ _______ _______ _____ _____    ______ ____

>  <TORSDO>
F 2

$$$$
=
 OpenBabel11052422023D

 30 34  0  0  1  0  0  0  0  0999 V2000
  160.5530  209.8200  152.7810 C   0  0  1  0  0  3  0  0  0  0  0  0
  160.7370  207.3520  155.6040 C   0  0  0  0  0  2  0  0  0  0  0  0
  161.5740  211.8180  157.2610 C   0  0  0  0  0  1  0  0  0  0  0  0
  159.4390  210.8940  152.5700 C   0  0  2  0  0  3  0  0  0  0  0  0
  161.8890  210.1730  152.1120 C   0  0  0  0  0  2  0  0  0  0  0  0
  160.7630  212.6030  149.5230 N   0  0  0  0  0  2  0  0  0  0  0  0
  156.7620  213.5920  150.1860 C   0  0  0  0  0  2  0  0  0  0  0  0
  160.8430  211.8570  150.7420 C   0  0  0  0  0  0  0  0  0  0  0  0
  157.4910  212.2250  153.5480 C   0  0  0  0  0  2  0  0  0  0  0  0
  159.7100  212.8690  155.1300 O   0  0  0  0  0  1  0  0  0  0  0  0
  161.7010  210.8900  150.8530 N   0  0  0  0  0  0  0  0  0  0  0  0
  159.9540  212.1900  151.9140 C   0  0  1  0  0  3  0  0  0  0  0  0
  160.6840  207.8320  156.9160 O   0  0  0  0  0  0  0  0  0  0  0  0
  158.0240  213.4840  152.8520 C   0  0  2  0  0  3  0  0  0  0  0  0
  155.9630  213.9030  151.4480 C   0  0  0  0  0  2  0  0  0  0  0  0
  159.9610  208.2860  154.6890 C   0  0  0  0  0  2  0  0  0  0  0  0
  160.7530  210.7150  155.1560 C   0  0  1  0  0  3  0  0  0  0  0  0
  161.9980  208.1850  157.2610 C   0  0  0  0  0  2  0  0  0  0  0  0
  160.8240  209.4660  154.2440 C   0  0  2  0  0  3  0  0  0  0  0  0
  157.8640  210.0010  154.1040 F   0  0  0  0  0  0  0  0  0  0  0  0
  159.4280  211.5010  155.0630 C   0  0  2  0  0  3  0  0  0  0  0  0
  158.5670  211.1580  153.8220 C   0  0  1  0  0  0  0  0  0  0  0  0
  156.8810  214.4530  152.5410 C   0  0  0  0  0  2  0  0  0  0  0  0
  157.8600  212.5800  150.4960 C   0  0  0  0  0  2  0  0  0  0  0  0
  161.1970  210.4980  156.6150 C   0  0  1  0  0  3  0  0  0  0  0  0
  162.3940  209.5570  156.7060 C   0  0  0  0  0  2  0  0  0  0  0  0
  158.8000  213.1420  151.5730 C   0  0  2  0  0  3  0  0  0  0  0  0
  161.5350  212.2960  148.4520 O   0  0  0  0  0  0  0  0  0  0  0  0
  160.7160  212.5180  147.3430 C   0  0  0  0  0  2  0  0  0  0  0  0
  159.7640  213.6570  147.6380 C   0  0  0  0  0  1  0  0  0  0  0  0
  1  5  1  1  0  0  0
  1 19  1  0  0  0  0
  2 13  1  0  0  0  0
  4  1  1  0  0  0  0
  4 22  1  0  0  0  0
  6  8  1  0  0  0  0
  7 24  1  0  0  0  0
  7 15  1  0  0  0  0
  8 11  2  0  0  0  0
  8 12  1  0  0  0  0
  9 22  1  0  0  0  0
 11  5  1  0  0  0  0
 12  4  1  0  0  0  0
 13 18  1  0  0  0  0
 14  9  1  0  0  0  0
 15 23  1  0  0  0  0
 16  2  1  0  0  0  0
 17 25  1  0  0  0  0
 19 16  1  0  0  0  0
 19 17  1  0  0  0  0
 21 10  1  0  0  0  0
 21 17  1  0  0  0  0
 22 20  1  0  0  0  0
 22 21  1  0  0  0  0
 23 14  1  0  0  0  0
 24 27  1  0  0  0  0
 25 26  1  0  0  0  0
 25  3  1  0  0  0  0
 26 18  1  0  0  0  0
 27 12  1  0  0  0  0
 27 14  1  0  0  0  0
 28  6  1  0  0  0  0
 29 30  1  0  0  0  0
 29 28  1  0  0  0  0
M  END
>  <MODEL>
6

>  <REMARK>
 VINA RESULT:      -3.4      3.775      6.095
  Name = 
  2 active torsions:
  status: ('A' for Active; 'I' for Inactive)
    1  A    between atoms: N_6  and  O_21
    2  A    between atoms: C_9  and  O_21
                            x       y       z     vdW  Elec       q    Type
                         _______ _______ _______ _____ _____    ______ ____

>  <TORSDO>
F 2

$$$$
