=
 OpenBabel11052422443D

 31 34  0  0  1  0  0  0  0  0999 V2000
  162.0890  202.3740  151.5480 C   0  0  0  0  0  0  0  0  0  0  0  0
  160.9350  206.0220  151.2780 C   0  0  0  0  0  0  0  0  0  0  0  0
  160.9790  206.8400  152.4240 C   0  0  0  0  0  0  0  0  0  0  0  0
  160.5520  207.3100  154.8510 C   0  0  0  0  0  2  0  0  0  0  0  0
  160.7460  204.5330  151.4220 C   0  0  2  0  0  3  0  0  0  0  0  0
  161.1290  201.7400  150.8680 C   0  0  0  0  0  3  0  0  0  0  0  0
  160.8470  206.2420  153.8030 C   0  0  0  0  0  2  0  0  0  0  0  0
  160.9680  205.7930  148.7180 C   0  0  1  0  0  3  0  0  0  0  0  0
  163.1550  201.6380  152.0470 O   0  0  0  0  0  1  0  0  0  0  0  0
  161.3250  208.7560  151.0280 N   0  0  0  0  0  0  0  0  0  0  0  0
  161.5050  208.4060  154.7070 N   0  0  0  0  0  2  0  0  0  0  0  0
  160.9220  204.2810  148.9420 C   0  0  0  0  0  2  0  0  0  0  0  0
  161.1100  206.6030  149.9980 C   0  0  0  0  0  0  0  0  0  0  0  0
  162.0980  203.8680  151.7260 C   0  0  0  0  0  2  0  0  0  0  0  0
  162.1350  210.2220  153.3100 N   0  0  0  0  0  1  0  0  0  0  0  0
  160.0930  203.9410  150.1720 C   0  0  1  0  0  3  0  0  0  0  0  0
  159.9090  202.4320  150.3260 C   0  0  0  0  0  2  0  0  0  0  0  0
  161.2780  207.9890  149.9100 C   0  0  0  0  0  3  0  0  0  0  0  0
  161.2110  208.2220  152.2730 C   0  0  0  0  0  0  0  0  0  0  0  0
  161.1870  209.1330  153.4780 C   0  0  1  0  0  3  0  0  0  0  0  0
  162.0850  206.0890  147.7290 C   0  0  0  0  0  2  0  0  0  0  0  0
  161.5660  206.0660  146.3630 N   0  0  0  0  0  2  0  0  0  0  0  0
  162.7780  205.7910  144.2890 C   0  0  0  0  0  1  0  0  0  0  0  0
  163.4950  204.5490  146.2830 C   0  0  0  0  0  1  0  0  0  0  0  0
  162.2760  205.0810  145.5370 C   0  0  0  0  0  0  0  0  0  0  0  0
  160.1070  204.3840  144.6980 O   0  0  0  0  0  1  0  0  0  0  0  0
  161.3490  203.9150  145.1400 C   0  0  2  0  0  3  0  0  0  0  0  0
  161.1620  202.9950  146.2560 N   0  0  0  0  0  2  0  0  0  0  0  0
  160.7620  201.6370  146.0710 C   0  0  0  0  0  0  0  0  0  0  0  0
  161.2150  200.5080  147.1580 S   0  0  0  0  0  0  0  0  0  0  0  0
  160.0050  201.2510  144.9280 N   0  0  0  0  0  1  0  0  0  0  0  0
  1 14  1  0  0  0  0
  1  9  1  0  0  0  0
  2  5  1  0  0  0  0
  2  3  1  0  0  0  0
  3  7  1  0  0  0  0
  5 14  1  6  0  0  0
  6  1  2  0  0  0  0
  7  4  1  0  0  0  0
  8 21  1  6  0  0  0
  8 12  1  0  0  0  0
  8 13  1  0  0  0  0
 10 19  1  0  0  0  0
 11  4  1  0  0  0  0
 13  2  2  0  0  0  0
 16 12  1  6  0  0  0
 16 17  1  0  0  0  0
 16  5  1  0  0  0  0
 17  6  1  0  0  0  0
 18 13  1  0  0  0  0
 18 10  2  0  0  0  0
 19  3  2  0  0  0  0
 19 20  1  0  0  0  0
 20 15  1  6  0  0  0
 20 11  1  0  0  0  0
 22 21  1  0  0  0  0
 23 25  1  0  0  0  0
 25 24  1  0  0  0  0
 25 22  1  0  0  0  0
 27 26  1  1  0  0  0
 27 25  1  0  0  0  0
 27 28  1  0  0  0  0
 29 28  1  0  0  0  0
 29 30  2  0  0  0  0
 31 29  1  0  0  0  0
M  END
>  <MODEL>
1

>  <REMARK>
 VINA RESULT:      -7.2      0.000      0.000
  Name = 
  6 active torsions:
  status: ('A' for Active; 'I' for Inactive)
    1  A    between atoms: C_1  and  N_24
    2  A    between atoms: N_9  and  C_22
    3  A    between atoms: N_9  and  C_23
    4  A    between atoms: C_15  and  C_23
    5  A    between atoms: C_19  and  C_22
    6  A    between atoms: C_19  and  N_24
                            x       y       z     vdW  Elec       q    Type
                         _______ _______ _______ _____ _____    ______ ____

>  <TORSDO>
F 6

$$$$
=
 OpenBabel11052422443D

 31 34  0  0  1  0  0  0  0  0999 V2000
  159.9820  210.0920  153.7870 C   0  0  0  0  0  0  0  0  0  0  0  0
  161.6650  207.8750  151.1470 C   0  0  0  0  0  0  0  0  0  0  0  0
  161.4170  206.4880  151.1600 C   0  0  0  0  0  0  0  0  0  0  0  0
  161.2060  204.2660  152.3030 C   0  0  0  0  0  2  0  0  0  0  0  0
  161.5950  208.6630  152.4310 C   0  0  2  0  0  3  0  0  0  0  0  0
  160.9960  210.8790  154.1590 C   0  0  0  0  0  3  0  0  0  0  0  0
  161.0700  205.7790  152.4450 C   0  0  0  0  0  2  0  0  0  0  0  0
  162.3210  209.9970  149.8540 C   0  0  1  0  0  3  0  0  0  0  0  0
  158.7270  210.3090  154.3370 O   0  0  0  0  0  1  0  0  0  0  0  0
  161.7480  206.4220  148.7880 N   0  0  0  0  0  0  0  0  0  0  0  0
  160.4960  203.8260  151.1080 N   0  0  0  0  0  2  0  0  0  0  0  0
  162.0890  210.7570  151.1590 C   0  0  0  0  0  2  0  0  0  0  0  0
  161.9410  208.5250  149.9200 C   0  0  0  0  0  0  0  0  0  0  0  0
  160.1330  209.0270  152.7340 C   0  0  0  0  0  2  0  0  0  0  0  0
  160.5440  203.8600  148.7320 N   0  0  0  0  0  1  0  0  0  0  0  0
  162.4830  209.9070  152.3580 C   0  0  1  0  0  3  0  0  0  0  0  0
  162.4030  210.7010  153.6610 C   0  0  0  0  0  2  0  0  0  0  0  0
  162.0000  207.7540  148.7530 C   0  0  0  0  0  3  0  0  0  0  0  0
  161.4320  205.7780  149.9420 C   0  0  0  0  0  0  0  0  0  0  0  0
  161.2440  204.2780  149.9350 C   0  0  1  0  0  3  0  0  0  0  0  0
  161.5800  210.7280  148.7440 C   0  0  0  0  0  2  0  0  0  0  0  0
  162.4210  211.7870  148.1910 N   0  0  0  0  0  2  0  0  0  0  0  0
  161.3390  213.8420  148.8620 C   0  0  0  0  0  1  0  0  0  0  0  0
  162.3940  213.6970  146.6490 C   0  0  0  0  0  1  0  0  0  0  0  0
  161.6130  212.9080  147.6940 C   0  0  0  0  0  0  0  0  0  0  0  0
  160.3960  212.1930  145.7190 O   0  0  0  0  0  1  0  0  0  0  0  0
  160.2820  212.4130  147.0960 C   0  0  2  0  0  3  0  0  0  0  0  0
  159.2060  213.3620  147.3580 N   0  0  0  0  0  2  0  0  0  0  0  0
  157.8500  212.9540  147.5380 C   0  0  0  0  0  0  0  0  0  0  0  0
  157.1240  213.1810  148.9810 S   0  0  0  0  0  0  0  0  0  0  0  0
  157.1360  212.3160  146.4820 N   0  0  0  0  0  1  0  0  0  0  0  0
  1  6  2  0  0  0  0
  1  9  1  0  0  0  0
  2  3  1  0  0  0  0
  2  5  1  0  0  0  0
  3  7  1  0  0  0  0
  4  7  1  0  0  0  0
  5 14  1  6  0  0  0
  8 21  1  6  0  0  0
  8 13  1  0  0  0  0
  8 12  1  0  0  0  0
 10 19  1  0  0  0  0
 11  4  1  0  0  0  0
 13  2  2  0  0  0  0
 14  1  1  0  0  0  0
 16 12  1  6  0  0  0
 16  5  1  0  0  0  0
 16 17  1  0  0  0  0
 17  6  1  0  0  0  0
 18 10  2  0  0  0  0
 18 13  1  0  0  0  0
 19  3  2  0  0  0  0
 20 15  1  6  0  0  0
 20 19  1  0  0  0  0
 20 11  1  0  0  0  0
 22 21  1  0  0  0  0
 24 25  1  0  0  0  0
 25 22  1  0  0  0  0
 25 23  1  0  0  0  0
 27 26  1  6  0  0  0
 27 28  1  0  0  0  0
 27 25  1  0  0  0  0
 28 29  1  0  0  0  0
 29 30  2  0  0  0  0
 31 29  1  0  0  0  0
M  END
>  <MODEL>
2

>  <REMARK>
 VINA RESULT:      -6.4      4.805      7.417
  Name = 
  6 active torsions:
  status: ('A' for Active; 'I' for Inactive)
    1  A    between atoms: C_1  and  N_24
    2  A    between atoms: N_9  and  C_22
    3  A    between atoms: N_9  and  C_23
    4  A    between atoms: C_15  and  C_23
    5  A    between atoms: C_19  and  C_22
    6  A    between atoms: C_19  and  N_24
                            x       y       z     vdW  Elec       q    Type
                         _______ _______ _______ _____ _____    ______ ____

>  <TORSDO>
F 6

$$$$
=
 OpenBabel11052422443D

 31 34  0  0  1  0  0  0  0  0999 V2000
  160.2850  212.8500  149.1720 C   0  0  0  0  0  0  0  0  0  0  0  0
  161.6540  209.9850  151.3240 C   0  0  0  0  0  0  0  0  0  0  0  0
  161.3360  209.9480  152.6960 C   0  0  0  0  0  0  0  0  0  0  0  0
  161.0970  210.9930  154.9630 C   0  0  0  0  0  2  0  0  0  0  0  0
  161.7190  211.3070  150.6020 C   0  0  2  0  0  3  0  0  0  0  0  0
  161.3620  213.1820  148.4550 C   0  0  0  0  0  3  0  0  0  0  0  0
  161.0490  211.2190  153.4550 C   0  0  0  0  0  2  0  0  0  0  0  0
  162.3210  208.7510  149.1700 C   0  0  1  0  0  3  0  0  0  0  0  0
  159.0860  213.5040  148.9250 O   0  0  0  0  0  1  0  0  0  0  0  0
  161.4890  207.5570  152.6530 N   0  0  0  0  0  0  0  0  0  0  0  0
  160.2780  209.8350  155.3060 N   0  0  0  0  0  2  0  0  0  0  0  0
  162.2250  210.1050  148.4700 C   0  0  0  0  0  2  0  0  0  0  0  0
  161.8710  208.7730  150.6240 C   0  0  0  0  0  0  0  0  0  0  0  0
  160.3040  211.7380  150.1860 C   0  0  0  0  0  2  0  0  0  0  0  0
  160.1540  207.4670  155.1470 N   0  0  0  0  0  1  0  0  0  0  0  0
  162.6620  211.2280  149.4000 C   0  0  1  0  0  3  0  0  0  0  0  0
  162.7180  212.5710  148.6730 C   0  0  0  0  0  2  0  0  0  0  0  0
  161.8050  207.5690  151.3340 C   0  0  0  0  0  3  0  0  0  0  0  0
  161.2260  208.6990  153.3410 C   0  0  0  0  0  0  0  0  0  0  0  0
  160.9610  208.6320  154.8280 C   0  0  1  0  0  3  0  0  0  0  0  0
  161.5380  207.7380  148.3470 C   0  0  0  0  0  2  0  0  0  0  0  0
  162.4410  206.7240  147.8060 N   0  0  0  0  0  2  0  0  0  0  0  0
  160.3000  206.2630  146.7840 C   0  0  0  0  0  1  0  0  0  0  0  0
  162.3620  205.6750  145.5890 C   0  0  0  0  0  1  0  0  0  0  0  0
  161.7210  205.7570  146.9690 C   0  0  0  0  0  0  0  0  0  0  0  0
  161.3560  203.3720  146.6980 O   0  0  0  0  0  1  0  0  0  0  0  0
  161.6990  204.3620  147.6250 C   0  0  2  0  0  3  0  0  0  0  0  0
  160.7730  204.3290  148.7510 N   0  0  0  0  0  2  0  0  0  0  0  0
  160.9190  203.4130  149.8370 C   0  0  0  0  0  0  0  0  0  0  0  0
  160.5080  201.8480  149.6320 S   0  0  0  0  0  0  0  0  0  0  0  0
  161.3840  203.8590  151.1070 N   0  0  0  0  0  1  0  0  0  0  0  0
  1 14  1  0  0  0  0
  2  3  1  0  0  0  0
  3 19  2  0  0  0  0
  3  7  1  0  0  0  0
  4 11  1  0  0  0  0
  5 14  1  6  0  0  0
  5  2  1  0  0  0  0
  6 17  1  0  0  0  0
  6  1  2  0  0  0  0
  7  4  1  0  0  0  0
  8 21  1  6  0  0  0
  8 13  1  0  0  0  0
  9  1  1  0  0  0  0
 10 19  1  0  0  0  0
 12  8  1  0  0  0  0
 13  2  2  0  0  0  0
 13 18  1  0  0  0  0
 16 12  1  6  0  0  0
 16  5  1  0  0  0  0
 17 16  1  0  0  0  0
 18 10  2  0  0  0  0
 19 20  1  0  0  0  0
 20 15  1  6  0  0  0
 20 11  1  0  0  0  0
 22 21  1  0  0  0  0
 23 25  1  0  0  0  0
 24 25  1  0  0  0  0
 25 27  1  0  0  0  0
 25 22  1  0  0  0  0
 27 26  1  6  0  0  0
 27 28  1  0  0  0  0
 28 29  1  0  0  0  0
 29 31  1  0  0  0  0
 30 29  2  0  0  0  0
M  END
>  <MODEL>
3

>  <REMARK>
 VINA RESULT:      -5.9      3.230      5.612
  Name = 
  6 active torsions:
  status: ('A' for Active; 'I' for Inactive)
    1  A    between atoms: C_1  and  N_24
    2  A    between atoms: N_9  and  C_22
    3  A    between atoms: N_9  and  C_23
    4  A    between atoms: C_15  and  C_23
    5  A    between atoms: C_19  and  C_22
    6  A    between atoms: C_19  and  N_24
                            x       y       z     vdW  Elec       q    Type
                         _______ _______ _______ _____ _____    ______ ____

>  <TORSDO>
F 6

$$$$
=
 OpenBabel11052422443D

 31 34  0  0  1  0  0  0  0  0999 V2000
  160.8720  206.1510  145.7380 C   0  0  0  0  0  0  0  0  0  0  0  0
  161.8430  207.0160  149.3460 C   0  0  0  0  0  0  0  0  0  0  0  0
  161.7930  208.3600  149.7640 C   0  0  0  0  0  0  0  0  0  0  0  0
  162.2630  210.8080  149.4820 C   0  0  0  0  0  2  0  0  0  0  0  0
  162.1060  206.6880  147.8980 C   0  0  2  0  0  3  0  0  0  0  0  0
  161.8420  205.2970  145.3980 C   0  0  0  0  0  3  0  0  0  0  0  0
  161.9900  209.4830  148.7760 C   0  0  0  0  0  2  0  0  0  0  0  0
  161.7520  204.5120  149.9200 C   0  0  1  0  0  3  0  0  0  0  0  0
  159.8560  206.4080  144.8280 O   0  0  0  0  0  1  0  0  0  0  0  0
  161.3180  207.6330  151.9970 N   0  0  0  0  0  0  0  0  0  0  0  0
  161.2560  211.0230  150.5150 N   0  0  0  0  0  2  0  0  0  0  0  0
  161.8750  204.2540  148.4180 C   0  0  0  0  0  2  0  0  0  0  0  0
  161.6070  205.9820  150.2850 C   0  0  0  0  0  0  0  0  0  0  0  0
  160.7970  206.7850  147.1000 C   0  0  0  0  0  2  0  0  0  0  0  0
  160.5020  210.2670  152.6380 N   0  0  0  0  0  1  0  0  0  0  0  0
  162.7520  205.3080  147.7590 C   0  0  1  0  0  3  0  0  0  0  0  0
  163.0120  204.9830  146.2880 C   0  0  0  0  0  2  0  0  0  0  0  0
  161.3700  206.3320  151.6190 C   0  0  0  0  0  3  0  0  0  0  0  0
  161.4910  208.6490  151.1110 C   0  0  0  0  0  0  0  0  0  0  0  0
  161.5050  210.0780  151.6040 C   0  0  1  0  0  3  0  0  0  0  0  0
  160.5950  203.6770  150.4480 C   0  0  0  0  0  2  0  0  0  0  0  0
  159.9760  202.9270  149.3570 N   0  0  0  0  0  2  0  0  0  0  0  0
  161.0020  201.2580  150.7740 C   0  0  0  0  0  1  0  0  0  0  0  0
  158.7850  200.8290  149.8080 C   0  0  0  0  0  1  0  0  0  0  0  0
  160.1380  201.4790  149.5430 C   0  0  0  0  0  0  0  0  0  0  0  0
  162.1460  200.5300  148.5630 O   0  0  0  0  0  1  0  0  0  0  0  0
  160.8030  200.8320  148.3120 C   0  0  2  0  0  3  0  0  0  0  0  0
  160.7010  201.7010  147.1460 N   0  0  0  0  0  2  0  0  0  0  0  0
  160.4890  201.1940  145.8280 C   0  0  0  0  0  0  0  0  0  0  0  0
  159.7850  202.1420  144.7030 S   0  0  0  0  0  0  0  0  0  0  0  0
  160.8520  199.8570  145.4950 N   0  0  0  0  0  1  0  0  0  0  0  0
  1 14  1  0  0  0  0
  2  3  2  0  0  0  0
  2 13  1  0  0  0  0
  3 19  1  0  0  0  0
  4 11  1  0  0  0  0
  5 14  1  6  0  0  0
  5  2  1  0  0  0  0
  6  1  2  0  0  0  0
  6 17  1  0  0  0  0
  7  4  1  0  0  0  0
  7  3  1  0  0  0  0
  8 13  1  0  0  0  0
  8 21  1  6  0  0  0
  9  1  1  0  0  0  0
 11 20  1  0  0  0  0
 12  8  1  0  0  0  0
 13 18  2  0  0  0  0
 16 17  1  6  0  0  0
 16  5  1  0  0  0  0
 16 12  1  0  0  0  0
 18 10  1  0  0  0  0
 19 20  1  0  0  0  0
 19 10  2  0  0  0  0
 20 15  1  1  0  0  0
 22 25  1  0  0  0  0
 22 21  1  0  0  0  0
 25 24  1  0  0  0  0
 25 23  1  0  0  0  0
 27 26  1  1  0  0  0
 27 25  1  0  0  0  0
 28 27  1  0  0  0  0
 29 28  1  0  0  0  0
 30 29  2  0  0  0  0
 31 29  1  0  0  0  0
M  END
>  <MODEL>
4

>  <REMARK>
 VINA RESULT:      -5.9      1.927      4.666
  Name = 
  6 active torsions:
  status: ('A' for Active; 'I' for Inactive)
    1  A    between atoms: C_1  and  N_24
    2  A    between atoms: N_9  and  C_22
    3  A    between atoms: N_9  and  C_23
    4  A    between atoms: C_15  and  C_23
    5  A    between atoms: C_19  and  C_22
    6  A    between atoms: C_19  and  N_24
                            x       y       z     vdW  Elec       q    Type
                         _______ _______ _______ _____ _____    ______ ____

>  <TORSDO>
F 6

$$$$
=
 OpenBabel11052422443D

 31 34  0  0  1  0  0  0  0  0999 V2000
  162.7390  204.6120  145.6180 C   0  0  0  0  0  0  0  0  0  0  0  0
  160.9930  205.5780  148.8940 C   0  0  0  0  0  0  0  0  0  0  0  0
  160.9180  204.6310  149.9340 C   0  0  0  0  0  0  0  0  0  0  0  0
  160.4530  202.3380  150.8380 C   0  0  0  0  0  2  0  0  0  0  0  0
  161.0560  205.1180  147.4590 C   0  0  2  0  0  3  0  0  0  0  0  0
  161.8880  205.0960  144.7090 C   0  0  0  0  0  3  0  0  0  0  0  0
  160.9070  203.1530  149.6300 C   0  0  0  0  0  2  0  0  0  0  0  0
  161.0270  208.0330  148.1310 C   0  0  1  0  0  3  0  0  0  0  0  0
  163.9190  204.0240  145.1850 O   0  0  0  0  0  1  0  0  0  0  0  0
  160.9220  206.4110  151.5370 N   0  0  0  0  0  0  0  0  0  0  0  0
  161.2100  202.7530  152.0140 N   0  0  0  0  0  2  0  0  0  0  0  0
  161.2360  207.4970  146.7150 C   0  0  0  0  0  2  0  0  0  0  0  0
  161.0510  206.9580  149.2080 C   0  0  0  0  0  0  0  0  0  0  0  0
  162.5030  204.7490  147.0980 C   0  0  0  0  0  2  0  0  0  0  0  0
  161.5110  204.5270  153.5660 N   0  0  0  0  0  1  0  0  0  0  0  0
  160.4920  206.1840  146.5180 C   0  0  1  0  0  3  0  0  0  0  0  0
  160.5630  205.7100  145.0670 C   0  0  0  0  0  2  0  0  0  0  0  0
  160.9860  207.3410  150.5520 C   0  0  0  0  0  3  0  0  0  0  0  0
  160.9160  205.0780  151.2710 C   0  0  0  0  0  0  0  0  0  0  0  0
  160.7590  204.0890  152.4030 C   0  0  1  0  0  3  0  0  0  0  0  0
  162.0650  209.1160  148.3830 C   0  0  0  0  0  2  0  0  0  0  0  0
  161.5810  210.4020  147.8860 N   0  0  0  0  0  2  0  0  0  0  0  0
  162.1630  211.0480  150.1420 C   0  0  0  0  0  1  0  0  0  0  0  0
  163.5030  211.8820  148.2610 C   0  0  0  0  0  1  0  0  0  0  0  0
  162.0890  211.5150  148.6970 C   0  0  0  0  0  0  0  0  0  0  0  0
  160.4580  212.9520  149.7780 O   0  0  0  0  0  1  0  0  0  0  0  0
  161.1680  212.7470  148.5910 C   0  0  2  0  0  3  0  0  0  0  0  0
  160.2380  212.6070  147.4760 N   0  0  0  0  0  2  0  0  0  0  0  0
  160.5370  213.0840  146.1640 C   0  0  0  0  0  0  0  0  0  0  0  0
  159.7100  212.4980  144.8850 S   0  0  0  0  0  0  0  0  0  0  0  0
  161.5750  214.0370  145.9550 N   0  0  0  0  0  1  0  0  0  0  0  0
  1 14  1  0  0  0  0
  2 13  2  0  0  0  0
  2  3  1  0  0  0  0
  3 19  2  0  0  0  0
  4 11  1  0  0  0  0
  5 14  1  6  0  0  0
  5  2  1  0  0  0  0
  6 17  1  0  0  0  0
  6  1  2  0  0  0  0
  7  3  1  0  0  0  0
  7  4  1  0  0  0  0
  8 21  1  1  0  0  0
  8 13  1  0  0  0  0
  9  1  1  0  0  0  0
 11 20  1  0  0  0  0
 12  8  1  0  0  0  0
 13 18  1  0  0  0  0
 16 17  1  6  0  0  0
 16 12  1  0  0  0  0
 16  5  1  0  0  0  0
 18 10  2  0  0  0  0
 19 10  1  0  0  0  0
 19 20  1  0  0  0  0
 20 15  1  1  0  0  0
 22 21  1  0  0  0  0
 22 25  1  0  0  0  0
 24 25  1  0  0  0  0
 25 23  1  0  0  0  0
 27 25  1  0  0  0  0
 27 26  1  1  0  0  0
 28 27  1  0  0  0  0
 29 28  1  0  0  0  0
 30 29  2  0  0  0  0
 31 29  1  0  0  0  0
M  END
>  <MODEL>
5

>  <REMARK>
 VINA RESULT:      -5.7      4.245      6.716
  Name = 
  6 active torsions:
  status: ('A' for Active; 'I' for Inactive)
    1  A    between atoms: C_1  and  N_24
    2  A    between atoms: N_9  and  C_22
    3  A    between atoms: N_9  and  C_23
    4  A    between atoms: C_15  and  C_23
    5  A    between atoms: C_19  and  C_22
    6  A    between atoms: C_19  and  N_24
                            x       y       z     vdW  Elec       q    Type
                         _______ _______ _______ _____ _____    ______ ____

>  <TORSDO>
F 6

$$$$
=
 OpenBabel11052422443D

 31 34  0  0  1  0  0  0  0  0999 V2000
  162.6920  210.1250  156.8520 C   0  0  0  0  0  0  0  0  0  0  0  0
  159.6390  210.6490  154.5890 C   0  0  0  0  0  0  0  0  0  0  0  0
  158.9060  211.8470  154.6950 C   0  0  0  0  0  0  0  0  0  0  0  0
  157.7380  213.6440  155.9990 C   0  0  0  0  0  2  0  0  0  0  0  0
  160.3800  210.1100  155.7870 C   0  0  2  0  0  3  0  0  0  0  0  0
  162.5130  208.8630  157.2520 C   0  0  0  0  0  3  0  0  0  0  0  0
  158.8590  212.6080  155.9970 C   0  0  0  0  0  2  0  0  0  0  0  0
  160.3920  208.6290  153.1880 C   0  0  1  0  0  3  0  0  0  0  0  0
  163.8340  210.8020  157.2570 O   0  0  0  0  0  1  0  0  0  0  0  0
  158.3090  211.6720  152.3820 N   0  0  0  0  0  0  0  0  0  0  0  0
  157.8160  214.4440  154.7820 N   0  0  0  0  0  2  0  0  0  0  0  0
  161.2360  208.2190  154.3950 C   0  0  0  0  0  2  0  0  0  0  0  0
  159.7070  209.9790  153.3430 C   0  0  0  0  0  0  0  0  0  0  0  0
  161.7380  210.8160  155.9140 C   0  0  0  0  0  2  0  0  0  0  0  0
  157.4950  214.3820  152.4280 N   0  0  0  0  0  1  0  0  0  0  0  0
  160.5380  208.5910  155.6950 C   0  0  1  0  0  3  0  0  0  0  0  0
  161.2920  208.0560  156.9120 C   0  0  0  0  0  2  0  0  0  0  0  0
  159.0010  210.5120  152.2580 C   0  0  0  0  0  3  0  0  0  0  0  0
  158.2660  212.3640  153.5500 C   0  0  0  0  0  0  0  0  0  0  0  0
  157.4110  213.6060  153.6530 C   0  0  1  0  0  3  0  0  0  0  0  0
  161.2790  208.5780  151.9540 C   0  0  0  0  0  2  0  0  0  0  0  0
  160.6440  207.7740  150.9110 N   0  0  0  0  0  2  0  0  0  0  0  0
  162.8720  207.7130  149.9750 C   0  0  0  0  0  1  0  0  0  0  0  0
  162.0020  205.7450  151.1580 C   0  0  0  0  0  1  0  0  0  0  0  0
  161.6160  206.9000  150.2420 C   0  0  0  0  0  0  0  0  0  0  0  0
  160.6100  205.0360  149.0550 O   0  0  0  0  0  1  0  0  0  0  0  0
  161.0520  206.3560  148.9140 C   0  0  2  0  0  3  0  0  0  0  0  0
  162.0500  206.4320  147.8530 N   0  0  0  0  0  2  0  0  0  0  0  0
  161.8320  205.8790  146.5550 C   0  0  0  0  0  0  0  0  0  0  0  0
  160.4760  206.2620  145.7330 S   0  0  0  0  0  0  0  0  0  0  0  0
  162.7680  204.9690  145.9850 N   0  0  0  0  0  1  0  0  0  0  0  0
  1  6  2  0  0  0  0
  1  9  1  0  0  0  0
  2  3  1  0  0  0  0
  2  5  1  0  0  0  0
  3  7  1  0  0  0  0
  5 14  1  6  0  0  0
  7  4  1  0  0  0  0
  8 21  1  6  0  0  0
  8 13  1  0  0  0  0
  8 12  1  0  0  0  0
 10 19  1  0  0  0  0
 11  4  1  0  0  0  0
 13  2  2  0  0  0  0
 14  1  1  0  0  0  0
 16 12  1  6  0  0  0
 16  5  1  0  0  0  0
 16 17  1  0  0  0  0
 17  6  1  0  0  0  0
 18 10  2  0  0  0  0
 18 13  1  0  0  0  0
 19 20  1  0  0  0  0
 19  3  2  0  0  0  0
 20 15  1  6  0  0  0
 20 11  1  0  0  0  0
 22 21  1  0  0  0  0
 23 25  1  0  0  0  0
 25 22  1  0  0  0  0
 25 24  1  0  0  0  0
 27 26  1  1  0  0  0
 27 25  1  0  0  0  0
 28 27  1  0  0  0  0
 29 28  1  0  0  0  0
 30 29  2  0  0  0  0
 31 29  1  0  0  0  0
M  END
>  <MODEL>
6

>  <REMARK>
 VINA RESULT:      -5.1      3.917      6.385
  Name = 
  6 active torsions:
  status: ('A' for Active; 'I' for Inactive)
    1  A    between atoms: C_1  and  N_24
    2  A    between atoms: N_9  and  C_22
    3  A    between atoms: N_9  and  C_23
    4  A    between atoms: C_15  and  C_23
    5  A    between atoms: C_19  and  C_22
    6  A    between atoms: C_19  and  N_24
                            x       y       z     vdW  Elec       q    Type
                         _______ _______ _______ _____ _____    ______ ____

>  <TORSDO>
F 6

$$$$
=
 OpenBabel11052422443D

 31 34  0  0  1  0  0  0  0  0999 V2000
  162.3870  205.0860  145.1710 C   0  0  0  0  0  0  0  0  0  0  0  0
  161.0010  204.7490  148.7320 C   0  0  0  0  0  0  0  0  0  0  0  0
  160.9530  203.4750  149.3300 C   0  0  0  0  0  0  0  0  0  0  0  0
  160.4190  201.0240  149.3270 C   0  0  0  0  0  2  0  0  0  0  0  0
  160.9080  204.8820  147.2330 C   0  0  2  0  0  3  0  0  0  0  0  0
  161.4930  205.9090  144.6150 C   0  0  0  0  0  3  0  0  0  0  0  0
  160.8180  202.2320  148.4850 C   0  0  0  0  0  2  0  0  0  0  0  0
  161.1310  207.3050  148.9720 C   0  0  1  0  0  3  0  0  0  0  0  0
  163.4830  204.6810  144.4230 O   0  0  0  0  0  1  0  0  0  0  0  0
  161.2160  204.4900  151.4840 N   0  0  0  0  0  0  0  0  0  0  0  0
  161.3000  200.9280  150.4850 N   0  0  0  0  0  2  0  0  0  0  0  0
  161.1790  207.3580  147.4460 C   0  0  0  0  0  2  0  0  0  0  0  0
  161.1770  205.8960  149.5440 C   0  0  0  0  0  0  0  0  0  0  0  0
  162.2900  204.6440  146.6060 C   0  0  0  0  0  2  0  0  0  0  0  0
  161.8530  201.9490  152.5580 N   0  0  0  0  0  1  0  0  0  0  0  0
  160.3360  206.2460  146.8390 C   0  0  1  0  0  3  0  0  0  0  0  0
  160.2480  206.3710  145.3190 C   0  0  0  0  0  2  0  0  0  0  0  0
  161.2550  205.7280  150.9310 C   0  0  0  0  0  3  0  0  0  0  0  0
  161.0980  203.3660  150.7280 C   0  0  0  0  0  0  0  0  0  0  0  0
  160.9750  202.0200  151.4030 C   0  0  1  0  0  3  0  0  0  0  0  0
  162.2560  208.1760  149.5100 C   0  0  0  0  0  2  0  0  0  0  0  0
  162.2010  208.2270  150.9690 N   0  0  0  0  0  2  0  0  0  0  0  0
  163.0540  210.1490  152.1610 C   0  0  0  0  0  1  0  0  0  0  0  0
  161.5290  210.4800  150.2650 C   0  0  0  0  0  1  0  0  0  0  0  0
  161.8440  209.5690  151.4460 C   0  0  0  0  0  0  0  0  0  0  0  0
  159.8290  210.6450  152.2660 O   0  0  0  0  0  1  0  0  0  0  0  0
  160.6420  209.5160  152.4090 C   0  0  2  0  0  3  0  0  0  0  0  0
  161.0860  209.3980  153.7930 N   0  0  0  0  0  2  0  0  0  0  0  0
  160.7130  208.3000  154.6260 C   0  0  0  0  0  0  0  0  0  0  0  0
  160.0230  208.5870  156.0760 S   0  0  0  0  0  0  0  0  0  0  0  0
  160.9720  206.9590  154.2220 N   0  0  0  0  0  1  0  0  0  0  0  0
  1 14  1  0  0  0  0
  2  3  2  0  0  0  0
  2 13  1  0  0  0  0
  3 19  1  0  0  0  0
  4 11  1  0  0  0  0
  5 14  1  6  0  0  0
  5  2  1  0  0  0  0
  6  1  2  0  0  0  0
  6 17  1  0  0  0  0
  7  4  1  0  0  0  0
  7  3  1  0  0  0  0
  8 21  1  1  0  0  0
  8 13  1  0  0  0  0
  9  1  1  0  0  0  0
 11 20  1  0  0  0  0
 12  8  1  0  0  0  0
 13 18  2  0  0  0  0
 16 17  1  6  0  0  0
 16  5  1  0  0  0  0
 16 12  1  0  0  0  0
 18 10  1  0  0  0  0
 19 20  1  0  0  0  0
 19 10  2  0  0  0  0
 20 15  1  1  0  0  0
 21 22  1  0  0  0  0
 22 25  1  0  0  0  0
 24 25  1  0  0  0  0
 25 23  1  0  0  0  0
 25 27  1  0  0  0  0
 27 26  1  1  0  0  0
 27 28  1  0  0  0  0
 28 29  1  0  0  0  0
 29 30  2  0  0  0  0
 31 29  1  0  0  0  0
M  END
>  <MODEL>
7

>  <REMARK>
 VINA RESULT:      -5.1      3.540      7.113
  Name = 
  6 active torsions:
  status: ('A' for Active; 'I' for Inactive)
    1  A    between atoms: C_1  and  N_24
    2  A    between atoms: N_9  and  C_22
    3  A    between atoms: N_9  and  C_23
    4  A    between atoms: C_15  and  C_23
    5  A    between atoms: C_19  and  C_22
    6  A    between atoms: C_19  and  N_24
                            x       y       z     vdW  Elec       q    Type
                         _______ _______ _______ _____ _____    ______ ____

>  <TORSDO>
F 6

$$$$
=
 OpenBabel11052422443D

 31 34  0  0  1  0  0  0  0  0999 V2000
  161.9390  210.3280  155.0820 C   0  0  0  0  0  0  0  0  0  0  0  0
  161.2010  210.0030  151.3320 C   0  0  0  0  0  0  0  0  0  0  0  0
  161.2190  211.1610  150.5290 C   0  0  0  0  0  0  0  0  0  0  0  0
  160.6120  213.5420  150.0270 C   0  0  0  0  0  2  0  0  0  0  0  0
  160.8460  210.1070  152.7940 C   0  0  2  0  0  3  0  0  0  0  0  0
  160.9880  209.5510  155.6090 C   0  0  0  0  0  3  0  0  0  0  0  0
  160.8940  212.5110  151.1160 C   0  0  0  0  0  2  0  0  0  0  0  0
  161.4550  207.4550  151.5520 C   0  0  1  0  0  3  0  0  0  0  0  0
  162.8690  210.9150  155.9280 O   0  0  0  0  0  1  0  0  0  0  0  0
  161.8950  209.8320  148.6530 N   0  0  0  0  0  0  0  0  0  0  0  0
  161.6830  213.5060  149.0370 N   0  0  0  0  0  2  0  0  0  0  0  0
  161.2320  207.6510  153.0510 C   0  0  0  0  0  2  0  0  0  0  0  0
  161.5570  208.7540  150.7670 C   0  0  0  0  0  0  0  0  0  0  0  0
  162.0850  210.5280  153.5980 C   0  0  0  0  0  2  0  0  0  0  0  0
  162.6300  212.2020  147.2910 N   0  0  0  0  0  1  0  0  0  0  0  0
  160.2580  208.7910  153.3080 C   0  0  1  0  0  3  0  0  0  0  0  0
  159.9040  208.9060  154.7910 C   0  0  0  0  0  2  0  0  0  0  0  0
  161.8760  208.7030  149.4050 C   0  0  0  0  0  3  0  0  0  0  0  0
  161.6070  211.0520  149.1780 C   0  0  0  0  0  0  0  0  0  0  0  0
  161.5620  212.2630  148.2750 C   0  0  1  0  0  3  0  0  0  0  0  0
  162.6870  206.5810  151.3690 C   0  0  0  0  0  2  0  0  0  0  0  0
  162.4770  205.2780  151.9980 N   0  0  0  0  0  2  0  0  0  0  0  0
  161.9560  203.0350  151.2600 C   0  0  0  0  0  1  0  0  0  0  0  0
  160.1410  204.5260  151.9750 C   0  0  0  0  0  1  0  0  0  0  0  0
  161.4870  204.4820  151.2620 C   0  0  0  0  0  0  0  0  0  0  0  0
  160.0810  205.5730  149.6100 O   0  0  0  0  0  1  0  0  0  0  0  0
  161.3340  204.9850  149.8130 C   0  0  2  0  0  3  0  0  0  0  0  0
  161.5300  203.8980  148.8600 N   0  0  0  0  0  2  0  0  0  0  0  0
  161.6840  204.1260  147.4590 C   0  0  0  0  0  0  0  0  0  0  0  0
  162.3180  205.5350  146.9360 S   0  0  0  0  0  0  0  0  0  0  0  0
  161.2550  203.1520  146.5110 N   0  0  0  0  0  1  0  0  0  0  0  0
  1  6  2  0  0  0  0
  1  9  1  0  0  0  0
  2  5  1  0  0  0  0
  3  7  1  0  0  0  0
  3  2  2  0  0  0  0
  4  7  1  0  0  0  0
  5 16  1  0  0  0  0
  5 14  1  1  0  0  0
  8 21  1  1  0  0  0
  8 12  1  0  0  0  0
 10 19  2  0  0  0  0
 10 18  1  0  0  0  0
 11  4  1  0  0  0  0
 13  2  1  0  0  0  0
 13  8  1  0  0  0  0
 14  1  1  0  0  0  0
 16 12  1  1  0  0  0
 16 17  1  0  0  0  0
 17  6  1  0  0  0  0
 18 13  2  0  0  0  0
 19  3  1  0  0  0  0
 20 15  1  6  0  0  0
 20 11  1  0  0  0  0
 20 19  1  0  0  0  0
 21 22  1  0  0  0  0
 23 25  1  0  0  0  0
 25 24  1  0  0  0  0
 25 22  1  0  0  0  0
 27 26  1  1  0  0  0
 27 25  1  0  0  0  0
 28 27  1  0  0  0  0
 29 28  1  0  0  0  0
 30 29  2  0  0  0  0
 31 29  1  0  0  0  0
M  END
>  <MODEL>
8

>  <REMARK>
 VINA RESULT:      -4.6      3.419      5.877
  Name = 
  6 active torsions:
  status: ('A' for Active; 'I' for Inactive)
    1  A    between atoms: C_1  and  N_24
    2  A    between atoms: N_9  and  C_22
    3  A    between atoms: N_9  and  C_23
    4  A    between atoms: C_15  and  C_23
    5  A    between atoms: C_19  and  C_22
    6  A    between atoms: C_19  and  N_24
                            x       y       z     vdW  Elec       q    Type
                         _______ _______ _______ _____ _____    ______ ____

>  <TORSDO>
F 6

$$$$
=
 OpenBabel11052422443D

 31 34  0  0  1  0  0  0  0  0999 V2000
  162.4060  205.0070  151.7050 C   0  0  0  0  0  0  0  0  0  0  0  0
  160.8990  208.3040  152.9610 C   0  0  0  0  0  0  0  0  0  0  0  0
  160.7590  208.5070  154.3480 C   0  0  0  0  0  0  0  0  0  0  0  0
  160.0810  207.7900  156.6540 C   0  0  0  0  0  2  0  0  0  0  0  0
  160.8580  206.9060  152.3970 C   0  0  2  0  0  3  0  0  0  0  0  0
  161.5800  204.7020  150.7010 C   0  0  0  0  0  3  0  0  0  0  0  0
  160.5750  207.3380  155.2830 C   0  0  0  0  0  2  0  0  0  0  0  0
  161.1720  209.2730  150.5960 C   0  0  1  0  0  3  0  0  0  0  0  0
  163.4980  204.1860  151.9480 O   0  0  0  0  0  1  0  0  0  0  0  0
  161.0170  210.8650  154.0140 N   0  0  0  0  0  0  0  0  0  0  0  0
  160.9210  208.8810  157.1360 N   0  0  0  0  0  2  0  0  0  0  0  0
  161.2690  207.8270  150.1100 C   0  0  0  0  0  2  0  0  0  0  0  0
  161.1190  209.4140  152.1100 C   0  0  0  0  0  0  0  0  0  0  0  0
  162.2410  206.2520  152.5340 C   0  0  0  0  0  2  0  0  0  0  0  0
  161.4720  211.1670  156.7920 N   0  0  0  0  0  1  0  0  0  0  0  0
  160.3790  206.9160  150.9430 C   0  0  1  0  0  3  0  0  0  0  0  0
  160.3440  205.4960  150.3800 C   0  0  0  0  0  2  0  0  0  0  0  0
  161.1460  210.6940  152.6750 C   0  0  0  0  0  3  0  0  0  0  0  0
  160.8550  209.8160  154.8620 C   0  0  0  0  0  0  0  0  0  0  0  0
  160.6330  210.0710  156.3350 C   0  0  1  0  0  3  0  0  0  0  0  0
  162.3310  210.0510  149.9910 C   0  0  0  0  0  2  0  0  0  0  0  0
  162.0450  210.3770  148.5960 N   0  0  0  0  0  2  0  0  0  0  0  0
  161.3210  212.4430  149.6220 C   0  0  0  0  0  1  0  0  0  0  0  0
  163.3650  212.4190  148.2610 C   0  0  0  0  0  1  0  0  0  0  0  0
  161.9650  211.8290  148.3890 C   0  0  0  0  0  0  0  0  0  0  0  0
  161.8970  212.8590  146.1920 O   0  0  0  0  0  1  0  0  0  0  0  0
  161.1320  212.1680  147.1380 C   0  0  2  0  0  3  0  0  0  0  0  0
  159.9550  212.9530  147.4920 N   0  0  0  0  0  2  0  0  0  0  0  0
  158.6870  212.7600  146.8640 C   0  0  0  0  0  0  0  0  0  0  0  0
  158.5820  212.7890  145.2360 S   0  0  0  0  0  0  0  0  0  0  0  0
  157.5090  212.5790  147.6430 N   0  0  0  0  0  1  0  0  0  0  0  0
  1  9  1  0  0  0  0
  1 14  1  0  0  0  0
  2  3  1  0  0  0  0
  3 19  2  0  0  0  0
  3  7  1  0  0  0  0
  4 11  1  0  0  0  0
  5 14  1  6  0  0  0
  5  2  1  0  0  0  0
  6  1  2  0  0  0  0
  7  4  1  0  0  0  0
  8 21  1  1  0  0  0
  8 13  1  0  0  0  0
 10 19  1  0  0  0  0
 12  8  1  0  0  0  0
 13 18  1  0  0  0  0
 13  2  2  0  0  0  0
 16 12  1  6  0  0  0
 16  5  1  0  0  0  0
 17  6  1  0  0  0  0
 17 16  1  0  0  0  0
 18 10  2  0  0  0  0
 19 20  1  0  0  0  0
 20 15  1  1  0  0  0
 20 11  1  0  0  0  0
 22 21  1  0  0  0  0
 24 25  1  0  0  0  0
 25 22  1  0  0  0  0
 25 23  1  0  0  0  0
 27 26  1  6  0  0  0
 27 28  1  0  0  0  0
 27 25  1  0  0  0  0
 29 28  1  0  0  0  0
 29 31  1  0  0  0  0
 30 29  2  0  0  0  0
M  END
>  <MODEL>
9

>  <REMARK>
 VINA RESULT:      -4.4      4.546      5.979
  Name = 
  6 active torsions:
  status: ('A' for Active; 'I' for Inactive)
    1  A    between atoms: C_1  and  N_24
    2  A    between atoms: N_9  and  C_22
    3  A    between atoms: N_9  and  C_23
    4  A    between atoms: C_15  and  C_23
    5  A    between atoms: C_19  and  C_22
    6  A    between atoms: C_19  and  N_24
                            x       y       z     vdW  Elec       q    Type
                         _______ _______ _______ _____ _____    ______ ____

>  <TORSDO>
F 6

$$$$
