=
 OpenBabel11052423173D

 27 31  0  0  0  0  0  0  0  0999 V2000
  162.5260  208.7570  148.4370 C   0  0  0  0  0  3  0  0  0  0  0  0
  161.5050  209.8030  150.4610 C   0  0  0  0  0  0  0  0  0  0  0  0
  160.7920  207.4300  150.5730 C   0  0  0  0  0  3  0  0  0  0  0  0
  160.5680  209.5530  154.6990 C   0  0  0  0  0  2  0  0  0  0  0  0
  161.0370  207.5200  155.9600 O   0  0  0  0  0  0  0  0  0  0  0  0
  160.9690  210.9940  151.1780 C   0  0  0  0  0  2  0  0  0  0  0  0
  161.4020  207.5600  153.6280 N   0  0  0  0  0  0  0  0  0  0  0  0
  160.7200  203.6450  147.9460 O   0  0  0  0  0  0  0  0  0  0  0  0
  162.1220  206.3090  153.4550 C   0  0  0  0  0  1  0  0  0  0  0  0
  161.0920  204.8400  148.0750 C   0  0  0  0  0  0  0  0  0  0  0  0
  161.2710  208.6010  152.6730 C   0  0  0  0  0  0  0  0  0  0  0  0
  161.9600  209.9100  149.1870 C   0  0  0  0  0  0  0  0  0  0  0  0
  161.0040  208.1360  154.8620 C   0  0  0  0  0  0  0  0  0  0  0  0
  160.8090  209.7160  153.2290 C   0  0  0  0  0  0  0  0  0  0  0  0
  162.1540  207.4720  148.5040 C   0  0  0  0  0  0  0  0  0  0  0  0
  161.6280  208.4850  151.2130 C   0  0  0  0  0  0  0  0  0  0  0  0
  160.2400  205.7980  148.8600 C   0  0  0  0  0  2  0  0  0  0  0  0
  160.6380  210.9560  152.4690 C   0  0  0  0  0  3  0  0  0  0  0  0
  162.3190  205.2950  147.3960 C   0  0  0  0  0  3  0  0  0  0  0  0
  162.7990  206.5270  147.5790 C   0  0  0  0  0  3  0  0  0  0  0  0
  161.0450  206.9620  149.3520 C   0  0  0  0  0  0  0  0  0  0  0  0
  162.0590  213.6200  147.0310 C   0  0  0  0  0  3  0  0  0  0  0  0
  161.9750  211.2050  148.4640 C   0  0  0  0  0  0  0  0  0  0  0  0
  160.8540  211.6440  147.7380 C   0  0  0  0  0  3  0  0  0  0  0  0
  160.8950  212.8480  147.0300 C   0  0  0  0  0  3  0  0  0  0  0  0
  163.1850  213.1860  147.7370 C   0  0  0  0  0  3  0  0  0  0  0  0
  163.1440  211.9820  148.4450 C   0  0  0  0  0  3  0  0  0  0  0  0
  1 15  2  0  0  0  0
  1 12  1  0  0  0  0
  2  6  1  0  0  0  0
  2 16  1  0  0  0  0
  3 16  1  0  0  0  0
  4 13  1  0  0  0  0
  6 18  1  0  0  0  0
  7 13  1  0  0  0  0
  8 10  2  0  0  0  0
  9  7  1  0  0  0  0
 10 17  1  0  0  0  0
 11 14  1  0  0  0  0
 11  7  1  0  0  0  0
 12  2  2  0  0  0  0
 13  5  2  0  0  0  0
 14  4  1  0  0  0  0
 15 21  1  0  0  0  0
 16 11  2  0  0  0  0
 17 21  1  0  0  0  0
 18 14  2  0  0  0  0
 19 20  2  0  0  0  0
 19 10  1  0  0  0  0
 20 15  1  0  0  0  0
 21  3  2  0  0  0  0
 22 26  1  0  0  0  0
 23 12  1  0  0  0  0
 24 23  2  0  0  0  0
 25 22  2  0  0  0  0
 25 24  1  0  0  0  0
 26 27  2  0  0  0  0
 27 23  1  0  0  0  0
M  END
>  <MODEL>
1

>  <REMARK>
 VINA RESULT:      -6.8      0.000      0.000
  Name = 
  1 active torsions:
  status: ('A' for Active; 'I' for Inactive)
    1  A    between atoms: C_9  and  C_15
                            x       y       z     vdW  Elec       q    Type
                         _______ _______ _______ _____ _____    ______ ____

>  <TORSDO>
F 1

$$$$
=
 OpenBabel11052423173D

 27 31  0  0  1  0  0  0  0  0999 V2000
  161.6270  205.6560  152.9960 C   0  0  0  0  0  3  0  0  0  0  0  0
  161.3440  206.5830  150.6960 C   0  0  0  0  0  0  0  0  0  0  0  0
  160.6950  208.4520  152.1920 C   0  0  0  0  0  3  0  0  0  0  0  0
  161.8690  209.9020  147.9380 C   0  0  0  0  0  2  0  0  0  0  0  0
  162.7200  212.0480  148.7200 O   0  0  0  0  0  0  0  0  0  0  0  0
  161.0840  206.3930  149.2410 C   0  0  0  0  0  3  0  0  0  0  0  0
  162.2880  210.3250  150.2740 N   0  0  0  0  0  0  0  0  0  0  0  0
  159.7320  209.2420  156.6280 O   0  0  0  0  0  0  0  0  0  0  0  0
  162.9020  210.8880  151.4660 C   0  0  0  0  0  1  0  0  0  0  0  0
  160.1320  208.4250  155.7590 C   0  0  0  0  0  0  0  0  0  0  0  0
  161.8520  208.9870  150.0980 C   0  0  1  0  0  3  0  0  0  0  0  0
  161.3500  205.5220  151.5420 C   0  0  0  0  0  0  0  0  0  0  0  0
  162.3270  210.8780  148.9690 C   0  0  0  0  0  0  0  0  0  0  0  0
  161.6080  208.7190  148.8190 C   0  0  0  0  0  0  0  0  0  0  0  0
  161.2910  206.6690  153.8060 C   0  0  0  0  0  0  0  0  0  0  0  0
  161.7030  207.9720  151.2030 C   0  0  0  0  0  0  0  0  0  0  0  0
  159.5960  208.5170  154.3580 C   0  0  0  0  0  2  0  0  0  0  0  0
  161.2010  207.3880  148.3630 C   0  0  0  0  0  3  0  0  0  0  0  0
  161.0660  207.3520  156.1460 C   0  0  0  0  0  3  0  0  0  0  0  0
  161.5860  206.5220  155.2400 C   0  0  0  0  0  3  0  0  0  0  0  0
  160.5250  207.8680  153.3770 C   0  0  0  0  0  0  0  0  0  0  0  0
  160.7930  201.5140  150.1100 C   0  0  0  0  0  3  0  0  0  0  0  0
  161.1310  204.1350  151.0640 C   0  0  0  0  0  0  0  0  0  0  0  0
  161.3420  203.0340  151.9120 C   0  0  0  0  0  3  0  0  0  0  0  0
  161.1690  201.7300  151.4370 C   0  0  0  0  0  3  0  0  0  0  0  0
  160.5950  202.6010  149.2540 C   0  0  0  0  0  3  0  0  0  0  0  0
  160.7680  203.9040  149.7280 C   0  0  0  0  0  3  0  0  0  0  0  0
  1 15  1  0  0  0  0
  2 16  1  0  0  0  0
  2 12  1  0  0  0  0
  3 21  1  0  0  0  0
  4 14  1  0  0  0  0
  4 13  1  0  0  0  0
  5 13  2  0  0  0  0
  6  2  2  0  0  0  0
  7  9  1  0  0  0  0
 10 19  1  0  0  0  0
 10  8  2  0  0  0  0
 11 14  1  6  0  0  0
 11  7  1  0  0  0  0
 11 16  1  0  0  0  0
 12  1  2  0  0  0  0
 13  7  1  0  0  0  0
 15 20  1  0  0  0  0
 16  3  2  0  0  0  0
 17 10  1  0  0  0  0
 18 14  2  0  0  0  0
 18  6  1  0  0  0  0
 20 19  2  0  0  0  0
 21 15  2  0  0  0  0
 21 17  1  0  0  0  0
 22 25  1  0  0  0  0
 23 12  1  0  0  0  0
 23 24  1  0  0  0  0
 25 24  2  0  0  0  0
 26 27  1  0  0  0  0
 26 22  2  0  0  0  0
 27 23  2  0  0  0  0
M  END
>  <MODEL>
2

>  <REMARK>
 VINA RESULT:      -5.8      2.702      7.246
  Name = 
  1 active torsions:
  status: ('A' for Active; 'I' for Inactive)
    1  A    between atoms: C_9  and  C_15
                            x       y       z     vdW  Elec       q    Type
                         _______ _______ _______ _____ _____    ______ ____

>  <TORSDO>
F 1

$$$$
=
 OpenBabel11052423173D

 27 31  0  0  1  0  0  0  0  0999 V2000
  161.1620  208.5030  148.3380 C   0  0  0  0  0  3  0  0  0  0  0  0
  161.5270  207.4050  150.5500 C   0  0  0  0  0  0  0  0  0  0  0  0
  162.2080  209.7630  150.9170 C   0  0  0  0  0  3  0  0  0  0  0  0
  161.1790  207.5680  154.8800 C   0  0  0  0  0  2  0  0  0  0  0  0
  160.3860  209.5880  155.9910 O   0  0  0  0  0  0  0  0  0  0  0  0
  161.8130  206.1930  151.3680 C   0  0  0  0  0  3  0  0  0  0  0  0
  160.7230  209.5930  153.6550 N   0  0  0  0  0  0  0  0  0  0  0  0
  163.0990  213.5880  148.5090 O   0  0  0  0  0  0  0  0  0  0  0  0
  160.1030  210.8610  153.3040 C   0  0  0  0  0  1  0  0  0  0  0  0
  162.6900  212.3980  148.4970 C   0  0  0  0  0  0  0  0  0  0  0  0
  161.1160  208.5670  152.7580 C   0  0  0  0  0  0  0  0  0  0  0  0
  161.4660  207.3280  149.1970 C   0  0  0  0  0  0  0  0  0  0  0  0
  160.7330  208.9900  154.9380 C   0  0  0  0  0  0  0  0  0  0  0  0
  161.3790  207.4330  153.4020 C   0  0  0  0  0  0  0  0  0  0  0  0
  161.5140  209.7800  148.5390 C   0  0  0  0  0  0  0  0  0  0  0  0
  161.2060  208.7120  151.2610 C   0  0  2  0  0  3  0  0  0  0  0  0
  163.2600  211.4120  149.4770 C   0  0  0  0  0  2  0  0  0  0  0  0
  161.7500  206.2030  152.6990 C   0  0  0  0  0  3  0  0  0  0  0  0
  161.7110  211.9780  147.4780 C   0  0  0  0  0  3  0  0  0  0  0  0
  161.1820  210.7520  147.4850 C   0  0  0  0  0  3  0  0  0  0  0  0
  162.3310  210.2550  149.6860 C   0  0  0  0  0  0  0  0  0  0  0  0
  161.9020  203.6190  147.0820 C   0  0  0  0  0  3  0  0  0  0  0  0
  161.6470  206.0460  148.4740 C   0  0  0  0  0  0  0  0  0  0  0  0
  162.3310  205.9950  147.2470 C   0  0  0  0  0  3  0  0  0  0  0  0
  162.4620  204.7860  146.5580 C   0  0  0  0  0  3  0  0  0  0  0  0
  161.2060  203.6600  148.2930 C   0  0  0  0  0  3  0  0  0  0  0  0
  161.0760  204.8690  148.9830 C   0  0  0  0  0  3  0  0  0  0  0  0
  1 15  2  0  0  0  0
  1 12  1  0  0  0  0
  2 16  1  0  0  0  0
  2  6  1  0  0  0  0
  4 13  1  0  0  0  0
  6 18  2  0  0  0  0
  7 13  1  0  0  0  0
  9  7  1  0  0  0  0
 10  8  2  0  0  0  0
 10 17  1  0  0  0  0
 11 14  2  0  0  0  0
 11  7  1  0  0  0  0
 12  2  2  0  0  0  0
 13  5  2  0  0  0  0
 14  4  1  0  0  0  0
 15 21  1  0  0  0  0
 16  3  1  1  0  0  0
 16 11  1  0  0  0  0
 17 21  1  0  0  0  0
 18 14  1  0  0  0  0
 19 20  2  0  0  0  0
 19 10  1  0  0  0  0
 20 15  1  0  0  0  0
 21  3  2  0  0  0  0
 22 26  1  0  0  0  0
 23 27  1  0  0  0  0
 23 12  1  0  0  0  0
 24 23  2  0  0  0  0
 25 22  2  0  0  0  0
 25 24  1  0  0  0  0
 26 27  2  0  0  0  0
M  END
>  <MODEL>
3

>  <REMARK>
 VINA RESULT:      -5.4      2.232      5.387
  Name = 
  1 active torsions:
  status: ('A' for Active; 'I' for Inactive)
    1  A    between atoms: C_9  and  C_15
                            x       y       z     vdW  Elec       q    Type
                         _______ _______ _______ _____ _____    ______ ____

>  <TORSDO>
F 1

$$$$
=
 OpenBabel11052423173D

 27 31  0  0  1  0  0  0  0  0999 V2000
  161.8000  211.0350  140.2860 C   0  0  0  0  0  3  0  0  0  0  0  0
  159.5180  210.4280  139.4760 C   0  0  1  0  0  3  0  0  0  0  0  0
  159.1040  211.8140  141.4920 C   0  0  0  0  0  3  0  0  0  0  0  0
  155.4220  211.6370  138.6660 C   0  0  0  0  0  2  0  0  0  0  0  0
  154.6380  213.8650  139.2700 O   0  0  0  0  0  0  0  0  0  0  0  0
  158.6000  209.5100  138.7460 C   0  0  0  0  0  3  0  0  0  0  0  0
  156.8150  213.1860  139.8780 N   0  0  0  0  0  0  0  0  0  0  0  0
  161.3920  213.5980  145.0710 O   0  0  0  0  0  0  0  0  0  0  0  0
  157.3670  214.4530  140.3300 C   0  0  0  0  0  1  0  0  0  0  0  0
  161.4490  212.9760  143.9800 C   0  0  0  0  0  0  0  0  0  0  0  0
  157.5370  211.9940  139.6150 C   0  0  0  0  0  0  0  0  0  0  0  0
  160.8390  210.1400  139.5890 C   0  0  0  0  0  0  0  0  0  0  0  0
  155.5420  212.9890  139.2840 C   0  0  0  0  0  0  0  0  0  0  0  0
  156.7970  211.1140  138.9480 C   0  0  0  0  0  0  0  0  0  0  0  0
  161.5780  211.7950  141.3660 C   0  0  0  0  0  0  0  0  0  0  0  0
  158.9710  211.7450  140.0080 C   0  0  0  0  0  0  0  0  0  0  0  0
  160.3130  212.0750  143.5820 C   0  0  0  0  0  2  0  0  0  0  0  0
  157.3270  209.8240  138.5020 C   0  0  0  0  0  3  0  0  0  0  0  0
  162.6580  213.0870  143.1440 C   0  0  0  0  0  3  0  0  0  0  0  0
  162.7250  212.5190  141.9380 C   0  0  0  0  0  3  0  0  0  0  0  0
  160.2880  211.8540  142.1010 C   0  0  0  0  0  0  0  0  0  0  0  0
  162.4830  206.5880  137.8270 C   0  0  0  0  0  3  0  0  0  0  0  0
  161.4340  208.9280  138.9730 C   0  0  0  0  0  0  0  0  0  0  0  0
  161.5810  208.8200  137.5800 C   0  0  0  0  0  3  0  0  0  0  0  0
  162.1070  207.6570  137.0110 C   0  0  0  0  0  3  0  0  0  0  0  0
  162.3270  206.6780  139.2130 C   0  0  0  0  0  3  0  0  0  0  0  0
  161.8000  207.8410  139.7820 C   0  0  0  0  0  3  0  0  0  0  0  0
  1 15  1  0  0  0  0
  2  6  1  6  0  0  0
  2 12  1  0  0  0  0
  2 16  1  0  0  0  0
  3 21  1  0  0  0  0
  4 14  1  0  0  0  0
  4 13  1  0  0  0  0
  5 13  2  0  0  0  0
  7  9  1  0  0  0  0
 10  8  2  0  0  0  0
 11  7  1  0  0  0  0
 11 16  1  0  0  0  0
 12  1  2  0  0  0  0
 13  7  1  0  0  0  0
 14 11  2  0  0  0  0
 15 20  1  0  0  0  0
 15 21  2  0  0  0  0
 16  3  2  0  0  0  0
 17 10  1  0  0  0  0
 18  6  2  0  0  0  0
 18 14  1  0  0  0  0
 19 10  1  0  0  0  0
 20 19  2  0  0  0  0
 21 17  1  0  0  0  0
 22 26  1  0  0  0  0
 23 12  1  0  0  0  0
 23 27  1  0  0  0  0
 24 23  2  0  0  0  0
 25 24  1  0  0  0  0
 25 22  2  0  0  0  0
 26 27  2  0  0  0  0
M  END
>  <MODEL>
4

>  <REMARK>
 VINA RESULT:      -5.4      8.746     12.179
  Name = 
  1 active torsions:
  status: ('A' for Active; 'I' for Inactive)
    1  A    between atoms: C_9  and  C_15
                            x       y       z     vdW  Elec       q    Type
                         _______ _______ _______ _____ _____    ______ ____

>  <TORSDO>
F 1

$$$$
=
 OpenBabel11052423173D

 27 31  0  0  1  0  0  0  0  0999 V2000
  160.8320  207.5800  148.9770 C   0  0  0  0  0  3  0  0  0  0  0  0
  161.1260  206.6970  151.2930 C   0  0  0  0  0  0  0  0  0  0  0  0
  161.9510  209.0330  151.4200 C   0  0  0  0  0  3  0  0  0  0  0  0
  160.7840  207.3280  155.5800 C   0  0  0  0  0  2  0  0  0  0  0  0
  160.1170  209.4980  156.4700 O   0  0  0  0  0  0  0  0  0  0  0  0
  161.3340  205.5600  152.2340 C   0  0  0  0  0  3  0  0  0  0  0  0
  160.4570  209.2400  154.1490 N   0  0  0  0  0  0  0  0  0  0  0  0
  163.0830  212.5250  148.6360 O   0  0  0  0  0  0  0  0  0  0  0  0
  159.9170  210.5010  153.6640 C   0  0  0  0  0  1  0  0  0  0  0  0
  162.6000  211.3690  148.7440 C   0  0  0  0  0  0  0  0  0  0  0  0
  160.7850  208.1040  153.3660 C   0  0  0  0  0  0  0  0  0  0  0  0
  161.0610  206.4840  149.9540 C   0  0  0  0  0  0  0  0  0  0  0  0
  160.4270  208.7740  155.4880 C   0  0  0  0  0  0  0  0  0  0  0  0
  160.9760  207.0290  154.1250 C   0  0  0  0  0  0  0  0  0  0  0  0
  161.2630  208.8460  149.0470 C   0  0  0  0  0  0  0  0  0  0  0  0
  160.8860  208.0880  151.8620 C   0  0  2  0  0  3  0  0  0  0  0  0
  163.1060  210.4550  149.8250 C   0  0  0  0  0  2  0  0  0  0  0  0
  161.2700  205.7120  153.5560 C   0  0  0  0  0  3  0  0  0  0  0  0
  161.5980  210.9060  147.7670 C   0  0  0  0  0  3  0  0  0  0  0  0
  160.9940  209.7230  147.8960 C   0  0  0  0  0  3  0  0  0  0  0  0
  162.1070  209.3860  150.1450 C   0  0  0  0  0  0  0  0  0  0  0  0
  161.2640  202.5460  148.2570 C   0  0  0  0  0  3  0  0  0  0  0  0
  161.1630  205.1240  149.3690 C   0  0  0  0  0  0  0  0  0  0  0  0
  161.5810  204.9360  148.0410 C   0  0  0  0  0  3  0  0  0  0  0  0
  161.6360  203.6530  147.4900 C   0  0  0  0  0  3  0  0  0  0  0  0
  160.8310  202.7230  149.5740 C   0  0  0  0  0  3  0  0  0  0  0  0
  160.7770  204.0070  150.1250 C   0  0  0  0  0  3  0  0  0  0  0  0
  1 15  2  0  0  0  0
  1 12  1  0  0  0  0
  2 16  1  0  0  0  0
  2  6  1  0  0  0  0
  6 18  2  0  0  0  0
  7 13  1  0  0  0  0
  8 10  2  0  0  0  0
  9  7  1  0  0  0  0
 10 17  1  0  0  0  0
 11 14  2  0  0  0  0
 11  7  1  0  0  0  0
 12  2  2  0  0  0  0
 13  4  1  0  0  0  0
 13  5  2  0  0  0  0
 14  4  1  0  0  0  0
 15 21  1  0  0  0  0
 16  3  1  1  0  0  0
 16 11  1  0  0  0  0
 17 21  1  0  0  0  0
 18 14  1  0  0  0  0
 19 20  2  0  0  0  0
 19 10  1  0  0  0  0
 20 15  1  0  0  0  0
 21  3  2  0  0  0  0
 22 26  1  0  0  0  0
 23 12  1  0  0  0  0
 23 27  1  0  0  0  0
 24 23  2  0  0  0  0
 25 24  1  0  0  0  0
 25 22  2  0  0  0  0
 26 27  2  0  0  0  0
M  END
>  <MODEL>
5

>  <REMARK>
 VINA RESULT:      -5.3      2.294      5.588
  Name = 
  1 active torsions:
  status: ('A' for Active; 'I' for Inactive)
    1  A    between atoms: C_9  and  C_15
                            x       y       z     vdW  Elec       q    Type
                         _______ _______ _______ _____ _____    ______ ____

>  <TORSDO>
F 1

$$$$
=
 OpenBabel11052423173D

 27 31  0  0  1  0  0  0  0  0999 V2000
  160.8590  207.3280  149.8980 C   0  0  0  0  0  3  0  0  0  0  0  0
  160.9180  207.0090  152.3730 C   0  0  0  0  0  0  0  0  0  0  0  0
  161.7680  209.3150  152.0320 C   0  0  0  0  0  3  0  0  0  0  0  0
  160.1830  208.6190  156.3430 C   0  0  0  0  0  2  0  0  0  0  0  0
  159.4730  210.9330  156.6380 O   0  0  0  0  0  0  0  0  0  0  0  0
  161.0160  206.1240  153.5670 C   0  0  0  0  0  3  0  0  0  0  0  0
  160.0260  210.1440  154.4830 N   0  0  0  0  0  0  0  0  0  0  0  0
  163.2160  212.0690  148.6350 O   0  0  0  0  0  0  0  0  0  0  0  0
  159.5560  211.2540  153.6700 C   0  0  0  0  0  1  0  0  0  0  0  0
  162.7060  210.9670  148.9620 C   0  0  0  0  0  0  0  0  0  0  0  0
  160.4070  208.8580  154.0210 C   0  0  0  0  0  0  0  0  0  0  0  0
  160.9760  206.4900  151.1200 C   0  0  0  0  0  0  0  0  0  0  0  0
  159.8620  210.0020  155.8840 C   0  0  0  0  0  0  0  0  0  0  0  0
  160.5070  207.9900  155.0230 C   0  0  0  0  0  0  0  0  0  0  0  0
  161.3040  208.5780  149.7130 C   0  0  0  0  0  0  0  0  0  0  0  0
  160.6490  208.4930  152.5780 C   0  0  2  0  0  3  0  0  0  0  0  0
  163.0920  210.3330  150.2690 C   0  0  0  0  0  2  0  0  0  0  0  0
  160.8310  206.5790  154.8060 C   0  0  0  0  0  3  0  0  0  0  0  0
  161.7930  210.2850  148.0280 C   0  0  0  0  0  3  0  0  0  0  0  0
  161.1590  209.1610  148.3700 C   0  0  0  0  0  3  0  0  0  0  0  0
  162.0490  209.3630  150.7320 C   0  0  0  0  0  0  0  0  0  0  0  0
  161.4350  202.2890  150.3710 C   0  0  0  0  0  3  0  0  0  0  0  0
  161.1090  205.0320  150.8790 C   0  0  0  0  0  0  0  0  0  0  0  0
  161.5720  204.1700  151.8870 C   0  0  0  0  0  3  0  0  0  0  0  0
  161.7290  202.8040  151.6350 C   0  0  0  0  0  3  0  0  0  0  0  0
  160.9890  203.1400  149.3550 C   0  0  0  0  0  3  0  0  0  0  0  0
  160.8320  204.5060  149.6080 C   0  0  0  0  0  3  0  0  0  0  0  0
  1 12  1  0  0  0  0
  2 16  1  0  0  0  0
  2  6  1  0  0  0  0
  6 18  2  0  0  0  0
  7 13  1  0  0  0  0
  8 10  2  0  0  0  0
  9  7  1  0  0  0  0
 10 17  1  0  0  0  0
 11  7  1  0  0  0  0
 11 14  2  0  0  0  0
 12  2  2  0  0  0  0
 13  4  1  0  0  0  0
 13  5  2  0  0  0  0
 14  4  1  0  0  0  0
 15  1  2  0  0  0  0
 15 21  1  0  0  0  0
 16  3  1  1  0  0  0
 16 11  1  0  0  0  0
 17 21  1  0  0  0  0
 18 14  1  0  0  0  0
 19 20  2  0  0  0  0
 19 10  1  0  0  0  0
 20 15  1  0  0  0  0
 21  3  2  0  0  0  0
 22 25  1  0  0  0  0
 23 12  1  0  0  0  0
 23 24  1  0  0  0  0
 25 24  2  0  0  0  0
 26 27  1  0  0  0  0
 26 22  2  0  0  0  0
 27 23  2  0  0  0  0
M  END
>  <MODEL>
6

>  <REMARK>
 VINA RESULT:      -5.0      2.560      5.841
  Name = 
  1 active torsions:
  status: ('A' for Active; 'I' for Inactive)
    1  A    between atoms: C_9  and  C_15
                            x       y       z     vdW  Elec       q    Type
                         _______ _______ _______ _____ _____    ______ ____

>  <TORSDO>
F 1

$$$$
=
 OpenBabel11052423173D

 27 31  0  0  1  0  0  0  0  0999 V2000
  161.5570  210.2100  140.8440 C   0  0  0  0  0  3  0  0  0  0  0  0
  160.0040  211.9830  140.0230 C   0  0  0  0  0  0  0  0  0  0  0  0
  159.9030  210.2230  138.2770 C   0  0  0  0  0  3  0  0  0  0  0  0
  156.2050  213.0340  138.1890 C   0  0  0  0  0  2  0  0  0  0  0  0
  154.6970  211.3030  137.3690 O   0  0  0  0  0  0  0  0  0  0  0  0
  159.5720  213.4070  139.9660 C   0  0  0  0  0  3  0  0  0  0  0  0
  156.8220  210.7030  138.2030 N   0  0  0  0  0  0  0  0  0  0  0  0
  162.1150  206.3850  137.0110 O   0  0  0  0  0  0  0  0  0  0  0  0
  156.6770  209.2580  138.2720 C   0  0  0  0  0  1  0  0  0  0  0  0
  161.9860  207.3030  137.8610 C   0  0  0  0  0  0  0  0  0  0  0  0
  157.8590  211.4790  138.7830 C   0  0  0  0  0  0  0  0  0  0  0  0
  161.0990  211.6200  140.7370 C   0  0  0  0  0  0  0  0  0  0  0  0
  155.8060  211.6340  137.8650 C   0  0  0  0  0  0  0  0  0  0  0  0
  157.5530  212.7730  138.7890 C   0  0  0  0  0  0  0  0  0  0  0  0
  161.4930  209.2520  139.9100 C   0  0  0  0  0  0  0  0  0  0  0  0
  159.1410  210.9250  139.3490 C   0  0  2  0  0  3  0  0  0  0  0  0
  161.5590  208.6720  137.4100 C   0  0  0  0  0  2  0  0  0  0  0  0
  158.4310  213.7810  139.3860 C   0  0  0  0  0  3  0  0  0  0  0  0
  162.3210  207.0380  139.2710 C   0  0  0  0  0  3  0  0  0  0  0  0
  162.1120  207.9540  140.2200 C   0  0  0  0  0  3  0  0  0  0  0  0
  160.9570  209.4530  138.5380 C   0  0  0  0  0  0  0  0  0  0  0  0
  163.4550  214.4020  143.0030 C   0  0  0  0  0  3  0  0  0  0  0  0
  161.8940  212.6050  141.5120 C   0  0  0  0  0  0  0  0  0  0  0  0
  162.7170  213.5420  140.8650 C   0  0  0  0  0  3  0  0  0  0  0  0
  163.4890  214.4390  141.6070 C   0  0  0  0  0  3  0  0  0  0  0  0
  162.6520  213.4630  143.6580 C   0  0  0  0  0  3  0  0  0  0  0  0
  161.8790  212.5660  142.9150 C   0  0  0  0  0  3  0  0  0  0  0  0
  2 12  2  0  0  0  0
  3 21  2  0  0  0  0
  4 14  1  0  0  0  0
  5 13  2  0  0  0  0
  6  2  1  0  0  0  0
  7  9  1  0  0  0  0
  7 11  1  0  0  0  0
  8 10  2  0  0  0  0
 10 19  1  0  0  0  0
 11 14  2  0  0  0  0
 11 16  1  0  0  0  0
 12  1  1  0  0  0  0
 12 23  1  0  0  0  0
 13  4  1  0  0  0  0
 13  7  1  0  0  0  0
 14 18  1  0  0  0  0
 15 20  1  0  0  0  0
 15  1  2  0  0  0  0
 16  3  1  6  0  0  0
 16  2  1  0  0  0  0
 17 10  1  0  0  0  0
 17 21  1  0  0  0  0
 18  6  2  0  0  0  0
 19 20  2  0  0  0  0
 21 15  1  0  0  0  0
 22 26  1  0  0  0  0
 23 27  1  0  0  0  0
 24 23  2  0  0  0  0
 24 25  1  0  0  0  0
 25 22  2  0  0  0  0
 27 26  2  0  0  0  0
M  END
>  <MODEL>
7

>  <REMARK>
 VINA RESULT:      -4.9      9.458     11.883
  Name = 
  1 active torsions:
  status: ('A' for Active; 'I' for Inactive)
    1  A    between atoms: C_9  and  C_15
                            x       y       z     vdW  Elec       q    Type
                         _______ _______ _______ _____ _____    ______ ____

>  <TORSDO>
F 1

$$$$
=
 OpenBabel11052423173D

 27 31  0  0  1  0  0  0  0  0999 V2000
  160.4470  211.6360  152.0320 C   0  0  0  0  0  3  0  0  0  0  0  0
  161.4320  209.7490  150.7290 C   0  0  1  0  0  3  0  0  0  0  0  0
  161.9580  209.2010  153.0900 C   0  0  0  0  0  3  0  0  0  0  0  0
  162.1160  205.4750  150.3200 C   0  0  0  0  0  2  0  0  0  0  0  0
  161.4270  203.9300  152.0750 O   0  0  0  0  0  0  0  0  0  0  0  0
  162.0160  209.2030  149.4710 C   0  0  0  0  0  3  0  0  0  0  0  0
  161.1930  206.2560  152.4060 N   0  0  0  0  0  0  0  0  0  0  0  0
  161.8870  211.1580  157.2610 O   0  0  0  0  0  0  0  0  0  0  0  0
  160.3920  206.2680  153.6190 C   0  0  0  0  0  1  0  0  0  0  0  0
  161.5990  211.2530  156.0400 C   0  0  0  0  0  0  0  0  0  0  0  0
  161.4540  207.3580  151.5530 C   0  0  0  0  0  0  0  0  0  0  0  0
  161.0560  211.0500  150.8090 C   0  0  0  0  0  0  0  0  0  0  0  0
  161.5660  205.1100  151.6580 C   0  0  0  0  0  0  0  0  0  0  0  0
  161.9680  206.9640  150.3920 C   0  0  0  0  0  0  0  0  0  0  0  0
  160.7170  211.3340  153.3090 C   0  0  0  0  0  0  0  0  0  0  0  0
  161.1690  208.8000  151.8890 C   0  0  0  0  0  0  0  0  0  0  0  0
  162.4770  210.5810  155.0200 C   0  0  0  0  0  2  0  0  0  0  0  0
  162.2730  207.9050  149.3120 C   0  0  0  0  0  3  0  0  0  0  0  0
  160.4490  212.0770  155.6270 C   0  0  0  0  0  3  0  0  0  0  0  0
  160.0540  212.1310  154.3530 C   0  0  0  0  0  3  0  0  0  0  0  0
  161.7370  210.3420  153.7400 C   0  0  0  0  0  0  0  0  0  0  0  0
  161.4520  213.7900  147.5280 C   0  0  0  0  0  3  0  0  0  0  0  0
  161.1780  211.9760  149.6570 C   0  0  0  0  0  0  0  0  0  0  0  0
  162.0890  211.7240  148.6170 C   0  0  0  0  0  3  0  0  0  0  0  0
  162.2210  212.6240  147.5560 C   0  0  0  0  0  3  0  0  0  0  0  0
  160.5550  214.0590  148.5660 C   0  0  0  0  0  3  0  0  0  0  0  0
  160.4230  213.1590  149.6260 C   0  0  0  0  0  3  0  0  0  0  0  0
  1 15  1  0  0  0  0
  2  6  1  6  0  0  0
  2 12  1  0  0  0  0
  2 16  1  0  0  0  0
  3 21  1  0  0  0  0
  4 14  1  0  0  0  0
  4 13  1  0  0  0  0
  7  9  1  0  0  0  0
 10  8  2  0  0  0  0
 11 16  1  0  0  0  0
 11  7  1  0  0  0  0
 12  1  2  0  0  0  0
 13  5  2  0  0  0  0
 13  7  1  0  0  0  0
 14 11  2  0  0  0  0
 15 21  2  0  0  0  0
 15 20  1  0  0  0  0
 16  3  2  0  0  0  0
 17 10  1  0  0  0  0
 18  6  2  0  0  0  0
 18 14  1  0  0  0  0
 19 10  1  0  0  0  0
 20 19  2  0  0  0  0
 21 17  1  0  0  0  0
 22 25  2  0  0  0  0
 22 26  1  0  0  0  0
 23 12  1  0  0  0  0
 24 23  2  0  0  0  0
 25 24  1  0  0  0  0
 26 27  2  0  0  0  0
 27 23  1  0  0  0  0
M  END
>  <MODEL>
8

>  <REMARK>
 VINA RESULT:      -4.6      1.887      5.437
  Name = 
  1 active torsions:
  status: ('A' for Active; 'I' for Inactive)
    1  A    between atoms: C_9  and  C_15
                            x       y       z     vdW  Elec       q    Type
                         _______ _______ _______ _____ _____    ______ ____

>  <TORSDO>
F 1

$$$$
=
 OpenBabel11052423173D

 27 31  0  0  1  0  0  0  0  0999 V2000
  160.6060  209.9680  151.6360 C   0  0  0  0  0  3  0  0  0  0  0  0
  161.5840  208.5750  149.8110 C   0  0  0  0  0  0  0  0  0  0  0  0
  161.7580  207.1450  151.8310 C   0  0  0  0  0  3  0  0  0  0  0  0
  161.9480  204.6910  147.8910 C   0  0  0  0  0  2  0  0  0  0  0  0
  160.9140  202.7140  148.8740 O   0  0  0  0  0  0  0  0  0  0  0  0
  162.2730  208.4540  148.4960 C   0  0  0  0  0  3  0  0  0  0  0  0
  160.8390  204.7710  150.0300 N   0  0  0  0  0  0  0  0  0  0  0  0
  161.3280  207.4480  156.4080 O   0  0  0  0  0  0  0  0  0  0  0  0
  159.8950  204.4420  151.0860 C   0  0  0  0  0  1  0  0  0  0  0  0
  161.2060  208.0150  155.2920 C   0  0  0  0  0  0  0  0  0  0  0  0
  161.2990  206.0650  149.6780 C   0  0  1  0  0  3  0  0  0  0  0  0
  161.3130  209.7940  150.3400 C   0  0  0  0  0  0  0  0  0  0  0  0
  161.2040  203.9370  148.9420 C   0  0  0  0  0  0  0  0  0  0  0  0
  161.9190  206.0580  148.5020 C   0  0  0  0  0  0  0  0  0  0  0  0
  160.6860  209.1920  152.7260 C   0  0  0  0  0  0  0  0  0  0  0  0
  161.0970  207.3100  150.5040 C   0  0  0  0  0  0  0  0  0  0  0  0
  162.1450  207.6540  154.1740 C   0  0  0  0  0  2  0  0  0  0  0  0
  162.4370  207.2800  147.8840 C   0  0  0  0  0  3  0  0  0  0  0  0
  160.1920  209.0700  155.1210 C   0  0  0  0  0  3  0  0  0  0  0  0
  159.9670  209.6320  153.9310 C   0  0  0  0  0  3  0  0  0  0  0  0
  161.5550  207.9910  152.8390 C   0  0  0  0  0  0  0  0  0  0  0  0
  162.2780  213.3980  148.2170 C   0  0  0  0  0  3  0  0  0  0  0  0
  161.6580  211.0520  149.6330 C   0  0  0  0  0  0  0  0  0  0  0  0
  160.9000  212.2210  149.8220 C   0  0  0  0  0  3  0  0  0  0  0  0
  161.2130  213.3890  149.1200 C   0  0  0  0  0  3  0  0  0  0  0  0
  163.0280  212.2360  148.0100 C   0  0  0  0  0  3  0  0  0  0  0  0
  162.7160  211.0690  148.7110 C   0  0  0  0  0  3  0  0  0  0  0  0
  1 15  1  0  0  0  0
  2 12  1  0  0  0  0
  2 16  1  0  0  0  0
  3 21  1  0  0  0  0
  4 14  1  0  0  0  0
  4 13  1  0  0  0  0
  5 13  2  0  0  0  0
  6  2  2  0  0  0  0
  7  9  1  0  0  0  0
 10  8  2  0  0  0  0
 11 14  1  6  0  0  0
 11  7  1  0  0  0  0
 11 16  1  0  0  0  0
 12  1  2  0  0  0  0
 13  7  1  0  0  0  0
 15 21  2  0  0  0  0
 15 20  1  0  0  0  0
 16  3  2  0  0  0  0
 17 10  1  0  0  0  0
 18  6  1  0  0  0  0
 18 14  2  0  0  0  0
 19 10  1  0  0  0  0
 20 19  2  0  0  0  0
 21 17  1  0  0  0  0
 22 25  1  0  0  0  0
 23 24  1  0  0  0  0
 23 12  1  0  0  0  0
 25 24  2  0  0  0  0
 26 22  2  0  0  0  0
 26 27  1  0  0  0  0
 27 23  2  0  0  0  0
M  END
>  <MODEL>
9

>  <REMARK>
 VINA RESULT:      -4.5      1.464      5.213
  Name = 
  1 active torsions:
  status: ('A' for Active; 'I' for Inactive)
    1  A    between atoms: C_9  and  C_15
                            x       y       z     vdW  Elec       q    Type
                         _______ _______ _______ _____ _____    ______ ____

>  <TORSDO>
F 1

$$$$
