=
 OpenBabel11062408053D

 34 39  0  0  1  0  0  0  0  0999 V2000
  160.5270  207.4910  155.0560 C   0  0  0  0  0  0  0  0  0  0  0  0
  160.1950  209.9320  154.6380 C   0  0  2  0  0  3  0  0  0  0  0  0
  160.9050  208.5040  152.7900 C   0  0  2  0  0  3  0  0  0  0  0  0
  161.7820  209.4100  150.6400 C   0  0  1  0  0  3  0  0  0  0  0  0
  159.6830  208.9270  156.8250 C   0  0  0  0  0  3  0  0  0  0  0  0
  160.0290  210.0490  156.0500 O   0  0  0  0  0  0  0  0  0  0  0  0
  161.0100  210.9760  152.4930 C   0  0  0  0  0  2  0  0  0  0  0  0
  161.0080  208.6930  154.2970 C   0  0  2  0  0  3  0  0  0  0  0  0
  159.8800  207.6860  156.3630 C   0  0  0  0  0  3  0  0  0  0  0  0
  161.1880  207.0600  152.3030 C   0  0  1  0  0  3  0  0  0  0  0  0
  160.8180  206.2990  154.6270 N   0  0  0  0  0  0  0  0  0  0  0  0
  160.8780  211.1560  154.0200 C   0  0  0  0  0  2  0  0  0  0  0  0
  162.6330  208.1700  150.4060 C   0  0  0  0  0  2  0  0  0  0  0  0
  162.0300  206.9010  151.0240 C   0  0  2  0  0  3  0  0  0  0  0  0
  161.6970  209.6390  152.1390 C   0  0  1  0  0  3  0  0  0  0  0  0
  161.6220  206.1000  153.4170 C   0  0  0  0  0  2  0  0  0  0  0  0
  161.1140  204.6520  150.2420 C   0  0  0  0  0  0  0  0  0  0  0  0
  160.2960  204.0350  149.5080 O   0  0  0  0  0  0  0  0  0  0  0  0
  161.3670  206.0580  150.0230 N   0  0  0  0  0  0  0  0  0  0  0  0
  161.8170  203.8850  151.3110 C   0  0  0  0  0  1  0  0  0  0  0  0
  160.7430  206.7280  148.8790 C   0  0  0  0  0  3  0  0  0  0  0  0
  160.8000  205.8290  147.6540 C   0  0  0  0  0  2  0  0  0  0  0  0
  161.7650  206.9830  147.7790 C   0  0  0  0  0  2  0  0  0  0  0  0
  162.3840  210.5030  150.0060 O   0  0  0  0  0  0  0  0  0  0  0  0
  161.8130  210.5390  148.7310 C   0  0  0  0  0  2  0  0  0  0  0  0
  162.0440  211.9000  148.1020 C   0  0  0  0  0  2  0  0  0  0  0  0
  160.7420  212.6750  148.0800 C   0  0  0  0  0  2  0  0  0  0  0  0
  157.6510  212.6660  147.3270 C   0  0  0  0  0  1  0  0  0  0  0  0
  160.0540  212.4330  146.8220 N   0  0  0  0  0  0  0  0  0  0  0  0
  158.8960  213.3500  146.7790 C   0  0  1  0  0  3  0  0  0  0  0  0
  158.8390  212.9110  144.5120 C   0  0  0  0  0  2  0  0  0  0  0  0
  160.3260  212.5810  144.3930 C   0  0  0  0  0  2  0  0  0  0  0  0
  160.9960  212.7630  145.7520 C   0  0  0  0  0  2  0  0  0  0  0  0
  158.6410  213.9030  145.4930 O   0  0  0  0  0  0  0  0  0  0  0  0
  1  9  1  0  0  0  0
  2 12  1  1  0  0  0
  2  6  1  0  0  0  0
  3  8  1  0  0  0  0
  4 15  1  0  0  0  0
  6  5  1  0  0  0  0
  7 12  1  0  0  0  0
  8  2  1  0  0  0  0
  8  1  1  0  0  0  0
  9  5  2  0  0  0  0
 10  3  1  0  0  0  0
 10 16  1  0  0  0  0
 11  1  2  0  0  0  0
 13  4  1  0  0  0  0
 13 14  1  0  0  0  0
 14 10  1  0  0  0  0
 15  7  1  0  0  0  0
 15  3  1  0  0  0  0
 16 11  1  0  0  0  0
 17 20  1  0  0  0  0
 18 17  2  0  0  0  0
 19 17  1  0  0  0  0
 19 14  1  0  0  0  0
 21 19  1  0  0  0  0
 22 23  1  0  0  0  0
 22 21  1  0  0  0  0
 23 21  1  0  0  0  0
 24  4  1  0  0  0  0
 25 24  1  0  0  0  0
 26 25  1  0  0  0  0
 27 26  1  0  0  0  0
 29 27  1  0  0  0  0
 30 29  1  0  0  0  0
 30 28  1  0  0  0  0
 31 34  1  0  0  0  0
 32 31  1  0  0  0  0
 32 33  1  0  0  0  0
 33 29  1  0  0  0  0
 34 30  1  0  0  0  0
M  END
>  <MODEL>
1

>  <REMARK>
 VINA RESULT:      -8.0      0.000      0.000
  Name = 
  7 active torsions:
  status: ('A' for Active; 'I' for Inactive)
    1  A    between atoms: C_3  and  N_13
    2  A    between atoms: C_3  and  C_17
    3  A    between atoms: C_5  and  O_18
    4  A    between atoms: C_12  and  N_23
    5  A    between atoms: C_17  and  C_29
    6  A    between atoms: O_18  and  C_29
    7  A    between atoms: N_23  and  C_28
                            x       y       z     vdW  Elec       q    Type
                         _______ _______ _______ _____ _____    ______ ____

>  <TORSDO>
F 7

$$$$
=
 OpenBabel11062408053D

 34 39  0  0  1  0  0  0  0  0999 V2000
  161.4620  206.3370  149.1720 C   0  0  0  0  0  0  0  0  0  0  0  0
  160.8330  205.2310  151.3220 C   0  0  2  0  0  3  0  0  0  0  0  0
  161.1140  207.6550  151.2800 C   0  0  2  0  0  3  0  0  0  0  0  0
  161.2840  209.0340  153.3500 C   0  0  1  0  0  3  0  0  0  0  0  0
  161.0300  203.9460  149.2330 C   0  0  0  0  0  3  0  0  0  0  0  0
  161.0560  203.9990  150.6390 O   0  0  0  0  0  0  0  0  0  0  0  0
  160.9340  206.5160  153.4890 C   0  0  0  0  0  2  0  0  0  0  0  0
  161.6150  206.3570  150.6650 C   0  0  2  0  0  3  0  0  0  0  0  0
  161.1890  205.0560  148.5010 C   0  0  0  0  0  3  0  0  0  0  0  0
  161.3650  208.9160  150.4130 C   0  0  1  0  0  3  0  0  0  0  0  0
  161.7170  207.4090  148.4830 N   0  0  0  0  0  0  0  0  0  0  0  0
  161.2170  205.1620  152.8040 C   0  0  0  0  0  2  0  0  0  0  0  0
  162.1330  210.0810  152.6430 C   0  0  0  0  0  2  0  0  0  0  0  0
  161.8280  210.1900  151.1420 C   0  0  2  0  0  3  0  0  0  0  0  0
  161.6000  207.6840  152.7300 C   0  0  1  0  0  3  0  0  0  0  0  0
  162.1670  208.6440  149.1350 C   0  0  0  0  0  2  0  0  0  0  0  0
  161.1660  212.1370  149.6330 C   0  0  0  0  0  0  0  0  0  0  0  0
  160.2580  212.9230  149.2510 O   0  0  0  0  0  0  0  0  0  0  0  0
  160.9840  211.3480  150.8300 N   0  0  0  0  0  0  0  0  0  0  0  0
  162.4220  212.0690  148.8310 C   0  0  0  0  0  1  0  0  0  0  0  0
  159.7830  211.5500  151.6460 C   0  0  0  0  0  3  0  0  0  0  0  0
  159.3600  213.0100  151.5980 C   0  0  0  0  0  2  0  0  0  0  0  0
  160.0750  212.4790  152.8170 C   0  0  0  0  0  2  0  0  0  0  0  0
  161.5970  209.0380  154.7140 O   0  0  0  0  0  0  0  0  0  0  0  0
  162.0200  210.3420  154.9830 C   0  0  0  0  0  2  0  0  0  0  0  0
  162.2960  210.4980  156.4670 C   0  0  0  0  0  2  0  0  0  0  0  0
  160.9960  210.7630  157.1980 C   0  0  0  0  0  2  0  0  0  0  0  0
  158.3190  210.6200  155.4850 C   0  0  0  0  0  1  0  0  0  0  0  0
  160.2430  211.7880  156.4940 N   0  0  0  0  0  0  0  0  0  0  0  0
  158.8110  211.4600  156.6550 C   0  0  1  0  0  3  0  0  0  0  0  0
  158.4060  213.6400  156.0060 C   0  0  0  0  0  2  0  0  0  0  0  0
  159.7460  214.1860  156.4950 C   0  0  0  0  0  2  0  0  0  0  0  0
  160.5430  213.0620  157.1500 C   0  0  0  0  0  2  0  0  0  0  0  0
  157.9740  212.5950  156.8470 O   0  0  0  0  0  0  0  0  0  0  0  0
  1  8  1  0  0  0  0
  2 12  1  1  0  0  0
  3 15  1  0  0  0  0
  4 24  1  0  0  0  0
  5  6  1  0  0  0  0
  6  2  1  0  0  0  0
  8  3  1  0  0  0  0
  8  2  1  0  0  0  0
  9  1  1  0  0  0  0
  9  5  2  0  0  0  0
 10 14  1  0  0  0  0
 10  3  1  0  0  0  0
 11 16  1  0  0  0  0
 11  1  2  0  0  0  0
 12  7  1  0  0  0  0
 13  4  1  0  0  0  0
 14 13  1  0  0  0  0
 15  4  1  0  0  0  0
 15  7  1  0  0  0  0
 16 10  1  0  0  0  0
 17 19  1  0  0  0  0
 18 17  2  0  0  0  0
 19 14  1  0  0  0  0
 19 21  1  0  0  0  0
 20 17  1  0  0  0  0
 21 23  1  0  0  0  0
 22 21  1  0  0  0  0
 22 23  1  0  0  0  0
 24 25  1  0  0  0  0
 25 26  1  0  0  0  0
 26 27  1  0  0  0  0
 28 30  1  0  0  0  0
 29 30  1  0  0  0  0
 29 33  1  0  0  0  0
 29 27  1  0  0  0  0
 30 34  1  0  0  0  0
 31 32  1  0  0  0  0
 31 34  1  0  0  0  0
 32 33  1  0  0  0  0
M  END
>  <MODEL>
2

>  <REMARK>
 VINA RESULT:      -7.3      2.678      7.487
  Name = 
  7 active torsions:
  status: ('A' for Active; 'I' for Inactive)
    1  A    between atoms: C_3  and  N_13
    2  A    between atoms: C_3  and  C_17
    3  A    between atoms: C_5  and  O_18
    4  A    between atoms: C_12  and  N_23
    5  A    between atoms: C_17  and  C_29
    6  A    between atoms: O_18  and  C_29
    7  A    between atoms: N_23  and  C_28
                            x       y       z     vdW  Elec       q    Type
                         _______ _______ _______ _____ _____    ______ ____

>  <TORSDO>
F 7

$$$$
=
 OpenBabel11062408053D

 34 39  0  0  1  0  0  0  0  0999 V2000
  161.4470  206.3300  149.1760 C   0  0  0  0  0  0  0  0  0  0  0  0
  160.8300  205.1620  151.2970 C   0  0  2  0  0  3  0  0  0  0  0  0
  161.0920  207.5890  151.3190 C   0  0  2  0  0  3  0  0  0  0  0  0
  161.2550  208.9130  153.4250 C   0  0  1  0  0  3  0  0  0  0  0  0
  161.0340  203.9360  149.1740 C   0  0  0  0  0  3  0  0  0  0  0  0
  161.0620  203.9510  150.5800 O   0  0  0  0  0  0  0  0  0  0  0  0
  160.9250  206.3900  153.4970 C   0  0  0  0  0  2  0  0  0  0  0  0
  161.6030  206.3120  150.6690 C   0  0  2  0  0  3  0  0  0  0  0  0
  161.1830  205.0660  148.4710 C   0  0  0  0  0  3  0  0  0  0  0  0
  161.3320  208.8750  150.4860 C   0  0  1  0  0  3  0  0  0  0  0  0
  161.6930  207.4230  148.5160 N   0  0  0  0  0  0  0  0  0  0  0  0
  161.2170  205.0570  152.7750 C   0  0  0  0  0  2  0  0  0  0  0  0
  162.0940  209.9860  152.7450 C   0  0  0  0  0  2  0  0  0  0  0  0
  161.7870  210.1320  151.2480 C   0  0  2  0  0  3  0  0  0  0  0  0
  161.5810  207.5820  152.7680 C   0  0  1  0  0  3  0  0  0  0  0  0
  162.1340  208.6430  149.2000 C   0  0  0  0  0  2  0  0  0  0  0  0
  161.0840  212.0920  149.7750 C   0  0  0  0  0  0  0  0  0  0  0  0
  160.1650  212.8810  149.4230 O   0  0  0  0  0  0  0  0  0  0  0  0
  160.9330  211.2920  150.9690 N   0  0  0  0  0  0  0  0  0  0  0  0
  162.3200  212.0350  148.9420 C   0  0  0  0  0  1  0  0  0  0  0  0
  159.7520  211.4830  151.8150 C   0  0  0  0  0  3  0  0  0  0  0  0
  159.2690  212.9220  151.7180 C   0  0  0  0  0  2  0  0  0  0  0  0
  160.0440  212.4740  152.9340 C   0  0  0  0  0  2  0  0  0  0  0  0
  161.5700  208.8830  154.7880 O   0  0  0  0  0  0  0  0  0  0  0  0
  161.1070  210.1010  155.2920 C   0  0  0  0  0  2  0  0  0  0  0  0
  159.6300  209.9930  155.6230 C   0  0  0  0  0  2  0  0  0  0  0  0
  159.2820  210.9870  156.7130 C   0  0  0  0  0  2  0  0  0  0  0  0
  158.1690  213.9160  157.2590 C   0  0  0  0  0  1  0  0  0  0  0  0
  158.0010  211.6050  156.4150 N   0  0  0  0  0  0  0  0  0  0  0  0
  158.2730  213.0080  156.0420 C   0  0  1  0  0  3  0  0  0  0  0  0
  156.1480  213.0120  155.1390 C   0  0  0  0  0  2  0  0  0  0  0  0
  156.1040  211.5100  154.8670 C   0  0  0  0  0  2  0  0  0  0  0  0
  157.4350  210.8830  155.2740 C   0  0  0  0  0  2  0  0  0  0  0  0
  157.4620  213.4950  154.9790 O   0  0  0  0  0  0  0  0  0  0  0  0
  1  8  1  0  0  0  0
  2 12  1  1  0  0  0
  3 15  1  0  0  0  0
  4 24  1  0  0  0  0
  5  6  1  0  0  0  0
  6  2  1  0  0  0  0
  8  2  1  0  0  0  0
  8  3  1  0  0  0  0
  9  5  2  0  0  0  0
  9  1  1  0  0  0  0
 10 14  1  0  0  0  0
 10  3  1  0  0  0  0
 11  1  2  0  0  0  0
 11 16  1  0  0  0  0
 12  7  1  0  0  0  0
 13  4  1  0  0  0  0
 14 13  1  0  0  0  0
 15  4  1  0  0  0  0
 15  7  1  0  0  0  0
 16 10  1  0  0  0  0
 17 19  1  0  0  0  0
 18 17  2  0  0  0  0
 19 14  1  0  0  0  0
 19 21  1  0  0  0  0
 20 17  1  0  0  0  0
 21 23  1  0  0  0  0
 22 21  1  0  0  0  0
 22 23  1  0  0  0  0
 24 25  1  0  0  0  0
 25 26  1  0  0  0  0
 26 27  1  0  0  0  0
 29 27  1  0  0  0  0
 30 29  1  0  0  0  0
 30 28  1  0  0  0  0
 32 31  1  0  0  0  0
 32 33  1  0  0  0  0
 33 29  1  0  0  0  0
 34 31  1  0  0  0  0
 34 30  1  0  0  0  0
M  END
>  <MODEL>
3

>  <REMARK>
 VINA RESULT:      -7.2      2.671      7.324
  Name = 
  7 active torsions:
  status: ('A' for Active; 'I' for Inactive)
    1  A    between atoms: C_3  and  N_13
    2  A    between atoms: C_3  and  C_17
    3  A    between atoms: C_5  and  O_18
    4  A    between atoms: C_12  and  N_23
    5  A    between atoms: C_17  and  C_29
    6  A    between atoms: O_18  and  C_29
    7  A    between atoms: N_23  and  C_28
                            x       y       z     vdW  Elec       q    Type
                         _______ _______ _______ _____ _____    ______ ____

>  <TORSDO>
F 7

$$$$
=
 OpenBabel11062408053D

 34 39  0  0  1  0  0  0  0  0999 V2000
  161.6120  204.0830  147.3040 C   0  0  0  0  0  0  0  0  0  0  0  0
  160.4580  202.6440  148.9900 C   0  0  2  0  0  3  0  0  0  0  0  0
  161.2210  204.8650  149.6570 C   0  0  2  0  0  3  0  0  0  0  0  0
  161.3500  205.5920  152.0380 C   0  0  1  0  0  3  0  0  0  0  0  0
  160.7070  201.9240  146.6500 C   0  0  0  0  0  3  0  0  0  0  0  0
  160.5310  201.6100  148.0100 O   0  0  0  0  0  0  0  0  0  0  0  0
  160.4870  203.2750  151.4300 C   0  0  0  0  0  2  0  0  0  0  0  0
  161.5400  203.6860  148.7490 C   0  0  2  0  0  3  0  0  0  0  0  0
  161.1920  203.1150  146.2770 C   0  0  0  0  0  3  0  0  0  0  0  0
  161.8450  206.2100  149.2070 C   0  0  1  0  0  3  0  0  0  0  0  0
  162.1760  205.2050  146.9710 N   0  0  0  0  0  0  0  0  0  0  0  0
  160.5940  202.1130  150.4200 C   0  0  0  0  0  2  0  0  0  0  0  0
  162.4860  206.5570  151.7340 C   0  0  0  0  0  2  0  0  0  0  0  0
  162.4390  207.1120  150.3040 C   0  0  2  0  0  3  0  0  0  0  0  0
  161.4790  204.4090  151.0940 C   0  0  1  0  0  3  0  0  0  0  0  0
  162.7600  206.0930  147.9820 C   0  0  0  0  0  2  0  0  0  0  0  0
  161.9500  209.2850  149.0600 C   0  0  0  0  0  0  0  0  0  0  0  0
  161.2290  210.3140  148.9630 O   0  0  0  0  0  0  0  0  0  0  0  0
  161.8990  208.4760  150.2560 N   0  0  0  0  0  0  0  0  0  0  0  0
  162.8600  208.9530  147.9250 C   0  0  0  0  0  1  0  0  0  0  0  0
  161.0820  208.9200  151.3880 C   0  0  0  0  0  3  0  0  0  0  0  0
  161.2100  210.4250  151.5640 C   0  0  0  0  0  2  0  0  0  0  0  0
  161.9570  209.4980  152.4920 C   0  0  0  0  0  2  0  0  0  0  0  0
  161.4480  205.1750  153.3710 O   0  0  0  0  0  0  0  0  0  0  0  0
  161.6310  206.3510  154.1030 C   0  0  0  0  0  2  0  0  0  0  0  0
  160.2840  206.9140  154.5180 C   0  0  0  0  0  2  0  0  0  0  0  0
  160.3810  207.4740  155.9230 C   0  0  0  0  0  2  0  0  0  0  0  0
  158.9890  210.2810  155.3730 C   0  0  0  0  0  1  0  0  0  0  0  0
  160.9160  208.8240  155.8710 N   0  0  0  0  0  0  0  0  0  0  0  0
  159.8960  209.7170  156.4580 C   0  0  1  0  0  3  0  0  0  0  0  0
  161.5960  211.2680  156.6490 C   0  0  0  0  0  2  0  0  0  0  0  0
  162.7210  210.2380  156.7320 C   0  0  0  0  0  2  0  0  0  0  0  0
  162.1260  208.8340  156.6950 C   0  0  0  0  0  2  0  0  0  0  0  0
  160.4310  210.7630  157.2610 O   0  0  0  0  0  0  0  0  0  0  0  0
  1  8  1  0  0  0  0
  2 12  1  1  0  0  0
  3 15  1  0  0  0  0
  4 24  1  0  0  0  0
  5  6  1  0  0  0  0
  6  2  1  0  0  0  0
  8  2  1  0  0  0  0
  8  3  1  0  0  0  0
  9  5  2  0  0  0  0
  9  1  1  0  0  0  0
 10  3  1  0  0  0  0
 10 14  1  0  0  0  0
 11  1  2  0  0  0  0
 11 16  1  0  0  0  0
 12  7  1  0  0  0  0
 13  4  1  0  0  0  0
 14 13  1  0  0  0  0
 15  7  1  0  0  0  0
 15  4  1  0  0  0  0
 16 10  1  0  0  0  0
 17 19  1  0  0  0  0
 18 17  2  0  0  0  0
 19 14  1  0  0  0  0
 19 21  1  0  0  0  0
 20 17  1  0  0  0  0
 21 22  1  0  0  0  0
 21 23  1  0  0  0  0
 22 23  1  0  0  0  0
 24 25  1  0  0  0  0
 25 26  1  0  0  0  0
 26 27  1  0  0  0  0
 28 30  1  0  0  0  0
 29 27  1  0  0  0  0
 29 30  1  0  0  0  0
 29 33  1  0  0  0  0
 30 34  1  0  0  0  0
 31 32  1  0  0  0  0
 31 34  1  0  0  0  0
 33 32  1  0  0  0  0
M  END
>  <MODEL>
4

>  <REMARK>
 VINA RESULT:      -6.8      3.002      8.180
  Name = 
  7 active torsions:
  status: ('A' for Active; 'I' for Inactive)
    1  A    between atoms: C_3  and  N_13
    2  A    between atoms: C_3  and  C_17
    3  A    between atoms: C_5  and  O_18
    4  A    between atoms: C_12  and  N_23
    5  A    between atoms: C_17  and  C_29
    6  A    between atoms: O_18  and  C_29
    7  A    between atoms: N_23  and  C_28
                            x       y       z     vdW  Elec       q    Type
                         _______ _______ _______ _____ _____    ______ ____

>  <TORSDO>
F 7

$$$$
=
 OpenBabel11062408053D

 34 39  0  0  1  0  0  0  0  0999 V2000
  161.0130  206.1740  153.3920 C   0  0  0  0  0  0  0  0  0  0  0  0
  161.9690  207.1930  151.3210 C   0  0  2  0  0  3  0  0  0  0  0  0
  161.1910  208.6610  153.1090 C   0  0  2  0  0  3  0  0  0  0  0  0
  160.8470  211.1110  152.7960 C   0  0  1  0  0  3  0  0  0  0  0  0
  161.9330  204.7550  151.6460 C   0  0  0  0  0  3  0  0  0  0  0  0
  161.9690  205.8690  150.7890 O   0  0  0  0  0  0  0  0  0  0  0  0
  161.7170  209.6640  150.8890 C   0  0  0  0  0  2  0  0  0  0  0  0
  160.9370  207.3230  152.4310 C   0  0  2  0  0  3  0  0  0  0  0  0
  161.5100  204.8740  152.9110 C   0  0  0  0  0  3  0  0  0  0  0  0
  160.6400  208.7640  154.5550 C   0  0  1  0  0  3  0  0  0  0  0  0
  160.5070  206.2940  154.5830 N   0  0  0  0  0  0  0  0  0  0  0  0
  161.6850  208.2570  150.2560 C   0  0  0  0  0  2  0  0  0  0  0  0
  159.7650  211.1470  153.8650 C   0  0  0  0  0  2  0  0  0  0  0  0
  159.9620  210.0860  154.9570 C   0  0  2  0  0  3  0  0  0  0  0  0
  160.7850  209.7530  152.1170 C   0  0  1  0  0  3  0  0  0  0  0  0
  159.8460  207.5330  155.0070 C   0  0  0  0  0  2  0  0  0  0  0  0
  161.9130  211.0660  156.2760 C   0  0  0  0  0  0  0  0  0  0  0  0
  162.2890  211.8090  157.2220 O   0  0  0  0  0  0  0  0  0  0  0  0
  160.5310  210.6530  156.1840 N   0  0  0  0  0  0  0  0  0  0  0  0
  162.9340  210.6180  155.2840 C   0  0  0  0  0  1  0  0  0  0  0  0
  159.6010  211.0200  157.2560 C   0  0  0  0  0  3  0  0  0  0  0  0
  158.2440  211.3750  156.6680 C   0  0  0  0  0  2  0  0  0  0  0  0
  159.1730  212.4760  157.1240 C   0  0  0  0  0  2  0  0  0  0  0  0
  160.6120  212.1360  151.8730 O   0  0  0  0  0  0  0  0  0  0  0  0
  159.4710  212.7900  152.3450 C   0  0  0  0  0  2  0  0  0  0  0  0
  158.5540  213.1280  151.1840 C   0  0  0  0  0  2  0  0  0  0  0  0
  159.2770  214.0440  150.2170 C   0  0  0  0  0  2  0  0  0  0  0  0
  157.4980  213.2230  147.7110 C   0  0  0  0  0  1  0  0  0  0  0  0
  159.5970  213.3120  149.0030 N   0  0  0  0  0  0  0  0  0  0  0  0
  158.8280  213.9370  147.9060 C   0  0  1  0  0  3  0  0  0  0  0  0
  160.2800  212.8420  146.4820 C   0  0  0  0  0  2  0  0  0  0  0  0
  161.4370  212.7800  147.4770 C   0  0  0  0  0  2  0  0  0  0  0  0
  161.0320  213.4820  148.7700 C   0  0  0  0  0  2  0  0  0  0  0  0
  159.5380  214.0240  146.6760 O   0  0  0  0  0  0  0  0  0  0  0  0
  1 11  2  0  0  0  0
  2 12  1  6  0  0  0
  2  8  1  0  0  0  0
  3 10  1  0  0  0  0
  4 13  1  0  0  0  0
  5  9  2  0  0  0  0
  6  2  1  0  0  0  0
  6  5  1  0  0  0  0
  7 15  1  0  0  0  0
  8  3  1  0  0  0  0
  8  1  1  0  0  0  0
  9  1  1  0  0  0  0
 10 14  1  0  0  0  0
 10 16  1  0  0  0  0
 11 16  1  0  0  0  0
 12  7  1  0  0  0  0
 13 14  1  0  0  0  0
 14 19  1  0  0  0  0
 15  4  1  0  0  0  0
 15  3  1  0  0  0  0
 17 18  2  0  0  0  0
 19 17  1  0  0  0  0
 19 21  1  0  0  0  0
 20 17  1  0  0  0  0
 22 23  1  0  0  0  0
 22 21  1  0  0  0  0
 23 21  1  0  0  0  0
 24 25  1  0  0  0  0
 24  4  1  0  0  0  0
 26 25  1  0  0  0  0
 27 26  1  0  0  0  0
 28 30  1  0  0  0  0
 29 27  1  0  0  0  0
 30 29  1  0  0  0  0
 31 34  1  0  0  0  0
 31 32  1  0  0  0  0
 32 33  1  0  0  0  0
 33 29  1  0  0  0  0
 34 30  1  0  0  0  0
M  END
>  <MODEL>
5

>  <REMARK>
 VINA RESULT:      -6.5      1.983      5.485
  Name = 
  7 active torsions:
  status: ('A' for Active; 'I' for Inactive)
    1  A    between atoms: C_3  and  N_13
    2  A    between atoms: C_3  and  C_17
    3  A    between atoms: C_5  and  O_18
    4  A    between atoms: C_12  and  N_23
    5  A    between atoms: C_17  and  C_29
    6  A    between atoms: O_18  and  C_29
    7  A    between atoms: N_23  and  C_28
                            x       y       z     vdW  Elec       q    Type
                         _______ _______ _______ _____ _____    ______ ____

>  <TORSDO>
F 7

$$$$
=
 OpenBabel11062408053D

 34 39  0  0  1  0  0  0  0  0999 V2000
  157.8090  212.5350  154.1900 C   0  0  0  0  0  0  0  0  0  0  0  0
  158.1240  213.1310  151.7840 C   0  0  2  0  0  3  0  0  0  0  0  0
  159.4530  211.3180  152.7350 C   0  0  2  0  0  3  0  0  0  0  0  0
  161.4420  210.3510  151.5840 C   0  0  1  0  0  3  0  0  0  0  0  0
  156.4090  214.2340  153.1610 C   0  0  0  0  0  3  0  0  0  0  0  0
  157.2740  214.2450  152.0520 O   0  0  0  0  0  0  0  0  0  0  0  0
  160.0790  212.2030  150.4910 C   0  0  0  0  0  2  0  0  0  0  0  0
  158.7930  212.6490  153.0620 C   0  0  2  0  0  3  0  0  0  0  0  0
  156.6200  213.4020  154.1890 C   0  0  0  0  0  3  0  0  0  0  0  0
  159.7180  210.4120  153.9650 C   0  0  1  0  0  3  0  0  0  0  0  0
  158.0900  211.7900  155.2170 N   0  0  0  0  0  0  0  0  0  0  0  0
  159.2080  213.4500  150.7500 C   0  0  0  0  0  2  0  0  0  0  0  0
  162.0860  209.9700  152.9090 C   0  0  0  0  0  2  0  0  0  0  0  0
  161.0620  209.6630  154.0110 C   0  0  2  0  0  3  0  0  0  0  0  0
  160.6320  211.6170  151.8080 C   0  0  1  0  0  3  0  0  0  0  0  0
  159.3610  211.0630  155.3060 C   0  0  0  0  0  2  0  0  0  0  0  0
  160.5480  207.6650  155.5110 C   0  0  0  0  0  0  0  0  0  0  0  0
  160.1220  206.4820  155.5950 O   0  0  0  0  0  0  0  0  0  0  0  0
  160.8890  208.2220  154.2210 N   0  0  0  0  0  0  0  0  0  0  0  0
  160.7090  208.4470  156.7710 C   0  0  0  0  0  1  0  0  0  0  0  0
  160.8310  207.3660  153.0330 C   0  0  0  0  0  3  0  0  0  0  0  0
  160.9750  205.9060  153.4350 C   0  0  0  0  0  2  0  0  0  0  0  0
  162.1520  206.6340  152.8300 C   0  0  0  0  0  2  0  0  0  0  0  0
  162.4450  210.5670  150.6330 O   0  0  0  0  0  0  0  0  0  0  0  0
  161.9590  209.9880  149.4580 C   0  0  0  0  0  2  0  0  0  0  0  0
  161.6650  208.5180  149.6920 C   0  0  0  0  0  2  0  0  0  0  0  0
  162.0630  207.7210  148.4650 C   0  0  0  0  0  2  0  0  0  0  0  0
  160.8730  205.9830  146.0810 C   0  0  0  0  0  1  0  0  0  0  0  0
  161.3480  206.4560  148.4550 N   0  0  0  0  0  0  0  0  0  0  0  0
  161.7990  205.7140  147.2600 C   0  0  1  0  0  3  0  0  0  0  0  0
  160.9000  203.8470  148.2790 C   0  0  0  0  0  2  0  0  0  0  0  0
  161.0640  204.3690  149.7050 C   0  0  0  0  0  2  0  0  0  0  0  0
  161.7380  205.7370  149.6690 C   0  0  0  0  0  2  0  0  0  0  0  0
  161.9530  204.3150  147.4690 O   0  0  0  0  0  0  0  0  0  0  0  0
  1 11  2  0  0  0  0
  2 12  1  6  0  0  0
  2  6  1  0  0  0  0
  2  8  1  0  0  0  0
  3  8  1  0  0  0  0
  3 10  1  0  0  0  0
  4 15  1  0  0  0  0
  4 13  1  0  0  0  0
  5  9  2  0  0  0  0
  6  5  1  0  0  0  0
  7 12  1  0  0  0  0
  7 15  1  0  0  0  0
  8  1  1  0  0  0  0
  9  1  1  0  0  0  0
 10 14  1  0  0  0  0
 10 16  1  0  0  0  0
 11 16  1  0  0  0  0
 13 14  1  0  0  0  0
 14 19  1  0  0  0  0
 15  3  1  0  0  0  0
 17 18  2  0  0  0  0
 17 20  1  0  0  0  0
 19 17  1  0  0  0  0
 21 22  1  0  0  0  0
 21 19  1  0  0  0  0
 23 21  1  0  0  0  0
 23 22  1  0  0  0  0
 24  4  1  0  0  0  0
 25 26  1  0  0  0  0
 25 24  1  0  0  0  0
 27 26  1  0  0  0  0
 28 30  1  0  0  0  0
 29 27  1  0  0  0  0
 29 33  1  0  0  0  0
 30 34  1  0  0  0  0
 30 29  1  0  0  0  0
 31 32  1  0  0  0  0
 33 32  1  0  0  0  0
 34 31  1  0  0  0  0
M  END
>  <MODEL>
6

>  <REMARK>
 VINA RESULT:      -6.3      2.853      5.898
  Name = 
  7 active torsions:
  status: ('A' for Active; 'I' for Inactive)
    1  A    between atoms: C_3  and  N_13
    2  A    between atoms: C_3  and  C_17
    3  A    between atoms: C_5  and  O_18
    4  A    between atoms: C_12  and  N_23
    5  A    between atoms: C_17  and  C_29
    6  A    between atoms: O_18  and  C_29
    7  A    between atoms: N_23  and  C_28
                            x       y       z     vdW  Elec       q    Type
                         _______ _______ _______ _____ _____    ______ ____

>  <TORSDO>
F 7

$$$$
=
 OpenBabel11062408053D

 34 39  0  0  1  0  0  0  0  0999 V2000
  160.4520  208.1110  155.4110 C   0  0  0  0  0  0  0  0  0  0  0  0
  159.9650  210.2320  154.1840 C   0  0  2  0  0  3  0  0  0  0  0  0
  160.7940  208.3070  152.9320 C   0  0  2  0  0  3  0  0  0  0  0  0
  161.6390  208.4770  150.5920 C   0  0  1  0  0  3  0  0  0  0  0  0
  159.4900  210.0080  156.5870 C   0  0  0  0  0  3  0  0  0  0  0  0
  159.7720  210.8160  155.4710 O   0  0  0  0  0  0  0  0  0  0  0  0
  160.7390  210.5280  151.8030 C   0  0  0  0  0  2  0  0  0  0  0  0
  160.8630  209.0080  154.2800 C   0  0  2  0  0  3  0  0  0  0  0  0
  159.7750  208.6990  156.5780 C   0  0  0  0  0  3  0  0  0  0  0  0
  161.1780  206.8060  152.9670 C   0  0  1  0  0  3  0  0  0  0  0  0
  160.8280  206.8670  155.4150 N   0  0  0  0  0  0  0  0  0  0  0  0
  160.5730  211.2120  153.1760 C   0  0  0  0  0  2  0  0  0  0  0  0
  162.5720  207.2910  150.7900 C   0  0  0  0  0  2  0  0  0  0  0  0
  162.0460  206.2740  151.8130 C   0  0  2  0  0  3  0  0  0  0  0  0
  161.5170  209.2000  151.9230 C   0  0  1  0  0  3  0  0  0  0  0  0
  161.6600  206.3190  154.3390 C   0  0  0  0  0  2  0  0  0  0  0  0
  160.5980  205.1980  150.0090 C   0  0  0  0  0  0  0  0  0  0  0  0
  160.3540  204.1760  149.3130 O   0  0  0  0  0  0  0  0  0  0  0  0
  161.4550  205.0960  151.1690 N   0  0  0  0  0  0  0  0  0  0  0  0
  159.9620  206.4880  149.6140 C   0  0  0  0  0  1  0  0  0  0  0  0
  161.9500  203.7790  151.5810 C   0  0  0  0  0  3  0  0  0  0  0  0
  160.9950  202.6940  151.1090 C   0  0  0  0  0  2  0  0  0  0  0  0
  160.9830  203.1220  152.5580 C   0  0  0  0  0  2  0  0  0  0  0  0
  162.1750  209.3230  149.6160 O   0  0  0  0  0  0  0  0  0  0  0  0
  163.0050  208.5040  148.8460 C   0  0  0  0  0  2  0  0  0  0  0  0
  162.2110  207.8890  147.7090 C   0  0  0  0  0  2  0  0  0  0  0  0
  162.6840  206.4680  147.4720 C   0  0  0  0  0  2  0  0  0  0  0  0
  163.5890  204.0990  145.5530 C   0  0  0  0  0  1  0  0  0  0  0  0
  162.1370  205.9780  146.2180 N   0  0  0  0  0  0  0  0  0  0  0  0
  162.2870  204.5080  146.2260 C   0  0  1  0  0  3  0  0  0  0  0  0
  160.7320  204.5020  144.5180 C   0  0  0  0  0  2  0  0  0  0  0  0
  160.0590  205.8090  144.9330 C   0  0  0  0  0  2  0  0  0  0  0  0
  160.7180  206.3380  146.2030 C   0  0  0  0  0  2  0  0  0  0  0  0
  161.1850  203.8090  145.6580 O   0  0  0  0  0  0  0  0  0  0  0  0
  1 11  2  0  0  0  0
  1  9  1  0  0  0  0
  2 12  1  6  0  0  0
  2  8  1  0  0  0  0
  2  6  1  0  0  0  0
  3 10  1  0  0  0  0
  3  8  1  0  0  0  0
  4 13  1  0  0  0  0
  4 15  1  0  0  0  0
  6  5  1  0  0  0  0
  7 15  1  0  0  0  0
  7 12  1  0  0  0  0
  8  1  1  0  0  0  0
  9  5  2  0  0  0  0
 10 16  1  0  0  0  0
 13 14  1  0  0  0  0
 14 10  1  0  0  0  0
 15  3  1  0  0  0  0
 16 11  1  0  0  0  0
 17 19  1  0  0  0  0
 18 17  2  0  0  0  0
 19 21  1  0  0  0  0
 19 14  1  0  0  0  0
 20 17  1  0  0  0  0
 21 23  1  0  0  0  0
 22 21  1  0  0  0  0
 22 23  1  0  0  0  0
 24  4  1  0  0  0  0
 25 24  1  0  0  0  0
 26 25  1  0  0  0  0
 27 26  1  0  0  0  0
 28 30  1  0  0  0  0
 29 30  1  0  0  0  0
 29 27  1  0  0  0  0
 31 32  1  0  0  0  0
 31 34  1  0  0  0  0
 32 33  1  0  0  0  0
 33 29  1  0  0  0  0
 34 30  1  0  0  0  0
M  END
>  <MODEL>
7

>  <REMARK>
 VINA RESULT:      -6.1      3.144      4.504
  Name = 
  7 active torsions:
  status: ('A' for Active; 'I' for Inactive)
    1  A    between atoms: C_3  and  N_13
    2  A    between atoms: C_3  and  C_17
    3  A    between atoms: C_5  and  O_18
    4  A    between atoms: C_12  and  N_23
    5  A    between atoms: C_17  and  C_29
    6  A    between atoms: O_18  and  C_29
    7  A    between atoms: N_23  and  C_28
                            x       y       z     vdW  Elec       q    Type
                         _______ _______ _______ _____ _____    ______ ____

>  <TORSDO>
F 7

$$$$
=
 OpenBabel11062408053D

 34 39  0  0  1  0  0  0  0  0999 V2000
  160.1770  208.1790  155.1660 C   0  0  0  0  0  0  0  0  0  0  0  0
  159.9790  210.4040  154.0470 C   0  0  2  0  0  3  0  0  0  0  0  0
  160.8420  208.5110  152.7690 C   0  0  2  0  0  3  0  0  0  0  0  0
  161.9870  208.7730  150.5690 C   0  0  1  0  0  3  0  0  0  0  0  0
  159.1900  210.0580  156.3510 C   0  0  0  0  0  3  0  0  0  0  0  0
  159.6600  210.9150  155.3390 O   0  0  0  0  0  0  0  0  0  0  0  0
  161.0670  210.7990  151.8060 C   0  0  0  0  0  2  0  0  0  0  0  0
  160.7820  209.1170  154.1630 C   0  0  2  0  0  3  0  0  0  0  0  0
  159.3940  208.7360  156.2810 C   0  0  0  0  0  3  0  0  0  0  0  0
  161.1270  206.9870  152.7410 C   0  0  1  0  0  3  0  0  0  0  0  0
  160.4720  206.9140  155.1260 N   0  0  0  0  0  0  0  0  0  0  0  0
  160.7700  211.4030  153.1950 C   0  0  0  0  0  2  0  0  0  0  0  0
  162.8140  207.5150  150.7930 C   0  0  0  0  0  2  0  0  0  0  0  0
  162.1010  206.4730  151.6670 C   0  0  2  0  0  3  0  0  0  0  0  0
  161.7410  209.4150  151.9240 C   0  0  1  0  0  3  0  0  0  0  0  0
  161.4000  206.3800  154.1230 C   0  0  0  0  0  2  0  0  0  0  0  0
  160.9190  205.6070  149.5780 C   0  0  0  0  0  0  0  0  0  0  0  0
  160.7080  204.6360  148.8030 O   0  0  0  0  0  0  0  0  0  0  0  0
  161.5260  205.3830  150.8710 N   0  0  0  0  0  0  0  0  0  0  0  0
  160.5030  206.9680  149.1320 C   0  0  0  0  0  1  0  0  0  0  0  0
  161.7970  204.0100  151.3070 C   0  0  0  0  0  3  0  0  0  0  0  0
  160.7860  203.0580  150.6880 C   0  0  0  0  0  2  0  0  0  0  0  0
  160.6400  203.4680  152.1340 C   0  0  0  0  0  2  0  0  0  0  0  0
  162.6940  209.6410  149.7300 O   0  0  0  0  0  0  0  0  0  0  0  0
  161.8100  209.9340  148.6880 C   0  0  0  0  0  2  0  0  0  0  0  0
  161.5070  211.4210  148.6720 C   0  0  0  0  0  2  0  0  0  0  0  0
  161.7190  211.9650  147.2740 C   0  0  0  0  0  2  0  0  0  0  0  0
  160.1490  212.8280  144.6450 C   0  0  0  0  0  1  0  0  0  0  0  0
  160.7720  213.0390  147.0230 N   0  0  0  0  0  0  0  0  0  0  0  0
  159.7600  212.5120  146.0830 C   0  0  1  0  0  3  0  0  0  0  0  0
  158.4590  214.3060  146.7330 C   0  0  0  0  0  2  0  0  0  0  0  0
  159.0960  214.4530  148.1130 C   0  0  0  0  0  2  0  0  0  0  0  0
  160.1460  213.3620  148.3050 C   0  0  0  0  0  2  0  0  0  0  0  0
  158.4330  212.9490  146.3540 O   0  0  0  0  0  0  0  0  0  0  0  0
  1  9  1  0  0  0  0
  2 12  1  1  0  0  0
  2  8  1  0  0  0  0
  2  6  1  0  0  0  0
  3  8  1  0  0  0  0
  4 13  1  0  0  0  0
  4 15  1  0  0  0  0
  6  5  1  0  0  0  0
  7 15  1  0  0  0  0
  7 12  1  0  0  0  0
  8  1  1  0  0  0  0
  9  5  2  0  0  0  0
 10  3  1  0  0  0  0
 10 16  1  0  0  0  0
 11  1  2  0  0  0  0
 13 14  1  0  0  0  0
 14 10  1  0  0  0  0
 15  3  1  0  0  0  0
 16 11  1  0  0  0  0
 17 19  1  0  0  0  0
 18 17  2  0  0  0  0
 19 21  1  0  0  0  0
 19 14  1  0  0  0  0
 20 17  1  0  0  0  0
 21 23  1  0  0  0  0
 22 21  1  0  0  0  0
 22 23  1  0  0  0  0
 24  4  1  0  0  0  0
 25 24  1  0  0  0  0
 26 25  1  0  0  0  0
 27 26  1  0  0  0  0
 28 30  1  0  0  0  0
 29 27  1  0  0  0  0
 29 33  1  0  0  0  0
 30 34  1  0  0  0  0
 30 29  1  0  0  0  0
 31 32  1  0  0  0  0
 32 33  1  0  0  0  0
 34 31  1  0  0  0  0
M  END
>  <MODEL>
8

>  <REMARK>
 VINA RESULT:      -6.0      1.000      2.099
  Name = 
  7 active torsions:
  status: ('A' for Active; 'I' for Inactive)
    1  A    between atoms: C_3  and  N_13
    2  A    between atoms: C_3  and  C_17
    3  A    between atoms: C_5  and  O_18
    4  A    between atoms: C_12  and  N_23
    5  A    between atoms: C_17  and  C_29
    6  A    between atoms: O_18  and  C_29
    7  A    between atoms: N_23  and  C_28
                            x       y       z     vdW  Elec       q    Type
                         _______ _______ _______ _____ _____    ______ ____

>  <TORSDO>
F 7

$$$$
=
 OpenBabel11062408053D

 34 39  0  0  1  0  0  0  0  0999 V2000
  160.6300  202.6940  148.7040 C   0  0  0  0  0  0  0  0  0  0  0  0
  161.9650  203.6350  146.8140 C   0  0  2  0  0  3  0  0  0  0  0  0
  161.5330  205.0350  148.7660 C   0  0  2  0  0  3  0  0  0  0  0  0
  161.9290  207.4970  148.7790 C   0  0  1  0  0  3  0  0  0  0  0  0
  161.2080  201.2940  146.8050 C   0  0  0  0  0  3  0  0  0  0  0  0
  161.6180  202.4450  146.1080 O   0  0  0  0  0  0  0  0  0  0  0  0
  162.4620  206.1040  146.7150 C   0  0  0  0  0  2  0  0  0  0  0  0
  160.9470  203.9250  147.9060 C   0  0  2  0  0  3  0  0  0  0  0  0
  160.7600  201.3760  148.0640 C   0  0  0  0  0  3  0  0  0  0  0  0
  160.9460  205.1170  150.1990 C   0  0  1  0  0  3  0  0  0  0  0  0
  160.1060  202.8110  149.8880 N   0  0  0  0  0  0  0  0  0  0  0  0
  162.0660  204.8580  145.8970 C   0  0  0  0  0  2  0  0  0  0  0  0
  160.8390  207.7180  149.8180 C   0  0  0  0  0  2  0  0  0  0  0  0
  160.6540  206.5200  150.7600 C   0  0  2  0  0  3  0  0  0  0  0  0
  161.5220  206.3110  147.9220 C   0  0  1  0  0  3  0  0  0  0  0  0
  159.8050  204.1280  150.4610 C   0  0  0  0  0  2  0  0  0  0  0  0
  161.6600  205.6480  152.9360 C   0  0  0  0  0  0  0  0  0  0  0  0
  162.4530  205.8490  153.8950 O   0  0  0  0  0  0  0  0  0  0  0  0
  161.2850  206.7390  152.0660 N   0  0  0  0  0  0  0  0  0  0  0  0
  161.1130  204.2730  152.7500 C   0  0  0  0  0  1  0  0  0  0  0  0
  161.7530  208.0940  152.3730 C   0  0  0  0  0  3  0  0  0  0  0  0
  161.2100  208.5400  153.7210 C   0  0  0  0  0  2  0  0  0  0  0  0
  160.5830  209.0650  152.4520 C   0  0  0  0  0  2  0  0  0  0  0  0
  162.0570  208.6510  147.9990 O   0  0  0  0  0  0  0  0  0  0  0  0
  161.9830  209.7100  148.9070 C   0  0  0  0  0  2  0  0  0  0  0  0
  162.3800  211.0050  148.2230 C   0  0  0  0  0  2  0  0  0  0  0  0
  161.4690  212.1230  148.6890 C   0  0  0  0  0  2  0  0  0  0  0  0
  163.0170  214.4530  147.1740 C   0  0  0  0  0  1  0  0  0  0  0  0
  161.0980  212.9510  147.5530 N   0  0  0  0  0  0  0  0  0  0  0  0
  162.3220  213.1650  146.7540 C   0  0  1  0  0  3  0  0  0  0  0  0
  160.9030  213.8080  145.0500 C   0  0  0  0  0  2  0  0  0  0  0  0
  159.7140  212.9800  145.5320 C   0  0  0  0  0  2  0  0  0  0  0  0
  160.1170  212.1920  146.7760 C   0  0  0  0  0  2  0  0  0  0  0  0
  162.1090  213.1430  145.3480 O   0  0  0  0  0  0  0  0  0  0  0  0
  1 11  2  0  0  0  0
  2 12  1  6  0  0  0
  2  8  1  0  0  0  0
  3 10  1  0  0  0  0
  4 13  1  0  0  0  0
  5  9  2  0  0  0  0
  6  5  1  0  0  0  0
  6  2  1  0  0  0  0
  7 15  1  0  0  0  0
  8  1  1  0  0  0  0
  8  3  1  0  0  0  0
  9  1  1  0  0  0  0
 10 16  1  0  0  0  0
 10 14  1  0  0  0  0
 11 16  1  0  0  0  0
 12  7  1  0  0  0  0
 13 14  1  0  0  0  0
 14 19  1  0  0  0  0
 15  3  1  0  0  0  0
 15  4  1  0  0  0  0
 17 18  2  0  0  0  0
 19 21  1  0  0  0  0
 19 17  1  0  0  0  0
 20 17  1  0  0  0  0
 21 23  1  0  0  0  0
 21 22  1  0  0  0  0
 23 22  1  0  0  0  0
 24  4  1  0  0  0  0
 24 25  1  0  0  0  0
 26 27  1  0  0  0  0
 26 25  1  0  0  0  0
 29 27  1  0  0  0  0
 30 28  1  0  0  0  0
 30 29  1  0  0  0  0
 31 34  1  0  0  0  0
 31 32  1  0  0  0  0
 32 33  1  0  0  0  0
 33 29  1  0  0  0  0
 34 30  1  0  0  0  0
M  END
>  <MODEL>
9

>  <REMARK>
 VINA RESULT:      -6.0      2.292      5.854
  Name = 
  7 active torsions:
  status: ('A' for Active; 'I' for Inactive)
    1  A    between atoms: C_3  and  N_13
    2  A    between atoms: C_3  and  C_17
    3  A    between atoms: C_5  and  O_18
    4  A    between atoms: C_12  and  N_23
    5  A    between atoms: C_17  and  C_29
    6  A    between atoms: O_18  and  C_29
    7  A    between atoms: N_23  and  C_28
                            x       y       z     vdW  Elec       q    Type
                         _______ _______ _______ _____ _____    ______ ____

>  <TORSDO>
F 7

$$$$
