=
 OpenBabel11052421533D

 30 32  0  0  1  0  0  0  0  0999 V2000
  161.3390  209.6960  151.3050 C   0  0  2  0  0  3  0  0  0  0  0  0
  160.8410  210.2300  152.6530 C   0  0  2  0  0  3  0  0  0  0  0  0
  161.0210  206.6210  153.4370 C   0  0  0  0  0  3  0  0  0  0  0  0
  161.0520  207.8720  152.8140 C   0  0  0  0  0  0  0  0  0  0  0  0
  160.4990  208.9840  154.8820 C   0  0  0  0  0  3  0  0  0  0  0  0
  160.7750  209.0210  153.5120 C   0  0  0  0  0  0  0  0  0  0  0  0
  161.3070  208.1470  151.3800 C   0  0  2  0  0  3  0  0  0  0  0  0
  160.4800  207.7400  155.5310 C   0  0  0  0  0  3  0  0  0  0  0  0
  160.7350  206.5620  154.8090 C   0  0  0  0  0  3  0  0  0  0  0  0
  162.6300  210.1850  151.0780 O   0  0  0  0  0  1  0  0  0  0  0  0
  159.4610  210.8530  152.4630 C   0  0  0  0  0  2  0  0  0  0  0  0
  159.3080  213.3550  152.1990 C   0  0  0  0  0  3  0  0  0  0  0  0
  159.4250  212.2630  152.9650 C   0  0  0  0  0  3  0  0  0  0  0  0
  159.1510  213.3520  150.7710 N   0  0  0  0  0  0  0  0  0  0  0  0
  157.8630  213.5510  150.1220 C   0  0  0  0  0  1  0  0  0  0  0  0
  160.3410  213.4240  149.9370 C   0  0  0  0  0  2  0  0  0  0  0  0
  159.9750  213.6790  148.4790 C   0  0  0  0  0  2  0  0  0  0  0  0
  160.6270  212.6930  147.5690 C   0  0  0  0  0  0  0  0  0  0  0  0
  160.0040  212.4410  146.0720 S   0  0  0  0  0  0  0  0  0  0  0  0
  161.7750  211.9750  148.0310 N   0  0  0  0  0  2  0  0  0  0  0  0
  163.1400  212.4450  147.8530 C   0  0  0  0  0  1  0  0  0  0  0  0
  162.5920  207.4700  150.9010 C   0  0  0  0  0  2  0  0  0  0  0  0
  162.3240  206.6040  149.6800 C   0  0  1  0  0  3  0  0  0  0  0  0
  160.9340  206.0330  149.7100 C   0  0  1  0  0  3  0  0  0  0  0  0
  160.3040  206.5430  148.4300 C   0  0  0  0  0  2  0  0  0  0  0  0
  162.3320  207.4630  148.4390 C   0  0  0  0  0  2  0  0  0  0  0  0
  161.3210  207.0080  147.5830 O   0  0  0  0  0  0  0  0  0  0  0  0
  161.0150  204.5140  149.6910 C   0  0  0  0  0  2  0  0  0  0  0  0
  160.4200  203.9150  150.9560 C   0  0  0  0  0  2  0  0  0  0  0  0
  161.4900  203.1910  151.7520 C   0  0  0  0  0  1  0  0  0  0  0  0
  1 10  1  1  0  0  0
  1  7  1  0  0  0  0
  1  2  1  0  0  0  0
  2 11  1  6  0  0  0
  2  6  1  0  0  0  0
  3  9  1  0  0  0  0
  4  3  2  0  0  0  0
  4  6  1  0  0  0  0
  5  8  1  0  0  0  0
  6  5  2  0  0  0  0
  7 22  1  1  0  0  0
  7  4  1  0  0  0  0
  9  8  2  0  0  0  0
 11 13  1  0  0  0  0
 12 13  2  0  0  0  0
 14 12  1  0  0  0  0
 15 14  1  0  0  0  0
 16 14  1  0  0  0  0
 17 16  1  0  0  0  0
 18 20  1  0  0  0  0
 18 17  1  0  0  0  0
 19 18  2  0  0  0  0
 21 20  1  0  0  0  0
 23 24  1  0  0  0  0
 23 22  1  1  0  0  0
 24 28  1  6  0  0  0
 25 24  1  0  0  0  0
 26 23  1  0  0  0  0
 27 25  1  0  0  0  0
 27 26  1  0  0  0  0
 28 29  1  0  0  0  0
 29 30  1  0  0  0  0
M  END
>  <MODEL>
1

>  <REMARK>
 VINA RESULT:      -7.1      0.000      0.000
  Name = 
  11 active torsions:
  status: ('A' for Active; 'I' for Inactive)
    1  A    between atoms: C_1  and  C_5
    2  A    between atoms: C_1  and  C_22
    3  A    between atoms: C_2  and  N_18
    4  A    between atoms: N_3  and  C_28
    5  A    between atoms: C_7  and  C_30
    6  A    between atoms: C_10  and  C_25
    7  A    between atoms: C_11  and  C_25
    8  A    between atoms: C_13  and  C_30
    9  A    between atoms: C_14  and  N_18
   10  A    between atoms: C_14  and  C_20
   11  A    between atoms: C_20  and  C_28
                            x       y       z     vdW  Elec       q    Type
                         _______ _______ _______ _____ _____    ______ ____

>  <TORSDO>
F 11

$$$$
=
 OpenBabel11052421533D

 30 32  0  0  1  0  0  0  0  0999 V2000
  161.6930  207.8930  149.2490 C   0  0  2  0  0  3  0  0  0  0  0  0
  162.3750  207.5050  150.5670 C   0  0  2  0  0  3  0  0  0  0  0  0
  160.1310  204.5970  150.1420 C   0  0  0  0  0  3  0  0  0  0  0  0
  160.8150  205.8090  150.0020 C   0  0  0  0  0  0  0  0  0  0  0  0
  162.1890  205.3230  151.9240 C   0  0  0  0  0  3  0  0  0  0  0  0
  161.8010  206.1730  150.8850 C   0  0  0  0  0  0  0  0  0  0  0  0
  160.5640  206.8620  148.9900 C   0  0  2  0  0  3  0  0  0  0  0  0
  161.5290  204.0940  152.0720 C   0  0  0  0  0  3  0  0  0  0  0  0
  160.4990  203.7350  151.1850 C   0  0  0  0  0  3  0  0  0  0  0  0
  162.6520  207.8910  148.2300 O   0  0  0  0  0  1  0  0  0  0  0  0
  162.0180  208.5340  151.6340 C   0  0  0  0  0  2  0  0  0  0  0  0
  161.4080  210.9800  151.6200 C   0  0  0  0  0  3  0  0  0  0  0  0
  162.0270  209.9240  151.0770 C   0  0  0  0  0  3  0  0  0  0  0  0
  160.6730  210.9650  152.8540 N   0  0  0  0  0  0  0  0  0  0  0  0
  159.2200  210.8780  152.9010 C   0  0  0  0  0  1  0  0  0  0  0  0
  161.3980  210.7570  154.0970 C   0  0  0  0  0  2  0  0  0  0  0  0
  160.5360  210.0260  155.1210 C   0  0  0  0  0  2  0  0  0  0  0  0
  161.3590  209.1640  156.0170 C   0  0  0  0  0  0  0  0  0  0  0  0
  162.5140  209.8500  156.9590 S   0  0  0  0  0  0  0  0  0  0  0  0
  161.1340  207.7510  156.0210 N   0  0  0  0  0  2  0  0  0  0  0  0
  160.1400  207.1010  156.8600 C   0  0  0  0  0  1  0  0  0  0  0  0
  160.5550  206.2850  147.5740 C   0  0  0  0  0  2  0  0  0  0  0  0
  161.7200  205.3270  147.3740 C   0  0  1  0  0  3  0  0  0  0  0  0
  161.2450  203.9790  146.9110 C   0  0  1  0  0  3  0  0  0  0  0  0
  161.9590  203.7760  145.5910 C   0  0  0  0  0  2  0  0  0  0  0  0
  162.5840  205.8140  146.2370 C   0  0  0  0  0  2  0  0  0  0  0  0
  163.0110  204.7000  145.5020 O   0  0  0  0  0  0  0  0  0  0  0  0
  161.6790  202.9220  147.9160 C   0  0  0  0  0  2  0  0  0  0  0  0
  160.7560  201.7140  147.8790 C   0  0  0  0  0  2  0  0  0  0  0  0
  161.0590  200.7810  149.0360 C   0  0  0  0  0  1  0  0  0  0  0  0
  1 10  1  6  0  0  0
  1  2  1  0  0  0  0
  2  6  1  0  0  0  0
  2 11  1  1  0  0  0
  3  9  1  0  0  0  0
  4  3  2  0  0  0  0
  4  6  1  0  0  0  0
  5  8  1  0  0  0  0
  6  5  2  0  0  0  0
  7 22  1  6  0  0  0
  7  1  1  0  0  0  0
  7  4  1  0  0  0  0
  9  8  2  0  0  0  0
 12 14  1  0  0  0  0
 13 12  2  0  0  0  0
 13 11  1  0  0  0  0
 14 15  1  0  0  0  0
 14 16  1  0  0  0  0
 16 17  1  0  0  0  0
 17 18  1  0  0  0  0
 18 20  1  0  0  0  0
 18 19  2  0  0  0  0
 20 21  1  0  0  0  0
 23 22  1  6  0  0  0
 24 23  1  0  0  0  0
 24 28  1  1  0  0  0
 25 24  1  0  0  0  0
 26 23  1  0  0  0  0
 27 25  1  0  0  0  0
 27 26  1  0  0  0  0
 29 28  1  0  0  0  0
 29 30  1  0  0  0  0
M  END
>  <MODEL>
2

>  <REMARK>
 VINA RESULT:      -7.0      3.240      5.279
  Name = 
  11 active torsions:
  status: ('A' for Active; 'I' for Inactive)
    1  A    between atoms: C_1  and  C_5
    2  A    between atoms: C_1  and  C_22
    3  A    between atoms: C_2  and  N_18
    4  A    between atoms: N_3  and  C_28
    5  A    between atoms: C_7  and  C_30
    6  A    between atoms: C_10  and  C_25
    7  A    between atoms: C_11  and  C_25
    8  A    between atoms: C_13  and  C_30
    9  A    between atoms: C_14  and  N_18
   10  A    between atoms: C_14  and  C_20
   11  A    between atoms: C_20  and  C_28
                            x       y       z     vdW  Elec       q    Type
                         _______ _______ _______ _____ _____    ______ ____

>  <TORSDO>
F 11

$$$$
=
 OpenBabel11052421533D

 30 32  0  0  1  0  0  0  0  0999 V2000
  161.7100  208.0220  149.1620 C   0  0  2  0  0  3  0  0  0  0  0  0
  162.4310  207.7270  150.4820 C   0  0  2  0  0  3  0  0  0  0  0  0
  160.2370  204.7570  150.2890 C   0  0  0  0  0  3  0  0  0  0  0  0
  160.8920  205.9710  150.0600 C   0  0  0  0  0  0  0  0  0  0  0  0
  162.3230  205.6280  151.9720 C   0  0  0  0  0  3  0  0  0  0  0  0
  161.8920  206.4060  150.8940 C   0  0  0  0  0  0  0  0  0  0  0  0
  160.5950  206.9560  148.9930 C   0  0  2  0  0  3  0  0  0  0  0  0
  161.6910  204.3980  152.2090 C   0  0  0  0  0  3  0  0  0  0  0  0
  160.6480  203.9660  151.3730 C   0  0  0  0  0  3  0  0  0  0  0  0
  162.6430  207.9770  148.1210 O   0  0  0  0  0  1  0  0  0  0  0  0
  162.0790  208.8120  151.4950 C   0  0  0  0  0  2  0  0  0  0  0  0
  160.4220  209.1160  153.3700 C   0  0  0  0  0  3  0  0  0  0  0  0
  160.9230  208.4020  152.3550 C   0  0  0  0  0  3  0  0  0  0  0  0
  160.8780  210.4170  153.7730 N   0  0  0  0  0  0  0  0  0  0  0  0
  162.0260  210.6110  154.6460 C   0  0  0  0  0  1  0  0  0  0  0  0
  160.3550  211.5850  153.0810 C   0  0  0  0  0  2  0  0  0  0  0  0
  158.8840  211.4000  152.7250 C   0  0  0  0  0  2  0  0  0  0  0  0
  157.9900  212.0120  153.7510 C   0  0  0  0  0  0  0  0  0  0  0  0
  157.5240  213.5760  153.5870 S   0  0  0  0  0  0  0  0  0  0  0  0
  157.5730  211.2210  154.8690 N   0  0  0  0  0  2  0  0  0  0  0  0
  156.1900  211.1190  155.3060 C   0  0  0  0  0  1  0  0  0  0  0  0
  160.5640  206.2940  147.6160 C   0  0  0  0  0  2  0  0  0  0  0  0
  161.7230  205.3220  147.4570 C   0  0  1  0  0  3  0  0  0  0  0  0
  161.2410  203.9630  147.0350 C   0  0  1  0  0  3  0  0  0  0  0  0
  161.9640  203.7100  145.7280 C   0  0  0  0  0  2  0  0  0  0  0  0
  162.6000  205.7630  146.3110 C   0  0  0  0  0  2  0  0  0  0  0  0
  163.0240  204.6220  145.6170 O   0  0  0  0  0  0  0  0  0  0  0  0
  161.6590  202.9360  148.0780 C   0  0  0  0  0  2  0  0  0  0  0  0
  160.6910  201.7640  148.1170 C   0  0  0  0  0  2  0  0  0  0  0  0
  160.9180  200.9320  149.3650 C   0  0  0  0  0  1  0  0  0  0  0  0
  1 10  1  6  0  0  0
  1  2  1  0  0  0  0
  2  6  1  0  0  0  0
  2 11  1  1  0  0  0
  3  9  1  0  0  0  0
  4  3  2  0  0  0  0
  4  6  1  0  0  0  0
  5  8  1  0  0  0  0
  6  5  2  0  0  0  0
  7 22  1  6  0  0  0
  7  1  1  0  0  0  0
  7  4  1  0  0  0  0
  9  8  2  0  0  0  0
 11 13  1  0  0  0  0
 12 14  1  0  0  0  0
 13 12  2  0  0  0  0
 14 15  1  0  0  0  0
 16 14  1  0  0  0  0
 17 16  1  0  0  0  0
 17 18  1  0  0  0  0
 18 20  1  0  0  0  0
 19 18  2  0  0  0  0
 20 21  1  0  0  0  0
 23 22  1  6  0  0  0
 24 23  1  0  0  0  0
 24 28  1  1  0  0  0
 25 24  1  0  0  0  0
 26 23  1  0  0  0  0
 27 25  1  0  0  0  0
 27 26  1  0  0  0  0
 28 29  1  0  0  0  0
 29 30  1  0  0  0  0
M  END
>  <MODEL>
3

>  <REMARK>
 VINA RESULT:      -6.9      3.032      4.778
  Name = 
  11 active torsions:
  status: ('A' for Active; 'I' for Inactive)
    1  A    between atoms: C_1  and  C_5
    2  A    between atoms: C_1  and  C_22
    3  A    between atoms: C_2  and  N_18
    4  A    between atoms: N_3  and  C_28
    5  A    between atoms: C_7  and  C_30
    6  A    between atoms: C_10  and  C_25
    7  A    between atoms: C_11  and  C_25
    8  A    between atoms: C_13  and  C_30
    9  A    between atoms: C_14  and  N_18
   10  A    between atoms: C_14  and  C_20
   11  A    between atoms: C_20  and  C_28
                            x       y       z     vdW  Elec       q    Type
                         _______ _______ _______ _____ _____    ______ ____

>  <TORSDO>
F 11

$$$$
=
 OpenBabel11052421533D

 30 32  0  0  1  0  0  0  0  0999 V2000
  161.2770  207.7220  149.4540 C   0  0  2  0  0  3  0  0  0  0  0  0
  161.9070  207.3090  150.7900 C   0  0  2  0  0  3  0  0  0  0  0  0
  160.3090  204.1140  149.8370 C   0  0  0  0  0  3  0  0  0  0  0  0
  160.7560  205.4370  149.8940 C   0  0  0  0  0  0  0  0  0  0  0  0
  162.0310  204.9840  151.8910 C   0  0  0  0  0  3  0  0  0  0  0  0
  161.5760  205.8660  150.9080 C   0  0  0  0  0  0  0  0  0  0  0  0
  160.3930  206.5410  148.9740 C   0  0  2  0  0  3  0  0  0  0  0  0
  161.6090  203.6460  151.8420 C   0  0  0  0  0  3  0  0  0  0  0  0
  160.7470  203.2140  150.8200 C   0  0  0  0  0  3  0  0  0  0  0  0
  162.3000  208.0160  148.5470 O   0  0  0  0  0  1  0  0  0  0  0  0
  161.2690  208.1210  151.9130 C   0  0  0  0  0  2  0  0  0  0  0  0
  161.6680  210.3390  153.0420 C   0  0  0  0  0  3  0  0  0  0  0  0
  161.9710  209.4290  152.1080 C   0  0  0  0  0  3  0  0  0  0  0  0
  160.6490  210.1900  154.0440 N   0  0  0  0  0  0  0  0  0  0  0  0
  160.7710  209.2590  155.1560 C   0  0  0  0  0  1  0  0  0  0  0  0
  159.5870  211.1810  154.1120 C   0  0  0  0  0  2  0  0  0  0  0  0
  158.8170  211.2520  152.7960 C   0  0  0  0  0  2  0  0  0  0  0  0
  158.8260  212.6320  152.2300 C   0  0  0  0  0  0  0  0  0  0  0  0
  157.6140  213.6690  152.6140 S   0  0  0  0  0  0  0  0  0  0  0  0
  159.8850  213.0140  151.3460 N   0  0  0  0  0  2  0  0  0  0  0  0
  159.9780  214.3270  150.7290 C   0  0  0  0  0  1  0  0  0  0  0  0
  160.6160  206.1460  147.5140 C   0  0  0  0  0  2  0  0  0  0  0  0
  161.6810  205.0660  147.4030 C   0  0  1  0  0  3  0  0  0  0  0  0
  161.2470  203.9630  146.4790 C   0  0  1  0  0  3  0  0  0  0  0  0
  162.3220  203.9380  145.4120 C   0  0  0  0  0  2  0  0  0  0  0  0
  162.9080  205.6340  146.7320 C   0  0  0  0  0  2  0  0  0  0  0  0
  163.4340  204.6560  145.8770 O   0  0  0  0  0  0  0  0  0  0  0  0
  161.2290  202.6470  147.2430 C   0  0  0  0  0  2  0  0  0  0  0  0
  160.8230  201.4920  146.3410 C   0  0  0  0  0  2  0  0  0  0  0  0
  161.2980  200.1740  146.9240 C   0  0  0  0  0  1  0  0  0  0  0  0
  1 10  1  6  0  0  0
  1  2  1  0  0  0  0
  2  6  1  0  0  0  0
  2 11  1  1  0  0  0
  3  4  2  0  0  0  0
  3  9  1  0  0  0  0
  4  6  1  0  0  0  0
  6  5  2  0  0  0  0
  7 22  1  6  0  0  0
  7  1  1  0  0  0  0
  7  4  1  0  0  0  0
  8  5  1  0  0  0  0
  9  8  2  0  0  0  0
 11 13  1  0  0  0  0
 12 14  1  0  0  0  0
 13 12  2  0  0  0  0
 14 16  1  0  0  0  0
 14 15  1  0  0  0  0
 17 16  1  0  0  0  0
 18 19  2  0  0  0  0
 18 17  1  0  0  0  0
 20 18  1  0  0  0  0
 21 20  1  0  0  0  0
 23 22  1  6  0  0  0
 24 28  1  1  0  0  0
 24 23  1  0  0  0  0
 25 27  1  0  0  0  0
 25 24  1  0  0  0  0
 26 23  1  0  0  0  0
 27 26  1  0  0  0  0
 29 30  1  0  0  0  0
 29 28  1  0  0  0  0
M  END
>  <MODEL>
4

>  <REMARK>
 VINA RESULT:      -6.7      2.634      4.492
  Name = 
  11 active torsions:
  status: ('A' for Active; 'I' for Inactive)
    1  A    between atoms: C_1  and  C_5
    2  A    between atoms: C_1  and  C_22
    3  A    between atoms: C_2  and  N_18
    4  A    between atoms: N_3  and  C_28
    5  A    between atoms: C_7  and  C_30
    6  A    between atoms: C_10  and  C_25
    7  A    between atoms: C_11  and  C_25
    8  A    between atoms: C_13  and  C_30
    9  A    between atoms: C_14  and  N_18
   10  A    between atoms: C_14  and  C_20
   11  A    between atoms: C_20  and  C_28
                            x       y       z     vdW  Elec       q    Type
                         _______ _______ _______ _____ _____    ______ ____

>  <TORSDO>
F 11

$$$$
=
 OpenBabel11052421533D

 30 32  0  0  1  0  0  0  0  0999 V2000
  161.2310  206.6320  152.7140 C   0  0  2  0  0  3  0  0  0  0  0  0
  161.7120  205.8490  151.4860 C   0  0  2  0  0  3  0  0  0  0  0  0
  161.5210  209.2430  150.0310 C   0  0  0  0  0  3  0  0  0  0  0  0
  161.4630  208.1280  150.8720 C   0  0  0  0  0  0  0  0  0  0  0  0
  162.4330  206.7200  149.1710 C   0  0  0  0  0  3  0  0  0  0  0  0
  161.8860  206.8940  150.4450 C   0  0  0  0  0  0  0  0  0  0  0  0
  160.9140  208.0770  152.2480 C   0  0  2  0  0  3  0  0  0  0  0  0
  162.5170  207.8290  148.3170 C   0  0  0  0  0  3  0  0  0  0  0  0
  162.0580  209.0860  148.7450 C   0  0  0  0  0  3  0  0  0  0  0  0
  162.2350  206.6010  153.6870 O   0  0  0  0  0  1  0  0  0  0  0  0
  160.6410  204.8390  151.0880 C   0  0  0  0  0  2  0  0  0  0  0  0
  161.0050  202.3520  150.9050 C   0  0  0  0  0  3  0  0  0  0  0  0
  160.9470  203.4770  151.6290 C   0  0  0  0  0  3  0  0  0  0  0  0
  160.8290  202.2720  149.4820 N   0  0  0  0  0  0  0  0  0  0  0  0
  159.6700  201.6420  148.8680 C   0  0  0  0  0  1  0  0  0  0  0  0
  161.6890  203.0750  148.6260 C   0  0  0  0  0  2  0  0  0  0  0  0
  160.8760  203.8150  147.5700 C   0  0  0  0  0  2  0  0  0  0  0  0
  161.5630  203.8110  146.2460 C   0  0  0  0  0  0  0  0  0  0  0  0
  162.9420  204.6770  146.0500 S   0  0  0  0  0  0  0  0  0  0  0  0
  160.9890  203.0640  145.1680 N   0  0  0  0  0  2  0  0  0  0  0  0
  160.3520  201.7680  145.3420 C   0  0  0  0  0  1  0  0  0  0  0  0
  161.5200  209.1670  153.1320 C   0  0  0  0  0  2  0  0  0  0  0  0
  160.4380  209.8830  153.9250 C   0  0  1  0  0  3  0  0  0  0  0  0
  160.8270  210.0330  155.3690 C   0  0  1  0  0  3  0  0  0  0  0  0
  160.7940  211.5300  155.6000 C   0  0  0  0  0  2  0  0  0  0  0  0
  160.3100  211.3050  153.4380 C   0  0  0  0  0  2  0  0  0  0  0  0
  160.0890  212.1320  154.5480 O   0  0  0  0  0  0  0  0  0  0  0  0
  159.7940  209.3390  156.2430 C   0  0  0  0  0  2  0  0  0  0  0  0
  159.7680  207.8410  155.9830 C   0  0  0  0  0  2  0  0  0  0  0  0
  160.3390  207.0890  157.1700 C   0  0  0  0  0  1  0  0  0  0  0  0
  1 10  1  1  0  0  0
  2 11  1  6  0  0  0
  2  1  1  0  0  0  0
  3  4  1  0  0  0  0
  4  7  1  0  0  0  0
  5  6  1  0  0  0  0
  6  4  2  0  0  0  0
  6  2  1  0  0  0  0
  7  1  1  0  0  0  0
  7 22  1  1  0  0  0
  8  9  1  0  0  0  0
  8  5  2  0  0  0  0
  9  3  2  0  0  0  0
 11 13  1  0  0  0  0
 12 13  2  0  0  0  0
 14 12  1  0  0  0  0
 15 14  1  0  0  0  0
 16 14  1  0  0  0  0
 17 16  1  0  0  0  0
 18 17  1  0  0  0  0
 19 18  2  0  0  0  0
 20 21  1  0  0  0  0
 20 18  1  0  0  0  0
 23 22  1  6  0  0  0
 23 24  1  0  0  0  0
 24 25  1  0  0  0  0
 24 28  1  1  0  0  0
 26 23  1  0  0  0  0
 26 27  1  0  0  0  0
 27 25  1  0  0  0  0
 29 28  1  0  0  0  0
 29 30  1  0  0  0  0
M  END
>  <MODEL>
5

>  <REMARK>
 VINA RESULT:      -6.6      3.958      7.684
  Name = 
  11 active torsions:
  status: ('A' for Active; 'I' for Inactive)
    1  A    between atoms: C_1  and  C_5
    2  A    between atoms: C_1  and  C_22
    3  A    between atoms: C_2  and  N_18
    4  A    between atoms: N_3  and  C_28
    5  A    between atoms: C_7  and  C_30
    6  A    between atoms: C_10  and  C_25
    7  A    between atoms: C_11  and  C_25
    8  A    between atoms: C_13  and  C_30
    9  A    between atoms: C_14  and  N_18
   10  A    between atoms: C_14  and  C_20
   11  A    between atoms: C_20  and  C_28
                            x       y       z     vdW  Elec       q    Type
                         _______ _______ _______ _____ _____    ______ ____

>  <TORSDO>
F 11

$$$$
=
 OpenBabel11052421533D

 30 32  0  0  1  0  0  0  0  0999 V2000
  161.5110  209.7620  151.5700 C   0  0  2  0  0  3  0  0  0  0  0  0
  161.0090  210.3660  152.8870 C   0  0  2  0  0  3  0  0  0  0  0  0
  160.8060  206.7710  153.7300 C   0  0  0  0  0  3  0  0  0  0  0  0
  160.9850  208.0020  153.0910 C   0  0  0  0  0  0  0  0  0  0  0  0
  160.4550  209.1990  155.1160 C   0  0  0  0  0  3  0  0  0  0  0  0
  160.7910  209.1850  153.7600 C   0  0  0  0  0  0  0  0  0  0  0  0
  161.3260  208.2250  151.6650 C   0  0  2  0  0  3  0  0  0  0  0  0
  160.2880  207.9760  155.7820 C   0  0  0  0  0  3  0  0  0  0  0  0
  160.4590  206.7660  155.0890 C   0  0  0  0  0  3  0  0  0  0  0  0
  162.8510  210.1210  151.3930 O   0  0  0  0  0  1  0  0  0  0  0  0
  159.7060  211.1150  152.6280 C   0  0  0  0  0  2  0  0  0  0  0  0
  159.2360  213.4240  151.7340 C   0  0  0  0  0  3  0  0  0  0  0  0
  159.9160  212.2710  151.7000 C   0  0  0  0  0  3  0  0  0  0  0  0
  158.2240  213.7610  152.6960 N   0  0  0  0  0  0  0  0  0  0  0  0
  156.8060  213.5350  152.4570 C   0  0  0  0  0  1  0  0  0  0  0  0
  158.6320  214.0870  154.0540 C   0  0  0  0  0  2  0  0  0  0  0  0
  157.6410  213.5350  155.0730 C   0  0  0  0  0  2  0  0  0  0  0  0
  158.1850  212.3360  155.7750 C   0  0  0  0  0  0  0  0  0  0  0  0
  159.5950  212.4580  156.6030 S   0  0  0  0  0  0  0  0  0  0  0  0
  157.4700  211.0990  155.6920 N   0  0  0  0  0  2  0  0  0  0  0  0
  156.0470  211.0140  155.4080 C   0  0  0  0  0  1  0  0  0  0  0  0
  162.5580  207.4190  151.2540 C   0  0  0  0  0  2  0  0  0  0  0  0
  162.2530  206.5420  150.0490 C   0  0  1  0  0  3  0  0  0  0  0  0
  160.8360  206.0430  150.0820 C   0  0  1  0  0  3  0  0  0  0  0  0
  160.2400  206.5570  148.7880 C   0  0  0  0  0  2  0  0  0  0  0  0
  162.3120  207.3730  148.7910 C   0  0  0  0  0  2  0  0  0  0  0  0
  161.2830  206.9520  147.9380 O   0  0  0  0  0  0  0  0  0  0  0  0
  160.8400  204.5220  150.0960 C   0  0  0  0  0  2  0  0  0  0  0  0
  161.5790  203.9830  151.3110 C   0  0  0  0  0  2  0  0  0  0  0  0
  161.2030  202.5350  151.5590 C   0  0  0  0  0  1  0  0  0  0  0  0
  1 10  1  1  0  0  0
  1  7  1  0  0  0  0
  1  2  1  0  0  0  0
  2 11  1  6  0  0  0
  2  6  1  0  0  0  0
  3  9  1  0  0  0  0
  4  3  2  0  0  0  0
  4  6  1  0  0  0  0
  5  8  1  0  0  0  0
  6  5  2  0  0  0  0
  7 22  1  1  0  0  0
  7  4  1  0  0  0  0
  9  8  2  0  0  0  0
 12 14  1  0  0  0  0
 13 12  2  0  0  0  0
 13 11  1  0  0  0  0
 14 16  1  0  0  0  0
 15 14  1  0  0  0  0
 16 17  1  0  0  0  0
 17 18  1  0  0  0  0
 18 19  2  0  0  0  0
 20 18  1  0  0  0  0
 21 20  1  0  0  0  0
 23 24  1  0  0  0  0
 23 22  1  1  0  0  0
 24 28  1  6  0  0  0
 25 24  1  0  0  0  0
 26 23  1  0  0  0  0
 27 25  1  0  0  0  0
 27 26  1  0  0  0  0
 28 29  1  0  0  0  0
 29 30  1  0  0  0  0
M  END
>  <MODEL>
6

>  <REMARK>
 VINA RESULT:      -6.3      2.714      3.911
  Name = 
  11 active torsions:
  status: ('A' for Active; 'I' for Inactive)
    1  A    between atoms: C_1  and  C_5
    2  A    between atoms: C_1  and  C_22
    3  A    between atoms: C_2  and  N_18
    4  A    between atoms: N_3  and  C_28
    5  A    between atoms: C_7  and  C_30
    6  A    between atoms: C_10  and  C_25
    7  A    between atoms: C_11  and  C_25
    8  A    between atoms: C_13  and  C_30
    9  A    between atoms: C_14  and  N_18
   10  A    between atoms: C_14  and  C_20
   11  A    between atoms: C_20  and  C_28
                            x       y       z     vdW  Elec       q    Type
                         _______ _______ _______ _____ _____    ______ ____

>  <TORSDO>
F 11

$$$$
=
 OpenBabel11052421533D

 30 32  0  0  1  0  0  0  0  0999 V2000
  161.0140  205.7020  150.7880 C   0  0  2  0  0  3  0  0  0  0  0  0
  160.9230  206.9730  151.6400 C   0  0  2  0  0  3  0  0  0  0  0  0
  162.3290  208.4010  148.5320 C   0  0  0  0  0  3  0  0  0  0  0  0
  161.8300  207.5520  149.5250 C   0  0  0  0  0  0  0  0  0  0  0  0
  161.3700  209.4220  150.9780 C   0  0  0  0  0  3  0  0  0  0  0  0
  161.3840  208.0480  150.7250 C   0  0  0  0  0  0  0  0  0  0  0  0
  161.7620  206.0720  149.4800 C   0  0  2  0  0  3  0  0  0  0  0  0
  161.8490  210.2940  149.9880 C   0  0  0  0  0  3  0  0  0  0  0  0
  162.3320  209.7840  148.7710 C   0  0  0  0  0  3  0  0  0  0  0  0
  159.7190  205.2350  150.5380 O   0  0  0  0  0  1  0  0  0  0  0  0
  161.8480  206.8320  152.8450 C   0  0  0  0  0  2  0  0  0  0  0  0
  160.7560  206.9550  155.1130 C   0  0  0  0  0  3  0  0  0  0  0  0
  161.1230  206.2650  154.0260 C   0  0  0  0  0  3  0  0  0  0  0  0
  160.9550  208.3640  155.3060 N   0  0  0  0  0  0  0  0  0  0  0  0
  161.9620  208.8990  156.2120 C   0  0  0  0  0  1  0  0  0  0  0  0
  160.3260  209.2920  154.3790 C   0  0  0  0  0  2  0  0  0  0  0  0
  161.0460  210.6370  154.3750 C   0  0  0  0  0  2  0  0  0  0  0  0
  160.0880  211.7710  154.2220 C   0  0  0  0  0  0  0  0  0  0  0  0
  159.5350  212.1640  152.7290 S   0  0  0  0  0  0  0  0  0  0  0  0
  159.6880  212.5040  155.3850 N   0  0  0  0  0  2  0  0  0  0  0  0
  160.4500  212.5200  156.6230 C   0  0  0  0  0  1  0  0  0  0  0  0
  161.0760  205.5830  148.2050 C   0  0  0  0  0  2  0  0  0  0  0  0
  161.8330  204.4110  147.6000 C   0  0  1  0  0  3  0  0  0  0  0  0
  160.8930  203.3370  147.1300 C   0  0  1  0  0  3  0  0  0  0  0  0
  161.2060  203.2010  145.6540 C   0  0  0  0  0  2  0  0  0  0  0  0
  162.5290  204.8560  146.3370 C   0  0  0  0  0  2  0  0  0  0  0  0
  162.4360  203.8230  145.3960 O   0  0  0  0  0  0  0  0  0  0  0  0
  161.2070  202.0400  147.8600 C   0  0  0  0  0  2  0  0  0  0  0  0
  160.1930  201.7670  148.9600 C   0  0  0  0  0  2  0  0  0  0  0  0
  160.8310  201.9500  150.3240 C   0  0  0  0  0  1  0  0  0  0  0  0
  1 10  1  6  0  0  0
  1  2  1  0  0  0  0
  2 11  1  1  0  0  0
  3  9  2  0  0  0  0
  3  4  1  0  0  0  0
  4  6  2  0  0  0  0
  6  5  1  0  0  0  0
  6  2  1  0  0  0  0
  7 22  1  6  0  0  0
  7  4  1  0  0  0  0
  7  1  1  0  0  0  0
  8  5  2  0  0  0  0
  9  8  1  0  0  0  0
 11 13  1  0  0  0  0
 12 14  1  0  0  0  0
 13 12  2  0  0  0  0
 14 15  1  0  0  0  0
 16 14  1  0  0  0  0
 17 16  1  0  0  0  0
 18 17  1  0  0  0  0
 18 20  1  0  0  0  0
 19 18  2  0  0  0  0
 20 21  1  0  0  0  0
 23 22  1  6  0  0  0
 24 23  1  0  0  0  0
 24 28  1  1  0  0  0
 25 24  1  0  0  0  0
 26 23  1  0  0  0  0
 27 25  1  0  0  0  0
 27 26  1  0  0  0  0
 28 29  1  0  0  0  0
 29 30  1  0  0  0  0
M  END
>  <MODEL>
7

>  <REMARK>
 VINA RESULT:      -6.2      3.094      5.422
  Name = 
  11 active torsions:
  status: ('A' for Active; 'I' for Inactive)
    1  A    between atoms: C_1  and  C_5
    2  A    between atoms: C_1  and  C_22
    3  A    between atoms: C_2  and  N_18
    4  A    between atoms: N_3  and  C_28
    5  A    between atoms: C_7  and  C_30
    6  A    between atoms: C_10  and  C_25
    7  A    between atoms: C_11  and  C_25
    8  A    between atoms: C_13  and  C_30
    9  A    between atoms: C_14  and  N_18
   10  A    between atoms: C_14  and  C_20
   11  A    between atoms: C_20  and  C_28
                            x       y       z     vdW  Elec       q    Type
                         _______ _______ _______ _____ _____    ______ ____

>  <TORSDO>
F 11

$$$$
=
 OpenBabel11052421533D

 30 32  0  0  1  0  0  0  0  0999 V2000
  161.8670  206.9870  149.1650 C   0  0  2  0  0  3  0  0  0  0  0  0
  161.9810  207.3780  150.6430 C   0  0  2  0  0  3  0  0  0  0  0  0
  160.6970  203.9300  151.0060 C   0  0  0  0  0  3  0  0  0  0  0  0
  161.1440  205.1620  150.5180 C   0  0  0  0  0  0  0  0  0  0  0  0
  161.6330  205.9370  152.7490 C   0  0  0  0  0  3  0  0  0  0  0  0
  161.5780  206.1480  151.3690 C   0  0  0  0  0  0  0  0  0  0  0  0
  161.1620  205.6060  149.1040 C   0  0  2  0  0  3  0  0  0  0  0  0
  161.2060  204.7010  153.2590 C   0  0  0  0  0  3  0  0  0  0  0  0
  160.7350  203.7030  152.3900 C   0  0  0  0  0  3  0  0  0  0  0  0
  163.1510  206.9460  148.6110 O   0  0  0  0  0  1  0  0  0  0  0  0
  161.0250  208.5320  150.9280 C   0  0  0  0  0  2  0  0  0  0  0  0
  161.5730  210.9210  151.5150 C   0  0  0  0  0  3  0  0  0  0  0  0
  161.6870  209.8570  150.7100 C   0  0  0  0  0  3  0  0  0  0  0  0
  160.8340  210.9530  152.7460 N   0  0  0  0  0  0  0  0  0  0  0  0
  159.3790  210.9700  152.7890 C   0  0  0  0  0  1  0  0  0  0  0  0
  161.5390  210.6890  153.9910 C   0  0  0  0  0  2  0  0  0  0  0  0
  160.6410  209.9630  154.9870 C   0  0  0  0  0  2  0  0  0  0  0  0
  161.4390  209.2020  155.9920 C   0  0  0  0  0  0  0  0  0  0  0  0
  162.6010  209.9750  156.8540 S   0  0  0  0  0  0  0  0  0  0  0  0
  161.1840  207.8040  156.1680 N   0  0  0  0  0  2  0  0  0  0  0  0
  159.8750  207.2000  155.9790 C   0  0  0  0  0  1  0  0  0  0  0  0
  161.8610  204.5850  148.2070 C   0  0  0  0  0  2  0  0  0  0  0  0
  160.8490  203.8190  147.3690 C   0  0  1  0  0  3  0  0  0  0  0  0
  161.4150  203.4540  146.0260 C   0  0  1  0  0  3  0  0  0  0  0  0
  161.3140  201.9430  145.9890 C   0  0  0  0  0  2  0  0  0  0  0  0
  160.5640  202.4850  148.0140 C   0  0  0  0  0  2  0  0  0  0  0  0
  160.4380  201.5250  147.0010 O   0  0  0  0  0  0  0  0  0  0  0  0
  160.5540  204.0690  144.9340 C   0  0  0  0  0  2  0  0  0  0  0  0
  160.8440  205.5530  144.7730 C   0  0  0  0  0  2  0  0  0  0  0  0
  162.3280  205.8230  144.9350 C   0  0  0  0  0  1  0  0  0  0  0  0
  1 10  1  1  0  0  0
  1  2  1  0  0  0  0
  2 11  1  6  0  0  0
  2  6  1  0  0  0  0
  3  9  1  0  0  0  0
  4  3  2  0  0  0  0
  4  6  1  0  0  0  0
  5  8  1  0  0  0  0
  6  5  2  0  0  0  0
  7 22  1  6  0  0  0
  7  1  1  0  0  0  0
  7  4  1  0  0  0  0
  9  8  2  0  0  0  0
 12 14  1  0  0  0  0
 13 11  1  0  0  0  0
 13 12  2  0  0  0  0
 14 15  1  0  0  0  0
 14 16  1  0  0  0  0
 16 17  1  0  0  0  0
 17 18  1  0  0  0  0
 18 20  1  0  0  0  0
 18 19  2  0  0  0  0
 21 20  1  0  0  0  0
 23 26  1  0  0  0  0
 23 22  1  1  0  0  0
 24 28  1  6  0  0  0
 24 23  1  0  0  0  0
 25 24  1  0  0  0  0
 25 27  1  0  0  0  0
 27 26  1  0  0  0  0
 29 28  1  0  0  0  0
 29 30  1  0  0  0  0
M  END
>  <MODEL>
8

>  <REMARK>
 VINA RESULT:      -5.8      3.472      5.611
  Name = 
  11 active torsions:
  status: ('A' for Active; 'I' for Inactive)
    1  A    between atoms: C_1  and  C_5
    2  A    between atoms: C_1  and  C_22
    3  A    between atoms: C_2  and  N_18
    4  A    between atoms: N_3  and  C_28
    5  A    between atoms: C_7  and  C_30
    6  A    between atoms: C_10  and  C_25
    7  A    between atoms: C_11  and  C_25
    8  A    between atoms: C_13  and  C_30
    9  A    between atoms: C_14  and  N_18
   10  A    between atoms: C_14  and  C_20
   11  A    between atoms: C_20  and  C_28
                            x       y       z     vdW  Elec       q    Type
                         _______ _______ _______ _____ _____    ______ ____

>  <TORSDO>
F 11

$$$$
=
 OpenBabel11052421533D

 30 32  0  0  1  0  0  0  0  0999 V2000
  161.0690  208.8240  151.2690 C   0  0  2  0  0  3  0  0  0  0  0  0
  161.2080  209.7550  152.4800 C   0  0  2  0  0  3  0  0  0  0  0  0
  160.6950  206.5350  154.2230 C   0  0  0  0  0  3  0  0  0  0  0  0
  160.8400  207.5480  153.2700 C   0  0  0  0  0  0  0  0  0  0  0  0
  161.3200  209.1740  154.9870 C   0  0  0  0  0  3  0  0  0  0  0  0
  161.1220  208.8390  153.6450 C   0  0  0  0  0  0  0  0  0  0  0  0
  160.6630  207.4260  151.8040 C   0  0  2  0  0  3  0  0  0  0  0  0
  161.1970  208.1680  155.9570 C   0  0  0  0  0  3  0  0  0  0  0  0
  160.8800  206.8530  155.5760 C   0  0  0  0  0  3  0  0  0  0  0  0
  162.2890  208.7910  150.5860 O   0  0  0  0  0  1  0  0  0  0  0  0
  160.0560  210.7560  152.4720 C   0  0  0  0  0  2  0  0  0  0  0  0
  159.5270  212.9670  153.5590 C   0  0  0  0  0  3  0  0  0  0  0  0
  160.3330  211.9130  153.3810 C   0  0  0  0  0  3  0  0  0  0  0  0
  158.2410  213.1400  152.9450 N   0  0  0  0  0  0  0  0  0  0  0  0
  158.0490  213.1150  151.5020 C   0  0  0  0  0  1  0  0  0  0  0  0
  157.0520  213.0680  153.7810 C   0  0  0  0  0  2  0  0  0  0  0  0
  157.0870  211.8360  154.6800 C   0  0  0  0  0  2  0  0  0  0  0  0
  156.8060  212.1870  156.1030 C   0  0  0  0  0  0  0  0  0  0  0  0
  155.5730  213.2100  156.4540 S   0  0  0  0  0  0  0  0  0  0  0  0
  157.6350  211.6350  157.1310 N   0  0  0  0  0  2  0  0  0  0  0  0
  159.0720  211.4570  156.9910 C   0  0  0  0  0  1  0  0  0  0  0  0
  161.4900  206.2730  151.2360 C   0  0  0  0  0  2  0  0  0  0  0  0
  160.7260  205.5490  150.1380 C   0  0  1  0  0  3  0  0  0  0  0  0
  161.4980  205.5400  148.8490 C   0  0  1  0  0  3  0  0  0  0  0  0
  161.6590  204.0680  148.5320 C   0  0  0  0  0  2  0  0  0  0  0  0
  160.5980  204.0870  150.4900 C   0  0  0  0  0  2  0  0  0  0  0  0
  160.7550  203.3380  149.3170 O   0  0  0  0  0  0  0  0  0  0  0  0
  160.6780  206.2280  147.7680 C   0  0  0  0  0  2  0  0  0  0  0  0
  161.3200  206.0600  146.3990 C   0  0  0  0  0  2  0  0  0  0  0  0
  160.2610  206.0780  145.3130 C   0  0  0  0  0  1  0  0  0  0  0  0
  1 10  1  1  0  0  0
  1  7  1  0  0  0  0
  1  2  1  0  0  0  0
  2 11  1  1  0  0  0
  2  6  1  0  0  0  0
  3  9  1  0  0  0  0
  4  6  1  0  0  0  0
  4  3  2  0  0  0  0
  5  8  1  0  0  0  0
  6  5  2  0  0  0  0
  7 22  1  6  0  0  0
  7  4  1  0  0  0  0
  9  8  2  0  0  0  0
 11 13  1  0  0  0  0
 13 12  2  0  0  0  0
 14 12  1  0  0  0  0
 14 16  1  0  0  0  0
 15 14  1  0  0  0  0
 16 17  1  0  0  0  0
 17 18  1  0  0  0  0
 18 19  2  0  0  0  0
 18 20  1  0  0  0  0
 21 20  1  0  0  0  0
 23 26  1  0  0  0  0
 23 22  1  1  0  0  0
 24 28  1  6  0  0  0
 24 23  1  0  0  0  0
 25 24  1  0  0  0  0
 25 27  1  0  0  0  0
 27 26  1  0  0  0  0
 29 28  1  0  0  0  0
 30 29  1  0  0  0  0
M  END
>  <MODEL>
9

>  <REMARK>
 VINA RESULT:      -5.8      3.083      4.646
  Name = 
  11 active torsions:
  status: ('A' for Active; 'I' for Inactive)
    1  A    between atoms: C_1  and  C_5
    2  A    between atoms: C_1  and  C_22
    3  A    between atoms: C_2  and  N_18
    4  A    between atoms: N_3  and  C_28
    5  A    between atoms: C_7  and  C_30
    6  A    between atoms: C_10  and  C_25
    7  A    between atoms: C_11  and  C_25
    8  A    between atoms: C_13  and  C_30
    9  A    between atoms: C_14  and  N_18
   10  A    between atoms: C_14  and  C_20
   11  A    between atoms: C_20  and  C_28
                            x       y       z     vdW  Elec       q    Type
                         _______ _______ _______ _____ _____    ______ ____

>  <TORSDO>
F 11

$$$$
