=
 OpenBabel11052423213D

 27 30  0  0  1  0  0  0  0  0999 V2000
  162.2560  207.1630  148.0490 C   0  0  0  0  0  2  0  0  0  0  0  0
  161.3930  204.8710  150.2510 C   0  0  1  0  0  3  0  0  0  0  0  0
  162.7000  206.7590  150.9520 O   0  0  0  0  0  0  0  0  0  0  0  0
  160.4930  202.5600  150.7450 C   0  0  1  0  0  3  0  0  0  0  0  0
  160.1930  204.0600  150.7180 C   0  0  0  0  0  2  0  0  0  0  0  0
  161.3350  205.1430  145.9240 C   0  0  0  0  0  2  0  0  0  0  0  0
  161.3790  204.9900  148.7850 N   0  0  0  0  0  0  0  0  0  0  0  0
  162.0680  210.4720  150.7750 N   0  0  0  0  0  0  0  0  0  0  0  0
  161.6760  203.8200  147.9870 C   0  0  0  0  0  0  0  0  0  0  0  0
  161.8580  210.6020  149.4970 C   0  0  0  0  0  0  0  0  0  0  0  0
  161.0290  206.2680  148.1380 C   0  0  2  0  0  3  0  0  0  0  0  0
  160.7220  201.9340  149.3650 C   0  0  2  0  0  3  0  0  0  0  0  0
  162.1680  208.2710  149.0440 C   0  0  0  0  0  0  0  0  0  0  0  0
  161.4030  206.2190  150.9580 C   0  0  0  0  0  2  0  0  0  0  0  0
  162.1540  209.1730  151.4440 C   0  0  2  0  0  3  0  0  0  0  0  0
  161.5660  202.2840  151.5970 O   0  0  0  0  0  1  0  0  0  0  0  0
  161.7160  211.9030  148.9390 N   0  0  0  0  0  1  0  0  0  0  0  0
  161.6100  203.8660  146.6540 C   0  0  0  0  0  3  0  0  0  0  0  0
  161.8370  209.4570  148.6320 N   0  0  0  0  0  0  0  0  0  0  0  0
  161.9460  202.4920  148.6300 C   0  0  0  0  0  2  0  0  0  0  0  0
  162.6560  208.0870  150.4630 C   0  0  1  0  0  3  0  0  0  0  0  0
  160.4230  206.0420  146.7520 C   0  0  0  0  0  2  0  0  0  0  0  0
  158.6900  201.2520  149.1990 O   0  0  0  0  0  1  0  0  0  0  0  0
  159.5680  202.0140  148.5810 O   0  0  0  0  0  0  0  0  0  0  0  0
  160.8010  208.8580  152.0660 C   0  0  0  0  0  2  0  0  0  0  0  0
  160.8910  207.5420  154.3190 C   0  0  0  0  0  1  0  0  0  0  0  0
  160.8250  209.2880  153.8300 S   0  0  0  0  0  0  0  0  0  0  0  0
  1 11  1  0  0  0  0
  1 13  1  0  0  0  0
  2  5  1  1  0  0  0
  2 14  1  0  0  0  0
  3 14  1  0  0  0  0
  4 16  1  1  0  0  0
  5  4  1  0  0  0  0
  6 18  1  0  0  0  0
  6 22  1  0  0  0  0
  7  2  1  0  0  0  0
  8 15  1  0  0  0  0
  9 20  1  0  0  0  0
  9  7  1  0  0  0  0
 10  8  2  0  0  0  0
 11 22  1  6  0  0  0
 11  7  1  0  0  0  0
 12 24  1  6  0  0  0
 12  4  1  0  0  0  0
 15 25  1  6  0  0  0
 17 10  1  0  0  0  0
 18  9  2  0  0  0  0
 19 13  2  0  0  0  0
 19 10  1  0  0  0  0
 20 12  1  0  0  0  0
 21 13  1  6  0  0  0
 21  3  1  0  0  0  0
 21 15  1  0  0  0  0
 24 23  1  0  0  0  0
 25 27  1  0  0  0  0
 27 26  1  0  0  0  0
M  END
>  <MODEL>
1

>  <REMARK>
 VINA RESULT:      -8.0      0.000      0.000
  Name = 
  3 active torsions:
  status: ('A' for Active; 'I' for Inactive)
    1  A    between atoms: S_12  and  C_14
    2  A    between atoms: C_14  and  C_20
    3  A    between atoms: O_16  and  C_17
                            x       y       z     vdW  Elec       q    Type
                         _______ _______ _______ _____ _____    ______ ____

>  <TORSDO>
F 3

$$$$
=
 OpenBabel11052423213D

 27 30  0  0  1  0  0  0  0  0999 V2000
  161.5360  206.7350  154.3570 C   0  0  0  0  0  2  0  0  0  0  0  0
  160.5810  209.5930  153.0270 C   0  0  1  0  0  3  0  0  0  0  0  0
  162.0750  208.1590  151.8130 O   0  0  0  0  0  0  0  0  0  0  0  0
  159.5090  211.8670  153.3000 C   0  0  1  0  0  3  0  0  0  0  0  0
  159.3370  210.4370  152.7840 C   0  0  0  0  0  2  0  0  0  0  0  0
  160.3500  207.8170  156.9760 C   0  0  0  0  0  2  0  0  0  0  0  0
  160.5110  208.9660  154.3560 N   0  0  0  0  0  0  0  0  0  0  0  0
  161.7570  204.5870  150.6480 N   0  0  0  0  0  0  0  0  0  0  0  0
  160.6690  209.7990  155.5290 C   0  0  0  0  0  0  0  0  0  0  0  0
  161.5010  204.0040  151.7830 C   0  0  0  0  0  0  0  0  0  0  0  0
  160.2420  207.5230  154.4940 C   0  0  2  0  0  3  0  0  0  0  0  0
  159.6200  211.9830  154.8240 C   0  0  2  0  0  3  0  0  0  0  0  0
  161.5890  206.0430  153.0360 C   0  0  0  0  0  0  0  0  0  0  0  0
  160.7380  208.5820  151.9000 C   0  0  0  0  0  2  0  0  0  0  0  0
  161.7620  206.0420  150.4780 C   0  0  2  0  0  3  0  0  0  0  0  0
  160.5910  212.4930  152.6770 O   0  0  0  0  0  1  0  0  0  0  0  0
  161.4460  202.5840  151.8450 N   0  0  0  0  0  1  0  0  0  0  0  0
  160.5470  209.2850  156.7550 C   0  0  0  0  0  3  0  0  0  0  0  0
  161.3430  204.7690  152.9860 N   0  0  0  0  0  0  0  0  0  0  0  0
  160.8530  211.2830  155.4070 C   0  0  0  0  0  2  0  0  0  0  0  0
  162.1230  206.7440  151.8080 C   0  0  1  0  0  3  0  0  0  0  0  0
  159.5570  207.2090  155.8250 C   0  0  0  0  0  2  0  0  0  0  0  0
  157.5380  212.4460  155.0900 O   0  0  0  0  0  1  0  0  0  0  0  0
  158.4430  211.5580  155.4460 O   0  0  0  0  0  0  0  0  0  0  0  0
  160.4160  206.4660  149.9070 C   0  0  0  0  0  2  0  0  0  0  0  0
  162.1130  207.2320  148.0780 C   0  0  0  0  0  1  0  0  0  0  0  0
  160.4850  206.4330  148.0930 S   0  0  0  0  0  0  0  0  0  0  0  0
  2 14  1  6  0  0  0
  2  7  1  0  0  0  0
  3 14  1  0  0  0  0
  4 16  1  6  0  0  0
  4 12  1  0  0  0  0
  5  2  1  0  0  0  0
  5  4  1  0  0  0  0
  7 11  1  0  0  0  0
  7  9  1  0  0  0  0
  8 10  2  0  0  0  0
  9 18  2  0  0  0  0
 10 17  1  0  0  0  0
 10 19  1  0  0  0  0
 11  1  1  1  0  0  0
 11 22  1  0  0  0  0
 12 20  1  0  0  0  0
 12 24  1  1  0  0  0
 13  1  1  0  0  0  0
 15 25  1  1  0  0  0
 15  8  1  0  0  0  0
 15 21  1  0  0  0  0
 18  6  1  0  0  0  0
 19 13  2  0  0  0  0
 20  9  1  0  0  0  0
 21  3  1  6  0  0  0
 21 13  1  0  0  0  0
 22  6  1  0  0  0  0
 23 24  1  0  0  0  0
 26 27  1  0  0  0  0
 27 25  1  0  0  0  0
M  END
>  <MODEL>
2

>  <REMARK>
 VINA RESULT:      -6.5      3.766      8.083
  Name = 
  3 active torsions:
  status: ('A' for Active; 'I' for Inactive)
    1  A    between atoms: S_12  and  C_14
    2  A    between atoms: C_14  and  C_20
    3  A    between atoms: O_16  and  C_17
                            x       y       z     vdW  Elec       q    Type
                         _______ _______ _______ _____ _____    ______ ____

>  <TORSDO>
F 3

$$$$
=
 OpenBabel11052423213D

 27 30  0  0  1  0  0  0  0  0999 V2000
  161.5810  202.8550  149.1040 C   0  0  0  0  0  2  0  0  0  0  0  0
  161.6290  206.1440  149.2610 C   0  0  1  0  0  3  0  0  0  0  0  0
  162.4520  205.0370  147.2970 O   0  0  0  0  0  0  0  0  0  0  0  0
  161.4470  208.2580  150.6370 C   0  0  1  0  0  3  0  0  0  0  0  0
  160.7530  207.3310  149.6360 C   0  0  0  0  0  2  0  0  0  0  0  0
  160.9960  202.9450  152.1190 C   0  0  0  0  0  2  0  0  0  0  0  0
  161.4130  205.0410  150.2100 N   0  0  0  0  0  0  0  0  0  0  0  0
  160.8310  202.6360  144.8840 N   0  0  0  0  0  0  0  0  0  0  0  0
  161.9170  205.1720  151.5600 C   0  0  0  0  0  0  0  0  0  0  0  0
  160.4450  201.7110  145.7150 C   0  0  0  0  0  0  0  0  0  0  0  0
  160.6590  203.8390  149.8070 C   0  0  2  0  0  3  0  0  0  0  0  0
  161.6720  207.6410  152.0220 C   0  0  2  0  0  3  0  0  0  0  0  0
  161.3150  202.8460  147.6360 C   0  0  0  0  0  0  0  0  0  0  0  0
  161.3580  205.7480  147.8160 C   0  0  0  0  0  2  0  0  0  0  0  0
  161.3400  203.9390  145.3170 C   0  0  2  0  0  3  0  0  0  0  0  0
  162.6460  208.7470  150.1130 O   0  0  0  0  0  1  0  0  0  0  0  0
  159.8950  200.5000  145.2100 N   0  0  0  0  0  1  0  0  0  0  0  0
  161.6870  204.2250  152.4720 C   0  0  0  0  0  3  0  0  0  0  0  0
  160.6320  201.8640  147.1290 N   0  0  0  0  0  0  0  0  0  0  0  0
  162.6080  206.4260  152.0100 C   0  0  0  0  0  2  0  0  0  0  0  0
  161.9970  203.8300  146.7130 C   0  0  1  0  0  3  0  0  0  0  0  0
  159.9790  203.1800  151.0080 C   0  0  0  0  0  2  0  0  0  0  0  0
  160.7100  207.4470  153.9340 O   0  0  0  0  0  1  0  0  0  0  0  0
  160.4560  207.3500  152.6450 O   0  0  0  0  0  0  0  0  0  0  0  0
  160.2030  204.9490  145.2510 C   0  0  0  0  0  2  0  0  0  0  0  0
  161.5820  205.7420  143.1820 C   0  0  0  0  0  1  0  0  0  0  0  0
  160.8310  206.5360  144.6310 S   0  0  0  0  0  0  0  0  0  0  0  0
  2 14  1  6  0  0  0
  2  5  1  0  0  0  0
  2  7  1  0  0  0  0
  3 14  1  0  0  0  0
  4 16  1  6  0  0  0
  4 12  1  0  0  0  0
  5  4  1  0  0  0  0
  6 18  1  0  0  0  0
  7  9  1  0  0  0  0
  8 15  1  0  0  0  0
  8 10  2  0  0  0  0
  9 20  1  0  0  0  0
  9 18  2  0  0  0  0
 10 19  1  0  0  0  0
 11  1  1  1  0  0  0
 11  7  1  0  0  0  0
 11 22  1  0  0  0  0
 12 24  1  6  0  0  0
 13  1  1  0  0  0  0
 15 25  1  1  0  0  0
 15 21  1  0  0  0  0
 17 10  1  0  0  0  0
 19 13  2  0  0  0  0
 20 12  1  0  0  0  0
 21  3  1  1  0  0  0
 21 13  1  0  0  0  0
 22  6  1  0  0  0  0
 24 23  1  0  0  0  0
 26 27  1  0  0  0  0
 27 25  1  0  0  0  0
M  END
>  <MODEL>
3

>  <REMARK>
 VINA RESULT:      -5.5      3.419      6.836
  Name = 
  3 active torsions:
  status: ('A' for Active; 'I' for Inactive)
    1  A    between atoms: S_12  and  C_14
    2  A    between atoms: C_14  and  C_20
    3  A    between atoms: O_16  and  C_17
                            x       y       z     vdW  Elec       q    Type
                         _______ _______ _______ _____ _____    ______ ____

>  <TORSDO>
F 3

$$$$
