=
 OpenBabel11062410543D

 32 38  0  0  1  0  0  0  0  0999 V2000
  161.8980  208.6510  152.0090 C   0  0  2  0  0  3  0  0  0  0  0  0
  162.5360  211.2870  149.2820 C   0  0  0  0  0  3  0  0  0  0  0  0
  162.0320  210.5760  148.2620 C   0  0  0  0  0  3  0  0  0  0  0  0
  161.2290  206.0650  152.2480 C   0  0  1  0  0  3  0  0  0  0  0  0
  161.2010  204.8280  151.3670 C   0  0  0  0  0  0  0  0  0  0  0  0
  161.1600  203.6060  149.4030 N   0  0  0  0  0  0  0  0  0  0  0  0
  162.7350  210.6800  150.6520 C   0  0  0  0  0  2  0  0  0  0  0  0
  161.9150  209.4800  150.8070 N   0  0  0  0  0  0  0  0  0  0  0  0
  161.1290  207.3310  150.0900 C   0  0  1  0  0  3  0  0  0  0  0  0
  160.8780  202.5120  150.3150 C   0  0  0  0  0  2  0  0  0  0  0  0
  160.8240  203.2020  152.0130 S   0  0  0  0  0  0  0  0  0  0  0  0
  161.5810  209.1820  148.4480 C   0  0  0  0  0  3  0  0  0  0  0  0
  161.5650  208.6820  149.6820 C   0  0  0  0  0  0  0  0  0  0  0  0
  161.5940  206.1420  149.2600 C   0  0  0  0  0  2  0  0  0  0  0  0
  162.0300  205.8300  153.3660 O   0  0  0  0  0  1  0  0  0  0  0  0
  161.2570  203.4050  147.9670 C   0  0  0  0  0  1  0  0  0  0  0  0
  161.8060  207.2250  151.4430 C   0  0  1  0  0  3  0  0  0  0  0  0
  161.3000  204.8680  150.0330 C   0  0  0  0  0  0  0  0  0  0  0  0
  159.2080  210.8070  153.7080 C   0  0  2  0  0  3  0  0  0  0  0  0
  161.2650  209.1890  154.6460 S   0  0  0  0  0  0  0  0  0  0  0  0
  159.2050  210.1230  155.9870 O   0  0  0  0  0  0  0  0  0  0  0  0
  160.7150  209.0080  152.9230 C   0  0  1  0  0  3  0  0  0  0  0  0
  159.7880  210.1410  154.9150 C   0  0  0  0  0  0  0  0  0  0  0  0
  159.9950  210.2950  152.5120 C   0  0  0  0  0  2  0  0  0  0  0  0
  158.0900  212.9130  154.4900 C   0  0  0  0  0  2  0  0  0  0  0  0
  157.9890  212.8770  153.0220 N   0  0  0  0  0  0  0  0  0  0  0  0
  159.1850  212.3500  153.7000 C   0  0  2  0  0  3  0  0  0  0  0  0
  158.3360  214.2030  152.5460 C   0  0  0  0  0  2  0  0  0  0  0  0
  158.6360  214.3750  149.9900 C   0  0  1  0  0  3  0  0  0  0  0  0
  157.6840  214.4480  151.1900 C   0  0  1  0  0  3  0  0  0  0  0  0
  160.0860  214.0530  150.3340 C   0  0  0  0  0  1  0  0  0  0  0  0
  157.7610  213.1900  150.3490 C   0  0  0  0  0  2  0  0  0  0  0  0
  1  8  1  6  0  0  0
  1 22  1  0  0  0  0
  2  7  1  0  0  0  0
  3 12  1  0  0  0  0
  3  2  2  0  0  0  0
  4 15  1  1  0  0  0
  5 11  1  0  0  0  0
  5  4  1  0  0  0  0
  6 18  1  0  0  0  0
  6 10  1  0  0  0  0
  7  8  1  0  0  0  0
  9 14  1  6  0  0  0
  9 17  1  0  0  0  0
 10 11  1  0  0  0  0
 12 13  2  0  0  0  0
 13  9  1  0  0  0  0
 13  8  1  0  0  0  0
 14 18  1  0  0  0  0
 16  6  1  0  0  0  0
 17  1  1  0  0  0  0
 17  4  1  0  0  0  0
 18  5  2  0  0  0  0
 19 23  1  0  0  0  0
 20 23  1  0  0  0  0
 22 20  1  0  0  0  0
 23 21  2  0  0  0  0
 24 22  1  0  0  0  0
 24 19  1  0  0  0  0
 26 27  1  0  0  0  0
 26 25  1  0  0  0  0
 27 19  1  0  0  0  0
 27 25  1  0  0  0  0
 28 26  1  0  0  0  0
 29 31  1  0  0  0  0
 29 32  1  0  0  0  0
 29 30  1  0  0  0  0
 30 28  1  0  0  0  0
 32 30  1  0  0  0  0
M  END
>  <MODEL>
1

>  <REMARK>
 VINA RESULT:      -6.7      0.000      0.000
  Name = 
  4 active torsions:
  status: ('A' for Active; 'I' for Inactive)
    1  A    between atoms: C_3  and  C_14
    2  A    between atoms: C_8  and  C_23
    3  A    between atoms: C_10  and  C_24
    4  A    between atoms: N_19  and  C_24
                            x       y       z     vdW  Elec       q    Type
                         _______ _______ _______ _____ _____    ______ ____

>  <TORSDO>
F 4

$$$$
=
 OpenBabel11062410543D

 32 38  0  0  1  0  0  0  0  0999 V2000
  160.7910  211.1580  153.4720 C   0  0  2  0  0  3  0  0  0  0  0  0
  162.0730  209.3430  156.6110 C   0  0  0  0  0  3  0  0  0  0  0  0
  160.9000  209.3140  157.2600 C   0  0  0  0  0  3  0  0  0  0  0  0
  158.6390  212.5120  152.6190 C   0  0  1  0  0  3  0  0  0  0  0  0
  157.4350  213.2050  153.2310 C   0  0  0  0  0  0  0  0  0  0  0  0
  155.8470  213.7020  154.8400 N   0  0  0  0  0  0  0  0  0  0  0  0
  162.2540  210.1250  155.3300 C   0  0  0  0  0  2  0  0  0  0  0  0
  160.9600  210.4010  154.7090 N   0  0  0  0  0  0  0  0  0  0  0  0
  158.7060  211.2170  154.7600 C   0  0  1  0  0  3  0  0  0  0  0  0
  155.2270  214.4070  153.7320 C   0  0  0  0  0  2  0  0  0  0  0  0
  156.2860  214.1680  152.2550 S   0  0  0  0  0  0  0  0  0  0  0  0
  159.7050  209.9890  156.7150 C   0  0  0  0  0  3  0  0  0  0  0  0
  159.7820  210.5240  155.4980 C   0  0  0  0  0  0  0  0  0  0  0  0
  157.8540  212.2310  155.5110 C   0  0  0  0  0  2  0  0  0  0  0  0
  159.3620  213.4200  151.8430 O   0  0  0  0  0  1  0  0  0  0  0  0
  155.2530  213.6760  156.1650 C   0  0  0  0  0  1  0  0  0  0  0  0
  159.5260  211.9860  153.7440 C   0  0  1  0  0  3  0  0  0  0  0  0
  157.0490  213.0300  154.5010 C   0  0  0  0  0  0  0  0  0  0  0  0
  160.8300  207.9000  151.4320 C   0  0  2  0  0  3  0  0  0  0  0  0
  162.0910  210.3640  151.1650 S   0  0  0  0  0  0  0  0  0  0  0  0
  161.8310  208.4770  149.3510 O   0  0  0  0  0  0  0  0  0  0  0  0
  160.6460  210.2250  152.2580 C   0  0  1  0  0  3  0  0  0  0  0  0
  161.6330  208.7730  150.5190 C   0  0  0  0  0  0  0  0  0  0  0  0
  160.4710  208.7530  152.6380 C   0  0  0  0  0  2  0  0  0  0  0  0
  162.8000  206.3510  151.3020 C   0  0  0  0  0  2  0  0  0  0  0  0
  161.6290  205.6230  150.7870 N   0  0  0  0  0  0  0  0  0  0  0  0
  161.4820  206.5810  151.8960 C   0  0  2  0  0  3  0  0  0  0  0  0
  161.6610  204.3020  151.3860 C   0  0  0  0  0  2  0  0  0  0  0  0
  160.4180  203.1330  149.4520 C   0  0  1  0  0  3  0  0  0  0  0  0
  160.4410  203.5060  150.9390 C   0  0  1  0  0  3  0  0  0  0  0  0
  161.6270  203.6010  148.6500 C   0  0  0  0  0  1  0  0  0  0  0  0
  160.8660  202.1230  150.4900 C   0  0  0  0  0  2  0  0  0  0  0  0
  1 17  1  0  0  0  0
  1  8  1  1  0  0  0
  2  3  2  0  0  0  0
  4 15  1  1  0  0  0
  4  5  1  0  0  0  0
  4 17  1  0  0  0  0
  5 18  2  0  0  0  0
  6 16  1  0  0  0  0
  7  2  1  0  0  0  0
  8  7  1  0  0  0  0
  8 13  1  0  0  0  0
  9 13  1  0  0  0  0
  9 14  1  1  0  0  0
 10  6  1  0  0  0  0
 11  5  1  0  0  0  0
 11 10  1  0  0  0  0
 12  3  1  0  0  0  0
 13 12  2  0  0  0  0
 17  9  1  0  0  0  0
 18  6  1  0  0  0  0
 18 14  1  0  0  0  0
 19 27  1  0  0  0  0
 19 24  1  0  0  0  0
 20 22  1  0  0  0  0
 21 23  2  0  0  0  0
 22 24  1  0  0  0  0
 22  1  1  0  0  0  0
 23 20  1  0  0  0  0
 23 19  1  0  0  0  0
 25 27  1  0  0  0  0
 26 25  1  0  0  0  0
 26 28  1  0  0  0  0
 26 27  1  0  0  0  0
 29 32  1  0  0  0  0
 29 30  1  0  0  0  0
 30 28  1  0  0  0  0
 31 29  1  0  0  0  0
 32 30  1  0  0  0  0
M  END
>  <MODEL>
2

>  <REMARK>
 VINA RESULT:      -6.2      2.676      8.638
  Name = 
  4 active torsions:
  status: ('A' for Active; 'I' for Inactive)
    1  A    between atoms: C_3  and  C_14
    2  A    between atoms: C_8  and  C_23
    3  A    between atoms: C_10  and  C_24
    4  A    between atoms: N_19  and  C_24
                            x       y       z     vdW  Elec       q    Type
                         _______ _______ _______ _____ _____    ______ ____

>  <TORSDO>
F 4

$$$$
=
 OpenBabel11062410543D

 32 38  0  0  1  0  0  0  0  0999 V2000
  161.9930  207.3610  151.6370 C   0  0  2  0  0  3  0  0  0  0  0  0
  162.5180  210.6970  149.7950 C   0  0  0  0  0  3  0  0  0  0  0  0
  161.9560  210.3210  148.6360 C   0  0  0  0  0  3  0  0  0  0  0  0
  161.3120  204.8180  151.1250 C   0  0  1  0  0  3  0  0  0  0  0  0
  161.2280  203.9010  149.9170 C   0  0  0  0  0  0  0  0  0  0  0  0
  161.0770  203.3230  147.6820 N   0  0  0  0  0  0  0  0  0  0  0  0
  162.7800  209.7090  150.9090 C   0  0  0  0  0  2  0  0  0  0  0  0
  161.9570  208.5130  150.7400 N   0  0  0  0  0  0  0  0  0  0  0  0
  161.1160  206.6720  149.4530 C   0  0  1  0  0  3  0  0  0  0  0  0
  160.8310  202.0050  148.2390 C   0  0  0  0  0  2  0  0  0  0  0  0
  160.8700  202.1540  150.0650 S   0  0  0  0  0  0  0  0  0  0  0  0
  161.5020  208.9330  148.4190 C   0  0  0  0  0  3  0  0  0  0  0  0
  161.5440  208.0860  149.4460 C   0  0  0  0  0  0  0  0  0  0  0  0
  161.5270  205.7890  148.2830 C   0  0  0  0  0  2  0  0  0  0  0  0
  162.1660  204.2650  152.0800 O   0  0  0  0  0  1  0  0  0  0  0  0
  161.0990  203.5620  146.2490 C   0  0  0  0  0  1  0  0  0  0  0  0
  161.8590  206.1700  150.6760 C   0  0  1  0  0  3  0  0  0  0  0  0
  161.2610  204.3400  148.6530 C   0  0  0  0  0  0  0  0  0  0  0  0
  159.7060  208.8150  154.3630 C   0  0  2  0  0  3  0  0  0  0  0  0
  161.3500  206.5780  154.2090 S   0  0  0  0  0  0  0  0  0  0  0  0
  159.4530  207.0720  155.9630 O   0  0  0  0  0  0  0  0  0  0  0  0
  160.8610  207.4220  152.6760 C   0  0  1  0  0  3  0  0  0  0  0  0
  160.0810  207.5240  155.0190 C   0  0  0  0  0  0  0  0  0  0  0  0
  160.4330  208.8480  153.0280 C   0  0  0  0  0  2  0  0  0  0  0  0
  159.7070  209.9910  156.5800 C   0  0  0  0  0  2  0  0  0  0  0  0
  158.7600  210.6990  155.7030 N   0  0  0  0  0  0  0  0  0  0  0  0
  159.9920  210.1110  155.1500 C   0  0  2  0  0  3  0  0  0  0  0  0
  159.0180  212.1170  155.8680 C   0  0  0  0  0  2  0  0  0  0  0  0
  157.7220  213.5730  154.1780 C   0  0  1  0  0  3  0  0  0  0  0  0
  157.7520  212.9080  155.5600 C   0  0  1  0  0  3  0  0  0  0  0  0
  158.9560  213.3280  153.3170 C   0  0  0  0  0  1  0  0  0  0  0  0
  157.0060  212.2570  154.4130 C   0  0  0  0  0  2  0  0  0  0  0  0
  1  8  1  6  0  0  0
  1 22  1  0  0  0  0
  2  7  1  0  0  0  0
  3  2  2  0  0  0  0
  4 15  1  1  0  0  0
  5 11  1  0  0  0  0
  5  4  1  0  0  0  0
  6 10  1  0  0  0  0
  6 18  1  0  0  0  0
  8  7  1  0  0  0  0
  9 14  1  6  0  0  0
  9 17  1  0  0  0  0
 10 11  1  0  0  0  0
 12  3  1  0  0  0  0
 12 13  2  0  0  0  0
 13  9  1  0  0  0  0
 13  8  1  0  0  0  0
 14 18  1  0  0  0  0
 16  6  1  0  0  0  0
 17  4  1  0  0  0  0
 17  1  1  0  0  0  0
 18  5  2  0  0  0  0
 19 23  1  0  0  0  0
 19 27  1  0  0  0  0
 20 23  1  0  0  0  0
 22 24  1  0  0  0  0
 22 20  1  0  0  0  0
 23 21  2  0  0  0  0
 24 19  1  0  0  0  0
 26 28  1  0  0  0  0
 26 25  1  0  0  0  0
 27 26  1  0  0  0  0
 27 25  1  0  0  0  0
 29 32  1  0  0  0  0
 29 30  1  0  0  0  0
 30 28  1  0  0  0  0
 31 29  1  0  0  0  0
 32 30  1  0  0  0  0
M  END
>  <MODEL>
3

>  <REMARK>
 VINA RESULT:      -6.1      1.804      2.438
  Name = 
  4 active torsions:
  status: ('A' for Active; 'I' for Inactive)
    1  A    between atoms: C_3  and  C_14
    2  A    between atoms: C_8  and  C_23
    3  A    between atoms: C_10  and  C_24
    4  A    between atoms: N_19  and  C_24
                            x       y       z     vdW  Elec       q    Type
                         _______ _______ _______ _____ _____    ______ ____

>  <TORSDO>
F 4

$$$$
=
 OpenBabel11062410543D

 32 38  0  0  1  0  0  0  0  0999 V2000
  162.0900  208.1510  150.7610 C   0  0  2  0  0  3  0  0  0  0  0  0
  161.9130  205.7810  153.7850 C   0  0  0  0  0  3  0  0  0  0  0  0
  160.9570  206.4500  154.4470 C   0  0  0  0  0  3  0  0  0  0  0  0
  161.2490  210.5840  150.0080 C   0  0  1  0  0  3  0  0  0  0  0  0
  160.7140  211.8400  150.6710 C   0  0  0  0  0  0  0  0  0  0  0  0
  159.7350  213.1310  152.3240 N   0  0  0  0  0  0  0  0  0  0  0  0
  162.5650  206.3460  152.5440 C   0  0  0  0  0  2  0  0  0  0  0  0
  161.7300  207.3920  151.9560 N   0  0  0  0  0  0  0  0  0  0  0  0
  160.4560  209.4200  152.0780 C   0  0  1  0  0  3  0  0  0  0  0  0
  159.7050  214.1220  151.2630 C   0  0  0  0  0  2  0  0  0  0  0  0
  160.4240  213.3540  149.7610 S   0  0  0  0  0  0  0  0  0  0  0  0
  160.4450  207.7430  153.9530 C   0  0  0  0  0  3  0  0  0  0  0  0
  160.8610  208.1760  152.7650 C   0  0  0  0  0  0  0  0  0  0  0  0
  160.3950  210.7050  152.8920 C   0  0  0  0  0  2  0  0  0  0  0  0
  162.3940  210.8900  149.2710 O   0  0  0  0  0  1  0  0  0  0  0  0
  159.2230  213.4120  153.6540 C   0  0  0  0  0  1  0  0  0  0  0  0
  161.5990  209.5690  151.0920 C   0  0  1  0  0  3  0  0  0  0  0  0
  160.2750  211.8790  151.9350 C   0  0  0  0  0  0  0  0  0  0  0  0
  161.1450  205.5590  148.0850 C   0  0  2  0  0  3  0  0  0  0  0  0
  162.3300  208.0740  148.0080 S   0  0  0  0  0  0  0  0  0  0  0  0
  161.2740  206.7240  146.0130 O   0  0  0  0  0  0  0  0  0  0  0  0
  161.4280  207.5670  149.5020 C   0  0  1  0  0  3  0  0  0  0  0  0
  161.5680  206.6870  147.1970 C   0  0  0  0  0  0  0  0  0  0  0  0
  161.3380  206.0400  149.5140 C   0  0  0  0  0  2  0  0  0  0  0  0
  161.5710  203.5910  146.5870 C   0  0  0  0  0  2  0  0  0  0  0  0
  160.8960  203.0910  147.7960 N   0  0  0  0  0  0  0  0  0  0  0  0
  161.8560  204.2040  147.8850 C   0  0  2  0  0  3  0  0  0  0  0  0
  161.6110  201.8980  148.2100 C   0  0  0  0  0  2  0  0  0  0  0  0
  160.4430  201.2280  150.4100 C   0  0  1  0  0  3  0  0  0  0  0  0
  160.6530  200.9460  148.9170 C   0  0  1  0  0  3  0  0  0  0  0  0
  161.2100  202.4260  150.9550 C   0  0  0  0  0  1  0  0  0  0  0  0
  159.4290  201.7050  149.3880 C   0  0  0  0  0  2  0  0  0  0  0  0
  1 17  1  0  0  0  0
  1  8  1  1  0  0  0
  2  3  2  0  0  0  0
  4 15  1  1  0  0  0
  4  5  1  0  0  0  0
  4 17  1  0  0  0  0
  5 18  2  0  0  0  0
  6 16  1  0  0  0  0
  7  2  1  0  0  0  0
  8  7  1  0  0  0  0
  8 13  1  0  0  0  0
  9 13  1  0  0  0  0
  9 14  1  1  0  0  0
 10  6  1  0  0  0  0
 11  5  1  0  0  0  0
 11 10  1  0  0  0  0
 12  3  1  0  0  0  0
 13 12  2  0  0  0  0
 17  9  1  0  0  0  0
 18  6  1  0  0  0  0
 18 14  1  0  0  0  0
 19 24  1  0  0  0  0
 20 22  1  0  0  0  0
 21 23  2  0  0  0  0
 22 24  1  0  0  0  0
 22  1  1  0  0  0  0
 23 20  1  0  0  0  0
 23 19  1  0  0  0  0
 25 26  1  0  0  0  0
 25 27  1  0  0  0  0
 26 27  1  0  0  0  0
 26 28  1  0  0  0  0
 27 19  1  0  0  0  0
 28 30  1  0  0  0  0
 29 31  1  0  0  0  0
 30 32  1  0  0  0  0
 30 29  1  0  0  0  0
 32 29  1  0  0  0  0
M  END
>  <MODEL>
4

>  <REMARK>
 VINA RESULT:      -5.7      2.795      8.759
  Name = 
  4 active torsions:
  status: ('A' for Active; 'I' for Inactive)
    1  A    between atoms: C_3  and  C_14
    2  A    between atoms: C_8  and  C_23
    3  A    between atoms: C_10  and  C_24
    4  A    between atoms: N_19  and  C_24
                            x       y       z     vdW  Elec       q    Type
                         _______ _______ _______ _____ _____    ______ ____

>  <TORSDO>
F 4

$$$$
=
 OpenBabel11062410543D

 32 38  0  0  1  0  0  0  0  0999 V2000
  162.1010  208.5630  150.7990 C   0  0  2  0  0  3  0  0  0  0  0  0
  161.9720  205.9150  153.5860 C   0  0  0  0  0  3  0  0  0  0  0  0
  160.9740  206.4790  154.2850 C   0  0  0  0  0  3  0  0  0  0  0  0
  161.1680  211.0180  150.2540 C   0  0  1  0  0  3  0  0  0  0  0  0
  160.5650  212.1830  151.0180 C   0  0  0  0  0  0  0  0  0  0  0  0
  159.5000  213.2720  152.7600 N   0  0  0  0  0  0  0  0  0  0  0  0
  162.6210  206.6210  152.4170 C   0  0  0  0  0  2  0  0  0  0  0  0
  161.7520  207.6810  151.9090 N   0  0  0  0  0  0  0  0  0  0  0  0
  160.3880  209.6330  152.1890 C   0  0  1  0  0  3  0  0  0  0  0  0
  159.4460  214.3550  151.7950 C   0  0  0  0  0  2  0  0  0  0  0  0
  160.2260  213.7610  150.2460 S   0  0  0  0  0  0  0  0  0  0  0  0
  160.4150  207.7900  153.9010 C   0  0  0  0  0  3  0  0  0  0  0  0
  160.8340  208.3490  152.7670 C   0  0  0  0  0  0  0  0  0  0  0  0
  160.2550  210.8340  153.1170 C   0  0  0  0  0  2  0  0  0  0  0  0
  162.3120  211.4390  149.5750 O   0  0  0  0  0  1  0  0  0  0  0  0
  158.9500  213.4050  154.0990 C   0  0  0  0  0  1  0  0  0  0  0  0
  161.5410  209.9210  151.2480 C   0  0  1  0  0  3  0  0  0  0  0  0
  160.1020  212.0850  152.2700 C   0  0  0  0  0  0  0  0  0  0  0  0
  160.4770  206.1580  148.2780 C   0  0  2  0  0  3  0  0  0  0  0  0
  162.7910  207.7000  148.2640 S   0  0  0  0  0  0  0  0  0  0  0  0
  161.5940  206.5650  146.2160 O   0  0  0  0  0  0  0  0  0  0  0  0
  161.4890  208.0720  149.4760 C   0  0  1  0  0  3  0  0  0  0  0  0
  161.5900  206.6890  147.4300 C   0  0  0  0  0  0  0  0  0  0  0  0
  160.6130  206.8270  149.6360 C   0  0  0  0  0  2  0  0  0  0  0  0
  161.3880  204.1010  149.3910 C   0  0  0  0  0  2  0  0  0  0  0  0
  161.6030  203.9540  147.9420 N   0  0  0  0  0  0  0  0  0  0  0  0
  160.3970  204.6270  148.4520 C   0  0  2  0  0  3  0  0  0  0  0  0
  161.2060  202.6020  147.5960 C   0  0  0  0  0  2  0  0  0  0  0  0
  160.4460  201.8050  145.2630 C   0  0  1  0  0  3  0  0  0  0  0  0
  161.5920  202.3080  146.1510 C   0  0  1  0  0  3  0  0  0  0  0  0
  159.0940  201.6920  145.9570 C   0  0  0  0  0  1  0  0  0  0  0  0
  160.8670  203.2610  145.2230 C   0  0  0  0  0  2  0  0  0  0  0  0
  1 17  1  0  0  0  0
  1  8  1  1  0  0  0
  2  3  2  0  0  0  0
  4 15  1  1  0  0  0
  4  5  1  0  0  0  0
  4 17  1  0  0  0  0
  5 18  2  0  0  0  0
  6 16  1  0  0  0  0
  7  2  1  0  0  0  0
  8  7  1  0  0  0  0
  8 13  1  0  0  0  0
  9 13  1  0  0  0  0
  9 14  1  1  0  0  0
 10  6  1  0  0  0  0
 11  5  1  0  0  0  0
 11 10  1  0  0  0  0
 12  3  1  0  0  0  0
 13 12  2  0  0  0  0
 17  9  1  0  0  0  0
 18  6  1  0  0  0  0
 18 14  1  0  0  0  0
 19 27  1  0  0  0  0
 19 24  1  0  0  0  0
 20 22  1  0  0  0  0
 21 23  2  0  0  0  0
 22 24  1  0  0  0  0
 22  1  1  0  0  0  0
 23 20  1  0  0  0  0
 23 19  1  0  0  0  0
 26 27  1  0  0  0  0
 26 25  1  0  0  0  0
 27 25  1  0  0  0  0
 28 26  1  0  0  0  0
 29 31  1  0  0  0  0
 29 30  1  0  0  0  0
 30 28  1  0  0  0  0
 32 29  1  0  0  0  0
 32 30  1  0  0  0  0
M  END
>  <MODEL>
5

>  <REMARK>
 VINA RESULT:      -4.8      2.863      8.677
  Name = 
  4 active torsions:
  status: ('A' for Active; 'I' for Inactive)
    1  A    between atoms: C_3  and  C_14
    2  A    between atoms: C_8  and  C_23
    3  A    between atoms: C_10  and  C_24
    4  A    between atoms: N_19  and  C_24
                            x       y       z     vdW  Elec       q    Type
                         _______ _______ _______ _____ _____    ______ ____

>  <TORSDO>
F 4

$$$$
