=
 OpenBabel11062408173D

 32 37  0  0  1  0  0  0  0  0999 V2000
  160.8600  210.9840  153.2880 C   0  0  1  0  0  3  0  0  0  0  0  0
  159.1690  210.5850  154.9960 C   0  0  2  0  0  3  0  0  0  0  0  0
  161.3430  206.4890  152.1760 C   0  0  1  0  0  3  0  0  0  0  0  0
  160.8460  210.6280  151.8710 N   0  0  0  0  0  2  0  0  0  0  0  0
  159.4750  211.4000  153.7330 C   0  0  1  0  0  3  0  0  0  0  0  0
  159.0460  211.4110  156.2980 C   0  0  2  0  0  3  0  0  0  0  0  0
  160.5010  205.2270  152.1130 C   0  0  0  0  0  1  0  0  0  0  0  0
  163.1410  209.2040  157.0500 O   0  0  0  0  0  0  0  0  0  0  0  0
  160.2530  209.5020  155.0520 C   0  0  1  0  0  3  0  0  0  0  0  0
  163.2290  211.4110  156.1250 C   0  0  0  0  0  1  0  0  0  0  0  0
  161.1510  210.4700  157.2610 C   0  0  1  0  0  3  0  0  0  0  0  0
  158.2340  212.6420  156.0590 C   0  0  0  0  0  0  0  0  0  0  0  0
  161.5560  207.0750  150.7680 C   0  0  1  0  0  3  0  0  0  0  0  0
  161.6490  209.4260  151.7590 C   0  0  2  0  0  3  0  0  0  0  0  0
  160.4290  211.7560  156.8380 C   0  0  0  0  0  2  0  0  0  0  0  0
  159.4550  212.9230  153.9150 C   0  0  0  0  0  2  0  0  0  0  0  0
  161.0960  208.5340  150.6400 C   0  0  0  0  0  2  0  0  0  0  0  0
  160.7880  207.4890  153.1990 C   0  0  2  0  0  3  0  0  0  0  0  0
  159.4410  207.7650  152.9290 O   0  0  0  0  0  1  0  0  0  0  0  0
  161.3130  209.8460  154.0940 N   0  0  1  0  0  0  0  0  0  0  0  0
  157.3450  213.0240  156.9700 C   0  0  0  0  0  2  0  0  0  0  0  0
  161.6400  208.7800  153.1350 C   0  0  2  0  0  3  0  0  0  0  0  0
  160.8050  209.2310  156.4730 C   0  0  2  0  0  3  0  0  0  0  0  0
  158.3810  213.3340  154.8080 N   0  0  0  0  0  0  0  0  0  0  0  0
  162.6680  210.5180  157.2280 C   0  0  1  0  0  3  0  0  0  0  0  0
  162.1060  208.4480  156.4560 C   0  0  0  0  0  2  0  0  0  0  0  0
  157.4470  214.3570  154.3550 C   0  0  0  0  0  2  0  0  0  0  0  0
  156.5840  213.8180  153.2290 C   0  0  0  0  0  2  0  0  0  0  0  0
  155.2390  213.4000  153.7830 C   0  0  0  0  0  1  0  0  0  0  0  0
  163.3030  206.9230  150.2860 S   0  0  0  0  0  0  0  0  0  0  0  0
  162.1830  206.5290  147.8350 C   0  0  0  0  0  1  0  0  0  0  0  0
  162.9870  207.5490  148.6120 C   0  0  0  0  0  2  0  0  0  0  0  0
  1  4  1  6  0  0  0
  1  5  1  0  0  0  0
  1 20  1  0  0  0  0
  2  9  1  0  0  0  0
  2  6  1  0  0  0  0
  3 18  1  0  0  0  0
  5 16  1  0  0  0  0
  5  2  1  0  0  0  0
  6 15  1  0  0  0  0
  7  3  1  0  0  0  0
  8 25  1  0  0  0  0
  9 23  1  0  0  0  0
 10 25  1  0  0  0  0
 12  6  1  0  0  0  0
 12 21  2  0  0  0  0
 13  3  1  0  0  0  0
 14  4  1  0  0  0  0
 14 22  1  0  0  0  0
 15 11  1  0  0  0  0
 16 24  1  0  0  0  0
 17 13  1  0  0  0  0
 17 14  1  0  0  0  0
 19 18  1  0  0  0  0
 20  9  1  0  0  0  0
 22 18  1  0  0  0  0
 22 20  1  0  0  0  0
 23 11  1  0  0  0  0
 24 12  1  0  0  0  0
 25 11  1  0  0  0  0
 26 23  1  0  0  0  0
 26  8  1  0  0  0  0
 27 24  1  0  0  0  0
 28 29  1  0  0  0  0
 28 27  1  0  0  0  0
 30 13  1  0  0  0  0
 31 32  1  0  0  0  0
 32 30  1  0  0  0  0
M  END
>  <MODEL>
1

>  <REMARK>
 VINA RESULT:      -0.7      0.000      0.000
  Name = 
  4 active torsions:
  status: ('A' for Active; 'I' for Inactive)
    1  A    between atoms: C_14  and  C_21
    2  A    between atoms: C_14  and  N_29
    3  A    between atoms: C_15  and  S_19
    4  A    between atoms: S_19  and  C_26
                            x       y       z     vdW  Elec       q    Type
                         _______ _______ _______ _____ _____    ______ ____

>  <TORSDO>
F 4

$$$$
=
 OpenBabel11062408173D

 32 37  0  0  1  0  0  0  0  0999 V2000
  159.3640  209.8770  153.3560 C   0  0  1  0  0  3  0  0  0  0  0  0
  161.6600  209.0660  153.4250 C   0  0  2  0  0  3  0  0  0  0  0  0
  159.9740  213.0360  156.7210 C   0  0  1  0  0  3  0  0  0  0  0  0
  158.8670  211.2300  153.1170 N   0  0  0  0  0  2  0  0  0  0  0  0
  160.5740  209.6070  152.4870 C   0  0  1  0  0  3  0  0  0  0  0  0
  162.0630  207.5930  153.1860 C   0  0  2  0  0  3  0  0  0  0  0  0
  161.0690  213.9400  157.2590 C   0  0  0  0  0  1  0  0  0  0  0  0
  159.7290  207.2050  157.2610 O   0  0  0  0  0  0  0  0  0  0  0  0
  161.1460  209.3430  154.8440 C   0  0  1  0  0  3  0  0  0  0  0  0
  158.5070  206.7870  155.2440 C   0  0  0  0  0  1  0  0  0  0  0  0
  161.0540  206.8190  155.3370 C   0  0  1  0  0  3  0  0  0  0  0  0
  162.2200  207.3270  151.7230 C   0  0  0  0  0  0  0  0  0  0  0  0
  158.9780  213.8370  155.8620 C   0  0  1  0  0  3  0  0  0  0  0  0
  158.5520  211.7700  154.4250 C   0  0  2  0  0  3  0  0  0  0  0  0
  161.0370  206.6560  153.8100 C   0  0  0  0  0  2  0  0  0  0  0  0
  160.1610  208.6640  151.3510 C   0  0  0  0  0  2  0  0  0  0  0  0
  158.8150  213.2820  154.4410 C   0  0  0  0  0  2  0  0  0  0  0  0
  160.5540  211.7980  156.0240 C   0  0  2  0  0  3  0  0  0  0  0  0
  161.4620  212.1800  155.0280 O   0  0  0  0  0  1  0  0  0  0  0  0
  159.7250  209.7090  154.7670 N   0  0  1  0  0  0  0  0  0  0  0  0
  163.2360  206.5810  151.3010 C   0  0  0  0  0  2  0  0  0  0  0  0
  159.3860  210.9810  155.4220 C   0  0  2  0  0  3  0  0  0  0  0  0
  161.4070  208.1930  155.8470 C   0  0  2  0  0  3  0  0  0  0  0  0
  161.3120  207.9590  150.8060 N   0  0  0  0  0  0  0  0  0  0  0  0
  159.7610  206.4770  156.0560 C   0  0  1  0  0  3  0  0  0  0  0  0
  160.5800  208.3230  157.1140 C   0  0  0  0  0  2  0  0  0  0  0  0
  161.5460  208.0060  149.3680 C   0  0  0  0  0  2  0  0  0  0  0  0
  160.8110  206.8700  148.6800 C   0  0  0  0  0  2  0  0  0  0  0  0
  161.7960  206.0490  147.8740 C   0  0  0  0  0  1  0  0  0  0  0  0
  157.3620  213.9170  156.6930 S   0  0  0  0  0  0  0  0  0  0  0  0
  154.9970  214.3510  155.4150 C   0  0  0  0  0  1  0  0  0  0  0  0
  156.4840  214.2700  155.1450 C   0  0  0  0  0  2  0  0  0  0  0  0
  1  4  1  1  0  0  0
  1 20  1  0  0  0  0
  2  9  1  0  0  0  0
  3  7  1  0  0  0  0
  4 14  1  0  0  0  0
  5  1  1  0  0  0  0
  5  2  1  0  0  0  0
  6  2  1  0  0  0  0
  6 15  1  0  0  0  0
  9 23  1  0  0  0  0
 10 25  1  0  0  0  0
 11 23  1  0  0  0  0
 11 25  1  0  0  0  0
 12  6  1  0  0  0  0
 13 30  1  0  0  0  0
 13  3  1  0  0  0  0
 14 17  1  0  0  0  0
 14 22  1  0  0  0  0
 15 11  1  0  0  0  0
 16  5  1  0  0  0  0
 17 13  1  0  0  0  0
 18  3  1  0  0  0  0
 19 18  1  0  0  0  0
 20  9  1  0  0  0  0
 20 22  1  0  0  0  0
 21 12  2  0  0  0  0
 22 18  1  0  0  0  0
 23 26  1  0  0  0  0
 24 16  1  0  0  0  0
 24 12  1  0  0  0  0
 25  8  1  0  0  0  0
 26  8  1  0  0  0  0
 27 24  1  0  0  0  0
 28 27  1  0  0  0  0
 29 28  1  0  0  0  0
 32 31  1  0  0  0  0
 32 30  1  0  0  0  0
M  END
>  <MODEL>
2

>  <REMARK>
 VINA RESULT:       0.2      2.722      6.991
  Name = 
  4 active torsions:
  status: ('A' for Active; 'I' for Inactive)
    1  A    between atoms: C_14  and  C_21
    2  A    between atoms: C_14  and  N_29
    3  A    between atoms: C_15  and  S_19
    4  A    between atoms: S_19  and  C_26
                            x       y       z     vdW  Elec       q    Type
                         _______ _______ _______ _____ _____    ______ ____

>  <TORSDO>
F 4

$$$$
=
 OpenBabel11062408173D

 32 37  0  0  1  0  0  0  0  0999 V2000
  161.0010  210.3080  153.2480 C   0  0  1  0  0  3  0  0  0  0  0  0
  159.4120  210.5930  155.0720 C   0  0  2  0  0  3  0  0  0  0  0  0
  161.0500  205.6600  153.5100 C   0  0  1  0  0  3  0  0  0  0  0  0
  160.8560  209.5550  152.0040 N   0  0  0  0  0  2  0  0  0  0  0  0
  159.6880  210.9680  153.6110 C   0  0  1  0  0  3  0  0  0  0  0  0
  159.4480  211.7720  156.0720 C   0  0  2  0  0  3  0  0  0  0  0  0
  160.1090  204.5220  153.8650 C   0  0  0  0  0  1  0  0  0  0  0  0
  163.4030  209.5010  157.2610 O   0  0  0  0  0  0  0  0  0  0  0  0
  160.4090  209.4750  155.4000 C   0  0  1  0  0  3  0  0  0  0  0  0
  163.5950  211.3200  155.7150 C   0  0  0  0  0  1  0  0  0  0  0  0
  161.5380  210.9580  157.1750 C   0  0  1  0  0  3  0  0  0  0  0  0
  158.7190  212.9510  155.5140 C   0  0  0  0  0  0  0  0  0  0  0  0
  161.2050  205.7840  151.9820 C   0  0  1  0  0  3  0  0  0  0  0  0
  161.5520  208.3020  152.2190 C   0  0  2  0  0  3  0  0  0  0  0  0
  160.8890  212.1260  156.4200 C   0  0  0  0  0  2  0  0  0  0  0  0
  159.8000  212.4720  153.3310 C   0  0  0  0  0  2  0  0  0  0  0  0
  160.8520  207.1780  151.4450 C   0  0  0  0  0  2  0  0  0  0  0  0
  160.6500  206.9650  154.2110 C   0  0  2  0  0  3  0  0  0  0  0  0
  159.3130  207.2780  153.9330 O   0  0  0  0  0  1  0  0  0  0  0  0
  161.4200  209.4190  154.3350 N   0  0  1  0  0  0  0  0  0  0  0  0
  157.9310  213.6670  156.3090 C   0  0  0  0  0  2  0  0  0  0  0  0
  161.5930  208.0920  153.7250 C   0  0  2  0  0  3  0  0  0  0  0  0
  161.0400  209.5810  156.8100 C   0  0  2  0  0  3  0  0  0  0  0  0
  158.8290  213.2270  154.1080 N   0  0  0  0  0  0  0  0  0  0  0  0
  163.0480  210.8480  157.0590 C   0  0  1  0  0  3  0  0  0  0  0  0
  162.2710  208.7060  156.9680 C   0  0  0  0  0  2  0  0  0  0  0  0
  157.9480  214.1570  153.4130 C   0  0  0  0  0  2  0  0  0  0  0  0
  157.1390  213.4240  152.3590 C   0  0  0  0  0  2  0  0  0  0  0  0
  157.3350  214.0950  151.0170 C   0  0  0  0  0  1  0  0  0  0  0  0
  162.8950  205.3300  151.4880 S   0  0  0  0  0  0  0  0  0  0  0  0
  161.1810  203.4090  150.6000 C   0  0  0  0  0  1  0  0  0  0  0  0
  162.4790  203.5680  151.3610 C   0  0  0  0  0  2  0  0  0  0  0  0
  1  4  1  6  0  0  0
  1  5  1  0  0  0  0
  1 20  1  0  0  0  0
  2  9  1  0  0  0  0
  2  6  1  0  0  0  0
  3  7  1  0  0  0  0
  3 18  1  0  0  0  0
  4 14  1  0  0  0  0
  5  2  1  0  0  0  0
  6 15  1  0  0  0  0
  9 23  1  0  0  0  0
 10 25  1  0  0  0  0
 12  6  1  0  0  0  0
 12 21  2  0  0  0  0
 13  3  1  0  0  0  0
 14 22  1  0  0  0  0
 15 11  1  0  0  0  0
 16  5  1  0  0  0  0
 16 24  1  0  0  0  0
 17 13  1  0  0  0  0
 17 14  1  0  0  0  0
 19 18  1  0  0  0  0
 20  9  1  0  0  0  0
 22 18  1  0  0  0  0
 22 20  1  0  0  0  0
 23 26  1  0  0  0  0
 23 11  1  0  0  0  0
 24 12  1  0  0  0  0
 25 11  1  0  0  0  0
 25  8  1  0  0  0  0
 26  8  1  0  0  0  0
 27 24  1  0  0  0  0
 28 27  1  0  0  0  0
 29 28  1  0  0  0  0
 30 13  1  0  0  0  0
 31 32  1  0  0  0  0
 32 30  1  0  0  0  0
M  END
>  <MODEL>
3

>  <REMARK>
 VINA RESULT:       0.8      1.348      1.643
  Name = 
  4 active torsions:
  status: ('A' for Active; 'I' for Inactive)
    1  A    between atoms: C_14  and  C_21
    2  A    between atoms: C_14  and  N_29
    3  A    between atoms: C_15  and  S_19
    4  A    between atoms: S_19  and  C_26
                            x       y       z     vdW  Elec       q    Type
                         _______ _______ _______ _____ _____    ______ ____

>  <TORSDO>
F 4

$$$$
=
 OpenBabel11062408173D

 32 37  0  0  1  0  0  0  0  0999 V2000
  160.1270  210.7390  151.9120 C   0  0  1  0  0  3  0  0  0  0  0  0
  162.3250  210.9420  150.8820 C   0  0  2  0  0  3  0  0  0  0  0  0
  161.7790  209.5600  156.1020 C   0  0  1  0  0  3  0  0  0  0  0  0
  159.5840  211.4320  153.0780 N   0  0  0  0  0  2  0  0  0  0  0  0
  160.9990  211.6790  151.1080 C   0  0  1  0  0  3  0  0  0  0  0  0
  162.6280  210.5680  149.4130 C   0  0  2  0  0  3  0  0  0  0  0  0
  162.9910  209.8350  156.9760 C   0  0  0  0  0  1  0  0  0  0  0  0
  161.7030  206.3160  151.2200 O   0  0  0  0  0  0  0  0  0  0  0  0
  162.2880  209.7370  151.8300 C   0  0  1  0  0  3  0  0  0  0  0  0
  159.9050  207.4730  150.1430 C   0  0  0  0  0  1  0  0  0  0  0  0
  162.3500  208.1200  149.8300 C   0  0  1  0  0  3  0  0  0  0  0  0
  162.3140  211.7160  148.5070 C   0  0  0  0  0  0  0  0  0  0  0  0
  160.5640  210.3760  156.5800 C   0  0  1  0  0  3  0  0  0  0  0  0
  159.7000  210.4990  154.1810 C   0  0  2  0  0  3  0  0  0  0  0  0
  161.8500  209.3200  149.0140 C   0  0  0  0  0  2  0  0  0  0  0  0
  160.2460  212.0780  149.8330 C   0  0  0  0  0  2  0  0  0  0  0  0
  159.9580  211.2650  155.4850 C   0  0  0  0  0  2  0  0  0  0  0  0
  162.1060  209.7280  154.6120 C   0  0  2  0  0  3  0  0  0  0  0  0
  162.6530  210.9960  154.3730 O   0  0  0  0  0  1  0  0  0  0  0  0
  160.9160  209.5770  152.3330 N   0  0  1  0  0  0  0  0  0  0  0  0
  163.1410  212.0040  147.5090 C   0  0  0  0  0  2  0  0  0  0  0  0
  160.8050  209.5260  153.7990 C   0  0  2  0  0  3  0  0  0  0  0  0
  162.8500  208.4320  151.2190 C   0  0  2  0  0  3  0  0  0  0  0  0
  161.1630  212.5270  148.7960 N   0  0  0  0  0  0  0  0  0  0  0  0
  161.3510  206.9970  150.0400 C   0  0  1  0  0  3  0  0  0  0  0  0
  162.4670  207.1990  152.0170 C   0  0  0  0  0  2  0  0  0  0  0  0
  160.9290  213.8210  148.1670 C   0  0  0  0  0  2  0  0  0  0  0  0
  159.6240  213.7990  147.3940 C   0  0  0  0  0  2  0  0  0  0  0  0
  159.8520  213.1580  146.0410 C   0  0  0  0  0  1  0  0  0  0  0  0
  159.2950  209.2650  157.2600 S   0  0  0  0  0  0  0  0  0  0  0  0
  159.6780  206.8540  156.0530 C   0  0  0  0  0  1  0  0  0  0  0  0
  160.3360  207.7960  157.0380 C   0  0  0  0  0  2  0  0  0  0  0  0
  1 20  1  0  0  0  0
  1  4  1  1  0  0  0
  2  5  1  0  0  0  0
  2  9  1  0  0  0  0
  3 13  1  0  0  0  0
  3  7  1  0  0  0  0
  4 14  1  0  0  0  0
  5  1  1  0  0  0  0
  6  2  1  0  0  0  0
  8 26  1  0  0  0  0
  9 20  1  0  0  0  0
 11 25  1  0  0  0  0
 11 23  1  0  0  0  0
 12 24  1  0  0  0  0
 12  6  1  0  0  0  0
 13 30  1  0  0  0  0
 14 17  1  0  0  0  0
 15  6  1  0  0  0  0
 15 11  1  0  0  0  0
 16  5  1  0  0  0  0
 17 13  1  0  0  0  0
 18  3  1  0  0  0  0
 19 18  1  0  0  0  0
 20 22  1  0  0  0  0
 21 12  2  0  0  0  0
 22 14  1  0  0  0  0
 22 18  1  0  0  0  0
 23  9  1  0  0  0  0
 23 26  1  0  0  0  0
 24 16  1  0  0  0  0
 25 10  1  0  0  0  0
 25  8  1  0  0  0  0
 27 24  1  0  0  0  0
 28 27  1  0  0  0  0
 29 28  1  0  0  0  0
 31 32  1  0  0  0  0
 32 30  1  0  0  0  0
M  END
>  <MODEL>
4

>  <REMARK>
 VINA RESULT:       0.9      3.208      6.461
  Name = 
  4 active torsions:
  status: ('A' for Active; 'I' for Inactive)
    1  A    between atoms: C_14  and  C_21
    2  A    between atoms: C_14  and  N_29
    3  A    between atoms: C_15  and  S_19
    4  A    between atoms: S_19  and  C_26
                            x       y       z     vdW  Elec       q    Type
                         _______ _______ _______ _____ _____    ______ ____

>  <TORSDO>
F 4

$$$$
=
 OpenBabel11062408173D

 32 37  0  0  1  0  0  0  0  0999 V2000
  159.5540  212.7170  153.6090 C   0  0  1  0  0  3  0  0  0  0  0  0
  158.1220  211.1190  154.7630 C   0  0  2  0  0  3  0  0  0  0  0  0
  161.5750  209.5220  150.8920 C   0  0  1  0  0  3  0  0  0  0  0  0
  159.6560  213.0040  152.1800 N   0  0  0  0  0  2  0  0  0  0  0  0
  158.1140  212.4390  153.9810 C   0  0  1  0  0  3  0  0  0  0  0  0
  157.7270  211.2340  156.2530 C   0  0  2  0  0  3  0  0  0  0  0  0
  161.2290  208.2060  150.2170 C   0  0  0  0  0  1  0  0  0  0  0  0
  162.3410  210.3600  156.6420 O   0  0  0  0  0  0  0  0  0  0  0  0
  159.5180  210.5230  154.5390 C   0  0  1  0  0  3  0  0  0  0  0  0
  161.6430  212.6500  156.6870 C   0  0  0  0  0  1  0  0  0  0  0  0
  160.0350  210.7070  157.0530 C   0  0  1  0  0  3  0  0  0  0  0  0
  156.5320  212.1190  156.4080 C   0  0  0  0  0  0  0  0  0  0  0  0
  161.5580  210.6790  149.8750 C   0  0  1  0  0  3  0  0  0  0  0  0
  160.8280  212.2890  151.7160 C   0  0  2  0  0  3  0  0  0  0  0  0
  158.9040  211.7450  157.0750 C   0  0  0  0  0  2  0  0  0  0  0  0
  157.5620  213.6490  154.7460 C   0  0  0  0  0  2  0  0  0  0  0  0
  160.6150  211.8230  150.2700 C   0  0  0  0  0  2  0  0  0  0  0  0
  160.7120  209.7640  152.1370 C   0  0  2  0  0  3  0  0  0  0  0  0
  159.3520  209.6790  151.8110 O   0  0  0  0  0  1  0  0  0  0  0  0
  160.3830  211.5580  153.9540 N   0  0  1  0  0  0  0  0  0  0  0  0
  155.5730  211.7750  157.2610 C   0  0  0  0  0  2  0  0  0  0  0  0
  161.0560  211.1600  152.7090 C   0  0  2  0  0  3  0  0  0  0  0  0
  160.1400  209.8750  155.7990 C   0  0  2  0  0  3  0  0  0  0  0  0
  156.4190  213.2780  155.5670 N   0  0  0  0  0  0  0  0  0  0  0  0
  161.4390  211.2490  157.2560 C   0  0  1  0  0  3  0  0  0  0  0  0
  161.6330  209.6350  155.6580 C   0  0  0  0  0  2  0  0  0  0  0  0
  155.1820  214.0370  155.4280 C   0  0  0  0  0  2  0  0  0  0  0  0
  154.9340  214.3720  153.9690 C   0  0  0  0  0  2  0  0  0  0  0  0
  154.6860  213.0960  153.1940 C   0  0  0  0  0  1  0  0  0  0  0  0
  163.2450  211.3130  149.6240 S   0  0  0  0  0  0  0  0  0  0  0  0
  163.0370  213.4930  148.0050 C   0  0  0  0  0  1  0  0  0  0  0  0
  162.8410  211.9920  147.9900 C   0  0  0  0  0  2  0  0  0  0  0  0
  1  4  1  6  0  0  0
  1 20  1  0  0  0  0
  1  5  1  0  0  0  0
  2  6  1  0  0  0  0
  3 18  1  0  0  0  0
  5 16  1  0  0  0  0
  5  2  1  0  0  0  0
  6 12  1  0  0  0  0
  6 15  1  0  0  0  0
  7  3  1  0  0  0  0
  8 25  1  0  0  0  0
  9  2  1  0  0  0  0
  9 23  1  0  0  0  0
 10 25  1  0  0  0  0
 11 15  1  0  0  0  0
 11 25  1  0  0  0  0
 12 21  2  0  0  0  0
 13 17  1  0  0  0  0
 13  3  1  0  0  0  0
 14  4  1  0  0  0  0
 14 22  1  0  0  0  0
 16 24  1  0  0  0  0
 17 14  1  0  0  0  0
 18 22  1  0  0  0  0
 19 18  1  0  0  0  0
 20  9  1  0  0  0  0
 22 20  1  0  0  0  0
 23 11  1  0  0  0  0
 24 12  1  0  0  0  0
 26 23  1  0  0  0  0
 26  8  1  0  0  0  0
 27 24  1  0  0  0  0
 28 27  1  0  0  0  0
 29 28  1  0  0  0  0
 30 13  1  0  0  0  0
 32 31  1  0  0  0  0
 32 30  1  0  0  0  0
M  END
>  <MODEL>
5

>  <REMARK>
 VINA RESULT:       1.7      2.099      2.692
  Name = 
  4 active torsions:
  status: ('A' for Active; 'I' for Inactive)
    1  A    between atoms: C_14  and  C_21
    2  A    between atoms: C_14  and  N_29
    3  A    between atoms: C_15  and  S_19
    4  A    between atoms: S_19  and  C_26
                            x       y       z     vdW  Elec       q    Type
                         _______ _______ _______ _____ _____    ______ ____

>  <TORSDO>
F 4

$$$$
