=
 OpenBabel11052422543D

 28 32  0  0  1  0  0  0  0  0999 V2000
  161.7430  209.5330  150.0430 C   0  0  0  0  0  0  0  0  0  0  0  0
  161.6470  205.0790  147.2930 C   0  0  0  0  0  3  0  0  0  0  0  0
  161.0990  206.0220  153.2630 O   0  0  0  0  0  0  0  0  0  0  0  0
  160.9770  203.4360  148.9520 C   0  0  0  0  0  0  0  0  0  0  0  0
  161.4570  205.7300  149.6520 C   0  0  0  0  0  0  0  0  0  0  0  0
  161.1610  202.8030  146.6220 C   0  0  0  0  0  0  0  0  0  0  0  0
  161.3630  204.7600  148.6310 C   0  0  0  0  0  0  0  0  0  0  0  0
  160.8000  204.0440  151.2840 C   0  0  0  0  0  3  0  0  0  0  0  0
  160.8790  202.4690  147.9490 C   0  0  0  0  0  3  0  0  0  0  0  0
  161.3950  207.7910  151.7090 C   0  0  0  0  0  0  0  0  0  0  0  0
  161.9530  207.1200  149.3260 C   0  0  0  0  0  2  0  0  0  0  0  0
  160.7030  203.0880  150.2750 C   0  0  0  0  0  3  0  0  0  0  0  0
  161.3540  210.1260  152.3630 C   0  0  0  0  0  3  0  0  0  0  0  0
  161.2300  206.3690  152.0580 C   0  0  0  0  0  0  0  0  0  0  0  0
  161.2450  208.7760  152.6930 C   0  0  0  0  0  3  0  0  0  0  0  0
  161.0640  201.8640  145.6520 F   0  0  0  0  0  0  0  0  0  0  0  0
  161.5460  204.1060  146.2950 C   0  0  0  0  0  3  0  0  0  0  0  0
  161.1760  205.3610  150.9850 C   0  0  0  0  0  0  0  0  0  0  0  0
  161.6000  210.5020  151.0430 C   0  0  0  0  0  3  0  0  0  0  0  0
  161.6550  208.1650  150.3740 C   0  0  0  0  0  0  0  0  0  0  0  0
  162.0010  209.9810  148.6350 C   0  0  0  0  0  2  0  0  0  0  0  0
  161.2350  211.5840  148.2670 S   0  0  2  0  0  0  0  0  0  0  0  0
  160.4660  211.3480  146.9710 O   0  0  0  0  0  0  0  0  0  0  0  0
  162.4980  214.1440  148.2540 C   0  0  1  0  0  3  0  0  0  0  0  0
  163.9980  212.1830  147.8830 C   0  0  0  0  0  1  0  0  0  0  0  0
  162.5880  212.7320  147.8510 C   0  0  1  0  0  0  0  0  0  0  0  0
  162.2560  213.8570  146.4400 S   0  0  0  0  0  0  0  0  0  0  0  0
  161.2720  214.4530  148.8440 O   0  0  0  0  0  1  0  0  0  0  0  0
  1 20  2  0  0  0  0
  1 19  1  0  0  0  0
  2  7  1  0  0  0  0
  4 12  1  0  0  0  0
  5 18  2  0  0  0  0
  6  9  2  0  0  0  0
  7  4  2  0  0  0  0
  7  5  1  0  0  0  0
  9  4  1  0  0  0  0
 10 14  1  0  0  0  0
 10 15  2  0  0  0  0
 11  5  1  0  0  0  0
 11 20  1  0  0  0  0
 12  8  2  0  0  0  0
 13 15  1  0  0  0  0
 14  3  2  0  0  0  0
 16  6  1  0  0  0  0
 17  6  1  0  0  0  0
 17  2  2  0  0  0  0
 18  8  1  0  0  0  0
 18 14  1  0  0  0  0
 19 13  2  0  0  0  0
 20 10  1  0  0  0  0
 21  1  1  0  0  0  0
 22 23  2  6  0  0  0
 22 21  1  0  0  0  0
 24 28  1  1  0  0  0
 26 25  1  1  0  0  0
 26 24  1  0  0  0  0
 26 22  1  0  0  0  0
 27 26  1  0  0  0  0
 27 24  1  0  0  0  0
M  END
>  <MODEL>
1

>  <REMARK>
 VINA RESULT:      -9.6      0.000      0.000
  Name = 
  3 active torsions:
  status: ('A' for Active; 'I' for Inactive)
    1  A    between atoms: C_1  and  C_2
    2  A    between atoms: C_2  and  S_3
    3  A    between atoms: S_3  and  C_11
                            x       y       z     vdW  Elec       q    Type
                         _______ _______ _______ _____ _____    ______ ____

>  <TORSDO>
F 3

$$$$
=
 OpenBabel11052422543D

 28 32  0  0  1  0  0  0  0  0999 V2000
  160.8490  209.1230  152.8500 C   0  0  0  0  0  0  0  0  0  0  0  0
  161.3490  207.0150  148.0820 C   0  0  0  0  0  3  0  0  0  0  0  0
  161.2000  204.3790  153.5480 O   0  0  0  0  0  0  0  0  0  0  0  0
  161.1680  204.6330  148.5250 C   0  0  0  0  0  0  0  0  0  0  0  0
  161.2620  206.2050  150.3980 C   0  0  0  0  0  0  0  0  0  0  0  0
  161.2470  205.4430  146.2440 C   0  0  0  0  0  0  0  0  0  0  0  0
  161.2590  205.9620  149.0070 C   0  0  0  0  0  0  0  0  0  0  0  0
  161.1000  203.8060  150.7940 C   0  0  0  0  0  3  0  0  0  0  0  0
  161.1620  204.3830  147.1510 C   0  0  0  0  0  3  0  0  0  0  0  0
  161.0020  206.7260  153.2510 C   0  0  0  0  0  0  0  0  0  0  0  0
  161.4490  207.6120  150.9160 C   0  0  0  0  0  2  0  0  0  0  0  0
  161.0920  203.5670  149.4210 C   0  0  0  0  0  3  0  0  0  0  0  0
  160.5760  208.2440  155.0940 C   0  0  0  0  0  3  0  0  0  0  0  0
  161.1470  205.3510  152.7440 C   0  0  0  0  0  0  0  0  0  0  0  0
  160.7600  206.9490  154.6120 C   0  0  0  0  0  3  0  0  0  0  0  0
  161.2400  205.1960  144.9120 F   0  0  0  0  0  0  0  0  0  0  0  0
  161.3420  206.7560  146.7090 C   0  0  0  0  0  3  0  0  0  0  0  0
  161.1850  205.1140  151.2900 C   0  0  0  0  0  0  0  0  0  0  0  0
  160.6190  209.3260  154.2150 C   0  0  0  0  0  3  0  0  0  0  0  0
  161.0570  207.8170  152.3590 C   0  0  0  0  0  0  0  0  0  0  0  0
  160.8810  210.3130  151.9380 C   0  0  0  0  0  2  0  0  0  0  0  0
  159.8980  211.7000  152.5740 S   0  0  2  0  0  0  0  0  0  0  0  0
  158.5000  211.1190  152.7580 O   0  0  0  0  0  0  0  0  0  0  0  0
  159.3250  214.2890  151.5180 C   0  0  1  0  0  3  0  0  0  0  0  0
  160.7950  212.8370  150.1160 C   0  0  0  0  0  1  0  0  0  0  0  0
  159.7670  212.9170  151.2240 C   0  0  1  0  0  0  0  0  0  0  0  0
  158.0620  213.2580  150.6390 S   0  0  0  0  0  0  0  0  0  0  0  0
  158.9460  214.4530  152.8510 O   0  0  0  0  0  1  0  0  0  0  0  0
  1 19  1  0  0  0  0
  2  7  1  0  0  0  0
  4  7  2  0  0  0  0
  4 12  1  0  0  0  0
  5 11  1  0  0  0  0
  5 18  2  0  0  0  0
  6 17  1  0  0  0  0
  6  9  2  0  0  0  0
  7  5  1  0  0  0  0
  8 18  1  0  0  0  0
  9  4  1  0  0  0  0
 10 15  2  0  0  0  0
 11 20  1  0  0  0  0
 12  8  2  0  0  0  0
 14 10  1  0  0  0  0
 14  3  2  0  0  0  0
 15 13  1  0  0  0  0
 16  6  1  0  0  0  0
 17  2  2  0  0  0  0
 18 14  1  0  0  0  0
 19 13  2  0  0  0  0
 20  1  2  0  0  0  0
 20 10  1  0  0  0  0
 21 22  1  0  0  0  0
 21  1  1  0  0  0  0
 22 23  2  6  0  0  0
 24 28  1  1  0  0  0
 26 25  1  6  0  0  0
 26 24  1  0  0  0  0
 26 22  1  0  0  0  0
 27 26  1  0  0  0  0
 27 24  1  0  0  0  0
M  END
>  <MODEL>
2

>  <REMARK>
 VINA RESULT:      -9.5      2.608      3.157
  Name = 
  3 active torsions:
  status: ('A' for Active; 'I' for Inactive)
    1  A    between atoms: C_1  and  C_2
    2  A    between atoms: C_2  and  S_3
    3  A    between atoms: S_3  and  C_11
                            x       y       z     vdW  Elec       q    Type
                         _______ _______ _______ _____ _____    ______ ____

>  <TORSDO>
F 3

$$$$
=
 OpenBabel11052422543D

 28 32  0  0  1  0  0  0  0  0999 V2000
  161.6100  208.6120  151.5090 C   0  0  0  0  0  0  0  0  0  0  0  0
  160.8840  203.4450  151.0760 C   0  0  0  0  0  3  0  0  0  0  0  0
  161.5310  207.6950  146.7910 O   0  0  0  0  0  0  0  0  0  0  0  0
  161.2060  203.0530  148.7000 C   0  0  0  0  0  0  0  0  0  0  0  0
  161.1670  205.3470  149.5500 C   0  0  0  0  0  0  0  0  0  0  0  0
  160.9320  201.1830  150.2130 C   0  0  0  0  0  0  0  0  0  0  0  0
  161.0850  203.9570  149.7830 C   0  0  0  0  0  0  0  0  0  0  0  0
  161.4680  204.9070  147.1730 C   0  0  0  0  0  3  0  0  0  0  0  0
  161.1290  201.6770  148.9210 C   0  0  0  0  0  3  0  0  0  0  0  0
  161.5980  208.1930  149.1100 C   0  0  0  0  0  0  0  0  0  0  0  0
  160.9510  206.3160  150.6900 C   0  0  0  0  0  2  0  0  0  0  0  0
  161.3930  203.5350  147.4040 C   0  0  0  0  0  3  0  0  0  0  0  0
  162.0780  210.4150  149.9550 C   0  0  0  0  0  3  0  0  0  0  0  0
  161.4830  207.2620  147.9750 C   0  0  0  0  0  0  0  0  0  0  0  0
  161.9220  209.5370  148.8840 C   0  0  0  0  0  3  0  0  0  0  0  0
  160.8590  199.8470  150.4240 F   0  0  0  0  0  0  0  0  0  0  0  0
  160.8080  202.0660  151.2880 C   0  0  0  0  0  3  0  0  0  0  0  0
  161.3560  205.8170  148.2330 C   0  0  0  0  0  0  0  0  0  0  0  0
  161.9240  209.9530  151.2620 C   0  0  0  0  0  3  0  0  0  0  0  0
  161.4310  207.7230  150.4290 C   0  0  0  0  0  0  0  0  0  0  0  0
  161.4600  208.1550  152.9300 C   0  0  0  0  0  2  0  0  0  0  0  0
  160.9150  209.4900  154.0320 S   0  0  2  0  0  0  0  0  0  0  0  0
  162.1560  210.3570  154.2180 O   0  0  0  0  0  0  0  0  0  0  0  0
  159.9970  209.5400  156.7350 C   0  0  1  0  0  3  0  0  0  0  0  0
  160.1210  207.2890  155.6640 C   0  0  0  0  0  1  0  0  0  0  0  0
  160.5810  208.7300  155.6550 C   0  0  1  0  0  0  0  0  0  0  0  0
  161.7890  209.1370  156.9750 S   0  0  0  0  0  0  0  0  0  0  0  0
  159.8660  210.8840  156.3820 O   0  0  0  0  0  1  0  0  0  0  0  0
  1 21  1  0  0  0  0
  2 17  1  0  0  0  0
  3 14  2  0  0  0  0
  4  9  2  0  0  0  0
  4  7  1  0  0  0  0
  5  7  1  0  0  0  0
  5 11  1  0  0  0  0
  6 16  1  0  0  0  0
  6 17  2  0  0  0  0
  7  2  2  0  0  0  0
  8 12  2  0  0  0  0
  8 18  1  0  0  0  0
  9  6  1  0  0  0  0
 10 20  1  0  0  0  0
 12  4  1  0  0  0  0
 13 19  2  0  0  0  0
 14 18  1  0  0  0  0
 14 10  1  0  0  0  0
 15 10  2  0  0  0  0
 15 13  1  0  0  0  0
 18  5  2  0  0  0  0
 19  1  1  0  0  0  0
 20 11  1  0  0  0  0
 20  1  2  0  0  0  0
 21 22  1  0  0  0  0
 22 23  2  1  0  0  0
 22 26  1  0  0  0  0
 24 28  1  6  0  0  0
 24 27  1  0  0  0  0
 26 25  1  6  0  0  0
 26 24  1  0  0  0  0
 26 27  1  0  0  0  0
M  END
>  <MODEL>
3

>  <REMARK>
 VINA RESULT:      -8.9      3.155      5.439
  Name = 
  3 active torsions:
  status: ('A' for Active; 'I' for Inactive)
    1  A    between atoms: C_1  and  C_2
    2  A    between atoms: C_2  and  S_3
    3  A    between atoms: S_3  and  C_11
                            x       y       z     vdW  Elec       q    Type
                         _______ _______ _______ _____ _____    ______ ____

>  <TORSDO>
F 3

$$$$
=
 OpenBabel11052422543D

 28 32  0  0  1  0  0  0  0  0999 V2000
  161.0920  207.6490  152.6710 C   0  0  0  0  0  0  0  0  0  0  0  0
  161.5450  206.5470  147.5720 C   0  0  0  0  0  3  0  0  0  0  0  0
  161.1300  202.8510  152.3690 O   0  0  0  0  0  0  0  0  0  0  0  0
  161.2070  204.1420  147.5090 C   0  0  0  0  0  0  0  0  0  0  0  0
  161.3650  205.2820  149.6680 C   0  0  0  0  0  0  0  0  0  0  0  0
  161.3790  205.3990  145.4470 C   0  0  0  0  0  0  0  0  0  0  0  0
  161.3730  205.3330  148.2570 C   0  0  0  0  0  0  0  0  0  0  0  0
  161.0450  202.8690  149.5560 C   0  0  0  0  0  3  0  0  0  0  0  0
  161.2100  204.1830  146.1130 C   0  0  0  0  0  3  0  0  0  0  0  0
  161.0860  205.2160  152.5660 C   0  0  0  0  0  0  0  0  0  0  0  0
  161.6310  206.5360  150.4690 C   0  0  0  0  0  2  0  0  0  0  0  0
  161.0470  202.9200  148.1630 C   0  0  0  0  0  3  0  0  0  0  0  0
  160.7220  206.3440  154.6820 C   0  0  0  0  0  3  0  0  0  0  0  0
  161.1530  203.9690  151.7850 C   0  0  0  0  0  0  0  0  0  0  0  0
  160.8330  205.1680  153.9430 C   0  0  0  0  0  3  0  0  0  0  0  0
  161.3810  205.4350  144.0930 F   0  0  0  0  0  0  0  0  0  0  0  0
  161.5480  206.5790  146.1750 C   0  0  0  0  0  3  0  0  0  0  0  0
  161.2030  204.0370  150.3140 C   0  0  0  0  0  0  0  0  0  0  0  0
  160.8500  207.5790  154.0470 C   0  0  0  0  0  3  0  0  0  0  0  0
  161.2260  206.4630  151.9210 C   0  0  0  0  0  0  0  0  0  0  0  0
  161.2160  208.9980  152.0260 C   0  0  0  0  0  2  0  0  0  0  0  0
  160.0750  210.2150  152.7430 S   0  0  2  0  0  0  0  0  0  0  0  0
  160.1470  211.4060  151.7930 O   0  0  0  0  0  0  0  0  0  0  0  0
  160.1160  210.5240  155.5800 C   0  0  1  0  0  3  0  0  0  0  0  0
  162.3240  210.7030  154.4290 C   0  0  0  0  0  1  0  0  0  0  0  0
  160.8170  210.7730  154.3110 C   0  0  1  0  0  0  0  0  0  0  0  0
  160.0800  212.2920  155.0290 S   0  0  0  0  0  0  0  0  0  0  0  0
  158.8570  209.9520  155.3910 O   0  0  0  0  0  1  0  0  0  0  0  0
  1 19  1  0  0  0  0
  2  7  1  0  0  0  0
  4 12  2  0  0  0  0
  4  7  1  0  0  0  0
  5 18  1  0  0  0  0
  5 11  1  0  0  0  0
  6  9  2  0  0  0  0
  6 17  1  0  0  0  0
  7  5  2  0  0  0  0
  8 18  2  0  0  0  0
  9  4  1  0  0  0  0
 10 15  2  0  0  0  0
 11 20  1  0  0  0  0
 12  8  1  0  0  0  0
 14  3  2  0  0  0  0
 14 10  1  0  0  0  0
 15 13  1  0  0  0  0
 16  6  1  0  0  0  0
 17  2  2  0  0  0  0
 18 14  1  0  0  0  0
 19 13  2  0  0  0  0
 20 10  1  0  0  0  0
 20  1  2  0  0  0  0
 21  1  1  0  0  0  0
 21 22  1  0  0  0  0
 22 23  2  6  0  0  0
 22 26  1  0  0  0  0
 24 28  1  6  0  0  0
 26 25  1  1  0  0  0
 26 27  1  0  0  0  0
 26 24  1  0  0  0  0
 27 24  1  0  0  0  0
M  END
>  <MODEL>
4

>  <REMARK>
 VINA RESULT:      -8.9      3.255      4.337
  Name = 
  3 active torsions:
  status: ('A' for Active; 'I' for Inactive)
    1  A    between atoms: C_1  and  C_2
    2  A    between atoms: C_2  and  S_3
    3  A    between atoms: S_3  and  C_11
                            x       y       z     vdW  Elec       q    Type
                         _______ _______ _______ _____ _____    ______ ____

>  <TORSDO>
F 3

$$$$
=
 OpenBabel11052422543D

 28 32  0  0  1  0  0  0  0  0999 V2000
  160.5730  209.5170  153.7600 C   0  0  0  0  0  0  0  0  0  0  0  0
  161.3210  207.7910  148.8740 C   0  0  0  0  0  3  0  0  0  0  0  0
  161.1340  204.7560  154.1270 O   0  0  0  0  0  0  0  0  0  0  0  0
  161.2440  205.3770  149.1370 C   0  0  0  0  0  0  0  0  0  0  0  0
  161.2040  206.8090  151.1200 C   0  0  0  0  0  0  0  0  0  0  0  0
  161.3540  206.3540  146.9240 C   0  0  0  0  0  0  0  0  0  0  0  0
  161.2560  206.6690  149.7160 C   0  0  0  0  0  0  0  0  0  0  0  0
  161.1470  204.3830  151.3370 C   0  0  0  0  0  3  0  0  0  0  0  0
  161.2920  205.2290  147.7490 C   0  0  0  0  0  3  0  0  0  0  0  0
  160.8310  207.1060  153.9930 C   0  0  0  0  0  0  0  0  0  0  0  0
  161.3050  208.1810  151.7450 C   0  0  0  0  0  2  0  0  0  0  0  0
  161.1930  204.2450  149.9510 C   0  0  0  0  0  3  0  0  0  0  0  0
  160.2740  208.4630  155.9250 C   0  0  0  0  0  3  0  0  0  0  0  0
  161.0590  205.7800  153.3940 C   0  0  0  0  0  0  0  0  0  0  0  0
  160.5370  207.2170  155.3580 C   0  0  0  0  0  3  0  0  0  0  0  0
  161.4000  206.2060  145.5790 F   0  0  0  0  0  0  0  0  0  0  0  0
  161.3700  207.6330  147.4860 C   0  0  0  0  0  3  0  0  0  0  0  0
  161.1530  205.6530  151.9290 C   0  0  0  0  0  0  0  0  0  0  0  0
  160.2910  209.6070  155.1280 C   0  0  0  0  0  3  0  0  0  0  0  0
  160.8600  208.2610  153.1850 C   0  0  0  0  0  0  0  0  0  0  0  0
  160.5750  210.7710  152.9380 C   0  0  0  0  0  2  0  0  0  0  0  0
  158.9090  211.4570  152.7200 S   0  0  2  0  0  0  0  0  0  0  0  0
  159.0560  212.4480  151.5700 O   0  0  0  0  0  0  0  0  0  0  0  0
  157.4090  212.1010  155.0620 C   0  0  1  0  0  3  0  0  0  0  0  0
  159.7330  213.0100  154.9670 C   0  0  0  0  0  1  0  0  0  0  0  0
  158.5500  212.4530  154.2030 C   0  0  1  0  0  0  0  0  0  0  0  0
  157.1470  213.6240  154.0410 S   0  0  0  0  0  0  0  0  0  0  0  0
  156.6510  211.0530  154.5370 O   0  0  0  0  0  1  0  0  0  0  0  0
  1 19  1  0  0  0  0
  2  7  1  0  0  0  0
  4  7  2  0  0  0  0
  4 12  1  0  0  0  0
  5 11  1  0  0  0  0
  5 18  2  0  0  0  0
  6 17  1  0  0  0  0
  6  9  2  0  0  0  0
  7  5  1  0  0  0  0
  8 18  1  0  0  0  0
  9  4  1  0  0  0  0
 10 15  2  0  0  0  0
 11 20  1  0  0  0  0
 12  8  2  0  0  0  0
 14 10  1  0  0  0  0
 14  3  2  0  0  0  0
 15 13  1  0  0  0  0
 16  6  1  0  0  0  0
 17  2  2  0  0  0  0
 18 14  1  0  0  0  0
 19 13  2  0  0  0  0
 20  1  2  0  0  0  0
 20 10  1  0  0  0  0
 21  1  1  0  0  0  0
 22 23  2  6  0  0  0
 22 21  1  0  0  0  0
 22 26  1  0  0  0  0
 24 28  1  6  0  0  0
 26 25  1  1  0  0  0
 26 24  1  0  0  0  0
 27 26  1  0  0  0  0
 27 24  1  0  0  0  0
M  END
>  <MODEL>
5

>  <REMARK>
 VINA RESULT:      -8.6      3.158      4.583
  Name = 
  3 active torsions:
  status: ('A' for Active; 'I' for Inactive)
    1  A    between atoms: C_1  and  C_2
    2  A    between atoms: C_2  and  S_3
    3  A    between atoms: S_3  and  C_11
                            x       y       z     vdW  Elec       q    Type
                         _______ _______ _______ _____ _____    ______ ____

>  <TORSDO>
F 3

$$$$
=
 OpenBabel11052422543D

 28 32  0  0  1  0  0  0  0  0999 V2000
  159.9120  211.4060  152.6140 C   0  0  0  0  0  0  0  0  0  0  0  0
  160.7700  207.0820  149.7890 C   0  0  0  0  0  3  0  0  0  0  0  0
  161.3950  208.0730  155.7440 O   0  0  0  0  0  0  0  0  0  0  0  0
  161.1710  205.3970  151.4920 C   0  0  0  0  0  0  0  0  0  0  0  0
  160.9390  207.7420  152.1470 C   0  0  0  0  0  0  0  0  0  0  0  0
  160.9960  204.7530  149.1640 C   0  0  0  0  0  0  0  0  0  0  0  0
  160.9580  206.7520  151.1410 C   0  0  0  0  0  0  0  0  0  0  0  0
  161.3600  206.0200  153.8190 C   0  0  0  0  0  3  0  0  0  0  0  0
  161.1870  204.4090  150.5040 C   0  0  0  0  0  3  0  0  0  0  0  0
  160.6390  209.7450  154.2400 C   0  0  0  0  0  0  0  0  0  0  0  0
  160.8010  209.1990  151.7670 C   0  0  0  0  0  2  0  0  0  0  0  0
  161.3730  205.0420  152.8260 C   0  0  0  0  0  3  0  0  0  0  0  0
  159.9140  211.9380  154.9810 C   0  0  0  0  0  3  0  0  0  0  0  0
  161.0920  208.3810  154.5590 C   0  0  0  0  0  0  0  0  0  0  0  0
  160.3870  210.6590  155.2710 C   0  0  0  0  0  3  0  0  0  0  0  0
  161.0120  203.7930  148.2090 F   0  0  0  0  0  0  0  0  0  0  0  0
  160.7890  206.0880  148.8070 C   0  0  0  0  0  3  0  0  0  0  0  0
  161.1470  207.3660  153.4910 C   0  0  0  0  0  0  0  0  0  0  0  0
  159.6760  212.3080  153.6580 C   0  0  0  0  0  3  0  0  0  0  0  0
  160.4100  210.1180  152.8990 C   0  0  0  0  0  0  0  0  0  0  0  0
  159.6370  211.8430  151.2060 C   0  0  0  0  0  2  0  0  0  0  0  0
  160.7530  213.1660  150.6600 S   0  0  2  0  0  0  0  0  0  0  0  0
  160.0340  214.4520  151.0500 O   0  0  0  0  0  0  0  0  0  0  0  0
  161.5310  212.0830  148.1360 C   0  0  1  0  0  3  0  0  0  0  0  0
  159.4940  213.5260  148.1260 C   0  0  0  0  0  1  0  0  0  0  0  0
  160.7680  213.1260  148.8380 C   0  0  1  0  0  0  0  0  0  0  0  0
  162.2960  213.7670  148.0520 S   0  0  0  0  0  0  0  0  0  0  0  0
  162.2660  211.2800  149.0100 O   0  0  0  0  0  1  0  0  0  0  0  0
  1 20  2  0  0  0  0
  1 19  1  0  0  0  0
  2  7  1  0  0  0  0
  4 12  1  0  0  0  0
  5 18  2  0  0  0  0
  6  9  2  0  0  0  0
  7  4  2  0  0  0  0
  7  5  1  0  0  0  0
  9  4  1  0  0  0  0
 10 14  1  0  0  0  0
 10 15  2  0  0  0  0
 11  5  1  0  0  0  0
 11 20  1  0  0  0  0
 12  8  2  0  0  0  0
 13 15  1  0  0  0  0
 14  3  2  0  0  0  0
 16  6  1  0  0  0  0
 17  6  1  0  0  0  0
 17  2  2  0  0  0  0
 18  8  1  0  0  0  0
 18 14  1  0  0  0  0
 19 13  2  0  0  0  0
 20 10  1  0  0  0  0
 21  1  1  0  0  0  0
 22 23  2  6  0  0  0
 22 21  1  0  0  0  0
 24 26  1  0  0  0  0
 24 28  1  1  0  0  0
 26 25  1  6  0  0  0
 26 22  1  0  0  0  0
 27 24  1  0  0  0  0
 27 26  1  0  0  0  0
M  END
>  <MODEL>
6

>  <REMARK>
 VINA RESULT:      -8.5      2.118      3.366
  Name = 
  3 active torsions:
  status: ('A' for Active; 'I' for Inactive)
    1  A    between atoms: C_1  and  C_2
    2  A    between atoms: C_2  and  S_3
    3  A    between atoms: S_3  and  C_11
                            x       y       z     vdW  Elec       q    Type
                         _______ _______ _______ _____ _____    ______ ____

>  <TORSDO>
F 3

$$$$
=
 OpenBabel11052422543D

 28 32  0  0  1  0  0  0  0  0999 V2000
  160.8680  207.6490  152.0320 C   0  0  0  0  0  0  0  0  0  0  0  0
  161.0420  206.2070  147.0010 C   0  0  0  0  0  3  0  0  0  0  0  0
  161.7340  202.9200  152.0560 O   0  0  0  0  0  0  0  0  0  0  0  0
  161.1340  203.7830  147.1380 C   0  0  0  0  0  0  0  0  0  0  0  0
  161.2840  205.1140  149.1850 C   0  0  0  0  0  0  0  0  0  0  0  0
  160.8900  204.8700  144.9880 C   0  0  0  0  0  0  0  0  0  0  0  0
  161.1530  205.0450  147.7810 C   0  0  0  0  0  0  0  0  0  0  0  0
  161.3900  202.6810  149.2730 C   0  0  0  0  0  3  0  0  0  0  0  0
  161.0030  203.7050  145.7500 C   0  0  0  0  0  3  0  0  0  0  0  0
  161.2860  205.2500  152.0940 C   0  0  0  0  0  0  0  0  0  0  0  0
  161.3930  206.4590  149.8660 C   0  0  0  0  0  2  0  0  0  0  0  0
  161.2560  202.6130  147.8870 C   0  0  0  0  0  3  0  0  0  0  0  0
  160.9230  206.4770  154.1550 C   0  0  0  0  0  3  0  0  0  0  0  0
  161.5040  203.9710  151.3970 C   0  0  0  0  0  0  0  0  0  0  0  0
  161.1740  205.2780  153.4900 C   0  0  0  0  0  3  0  0  0  0  0  0
  160.7620  204.7900  143.6420 F   0  0  0  0  0  0  0  0  0  0  0  0
  160.9110  206.1190  145.6120 C   0  0  0  0  0  3  0  0  0  0  0  0
  161.4060  203.9200  149.9280 C   0  0  0  0  0  0  0  0  0  0  0  0
  160.7690  207.6570  153.4270 C   0  0  0  0  0  3  0  0  0  0  0  0
  161.1420  206.4420  151.3540 C   0  0  0  0  0  0  0  0  0  0  0  0
  160.6890  208.9380  151.2870 C   0  0  0  0  0  2  0  0  0  0  0  0
  162.2720  209.7260  150.8770 S   0  0  2  0  0  0  0  0  0  0  0  0
  162.7290  210.3610  152.1860 O   0  0  0  0  0  0  0  0  0  0  0  0
  161.5730  210.8330  148.3410 C   0  0  1  0  0  3  0  0  0  0  0  0
  161.1450  212.2880  150.3240 C   0  0  0  0  0  1  0  0  0  0  0  0
  161.8980  211.1070  149.7490 C   0  0  1  0  0  0  0  0  0  0  0  0
  163.2510  211.5710  148.6010 S   0  0  0  0  0  0  0  0  0  0  0  0
  161.7040  209.4810  148.0170 O   0  0  0  0  0  1  0  0  0  0  0  0
  1 19  1  0  0  0  0
  2  7  1  0  0  0  0
  4  7  2  0  0  0  0
  4 12  1  0  0  0  0
  5 11  1  0  0  0  0
  5 18  2  0  0  0  0
  6 17  1  0  0  0  0
  6  9  2  0  0  0  0
  7  5  1  0  0  0  0
  8 18  1  0  0  0  0
  9  4  1  0  0  0  0
 10 15  2  0  0  0  0
 11 20  1  0  0  0  0
 12  8  2  0  0  0  0
 14  3  2  0  0  0  0
 14 10  1  0  0  0  0
 15 13  1  0  0  0  0
 16  6  1  0  0  0  0
 17  2  2  0  0  0  0
 18 14  1  0  0  0  0
 19 13  2  0  0  0  0
 20  1  2  0  0  0  0
 20 10  1  0  0  0  0
 21  1  1  0  0  0  0
 22 21  1  0  0  0  0
 22 23  2  1  0  0  0
 24 28  1  1  0  0  0
 24 27  1  0  0  0  0
 24 26  1  0  0  0  0
 26 25  1  1  0  0  0
 26 22  1  0  0  0  0
 27 26  1  0  0  0  0
M  END
>  <MODEL>
7

>  <REMARK>
 VINA RESULT:      -8.2      2.033      3.041
  Name = 
  3 active torsions:
  status: ('A' for Active; 'I' for Inactive)
    1  A    between atoms: C_1  and  C_2
    2  A    between atoms: C_2  and  S_3
    3  A    between atoms: S_3  and  C_11
                            x       y       z     vdW  Elec       q    Type
                         _______ _______ _______ _____ _____    ______ ____

>  <TORSDO>
F 3

$$$$
=
 OpenBabel11052422543D

 28 32  0  0  1  0  0  0  0  0999 V2000
  161.5670  202.3420  148.2820 C   0  0  0  0  0  0  0  0  0  0  0  0
  161.8880  207.5510  148.7080 C   0  0  0  0  0  3  0  0  0  0  0  0
  160.1870  203.3740  152.7700 O   0  0  0  0  0  0  0  0  0  0  0  0
  161.5120  207.9220  151.0790 C   0  0  0  0  0  0  0  0  0  0  0  0
  161.2460  205.6730  150.1530 C   0  0  0  0  0  0  0  0  0  0  0  0
  162.1520  209.7670  149.6480 C   0  0  0  0  0  0  0  0  0  0  0  0
  161.5500  207.0400  149.9720 C   0  0  0  0  0  0  0  0  0  0  0  0
  160.8610  206.0960  152.5210 C   0  0  0  0  0  3  0  0  0  0  0  0
  161.8130  209.2750  150.9110 C   0  0  0  0  0  3  0  0  0  0  0  0
  160.8810  202.8150  150.5710 C   0  0  0  0  0  0  0  0  0  0  0  0
  161.1990  204.7470  148.9590 C   0  0  0  0  0  2  0  0  0  0  0  0
  161.1650  207.4440  152.3430 C   0  0  0  0  0  3  0  0  0  0  0  0
  161.1070  200.5200  149.8170 C   0  0  0  0  0  3  0  0  0  0  0  0
  160.6160  203.7770  151.6540 C   0  0  0  0  0  0  0  0  0  0  0  0
  160.8140  201.4390  150.8240 C   0  0  0  0  0  3  0  0  0  0  0  0
  162.4440  211.0800  149.4880 F   0  0  0  0  0  0  0  0  0  0  0  0
  162.1880  208.9060  148.5480 C   0  0  0  0  0  3  0  0  0  0  0  0
  160.8970  205.2070  151.4380 C   0  0  0  0  0  0  0  0  0  0  0  0
  161.4840  200.9710  148.5520 C   0  0  0  0  0  3  0  0  0  0  0  0
  161.2510  203.2760  149.2910 C   0  0  0  0  0  0  0  0  0  0  0  0
  161.9820  202.7850  146.9110 C   0  0  0  0  0  2  0  0  0  0  0  0
  160.6490  203.6430  146.0280 S   0  0  2  0  0  0  0  0  0  0  0  0
  160.3750  202.7660  144.8110 O   0  0  0  0  0  0  0  0  0  0  0  0
  160.4750  206.3390  145.1040 C   0  0  1  0  0  3  0  0  0  0  0  0
  162.7240  205.5960  145.8930 C   0  0  0  0  0  1  0  0  0  0  0  0
  161.3560  205.1950  145.3850 C   0  0  1  0  0  0  0  0  0  0  0  0
  161.1120  205.4830  143.5890 S   0  0  0  0  0  0  0  0  0  0  0  0
  159.1260  206.0280  145.2810 O   0  0  0  0  0  1  0  0  0  0  0  0
  1 19  2  0  0  0  0
  1 20  1  0  0  0  0
  2  7  1  0  0  0  0
  4 12  1  0  0  0  0
  5 18  2  0  0  0  0
  6  9  2  0  0  0  0
  7  5  1  0  0  0  0
  7  4  2  0  0  0  0
  9  4  1  0  0  0  0
 10 15  1  0  0  0  0
 10 14  1  0  0  0  0
 11 20  1  0  0  0  0
 11  5  1  0  0  0  0
 12  8  2  0  0  0  0
 13 15  2  0  0  0  0
 14  3  2  0  0  0  0
 16  6  1  0  0  0  0
 17  2  2  0  0  0  0
 17  6  1  0  0  0  0
 18 14  1  0  0  0  0
 18  8  1  0  0  0  0
 19 13  1  0  0  0  0
 20 10  2  0  0  0  0
 21  1  1  0  0  0  0
 22 23  2  6  0  0  0
 22 21  1  0  0  0  0
 24 28  1  1  0  0  0
 24 26  1  0  0  0  0
 26 25  1  1  0  0  0
 26 22  1  0  0  0  0
 27 24  1  0  0  0  0
 27 26  1  0  0  0  0
M  END
>  <MODEL>
8

>  <REMARK>
 VINA RESULT:      -8.1      3.934      6.692
  Name = 
  3 active torsions:
  status: ('A' for Active; 'I' for Inactive)
    1  A    between atoms: C_1  and  C_2
    2  A    between atoms: C_2  and  S_3
    3  A    between atoms: S_3  and  C_11
                            x       y       z     vdW  Elec       q    Type
                         _______ _______ _______ _____ _____    ______ ____

>  <TORSDO>
F 3

$$$$
=
 OpenBabel11052422543D

 28 32  0  0  1  0  0  0  0  0999 V2000
  160.5310  209.8080  152.5340 C   0  0  0  0  0  0  0  0  0  0  0  0
  161.0860  206.9680  148.1700 C   0  0  0  0  0  3  0  0  0  0  0  0
  161.4290  205.3190  154.0010 O   0  0  0  0  0  0  0  0  0  0  0  0
  161.1860  204.6930  149.0170 C   0  0  0  0  0  0  0  0  0  0  0  0
  161.1750  206.5670  150.5900 C   0  0  0  0  0  0  0  0  0  0  0  0
  161.0920  205.0980  146.6320 C   0  0  0  0  0  0  0  0  0  0  0  0
  161.1480  206.0870  149.2630 C   0  0  0  0  0  0  0  0  0  0  0  0
  161.2930  204.2690  151.3940 C   0  0  0  0  0  3  0  0  0  0  0  0
  161.1580  204.2090  147.7070 C   0  0  0  0  0  3  0  0  0  0  0  0
  160.9620  207.5450  153.3250 C   0  0  0  0  0  0  0  0  0  0  0  0
  161.2230  208.0540  150.8530 C   0  0  0  0  0  2  0  0  0  0  0  0
  161.2620  203.7960  150.0830 C   0  0  0  0  0  3  0  0  0  0  0  0
  160.4390  209.3080  154.9060 C   0  0  0  0  0  3  0  0  0  0  0  0
  161.2400  206.1250  153.0500 C   0  0  0  0  0  0  0  0  0  0  0  0
  160.7470  207.9750  154.6400 C   0  0  0  0  0  3  0  0  0  0  0  0
  161.0640  204.6250  145.3630 F   0  0  0  0  0  0  0  0  0  0  0  0
  161.0580  206.4760  146.8630 C   0  0  0  0  0  3  0  0  0  0  0  0
  161.2510  205.6450  151.6570 C   0  0  0  0  0  0  0  0  0  0  0  0
  160.3300  210.2200  153.8560 C   0  0  0  0  0  3  0  0  0  0  0  0
  160.8640  208.4650  152.2600 C   0  0  0  0  0  0  0  0  0  0  0  0
  160.3980  210.8190  151.4340 C   0  0  0  0  0  2  0  0  0  0  0  0
  161.7460  210.7060  150.2240 S   0  0  2  0  0  0  0  0  0  0  0  0
  163.0140  210.8930  151.0510 O   0  0  0  0  0  0  0  0  0  0  0  0
  161.2720  212.0180  147.7340 C   0  0  1  0  0  3  0  0  0  0  0  0
  161.0620  213.4400  149.7760 C   0  0  0  0  0  1  0  0  0  0  0  0
  161.6190  212.1760  149.1550 C   0  0  1  0  0  0  0  0  0  0  0  0
  163.0460  212.4590  148.0370 S   0  0  0  0  0  0  0  0  0  0  0  0
  161.1850  210.6790  147.3520 O   0  0  0  0  0  1  0  0  0  0  0  0
  1 19  1  0  0  0  0
  2  7  1  0  0  0  0
  4  7  2  0  0  0  0
  4 12  1  0  0  0  0
  5 11  1  0  0  0  0
  5 18  2  0  0  0  0
  6 17  1  0  0  0  0
  6  9  2  0  0  0  0
  7  5  1  0  0  0  0
  8 18  1  0  0  0  0
  9  4  1  0  0  0  0
 10 15  2  0  0  0  0
 11 20  1  0  0  0  0
 12  8  2  0  0  0  0
 14 10  1  0  0  0  0
 14  3  2  0  0  0  0
 15 13  1  0  0  0  0
 16  6  1  0  0  0  0
 17  2  2  0  0  0  0
 18 14  1  0  0  0  0
 19 13  2  0  0  0  0
 20  1  2  0  0  0  0
 20 10  1  0  0  0  0
 21  1  1  0  0  0  0
 22 23  2  1  0  0  0
 22 21  1  0  0  0  0
 24 28  1  1  0  0  0
 24 27  1  0  0  0  0
 24 26  1  0  0  0  0
 26 25  1  1  0  0  0
 26 22  1  0  0  0  0
 27 26  1  0  0  0  0
M  END
>  <MODEL>
9

>  <REMARK>
 VINA RESULT:      -6.9      1.692      2.399
  Name = 
  3 active torsions:
  status: ('A' for Active; 'I' for Inactive)
    1  A    between atoms: C_1  and  C_2
    2  A    between atoms: C_2  and  S_3
    3  A    between atoms: S_3  and  C_11
                            x       y       z     vdW  Elec       q    Type
                         _______ _______ _______ _____ _____    ______ ____

>  <TORSDO>
F 3

$$$$
