=
 OpenBabel11062407433D

 34 38  0  0  1  0  0  0  0  0999 V2000
  161.3490  210.8850  150.9640 C   0  0  0  0  0  0  0  0  0  0  0  0
  162.2060  209.5050  149.1930 C   0  0  0  0  0  0  0  0  0  0  0  0
  162.3040  208.4920  151.3110 C   0  0  0  0  0  2  0  0  0  0  0  0
  162.8020  208.1860  148.9010 C   0  0  0  0  0  2  0  0  0  0  0  0
  161.0680  211.8890  150.0050 C   0  0  0  0  0  0  0  0  0  0  0  0
  161.9370  210.4580  148.2720 N   0  0  0  0  0  0  0  0  0  0  0  0
  161.3670  211.6460  148.6290 C   0  0  0  0  0  0  0  0  0  0  0  0
  162.8680  207.5080  150.2760 C   0  0  2  0  0  3  0  0  0  0  0  0
  161.9250  209.6850  150.5150 C   0  0  0  0  0  0  0  0  0  0  0  0
  161.8810  210.3420  153.3030 N   0  0  0  0  0  0  0  0  0  0  0  0
  159.6720  210.6360  152.8010 C   0  0  0  0  0  0  0  0  0  0  0  0
  161.1450  209.5900  154.0610 C   0  0  0  0  0  0  0  0  0  0  0  0
  159.7410  209.6790  153.8430 N   0  0  0  0  0  2  0  0  0  0  0  0
  161.0220  211.1240  152.4220 C   0  0  2  0  0  3  0  0  0  0  0  0
  161.7090  208.7100  155.0240 N   0  0  0  0  0  1  0  0  0  0  0  0
  158.5900  211.0300  152.2920 O   0  0  0  0  0  0  0  0  0  0  0  0
  159.6680  213.5760  145.8310 C   0  0  0  0  0  0  0  0  0  0  0  0
  160.6950  214.4530  145.4820 C   0  0  0  0  0  3  0  0  0  0  0  0
  161.0940  212.6300  147.5510 C   0  0  0  0  0  0  0  0  0  0  0  0
  161.8810  214.4080  146.1430 N   0  0  0  0  0  0  0  0  0  0  0  0
  159.8740  212.6600  146.8620 C   0  0  0  0  0  3  0  0  0  0  0  0
  162.1000  213.5230  147.1530 C   0  0  0  0  0  3  0  0  0  0  0  0
  158.3700  213.6140  145.1100 C   0  0  0  0  0  1  0  0  0  0  0  0
  161.3870  205.2870  150.2510 C   0  0  0  0  0  0  0  0  0  0  0  0
  162.0550  206.2900  150.2650 C   0  0  0  0  0  0  0  0  0  0  0  0
  160.5350  203.4350  147.7930 C   0  0  0  0  0  1  0  0  0  0  0  0
  160.5740  204.0680  150.2260 C   0  0  1  0  0  3  0  0  0  0  0  0
  161.1160  203.1010  149.1530 C   0  0  1  0  0  3  0  0  0  0  0  0
  160.9560  201.2290  150.7400 C   0  0  0  0  0  3  0  0  0  0  0  0
  161.3240  202.2060  151.8150 C   0  0  0  0  0  2  0  0  0  0  0  0
  160.4870  203.4750  151.6480 C   0  0  0  0  0  2  0  0  0  0  0  0
  160.8450  201.6570  149.4790 C   0  0  0  0  0  3  0  0  0  0  0  0
  159.0480  213.3090  150.1860 C   0  0  0  0  0  1  0  0  0  0  0  0
  160.5360  213.2150  150.4680 C   0  0  0  0  0  2  0  0  0  0  0  0
  2  9  2  0  0  0  0
  4  2  1  0  0  0  0
  4  8  1  0  0  0  0
  5 34  1  0  0  0  0
  5  1  2  0  0  0  0
  6  7  2  0  0  0  0
  6  2  1  0  0  0  0
  7  5  1  0  0  0  0
  8 25  1  6  0  0  0
  8  3  1  0  0  0  0
  9  1  1  0  0  0  0
  9  3  1  0  0  0  0
 10 12  2  0  0  0  0
 11 13  1  0  0  0  0
 12 15  1  0  0  0  0
 13 12  1  0  0  0  0
 14  1  1  6  0  0  0
 14 11  1  0  0  0  0
 14 10  1  0  0  0  0
 16 11  2  0  0  0  0
 17 21  1  0  0  0  0
 18 17  2  0  0  0  0
 18 20  1  0  0  0  0
 19  7  1  0  0  0  0
 20 22  2  0  0  0  0
 21 19  2  0  0  0  0
 22 19  1  0  0  0  0
 23 17  1  0  0  0  0
 24 25  3  0  0  0  0
 27 24  1  1  0  0  0
 27 31  1  0  0  0  0
 28 26  1  6  0  0  0
 28 32  1  0  0  0  0
 28 27  1  0  0  0  0
 29 30  1  0  0  0  0
 31 30  1  0  0  0  0
 32 29  2  0  0  0  0
 33 34  1  0  0  0  0
M  END
>  <MODEL>
1

>  <REMARK>
 VINA RESULT:      -5.8      0.000      0.000
  Name = 
  5 active torsions:
  status: ('A' for Active; 'I' for Inactive)
    1  A    between atoms: C_3  and  C_13
    2  A    between atoms: C_4  and  C_15
    3  A    between atoms: C_12  and  C_28
    4  A    between atoms: C_17  and  C_29
    5  A    between atoms: C_21  and  C_32
                            x       y       z     vdW  Elec       q    Type
                         _______ _______ _______ _____ _____    ______ ____

>  <TORSDO>
F 5

$$$$
=
 OpenBabel11062407433D

 34 38  0  0  1  0  0  0  0  0999 V2000
  161.2760  213.2150  141.9220 C   0  0  0  0  0  0  0  0  0  0  0  0
  158.9780  213.8200  142.2870 C   0  0  0  0  0  0  0  0  0  0  0  0
  159.5500  213.6080  140.0180 C   0  0  0  0  0  2  0  0  0  0  0  0
  157.7090  214.1240  141.5970 C   0  0  0  0  0  2  0  0  0  0  0  0
  161.4630  213.2000  143.3250 C   0  0  0  0  0  0  0  0  0  0  0  0
  159.1500  213.8030  143.6280 N   0  0  0  0  0  0  0  0  0  0  0  0
  160.3590  213.4940  144.1830 C   0  0  0  0  0  0  0  0  0  0  0  0
  158.0640  213.9840  140.1110 C   0  0  2  0  0  3  0  0  0  0  0  0
  159.9990  213.5310  141.4290 C   0  0  0  0  0  0  0  0  0  0  0  0
  162.6660  213.9510  140.0320 N   0  0  0  0  0  0  0  0  0  0  0  0
  162.1660  211.7250  140.1240 C   0  0  0  0  0  0  0  0  0  0  0  0
  162.5860  213.4610  138.8350 C   0  0  0  0  0  0  0  0  0  0  0  0
  162.2730  212.0740  138.7550 N   0  0  0  0  0  2  0  0  0  0  0  0
  162.4340  212.8900  141.0040 C   0  0  2  0  0  3  0  0  0  0  0  0
  162.7660  214.2660  137.6770 N   0  0  0  0  0  1  0  0  0  0  0  0
  161.9010  210.5600  140.5220 O   0  0  0  0  0  0  0  0  0  0  0  0
  161.2030  212.5060  147.7540 C   0  0  0  0  0  0  0  0  0  0  0  0
  160.5110  213.4980  148.4510 C   0  0  0  0  0  3  0  0  0  0  0  0
  160.4540  213.4870  145.6650 C   0  0  0  0  0  0  0  0  0  0  0  0
  159.8090  214.4420  147.7710 N   0  0  0  0  0  0  0  0  0  0  0  0
  161.1670  212.5000  146.3600 C   0  0  0  0  0  3  0  0  0  0  0  0
  159.7630  214.4530  146.4110 C   0  0  0  0  0  3  0  0  0  0  0  0
  161.9680  211.4670  148.4890 C   0  0  0  0  0  1  0  0  0  0  0  0
  156.5850  212.0560  139.0050 C   0  0  0  0  0  0  0  0  0  0  0  0
  157.2530  212.9250  139.5070 C   0  0  0  0  0  0  0  0  0  0  0  0
  157.4510  209.2110  137.8420 C   0  0  0  0  0  1  0  0  0  0  0  0
  155.7740  211.0030  138.3880 C   0  0  1  0  0  3  0  0  0  0  0  0
  156.3310  209.6180  138.7790 C   0  0  1  0  0  3  0  0  0  0  0  0
  154.0550  208.8280  139.2730 C   0  0  0  0  0  3  0  0  0  0  0  0
  153.7570  210.2160  139.7550 C   0  0  0  0  0  2  0  0  0  0  0  0
  154.2870  211.2250  138.7340 C   0  0  0  0  0  2  0  0  0  0  0  0
  155.2720  208.5480  138.7990 C   0  0  0  0  0  3  0  0  0  0  0  0
  163.5870  214.2650  144.0240 C   0  0  0  0  0  1  0  0  0  0  0  0
  162.8380  212.9530  143.8780 C   0  0  0  0  0  2  0  0  0  0  0  0
  1  5  1  0  0  0  0
  2  6  2  0  0  0  0
  3  8  1  0  0  0  0
  3  9  1  0  0  0  0
  4  2  1  0  0  0  0
  5 34  1  0  0  0  0
  5  7  2  0  0  0  0
  6  7  1  0  0  0  0
  7 19  1  0  0  0  0
  8 25  1  1  0  0  0
  8  4  1  0  0  0  0
  9  1  2  0  0  0  0
  9  2  1  0  0  0  0
 10 14  1  0  0  0  0
 11 16  2  0  0  0  0
 11 14  1  0  0  0  0
 12 10  2  0  0  0  0
 13 12  1  0  0  0  0
 13 11  1  0  0  0  0
 14  1  1  1  0  0  0
 15 12  1  0  0  0  0
 17 18  1  0  0  0  0
 17 23  1  0  0  0  0
 19 21  1  0  0  0  0
 19 22  2  0  0  0  0
 20 18  2  0  0  0  0
 21 17  2  0  0  0  0
 22 20  1  0  0  0  0
 24 25  3  0  0  0  0
 27 31  1  0  0  0  0
 27 28  1  0  0  0  0
 27 24  1  1  0  0  0
 28 26  1  6  0  0  0
 28 32  1  0  0  0  0
 29 30  1  0  0  0  0
 31 30  1  0  0  0  0
 32 29  2  0  0  0  0
 34 33  1  0  0  0  0
M  END
>  <MODEL>
2

>  <REMARK>
 VINA RESULT:      -5.3      5.931     11.279
  Name = 
  5 active torsions:
  status: ('A' for Active; 'I' for Inactive)
    1  A    between atoms: C_3  and  C_13
    2  A    between atoms: C_4  and  C_15
    3  A    between atoms: C_12  and  C_28
    4  A    between atoms: C_17  and  C_29
    5  A    between atoms: C_21  and  C_32
                            x       y       z     vdW  Elec       q    Type
                         _______ _______ _______ _____ _____    ______ ____

>  <TORSDO>
F 5

$$$$
=
 OpenBabel11062407433D

 34 38  0  0  1  0  0  0  0  0999 V2000
  161.2330  208.8380  153.7220 C   0  0  0  0  0  0  0  0  0  0  0  0
  161.1930  209.1710  151.3420 C   0  0  0  0  0  0  0  0  0  0  0  0
  162.3710  207.2510  152.0070 C   0  0  0  0  0  2  0  0  0  0  0  0
  161.6440  208.6000  150.0580 C   0  0  0  0  0  2  0  0  0  0  0  0
  160.4630  210.0170  153.8700 C   0  0  0  0  0  0  0  0  0  0  0  0
  160.4530  210.2960  151.4760 N   0  0  0  0  0  0  0  0  0  0  0  0
  160.0640  210.7440  152.7060 C   0  0  0  0  0  0  0  0  0  0  0  0
  162.4130  207.3390  150.4740 C   0  0  2  0  0  3  0  0  0  0  0  0
  161.5830  208.4370  152.4230 C   0  0  0  0  0  0  0  0  0  0  0  0
  160.6140  207.1110  155.3590 N   0  0  0  0  0  0  0  0  0  0  0  0
  161.7910  208.8980  156.1570 C   0  0  0  0  0  0  0  0  0  0  0  0
  160.2750  207.3590  156.5850 C   0  0  0  0  0  0  0  0  0  0  0  0
  160.9380  208.4590  157.1990 N   0  0  0  0  0  2  0  0  0  0  0  0
  161.6480  208.0520  154.9460 C   0  0  2  0  0  3  0  0  0  0  0  0
  159.2800  206.6000  157.2600 N   0  0  0  0  0  1  0  0  0  0  0  0
  162.5830  209.8700  156.2730 O   0  0  0  0  0  0  0  0  0  0  0  0
  157.2170  213.1770  153.3530 C   0  0  0  0  0  0  0  0  0  0  0  0
  157.7300  214.3200  152.7400 C   0  0  0  0  0  3  0  0  0  0  0  0
  159.2420  211.9800  152.7590 C   0  0  0  0  0  0  0  0  0  0  0  0
  158.9540  214.2840  152.1510 N   0  0  0  0  0  0  0  0  0  0  0  0
  157.9740  212.0060  153.3550 C   0  0  0  0  0  3  0  0  0  0  0  0
  159.7070  213.1510  152.1430 C   0  0  0  0  0  3  0  0  0  0  0  0
  155.8780  213.2050  153.9950 C   0  0  0  0  0  1  0  0  0  0  0  0
  161.2380  205.1810  149.4290 C   0  0  0  0  0  0  0  0  0  0  0  0
  161.7700  206.1570  149.8990 C   0  0  0  0  0  0  0  0  0  0  0  0
  161.4260  203.9360  146.4950 C   0  0  0  0  0  1  0  0  0  0  0  0
  160.5900  203.9940  148.8660 C   0  0  1  0  0  3  0  0  0  0  0  0
  161.5420  203.3030  147.8680 C   0  0  1  0  0  3  0  0  0  0  0  0
  161.0200  201.1160  148.8640 C   0  0  0  0  0  3  0  0  0  0  0  0
  160.9200  201.8230  150.1830 C   0  0  0  0  0  2  0  0  0  0  0  0
  160.0810  203.0910  150.0090 C   0  0  0  0  0  2  0  0  0  0  0  0
  161.3040  201.8210  147.7650 C   0  0  0  0  0  3  0  0  0  0  0  0
  158.6850  210.2830  155.5730 C   0  0  0  0  0  1  0  0  0  0  0  0
  160.1490  210.5190  155.2500 C   0  0  0  0  0  2  0  0  0  0  0  0
  1  5  1  0  0  0  0
  2  6  2  0  0  0  0
  2  9  1  0  0  0  0
  3  9  1  0  0  0  0
  4  8  1  0  0  0  0
  4  2  1  0  0  0  0
  5 34  1  0  0  0  0
  6  7  1  0  0  0  0
  7 19  1  0  0  0  0
  7  5  2  0  0  0  0
  8 25  1  6  0  0  0
  8  3  1  0  0  0  0
  9  1  2  0  0  0  0
 10 12  2  0  0  0  0
 11 16  2  0  0  0  0
 11 13  1  0  0  0  0
 12 13  1  0  0  0  0
 12 15  1  0  0  0  0
 14  1  1  6  0  0  0
 14 10  1  0  0  0  0
 14 11  1  0  0  0  0
 17 21  1  0  0  0  0
 17 23  1  0  0  0  0
 18 17  2  0  0  0  0
 19 21  2  0  0  0  0
 20 18  1  0  0  0  0
 22 20  2  0  0  0  0
 22 19  1  0  0  0  0
 24 25  3  0  0  0  0
 27 24  1  1  0  0  0
 27 31  1  0  0  0  0
 28 26  1  6  0  0  0
 28 27  1  0  0  0  0
 29 30  1  0  0  0  0
 31 30  1  0  0  0  0
 32 28  1  0  0  0  0
 32 29  2  0  0  0  0
 34 33  1  0  0  0  0
M  END
>  <MODEL>
3

>  <REMARK>
 VINA RESULT:      -5.3      3.336      4.390
  Name = 
  5 active torsions:
  status: ('A' for Active; 'I' for Inactive)
    1  A    between atoms: C_3  and  C_13
    2  A    between atoms: C_4  and  C_15
    3  A    between atoms: C_12  and  C_28
    4  A    between atoms: C_17  and  C_29
    5  A    between atoms: C_21  and  C_32
                            x       y       z     vdW  Elec       q    Type
                         _______ _______ _______ _____ _____    ______ ____

>  <TORSDO>
F 5

$$$$
=
 OpenBabel11062407433D

 34 38  0  0  1  0  0  0  0  0999 V2000
  161.7130  207.9320  150.5920 C   0  0  0  0  0  0  0  0  0  0  0  0
  161.6240  210.3320  150.7090 C   0  0  0  0  0  0  0  0  0  0  0  0
  162.2070  209.5100  148.5860 C   0  0  0  0  0  2  0  0  0  0  0  0
  161.8000  211.5640  149.9150 C   0  0  0  0  0  2  0  0  0  0  0  0
  161.3450  207.8830  151.9590 C   0  0  0  0  0  0  0  0  0  0  0  0
  161.2680  210.2910  152.0130 N   0  0  0  0  0  0  0  0  0  0  0  0
  161.1120  209.1030  152.6670 C   0  0  0  0  0  0  0  0  0  0  0  0
  162.1770  211.0440  148.5210 C   0  0  2  0  0  3  0  0  0  0  0  0
  161.8420  209.1940  149.9890 C   0  0  0  0  0  0  0  0  0  0  0  0
  162.5550  206.8970  148.5280 N   0  0  0  0  0  0  0  0  0  0  0  0
  160.6870  205.9600  149.4510 C   0  0  0  0  0  0  0  0  0  0  0  0
  161.7960  206.4020  147.6000 C   0  0  0  0  0  0  0  0  0  0  0  0
  160.5910  205.7900  148.0480 N   0  0  0  0  0  2  0  0  0  0  0  0
  161.9470  206.6480  149.8290 C   0  0  2  0  0  3  0  0  0  0  0  0
  162.1320  206.4970  146.2220 N   0  0  0  0  0  1  0  0  0  0  0  0
  159.8140  205.5490  150.2590 O   0  0  0  0  0  0  0  0  0  0  0  0
  160.3150  208.0930  156.2430 C   0  0  0  0  0  0  0  0  0  0  0  0
  159.8480  209.3100  156.7400 C   0  0  0  0  0  3  0  0  0  0  0  0
  160.7060  209.1510  154.0950 C   0  0  0  0  0  0  0  0  0  0  0  0
  159.8050  210.4030  155.9340 N   0  0  0  0  0  0  0  0  0  0  0  0
  160.7380  208.0160  154.9160 C   0  0  0  0  0  3  0  0  0  0  0  0
  160.2150  210.3470  154.6370 C   0  0  0  0  0  3  0  0  0  0  0  0
  160.3600  206.8920  157.1160 C   0  0  0  0  0  1  0  0  0  0  0  0
  160.3400  211.8240  146.7470 C   0  0  0  0  0  0  0  0  0  0  0  0
  161.1720  211.4720  147.5460 C   0  0  0  0  0  0  0  0  0  0  0  0
  157.5940  213.3870  147.2100 C   0  0  0  0  0  1  0  0  0  0  0  0
  159.3230  212.2510  145.7820 C   0  0  1  0  0  3  0  0  0  0  0  0
  158.7210  213.6020  146.2190 C   0  0  1  0  0  3  0  0  0  0  0  0
  158.9270  214.4530  143.9220 C   0  0  0  0  0  3  0  0  0  0  0  0
  160.1830  213.6420  143.8120 C   0  0  0  0  0  2  0  0  0  0  0  0
  159.9230  212.2380  144.3600 C   0  0  0  0  0  2  0  0  0  0  0  0
  158.2280  214.4240  145.0600 C   0  0  0  0  0  3  0  0  0  0  0  0
  162.6750  206.1300  153.0940 C   0  0  0  0  0  1  0  0  0  0  0  0
  161.2860  206.5530  152.6540 C   0  0  0  0  0  2  0  0  0  0  0  0
  1  5  1  0  0  0  0
  2  6  2  0  0  0  0
  3  9  1  0  0  0  0
  4  2  1  0  0  0  0
  5 34  1  0  0  0  0
  5  7  2  0  0  0  0
  6  7  1  0  0  0  0
  7 19  1  0  0  0  0
  8 25  1  6  0  0  0
  8  3  1  0  0  0  0
  8  4  1  0  0  0  0
  9  1  2  0  0  0  0
  9  2  1  0  0  0  0
 10 14  1  0  0  0  0
 11 14  1  0  0  0  0
 11 16  2  0  0  0  0
 12 13  1  0  0  0  0
 12 10  2  0  0  0  0
 13 11  1  0  0  0  0
 14  1  1  6  0  0  0
 15 12  1  0  0  0  0
 17 18  1  0  0  0  0
 17 23  1  0  0  0  0
 19 22  2  0  0  0  0
 19 21  1  0  0  0  0
 20 18  2  0  0  0  0
 21 17  2  0  0  0  0
 22 20  1  0  0  0  0
 24 25  3  0  0  0  0
 27 28  1  0  0  0  0
 27 24  1  1  0  0  0
 28 26  1  1  0  0  0
 29 32  2  0  0  0  0
 30 29  1  0  0  0  0
 30 31  1  0  0  0  0
 31 27  1  0  0  0  0
 32 28  1  0  0  0  0
 34 33  1  0  0  0  0
M  END
>  <MODEL>
4

>  <REMARK>
 VINA RESULT:      -5.3      2.741      8.601
  Name = 
  5 active torsions:
  status: ('A' for Active; 'I' for Inactive)
    1  A    between atoms: C_3  and  C_13
    2  A    between atoms: C_4  and  C_15
    3  A    between atoms: C_12  and  C_28
    4  A    between atoms: C_17  and  C_29
    5  A    between atoms: C_21  and  C_32
                            x       y       z     vdW  Elec       q    Type
                         _______ _______ _______ _____ _____    ______ ____

>  <TORSDO>
F 5

$$$$
=
 OpenBabel11062407433D

 34 38  0  0  1  0  0  0  0  0999 V2000
  161.2310  210.4760  151.5930 C   0  0  0  0  0  0  0  0  0  0  0  0
  160.4560  212.6620  150.9590 C   0  0  0  0  0  0  0  0  0  0  0  0
  161.7790  211.6170  149.3220 C   0  0  0  0  0  2  0  0  0  0  0  0
  160.4870  213.6610  149.8720 C   0  0  0  0  0  2  0  0  0  0  0  0
  160.5460  210.6240  152.8240 C   0  0  0  0  0  0  0  0  0  0  0  0
  159.7960  212.8060  152.1310 N   0  0  0  0  0  0  0  0  0  0  0  0
  159.8080  211.8210  153.0760 C   0  0  0  0  0  0  0  0  0  0  0  0
  161.3450  212.9910  148.7910 C   0  0  2  0  0  3  0  0  0  0  0  0
  161.1610  211.5310  150.6680 C   0  0  0  0  0  0  0  0  0  0  0  0
  162.4840  209.1650  149.9330 N   0  0  0  0  0  0  0  0  0  0  0  0
  161.1580  207.9880  151.3740 C   0  0  0  0  0  0  0  0  0  0  0  0
  162.0280  208.0990  149.3530 C   0  0  0  0  0  0  0  0  0  0  0  0
  161.1800  207.2770  150.1490 N   0  0  0  0  0  2  0  0  0  0  0  0
  162.0040  209.2070  151.3080 C   0  0  2  0  0  3  0  0  0  0  0  0
  162.3290  207.7900  147.9990 N   0  0  0  0  0  1  0  0  0  0  0  0
  160.5180  207.6030  152.3870 O   0  0  0  0  0  0  0  0  0  0  0  0
  157.0690  211.7950  155.7100 C   0  0  0  0  0  0  0  0  0  0  0  0
  157.6470  212.6260  156.6700 C   0  0  0  0  0  3  0  0  0  0  0  0
  159.0450  212.0590  154.3280 C   0  0  0  0  0  0  0  0  0  0  0  0
  158.8780  213.1600  156.4540 N   0  0  0  0  0  0  0  0  0  0  0  0
  157.7690  211.5190  154.5360 C   0  0  0  0  0  3  0  0  0  0  0  0
  159.5770  212.9010  155.3160 C   0  0  0  0  0  3  0  0  0  0  0  0
  155.7220  211.2120  155.9350 C   0  0  0  0  0  1  0  0  0  0  0  0
  159.8960  212.6710  146.5700 C   0  0  0  0  0  0  0  0  0  0  0  0
  160.5530  212.8150  147.5720 C   0  0  0  0  0  0  0  0  0  0  0  0
  157.0410  213.8790  145.8080 C   0  0  0  0  0  1  0  0  0  0  0  0
  159.0920  212.4970  145.3580 C   0  0  1  0  0  3  0  0  0  0  0  0
  158.3430  213.8070  145.0350 C   0  0  1  0  0  3  0  0  0  0  0  0
  158.9960  213.6140  142.6730 C   0  0  0  0  0  3  0  0  0  0  0  0
  160.2850  213.0190  143.1540 C   0  0  0  0  0  2  0  0  0  0  0  0
  159.9830  211.9620  144.2180 C   0  0  0  0  0  2  0  0  0  0  0  0
  158.0700  213.9760  143.5650 C   0  0  0  0  0  3  0  0  0  0  0  0
  161.7380  209.9350  154.8820 C   0  0  0  0  0  1  0  0  0  0  0  0
  160.6770  209.5520  153.8670 C   0  0  0  0  0  2  0  0  0  0  0  0
  1  5  1  0  0  0  0
  2  6  2  0  0  0  0
  3  9  1  0  0  0  0
  4  2  1  0  0  0  0
  5  7  2  0  0  0  0
  5 34  1  0  0  0  0
  6  7  1  0  0  0  0
  7 19  1  0  0  0  0
  8 25  1  6  0  0  0
  8  3  1  0  0  0  0
  8  4  1  0  0  0  0
  9  2  1  0  0  0  0
  9  1  2  0  0  0  0
 10 14  1  0  0  0  0
 11 16  2  0  0  0  0
 12 10  2  0  0  0  0
 12 13  1  0  0  0  0
 13 11  1  0  0  0  0
 14 11  1  0  0  0  0
 14  1  1  6  0  0  0
 15 12  1  0  0  0  0
 17 23  1  0  0  0  0
 17 18  1  0  0  0  0
 19 21  1  0  0  0  0
 19 22  2  0  0  0  0
 20 18  2  0  0  0  0
 21 17  2  0  0  0  0
 22 20  1  0  0  0  0
 24 25  3  0  0  0  0
 27 24  1  1  0  0  0
 28 27  1  0  0  0  0
 28 26  1  1  0  0  0
 29 30  1  0  0  0  0
 29 32  2  0  0  0  0
 30 31  1  0  0  0  0
 31 27  1  0  0  0  0
 32 28  1  0  0  0  0
 34 33  1  0  0  0  0
M  END
>  <MODEL>
5

>  <REMARK>
 VINA RESULT:      -4.7      3.259      8.176
  Name = 
  5 active torsions:
  status: ('A' for Active; 'I' for Inactive)
    1  A    between atoms: C_3  and  C_13
    2  A    between atoms: C_4  and  C_15
    3  A    between atoms: C_12  and  C_28
    4  A    between atoms: C_17  and  C_29
    5  A    between atoms: C_21  and  C_32
                            x       y       z     vdW  Elec       q    Type
                         _______ _______ _______ _____ _____    ______ ____

>  <TORSDO>
F 5

$$$$
=
 OpenBabel11062407433D

 34 38  0  0  1  0  0  0  0  0999 V2000
  161.5100  207.3660  150.4600 C   0  0  0  0  0  0  0  0  0  0  0  0
  161.9490  209.6590  151.0300 C   0  0  0  0  0  0  0  0  0  0  0  0
  162.2950  209.1670  148.7590 C   0  0  0  0  0  2  0  0  0  0  0  0
  162.3720  210.9590  150.4710 C   0  0  0  0  0  2  0  0  0  0  0  0
  161.1690  207.1270  151.8140 C   0  0  0  0  0  0  0  0  0  0  0  0
  161.6200  209.4380  152.3230 N   0  0  0  0  0  0  0  0  0  0  0  0
  161.2210  208.2050  152.7510 C   0  0  0  0  0  0  0  0  0  0  0  0
  162.5980  210.6560  148.9840 C   0  0  2  0  0  3  0  0  0  0  0  0
  161.8990  208.6660  150.0970 C   0  0  0  0  0  0  0  0  0  0  0  0
  162.4830  206.3530  148.4420 N   0  0  0  0  0  0  0  0  0  0  0  0
  160.2080  206.2660  148.6320 C   0  0  0  0  0  0  0  0  0  0  0  0
  161.9330  206.3970  147.2690 C   0  0  0  0  0  0  0  0  0  0  0  0
  160.5100  206.3540  147.2510 N   0  0  0  0  0  2  0  0  0  0  0  0
  161.4430  206.2360  149.4560 C   0  0  2  0  0  3  0  0  0  0  0  0
  162.7030  206.5150  146.0800 N   0  0  0  0  0  1  0  0  0  0  0  0
  159.0340  206.1970  149.0810 O   0  0  0  0  0  0  0  0  0  0  0  0
  160.3350  208.9820  156.3640 C   0  0  0  0  0  0  0  0  0  0  0  0
  160.2890  207.6890  156.8860 C   0  0  0  0  0  3  0  0  0  0  0  0
  160.8660  208.0560  154.1850 C   0  0  0  0  0  0  0  0  0  0  0  0
  160.5330  206.6210  156.0810 N   0  0  0  0  0  0  0  0  0  0  0  0
  160.6310  209.1610  155.0130 C   0  0  0  0  0  3  0  0  0  0  0  0
  160.8220  206.7770  154.7600 C   0  0  0  0  0  3  0  0  0  0  0  0
  160.0760  210.1540  157.2380 C   0  0  0  0  0  1  0  0  0  0  0  0
  160.9410  212.1400  147.5070 C   0  0  0  0  0  0  0  0  0  0  0  0
  161.6900  211.4680  148.1720 C   0  0  0  0  0  0  0  0  0  0  0  0
  160.7750  212.5340  144.3430 C   0  0  0  0  0  1  0  0  0  0  0  0
  160.0280  212.9590  146.7060 C   0  0  1  0  0  3  0  0  0  0  0  0
  159.7080  212.2400  145.3790 C   0  0  1  0  0  3  0  0  0  0  0  0
  157.3200  212.7500  145.6620 C   0  0  0  0  0  3  0  0  0  0  0  0
  157.5330  212.5780  147.1360 C   0  0  0  0  0  2  0  0  0  0  0  0
  158.7940  213.3370  147.5520 C   0  0  0  0  0  2  0  0  0  0  0  0
  158.3550  212.6010  144.8300 C   0  0  0  0  0  3  0  0  0  0  0  0
  162.0190  204.8100  152.0100 C   0  0  0  0  0  1  0  0  0  0  0  0
  160.8350  205.7290  152.2490 C   0  0  0  0  0  2  0  0  0  0  0  0
  1  5  1  0  0  0  0
  2  6  2  0  0  0  0
  3  8  1  0  0  0  0
  3  9  1  0  0  0  0
  4  2  1  0  0  0  0
  5 34  1  0  0  0  0
  5  7  2  0  0  0  0
  6  7  1  0  0  0  0
  7 19  1  0  0  0  0
  8 25  1  6  0  0  0
  8  4  1  0  0  0  0
  9  1  2  0  0  0  0
  9  2  1  0  0  0  0
 10 14  1  0  0  0  0
 11 16  2  0  0  0  0
 11 14  1  0  0  0  0
 12 10  2  0  0  0  0
 13 12  1  0  0  0  0
 13 11  1  0  0  0  0
 14  1  1  1  0  0  0
 15 12  1  0  0  0  0
 17 18  1  0  0  0  0
 17 23  1  0  0  0  0
 19 22  2  0  0  0  0
 19 21  1  0  0  0  0
 20 18  2  0  0  0  0
 21 17  2  0  0  0  0
 22 20  1  0  0  0  0
 24 25  3  0  0  0  0
 27 24  1  1  0  0  0
 27 31  1  0  0  0  0
 28 26  1  6  0  0  0
 28 27  1  0  0  0  0
 29 30  1  0  0  0  0
 30 31  1  0  0  0  0
 32 28  1  0  0  0  0
 32 29  2  0  0  0  0
 33 34  1  0  0  0  0
M  END
>  <MODEL>
6

>  <REMARK>
 VINA RESULT:      -4.5      2.714      8.466
  Name = 
  5 active torsions:
  status: ('A' for Active; 'I' for Inactive)
    1  A    between atoms: C_3  and  C_13
    2  A    between atoms: C_4  and  C_15
    3  A    between atoms: C_12  and  C_28
    4  A    between atoms: C_17  and  C_29
    5  A    between atoms: C_21  and  C_32
                            x       y       z     vdW  Elec       q    Type
                         _______ _______ _______ _____ _____    ______ ____

>  <TORSDO>
F 5

$$$$
=
 OpenBabel11062407433D

 34 38  0  0  1  0  0  0  0  0999 V2000
  161.1980  208.0190  150.2150 C   0  0  0  0  0  0  0  0  0  0  0  0
  161.9950  210.2680  150.5110 C   0  0  0  0  0  0  0  0  0  0  0  0
  161.7070  209.6560  148.2610 C   0  0  0  0  0  2  0  0  0  0  0  0
  162.3940  211.4890  149.7830 C   0  0  0  0  0  2  0  0  0  0  0  0
  161.1860  207.8710  151.6230 C   0  0  0  0  0  0  0  0  0  0  0  0
  161.9810  210.1330  151.8560 N   0  0  0  0  0  0  0  0  0  0  0  0
  161.5810  208.9700  152.4470 C   0  0  0  0  0  0  0  0  0  0  0  0
  162.2060  211.1080  148.3080 C   0  0  2  0  0  3  0  0  0  0  0  0
  161.6120  209.2520  149.6850 C   0  0  0  0  0  0  0  0  0  0  0  0
  160.1820  205.7830  150.1090 N   0  0  0  0  0  0  0  0  0  0  0  0
  161.9080  206.1880  148.6700 C   0  0  0  0  0  0  0  0  0  0  0  0
  160.8460  204.6920  149.8880 C   0  0  0  0  0  0  0  0  0  0  0  0
  161.9560  204.8130  149.0040 N   0  0  0  0  0  2  0  0  0  0  0  0
  160.7670  206.8680  149.3330 C   0  0  2  0  0  3  0  0  0  0  0  0
  160.5060  203.4620  150.5140 N   0  0  0  0  0  1  0  0  0  0  0  0
  162.7250  206.7390  147.8860 O   0  0  0  0  0  0  0  0  0  0  0  0
  160.8400  207.9680  156.0370 C   0  0  0  0  0  0  0  0  0  0  0  0
  161.5800  208.9360  156.7170 C   0  0  0  0  0  3  0  0  0  0  0  0
  161.5840  208.9150  153.9310 C   0  0  0  0  0  0  0  0  0  0  0  0
  162.2880  209.8630  156.0210 N   0  0  0  0  0  0  0  0  0  0  0  0
  160.8390  207.9650  154.6430 C   0  0  0  0  0  3  0  0  0  0  0  0
  162.3010  209.8750  154.6610 C   0  0  0  0  0  3  0  0  0  0  0  0
  160.0580  206.9540  156.7900 C   0  0  0  0  0  1  0  0  0  0  0  0
  160.3900  212.7150  147.1920 C   0  0  0  0  0  0  0  0  0  0  0  0
  161.2100  211.9870  147.6940 C   0  0  0  0  0  0  0  0  0  0  0  0
  158.9790  212.5760  144.3310 C   0  0  0  0  0  1  0  0  0  0  0  0
  159.3920  213.6020  146.5900 C   0  0  1  0  0  3  0  0  0  0  0  0
  158.4150  212.7790  145.7240 C   0  0  1  0  0  3  0  0  0  0  0  0
  156.5090  213.9790  146.7100 C   0  0  0  0  0  3  0  0  0  0  0  0
  157.2890  214.0160  147.9900 C   0  0  0  0  0  2  0  0  0  0  0  0
  158.7240  214.4530  147.6890 C   0  0  0  0  0  2  0  0  0  0  0  0
  157.0490  213.4020  145.6330 C   0  0  0  0  0  3  0  0  0  0  0  0
  162.0880  205.8280  152.6930 C   0  0  0  0  0  1  0  0  0  0  0  0
  160.8330  206.5370  152.2160 C   0  0  0  0  0  2  0  0  0  0  0  0
  1  5  1  0  0  0  0
  2  6  2  0  0  0  0
  3  8  1  0  0  0  0
  3  9  1  0  0  0  0
  4  2  1  0  0  0  0
  5 34  1  0  0  0  0
  5  7  2  0  0  0  0
  6  7  1  0  0  0  0
  7 19  1  0  0  0  0
  8 25  1  1  0  0  0
  8  4  1  0  0  0  0
  9  1  2  0  0  0  0
  9  2  1  0  0  0  0
 11 13  1  0  0  0  0
 11 14  1  0  0  0  0
 12 10  2  0  0  0  0
 12 15  1  0  0  0  0
 13 12  1  0  0  0  0
 14 10  1  0  0  0  0
 14  1  1  1  0  0  0
 16 11  2  0  0  0  0
 17 18  1  0  0  0  0
 17 23  1  0  0  0  0
 19 21  1  0  0  0  0
 19 22  2  0  0  0  0
 20 18  2  0  0  0  0
 21 17  2  0  0  0  0
 22 20  1  0  0  0  0
 24 25  3  0  0  0  0
 27 24  1  1  0  0  0
 27 31  1  0  0  0  0
 28 26  1  6  0  0  0
 28 27  1  0  0  0  0
 29 30  1  0  0  0  0
 31 30  1  0  0  0  0
 32 28  1  0  0  0  0
 32 29  2  0  0  0  0
 34 33  1  0  0  0  0
M  END
>  <MODEL>
7

>  <REMARK>
 VINA RESULT:      -4.4      2.769      8.450
  Name = 
  5 active torsions:
  status: ('A' for Active; 'I' for Inactive)
    1  A    between atoms: C_3  and  C_13
    2  A    between atoms: C_4  and  C_15
    3  A    between atoms: C_12  and  C_28
    4  A    between atoms: C_17  and  C_29
    5  A    between atoms: C_21  and  C_32
                            x       y       z     vdW  Elec       q    Type
                         _______ _______ _______ _____ _____    ______ ____

>  <TORSDO>
F 5

$$$$
=
 OpenBabel11062407433D

 34 38  0  0  1  0  0  0  0  0999 V2000
  161.8730  208.4160  150.4680 C   0  0  0  0  0  0  0  0  0  0  0  0
  160.9280  207.9390  152.6260 C   0  0  0  0  0  0  0  0  0  0  0  0
  161.3570  210.2200  152.2670 C   0  0  0  0  0  2  0  0  0  0  0  0
  160.4810  208.5610  153.8880 C   0  0  0  0  0  2  0  0  0  0  0  0
  161.8180  207.0320  150.1710 C   0  0  0  0  0  0  0  0  0  0  0  0
  160.8680  206.6170  152.3460 N   0  0  0  0  0  0  0  0  0  0  0  0
  161.2890  206.1280  151.1430 C   0  0  0  0  0  0  0  0  0  0  0  0
  160.7500  210.0560  153.6680 C   0  0  2  0  0  3  0  0  0  0  0  0
  161.4100  208.8410  151.7240 C   0  0  0  0  0  0  0  0  0  0  0  0
  162.4460  210.7500  149.9500 N   0  0  0  0  0  0  0  0  0  0  0  0
  161.5360  209.5230  148.2520 C   0  0  0  0  0  0  0  0  0  0  0  0
  161.7490  211.5140  149.1680 C   0  0  0  0  0  0  0  0  0  0  0  0
  161.1230  210.8650  148.0670 N   0  0  0  0  0  2  0  0  0  0  0  0
  162.4160  209.3850  149.4410 C   0  0  2  0  0  3  0  0  0  0  0  0
  161.5940  212.9060  149.4160 N   0  0  0  0  0  1  0  0  0  0  0  0
  161.2090  208.5840  147.4800 O   0  0  0  0  0  0  0  0  0  0  0  0
  160.8330  202.7450  149.4730 C   0  0  0  0  0  0  0  0  0  0  0  0
  160.8860  201.9130  150.5920 C   0  0  0  0  0  3  0  0  0  0  0  0
  161.1750  204.6650  150.9170 C   0  0  0  0  0  0  0  0  0  0  0  0
  161.0680  202.4460  151.8280 N   0  0  0  0  0  0  0  0  0  0  0  0
  160.9720  204.1220  149.6410 C   0  0  0  0  0  3  0  0  0  0  0  0
  161.2060  203.7880  152.0110 C   0  0  0  0  0  3  0  0  0  0  0  0
  160.6300  202.1710  148.1190 C   0  0  0  0  0  1  0  0  0  0  0  0
  158.4570  211.4150  153.8150 C   0  0  0  0  0  0  0  0  0  0  0  0
  159.4920  210.8010  153.7460 C   0  0  0  0  0  0  0  0  0  0  0  0
  155.6270  210.5360  155.0030 C   0  0  0  0  0  1  0  0  0  0  0  0
  157.2000  212.1630  153.9070 C   0  0  1  0  0  3  0  0  0  0  0  0
  156.4610  211.7850  155.2080 C   0  0  1  0  0  3  0  0  0  0  0  0
  156.0190  214.1610  155.6630 C   0  0  0  0  0  3  0  0  0  0  0  0
  157.3530  214.4510  155.0450 C   0  0  0  0  0  2  0  0  0  0  0  0
  157.4800  213.6700  153.7350 C   0  0  0  0  0  2  0  0  0  0  0  0
  155.5910  212.8970  155.7290 C   0  0  0  0  0  3  0  0  0  0  0  0
  161.2690  206.1340  147.9300 C   0  0  0  0  0  1  0  0  0  0  0  0
  162.3880  206.5390  148.8730 C   0  0  0  0  0  2  0  0  0  0  0  0
  1  9  1  0  0  0  0
  2  4  1  0  0  0  0
  3  8  1  0  0  0  0
  5  1  2  0  0  0  0
  5  7  1  0  0  0  0
  6  2  1  0  0  0  0
  7  6  2  0  0  0  0
  8 25  1  6  0  0  0
  8  4  1  0  0  0  0
  9  3  1  0  0  0  0
  9  2  2  0  0  0  0
 11 14  1  0  0  0  0
 12 15  1  0  0  0  0
 12 10  2  0  0  0  0
 13 11  1  0  0  0  0
 13 12  1  0  0  0  0
 14 10  1  0  0  0  0
 14  1  1  1  0  0  0
 16 11  2  0  0  0  0
 17 21  2  0  0  0  0
 17 18  1  0  0  0  0
 18 20  2  0  0  0  0
 19  7  1  0  0  0  0
 19 22  2  0  0  0  0
 20 22  1  0  0  0  0
 21 19  1  0  0  0  0
 23 17  1  0  0  0  0
 25 24  3  0  0  0  0
 27 24  1  1  0  0  0
 27 28  1  0  0  0  0
 28 26  1  6  0  0  0
 28 32  1  0  0  0  0
 29 32  2  0  0  0  0
 30 29  1  0  0  0  0
 31 27  1  0  0  0  0
 31 30  1  0  0  0  0
 33 34  1  0  0  0  0
 34  5  1  0  0  0  0
M  END
>  <MODEL>
8

>  <REMARK>
 VINA RESULT:      -4.0      2.929      8.664
  Name = 
  5 active torsions:
  status: ('A' for Active; 'I' for Inactive)
    1  A    between atoms: C_3  and  C_13
    2  A    between atoms: C_4  and  C_15
    3  A    between atoms: C_12  and  C_28
    4  A    between atoms: C_17  and  C_29
    5  A    between atoms: C_21  and  C_32
                            x       y       z     vdW  Elec       q    Type
                         _______ _______ _______ _____ _____    ______ ____

>  <TORSDO>
F 5

$$$$
=
 OpenBabel11062407433D

 34 38  0  0  1  0  0  0  0  0999 V2000
  159.9670  211.2150  153.0550 C   0  0  0  0  0  0  0  0  0  0  0  0
  158.7930  213.1540  152.2550 C   0  0  0  0  0  0  0  0  0  0  0  0
  160.6380  212.5540  150.9310 C   0  0  0  0  0  2  0  0  0  0  0  0
  158.7780  214.1730  151.1870 C   0  0  0  0  0  2  0  0  0  0  0  0
  159.0380  211.1300  154.1210 C   0  0  0  0  0  0  0  0  0  0  0  0
  157.9000  213.0750  153.2680 N   0  0  0  0  0  0  0  0  0  0  0  0
  157.9800  212.0870  154.2060 C   0  0  0  0  0  0  0  0  0  0  0  0
  159.9770  213.7920  150.3080 C   0  0  2  0  0  3  0  0  0  0  0  0
  159.8100  212.2550  152.1240 C   0  0  0  0  0  0  0  0  0  0  0  0
  160.5700  208.8630  152.6690 N   0  0  0  0  0  0  0  0  0  0  0  0
  161.8030  209.9890  154.2270 C   0  0  0  0  0  0  0  0  0  0  0  0
  160.9660  208.0510  153.5990 C   0  0  0  0  0  0  0  0  0  0  0  0
  161.7450  208.6350  154.6370 N   0  0  0  0  0  2  0  0  0  0  0  0
  161.0820  210.1990  152.9460 C   0  0  2  0  0  3  0  0  0  0  0  0
  160.6160  206.6730  153.5960 N   0  0  0  0  0  1  0  0  0  0  0  0
  162.4160  210.8820  154.8680 O   0  0  0  0  0  0  0  0  0  0  0  0
  155.0640  211.0470  156.4100 C   0  0  0  0  0  0  0  0  0  0  0  0
  154.9930  212.1540  157.2570 C   0  0  0  0  0  3  0  0  0  0  0  0
  156.9490  212.0680  155.2760 C   0  0  0  0  0  0  0  0  0  0  0  0
  155.8670  213.1830  157.1060 N   0  0  0  0  0  0  0  0  0  0  0  0
  156.0400  211.0110  155.4160 C   0  0  0  0  0  3  0  0  0  0  0  0
  156.8270  213.1650  156.1420 C   0  0  0  0  0  3  0  0  0  0  0  0
  154.1090  209.9200  156.5650 C   0  0  0  0  0  1  0  0  0  0  0  0
  159.1310  213.2030  147.8450 C   0  0  0  0  0  0  0  0  0  0  0  0
  159.5150  213.4710  148.9560 C   0  0  0  0  0  0  0  0  0  0  0  0
  156.4780  214.1030  146.3130 C   0  0  0  0  0  1  0  0  0  0  0  0
  158.6620  212.8710  146.4970 C   0  0  1  0  0  3  0  0  0  0  0  0
  157.9320  214.0840  145.8840 C   0  0  1  0  0  3  0  0  0  0  0  0
  159.1560  213.7720  143.7740 C   0  0  0  0  0  3  0  0  0  0  0  0
  160.3230  213.3270  144.6030 C   0  0  0  0  0  2  0  0  0  0  0  0
  159.8380  212.3300  145.6580 C   0  0  0  0  0  2  0  0  0  0  0  0
  158.0180  214.1190  144.3820 C   0  0  0  0  0  3  0  0  0  0  0  0
  159.5440  210.7390  156.5130 C   0  0  0  0  0  1  0  0  0  0  0  0
  159.2330  210.0840  155.1800 C   0  0  0  0  0  2  0  0  0  0  0  0
  1  5  1  0  0  0  0
  2  6  2  0  0  0  0
  3  9  1  0  0  0  0
  4  2  1  0  0  0  0
  5  7  2  0  0  0  0
  5 34  1  0  0  0  0
  6  7  1  0  0  0  0
  7 19  1  0  0  0  0
  8 25  1  6  0  0  0
  8  3  1  0  0  0  0
  8  4  1  0  0  0  0
  9  2  1  0  0  0  0
  9  1  2  0  0  0  0
 10 14  1  0  0  0  0
 10 12  2  0  0  0  0
 11 13  1  0  0  0  0
 11 16  2  0  0  0  0
 12 13  1  0  0  0  0
 14  1  1  1  0  0  0
 14 11  1  0  0  0  0
 15 12  1  0  0  0  0
 17 23  1  0  0  0  0
 17 18  1  0  0  0  0
 19 21  1  0  0  0  0
 19 22  2  0  0  0  0
 20 18  2  0  0  0  0
 21 17  2  0  0  0  0
 22 20  1  0  0  0  0
 24 25  3  0  0  0  0
 27 24  1  1  0  0  0
 28 26  1  6  0  0  0
 28 27  1  0  0  0  0
 29 32  2  0  0  0  0
 29 30  1  0  0  0  0
 30 31  1  0  0  0  0
 31 27  1  0  0  0  0
 32 28  1  0  0  0  0
 34 33  1  0  0  0  0
M  END
>  <MODEL>
9

>  <REMARK>
 VINA RESULT:      -3.8      4.054      8.621
  Name = 
  5 active torsions:
  status: ('A' for Active; 'I' for Inactive)
    1  A    between atoms: C_3  and  C_13
    2  A    between atoms: C_4  and  C_15
    3  A    between atoms: C_12  and  C_28
    4  A    between atoms: C_17  and  C_29
    5  A    between atoms: C_21  and  C_32
                            x       y       z     vdW  Elec       q    Type
                         _______ _______ _______ _____ _____    ______ ____

>  <TORSDO>
F 5

$$$$
