=
 OpenBabel11052422013D

 30 32  0  0  1  0  0  0  0  0999 V2000
  160.7790  210.4050  151.8510 C   0  0  1  0  0  3  0  0  0  0  0  0
  161.7080  209.6010  152.7170 C   0  0  0  0  0  0  0  0  0  0  0  0
  162.2530  209.2180  157.2520 O   0  0  0  0  0  0  0  0  0  0  0  0
  161.2660  208.2810  153.2820 C   0  0  1  0  0  3  0  0  0  0  0  0
  159.6000  211.5390  154.9950 C   0  0  0  0  0  2  0  0  0  0  0  0
  162.8200  210.0260  152.9880 O   0  0  0  0  0  0  0  0  0  0  0  0
  160.1040  208.4460  154.2670 C   0  0  0  0  0  2  0  0  0  0  0  0
  160.6950  210.6260  155.4720 C   0  0  0  0  0  0  0  0  0  0  0  0
  162.8560  210.3000  156.5850 C   0  0  0  0  0  2  0  0  0  0  0  0
  160.2970  211.6460  152.5820 C   0  0  0  0  0  2  0  0  0  0  0  0
  159.1920  211.2620  153.5550 C   0  0  2  0  0  3  0  0  0  0  0  0
  161.7930  211.1850  155.9980 C   0  0  0  0  0  3  0  0  0  0  0  0
  161.6840  208.4120  156.2480 C   0  0  0  0  0  2  0  0  0  0  0  0
  160.4830  209.1210  155.5920 C   0  0  2  0  0  3  0  0  0  0  0  0
  161.4360  210.7880  150.5370 C   0  0  0  0  0  2  0  0  0  0  0  0
  162.1900  209.6960  150.0420 O   0  0  0  0  0  0  0  0  0  0  0  0
  161.8730  209.1280  148.8160 C   0  0  0  0  0  3  0  0  0  0  0  0
  162.4190  208.0520  148.4620 O   0  0  0  0  0  0  0  0  0  0  0  0
  160.8690  207.4060  152.2330 O   0  0  0  0  0  0  0  0  0  0  0  0
  162.8720  206.5870  151.4720 O   0  0  0  0  0  0  0  0  0  0  0  0
  161.1590  205.0350  151.6640 N   0  0  0  0  0  1  0  0  0  0  0  0
  161.6740  206.3580  151.7820 C   0  0  0  0  0  0  0  0  0  0  0  0
  157.9220  212.0190  153.2180 C   0  0  0  0  0  2  0  0  0  0  0  0
  158.3050  213.7780  152.9540 S   0  0  0  0  0  0  0  0  0  0  0  0
  156.8930  214.0220  151.8340 C   0  0  0  0  0  2  0  0  0  0  0  0
  157.3860  214.4340  150.4610 C   0  0  1  0  0  3  0  0  0  0  0  0
  158.5900  213.6540  150.1360 N   0  0  0  0  0  0  0  0  0  0  0  0
  157.2910  213.3100  149.5380 C   0  0  0  0  0  2  0  0  0  0  0  0
  160.8060  214.2670  149.3800 C   0  0  0  0  0  1  0  0  0  0  0  0
  159.3190  214.4120  149.1370 C   0  0  0  0  0  2  0  0  0  0  0  0
  1 15  1  6  0  0  0
  1 10  1  0  0  0  0
  1  2  1  0  0  0  0
  2  6  2  0  0  0  0
  2  4  1  0  0  0  0
  4 19  1  6  0  0  0
  4  7  1  0  0  0  0
  5  8  1  0  0  0  0
  8 14  1  0  0  0  0
  8 12  2  0  0  0  0
  9  3  1  0  0  0  0
 10 11  1  0  0  0  0
 11 23  1  6  0  0  0
 11  5  1  0  0  0  0
 12  9  1  0  0  0  0
 13  3  1  0  0  0  0
 14  7  1  6  0  0  0
 14 13  1  0  0  0  0
 16 15  1  0  0  0  0
 17 16  1  0  0  0  0
 18 17  2  0  0  0  0
 20 22  2  0  0  0  0
 21 22  1  0  0  0  0
 22 19  1  0  0  0  0
 24 23  1  0  0  0  0
 25 24  1  0  0  0  0
 26 25  1  1  0  0  0
 27 26  1  0  0  0  0
 28 27  1  0  0  0  0
 28 26  1  0  0  0  0
 30 29  1  0  0  0  0
 30 27  1  0  0  0  0
M  END
>  <MODEL>
1

>  <REMARK>
 VINA RESULT:      -4.7      0.000      0.000
  Name = 
  10 active torsions:
  status: ('A' for Active; 'I' for Inactive)
    1  A    between atoms: C_1  and  C_4
    2  A    between atoms: C_1  and  O_22
    3  A    between atoms: C_2  and  O_22
    4  A    between atoms: C_3  and  S_11
    5  A    between atoms: C_3  and  C_19
    6  A    between atoms: O_6  and  C_8
    7  A    between atoms: O_6  and  C_21
    8  A    between atoms: S_11  and  C_24
    9  A    between atoms: C_20  and  N_28
   10  A    between atoms: C_24  and  C_25
                            x       y       z     vdW  Elec       q    Type
                         _______ _______ _______ _____ _____    ______ ____

>  <TORSDO>
F 10

$$$$
=
 OpenBabel11052422013D

 30 32  0  0  1  0  0  0  0  0999 V2000
  161.8340  208.8090  149.4750 C   0  0  1  0  0  3  0  0  0  0  0  0
  162.1490  207.3600  149.2270 C   0  0  0  0  0  0  0  0  0  0  0  0
  161.8940  203.5880  151.8180 O   0  0  0  0  0  0  0  0  0  0  0  0
  161.0620  206.4060  148.8220 C   0  0  1  0  0  3  0  0  0  0  0  0
  160.9810  207.5790  152.6880 C   0  0  0  0  0  2  0  0  0  0  0  0
  163.2870  206.9430  149.3770 O   0  0  0  0  0  0  0  0  0  0  0  0
  160.0150  206.2370  149.9280 C   0  0  0  0  0  2  0  0  0  0  0  0
  161.4340  206.2920  152.0580 C   0  0  0  0  0  0  0  0  0  0  0  0
  163.0190  204.4230  151.9460 C   0  0  0  0  0  2  0  0  0  0  0  0
  161.9270  209.1360  150.9560 C   0  0  0  0  0  2  0  0  0  0  0  0
  160.6660  208.6560  151.6590 C   0  0  2  0  0  3  0  0  0  0  0  0
  162.5930  205.7650  152.4740 C   0  0  0  0  0  3  0  0  0  0  0  0
  161.1320  204.1210  150.7620 C   0  0  0  0  0  2  0  0  0  0  0  0
  160.5100  205.4730  151.1630 C   0  0  2  0  0  3  0  0  0  0  0  0
  162.7470  209.7210  148.6750 C   0  0  0  0  0  2  0  0  0  0  0  0
  162.0210  210.8500  148.2240 O   0  0  0  0  0  0  0  0  0  0  0  0
  162.4660  212.1300  148.5210 C   0  0  0  0  0  3  0  0  0  0  0  0
  163.4340  212.6210  147.8860 O   0  0  0  0  0  0  0  0  0  0  0  0
  160.4210  206.8650  147.6380 O   0  0  0  0  0  0  0  0  0  0  0  0
  159.8660  206.3060  145.4840 O   0  0  0  0  0  0  0  0  0  0  0  0
  162.0920  206.0010  146.0600 N   0  0  0  0  0  1  0  0  0  0  0  0
  160.7570  206.3910  146.3680 C   0  0  0  0  0  0  0  0  0  0  0  0
  159.9690  209.8260  152.3250 C   0  0  0  0  0  2  0  0  0  0  0  0
  161.1140  210.6540  153.4710 S   0  0  0  0  0  0  0  0  0  0  0  0
  159.9170  210.6390  154.8390 C   0  0  0  0  0  2  0  0  0  0  0  0
  160.5740  210.1030  156.0950 C   0  0  1  0  0  3  0  0  0  0  0  0
  161.3640  208.9130  155.7460 N   0  0  0  0  0  0  0  0  0  0  0  0
  162.0240  210.2050  155.9840 C   0  0  0  0  0  2  0  0  0  0  0  0
  160.3460  207.1860  157.1040 C   0  0  0  0  0  1  0  0  0  0  0  0
  161.5130  208.1400  156.9650 C   0  0  0  0  0  2  0  0  0  0  0  0
  1 15  1  6  0  0  0
  1 10  1  0  0  0  0
  2  6  2  0  0  0  0
  2  1  1  0  0  0  0
  3  9  1  0  0  0  0
  4 19  1  6  0  0  0
  4  2  1  0  0  0  0
  4  7  1  0  0  0  0
  8 12  2  0  0  0  0
  8  5  1  0  0  0  0
  9 12  1  0  0  0  0
 10 11  1  0  0  0  0
 11 23  1  1  0  0  0
 11  5  1  0  0  0  0
 13 14  1  0  0  0  0
 13  3  1  0  0  0  0
 14  7  1  6  0  0  0
 14  8  1  0  0  0  0
 16 17  1  0  0  0  0
 16 15  1  0  0  0  0
 18 17  2  0  0  0  0
 20 22  2  0  0  0  0
 21 22  1  0  0  0  0
 22 19  1  0  0  0  0
 23 24  1  0  0  0  0
 24 25  1  0  0  0  0
 26 25  1  6  0  0  0
 27 28  1  0  0  0  0
 27 26  1  0  0  0  0
 27 30  1  0  0  0  0
 28 26  1  0  0  0  0
 30 29  1  0  0  0  0
M  END
>  <MODEL>
2

>  <REMARK>
 VINA RESULT:      -4.1      3.485      5.937
  Name = 
  10 active torsions:
  status: ('A' for Active; 'I' for Inactive)
    1  A    between atoms: C_1  and  C_4
    2  A    between atoms: C_1  and  O_22
    3  A    between atoms: C_2  and  O_22
    4  A    between atoms: C_3  and  S_11
    5  A    between atoms: C_3  and  C_19
    6  A    between atoms: O_6  and  C_8
    7  A    between atoms: O_6  and  C_21
    8  A    between atoms: S_11  and  C_24
    9  A    between atoms: C_20  and  N_28
   10  A    between atoms: C_24  and  C_25
                            x       y       z     vdW  Elec       q    Type
                         _______ _______ _______ _____ _____    ______ ____

>  <TORSDO>
F 10

$$$$
=
 OpenBabel11052422013D

 30 32  0  0  1  0  0  0  0  0999 V2000
  161.0480  210.5080  151.5020 C   0  0  1  0  0  3  0  0  0  0  0  0
  161.9150  209.6780  152.4060 C   0  0  0  0  0  0  0  0  0  0  0  0
  162.0370  209.0380  156.9430 O   0  0  0  0  0  0  0  0  0  0  0  0
  161.4650  208.3160  152.8500 C   0  0  1  0  0  3  0  0  0  0  0  0
  159.5390  211.4210  154.5760 C   0  0  0  0  0  2  0  0  0  0  0  0
  162.9830  210.1160  152.8080 O   0  0  0  0  0  0  0  0  0  0  0  0
  160.2090  208.3910  153.7240 C   0  0  0  0  0  2  0  0  0  0  0  0
  160.6120  210.5100  155.1040 C   0  0  0  0  0  0  0  0  0  0  0  0
  162.6660  210.1750  156.4020 C   0  0  0  0  0  2  0  0  0  0  0  0
  160.4590  211.6910  152.2520 C   0  0  0  0  0  2  0  0  0  0  0  0
  159.2790  211.2200  153.0890 C   0  0  2  0  0  3  0  0  0  0  0  0
  161.6360  211.0650  155.7650 C   0  0  0  0  0  3  0  0  0  0  0  0
  161.5920  208.2800  155.8450 C   0  0  0  0  0  2  0  0  0  0  0  0
  160.4380  208.9950  155.1170 C   0  0  2  0  0  3  0  0  0  0  0  0
  161.8160  210.9870  150.2820 C   0  0  0  0  0  2  0  0  0  0  0  0
  161.2460  212.1910  149.8000 O   0  0  0  0  0  0  0  0  0  0  0  0
  161.3590  212.5280  148.4580 C   0  0  0  0  0  3  0  0  0  0  0  0
  161.1070  213.7010  148.0830 O   0  0  0  0  0  0  0  0  0  0  0  0
  161.1970  207.4950  151.7190 O   0  0  0  0  0  0  0  0  0  0  0  0
  161.7680  205.5430  152.7810 O   0  0  0  0  0  0  0  0  0  0  0  0
  160.8190  205.3040  150.6770 N   0  0  0  0  0  1  0  0  0  0  0  0
  161.2790  206.1010  151.7650 C   0  0  0  0  0  0  0  0  0  0  0  0
  158.0240  211.9620  152.6740 C   0  0  0  0  0  2  0  0  0  0  0  0
  158.4590  213.6260  152.0820 S   0  0  0  0  0  0  0  0  0  0  0  0
  157.4850  214.4520  153.3760 C   0  0  0  0  0  2  0  0  0  0  0  0
  156.4840  213.4820  153.9700 C   0  0  1  0  0  3  0  0  0  0  0  0
  156.2940  213.8070  155.3910 N   0  0  0  0  0  0  0  0  0  0  0  0
  155.2860  214.1960  154.3930 C   0  0  0  0  0  2  0  0  0  0  0  0
  156.8950  211.9970  156.8830 C   0  0  0  0  0  1  0  0  0  0  0  0
  155.8000  212.6010  156.0300 C   0  0  0  0  0  2  0  0  0  0  0  0
  1 15  1  6  0  0  0
  1 10  1  0  0  0  0
  1  2  1  0  0  0  0
  2  6  2  0  0  0  0
  2  4  1  0  0  0  0
  4 19  1  6  0  0  0
  4  7  1  0  0  0  0
  5  8  1  0  0  0  0
  8 14  1  0  0  0  0
  8 12  2  0  0  0  0
  9  3  1  0  0  0  0
 10 11  1  0  0  0  0
 11 23  1  6  0  0  0
 11  5  1  0  0  0  0
 12  9  1  0  0  0  0
 13  3  1  0  0  0  0
 14  7  1  6  0  0  0
 14 13  1  0  0  0  0
 16 15  1  0  0  0  0
 17 16  1  0  0  0  0
 18 17  2  0  0  0  0
 19 22  1  0  0  0  0
 21 22  1  0  0  0  0
 22 20  2  0  0  0  0
 24 23  1  0  0  0  0
 24 25  1  0  0  0  0
 26 25  1  6  0  0  0
 26 28  1  0  0  0  0
 26 27  1  0  0  0  0
 27 30  1  0  0  0  0
 28 27  1  0  0  0  0
 30 29  1  0  0  0  0
M  END
>  <MODEL>
3

>  <REMARK>
 VINA RESULT:      -3.9      1.963      3.059
  Name = 
  10 active torsions:
  status: ('A' for Active; 'I' for Inactive)
    1  A    between atoms: C_1  and  C_4
    2  A    between atoms: C_1  and  O_22
    3  A    between atoms: C_2  and  O_22
    4  A    between atoms: C_3  and  S_11
    5  A    between atoms: C_3  and  C_19
    6  A    between atoms: O_6  and  C_8
    7  A    between atoms: O_6  and  C_21
    8  A    between atoms: S_11  and  C_24
    9  A    between atoms: C_20  and  N_28
   10  A    between atoms: C_24  and  C_25
                            x       y       z     vdW  Elec       q    Type
                         _______ _______ _______ _____ _____    ______ ____

>  <TORSDO>
F 10

$$$$
=
 OpenBabel11052422013D

 30 32  0  0  1  0  0  0  0  0999 V2000
  160.5270  210.8400  153.3970 C   0  0  1  0  0  3  0  0  0  0  0  0
  160.2950  211.0530  154.8660 C   0  0  0  0  0  0  0  0  0  0  0  0
  157.7770  214.0430  157.2610 O   0  0  0  0  0  0  0  0  0  0  0  0
  159.0970  210.4500  155.5410 C   0  0  1  0  0  3  0  0  0  0  0  0
  158.3200  213.6010  153.1340 C   0  0  0  0  0  2  0  0  0  0  0  0
  161.0660  211.7410  155.5190 O   0  0  0  0  0  0  0  0  0  0  0  0
  157.7870  211.0370  155.0040 C   0  0  0  0  0  2  0  0  0  0  0  0
  158.3880  213.4980  154.6320 C   0  0  0  0  0  0  0  0  0  0  0  0
  159.0440  214.4410  156.7990 C   0  0  0  0  0  2  0  0  0  0  0  0
  160.2880  212.1230  152.6200 C   0  0  0  0  0  2  0  0  0  0  0  0
  158.7920  212.3310  152.4370 C   0  0  2  0  0  3  0  0  0  0  0  0
  159.0530  214.4530  155.2960 C   0  0  0  0  0  3  0  0  0  0  0  0
  157.6520  212.6810  156.9290 C   0  0  0  0  0  2  0  0  0  0  0  0
  157.5340  212.4980  155.4030 C   0  0  2  0  0  3  0  0  0  0  0  0
  161.9250  210.3120  153.1260 C   0  0  0  0  0  2  0  0  0  0  0  0
  161.8640  208.9310  152.8150 O   0  0  0  0  0  0  0  0  0  0  0  0
  161.0220  208.4800  151.8090 C   0  0  0  0  0  3  0  0  0  0  0  0
  160.6460  207.2800  151.7980 O   0  0  0  0  0  0  0  0  0  0  0  0
  159.0870  209.0400  155.3540 O   0  0  0  0  0  0  0  0  0  0  0  0
  160.3620  207.1340  155.3770 O   0  0  0  0  0  0  0  0  0  0  0  0
  160.5790  208.5110  157.2310 N   0  0  0  0  0  1  0  0  0  0  0  0
  160.0170  208.1930  155.9610 C   0  0  0  0  0  0  0  0  0  0  0  0
  158.4550  212.3910  150.9610 C   0  0  0  0  0  2  0  0  0  0  0  0
  158.0060  214.0920  150.4990 S   0  0  0  0  0  0  0  0  0  0  0  0
  158.7570  213.9520  148.8490 C   0  0  0  0  0  2  0  0  0  0  0  0
  160.2680  213.9310  148.9690 C   0  0  1  0  0  3  0  0  0  0  0  0
  160.8090  212.9880  147.9790 N   0  0  0  0  0  0  0  0  0  0  0  0
  160.8730  214.4380  147.7430 C   0  0  0  0  0  2  0  0  0  0  0  0
  162.0800  211.1330  148.8750 C   0  0  0  0  0  1  0  0  0  0  0  0
  162.1180  212.5880  148.4590 C   0  0  0  0  0  2  0  0  0  0  0  0
  1 15  1  1  0  0  0
  1  2  1  0  0  0  0
  2  6  2  0  0  0  0
  2  4  1  0  0  0  0
  4 19  1  6  0  0  0
  5  8  1  0  0  0  0
  7  4  1  0  0  0  0
  8 12  2  0  0  0  0
  8 14  1  0  0  0  0
  9  3  1  0  0  0  0
 10  1  1  0  0  0  0
 11 23  1  6  0  0  0
 11 10  1  0  0  0  0
 11  5  1  0  0  0  0
 12  9  1  0  0  0  0
 13  3  1  0  0  0  0
 14  7  1  1  0  0  0
 14 13  1  0  0  0  0
 16 15  1  0  0  0  0
 17 16  1  0  0  0  0
 18 17  2  0  0  0  0
 19 22  1  0  0  0  0
 20 22  2  0  0  0  0
 22 21  1  0  0  0  0
 24 23  1  0  0  0  0
 25 24  1  0  0  0  0
 26 25  1  6  0  0  0
 27 30  1  0  0  0  0
 27 26  1  0  0  0  0
 28 27  1  0  0  0  0
 28 26  1  0  0  0  0
 30 29  1  0  0  0  0
M  END
>  <MODEL>
4

>  <REMARK>
 VINA RESULT:      -3.7      2.658      3.902
  Name = 
  10 active torsions:
  status: ('A' for Active; 'I' for Inactive)
    1  A    between atoms: C_1  and  C_4
    2  A    between atoms: C_1  and  O_22
    3  A    between atoms: C_2  and  O_22
    4  A    between atoms: C_3  and  S_11
    5  A    between atoms: C_3  and  C_19
    6  A    between atoms: O_6  and  C_8
    7  A    between atoms: O_6  and  C_21
    8  A    between atoms: S_11  and  C_24
    9  A    between atoms: C_20  and  N_28
   10  A    between atoms: C_24  and  C_25
                            x       y       z     vdW  Elec       q    Type
                         _______ _______ _______ _____ _____    ______ ____

>  <TORSDO>
F 10

$$$$
=
 OpenBabel11052422013D

 30 32  0  0  1  0  0  0  0  0999 V2000
  161.8820  208.8280  149.4710 C   0  0  1  0  0  3  0  0  0  0  0  0
  162.2130  207.3800  149.2440 C   0  0  0  0  0  0  0  0  0  0  0  0
  161.9620  203.6380  151.8800 O   0  0  0  0  0  0  0  0  0  0  0  0
  161.1400  206.4100  148.8390 C   0  0  1  0  0  3  0  0  0  0  0  0
  161.0030  207.6320  152.6880 C   0  0  0  0  0  2  0  0  0  0  0  0
  163.3530  206.9740  149.4130 O   0  0  0  0  0  0  0  0  0  0  0  0
  160.0810  206.2460  149.9340 C   0  0  0  0  0  2  0  0  0  0  0  0
  161.4750  206.3400  152.0800 C   0  0  0  0  0  0  0  0  0  0  0  0
  163.0770  204.4850  152.0100 C   0  0  0  0  0  2  0  0  0  0  0  0
  161.9550  209.1750  150.9480 C   0  0  0  0  0  2  0  0  0  0  0  0
  160.6900  208.6920  151.6420 C   0  0  2  0  0  3  0  0  0  0  0  0
  162.6330  205.8290  152.5160 C   0  0  0  0  0  3  0  0  0  0  0  0
  161.2070  204.1510  150.8080 C   0  0  0  0  0  2  0  0  0  0  0  0
  160.5690  205.5010  151.1850 C   0  0  2  0  0  3  0  0  0  0  0  0
  162.7970  209.7380  148.6700 C   0  0  0  0  0  2  0  0  0  0  0  0
  162.1230  210.9470  148.3670 O   0  0  0  0  0  0  0  0  0  0  0  0
  162.8460  212.1090  148.1360 C   0  0  0  0  0  3  0  0  0  0  0  0
  162.3940  212.9850  147.3550 O   0  0  0  0  0  0  0  0  0  0  0  0
  160.5090  206.8490  147.6420 O   0  0  0  0  0  0  0  0  0  0  0  0
  159.8840  206.2030  145.5320 O   0  0  0  0  0  0  0  0  0  0  0  0
  162.1060  205.8290  146.0810 N   0  0  0  0  0  1  0  0  0  0  0  0
  160.7960  206.2940  146.3930 C   0  0  0  0  0  0  0  0  0  0  0  0
  159.9750  209.8640  152.2850 C   0  0  0  0  0  2  0  0  0  0  0  0
  161.0620  210.6510  153.5130 S   0  0  0  0  0  0  0  0  0  0  0  0
  160.0770  212.1790  153.5570 C   0  0  0  0  0  2  0  0  0  0  0  0
  158.6060  211.8510  153.3980 C   0  0  1  0  0  3  0  0  0  0  0  0
  157.8580  212.4850  154.4940 N   0  0  0  0  0  0  0  0  0  0  0  0
  157.8470  213.0690  153.1440 C   0  0  0  0  0  2  0  0  0  0  0  0
  156.3530  211.4800  156.1020 C   0  0  0  0  0  1  0  0  0  0  0  0
  156.6190  211.7430  154.6360 C   0  0  0  0  0  2  0  0  0  0  0  0
  1 15  1  6  0  0  0
  1 10  1  0  0  0  0
  2  6  2  0  0  0  0
  2  1  1  0  0  0  0
  3  9  1  0  0  0  0
  4 19  1  6  0  0  0
  4  2  1  0  0  0  0
  4  7  1  0  0  0  0
  8 12  2  0  0  0  0
  8  5  1  0  0  0  0
  9 12  1  0  0  0  0
 10 11  1  0  0  0  0
 11 23  1  1  0  0  0
 11  5  1  0  0  0  0
 13 14  1  0  0  0  0
 13  3  1  0  0  0  0
 14  7  1  6  0  0  0
 14  8  1  0  0  0  0
 16 15  1  0  0  0  0
 17 16  1  0  0  0  0
 18 17  2  0  0  0  0
 20 22  2  0  0  0  0
 21 22  1  0  0  0  0
 22 19  1  0  0  0  0
 23 24  1  0  0  0  0
 24 25  1  0  0  0  0
 26 25  1  1  0  0  0
 26 27  1  0  0  0  0
 27 30  1  0  0  0  0
 28 26  1  0  0  0  0
 28 27  1  0  0  0  0
 30 29  1  0  0  0  0
M  END
>  <MODEL>
5

>  <REMARK>
 VINA RESULT:      -3.5      3.238      5.155
  Name = 
  10 active torsions:
  status: ('A' for Active; 'I' for Inactive)
    1  A    between atoms: C_1  and  C_4
    2  A    between atoms: C_1  and  O_22
    3  A    between atoms: C_2  and  O_22
    4  A    between atoms: C_3  and  S_11
    5  A    between atoms: C_3  and  C_19
    6  A    between atoms: O_6  and  C_8
    7  A    between atoms: O_6  and  C_21
    8  A    between atoms: S_11  and  C_24
    9  A    between atoms: C_20  and  N_28
   10  A    between atoms: C_24  and  C_25
                            x       y       z     vdW  Elec       q    Type
                         _______ _______ _______ _____ _____    ______ ____

>  <TORSDO>
F 10

$$$$
=
 OpenBabel11052422013D

 30 32  0  0  1  0  0  0  0  0999 V2000
  160.1030  212.3040  150.8730 C   0  0  1  0  0  3  0  0  0  0  0  0
  160.0850  213.4130  149.8590 C   0  0  0  0  0  0  0  0  0  0  0  0
  162.3350  214.1300  145.9300 O   0  0  0  0  0  0  0  0  0  0  0  0
  159.2300  213.3030  148.6290 C   0  0  1  0  0  3  0  0  0  0  0  0
  162.5240  210.9620  148.6590 C   0  0  0  0  0  2  0  0  0  0  0  0
  160.7850  214.4010  150.0150 O   0  0  0  0  0  0  0  0  0  0  0  0
  159.6860  212.1550  147.7220 C   0  0  0  0  0  2  0  0  0  0  0  0
  162.2360  212.2490  147.9380 C   0  0  0  0  0  0  0  0  0  0  0  0
  162.9710  214.4500  147.1440 C   0  0  0  0  0  2  0  0  0  0  0  0
  161.4290  211.5630  150.8410 C   0  0  0  0  0  2  0  0  0  0  0  0
  161.4400  210.5980  149.6640 C   0  0  2  0  0  3  0  0  0  0  0  0
  163.1810  213.1980  147.9480 C   0  0  0  0  0  3  0  0  0  0  0  0
  161.0250  213.7420  146.2690 C   0  0  0  0  0  2  0  0  0  0  0  0
  161.0290  212.3960  147.0180 C   0  0  2  0  0  3  0  0  0  0  0  0
  159.8250  212.8250  152.2720 C   0  0  0  0  0  2  0  0  0  0  0  0
  159.0170  211.8990  152.9770 O   0  0  0  0  0  0  0  0  0  0  0  0
  159.5230  211.2330  154.0840 C   0  0  0  0  0  3  0  0  0  0  0  0
  160.7240  211.3980  154.4210 O   0  0  0  0  0  0  0  0  0  0  0  0
  157.8700  213.0970  148.9940 O   0  0  0  0  0  0  0  0  0  0  0  0
  156.9040  214.3120  147.3050 O   0  0  0  0  0  0  0  0  0  0  0  0
  155.6830  214.1760  149.2730 N   0  0  0  0  0  1  0  0  0  0  0  0
  156.8280  213.8730  148.4820 C   0  0  0  0  0  0  0  0  0  0  0  0
  161.6440  209.1800  150.1610 C   0  0  0  0  0  2  0  0  0  0  0  0
  161.9710  208.0750  148.7540 S   0  0  0  0  0  0  0  0  0  0  0  0
  160.9500  206.7350  149.4380 C   0  0  0  0  0  2  0  0  0  0  0  0
  160.6690  205.7000  148.3670 C   0  0  1  0  0  3  0  0  0  0  0  0
  161.9350  205.0550  147.9870 N   0  0  0  0  0  0  0  0  0  0  0  0
  160.9780  204.3670  148.8670 C   0  0  0  0  0  2  0  0  0  0  0  0
  163.0060  204.6930  145.8470 C   0  0  0  0  0  1  0  0  0  0  0  0
  161.7400  204.5100  146.6560 C   0  0  0  0  0  2  0  0  0  0  0  0
  1 15  1  1  0  0  0
  2  6  2  0  0  0  0
  2  1  1  0  0  0  0
  3 13  1  0  0  0  0
  3  9  1  0  0  0  0
  4 19  1  1  0  0  0
  4  2  1  0  0  0  0
  5 11  1  0  0  0  0
  7  4  1  0  0  0  0
  8 12  2  0  0  0  0
  8  5  1  0  0  0  0
  9 12  1  0  0  0  0
 10  1  1  0  0  0  0
 11 23  1  1  0  0  0
 11 10  1  0  0  0  0
 14 13  1  1  0  0  0
 14  7  1  0  0  0  0
 14  8  1  0  0  0  0
 15 16  1  0  0  0  0
 16 17  1  0  0  0  0
 17 18  2  0  0  0  0
 20 22  2  0  0  0  0
 22 19  1  0  0  0  0
 22 21  1  0  0  0  0
 24 25  1  0  0  0  0
 24 23  1  0  0  0  0
 26 28  1  0  0  0  0
 26 25  1  1  0  0  0
 27 26  1  0  0  0  0
 27 28  1  0  0  0  0
 29 30  1  0  0  0  0
 30 27  1  0  0  0  0
M  END
>  <MODEL>
6

>  <REMARK>
 VINA RESULT:      -3.5      3.745      8.181
  Name = 
  10 active torsions:
  status: ('A' for Active; 'I' for Inactive)
    1  A    between atoms: C_1  and  C_4
    2  A    between atoms: C_1  and  O_22
    3  A    between atoms: C_2  and  O_22
    4  A    between atoms: C_3  and  S_11
    5  A    between atoms: C_3  and  C_19
    6  A    between atoms: O_6  and  C_8
    7  A    between atoms: O_6  and  C_21
    8  A    between atoms: S_11  and  C_24
    9  A    between atoms: C_20  and  N_28
   10  A    between atoms: C_24  and  C_25
                            x       y       z     vdW  Elec       q    Type
                         _______ _______ _______ _____ _____    ______ ____

>  <TORSDO>
F 10

$$$$
=
 OpenBabel11052422013D

 30 32  0  0  1  0  0  0  0  0999 V2000
  160.3600  210.5640  153.4540 C   0  0  1  0  0  3  0  0  0  0  0  0
  159.0870  211.3530  153.5790 C   0  0  0  0  0  0  0  0  0  0  0  0
  156.9200  213.3030  157.1160 O   0  0  0  0  0  0  0  0  0  0  0  0
  159.1220  212.8550  153.5730 C   0  0  1  0  0  3  0  0  0  0  0  0
  160.4810  211.1100  156.9540 C   0  0  0  0  0  2  0  0  0  0  0  0
  158.0170  210.7800  153.7130 O   0  0  0  0  0  0  0  0  0  0  0  0
  159.8690  213.4100  154.7890 C   0  0  0  0  0  2  0  0  0  0  0  0
  159.1790  211.7990  156.6550 C   0  0  0  0  0  0  0  0  0  0  0  0
  156.7410  211.9270  156.8870 C   0  0  0  0  0  2  0  0  0  0  0  0
  160.7080  209.8870  154.7690 C   0  0  0  0  0  2  0  0  0  0  0  0
  161.3350  210.9060  155.7100 C   0  0  2  0  0  3  0  0  0  0  0  0
  158.0490  211.2110  157.0700 C   0  0  0  0  0  3  0  0  0  0  0  0
  157.6980  213.7780  156.0440 C   0  0  0  0  0  2  0  0  0  0  0  0
  159.1350  213.2280  156.1250 C   0  0  2  0  0  3  0  0  0  0  0  0
  160.2680  209.5350  152.3410 C   0  0  0  0  0  2  0  0  0  0  0  0
  161.5310  208.9210  152.1510 O   0  0  0  0  0  0  0  0  0  0  0  0
  162.2070  209.0720  150.9490 C   0  0  0  0  0  3  0  0  0  0  0  0
  161.8760  208.3810  149.9520 O   0  0  0  0  0  0  0  0  0  0  0  0
  159.7480  213.3260  152.3850 O   0  0  0  0  0  0  0  0  0  0  0  0
  159.7400  213.4630  150.0960 O   0  0  0  0  0  0  0  0  0  0  0  0
  157.6540  213.4420  151.1090 N   0  0  0  0  0  1  0  0  0  0  0  0
  159.0770  213.4110  151.1630 C   0  0  0  0  0  0  0  0  0  0  0  0
  162.7290  210.4560  156.1020 C   0  0  0  0  0  2  0  0  0  0  0  0
  163.4600  211.6540  157.2590 S   0  0  0  0  0  0  0  0  0  0  0  0
  164.9780  211.8330  156.2750 C   0  0  0  0  0  2  0  0  0  0  0  0
  166.0770  212.4380  157.1240 C   0  0  1  0  0  3  0  0  0  0  0  0
  167.2670  212.6430  156.2840 N   0  0  0  0  0  0  0  0  0  0  0  0
  166.4000  213.7760  156.6440 C   0  0  0  0  0  2  0  0  0  0  0  0
  169.3130  211.5110  156.9090 C   0  0  0  0  0  1  0  0  0  0  0  0
  168.4060  212.6910  157.1820 C   0  0  0  0  0  2  0  0  0  0  0  0
  1 15  1  6  0  0  0
  1  2  1  0  0  0  0
  1 10  1  0  0  0  0
  2  6  2  0  0  0  0
  4 19  1  6  0  0  0
  4  2  1  0  0  0  0
  4  7  1  0  0  0  0
  8  5  1  0  0  0  0
  8 12  2  0  0  0  0
  9 12  1  0  0  0  0
  9  3  1  0  0  0  0
 10 11  1  0  0  0  0
 11 23  1  1  0  0  0
 11  5  1  0  0  0  0
 13 14  1  0  0  0  0
 13  3  1  0  0  0  0
 14  7  1  6  0  0  0
 14  8  1  0  0  0  0
 16 15  1  0  0  0  0
 17 16  1  0  0  0  0
 18 17  2  0  0  0  0
 20 22  2  0  0  0  0
 21 22  1  0  0  0  0
 22 19  1  0  0  0  0
 23 24  1  0  0  0  0
 25 24  1  0  0  0  0
 26 25  1  6  0  0  0
 27 28  1  0  0  0  0
 27 26  1  0  0  0  0
 27 30  1  0  0  0  0
 28 26  1  0  0  0  0
 29 30  1  0  0  0  0
M  END
>  <MODEL>
7

>  <REMARK>
 VINA RESULT:      -2.8      3.924      6.748
  Name = 
  10 active torsions:
  status: ('A' for Active; 'I' for Inactive)
    1  A    between atoms: C_1  and  C_4
    2  A    between atoms: C_1  and  O_22
    3  A    between atoms: C_2  and  O_22
    4  A    between atoms: C_3  and  S_11
    5  A    between atoms: C_3  and  C_19
    6  A    between atoms: O_6  and  C_8
    7  A    between atoms: O_6  and  C_21
    8  A    between atoms: S_11  and  C_24
    9  A    between atoms: C_20  and  N_28
   10  A    between atoms: C_24  and  C_25
                            x       y       z     vdW  Elec       q    Type
                         _______ _______ _______ _____ _____    ______ ____

>  <TORSDO>
F 10

$$$$
=
 OpenBabel11052422013D

 30 32  0  0  1  0  0  0  0  0999 V2000
  161.8320  208.4410  149.4350 C   0  0  1  0  0  3  0  0  0  0  0  0
  162.1180  206.9860  149.1880 C   0  0  0  0  0  0  0  0  0  0  0  0
  161.9670  203.2470  151.8350 O   0  0  0  0  0  0  0  0  0  0  0  0
  161.0000  206.0390  148.8560 C   0  0  1  0  0  3  0  0  0  0  0  0
  161.1460  207.2580  152.7050 C   0  0  0  0  0  2  0  0  0  0  0  0
  163.2580  206.5580  149.2800 O   0  0  0  0  0  0  0  0  0  0  0  0
  160.0140  205.8950  150.0190 C   0  0  0  0  0  2  0  0  0  0  0  0
  161.5490  205.9580  152.0670 C   0  0  0  0  0  0  0  0  0  0  0  0
  163.1060  204.0710  151.8900 C   0  0  0  0  0  2  0  0  0  0  0  0
  162.0100  208.7840  150.9050 C   0  0  0  0  0  2  0  0  0  0  0  0
  160.7850  208.3260  151.6820 C   0  0  2  0  0  3  0  0  0  0  0  0
  162.7240  205.4230  152.4240 C   0  0  0  0  0  3  0  0  0  0  0  0
  161.1530  203.7760  150.8160 C   0  0  0  0  0  2  0  0  0  0  0  0
  160.5690  205.1390  151.2350 C   0  0  2  0  0  3  0  0  0  0  0  0
  162.7090  209.3330  148.5750 C   0  0  0  0  0  2  0  0  0  0  0  0
  161.9870  210.4920  148.1960 O   0  0  0  0  0  0  0  0  0  0  0  0
  162.3610  211.7370  148.6820 C   0  0  0  0  0  3  0  0  0  0  0  0
  162.5630  212.6870  147.8840 O   0  0  0  0  0  0  0  0  0  0  0  0
  160.2990  206.4920  147.7030 O   0  0  0  0  0  0  0  0  0  0  0  0
  160.1060  206.6200  145.4210 O   0  0  0  0  0  0  0  0  0  0  0  0
  161.3690  204.8480  146.2260 N   0  0  0  0  0  1  0  0  0  0  0  0
  160.5730  206.0130  146.4200 C   0  0  0  0  0  0  0  0  0  0  0  0
  160.1380  209.5120  152.3710 C   0  0  0  0  0  2  0  0  0  0  0  0
  161.3030  210.2440  153.5610 S   0  0  0  0  0  0  0  0  0  0  0  0
  160.0080  210.5430  154.8010 C   0  0  0  0  0  2  0  0  0  0  0  0
  160.2770  211.8460  155.5260 C   0  0  1  0  0  3  0  0  0  0  0  0
  159.6150  211.8030  156.8390 N   0  0  0  0  0  0  0  0  0  0  0  0
  161.0670  211.5970  156.7250 C   0  0  0  0  0  2  0  0  0  0  0  0
  158.0630  213.6600  156.7950 C   0  0  0  0  0  1  0  0  0  0  0  0
  159.4230  213.1800  157.2530 C   0  0  0  0  0  2  0  0  0  0  0  0
  1 15  1  6  0  0  0
  1 10  1  0  0  0  0
  2  6  2  0  0  0  0
  2  1  1  0  0  0  0
  3  9  1  0  0  0  0
  4 19  1  6  0  0  0
  4  2  1  0  0  0  0
  4  7  1  0  0  0  0
  8 12  2  0  0  0  0
  8  5  1  0  0  0  0
  9 12  1  0  0  0  0
 10 11  1  0  0  0  0
 11 23  1  1  0  0  0
 11  5  1  0  0  0  0
 13 14  1  0  0  0  0
 13  3  1  0  0  0  0
 14  7  1  6  0  0  0
 14  8  1  0  0  0  0
 16 15  1  0  0  0  0
 16 17  1  0  0  0  0
 18 17  2  0  0  0  0
 20 22  2  0  0  0  0
 21 22  1  0  0  0  0
 22 19  1  0  0  0  0
 23 24  1  0  0  0  0
 24 25  1  0  0  0  0
 26 25  1  6  0  0  0
 26 28  1  0  0  0  0
 26 27  1  0  0  0  0
 27 30  1  0  0  0  0
 28 27  1  0  0  0  0
 29 30  1  0  0  0  0
M  END
>  <MODEL>
8

>  <REMARK>
 VINA RESULT:      -2.7      3.587      5.695
  Name = 
  10 active torsions:
  status: ('A' for Active; 'I' for Inactive)
    1  A    between atoms: C_1  and  C_4
    2  A    between atoms: C_1  and  O_22
    3  A    between atoms: C_2  and  O_22
    4  A    between atoms: C_3  and  S_11
    5  A    between atoms: C_3  and  C_19
    6  A    between atoms: O_6  and  C_8
    7  A    between atoms: O_6  and  C_21
    8  A    between atoms: S_11  and  C_24
    9  A    between atoms: C_20  and  N_28
   10  A    between atoms: C_24  and  C_25
                            x       y       z     vdW  Elec       q    Type
                         _______ _______ _______ _____ _____    ______ ____

>  <TORSDO>
F 10

$$$$
=
 OpenBabel11052422013D

 30 32  0  0  1  0  0  0  0  0999 V2000
  160.9110  204.6700  149.8690 C   0  0  1  0  0  3  0  0  0  0  0  0
  160.6680  203.9970  148.5480 C   0  0  0  0  0  0  0  0  0  0  0  0
  161.2430  205.3010  144.1910 O   0  0  0  0  0  0  0  0  0  0  0  0
  161.7890  203.2950  147.8360 C   0  0  1  0  0  3  0  0  0  0  0  0
  161.9660  207.3310  147.7800 C   0  0  0  0  0  2  0  0  0  0  0  0
  159.5620  204.0370  148.0300 O   0  0  0  0  0  0  0  0  0  0  0  0
  162.8890  204.2710  147.4090 C   0  0  0  0  0  2  0  0  0  0  0  0
  161.5600  206.3470  146.7180 C   0  0  0  0  0  0  0  0  0  0  0  0
  160.0790  205.7040  144.8710 C   0  0  0  0  0  2  0  0  0  0  0  0
  160.8620  206.1820  149.7240 C   0  0  0  0  0  2  0  0  0  0  0  0
  162.1770  206.6750  149.1370 C   0  0  2  0  0  3  0  0  0  0  0  0
  160.4510  206.6080  146.0130 C   0  0  0  0  0  3  0  0  0  0  0  0
  161.9290  204.4420  145.0700 C   0  0  0  0  0  2  0  0  0  0  0  0
  162.4900  205.2240  146.2730 C   0  0  2  0  0  3  0  0  0  0  0  0
  159.9150  204.2090  150.9190 C   0  0  0  0  0  2  0  0  0  0  0  0
  160.6000  203.8600  152.1090 O   0  0  0  0  0  0  0  0  0  0  0  0
  161.5490  204.7190  152.6450 C   0  0  0  0  0  3  0  0  0  0  0  0
  161.2080  205.5760  153.5000 O   0  0  0  0  0  0  0  0  0  0  0  0
  162.3520  202.2940  148.6760 O   0  0  0  0  0  0  0  0  0  0  0  0
  161.5750  200.2000  148.1580 O   0  0  0  0  0  0  0  0  0  0  0  0
  161.0870  200.9530  150.2970 N   0  0  0  0  0  1  0  0  0  0  0  0
  161.6730  201.1210  149.0090 C   0  0  0  0  0  0  0  0  0  0  0  0
  162.8340  207.6510  150.0920 C   0  0  0  0  0  2  0  0  0  0  0  0
  161.9560  209.2440  150.0460 S   0  0  0  0  0  0  0  0  0  0  0  0
  162.2660  209.5820  151.8060 C   0  0  0  0  0  2  0  0  0  0  0  0
  161.1170  209.0580  152.6430 C   0  0  1  0  0  3  0  0  0  0  0  0
  161.2260  209.6150  154.0000 N   0  0  0  0  0  0  0  0  0  0  0  0
  160.2480  210.1580  153.0440 C   0  0  0  0  0  2  0  0  0  0  0  0
  161.3400  208.4050  156.0930 C   0  0  0  0  0  1  0  0  0  0  0  0
  160.4960  208.7200  154.8770 C   0  0  0  0  0  2  0  0  0  0  0  0
  1 15  1  1  0  0  0
  2  1  1  0  0  0  0
  3  9  1  0  0  0  0
  3 13  1  0  0  0  0
  4  2  1  0  0  0  0
  4 19  1  1  0  0  0
  5 11  1  0  0  0  0
  6  2  2  0  0  0  0
  7  4  1  0  0  0  0
  8  5  1  0  0  0  0
  9 12  1  0  0  0  0
 10  1  1  0  0  0  0
 11 10  1  0  0  0  0
 11 23  1  1  0  0  0
 12  8  2  0  0  0  0
 14 13  1  6  0  0  0
 14  8  1  0  0  0  0
 14  7  1  0  0  0  0
 15 16  1  0  0  0  0
 16 17  1  0  0  0  0
 17 18  2  0  0  0  0
 19 22  1  0  0  0  0
 20 22  2  0  0  0  0
 22 21  1  0  0  0  0
 24 23  1  0  0  0  0
 24 25  1  0  0  0  0
 26 25  1  6  0  0  0
 26 28  1  0  0  0  0
 26 27  1  0  0  0  0
 27 30  1  0  0  0  0
 28 27  1  0  0  0  0
 30 29  1  0  0  0  0
M  END
>  <MODEL>
9

>  <REMARK>
 VINA RESULT:      -2.5      4.080      8.113
  Name = 
  10 active torsions:
  status: ('A' for Active; 'I' for Inactive)
    1  A    between atoms: C_1  and  C_4
    2  A    between atoms: C_1  and  O_22
    3  A    between atoms: C_2  and  O_22
    4  A    between atoms: C_3  and  S_11
    5  A    between atoms: C_3  and  C_19
    6  A    between atoms: O_6  and  C_8
    7  A    between atoms: O_6  and  C_21
    8  A    between atoms: S_11  and  C_24
    9  A    between atoms: C_20  and  N_28
   10  A    between atoms: C_24  and  C_25
                            x       y       z     vdW  Elec       q    Type
                         _______ _______ _______ _____ _____    ______ ____

>  <TORSDO>
F 10

$$$$
