=
 OpenBabel11062410503D

 32 36  0  0  1  0  0  0  0  0999 V2000
  160.8060  205.2890  150.8780 C   0  0  0  0  0  3  0  0  0  0  0  0
  161.7590  210.0360  152.1320 C   0  0  0  0  0  0  0  0  0  0  0  0
  162.0680  209.4630  157.2580 C   0  0  0  0  0  3  0  0  0  0  0  0
  161.5480  210.7540  157.2540 C   0  0  0  0  0  3  0  0  0  0  0  0
  161.5520  207.8640  150.1610 C   0  0  0  0  0  0  0  0  0  0  0  0
  161.4750  208.6120  152.5420 C   0  0  0  0  0  0  0  0  0  0  0  0
  160.9470  206.2600  151.8670 C   0  0  0  0  0  3  0  0  0  0  0  0
  162.0080  208.6860  156.1020 C   0  0  0  0  0  3  0  0  0  0  0  0
  161.3740  208.2950  153.8000 N   0  0  0  0  0  0  0  0  0  0  0  0
  161.4480  209.1900  154.9220 C   0  0  0  0  0  0  0  0  0  0  0  0
  160.2040  211.1040  153.7470 C   0  0  0  0  0  0  0  0  0  0  0  0
  161.6140  207.1190  147.9750 O   0  0  0  0  0  0  0  0  0  0  0  0
  161.4040  206.8560  149.1930 C   0  0  0  0  0  0  0  0  0  0  0  0
  161.3210  207.5600  151.5130 C   0  0  2  0  0  3  0  0  0  0  0  0
  161.9710  209.2230  149.7760 C   0  0  0  0  0  3  0  0  0  0  0  0
  161.0340  205.5930  149.5710 N   0  0  0  0  0  0  0  0  0  0  0  0
  160.9640  211.2660  156.0960 C   0  0  0  0  0  3  0  0  0  0  0  0
  160.9020  210.5060  154.9170 C   0  0  0  0  0  0  0  0  0  0  0  0
  162.0780  210.2050  150.6710 C   0  0  0  0  0  3  0  0  0  0  0  0
  160.5950  210.8900  152.4860 C   0  0  0  0  0  3  0  0  0  0  0  0
  156.6970  211.5510  154.5650 C   0  0  0  0  0  0  0  0  0  0  0  0
  156.1830  212.4930  153.5130 C   0  0  0  0  0  2  0  0  0  0  0  0
  158.5340  212.6800  152.7010 C   0  0  1  0  0  3  0  0  0  0  0  0
  156.7970  214.0990  151.8670 O   0  0  0  0  0  1  0  0  0  0  0  0
  157.2590  213.4510  153.0130 C   0  0  1  0  0  3  0  0  0  0  0  0
  157.9680  211.3060  154.7020 N   0  0  0  0  0  0  0  0  0  0  0  0
  155.7610  210.7940  155.3210 N   0  0  0  0  0  1  0  0  0  0  0  0
  159.5070  213.5560  152.2160 O   0  0  0  0  0  1  0  0  0  0  0  0
  159.0330  212.0180  153.9880 C   0  0  1  0  0  3  0  0  0  0  0  0
  160.8620  204.5360  148.5810 C   0  0  0  0  0  2  0  0  0  0  0  0
  160.8300  203.1810  149.2650 C   0  0  0  0  0  2  0  0  0  0  0  0
  160.8360  202.0880  148.2170 C   0  0  0  0  0  1  0  0  0  0  0  0
  1  7  2  0  0  0  0
  2 20  1  0  0  0  0
  2  6  1  0  0  0  0
  4  3  1  0  0  0  0
  5 14  1  0  0  0  0
  6  9  2  0  0  0  0
  8  3  2  0  0  0  0
  9 10  1  0  0  0  0
 10  8  1  0  0  0  0
 11 18  1  0  0  0  0
 12 13  2  0  0  0  0
 13 16  1  0  0  0  0
 13  5  1  0  0  0  0
 14  7  1  1  0  0  0
 14  6  1  0  0  0  0
 15  5  2  0  0  0  0
 15 19  1  0  0  0  0
 16  1  1  0  0  0  0
 17  4  2  0  0  0  0
 18 10  2  0  0  0  0
 18 17  1  0  0  0  0
 19  2  2  0  0  0  0
 20 11  2  0  0  0  0
 21 26  2  0  0  0  0
 21 27  1  0  0  0  0
 22 21  1  0  0  0  0
 23 28  1  1  0  0  0
 23 25  1  0  0  0  0
 23 29  1  0  0  0  0
 25 24  1  6  0  0  0
 25 22  1  0  0  0  0
 29 11  1  6  0  0  0
 29 26  1  0  0  0  0
 30 31  1  0  0  0  0
 30 16  1  0  0  0  0
 32 31  1  0  0  0  0
M  END
>  <MODEL>
1

>  <REMARK>
 VINA RESULT:      -8.4      0.000      0.000
  Name = 
  3 active torsions:
  status: ('A' for Active; 'I' for Inactive)
    1  A    between atoms: C_1  and  C_10
    2  A    between atoms: C_10  and  N_24
    3  A    between atoms: C_16  and  C_32
                            x       y       z     vdW  Elec       q    Type
                         _______ _______ _______ _____ _____    ______ ____

>  <TORSDO>
F 3

$$$$
=
 OpenBabel11062410503D

 32 36  0  0  1  0  0  0  0  0999 V2000
  160.4400  205.4290  149.3320 C   0  0  0  0  0  3  0  0  0  0  0  0
  161.8420  209.1830  152.3250 C   0  0  0  0  0  0  0  0  0  0  0  0
  160.6480  207.0620  156.8830 C   0  0  0  0  0  3  0  0  0  0  0  0
  160.3850  208.3860  157.2270 C   0  0  0  0  0  3  0  0  0  0  0  0
  161.7950  207.8190  149.7200 C   0  0  0  0  0  0  0  0  0  0  0  0
  161.2100  207.8240  152.1470 C   0  0  0  0  0  0  0  0  0  0  0  0
  160.4770  205.9950  150.6050 C   0  0  0  0  0  3  0  0  0  0  0  0
  160.7650  206.7040  155.5400 C   0  0  0  0  0  3  0  0  0  0  0  0
  160.7190  207.1870  153.1700 N   0  0  0  0  0  0  0  0  0  0  0  0
  160.6430  207.6600  154.5250 C   0  0  0  0  0  0  0  0  0  0  0  0
  160.1220  210.0880  153.8710 C   0  0  0  0  0  0  0  0  0  0  0  0
  162.3120  207.7630  147.4690 O   0  0  0  0  0  0  0  0  0  0  0  0
  161.7370  207.2160  148.4520 C   0  0  0  0  0  0  0  0  0  0  0  0
  161.1570  207.2000  150.8070 C   0  0  2  0  0  3  0  0  0  0  0  0
  162.5350  209.0770  149.9230 C   0  0  0  0  0  3  0  0  0  0  0  0
  161.0620  206.0370  148.2850 N   0  0  0  0  0  0  0  0  0  0  0  0
  160.2360  209.3490  156.2300 C   0  0  0  0  0  3  0  0  0  0  0  0
  160.3610  209.0130  154.8720 C   0  0  0  0  0  0  0  0  0  0  0  0
  162.5690  209.6890  151.1070 C   0  0  0  0  0  3  0  0  0  0  0  0
  160.7960  210.1630  152.7180 C   0  0  0  0  0  3  0  0  0  0  0  0
  158.0320  212.8370  152.7590 C   0  0  0  0  0  0  0  0  0  0  0  0
  158.3040  213.9380  153.7440 C   0  0  0  0  0  2  0  0  0  0  0  0
  159.7070  212.3050  155.0020 C   0  0  1  0  0  3  0  0  0  0  0  0
  159.1630  214.4530  155.9030 O   0  0  0  0  0  1  0  0  0  0  0  0
  158.6640  213.4070  155.1270 C   0  0  1  0  0  3  0  0  0  0  0  0
  158.4690  211.6250  152.9480 N   0  0  0  0  0  0  0  0  0  0  0  0
  157.4190  213.1650  151.5190 N   0  0  0  0  0  1  0  0  0  0  0  0
  160.0550  211.8410  156.2720 O   0  0  0  0  0  1  0  0  0  0  0  0
  159.1110  211.1580  154.1810 C   0  0  1  0  0  3  0  0  0  0  0  0
  160.9790  205.4000  146.9760 C   0  0  0  0  0  2  0  0  0  0  0  0
  161.7130  204.0710  146.9940 C   0  0  0  0  0  2  0  0  0  0  0  0
  161.7330  203.4880  145.5970 C   0  0  0  0  0  1  0  0  0  0  0  0
  1  7  2  0  0  0  0
  2 20  1  0  0  0  0
  3  4  1  0  0  0  0
  5 15  2  0  0  0  0
  5 14  1  0  0  0  0
  6  2  1  0  0  0  0
  6  9  2  0  0  0  0
  8  3  2  0  0  0  0
  9 10  1  0  0  0  0
 10 18  2  0  0  0  0
 10  8  1  0  0  0  0
 11 18  1  0  0  0  0
 12 13  2  0  0  0  0
 13  5  1  0  0  0  0
 14  7  1  1  0  0  0
 14  6  1  0  0  0  0
 15 19  1  0  0  0  0
 16 13  1  0  0  0  0
 16  1  1  0  0  0  0
 17  4  2  0  0  0  0
 18 17  1  0  0  0  0
 19  2  2  0  0  0  0
 20 11  2  0  0  0  0
 21 26  2  0  0  0  0
 21 22  1  0  0  0  0
 22 25  1  0  0  0  0
 23 25  1  0  0  0  0
 23 28  1  1  0  0  0
 25 24  1  1  0  0  0
 26 29  1  0  0  0  0
 27 21  1  0  0  0  0
 29 11  1  6  0  0  0
 29 23  1  0  0  0  0
 30 31  1  0  0  0  0
 30 16  1  0  0  0  0
 32 31  1  0  0  0  0
M  END
>  <MODEL>
2

>  <REMARK>
 VINA RESULT:      -6.9      1.865      2.244
  Name = 
  3 active torsions:
  status: ('A' for Active; 'I' for Inactive)
    1  A    between atoms: C_1  and  C_10
    2  A    between atoms: C_10  and  N_24
    3  A    between atoms: C_16  and  C_32
                            x       y       z     vdW  Elec       q    Type
                         _______ _______ _______ _____ _____    ______ ____

>  <TORSDO>
F 3

$$$$
=
 OpenBabel11062410503D

 32 36  0  0  1  0  0  0  0  0999 V2000
  156.8340  212.1330  154.2900 C   0  0  0  0  0  3  0  0  0  0  0  0
  161.4990  210.7000  153.1940 C   0  0  1  0  0  3  0  0  0  0  0  0
  161.7930  212.5490  148.3780 C   0  0  0  0  0  3  0  0  0  0  0  0
  162.6170  211.4410  148.1940 C   0  0  0  0  0  3  0  0  0  0  0  0
  159.3140  211.1890  155.1000 C   0  0  0  0  0  0  0  0  0  0  0  0
  160.1960  211.3300  152.7690 C   0  0  0  0  0  0  0  0  0  0  0  0
  157.8490  211.9810  153.3470 C   0  0  0  0  0  3  0  0  0  0  0  0
  160.9640  212.6200  149.4960 C   0  0  0  0  0  3  0  0  0  0  0  0
  160.0270  211.7340  151.5430 N   0  0  0  0  0  0  0  0  0  0  0  0
  160.9580  211.6020  150.4570 C   0  0  0  0  0  0  0  0  0  0  0  0
  161.7930  209.2820  151.1760 C   0  0  0  0  0  0  0  0  0  0  0  0
  158.4510  211.0820  157.2410 O   0  0  0  0  0  0  0  0  0  0  0  0
  158.2670  211.3590  156.0220 C   0  0  0  0  0  0  0  0  0  0  0  0
  159.1010  211.5040  153.7490 C   0  0  0  0  0  0  0  0  0  0  0  0
  160.6350  210.7080  155.5420 C   0  0  0  0  0  3  0  0  0  0  0  0
  157.0520  211.8260  155.5980 N   0  0  0  0  0  0  0  0  0  0  0  0
  162.6080  210.4040  149.1270 C   0  0  0  0  0  3  0  0  0  0  0  0
  161.7900  210.4600  150.2670 C   0  0  0  0  0  0  0  0  0  0  0  0
  161.6310  210.5000  154.6800 C   0  0  0  0  0  3  0  0  0  0  0  0
  161.6620  209.3940  152.5030 C   0  0  0  0  0  3  0  0  0  0  0  0
  161.0800  206.8610  148.5700 C   0  0  0  0  0  0  0  0  0  0  0  0
  160.7090  205.6080  149.3130 C   0  0  0  0  0  2  0  0  0  0  0  0
  161.2990  206.8190  151.4120 C   0  0  1  0  0  3  0  0  0  0  0  0
  160.8250  204.4740  151.4020 O   0  0  0  0  0  1  0  0  0  0  0  0
  161.4120  205.5000  150.6610 C   0  0  1  0  0  3  0  0  0  0  0  0
  161.5810  207.8960  149.1810 N   0  0  0  0  0  0  0  0  0  0  0  0
  160.7300  206.9710  147.1970 N   0  0  0  0  0  1  0  0  0  0  0  0
  161.9190  206.7070  152.6570 O   0  0  0  0  0  1  0  0  0  0  0  0
  161.9890  207.9110  150.5890 C   0  0  1  0  0  3  0  0  0  0  0  0
  155.9480  211.9980  156.5350 C   0  0  0  0  0  2  0  0  0  0  0  0
  155.5000  213.4480  156.5530 C   0  0  0  0  0  2  0  0  0  0  0  0
  156.5420  214.2890  157.2600 C   0  0  0  0  0  1  0  0  0  0  0  0
  1 16  1  0  0  0  0
  2 20  1  6  0  0  0
  2 19  1  0  0  0  0
  3  8  1  0  0  0  0
  4  3  2  0  0  0  0
  4 17  1  0  0  0  0
  5 15  1  0  0  0  0
  5 13  1  0  0  0  0
  6  2  1  0  0  0  0
  6 14  1  0  0  0  0
  7 14  1  0  0  0  0
  7  1  2  0  0  0  0
  8 10  2  0  0  0  0
  9  6  2  0  0  0  0
 10  9  1  0  0  0  0
 11 20  2  0  0  0  0
 13 12  2  0  0  0  0
 14  5  2  0  0  0  0
 16 13  1  0  0  0  0
 16 30  1  0  0  0  0
 17 18  2  0  0  0  0
 18 10  1  0  0  0  0
 18 11  1  0  0  0  0
 19 15  2  0  0  0  0
 21 26  2  0  0  0  0
 21 22  1  0  0  0  0
 22 25  1  0  0  0  0
 23 28  1  1  0  0  0
 25 24  1  1  0  0  0
 25 23  1  0  0  0  0
 26 29  1  0  0  0  0
 27 21  1  0  0  0  0
 29 11  1  1  0  0  0
 29 23  1  0  0  0  0
 30 31  1  0  0  0  0
 31 32  1  0  0  0  0
M  END
>  <MODEL>
3

>  <REMARK>
 VINA RESULT:      -5.6      2.385      8.153
  Name = 
  3 active torsions:
  status: ('A' for Active; 'I' for Inactive)
    1  A    between atoms: C_1  and  C_10
    2  A    between atoms: C_10  and  N_24
    3  A    between atoms: C_16  and  C_32
                            x       y       z     vdW  Elec       q    Type
                         _______ _______ _______ _____ _____    ______ ____

>  <TORSDO>
F 3

$$$$
