=
 OpenBabel11052422303D

 31 36  0  0  1  0  0  0  0  0999 V2000
  161.9450  211.7060  149.1240 C   0  0  0  0  0  0  0  0  0  0  0  0
  161.7590  210.0930  152.5080 C   0  0  2  0  0  3  0  0  0  0  0  0
  160.3970  210.5370  153.0830 C   0  0  2  0  0  3  0  0  0  0  0  0
  158.5220  212.1490  152.7140 C   0  0  0  0  0  3  0  0  0  0  0  0
  161.8570  210.2550  151.0090 C   0  0  0  0  0  0  0  0  0  0  0  0
  161.9990  210.6150  148.2540 C   0  0  0  0  0  3  0  0  0  0  0  0
  160.0050  211.9410  152.6660 C   0  0  0  0  0  2  0  0  0  0  0  0
  161.4770  207.6500  152.0640 N   0  0  0  0  0  0  0  0  0  0  0  0
  161.9580  213.0300  148.6040 N   0  0  0  0  0  1  0  0  0  0  0  0
  161.5050  209.6720  155.2360 C   0  0  0  0  0  2  0  0  0  0  0  0
  157.6630  211.6660  153.6230 C   0  0  0  0  0  3  0  0  0  0  0  0
  162.0490  207.7570  150.7210 C   0  0  0  0  0  2  0  0  0  0  0  0
  162.0950  208.6440  152.9690 C   0  0  2  0  0  3  0  0  0  0  0  0
  161.8810  211.5040  150.4670 N   0  0  0  0  0  0  0  0  0  0  0  0
  157.9230  210.7690  154.7740 C   0  0  0  0  0  3  0  0  0  0  0  0
  161.9130  209.1360  150.1630 C   0  0  0  0  0  0  0  0  0  0  0  0
  161.9940  209.3250  148.7820 C   0  0  0  0  0  3  0  0  0  0  0  0
  161.6720  208.3880  154.4350 C   0  0  0  0  0  2  0  0  0  0  0  0
  160.4300  210.5670  154.6130 C   0  0  2  0  0  3  0  0  0  0  0  0
  159.0880  210.2680  155.1970 C   0  0  0  0  0  3  0  0  0  0  0  0
  161.6840  206.2670  152.5320 C   0  0  0  0  0  2  0  0  0  0  0  0
  161.2920  204.0660  147.9200 C   0  0  0  0  0  0  0  0  0  0  0  0
  160.4620  205.8630  149.5520 C   0  0  0  0  0  2  0  0  0  0  0  0
  161.0540  202.8660  151.4630 C   0  0  0  0  0  2  0  0  0  0  0  0
  160.8700  203.8880  152.5730 C   0  0  0  0  0  2  0  0  0  0  0  0
  161.8000  203.6180  146.5940 C   0  0  0  0  0  1  0  0  0  0  0  0
  160.7550  205.2440  151.8680 C   0  0  2  0  0  3  0  0  0  0  0  0
  160.9390  205.5360  148.1190 C   0  0  0  0  0  2  0  0  0  0  0  0
  160.7050  203.6690  150.2430 C   0  0  1  0  0  3  0  0  0  0  0  0
  161.1760  205.0130  150.4970 N   0  0  1  0  0  0  0  0  0  0  0  0
  161.2480  203.1860  148.9370 C   0  0  0  0  0  3  0  0  0  0  0  0
  1 14  1  0  0  0  0
  2  5  1  6  0  0  0
  2 13  1  0  0  0  0
  2  3  1  0  0  0  0
  3  7  1  6  0  0  0
  3 19  1  0  0  0  0
  4 11  2  0  0  0  0
  6 17  1  0  0  0  0
  6  1  2  0  0  0  0
  7  4  1  0  0  0  0
  8 21  1  0  0  0  0
  8 13  1  0  0  0  0
  9  1  1  0  0  0  0
 11 15  1  0  0  0  0
 12  8  1  0  0  0  0
 13 18  1  1  0  0  0
 14  5  2  0  0  0  0
 15 20  2  0  0  0  0
 16 12  1  0  0  0  0
 16  5  1  0  0  0  0
 17 16  2  0  0  0  0
 18 10  1  0  0  0  0
 19 20  1  1  0  0  0
 19 10  1  0  0  0  0
 22 28  1  0  0  0  0
 22 31  2  0  0  0  0
 24 25  1  0  0  0  0
 26 22  1  0  0  0  0
 27 21  1  1  0  0  0
 27 25  1  0  0  0  0
 28 23  1  0  0  0  0
 29 31  1  6  0  0  0
 29 30  1  0  0  0  0
 29 24  1  0  0  0  0
 30 23  1  6  0  0  0
 30 27  1  0  0  0  0
M  END
>  <MODEL>
1

>  <REMARK>
 VINA RESULT:      -8.7      0.000      0.000
  Name = 
  2 active torsions:
  status: ('A' for Active; 'I' for Inactive)
    1  A    between atoms: C_9  and  C_23
    2  A    between atoms: N_15  and  C_23
                            x       y       z     vdW  Elec       q    Type
                         _______ _______ _______ _____ _____    ______ ____

>  <TORSDO>
F 2

$$$$
=
 OpenBabel11052422303D

 31 36  0  0  1  0  0  0  0  0999 V2000
  161.4140  205.8780  152.0940 C   0  0  0  0  0  0  0  0  0  0  0  0
  160.2500  209.4050  152.6390 C   0  0  2  0  0  3  0  0  0  0  0  0
  160.8230  209.8010  154.0170 C   0  0  2  0  0  3  0  0  0  0  0  0
  161.9070  208.8510  156.0590 C   0  0  0  0  0  3  0  0  0  0  0  0
  160.9430  208.2110  152.0250 C   0  0  0  0  0  0  0  0  0  0  0  0
  162.2210  205.9820  150.9600 C   0  0  0  0  0  3  0  0  0  0  0  0
  160.8720  208.6440  154.9960 C   0  0  0  0  0  2  0  0  0  0  0  0
  161.5430  210.7900  151.0100 N   0  0  0  0  0  0  0  0  0  0  0  0
  161.2370  204.6170  152.7270 N   0  0  0  0  0  1  0  0  0  0  0  0
  159.0910  211.6790  153.7220 C   0  0  0  0  0  2  0  0  0  0  0  0
  162.2290  210.0010  156.6670 C   0  0  0  0  0  3  0  0  0  0  0  0
  161.8060  209.6430  150.1380 C   0  0  0  0  0  2  0  0  0  0  0  0
  160.2350  210.6350  151.6850 C   0  0  2  0  0  3  0  0  0  0  0  0
  160.7950  206.9810  152.5920 N   0  0  0  0  0  0  0  0  0  0  0  0
  161.7060  211.3660  156.4270 C   0  0  0  0  0  3  0  0  0  0  0  0
  161.7450  208.3490  150.8820 C   0  0  0  0  0  0  0  0  0  0  0  0
  162.3760  207.2250  150.3470 C   0  0  0  0  0  3  0  0  0  0  0  0
  159.8420  211.9370  152.4220 C   0  0  0  0  0  2  0  0  0  0  0  0
  159.9480  210.8610  154.6920 C   0  0  2  0  0  3  0  0  0  0  0  0
  160.7550  211.7590  155.5720 C   0  0  0  0  0  3  0  0  0  0  0  0
  161.5990  212.0070  150.1800 C   0  0  0  0  0  2  0  0  0  0  0  0
  159.9410  213.5380  145.5780 C   0  0  0  0  0  0  0  0  0  0  0  0
  159.9690  211.7190  147.3880 C   0  0  0  0  0  2  0  0  0  0  0  0
  163.3030  213.0670  147.1670 C   0  0  0  0  0  2  0  0  0  0  0  0
  163.4040  212.2510  148.4450 C   0  0  0  0  0  2  0  0  0  0  0  0
  159.2420  214.4530  144.6350 C   0  0  0  0  0  1  0  0  0  0  0  0
  161.9840  211.7420  148.7200 C   0  0  2  0  0  3  0  0  0  0  0  0
  159.1150  212.5790  146.4300 C   0  0  0  0  0  2  0  0  0  0  0  0
  161.9410  212.6880  146.6630 C   0  0  1  0  0  3  0  0  0  0  0  0
  161.1150  212.5010  147.8370 N   0  0  1  0  0  0  0  0  0  0  0  0
  161.2740  213.6440  145.7280 C   0  0  0  0  0  3  0  0  0  0  0  0
  1 14  1  0  0  0  0
  1  9  1  0  0  0  0
  2  5  1  6  0  0  0
  2  3  1  0  0  0  0
  3 19  1  0  0  0  0
  3  7  1  1  0  0  0
  4 11  2  0  0  0  0
  5 14  2  0  0  0  0
  6  1  2  0  0  0  0
  7  4  1  0  0  0  0
  8 13  1  0  0  0  0
 12 16  1  0  0  0  0
 12  8  1  0  0  0  0
 13 18  1  1  0  0  0
 13  2  1  0  0  0  0
 15 11  1  0  0  0  0
 16  5  1  0  0  0  0
 17 16  2  0  0  0  0
 17  6  1  0  0  0  0
 18 10  1  0  0  0  0
 19 10  1  6  0  0  0
 19 20  1  0  0  0  0
 20 15  2  0  0  0  0
 21  8  1  0  0  0  0
 22 31  2  0  0  0  0
 22 28  1  0  0  0  0
 24 25  1  0  0  0  0
 25 27  1  0  0  0  0
 26 22  1  0  0  0  0
 27 21  1  1  0  0  0
 28 23  1  0  0  0  0
 29 31  1  6  0  0  0
 29 24  1  0  0  0  0
 29 30  1  0  0  0  0
 30 23  1  6  0  0  0
 30 27  1  0  0  0  0
M  END
>  <MODEL>
2

>  <REMARK>
 VINA RESULT:      -6.5      2.165      6.423
  Name = 
  2 active torsions:
  status: ('A' for Active; 'I' for Inactive)
    1  A    between atoms: C_9  and  C_23
    2  A    between atoms: N_15  and  C_23
                            x       y       z     vdW  Elec       q    Type
                         _______ _______ _______ _____ _____    ______ ____

>  <TORSDO>
F 2

$$$$
=
 OpenBabel11052422303D

 31 36  0  0  1  0  0  0  0  0999 V2000
  161.8700  212.6930  148.8450 C   0  0  0  0  0  0  0  0  0  0  0  0
  161.3990  210.8120  152.0590 C   0  0  2  0  0  3  0  0  0  0  0  0
  160.0480  211.3100  152.6140 C   0  0  2  0  0  3  0  0  0  0  0  0
  158.3190  213.0900  152.3140 C   0  0  0  0  0  3  0  0  0  0  0  0
  161.5820  211.0950  150.5860 C   0  0  0  0  0  0  0  0  0  0  0  0
  161.8850  211.6800  147.8840 C   0  0  0  0  0  3  0  0  0  0  0  0
  159.7820  212.7720  152.3100 C   0  0  0  0  0  2  0  0  0  0  0  0
  160.9570  208.4460  151.3860 N   0  0  0  0  0  0  0  0  0  0  0  0
  162.0070  214.0510  148.4480 N   0  0  0  0  0  1  0  0  0  0  0  0
  160.9810  210.1780  154.7260 C   0  0  0  0  0  2  0  0  0  0  0  0
  157.3830  212.6000  153.1390 C   0  0  0  0  0  3  0  0  0  0  0  0
  161.6000  208.6240  150.0820 C   0  0  0  0  0  2  0  0  0  0  0  0
  161.6030  209.3070  152.4010 C   0  0  2  0  0  3  0  0  0  0  0  0
  161.7260  212.3800  150.1610 N   0  0  0  0  0  0  0  0  0  0  0  0
  157.5180  211.5890  154.2140 C   0  0  0  0  0  3  0  0  0  0  0  0
  161.5960  210.0530  149.6460 C   0  0  0  0  0  0  0  0  0  0  0  0
  161.7580  210.3530  148.2930 C   0  0  0  0  0  3  0  0  0  0  0  0
  161.0910  208.9580  153.8190 C   0  0  0  0  0  2  0  0  0  0  0  0
  160.0080  211.2050  154.1410 C   0  0  2  0  0  3  0  0  0  0  0  0
  158.6210  210.9630  154.6390 C   0  0  0  0  0  3  0  0  0  0  0  0
  161.0380  207.0170  151.7350 C   0  0  0  0  0  2  0  0  0  0  0  0
  160.7040  202.1330  150.2130 C   0  0  0  0  0  0  0  0  0  0  0  0
  161.9950  203.9210  151.5250 C   0  0  0  0  0  2  0  0  0  0  0  0
  160.8350  205.4520  148.4760 C   0  0  0  0  0  2  0  0  0  0  0  0
  161.2970  206.6720  149.2570 C   0  0  0  0  0  2  0  0  0  0  0  0
  160.0450  200.8040  150.0880 C   0  0  0  0  0  1  0  0  0  0  0  0
  161.6800  206.1490  150.6460 C   0  0  2  0  0  3  0  0  0  0  0  0
  161.3890  202.5000  151.5260 C   0  0  0  0  0  2  0  0  0  0  0  0
  161.2970  204.3280  149.3570 C   0  0  1  0  0  3  0  0  0  0  0  0
  161.1530  204.7980  150.7180 N   0  0  1  0  0  0  0  0  0  0  0  0
  160.5980  203.0160  149.2030 C   0  0  0  0  0  3  0  0  0  0  0  0
  1 14  1  0  0  0  0
  2  5  1  6  0  0  0
  2 13  1  0  0  0  0
  2  3  1  0  0  0  0
  3  7  1  1  0  0  0
  3 19  1  0  0  0  0
  4 11  2  0  0  0  0
  6 17  1  0  0  0  0
  6  1  2  0  0  0  0
  7  4  1  0  0  0  0
  8 21  1  0  0  0  0
  8 13  1  0  0  0  0
  9  1  1  0  0  0  0
 11 15  1  0  0  0  0
 12  8  1  0  0  0  0
 13 18  1  1  0  0  0
 14  5  2  0  0  0  0
 15 20  2  0  0  0  0
 16 12  1  0  0  0  0
 16  5  1  0  0  0  0
 17 16  2  0  0  0  0
 18 10  1  0  0  0  0
 19 20  1  6  0  0  0
 19 10  1  0  0  0  0
 22 28  1  0  0  0  0
 23 28  1  0  0  0  0
 24 25  1  0  0  0  0
 25 27  1  0  0  0  0
 26 22  1  0  0  0  0
 27 30  1  0  0  0  0
 27 21  1  1  0  0  0
 29 24  1  6  0  0  0
 29 30  1  0  0  0  0
 30 23  1  1  0  0  0
 31 29  1  0  0  0  0
 31 22  2  0  0  0  0
M  END
>  <MODEL>
3

>  <REMARK>
 VINA RESULT:      -6.2      1.107      2.019
  Name = 
  2 active torsions:
  status: ('A' for Active; 'I' for Inactive)
    1  A    between atoms: C_9  and  C_23
    2  A    between atoms: N_15  and  C_23
                            x       y       z     vdW  Elec       q    Type
                         _______ _______ _______ _____ _____    ______ ____

>  <TORSDO>
F 2

$$$$
=
 OpenBabel11052422303D

 31 36  0  0  1  0  0  0  0  0999 V2000
  160.8440  204.5340  145.1740 C   0  0  0  0  0  0  0  0  0  0  0  0
  160.5280  204.9700  148.8890 C   0  0  2  0  0  3  0  0  0  0  0  0
  160.9720  203.6170  149.4840 C   0  0  2  0  0  3  0  0  0  0  0  0
  161.4730  201.2480  148.8630 C   0  0  0  0  0  3  0  0  0  0  0  0
  160.9840  205.1740  147.4630 C   0  0  0  0  0  0  0  0  0  0  0  0
  161.8090  205.4800  144.8240 C   0  0  0  0  0  3  0  0  0  0  0  0
  160.5870  202.4310  148.6210 C   0  0  0  0  0  2  0  0  0  0  0  0
  162.3490  206.5560  149.5290 N   0  0  0  0  0  0  0  0  0  0  0  0
  160.2680  203.7040  144.1730 N   0  0  0  0  0  1  0  0  0  0  0  0
  159.8260  204.6320  151.5500 C   0  0  0  0  0  2  0  0  0  0  0  0
  161.9790  200.8370  150.0340 C   0  0  0  0  0  3  0  0  0  0  0  0
  162.4440  207.1030  148.1740 C   0  0  0  0  0  2  0  0  0  0  0  0
  160.9600  206.1400  149.8210 C   0  0  2  0  0  3  0  0  0  0  0  0
  160.4530  204.4080  146.4700 N   0  0  0  0  0  0  0  0  0  0  0  0
  161.8530  201.4530  151.3770 C   0  0  0  0  0  3  0  0  0  0  0  0
  161.9540  206.1370  147.1450 C   0  0  0  0  0  0  0  0  0  0  0  0
  162.3570  206.2910  145.8180 C   0  0  0  0  0  3  0  0  0  0  0  0
  160.7990  205.7800  151.3170 C   0  0  0  0  0  2  0  0  0  0  0  0
  160.3000  203.3630  150.8360 C   0  0  2  0  0  3  0  0  0  0  0  0
  161.1660  202.5430  151.7350 C   0  0  0  0  0  3  0  0  0  0  0  0
  162.8280  207.5900  150.4640 C   0  0  0  0  0  2  0  0  0  0  0  0
  161.3600  209.9210  154.7870 C   0  0  0  0  0  0  0  0  0  0  0  0
  160.9540  208.0530  153.0740 C   0  0  0  0  0  2  0  0  0  0  0  0
  161.9100  211.0050  151.2410 C   0  0  0  0  0  2  0  0  0  0  0  0
  162.0020  209.9450  150.1550 C   0  0  0  0  0  2  0  0  0  0  0  0
  161.5460  210.4220  156.1760 C   0  0  0  0  0  1  0  0  0  0  0  0
  161.7540  208.6090  150.8640 C   0  0  2  0  0  3  0  0  0  0  0  0
  161.0870  208.4360  154.5650 C   0  0  0  0  0  2  0  0  0  0  0  0
  161.3090  210.2310  152.3780 C   0  0  1  0  0  3  0  0  0  0  0  0
  161.8490  208.8920  152.2850 N   0  0  1  0  0  0  0  0  0  0  0  0
  161.5320  210.7680  153.7550 C   0  0  0  0  0  3  0  0  0  0  0  0
  1 14  1  0  0  0  0
  2  5  1  6  0  0  0
  2  3  1  0  0  0  0
  2 13  1  0  0  0  0
  3  7  1  6  0  0  0
  3 19  1  0  0  0  0
  4 11  2  0  0  0  0
  6  1  2  0  0  0  0
  6 17  1  0  0  0  0
  7  4  1  0  0  0  0
  8 13  1  0  0  0  0
  8 21  1  0  0  0  0
  9  1  1  0  0  0  0
 11 15  1  0  0  0  0
 12  8  1  0  0  0  0
 13 18  1  1  0  0  0
 14  5  2  0  0  0  0
 15 20  2  0  0  0  0
 16  5  1  0  0  0  0
 16 12  1  0  0  0  0
 17 16  2  0  0  0  0
 18 10  1  0  0  0  0
 19 10  1  1  0  0  0
 19 20  1  0  0  0  0
 22 26  1  0  0  0  0
 23 28  1  0  0  0  0
 25 27  1  0  0  0  0
 25 24  1  0  0  0  0
 27 21  1  6  0  0  0
 27 30  1  0  0  0  0
 28 22  1  0  0  0  0
 29 24  1  6  0  0  0
 29 31  1  0  0  0  0
 30 29  1  0  0  0  0
 30 23  1  1  0  0  0
 31 22  2  0  0  0  0
M  END
>  <MODEL>
4

>  <REMARK>
 VINA RESULT:      -6.2      2.035      7.564
  Name = 
  2 active torsions:
  status: ('A' for Active; 'I' for Inactive)
    1  A    between atoms: C_9  and  C_23
    2  A    between atoms: N_15  and  C_23
                            x       y       z     vdW  Elec       q    Type
                         _______ _______ _______ _____ _____    ______ ____

>  <TORSDO>
F 2

$$$$
