=
 OpenBabel11062409013D

 37 42  0  0  1  0  0  0  0  0999 V2000
  159.8030  212.1800  150.8490 C   0  0  0  0  0  2  0  0  0  0  0  0
  160.4910  209.3080  154.5410 C   0  0  2  0  0  3  0  0  0  0  0  0
  160.7730  213.1900  150.4640 N   0  0  0  0  0  0  0  0  0  0  0  0
  162.4970  208.5100  151.3220 C   0  0  0  0  0  2  0  0  0  0  0  0
  161.3630  209.4890  153.3030 C   0  0  1  0  0  3  0  0  0  0  0  0
  160.1550  210.7120  155.0000 C   0  0  1  0  0  3  0  0  0  0  0  0
  161.3880  208.2690  152.3420 C   0  0  2  0  0  3  0  0  0  0  0  0
  161.2280  212.8690  149.1090 C   0  0  0  0  0  2  0  0  0  0  0  0
  159.9500  211.4820  153.7000 C   0  0  2  0  0  3  0  0  0  0  0  0
  161.1190  206.9910  155.4990 C   0  0  0  0  0  2  0  0  0  0  0  0
  161.9930  209.0070  156.3450 O   0  0  0  0  0  0  0  0  0  0  0  0
  158.6330  211.3160  153.2500 O   0  0  0  0  0  1  0  0  0  0  0  0
  161.6650  211.3910  148.9600 C   0  0  2  0  0  3  0  0  0  0  0  0
  161.9470  209.1740  150.0780 C   0  0  0  0  0  2  0  0  0  0  0  0
  161.2080  208.4850  155.5710 C   0  0  0  0  0  0  0  0  0  0  0  0
  160.9510  210.8570  152.7070 C   0  0  2  0  0  3  0  0  0  0  0  0
  161.6670  206.8990  153.0410 C   0  0  1  0  0  3  0  0  0  0  0  0
  161.7610  210.6620  150.3170 C   0  0  2  0  0  3  0  0  0  0  0  0
  160.5300  210.8780  151.2180 C   0  0  2  0  0  3  0  0  0  0  0  0
  160.6480  206.5300  154.1220 C   0  0  0  0  0  2  0  0  0  0  0  0
  161.2350  204.4160  152.6490 C   0  0  0  0  0  3  0  0  0  0  0  0
  161.7460  205.7120  152.0660 C   0  0  1  0  0  3  0  0  0  0  0  0
  161.1700  206.0500  150.6740 C   0  0  0  0  0  2  0  0  0  0  0  0
  160.9080  205.0620  148.1500 Cl  0  0  0  0  0  0  0  0  0  0  0  0
  161.2280  203.5180  150.3670 C   0  0  0  0  0  2  0  0  0  0  0  0
  160.6210  204.8410  149.8960 C   0  0  1  0  0  3  0  0  0  0  0  0
  161.0000  203.3740  151.8430 C   0  0  0  0  0  3  0  0  0  0  0  0
  158.9210  210.7390  155.9080 C   0  0  1  0  0  3  0  0  0  0  0  0
  159.2940  210.5690  157.2570 O   0  0  0  0  0  0  0  0  0  0  0  0
  158.8730  211.8690  156.8940 C   0  0  1  0  0  3  0  0  0  0  0  0
  160.0840  212.7850  156.8910 C   0  0  0  0  0  2  0  0  0  0  0  0
  159.6530  214.2220  156.6810 C   0  0  0  0  0  2  0  0  0  0  0  0
  158.9380  214.3260  155.4850 O   0  0  0  0  0  1  0  0  0  0  0  0
  163.0000  211.3200  148.2010 C   0  0  0  0  0  2  0  0  0  0  0  0
  163.4280  212.6110  147.8710 O   0  0  0  0  0  1  0  0  0  0  0  0
  158.5860  214.1800  150.1300 C   0  0  0  0  0  1  0  0  0  0  0  0
  160.0570  214.4530  150.3950 C   0  0  0  0  0  2  0  0  0  0  0  0
  1 19  1  0  0  0  0
  2  6  1  0  0  0  0
  2 15  1  1  0  0  0
  3  1  1  0  0  0  0
  4  7  1  0  0  0  0
  5  2  1  0  0  0  0
  6 28  1  0  0  0  0
  7 17  1  0  0  0  0
  7  5  1  0  0  0  0
  8  3  1  0  0  0  0
  9  6  1  0  0  0  0
 10 15  1  0  0  0  0
 12  9  1  0  0  0  0
 13  8  1  0  0  0  0
 13 18  1  0  0  0  0
 14 18  1  0  0  0  0
 14  4  1  0  0  0  0
 15 11  2  0  0  0  0
 16  5  1  0  0  0  0
 16  9  1  0  0  0  0
 17 20  1  0  0  0  0
 18 19  1  0  0  0  0
 19 16  1  0  0  0  0
 20 10  1  0  0  0  0
 22 21  1  0  0  0  0
 22 17  1  0  0  0  0
 23 22  1  0  0  0  0
 24 26  1  0  0  0  0
 25 27  1  0  0  0  0
 26 25  1  0  0  0  0
 26 23  1  0  0  0  0
 27 21  2  0  0  0  0
 28 30  1  0  0  0  0
 28 29  1  0  0  0  0
 30 29  1  0  0  0  0
 31 30  1  0  0  0  0
 32 31  1  0  0  0  0
 33 32  1  0  0  0  0
 34 13  1  0  0  0  0
 35 34  1  0  0  0  0
 36 37  1  0  0  0  0
 37  3  1  0  0  0  0
M  END
>  <MODEL>
1

>  <REMARK>
 VINA RESULT:      -7.0      0.000      0.000
  Name = 
  6 active torsions:
  status: ('A' for Active; 'I' for Inactive)
    1  A    between atoms: C_3  and  C_21
    2  A    between atoms: C_3  and  C_30
    3  A    between atoms: N_5  and  C_23
    4  A    between atoms: C_6  and  C_31
    5  A    between atoms: C_9  and  C_13
    6  A    between atoms: C_11  and  C_26
                            x       y       z     vdW  Elec       q    Type
                         _______ _______ _______ _____ _____    ______ ____

>  <TORSDO>
F 6

$$$$
=
 OpenBabel11062409013D

 37 42  0  0  1  0  0  0  0  0999 V2000
  160.0270  212.2260  150.8060 C   0  0  0  0  0  2  0  0  0  0  0  0
  160.8590  207.9980  152.7520 C   0  0  2  0  0  3  0  0  0  0  0  0
  161.0480  213.2560  150.7320 N   0  0  0  0  0  0  0  0  0  0  0  0
  162.3230  208.5990  149.2150 C   0  0  0  0  0  2  0  0  0  0  0  0
  161.5760  208.6630  151.5830 C   0  0  1  0  0  3  0  0  0  0  0  0
  160.7480  209.0720  153.8140 C   0  0  1  0  0  3  0  0  0  0  0  0
  161.3360  207.9870  150.2040 C   0  0  2  0  0  3  0  0  0  0  0  0
  161.2820  213.5410  149.3140 C   0  0  0  0  0  2  0  0  0  0  0  0
  160.4650  210.3420  153.0200 C   0  0  2  0  0  3  0  0  0  0  0  0
  161.3370  205.4690  152.5130 C   0  0  0  0  0  2  0  0  0  0  0  0
  162.5390  206.8680  153.9780 O   0  0  0  0  0  0  0  0  0  0  0  0
  159.0900  210.4520  152.7700 O   0  0  0  0  0  1  0  0  0  0  0  0
  161.5240  212.2590  148.4790 C   0  0  2  0  0  3  0  0  0  0  0  0
  161.6940  209.7660  148.4830 C   0  0  0  0  0  2  0  0  0  0  0  0
  161.6050  206.7740  153.1980 C   0  0  0  0  0  0  0  0  0  0  0  0
  161.2490  210.1700  151.7030 C   0  0  2  0  0  3  0  0  0  0  0  0
  161.5460  206.4380  150.1960 C   0  0  1  0  0  3  0  0  0  0  0  0
  161.7120  211.0060  149.3590 C   0  0  2  0  0  3  0  0  0  0  0  0
  160.6420  210.8610  150.4590 C   0  0  2  0  0  3  0  0  0  0  0  0
  160.6410  205.6800  151.1710 C   0  0  0  0  0  2  0  0  0  0  0  0
  162.3580  206.2770  147.7840 C   0  0  0  0  0  3  0  0  0  0  0  0
  161.3600  205.7970  148.8110 C   0  0  1  0  0  3  0  0  0  0  0  0
  161.2180  204.2620  148.8830 C   0  0  0  0  0  2  0  0  0  0  0  0
  160.6520  202.0730  147.3640 Cl  0  0  0  0  0  0  0  0  0  0  0  0
  161.6450  204.4040  146.3720 C   0  0  0  0  0  2  0  0  0  0  0  0
  161.6720  203.5150  147.6160 C   0  0  1  0  0  3  0  0  0  0  0  0
  162.4840  205.6220  146.6240 C   0  0  0  0  0  3  0  0  0  0  0  0
  159.6550  208.7550  154.8400 C   0  0  1  0  0  3  0  0  0  0  0  0
  160.1590  207.9250  155.8620 O   0  0  0  0  0  0  0  0  0  0  0  0
  159.9070  209.2670  156.2270 C   0  0  1  0  0  3  0  0  0  0  0  0
  161.2370  209.9720  156.4280 C   0  0  0  0  0  2  0  0  0  0  0  0
  161.0360  211.2640  157.1930 C   0  0  0  0  0  2  0  0  0  0  0  0
  160.7020  212.2870  156.3030 O   0  0  0  0  0  1  0  0  0  0  0  0
  162.7310  212.4670  147.5500 C   0  0  0  0  0  2  0  0  0  0  0  0
  162.2960  212.9180  146.3000 O   0  0  0  0  0  1  0  0  0  0  0  0
  159.1190  214.1180  151.9200 C   0  0  0  0  0  1  0  0  0  0  0  0
  160.4780  214.4530  151.3280 C   0  0  0  0  0  2  0  0  0  0  0  0
  2 15  1  1  0  0  0
  2  6  1  0  0  0  0
  3  1  1  0  0  0  0
  3 37  1  0  0  0  0
  4  7  1  0  0  0  0
  5 16  1  0  0  0  0
  5  2  1  0  0  0  0
  6 28  1  0  0  0  0
  7  5  1  0  0  0  0
  8  3  1  0  0  0  0
  9  6  1  0  0  0  0
 10 15  1  0  0  0  0
 12  9  1  0  0  0  0
 13  8  1  0  0  0  0
 13 18  1  0  0  0  0
 14  4  1  0  0  0  0
 14 18  1  0  0  0  0
 15 11  2  0  0  0  0
 16  9  1  0  0  0  0
 17  7  1  0  0  0  0
 17 20  1  0  0  0  0
 18 19  1  0  0  0  0
 19  1  1  0  0  0  0
 19 16  1  0  0  0  0
 20 10  1  0  0  0  0
 21 22  1  0  0  0  0
 22 23  1  0  0  0  0
 22 17  1  0  0  0  0
 24 26  1  0  0  0  0
 25 27  1  0  0  0  0
 25 26  1  0  0  0  0
 26 23  1  0  0  0  0
 27 21  2  0  0  0  0
 28 29  1  0  0  0  0
 28 30  1  0  0  0  0
 29 30  1  0  0  0  0
 30 31  1  0  0  0  0
 31 32  1  0  0  0  0
 33 32  1  0  0  0  0
 34 13  1  0  0  0  0
 35 34  1  0  0  0  0
 37 36  1  0  0  0  0
M  END
>  <MODEL>
2

>  <REMARK>
 VINA RESULT:      -5.0      1.770      2.643
  Name = 
  6 active torsions:
  status: ('A' for Active; 'I' for Inactive)
    1  A    between atoms: C_3  and  C_21
    2  A    between atoms: C_3  and  C_30
    3  A    between atoms: N_5  and  C_23
    4  A    between atoms: C_6  and  C_31
    5  A    between atoms: C_9  and  C_13
    6  A    between atoms: C_11  and  C_26
                            x       y       z     vdW  Elec       q    Type
                         _______ _______ _______ _____ _____    ______ ____

>  <TORSDO>
F 6

$$$$
=
 OpenBabel11062409013D

 37 42  0  0  1  0  0  0  0  0999 V2000
  162.4360  211.5050  148.7850 C   0  0  0  0  0  2  0  0  0  0  0  0
  161.5190  207.1050  150.2540 C   0  0  2  0  0  3  0  0  0  0  0  0
  161.4520  212.3040  148.0760 N   0  0  0  0  0  0  0  0  0  0  0  0
  159.9540  209.9870  152.3190 C   0  0  0  0  0  2  0  0  0  0  0  0
  160.7860  208.3950  150.6030 C   0  0  1  0  0  3  0  0  0  0  0  0
  161.7060  207.1480  148.7520 C   0  0  1  0  0  3  0  0  0  0  0  0
  160.9520  208.8580  152.0770 C   0  0  2  0  0  3  0  0  0  0  0  0
  161.1780  213.4890  148.8930 C   0  0  0  0  0  2  0  0  0  0  0  0
  162.0080  208.6150  148.4630 C   0  0  2  0  0  3  0  0  0  0  0  0
  160.9400  205.4430  152.1470 C   0  0  0  0  0  2  0  0  0  0  0  0
  159.8430  205.4450  150.0630 O   0  0  0  0  0  0  0  0  0  0  0  0
  163.3760  208.8640  148.6390 O   0  0  0  0  0  1  0  0  0  0  0  0
  160.8590  213.1400  150.3670 C   0  0  2  0  0  3  0  0  0  0  0  0
  160.5980  211.3350  152.0750 C   0  0  0  0  0  2  0  0  0  0  0  0
  160.7450  205.9140  150.7380 C   0  0  0  0  0  0  0  0  0  0  0  0
  161.1720  209.4010  149.4930 C   0  0  2  0  0  3  0  0  0  0  0  0
  160.6850  207.7440  153.1410 C   0  0  1  0  0  3  0  0  0  0  0  0
  160.6570  211.6260  150.5860 C   0  0  2  0  0  3  0  0  0  0  0  0
  161.7590  210.7590  149.9460 C   0  0  2  0  0  3  0  0  0  0  0  0
  161.5960  206.5210  153.0060 C   0  0  0  0  0  2  0  0  0  0  0  0
  160.8010  207.1210  155.6120 C   0  0  0  0  0  3  0  0  0  0  0  0
  160.7980  208.2370  154.5930 C   0  0  1  0  0  3  0  0  0  0  0  0
  161.9310  209.2680  154.7820 C   0  0  0  0  0  2  0  0  0  0  0  0
  163.0040  210.9840  156.6050 Cl  0  0  0  0  0  0  0  0  0  0  0  0
  161.5620  208.7710  157.2580 C   0  0  0  0  0  2  0  0  0  0  0  0
  162.5260  209.3140  156.2010 C   0  0  1  0  0  3  0  0  0  0  0  0
  161.1530  207.3780  156.8770 C   0  0  0  0  0  3  0  0  0  0  0  0
  162.8230  206.2080  148.2850 C   0  0  1  0  0  3  0  0  0  0  0  0
  162.3290  204.9000  148.1100 O   0  0  0  0  0  0  0  0  0  0  0  0
  162.6300  205.6070  146.9240 C   0  0  1  0  0  3  0  0  0  0  0  0
  161.3280  205.9690  146.2330 C   0  0  0  0  0  2  0  0  0  0  0  0
  161.2590  205.3150  144.8680 C   0  0  0  0  0  2  0  0  0  0  0  0
  161.1090  203.9340  145.0180 O   0  0  0  0  0  1  0  0  0  0  0  0
  159.6290  213.9340  150.8330 C   0  0  0  0  0  2  0  0  0  0  0  0
  158.4860  213.4690  150.1740 O   0  0  0  0  0  1  0  0  0  0  0  0
  162.3730  214.2450  146.9550 C   0  0  0  0  0  1  0  0  0  0  0  0
  162.0850  212.7560  146.8490 C   0  0  0  0  0  2  0  0  0  0  0  0
  1 19  1  0  0  0  0
  2  5  1  0  0  0  0
  2 15  1  6  0  0  0
  3  1  1  0  0  0  0
  3  8  1  0  0  0  0
  5  7  1  0  0  0  0
  6  2  1  0  0  0  0
  7  4  1  0  0  0  0
  7 17  1  0  0  0  0
  8 13  1  0  0  0  0
  9 12  1  0  0  0  0
  9  6  1  0  0  0  0
  9 16  1  0  0  0  0
 10 20  1  0  0  0  0
 11 15  2  0  0  0  0
 13 18  1  0  0  0  0
 13 34  1  0  0  0  0
 14  4  1  0  0  0  0
 15 10  1  0  0  0  0
 16 19  1  0  0  0  0
 16  5  1  0  0  0  0
 17 22  1  0  0  0  0
 18 14  1  0  0  0  0
 19 18  1  0  0  0  0
 20 17  1  0  0  0  0
 21 27  2  0  0  0  0
 22 23  1  0  0  0  0
 22 21  1  0  0  0  0
 23 26  1  0  0  0  0
 26 24  1  0  0  0  0
 26 25  1  0  0  0  0
 27 25  1  0  0  0  0
 28  6  1  0  0  0  0
 29 28  1  0  0  0  0
 30 29  1  0  0  0  0
 30 28  1  0  0  0  0
 31 30  1  0  0  0  0
 32 33  1  0  0  0  0
 32 31  1  0  0  0  0
 35 34  1  0  0  0  0
 37 36  1  0  0  0  0
 37  3  1  0  0  0  0
M  END
>  <MODEL>
3

>  <REMARK>
 VINA RESULT:      -4.0      3.495      6.916
  Name = 
  6 active torsions:
  status: ('A' for Active; 'I' for Inactive)
    1  A    between atoms: C_3  and  C_21
    2  A    between atoms: C_3  and  C_30
    3  A    between atoms: N_5  and  C_23
    4  A    between atoms: C_6  and  C_31
    5  A    between atoms: C_9  and  C_13
    6  A    between atoms: C_11  and  C_26
                            x       y       z     vdW  Elec       q    Type
                         _______ _______ _______ _____ _____    ______ ____

>  <TORSDO>
F 6

$$$$
