=
 OpenBabel11052422403D

 31 34  0  0  1  0  0  0  0  0999 V2000
  161.2010  205.3930  153.1380 C   0  0  0  0  0  0  0  0  0  0  0  0
  161.4400  206.1430  149.4650 C   0  0  0  0  0  0  0  0  0  0  0  0
  161.2640  204.8260  148.7600 C   0  0  0  0  0  0  0  0  0  0  0  0
  160.7090  202.4500  148.7460 C   0  0  0  0  0  3  0  0  0  0  0  0
  161.4190  206.2910  150.8800 C   0  0  0  0  0  0  0  0  0  0  0  0
  161.4020  206.6640  153.6760 C   0  0  0  0  0  3  0  0  0  0  0  0
  160.8050  203.6710  149.4170 C   0  0  0  0  0  3  0  0  0  0  0  0
  161.8900  208.5420  149.2890 C   0  0  0  0  0  0  0  0  0  0  0  0
  160.9940  204.3350  153.9590 F   0  0  0  0  0  0  0  0  0  0  0  0
  162.0140  205.8960  146.6880 N   0  0  0  0  0  2  0  0  0  0  0  0
  161.0740  202.3630  147.4030 C   0  0  0  0  0  3  0  0  0  0  0  0
  161.8540  208.6420  150.6420 N   0  0  0  0  0  0  0  0  0  0  0  0
  161.6980  207.2940  148.6750 C   0  0  0  0  0  0  0  0  0  0  0  0
  161.2110  205.2100  151.7540 C   0  0  0  0  0  3  0  0  0  0  0  0
  161.8790  203.4000  145.3870 O   0  0  0  0  0  1  0  0  0  0  0  0
  161.6300  207.5730  151.4410 C   0  0  0  0  0  0  0  0  0  0  0  0
  161.6180  207.7510  152.8280 C   0  0  0  0  0  3  0  0  0  0  0  0
  161.6650  207.2240  147.1710 C   0  0  0  0  0  2  0  0  0  0  0  0
  161.5970  204.7290  147.3940 C   0  0  0  0  0  0  0  0  0  0  0  0
  161.5230  203.4970  146.7260 C   0  0  0  0  0  0  0  0  0  0  0  0
  161.6510  211.3400  150.0900 O   0  0  0  0  0  0  0  0  0  0  0  0
  162.0020  211.0690  148.9090 C   0  0  0  0  0  0  0  0  0  0  0  0
  162.1260  209.7050  148.4810 N   0  0  0  0  0  2  0  0  0  0  0  0
  163.5470  212.5230  147.7190 C   0  0  0  0  0  2  0  0  0  0  0  0
  162.2890  212.1670  147.9680 C   0  0  0  0  0  0  0  0  0  0  0  0
  160.2430  211.9530  146.7760 O   0  0  0  0  0  1  0  0  0  0  0  0
  161.1560  212.8780  147.2860 C   0  0  2  0  0  3  0  0  0  0  0  0
  161.6430  213.7950  146.1620 C   0  0  0  0  0  2  0  0  0  0  0  0
  161.5090  213.1740  144.7710 C   0  0  1  0  0  3  0  0  0  0  0  0
  160.6420  214.0260  143.8610 C   0  0  0  0  0  1  0  0  0  0  0  0
  162.7600  212.9680  144.1910 O   0  0  0  0  0  1  0  0  0  0  0  0
  1  6  1  0  0  0  0
  1  9  1  0  0  0  0
  2  5  1  0  0  0  0
  3  7  1  0  0  0  0
  3  2  1  0  0  0  0
  4  7  2  0  0  0  0
  5 16  2  0  0  0  0
  5 14  1  0  0  0  0
  8 12  2  0  0  0  0
 10 18  1  0  0  0  0
 10 19  1  0  0  0  0
 11  4  1  0  0  0  0
 12 16  1  0  0  0  0
 13  8  1  0  0  0  0
 13  2  2  0  0  0  0
 14  1  2  0  0  0  0
 15 20  1  0  0  0  0
 16 17  1  0  0  0  0
 17  6  2  0  0  0  0
 18 13  1  0  0  0  0
 19  3  2  0  0  0  0
 20 19  1  0  0  0  0
 20 11  2  0  0  0  0
 22 21  2  0  0  0  0
 23 22  1  0  0  0  0
 23  8  1  0  0  0  0
 24 25  2  0  0  0  0
 25 22  1  0  0  0  0
 27 26  1  6  0  0  0
 27 25  1  0  0  0  0
 28 27  1  0  0  0  0
 29 30  1  6  0  0  0
 29 28  1  0  0  0  0
 31 29  1  0  0  0  0
M  END
>  <MODEL>
1

>  <REMARK>
 VINA RESULT:      -9.8      0.000      0.000
  Name = 
  5 active torsions:
  status: ('A' for Active; 'I' for Inactive)
    1  A    between atoms: C_1  and  C_24
    2  A    between atoms: C_9  and  C_22
    3  A    between atoms: C_15  and  N_23
    4  A    between atoms: C_19  and  C_22
    5  A    between atoms: C_19  and  C_24
                            x       y       z     vdW  Elec       q    Type
                         _______ _______ _______ _____ _____    ______ ____

>  <TORSDO>
F 5

$$$$
=
 OpenBabel11052422403D

 31 34  0  0  1  0  0  0  0  0999 V2000
  160.9390  204.6700  149.4280 C   0  0  0  0  0  0  0  0  0  0  0  0
  161.4870  208.0930  150.8770 C   0  0  0  0  0  0  0  0  0  0  0  0
  161.2210  207.9660  152.3520 C   0  0  0  0  0  0  0  0  0  0  0  0
  160.7960  206.6410  154.3560 C   0  0  0  0  0  3  0  0  0  0  0  0
  161.3830  207.0100  149.9590 C   0  0  0  0  0  0  0  0  0  0  0  0
  161.1850  204.9180  148.0770 C   0  0  0  0  0  3  0  0  0  0  0  0
  161.1010  206.7220  152.9950 C   0  0  0  0  0  3  0  0  0  0  0  0
  162.0410  209.5480  148.9900 C   0  0  0  0  0  0  0  0  0  0  0  0
  160.6070  203.4220  149.8380 F   0  0  0  0  0  0  0  0  0  0  0  0
  161.2240  210.4110  152.5070 N   0  0  0  0  0  2  0  0  0  0  0  0
  160.6010  207.8060  155.0970 C   0  0  0  0  0  3  0  0  0  0  0  0
  161.9400  208.4880  148.1490 N   0  0  0  0  0  0  0  0  0  0  0  0
  161.8060  209.3770  150.3630 C   0  0  0  0  0  0  0  0  0  0  0  0
  161.0360  205.7070  150.3580 C   0  0  0  0  0  3  0  0  0  0  0  0
  160.5340  210.2080  155.2310 O   0  0  0  0  0  1  0  0  0  0  0  0
  161.6220  207.2470  148.5840 C   0  0  0  0  0  0  0  0  0  0  0  0
  161.5240  206.2040  147.6570 C   0  0  0  0  0  3  0  0  0  0  0  0
  162.0020  210.5520  151.2840 C   0  0  0  0  0  2  0  0  0  0  0  0
  161.0550  209.1350  153.1220 C   0  0  0  0  0  0  0  0  0  0  0  0
  160.7250  209.0530  154.4830 C   0  0  0  0  0  0  0  0  0  0  0  0
  160.3740  211.3360  147.3910 O   0  0  0  0  0  0  0  0  0  0  0  0
  161.5400  211.7010  147.7010 C   0  0  0  0  0  0  0  0  0  0  0  0
  162.3870  210.8460  148.4820 N   0  0  0  0  0  2  0  0  0  0  0  0
  162.7050  213.8000  148.0980 C   0  0  0  0  0  2  0  0  0  0  0  0
  162.0290  213.0190  147.2580 C   0  0  0  0  0  0  0  0  0  0  0  0
  162.7960  214.3130  145.4180 O   0  0  0  0  0  1  0  0  0  0  0  0
  161.7680  213.4750  145.8510 C   0  0  2  0  0  3  0  0  0  0  0  0
  160.4260  214.1960  145.7180 C   0  0  0  0  0  2  0  0  0  0  0  0
  159.4760  213.5330  144.7200 C   0  0  1  0  0  3  0  0  0  0  0  0
  160.1510  212.3900  143.9830 C   0  0  0  0  0  1  0  0  0  0  0  0
  158.3190  213.0810  145.3530 O   0  0  0  0  0  1  0  0  0  0  0  0
  1  9  1  0  0  0  0
  1 14  1  0  0  0  0
  2  3  1  0  0  0  0
  3  7  2  0  0  0  0
  3 19  1  0  0  0  0
  4 11  2  0  0  0  0
  5 14  2  0  0  0  0
  5  2  1  0  0  0  0
  6  1  2  0  0  0  0
  7  4  1  0  0  0  0
  8 13  1  0  0  0  0
 10 19  1  0  0  0  0
 12 16  1  0  0  0  0
 12  8  2  0  0  0  0
 13  2  2  0  0  0  0
 13 18  1  0  0  0  0
 16  5  1  0  0  0  0
 17  6  1  0  0  0  0
 17 16  2  0  0  0  0
 18 10  1  0  0  0  0
 19 20  2  0  0  0  0
 20 11  1  0  0  0  0
 20 15  1  0  0  0  0
 21 22  2  0  0  0  0
 22 23  1  0  0  0  0
 23  8  1  0  0  0  0
 25 22  1  0  0  0  0
 25 24  2  0  0  0  0
 27 26  1  1  0  0  0
 27 25  1  0  0  0  0
 28 27  1  0  0  0  0
 29 30  1  1  0  0  0
 29 31  1  0  0  0  0
 29 28  1  0  0  0  0
M  END
>  <MODEL>
2

>  <REMARK>
 VINA RESULT:      -8.9      2.237      4.907
  Name = 
  5 active torsions:
  status: ('A' for Active; 'I' for Inactive)
    1  A    between atoms: C_1  and  C_24
    2  A    between atoms: C_9  and  C_22
    3  A    between atoms: C_15  and  N_23
    4  A    between atoms: C_19  and  C_22
    5  A    between atoms: C_19  and  C_24
                            x       y       z     vdW  Elec       q    Type
                         _______ _______ _______ _____ _____    ______ ____

>  <TORSDO>
F 5

$$$$
=
 OpenBabel11052422403D

 31 34  0  0  1  0  0  0  0  0999 V2000
  161.9160  211.1580  149.6680 C   0  0  0  0  0  0  0  0  0  0  0  0
  161.2730  208.5480  152.2930 C   0  0  0  0  0  0  0  0  0  0  0  0
  161.1030  209.2960  153.5870 C   0  0  0  0  0  0  0  0  0  0  0  0
  160.8370  211.3580  154.8630 C   0  0  0  0  0  3  0  0  0  0  0  0
  161.5390  209.1790  151.0460 C   0  0  0  0  0  0  0  0  0  0  0  0
  162.0800  210.3550  148.5390 C   0  0  0  0  0  3  0  0  0  0  0  0
  160.9330  210.6900  153.6400 C   0  0  0  0  0  3  0  0  0  0  0  0
  161.3940  206.3890  151.1490 C   0  0  0  0  0  0  0  0  0  0  0  0
  162.0150  212.5050  149.5610 F   0  0  0  0  0  0  0  0  0  0  0  0
  161.2620  207.1590  154.7770 N   0  0  0  0  0  2  0  0  0  0  0  0
  160.9130  210.6420  156.0560 C   0  0  0  0  0  3  0  0  0  0  0  0
  161.6380  207.0290  149.9770 N   0  0  0  0  0  0  0  0  0  0  0  0
  161.2190  207.1310  152.3280 C   0  0  0  0  0  0  0  0  0  0  0  0
  161.6500  210.5740  150.9080 C   0  0  0  0  0  3  0  0  0  0  0  0
  161.1400  208.5510  157.2250 O   0  0  0  0  0  1  0  0  0  0  0  0
  161.7160  208.3780  149.8920 C   0  0  0  0  0  0  0  0  0  0  0  0
  161.9810  208.9680  148.6520 C   0  0  0  0  0  3  0  0  0  0  0  0
  160.8720  206.4000  153.5980 C   0  0  0  0  0  2  0  0  0  0  0  0
  161.1430  208.5810  154.8020 C   0  0  0  0  0  0  0  0  0  0  0  0
  161.0710  209.2560  156.0300 C   0  0  0  0  0  0  0  0  0  0  0  0
  160.5690  204.5940  148.9980 O   0  0  0  0  0  0  0  0  0  0  0  0
  160.9070  204.1030  150.1090 C   0  0  0  0  0  0  0  0  0  0  0  0
  161.3130  204.9560  151.1880 N   0  0  0  0  0  2  0  0  0  0  0  0
  161.4270  202.0940  151.3790 C   0  0  0  0  0  2  0  0  0  0  0  0
  160.8840  202.6400  150.2930 C   0  0  0  0  0  0  0  0  0  0  0  0
  159.2750  200.9510  149.8400 O   0  0  0  0  0  1  0  0  0  0  0  0
  160.2410  201.7690  149.2530 C   0  0  2  0  0  3  0  0  0  0  0  0
  161.2630  200.9060  148.5100 C   0  0  0  0  0  2  0  0  0  0  0  0
  160.8430  200.5620  147.0800 C   0  0  1  0  0  3  0  0  0  0  0  0
  160.8800  201.7840  146.1800 C   0  0  0  0  0  1  0  0  0  0  0  0
  161.6430  199.5500  146.5520 O   0  0  0  0  0  1  0  0  0  0  0  0
  1 14  1  0  0  0  0
  2 13  2  0  0  0  0
  2  3  1  0  0  0  0
  3  7  2  0  0  0  0
  3 19  1  0  0  0  0
  4 11  2  0  0  0  0
  5  2  1  0  0  0  0
  6 17  1  0  0  0  0
  6  1  2  0  0  0  0
  7  4  1  0  0  0  0
  8 23  1  0  0  0  0
  8 13  1  0  0  0  0
  9  1  1  0  0  0  0
 10 19  1  0  0  0  0
 12  8  2  0  0  0  0
 13 18  1  0  0  0  0
 14  5  2  0  0  0  0
 16 12  1  0  0  0  0
 16  5  1  0  0  0  0
 17 16  2  0  0  0  0
 18 10  1  0  0  0  0
 19 20  2  0  0  0  0
 20 11  1  0  0  0  0
 20 15  1  0  0  0  0
 21 22  2  0  0  0  0
 22 25  1  0  0  0  0
 22 23  1  0  0  0  0
 25 24  2  0  0  0  0
 27 26  1  1  0  0  0
 27 25  1  0  0  0  0
 28 27  1  0  0  0  0
 29 30  1  6  0  0  0
 29 28  1  0  0  0  0
 31 29  1  0  0  0  0
M  END
>  <MODEL>
3

>  <REMARK>
 VINA RESULT:      -8.6      3.878      8.804
  Name = 
  5 active torsions:
  status: ('A' for Active; 'I' for Inactive)
    1  A    between atoms: C_1  and  C_24
    2  A    between atoms: C_9  and  C_22
    3  A    between atoms: C_15  and  N_23
    4  A    between atoms: C_19  and  C_22
    5  A    between atoms: C_19  and  C_24
                            x       y       z     vdW  Elec       q    Type
                         _______ _______ _______ _____ _____    ______ ____

>  <TORSDO>
F 5

$$$$
=
 OpenBabel11052422403D

 31 34  0  0  1  0  0  0  0  0999 V2000
  161.1300  201.5270  150.5120 C   0  0  0  0  0  0  0  0  0  0  0  0
  161.1720  204.8240  148.7120 C   0  0  0  0  0  0  0  0  0  0  0  0
  161.1210  204.4970  147.2450 C   0  0  0  0  0  0  0  0  0  0  0  0
  160.8310  202.9280  145.3990 C   0  0  0  0  0  3  0  0  0  0  0  0
  161.1780  203.8420  149.7410 C   0  0  0  0  0  0  0  0  0  0  0  0
  161.2060  201.9540  151.8380 C   0  0  0  0  0  3  0  0  0  0  0  0
  160.8130  203.2120  146.7670 C   0  0  0  0  0  3  0  0  0  0  0  0
  161.3500  206.5420  150.4460 C   0  0  0  0  0  0  0  0  0  0  0  0
  161.0660  200.2030  150.2290 F   0  0  0  0  0  0  0  0  0  0  0  0
  161.6850  206.8310  146.7600 N   0  0  0  0  0  2  0  0  0  0  0  0
  161.1630  203.9270  144.4850 C   0  0  0  0  0  3  0  0  0  0  0  0
  161.3440  205.5750  151.3980 N   0  0  0  0  0  0  0  0  0  0  0  0
  161.2770  206.1890  149.0890 C   0  0  0  0  0  0  0  0  0  0  0  0
  161.1170  202.4630  149.4750 C   0  0  0  0  0  3  0  0  0  0  0  0
  161.7860  206.2030  144.0150 O   0  0  0  0  0  1  0  0  0  0  0  0
  161.2640  204.2580  151.0910 C   0  0  0  0  0  0  0  0  0  0  0  0
  161.2750  203.3170  152.1260 C   0  0  0  0  0  3  0  0  0  0  0  0
  161.2060  207.2840  148.0580 C   0  0  0  0  0  2  0  0  0  0  0  0
  161.4210  205.5050  146.3060 C   0  0  0  0  0  0  0  0  0  0  0  0
  161.4620  205.2140  144.9350 C   0  0  0  0  0  0  0  0  0  0  0  0
  160.5410  207.7510  152.9780 O   0  0  0  0  0  0  0  0  0  0  0  0
  161.0260  208.4860  152.0760 C   0  0  0  0  0  0  0  0  0  0  0  0
  161.4300  207.9260  150.8190 N   0  0  0  0  0  2  0  0  0  0  0  0
  161.7350  210.7140  151.4010 C   0  0  0  0  0  2  0  0  0  0  0  0
  161.1800  209.9310  152.3240 C   0  0  0  0  0  0  0  0  0  0  0  0
  160.3330  211.8530  153.4370 O   0  0  0  0  0  1  0  0  0  0  0  0
  160.7020  210.5200  153.6210 C   0  0  2  0  0  3  0  0  0  0  0  0
  161.7590  210.4250  154.7220 C   0  0  0  0  0  2  0  0  0  0  0  0
  161.2330  209.8080  156.0180 C   0  0  1  0  0  3  0  0  0  0  0  0
  159.7530  209.4810  155.9190 C   0  0  0  0  0  1  0  0  0  0  0  0
  161.9560  208.6660  156.3590 O   0  0  0  0  0  1  0  0  0  0  0  0
  1  6  1  0  0  0  0
  2 13  2  0  0  0  0
  2  5  1  0  0  0  0
  3  2  1  0  0  0  0
  4  7  2  0  0  0  0
  5 16  2  0  0  0  0
  6 17  2  0  0  0  0
  7  3  1  0  0  0  0
  8 23  1  0  0  0  0
  8 12  2  0  0  0  0
  9  1  1  0  0  0  0
 10 18  1  0  0  0  0
 11 20  2  0  0  0  0
 11  4  1  0  0  0  0
 13  8  1  0  0  0  0
 14  5  1  0  0  0  0
 14  1  2  0  0  0  0
 15 20  1  0  0  0  0
 16 12  1  0  0  0  0
 16 17  1  0  0  0  0
 18 13  1  0  0  0  0
 19 10  1  0  0  0  0
 19  3  2  0  0  0  0
 20 19  1  0  0  0  0
 22 25  1  0  0  0  0
 22 21  2  0  0  0  0
 23 22  1  0  0  0  0
 24 25  2  0  0  0  0
 25 27  1  0  0  0  0
 27 26  1  6  0  0  0
 27 28  1  0  0  0  0
 28 29  1  0  0  0  0
 29 30  1  6  0  0  0
 29 31  1  0  0  0  0
M  END
>  <MODEL>
4

>  <REMARK>
 VINA RESULT:      -8.3      3.536      5.516
  Name = 
  5 active torsions:
  status: ('A' for Active; 'I' for Inactive)
    1  A    between atoms: C_1  and  C_24
    2  A    between atoms: C_9  and  C_22
    3  A    between atoms: C_15  and  N_23
    4  A    between atoms: C_19  and  C_22
    5  A    between atoms: C_19  and  C_24
                            x       y       z     vdW  Elec       q    Type
                         _______ _______ _______ _____ _____    ______ ____

>  <TORSDO>
F 5

$$$$
=
 OpenBabel11052422403D

 31 34  0  0  1  0  0  0  0  0999 V2000
  160.9460  204.3400  151.8490 C   0  0  0  0  0  0  0  0  0  0  0  0
  161.1980  207.9660  152.8020 C   0  0  0  0  0  0  0  0  0  0  0  0
  160.8490  208.0360  154.2630 C   0  0  0  0  0  0  0  0  0  0  0  0
  160.3790  206.9890  156.4160 C   0  0  0  0  0  3  0  0  0  0  0  0
  161.2160  206.7570  152.0500 C   0  0  0  0  0  0  0  0  0  0  0  0
  161.2610  204.4060  150.4920 C   0  0  0  0  0  3  0  0  0  0  0  0
  160.7630  206.8930  155.0760 C   0  0  0  0  0  3  0  0  0  0  0  0
  161.7810  209.1680  150.7520 C   0  0  0  0  0  0  0  0  0  0  0  0
  160.6640  203.1450  152.4220 F   0  0  0  0  0  0  0  0  0  0  0  0
  160.6960  210.4720  154.0530 N   0  0  0  0  0  2  0  0  0  0  0  0
  160.0690  208.2330  156.9640 C   0  0  0  0  0  3  0  0  0  0  0  0
  161.7960  207.9920  150.0730 N   0  0  0  0  0  0  0  0  0  0  0  0
  161.4710  209.1810  152.1210 C   0  0  0  0  0  0  0  0  0  0  0  0
  160.9230  205.5050  152.6190 C   0  0  0  0  0  3  0  0  0  0  0  0
  159.8510  210.6180  156.7370 O   0  0  0  0  0  1  0  0  0  0  0  0
  161.5250  206.8080  150.6700 C   0  0  0  0  0  0  0  0  0  0  0  0
  161.5480  205.6390  149.9040 C   0  0  0  0  0  3  0  0  0  0  0  0
  161.5390  210.4880  152.8660 C   0  0  0  0  0  2  0  0  0  0  0  0
  160.5660  209.2900  154.8410 C   0  0  0  0  0  0  0  0  0  0  0  0
  160.1570  209.3830  156.1790 C   0  0  0  0  0  0  0  0  0  0  0  0
  161.5820  209.7200  147.8910 O   0  0  0  0  0  0  0  0  0  0  0  0
  161.9680  210.6370  148.6660 C   0  0  0  0  0  0  0  0  0  0  0  0
  162.0800  210.3990  150.0760 N   0  0  0  0  0  2  0  0  0  0  0  0
  163.5700  212.3000  147.9010 C   0  0  0  0  0  2  0  0  0  0  0  0
  162.3000  211.9620  148.1130 C   0  0  0  0  0  0  0  0  0  0  0  0
  160.0320  212.2370  147.4550 O   0  0  0  0  0  1  0  0  0  0  0  0
  161.1990  212.9290  147.7820 C   0  0  2  0  0  3  0  0  0  0  0  0
  161.5800  213.8680  146.6360 C   0  0  0  0  0  2  0  0  0  0  0  0
  161.2470  213.3050  145.2540 C   0  0  1  0  0  3  0  0  0  0  0  0
  160.4270  214.2860  144.4350 C   0  0  0  0  0  1  0  0  0  0  0  0
  162.4060  212.9530  144.5640 O   0  0  0  0  0  1  0  0  0  0  0  0
  1  9  1  0  0  0  0
  1 14  1  0  0  0  0
  2  3  1  0  0  0  0
  3 19  2  0  0  0  0
  3  7  1  0  0  0  0
  4 11  1  0  0  0  0
  5 14  2  0  0  0  0
  5  2  1  0  0  0  0
  6  1  2  0  0  0  0
  7  4  2  0  0  0  0
  8 13  1  0  0  0  0
 10 19  1  0  0  0  0
 12 16  1  0  0  0  0
 12  8  2  0  0  0  0
 13  2  2  0  0  0  0
 13 18  1  0  0  0  0
 16  5  1  0  0  0  0
 17  6  1  0  0  0  0
 17 16  2  0  0  0  0
 18 10  1  0  0  0  0
 19 20  1  0  0  0  0
 20 15  1  0  0  0  0
 20 11  2  0  0  0  0
 21 22  2  0  0  0  0
 22 23  1  0  0  0  0
 23  8  1  0  0  0  0
 24 25  2  0  0  0  0
 25 22  1  0  0  0  0
 27 26  1  6  0  0  0
 27 25  1  0  0  0  0
 28 27  1  0  0  0  0
 29 30  1  6  0  0  0
 29 28  1  0  0  0  0
 31 29  1  0  0  0  0
M  END
>  <MODEL>
5

>  <REMARK>
 VINA RESULT:      -8.2      2.209      5.337
  Name = 
  5 active torsions:
  status: ('A' for Active; 'I' for Inactive)
    1  A    between atoms: C_1  and  C_24
    2  A    between atoms: C_9  and  C_22
    3  A    between atoms: C_15  and  N_23
    4  A    between atoms: C_19  and  C_22
    5  A    between atoms: C_19  and  C_24
                            x       y       z     vdW  Elec       q    Type
                         _______ _______ _______ _____ _____    ______ ____

>  <TORSDO>
F 5

$$$$
=
 OpenBabel11052422403D

 31 34  0  0  1  0  0  0  0  0999 V2000
  161.2130  213.0410  149.7470 C   0  0  0  0  0  0  0  0  0  0  0  0
  161.3400  209.4740  150.9190 C   0  0  0  0  0  0  0  0  0  0  0  0
  160.9160  209.4960  152.3630 C   0  0  0  0  0  0  0  0  0  0  0  0
  159.9980  210.6290  154.3180 C   0  0  0  0  0  3  0  0  0  0  0  0
  161.4290  210.6360  150.1040 C   0  0  0  0  0  0  0  0  0  0  0  0
  161.6430  212.8950  148.4270 C   0  0  0  0  0  3  0  0  0  0  0  0
  160.3250  210.6220  152.9600 C   0  0  0  0  0  3  0  0  0  0  0  0
  162.1470  208.1620  149.0180 C   0  0  0  0  0  0  0  0  0  0  0  0
  160.8950  214.2680  150.2240 F   0  0  0  0  0  0  0  0  0  0  0  0
  161.6960  207.1820  152.5700 N   0  0  0  0  0  2  0  0  0  0  0  0
  160.2620  209.5080  155.1040 C   0  0  0  0  0  3  0  0  0  0  0  0
  162.2110  209.2930  148.2710 N   0  0  0  0  0  0  0  0  0  0  0  0
  161.7240  208.2290  150.3550 C   0  0  0  0  0  0  0  0  0  0  0  0
  161.1090  211.9210  150.5750 C   0  0  0  0  0  3  0  0  0  0  0  0
  161.0930  207.2600  155.3220 O   0  0  0  0  0  1  0  0  0  0  0  0
  161.8720  210.5070  148.7660 C   0  0  0  0  0  0  0  0  0  0  0  0
  161.9740  211.6300  147.9390 C   0  0  0  0  0  3  0  0  0  0  0  0
  161.5880  206.9490  151.1370 C   0  0  0  0  0  2  0  0  0  0  0  0
  161.1450  208.3580  153.1620 C   0  0  0  0  0  0  0  0  0  0  0  0
  160.8390  208.3740  154.5310 C   0  0  0  0  0  0  0  0  0  0  0  0
  160.6160  206.5640  147.1130 O   0  0  0  0  0  0  0  0  0  0  0  0
  161.7340  206.1380  147.5100 C   0  0  0  0  0  0  0  0  0  0  0  0
  162.5110  206.8950  148.4480 N   0  0  0  0  0  2  0  0  0  0  0  0
  163.0830  204.8270  145.9660 C   0  0  0  0  0  2  0  0  0  0  0  0
  162.2430  204.8520  146.9990 C   0  0  0  0  0  0  0  0  0  0  0  0
  161.2060  202.7310  146.7150 O   0  0  0  0  0  1  0  0  0  0  0  0
  161.8140  203.5680  147.6520 C   0  0  2  0  0  3  0  0  0  0  0  0
  160.8620  203.8080  148.8240 C   0  0  0  0  0  2  0  0  0  0  0  0
  160.9920  202.7650  149.9350 C   0  0  1  0  0  3  0  0  0  0  0  0
  160.8300  203.3910  151.3090 C   0  0  0  0  0  1  0  0  0  0  0  0
  160.0700  201.7330  149.7640 O   0  0  0  0  0  1  0  0  0  0  0  0
  1  9  1  0  0  0  0
  1 14  1  0  0  0  0
  2  3  1  0  0  0  0
  3  7  2  0  0  0  0
  3 19  1  0  0  0  0
  4 11  2  0  0  0  0
  5 14  2  0  0  0  0
  5  2  1  0  0  0  0
  6  1  2  0  0  0  0
  7  4  1  0  0  0  0
  8 13  1  0  0  0  0
 10 19  1  0  0  0  0
 12 16  1  0  0  0  0
 12  8  2  0  0  0  0
 13  2  2  0  0  0  0
 13 18  1  0  0  0  0
 16  5  1  0  0  0  0
 17  6  1  0  0  0  0
 17 16  2  0  0  0  0
 18 10  1  0  0  0  0
 19 20  2  0  0  0  0
 20 11  1  0  0  0  0
 20 15  1  0  0  0  0
 21 22  2  0  0  0  0
 22 23  1  0  0  0  0
 23  8  1  0  0  0  0
 24 25  2  0  0  0  0
 25 22  1  0  0  0  0
 25 27  1  0  0  0  0
 27 26  1  6  0  0  0
 27 28  1  0  0  0  0
 28 29  1  0  0  0  0
 29 30  1  1  0  0  0
 31 29  1  0  0  0  0
M  END
>  <MODEL>
6

>  <REMARK>
 VINA RESULT:      -8.2      3.199      7.891
  Name = 
  5 active torsions:
  status: ('A' for Active; 'I' for Inactive)
    1  A    between atoms: C_1  and  C_24
    2  A    between atoms: C_9  and  C_22
    3  A    between atoms: C_15  and  N_23
    4  A    between atoms: C_19  and  C_22
    5  A    between atoms: C_19  and  C_24
                            x       y       z     vdW  Elec       q    Type
                         _______ _______ _______ _____ _____    ______ ____

>  <TORSDO>
F 5

$$$$
=
 OpenBabel11052422403D

 31 34  0  0  1  0  0  0  0  0999 V2000
  161.5560  212.5600  149.5010 C   0  0  0  0  0  0  0  0  0  0  0  0
  161.0020  209.8020  151.9910 C   0  0  0  0  0  0  0  0  0  0  0  0
  160.6000  210.4770  153.2740 C   0  0  0  0  0  0  0  0  0  0  0  0
  159.9290  212.4420  154.5530 C   0  0  0  0  0  3  0  0  0  0  0  0
  161.3080  210.5040  150.7910 C   0  0  0  0  0  0  0  0  0  0  0  0
  161.9420  211.8240  148.3800 C   0  0  0  0  0  3  0  0  0  0  0  0
  160.2400  211.8340  153.3350 C   0  0  0  0  0  3  0  0  0  0  0  0
  161.5300  207.7170  150.8240 C   0  0  0  0  0  0  0  0  0  0  0  0
  161.4830  213.9110  149.4310 F   0  0  0  0  0  0  0  0  0  0  0  0
  160.9210  208.3410  154.4320 N   0  0  0  0  0  2  0  0  0  0  0  0
  159.9770  211.7020  155.7340 C   0  0  0  0  0  3  0  0  0  0  0  0
  161.8050  208.4230  149.6980 N   0  0  0  0  0  0  0  0  0  0  0  0
  161.1370  208.3890  151.9920 C   0  0  0  0  0  0  0  0  0  0  0  0
  161.2440  211.9050  150.6930 C   0  0  0  0  0  3  0  0  0  0  0  0
  160.3620  209.6220  156.8800 O   0  0  0  0  0  1  0  0  0  0  0  0
  161.7090  209.7720  149.6480 C   0  0  0  0  0  0  0  0  0  0  0  0
  162.0200  210.4330  148.4550 C   0  0  0  0  0  3  0  0  0  0  0  0
  160.7620  207.5770  153.2040 C   0  0  0  0  0  2  0  0  0  0  0  0
  160.6110  209.7330  154.4720 C   0  0  0  0  0  0  0  0  0  0  0  0
  160.3220  210.3510  155.6970 C   0  0  0  0  0  0  0  0  0  0  0  0
  160.0770  205.8180  149.1470 O   0  0  0  0  0  0  0  0  0  0  0  0
  160.9110  205.3810  149.9850 C   0  0  0  0  0  0  0  0  0  0  0  0
  161.6400  206.2850  150.8280 N   0  0  0  0  0  2  0  0  0  0  0  0
  161.6070  203.4050  151.2240 C   0  0  0  0  0  2  0  0  0  0  0  0
  161.1380  203.9280  150.0930 C   0  0  0  0  0  0  0  0  0  0  0  0
  160.6370  201.7250  149.3540 O   0  0  0  0  0  1  0  0  0  0  0  0
  160.8310  203.0380  148.9220 C   0  0  2  0  0  3  0  0  0  0  0  0
  161.9360  203.0740  147.8640 C   0  0  0  0  0  2  0  0  0  0  0  0
  161.5820  203.9270  146.6460 C   0  0  1  0  0  3  0  0  0  0  0  0
  162.7010  204.8920  146.2960 C   0  0  0  0  0  1  0  0  0  0  0  0
  161.2740  203.1270  145.5460 O   0  0  0  0  0  1  0  0  0  0  0  0
  1 14  1  0  0  0  0
  2 13  2  0  0  0  0
  2  3  1  0  0  0  0
  3  7  2  0  0  0  0
  3 19  1  0  0  0  0
  4 11  2  0  0  0  0
  5  2  1  0  0  0  0
  6 17  1  0  0  0  0
  6  1  2  0  0  0  0
  7  4  1  0  0  0  0
  8 23  1  0  0  0  0
  8 13  1  0  0  0  0
  9  1  1  0  0  0  0
 10 19  1  0  0  0  0
 12  8  2  0  0  0  0
 13 18  1  0  0  0  0
 14  5  2  0  0  0  0
 16 12  1  0  0  0  0
 16  5  1  0  0  0  0
 17 16  2  0  0  0  0
 18 10  1  0  0  0  0
 19 20  2  0  0  0  0
 20 11  1  0  0  0  0
 20 15  1  0  0  0  0
 21 22  2  0  0  0  0
 22 25  1  0  0  0  0
 22 23  1  0  0  0  0
 25 24  2  0  0  0  0
 27 26  1  1  0  0  0
 27 25  1  0  0  0  0
 28 27  1  0  0  0  0
 29 30  1  6  0  0  0
 29 28  1  0  0  0  0
 31 29  1  0  0  0  0
M  END
>  <MODEL>
7

>  <REMARK>
 VINA RESULT:      -7.6      3.522      8.324
  Name = 
  5 active torsions:
  status: ('A' for Active; 'I' for Inactive)
    1  A    between atoms: C_1  and  C_24
    2  A    between atoms: C_9  and  C_22
    3  A    between atoms: C_15  and  N_23
    4  A    between atoms: C_19  and  C_22
    5  A    between atoms: C_19  and  C_24
                            x       y       z     vdW  Elec       q    Type
                         _______ _______ _______ _____ _____    ______ ____

>  <TORSDO>
F 5

$$$$
=
 OpenBabel11052422403D

 31 34  0  0  1  0  0  0  0  0999 V2000
  161.3920  204.4530  147.5900 C   0  0  0  0  0  0  0  0  0  0  0  0
  161.6120  207.1620  150.1830 C   0  0  0  0  0  0  0  0  0  0  0  0
  161.3920  206.4860  151.5090 C   0  0  0  0  0  0  0  0  0  0  0  0
  161.1490  204.4930  152.8930 C   0  0  0  0  0  3  0  0  0  0  0  0
  161.6020  206.4780  148.9360 C   0  0  0  0  0  0  0  0  0  0  0  0
  161.5830  205.1940  146.4230 C   0  0  0  0  0  3  0  0  0  0  0  0
  161.4160  205.0890  151.6590 C   0  0  0  0  0  3  0  0  0  0  0  0
  161.9720  209.2490  148.9570 C   0  0  0  0  0  0  0  0  0  0  0  0
  161.2000  203.1140  147.5170 F   0  0  0  0  0  0  0  0  0  0  0  0
  161.1440  208.6980  152.5330 N   0  0  0  0  0  2  0  0  0  0  0  0
  160.8500  205.2860  154.0000 C   0  0  0  0  0  3  0  0  0  0  0  0
  161.9640  208.5580  147.7890 N   0  0  0  0  0  0  0  0  0  0  0  0
  161.7850  208.5710  150.1720 C   0  0  0  0  0  0  0  0  0  0  0  0
  161.4010  205.0900  148.8320 C   0  0  0  0  0  3  0  0  0  0  0  0
  160.5370  207.4570  154.9890 O   0  0  0  0  0  1  0  0  0  0  0  0
  161.7850  207.2170  147.7430 C   0  0  0  0  0  0  0  0  0  0  0  0
  161.7770  206.5740  146.5010 C   0  0  0  0  0  3  0  0  0  0  0  0
  161.8770  209.3500  151.4580 C   0  0  0  0  0  2  0  0  0  0  0  0
  161.1220  207.2760  152.6450 C   0  0  0  0  0  0  0  0  0  0  0  0
  160.8310  206.6750  153.8790 C   0  0  0  0  0  0  0  0  0  0  0  0
  160.8090  211.2070  147.1280 O   0  0  0  0  0  0  0  0  0  0  0  0
  161.5790  211.6060  148.0430 C   0  0  0  0  0  0  0  0  0  0  0  0
  162.1710  210.6710  148.9570 N   0  0  0  0  0  2  0  0  0  0  0  0
  163.0790  213.5150  147.8850 C   0  0  0  0  0  2  0  0  0  0  0  0
  161.8670  213.0460  148.1720 C   0  0  0  0  0  0  0  0  0  0  0  0
  160.8500  214.1660  150.0060 O   0  0  0  0  0  1  0  0  0  0  0  0
  160.7840  213.9840  148.6240 C   0  0  2  0  0  3  0  0  0  0  0  0
  159.3900  213.4870  148.2360 C   0  0  0  0  0  2  0  0  0  0  0  0
  158.6620  214.4170  147.2660 C   0  0  1  0  0  3  0  0  0  0  0  0
  159.0730  214.1560  145.8280 C   0  0  0  0  0  1  0  0  0  0  0  0
  157.2790  214.3000  147.4010 O   0  0  0  0  0  1  0  0  0  0  0  0
  1 14  1  0  0  0  0
  2  3  1  0  0  0  0
  3  7  2  0  0  0  0
  3 19  1  0  0  0  0
  4 11  2  0  0  0  0
  5  2  1  0  0  0  0
  6 17  1  0  0  0  0
  6  1  2  0  0  0  0
  7  4  1  0  0  0  0
  8 23  1  0  0  0  0
  8 13  1  0  0  0  0
  9  1  1  0  0  0  0
 10 19  1  0  0  0  0
 12  8  2  0  0  0  0
 13  2  2  0  0  0  0
 13 18  1  0  0  0  0
 14  5  2  0  0  0  0
 16 12  1  0  0  0  0
 16  5  1  0  0  0  0
 17 16  2  0  0  0  0
 18 10  1  0  0  0  0
 19 20  2  0  0  0  0
 20 11  1  0  0  0  0
 20 15  1  0  0  0  0
 21 22  2  0  0  0  0
 22 25  1  0  0  0  0
 22 23  1  0  0  0  0
 24 25  2  0  0  0  0
 25 27  1  0  0  0  0
 27 26  1  1  0  0  0
 28 27  1  0  0  0  0
 29 30  1  6  0  0  0
 29 31  1  0  0  0  0
 29 28  1  0  0  0  0
M  END
>  <MODEL>
8

>  <REMARK>
 VINA RESULT:      -7.6      2.482      4.690
  Name = 
  5 active torsions:
  status: ('A' for Active; 'I' for Inactive)
    1  A    between atoms: C_1  and  C_24
    2  A    between atoms: C_9  and  C_22
    3  A    between atoms: C_15  and  N_23
    4  A    between atoms: C_19  and  C_22
    5  A    between atoms: C_19  and  C_24
                            x       y       z     vdW  Elec       q    Type
                         _______ _______ _______ _____ _____    ______ ____

>  <TORSDO>
F 5

$$$$
=
 OpenBabel11052422403D

 31 34  0  0  1  0  0  0  0  0999 V2000
  161.9410  207.0980  147.2320 C   0  0  0  0  0  0  0  0  0  0  0  0
  161.3300  204.9520  150.2550 C   0  0  0  0  0  0  0  0  0  0  0  0
  161.1410  203.5520  149.7380 C   0  0  0  0  0  0  0  0  0  0  0  0
  161.2100  201.8890  147.9550 C   0  0  0  0  0  3  0  0  0  0  0  0
  161.5820  206.0760  149.4190 C   0  0  0  0  0  0  0  0  0  0  0  0
  162.0720  208.3530  147.8270 C   0  0  0  0  0  3  0  0  0  0  0  0
  161.4530  203.1840  148.4180 C   0  0  0  0  0  3  0  0  0  0  0  0
  161.3400  206.4670  152.1770 C   0  0  0  0  0  0  0  0  0  0  0  0
  162.0510  206.9710  145.8880 F   0  0  0  0  0  0  0  0  0  0  0  0
  160.3270  202.9020  151.9560 N   0  0  0  0  0  2  0  0  0  0  0  0
  160.6460  200.9390  148.8060 C   0  0  0  0  0  3  0  0  0  0  0  0
  161.5880  207.5110  151.3460 N   0  0  0  0  0  0  0  0  0  0  0  0
  161.1930  205.1740  151.6500 C   0  0  0  0  0  0  0  0  0  0  0  0
  161.6970  205.9720  148.0220 C   0  0  0  0  0  3  0  0  0  0  0  0
  159.7810  200.3220  150.9640 O   0  0  0  0  0  1  0  0  0  0  0  0
  161.7100  207.3570  150.0070 C   0  0  0  0  0  0  0  0  0  0  0  0
  161.9550  208.4810  149.2120 C   0  0  0  0  0  3  0  0  0  0  0  0
  160.9960  204.0220  152.6010 C   0  0  0  0  0  2  0  0  0  0  0  0
  160.6030  202.5710  150.5960 C   0  0  0  0  0  0  0  0  0  0  0  0
  160.3380  201.2780  150.1240 C   0  0  0  0  0  0  0  0  0  0  0  0
  160.5240  208.9120  153.5490 O   0  0  0  0  0  0  0  0  0  0  0  0
  160.8170  207.8950  154.2340 C   0  0  0  0  0  0  0  0  0  0  0  0
  161.2250  206.6780  153.5920 N   0  0  0  0  0  2  0  0  0  0  0  0
  160.1850  206.9600  156.3900 C   0  0  0  0  0  2  0  0  0  0  0  0
  160.7330  207.9610  155.7040 C   0  0  0  0  0  0  0  0  0  0  0  0
  162.3310  208.7860  157.2580 O   0  0  0  0  0  1  0  0  0  0  0  0
  161.2740  209.1610  156.4280 C   0  0  2  0  0  3  0  0  0  0  0  0
  160.1990  209.8720  157.2510 C   0  0  0  0  0  2  0  0  0  0  0  0
  159.5110  211.0110  156.4970 C   0  0  1  0  0  3  0  0  0  0  0  0
  160.4930  211.7780  155.6300 C   0  0  0  0  0  1  0  0  0  0  0  0
  158.4550  210.5340  155.7230 O   0  0  0  0  0  1  0  0  0  0  0  0
  1  6  2  0  0  0  0
  1 14  1  0  0  0  0
  2 13  2  0  0  0  0
  3  2  1  0  0  0  0
  3 19  1  0  0  0  0
  4  7  1  0  0  0  0
  4 11  2  0  0  0  0
  5 16  1  0  0  0  0
  5  2  1  0  0  0  0
  6 17  1  0  0  0  0
  7  3  2  0  0  0  0
  8 23  1  0  0  0  0
  9  1  1  0  0  0  0
 10 18  1  0  0  0  0
 11 20  1  0  0  0  0
 12  8  2  0  0  0  0
 13  8  1  0  0  0  0
 13 18  1  0  0  0  0
 14  5  2  0  0  0  0
 16 12  1  0  0  0  0
 17 16  2  0  0  0  0
 19 10  1  0  0  0  0
 20 19  2  0  0  0  0
 20 15  1  0  0  0  0
 21 22  2  0  0  0  0
 22 25  1  0  0  0  0
 23 22  1  0  0  0  0
 25 24  2  0  0  0  0
 25 27  1  0  0  0  0
 27 28  1  0  0  0  0
 27 26  1  1  0  0  0
 29 30  1  6  0  0  0
 29 28  1  0  0  0  0
 31 29  1  0  0  0  0
M  END
>  <MODEL>
9

>  <REMARK>
 VINA RESULT:      -7.6      4.174      6.915
  Name = 
  5 active torsions:
  status: ('A' for Active; 'I' for Inactive)
    1  A    between atoms: C_1  and  C_24
    2  A    between atoms: C_9  and  C_22
    3  A    between atoms: C_15  and  N_23
    4  A    between atoms: C_19  and  C_22
    5  A    between atoms: C_19  and  C_24
                            x       y       z     vdW  Elec       q    Type
                         _______ _______ _______ _____ _____    ______ ____

>  <TORSDO>
F 5

$$$$
