=
 OpenBabel11062408173D

 32 37  0  0  1  0  0  0  0  0999 V2000
  160.9790  209.9950  155.4520 C   0  0  0  0  0  0  0  0  0  0  0  0
  160.7100  209.2350  154.1170 C   0  0  2  0  0  3  0  0  0  0  0  0
  159.9020  206.9850  155.8800 C   0  0  0  0  0  2  0  0  0  0  0  0
  160.8290  206.6630  150.4310 C   0  0  0  0  0  2  0  0  0  0  0  0
  161.4480  207.8860  154.0160 C   0  0  1  0  0  3  0  0  0  0  0  0
  161.0090  204.7430  152.0570 C   0  0  0  0  0  2  0  0  0  0  0  0
  161.1200  205.7870  153.1190 C   0  0  2  0  0  3  0  0  0  0  0  0
  161.2410  206.8490  155.1550 C   0  0  2  0  0  3  0  0  0  0  0  0
  162.3540  209.8500  156.0830 C   0  0  0  0  0  2  0  0  0  0  0  0
  161.2190  205.5460  154.4120 C   0  0  0  0  0  2  0  0  0  0  0  0
  159.9370  210.1720  156.3890 O   0  0  0  0  0  0  0  0  0  0  0  0
  161.9490  211.1600  155.4350 C   0  0  0  0  0  2  0  0  0  0  0  0
  160.1970  209.1810  151.2880 S   0  0  0  0  0  0  0  0  0  0  0  0
  159.9950  207.9200  156.9140 O   0  0  0  0  0  0  0  0  0  0  0  0
  160.6900  210.1170  152.8180 C   0  0  1  0  0  0  0  0  0  0  0  0
  161.0800  207.1670  152.8200 N   0  0  2  0  0  0  0  0  0  0  0  0
  159.1900  208.9830  156.4930 C   0  0  0  0  0  2  0  0  0  0  0  0
  161.4900  205.3140  150.7210 C   0  0  0  0  0  2  0  0  0  0  0  0
  161.2410  207.7020  151.4780 C   0  0  1  0  0  3  0  0  0  0  0  0
  158.5750  213.3190  152.4870 C   0  0  0  0  0  3  0  0  0  0  0  0
  157.5340  211.8670  154.1120 C   0  0  0  0  0  3  0  0  0  0  0  0
  159.5950  211.1650  153.0100 C   0  0  0  0  0  0  0  0  0  0  0  0
  157.5400  213.0640  153.3960 C   0  0  0  0  0  0  0  0  0  0  0  0
  158.5500  210.9290  153.9220 C   0  0  0  0  0  3  0  0  0  0  0  0
  159.5970  212.3870  152.2920 C   0  0  0  0  0  0  0  0  0  0  0  0
  160.6070  212.6840  151.3840 O   0  0  0  0  0  1  0  0  0  0  0  0
  155.5360  213.6130  154.7530 C   0  0  0  0  0  1  0  0  0  0  0  0
  155.6550  214.2140  152.4000 N   0  0  0  0  0  1  0  0  0  0  0  0
  156.4370  214.0490  153.6120 C   0  0  2  0  0  3  0  0  0  0  0  0
  161.9210  210.8050  152.6060 O   0  0  0  0  0  0  0  0  0  0  0  0
  162.7350  210.1350  151.6820 C   0  0  0  0  0  2  0  0  0  0  0  0
  162.5830  210.7770  150.3180 C   0  0  0  0  0  1  0  0  0  0  0  0
  1  9  1  0  0  0  0
  1 11  1  0  0  0  0
  2  1  1  1  0  0  0
  3 14  1  0  0  0  0
  4 18  1  0  0  0  0
  4 19  1  0  0  0  0
  5  2  1  0  0  0  0
  5  8  1  0  0  0  0
  6  7  1  0  0  0  0
  7 10  1  0  0  0  0
  8  3  1  0  0  0  0
 10  8  1  0  0  0  0
 11 17  1  0  0  0  0
 12  1  1  0  0  0  0
 12  9  1  0  0  0  0
 13 19  1  0  0  0  0
 13 15  1  0  0  0  0
 15 22  1  0  0  0  0
 15  2  1  0  0  0  0
 16  7  1  0  0  0  0
 16  5  1  0  0  0  0
 17 14  1  0  0  0  0
 18  6  1  0  0  0  0
 19 16  1  0  0  0  0
 20 23  1  0  0  0  0
 22 24  2  0  0  0  0
 23 29  1  0  0  0  0
 23 21  2  0  0  0  0
 24 21  1  0  0  0  0
 25 20  2  0  0  0  0
 25 22  1  0  0  0  0
 26 25  1  0  0  0  0
 28 29  1  0  0  0  0
 29 27  1  0  0  0  0
 30 15  1  0  0  0  0
 31 30  1  0  0  0  0
 32 31  1  0  0  0  0
M  END
>  <MODEL>
1

>  <REMARK>
 VINA RESULT:      -1.9      0.000      0.000
  Name = 
  4 active torsions:
  status: ('A' for Active; 'I' for Inactive)
    1  A    between atoms: O_1  and  C_4
    2  A    between atoms: O_1  and  C_27
    3  A    between atoms: C_16  and  C_27
    4  A    between atoms: C_19  and  C_26
                            x       y       z     vdW  Elec       q    Type
                         _______ _______ _______ _____ _____    ______ ____

>  <TORSDO>
F 4

$$$$
=
 OpenBabel11062408173D

 32 37  0  0  1  0  0  0  0  0999 V2000
  161.8410  211.9050  148.5670 C   0  0  0  0  0  0  0  0  0  0  0  0
  160.9340  211.6480  149.8100 C   0  0  2  0  0  3  0  0  0  0  0  0
  158.9480  213.3170  148.3630 C   0  0  0  0  0  2  0  0  0  0  0  0
  158.6450  211.7930  153.6780 C   0  0  0  0  0  2  0  0  0  0  0  0
  160.4040  212.9390  150.4640 C   0  0  1  0  0  3  0  0  0  0  0  0
  157.5370  213.8260  152.6790 C   0  0  0  0  0  2  0  0  0  0  0  0
  158.5160  213.6850  151.5600 C   0  0  2  0  0  3  0  0  0  0  0  0
  159.6380  213.9530  149.5700 C   0  0  2  0  0  3  0  0  0  0  0  0
  162.7140  213.1490  148.5750 C   0  0  0  0  0  2  0  0  0  0  0  0
  158.5630  214.4530  150.4900 C   0  0  0  0  0  2  0  0  0  0  0  0
  161.4030  211.5240  147.2800 O   0  0  0  0  0  0  0  0  0  0  0  0
  163.3420  211.7770  148.7320 C   0  0  0  0  0  2  0  0  0  0  0  0
  160.2070  210.1470  152.1520 S   0  0  0  0  0  0  0  0  0  0  0  0
  159.8320  213.2220  147.2850 O   0  0  0  0  0  0  0  0  0  0  0  0
  161.4160  210.5190  150.7890 C   0  0  1  0  0  0  0  0  0  0  0  0
  159.4800  212.6510  151.5350 N   0  0  2  0  0  0  0  0  0  0  0  0
  160.0410  211.8480  147.1310 C   0  0  0  0  0  2  0  0  0  0  0  0
  158.1120  213.2010  153.9510 C   0  0  0  0  0  2  0  0  0  0  0  0
  159.8180  211.8410  152.6930 C   0  0  1  0  0  3  0  0  0  0  0  0
  161.2220  206.8160  149.7450 C   0  0  0  0  0  3  0  0  0  0  0  0
  162.0220  208.1100  147.8690 C   0  0  0  0  0  3  0  0  0  0  0  0
  161.4990  209.2300  149.9730 C   0  0  0  0  0  0  0  0  0  0  0  0
  161.6620  206.8790  148.4160 C   0  0  0  0  0  0  0  0  0  0  0  0
  161.9430  209.2710  148.6380 C   0  0  0  0  0  3  0  0  0  0  0  0
  161.1410  207.9740  150.5230 C   0  0  0  0  0  0  0  0  0  0  0  0
  160.7060  207.8640  151.8380 O   0  0  0  0  0  1  0  0  0  0  0  0
  161.0800  205.8700  146.2240 C   0  0  0  0  0  1  0  0  0  0  0  0
  161.1380  204.5200  148.2470 N   0  0  0  0  0  1  0  0  0  0  0  0
  161.7490  205.6500  147.5690 C   0  0  2  0  0  3  0  0  0  0  0  0
  162.7100  210.7790  151.3280 O   0  0  0  0  0  0  0  0  0  0  0  0
  163.0250  209.8940  152.3680 C   0  0  0  0  0  2  0  0  0  0  0  0
  162.9380  210.6210  153.6940 C   0  0  0  0  0  1  0  0  0  0  0  0
  1  9  1  0  0  0  0
  1 12  1  0  0  0  0
  2  1  1  6  0  0  0
  2  5  1  0  0  0  0
  2 15  1  0  0  0  0
  3  8  1  0  0  0  0
  4 18  1  0  0  0  0
  5 16  1  0  0  0  0
  6 18  1  0  0  0  0
  7  6  1  0  0  0  0
  8  5  1  0  0  0  0
  8 10  1  0  0  0  0
  9 12  1  0  0  0  0
 10  7  1  0  0  0  0
 11  1  1  0  0  0  0
 13 19  1  0  0  0  0
 14  3  1  0  0  0  0
 15 30  1  0  0  0  0
 15 13  1  0  0  0  0
 16  7  1  0  0  0  0
 16 19  1  0  0  0  0
 17 11  1  0  0  0  0
 17 14  1  0  0  0  0
 19  4  1  0  0  0  0
 20 25  1  0  0  0  0
 21 23  1  0  0  0  0
 21 24  2  0  0  0  0
 22 25  2  0  0  0  0
 22 15  1  0  0  0  0
 23 20  2  0  0  0  0
 24 22  1  0  0  0  0
 25 26  1  0  0  0  0
 27 29  1  0  0  0  0
 29 28  1  0  0  0  0
 29 23  1  0  0  0  0
 30 31  1  0  0  0  0
 31 32  1  0  0  0  0
M  END
>  <MODEL>
2

>  <REMARK>
 VINA RESULT:      -0.2      2.934      7.793
  Name = 
  4 active torsions:
  status: ('A' for Active; 'I' for Inactive)
    1  A    between atoms: O_1  and  C_4
    2  A    between atoms: O_1  and  C_27
    3  A    between atoms: C_16  and  C_27
    4  A    between atoms: C_19  and  C_26
                            x       y       z     vdW  Elec       q    Type
                         _______ _______ _______ _____ _____    ______ ____

>  <TORSDO>
F 4

$$$$
=
 OpenBabel11062408173D

 32 37  0  0  1  0  0  0  0  0999 V2000
  161.9680  210.3540  153.1080 C   0  0  0  0  0  0  0  0  0  0  0  0
  160.4970  210.2470  153.6170 C   0  0  2  0  0  3  0  0  0  0  0  0
  159.8950  212.1800  151.4430 C   0  0  0  0  0  2  0  0  0  0  0  0
  156.4790  210.7680  155.5670 C   0  0  0  0  0  2  0  0  0  0  0  0
  159.8640  211.6090  153.9630 C   0  0  1  0  0  3  0  0  0  0  0  0
  156.3920  212.9350  154.2780 C   0  0  0  0  0  2  0  0  0  0  0  0
  157.8010  212.6380  153.8830 C   0  0  2  0  0  3  0  0  0  0  0  0
  159.8670  212.7170  152.8740 C   0  0  2  0  0  3  0  0  0  0  0  0
  162.8390  211.4530  153.6930 C   0  0  0  0  0  2  0  0  0  0  0  0
  158.5370  213.3810  153.0790 C   0  0  0  0  0  2  0  0  0  0  0  0
  162.2790  210.0300  151.7690 O   0  0  0  0  0  0  0  0  0  0  0  0
  163.0880  210.0040  154.0670 C   0  0  0  0  0  2  0  0  0  0  0  0
  158.3980  208.8940  155.0430 S   0  0  0  0  0  0  0  0  0  0  0  0
  161.2090  211.9430  151.0320 O   0  0  0  0  0  0  0  0  0  0  0  0
  160.1990  209.0680  154.6100 C   0  0  1  0  0  0  0  0  0  0  0  0
  158.4710  211.4720  154.3170 N   0  0  2  0  0  0  0  0  0  0  0  0
  161.2890  210.5520  150.9160 C   0  0  0  0  0  2  0  0  0  0  0  0
  156.0710  212.2430  155.6040 C   0  0  0  0  0  2  0  0  0  0  0  0
  157.9960  210.6320  155.4040 C   0  0  1  0  0  3  0  0  0  0  0  0
  161.1370  205.4030  153.8850 C   0  0  0  0  0  3  0  0  0  0  0  0
  160.9530  206.5870  151.7870 C   0  0  0  0  0  3  0  0  0  0  0  0
  160.5560  207.7730  153.8820 C   0  0  0  0  0  0  0  0  0  0  0  0
  161.2050  205.4050  152.4850 C   0  0  0  0  0  0  0  0  0  0  0  0
  160.6340  207.7560  152.4770 C   0  0  0  0  0  3  0  0  0  0  0  0
  160.8200  206.5700  154.5830 C   0  0  0  0  0  0  0  0  0  0  0  0
  160.7700  206.5230  155.9720 O   0  0  0  0  0  1  0  0  0  0  0  0
  161.1940  204.3210  150.2520 C   0  0  0  0  0  1  0  0  0  0  0  0
  160.8310  203.0210  152.2750 N   0  0  0  0  0  1  0  0  0  0  0  0
  161.5370  204.1630  151.7220 C   0  0  2  0  0  3  0  0  0  0  0  0
  160.9910  209.1370  155.7940 O   0  0  0  0  0  0  0  0  0  0  0  0
  160.3270  209.8200  156.8220 C   0  0  0  0  0  2  0  0  0  0  0  0
  161.1600  211.0070  157.2610 C   0  0  0  0  0  1  0  0  0  0  0  0
  1  9  1  0  0  0  0
  1 12  1  0  0  0  0
  2  1  1  1  0  0  0
  2  5  1  0  0  0  0
  2 15  1  0  0  0  0
  3  8  1  0  0  0  0
  4 18  1  0  0  0  0
  5 16  1  0  0  0  0
  6 18  1  0  0  0  0
  7  6  1  0  0  0  0
  7 16  1  0  0  0  0
  8 10  1  0  0  0  0
  8  5  1  0  0  0  0
  9 12  1  0  0  0  0
 10  7  1  0  0  0  0
 11  1  1  0  0  0  0
 13 19  1  0  0  0  0
 14  3  1  0  0  0  0
 15 13  1  0  0  0  0
 15 30  1  0  0  0  0
 16 19  1  0  0  0  0
 17 14  1  0  0  0  0
 17 11  1  0  0  0  0
 19  4  1  0  0  0  0
 20 25  1  0  0  0  0
 21 24  2  0  0  0  0
 21 23  1  0  0  0  0
 22 25  2  0  0  0  0
 22 15  1  0  0  0  0
 23 20  2  0  0  0  0
 24 22  1  0  0  0  0
 25 26  1  0  0  0  0
 27 29  1  0  0  0  0
 29 28  1  0  0  0  0
 29 23  1  0  0  0  0
 30 31  1  0  0  0  0
 31 32  1  0  0  0  0
M  END
>  <MODEL>
3

>  <REMARK>
 VINA RESULT:       0.1      1.802      6.949
  Name = 
  4 active torsions:
  status: ('A' for Active; 'I' for Inactive)
    1  A    between atoms: O_1  and  C_4
    2  A    between atoms: O_1  and  C_27
    3  A    between atoms: C_16  and  C_27
    4  A    between atoms: C_19  and  C_26
                            x       y       z     vdW  Elec       q    Type
                         _______ _______ _______ _____ _____    ______ ____

>  <TORSDO>
F 4

$$$$
=
 OpenBabel11062408173D

 32 37  0  0  1  0  0  0  0  0999 V2000
  160.6150  210.1720  155.3320 C   0  0  0  0  0  0  0  0  0  0  0  0
  160.1610  210.8670  154.0110 C   0  0  2  0  0  3  0  0  0  0  0  0
  161.0680  208.3590  152.7040 C   0  0  0  0  0  2  0  0  0  0  0  0
  159.8120  213.0930  150.1200 C   0  0  0  0  0  2  0  0  0  0  0  0
  161.2640  210.9250  152.9360 C   0  0  1  0  0  3  0  0  0  0  0  0
  161.3570  211.3100  149.2270 C   0  0  0  0  0  2  0  0  0  0  0  0
  161.4600  210.8350  150.6400 C   0  0  2  0  0  3  0  0  0  0  0  0
  161.9480  209.5950  152.5140 C   0  0  2  0  0  3  0  0  0  0  0  0
  162.0630  210.3420  155.7590 C   0  0  0  0  0  2  0  0  0  0  0  0
  162.1470  209.7830  151.0390 C   0  0  0  0  0  2  0  0  0  0  0  0
  160.0500  208.9340  155.7110 O   0  0  0  0  0  0  0  0  0  0  0  0
  160.9570  211.0440  156.5240 C   0  0  0  0  0  2  0  0  0  0  0  0
  158.6390  212.8400  152.5770 S   0  0  0  0  0  0  0  0  0  0  0  0
  161.1880  207.8650  154.0050 O   0  0  0  0  0  0  0  0  0  0  0  0
  159.2860  212.1600  154.1820 C   0  0  1  0  0  0  0  0  0  0  0  0
  160.7670  211.4700  151.6950 N   0  0  2  0  0  0  0  0  0  0  0  0
  159.9360  208.1030  154.5810 C   0  0  0  0  0  2  0  0  0  0  0  0
  161.0050  212.7990  149.2070 C   0  0  0  0  0  2  0  0  0  0  0  0
  160.1610  212.7870  151.5800 C   0  0  1  0  0  3  0  0  0  0  0  0
  156.7490  211.6560  157.0360 C   0  0  0  0  0  3  0  0  0  0  0  0
  155.8440  210.6920  155.0140 C   0  0  0  0  0  3  0  0  0  0  0  0
  158.0420  211.7520  154.9680 C   0  0  0  0  0  0  0  0  0  0  0  0
  155.7140  210.9830  156.3720 C   0  0  0  0  0  0  0  0  0  0  0  0
  156.9940  211.0710  154.3210 C   0  0  0  0  0  3  0  0  0  0  0  0
  157.9040  212.0370  156.3500 C   0  0  0  0  0  0  0  0  0  0  0  0
  158.9080  212.6970  157.0490 O   0  0  0  0  0  1  0  0  0  0  0  0
  153.7570  209.4570  156.3480 C   0  0  0  0  0  1  0  0  0  0  0  0
  153.5780  211.7070  157.2540 N   0  0  0  0  0  1  0  0  0  0  0  0
  154.4690  210.5730  157.0910 C   0  0  2  0  0  3  0  0  0  0  0  0
  159.9560  213.1790  154.9210 O   0  0  0  0  0  0  0  0  0  0  0  0
  159.4600  214.4530  154.6110 C   0  0  0  0  0  2  0  0  0  0  0  0
  157.9630  214.3740  154.3960 C   0  0  0  0  0  1  0  0  0  0  0  0
  1 11  1  0  0  0  0
  1  9  1  0  0  0  0
  1 12  1  0  0  0  0
  2 15  1  0  0  0  0
  2  1  1  1  0  0  0
  3 14  1  0  0  0  0
  4 19  1  0  0  0  0
  5  2  1  0  0  0  0
  6  7  1  0  0  0  0
  7 10  1  0  0  0  0
  7 16  1  0  0  0  0
  8  3  1  0  0  0  0
  8  5  1  0  0  0  0
  9 12  1  0  0  0  0
 10  8  1  0  0  0  0
 13 15  1  0  0  0  0
 14 17  1  0  0  0  0
 15 30  1  0  0  0  0
 15 22  1  0  0  0  0
 16  5  1  0  0  0  0
 17 11  1  0  0  0  0
 18  6  1  0  0  0  0
 18  4  1  0  0  0  0
 19 16  1  0  0  0  0
 19 13  1  0  0  0  0
 21 23  2  0  0  0  0
 22 25  1  0  0  0  0
 23 20  1  0  0  0  0
 23 29  1  0  0  0  0
 24 22  2  0  0  0  0
 24 21  1  0  0  0  0
 25 20  2  0  0  0  0
 25 26  1  0  0  0  0
 27 29  1  0  0  0  0
 29 28  1  0  0  0  0
 31 30  1  0  0  0  0
 32 31  1  0  0  0  0
M  END
>  <MODEL>
4

>  <REMARK>
 VINA RESULT:       0.2      2.584      4.503
  Name = 
  4 active torsions:
  status: ('A' for Active; 'I' for Inactive)
    1  A    between atoms: O_1  and  C_4
    2  A    between atoms: O_1  and  C_27
    3  A    between atoms: C_16  and  C_27
    4  A    between atoms: C_19  and  C_26
                            x       y       z     vdW  Elec       q    Type
                         _______ _______ _______ _____ _____    ______ ____

>  <TORSDO>
F 4

$$$$
=
 OpenBabel11062408173D

 32 37  0  0  1  0  0  0  0  0999 V2000
  160.5170  209.1060  155.9390 C   0  0  0  0  0  0  0  0  0  0  0  0
  160.3760  209.7540  154.5270 C   0  0  2  0  0  3  0  0  0  0  0  0
  160.6030  206.9660  153.5280 C   0  0  0  0  0  2  0  0  0  0  0  0
  160.9550  211.5540  150.4480 C   0  0  0  0  0  2  0  0  0  0  0  0
  161.5190  209.3820  153.5620 C   0  0  1  0  0  3  0  0  0  0  0  0
  161.9720  209.3220  149.8600 C   0  0  0  0  0  2  0  0  0  0  0  0
  161.8360  208.9930  151.3110 C   0  0  2  0  0  3  0  0  0  0  0  0
  161.8140  207.8760  153.3210 C   0  0  2  0  0  3  0  0  0  0  0  0
  161.9190  208.9060  156.4880 C   0  0  0  0  0  2  0  0  0  0  0  0
  162.1590  207.8390  151.8610 C   0  0  0  0  0  2  0  0  0  0  0  0
  159.5920  208.1270  156.3640 O   0  0  0  0  0  0  0  0  0  0  0  0
  161.0150  209.9700  157.0810 C   0  0  0  0  0  2  0  0  0  0  0  0
  159.5940  211.9100  152.7920 S   0  0  0  0  0  0  0  0  0  0  0  0
  160.4850  206.6020  154.8720 O   0  0  0  0  0  0  0  0  0  0  0  0
  159.9050  211.2520  154.5040 C   0  0  1  0  0  0  0  0  0  0  0  0
  161.2870  209.9080  152.2380 N   0  0  2  0  0  0  0  0  0  0  0  0
  159.3190  207.2450  155.3020 C   0  0  0  0  0  2  0  0  0  0  0  0
  162.0700  210.8390  149.6820 C   0  0  0  0  0  2  0  0  0  0  0  0
  161.1000  211.3210  151.9550 C   0  0  1  0  0  3  0  0  0  0  0  0
  156.1050  211.2630  155.1360 C   0  0  0  0  0  3  0  0  0  0  0  0
  157.2450  211.4650  157.2560 C   0  0  0  0  0  3  0  0  0  0  0  0
  158.5450  211.3000  155.1980 C   0  0  0  0  0  0  0  0  0  0  0  0
  156.0560  211.3830  156.5310 C   0  0  0  0  0  0  0  0  0  0  0  0
  158.4740  211.4250  156.5980 C   0  0  0  0  0  3  0  0  0  0  0  0
  157.3310  211.2240  154.4680 C   0  0  0  0  0  0  0  0  0  0  0  0
  157.3330  211.1110  153.0830 O   0  0  0  0  0  1  0  0  0  0  0  0
  153.8450  210.2900  156.8090 C   0  0  0  0  0  1  0  0  0  0  0  0
  154.0910  212.6970  157.0570 N   0  0  0  0  0  1  0  0  0  0  0  0
  154.7520  211.4210  157.2610 C   0  0  2  0  0  3  0  0  0  0  0  0
  160.7900  212.1140  155.2160 O   0  0  0  0  0  0  0  0  0  0  0  0
  160.1490  213.2940  155.6190 C   0  0  0  0  0  2  0  0  0  0  0  0
  160.5970  213.6590  157.0200 C   0  0  0  0  0  1  0  0  0  0  0  0
  1 11  1  0  0  0  0
  1  9  1  0  0  0  0
  1 12  1  0  0  0  0
  2  1  1  1  0  0  0
  3 14  1  0  0  0  0
  4 19  1  0  0  0  0
  5  2  1  0  0  0  0
  6  7  1  0  0  0  0
  7 10  1  0  0  0  0
  7 16  1  0  0  0  0
  8  3  1  0  0  0  0
  8  5  1  0  0  0  0
  9 12  1  0  0  0  0
 10  8  1  0  0  0  0
 13 15  1  0  0  0  0
 14 17  1  0  0  0  0
 15  2  1  0  0  0  0
 15 22  1  0  0  0  0
 15 30  1  0  0  0  0
 16  5  1  0  0  0  0
 17 11  1  0  0  0  0
 18  6  1  0  0  0  0
 18  4  1  0  0  0  0
 19 16  1  0  0  0  0
 19 13  1  0  0  0  0
 20 23  1  0  0  0  0
 22 24  2  0  0  0  0
 23 21  2  0  0  0  0
 23 29  1  0  0  0  0
 24 21  1  0  0  0  0
 25 20  2  0  0  0  0
 25 22  1  0  0  0  0
 26 25  1  0  0  0  0
 27 29  1  0  0  0  0
 28 29  1  0  0  0  0
 30 31  1  0  0  0  0
 31 32  1  0  0  0  0
M  END
>  <MODEL>
5

>  <REMARK>
 VINA RESULT:       0.3      2.346      3.671
  Name = 
  4 active torsions:
  status: ('A' for Active; 'I' for Inactive)
    1  A    between atoms: O_1  and  C_4
    2  A    between atoms: O_1  and  C_27
    3  A    between atoms: C_16  and  C_27
    4  A    between atoms: C_19  and  C_26
                            x       y       z     vdW  Elec       q    Type
                         _______ _______ _______ _____ _____    ______ ____

>  <TORSDO>
F 4

$$$$
=
 OpenBabel11062408173D

 32 37  0  0  1  0  0  0  0  0999 V2000
  162.4350  210.4120  150.7220 C   0  0  0  0  0  0  0  0  0  0  0  0
  161.0470  210.6620  151.3870 C   0  0  2  0  0  3  0  0  0  0  0  0
  160.3300  211.8970  148.7830 C   0  0  0  0  0  2  0  0  0  0  0  0
  157.4070  212.2860  153.4700 C   0  0  0  0  0  2  0  0  0  0  0  0
  160.5980  212.1360  151.3410 C   0  0  1  0  0  3  0  0  0  0  0  0
  157.3440  213.9440  151.5710 C   0  0  0  0  0  2  0  0  0  0  0  0
  158.6500  213.3560  151.1480 C   0  0  2  0  0  3  0  0  0  0  0  0
  160.5530  212.8460  149.9600 C   0  0  2  0  0  3  0  0  0  0  0  0
  163.4790  211.5110  150.8300 C   0  0  0  0  0  2  0  0  0  0  0  0
  159.3320  213.7110  150.0770 C   0  0  0  0  0  2  0  0  0  0  0  0
  162.5250  209.6540  149.5340 O   0  0  0  0  0  0  0  0  0  0  0  0
  163.6420  210.2280  151.6220 C   0  0  0  0  0  2  0  0  0  0  0  0
  159.0510  210.1030  153.3810 S   0  0  0  0  0  0  0  0  0  0  0  0
  161.5450  211.3730  148.3360 O   0  0  0  0  0  0  0  0  0  0  0  0
  160.7820  209.8950  152.7320 C   0  0  1  0  0  0  0  0  0  0  0  0
  159.2620  212.3010  151.8620 N   0  0  2  0  0  0  0  0  0  0  0  0
  161.4780  210.0160  148.6650 C   0  0  0  0  0  2  0  0  0  0  0  0
  157.1490  213.7410  153.0750 C   0  0  0  0  0  2  0  0  0  0  0  0
  158.8670  211.9050  153.2040 C   0  0  1  0  0  3  0  0  0  0  0  0
  161.2260  206.0900  153.1330 C   0  0  0  0  0  3  0  0  0  0  0  0
  160.9380  206.5950  150.7880 C   0  0  0  0  0  3  0  0  0  0  0  0
  160.9120  208.4040  152.4250 C   0  0  0  0  0  0  0  0  0  0  0  0
  161.1350  205.6580  151.8030 C   0  0  0  0  0  0  0  0  0  0  0  0
  160.8280  207.9510  151.0950 C   0  0  0  0  0  3  0  0  0  0  0  0
  161.1190  207.4460  153.4490 C   0  0  0  0  0  0  0  0  0  0  0  0
  161.2220  207.8310  154.7810 O   0  0  0  0  0  1  0  0  0  0  0  0
  160.7140  203.9530  150.0490 C   0  0  0  0  0  1  0  0  0  0  0  0
  160.5180  203.3960  152.4080 N   0  0  0  0  0  1  0  0  0  0  0  0
  161.2430  204.2100  151.4490 C   0  0  2  0  0  3  0  0  0  0  0  0
  161.7350  210.2190  153.7420 O   0  0  0  0  0  0  0  0  0  0  0  0
  161.1670  210.9990  154.7590 C   0  0  0  0  0  2  0  0  0  0  0  0
  162.0510  210.9470  155.9880 C   0  0  0  0  0  1  0  0  0  0  0  0
  1  9  1  0  0  0  0
  1 12  1  0  0  0  0
  2  1  1  1  0  0  0
  2 15  1  0  0  0  0
  3  8  1  0  0  0  0
  5  2  1  0  0  0  0
  5 16  1  0  0  0  0
  6 18  1  0  0  0  0
  7  6  1  0  0  0  0
  7 16  1  0  0  0  0
  8 10  1  0  0  0  0
  8  5  1  0  0  0  0
  9 12  1  0  0  0  0
 10  7  1  0  0  0  0
 11  1  1  0  0  0  0
 14 17  1  0  0  0  0
 14  3  1  0  0  0  0
 15 13  1  0  0  0  0
 15 30  1  0  0  0  0
 16 19  1  0  0  0  0
 17 11  1  0  0  0  0
 18  4  1  0  0  0  0
 19 13  1  0  0  0  0
 19  4  1  0  0  0  0
 20 25  1  0  0  0  0
 21 24  2  0  0  0  0
 21 23  1  0  0  0  0
 22 15  1  0  0  0  0
 22 25  2  0  0  0  0
 23 20  2  0  0  0  0
 24 22  1  0  0  0  0
 25 26  1  0  0  0  0
 27 29  1  0  0  0  0
 29 23  1  0  0  0  0
 29 28  1  0  0  0  0
 30 31  1  0  0  0  0
 31 32  1  0  0  0  0
M  END
>  <MODEL>
6

>  <REMARK>
 VINA RESULT:       0.8      1.922      7.189
  Name = 
  4 active torsions:
  status: ('A' for Active; 'I' for Inactive)
    1  A    between atoms: O_1  and  C_4
    2  A    between atoms: O_1  and  C_27
    3  A    between atoms: C_16  and  C_27
    4  A    between atoms: C_19  and  C_26
                            x       y       z     vdW  Elec       q    Type
                         _______ _______ _______ _____ _____    ______ ____

>  <TORSDO>
F 4

$$$$
