=
 OpenBabel11062409393D

 34 39  0  0  1  0  0  0  0  0999 V2000
  160.5970  209.4770  153.1980 N   0  0  0  0  0  0  0  0  0  0  0  0
  158.7320  212.0310  154.9920 C   0  0  0  0  0  3  0  0  0  0  0  0
  160.4330  210.2110  155.3860 C   0  0  0  0  0  0  0  0  0  0  0  0
  161.5740  207.3020  152.6240 C   0  0  1  0  0  3  0  0  0  0  0  0
  160.5440  208.3870  152.2320 C   0  0  0  0  0  2  0  0  0  0  0  0
  161.1990  207.9650  155.0470 C   0  0  0  0  0  0  0  0  0  0  0  0
  161.2850  207.8000  156.3990 N   0  0  0  0  0  0  0  0  0  0  0  0
  161.3720  206.8210  154.0840 C   0  0  0  0  0  2  0  0  0  0  0  0
  160.5470  210.0730  156.7700 C   0  0  0  0  0  3  0  0  0  0  0  0
  160.7940  209.1920  154.5610 C   0  0  0  0  0  0  0  0  0  0  0  0
  160.9880  208.8250  157.2610 C   0  0  0  0  0  3  0  0  0  0  0  0
  157.9880  212.8160  154.1870 C   0  0  0  0  0  3  0  0  0  0  0  0
  158.2170  213.0560  152.7030 C   0  0  2  0  0  3  0  0  0  0  0  0
  159.6970  213.0820  152.2760 C   0  0  0  0  0  2  0  0  0  0  0  0
  160.0000  211.3630  154.5470 C   0  0  1  0  0  3  0  0  0  0  0  0
  160.2680  211.6710  152.0550 C   0  0  0  0  0  2  0  0  0  0  0  0
  159.8240  210.7140  153.1550 C   0  0  1  0  0  3  0  0  0  0  0  0
  160.8800  203.3780  150.5640 C   0  0  0  0  0  2  0  0  0  0  0  0
  160.4710  206.3790  150.5680 C   0  0  0  0  0  2  0  0  0  0  0  0
  161.3850  204.2720  146.9210 C   0  0  0  0  0  0  0  0  0  0  0  0
  161.2790  203.5570  148.1190 C   0  0  0  0  0  3  0  0  0  0  0  0
  160.9880  204.2100  149.3210 C   0  0  0  0  0  0  0  0  0  0  0  0
  161.5170  206.1250  151.6540 C   0  0  2  0  0  3  0  0  0  0  0  0
  160.8980  206.3230  148.1240 C   0  0  0  0  0  3  0  0  0  0  0  0
  160.7950  205.6110  149.3230 C   0  0  0  0  0  0  0  0  0  0  0  0
  161.1930  205.6590  146.9300 C   0  0  0  0  0  3  0  0  0  0  0  0
  161.1770  204.9510  152.3430 O   0  0  0  0  0  0  0  0  0  0  0  0
  161.8020  203.9010  151.6590 C   0  0  0  0  0  2  0  0  0  0  0  0
  161.6950  203.5700  145.6660 C   0  0  0  0  0  0  0  0  0  0  0  0
  162.6560  203.9460  144.9420 O   0  0  0  0  0  0  0  0  0  0  0  0
  160.9270  202.4810  145.2650 O   0  0  0  0  0  1  0  0  0  0  0  0
  157.4460  214.2940  152.2410 C   0  0  0  0  0  3  0  0  0  0  0  0
  157.2550  214.3310  150.7320 C   0  0  0  0  0  1  0  0  0  0  0  0
  156.1010  214.3870  152.9360 C   0  0  0  0  0  1  0  0  0  0  0  0
  1 10  1  0  0  0  0
  3  9  1  0  0  0  0
  4  5  1  6  0  0  0
  4  8  1  0  0  0  0
  5  1  1  0  0  0  0
  6  7  2  0  0  0  0
  7 11  1  0  0  0  0
  8  6  1  0  0  0  0
  9 11  2  0  0  0  0
 10  6  1  0  0  0  0
 10  3  2  0  0  0  0
 12  2  2  0  0  0  0
 13 32  1  1  0  0  0
 13 12  1  0  0  0  0
 14 13  1  0  0  0  0
 15  2  1  1  0  0  0
 15  3  1  0  0  0  0
 16 14  1  0  0  0  0
 17 16  1  6  0  0  0
 17  1  1  0  0  0  0
 17 15  1  0  0  0  0
 18 28  1  0  0  0  0
 20 26  2  0  0  0  0
 20 21  1  0  0  0  0
 21 22  2  0  0  0  0
 22 25  1  0  0  0  0
 22 18  1  0  0  0  0
 23 19  1  6  0  0  0
 23 27  1  0  0  0  0
 23  4  1  0  0  0  0
 24 25  2  0  0  0  0
 25 19  1  0  0  0  0
 26 24  1  0  0  0  0
 28 27  1  0  0  0  0
 29 20  1  0  0  0  0
 30 29  2  0  0  0  0
 31 29  1  0  0  0  0
 32 34  1  0  0  0  0
 33 32  1  0  0  0  0
M  END
>  <MODEL>
1

>  <REMARK>
 VINA RESULT:     -10.7      0.000      0.000
  Name = 
  3 active torsions:
  status: ('A' for Active; 'I' for Inactive)
    1  A    between atoms: C_3  and  C_25
    2  A    between atoms: C_7  and  C_11
    3  A    between atoms: C_8  and  C_18
                            x       y       z     vdW  Elec       q    Type
                         _______ _______ _______ _____ _____    ______ ____

>  <TORSDO>
F 3

$$$$
=
 OpenBabel11062409393D

 34 39  0  0  1  0  0  0  0  0999 V2000
  160.0190  210.4430  153.5170 N   0  0  0  0  0  0  0  0  0  0  0  0
  158.1010  212.2200  156.0440 C   0  0  0  0  0  3  0  0  0  0  0  0
  160.1860  210.8220  155.7940 C   0  0  0  0  0  0  0  0  0  0  0  0
  161.2760  208.6590  152.3990 C   0  0  1  0  0  3  0  0  0  0  0  0
  159.9840  209.5080  152.3990 C   0  0  0  0  0  2  0  0  0  0  0  0
  161.3070  208.8880  154.9280 C   0  0  0  0  0  0  0  0  0  0  0  0
  161.7160  208.5720  156.1910 N   0  0  0  0  0  0  0  0  0  0  0  0
  161.5000  207.9560  153.7630 C   0  0  0  0  0  2  0  0  0  0  0  0
  160.6230  210.5350  157.0870 C   0  0  0  0  0  3  0  0  0  0  0  0
  160.5610  210.0370  154.7490 C   0  0  0  0  0  0  0  0  0  0  0  0
  161.4080  209.3750  157.2610 C   0  0  0  0  0  3  0  0  0  0  0  0
  157.0540  212.9030  155.5390 C   0  0  0  0  0  3  0  0  0  0  0  0
  156.9010  213.3850  154.1050 C   0  0  2  0  0  3  0  0  0  0  0  0
  158.2160  213.8190  153.4270 C   0  0  0  0  0  2  0  0  0  0  0  0
  159.3530  211.9380  155.2640 C   0  0  1  0  0  3  0  0  0  0  0  0
  159.0040  212.6260  152.8600 C   0  0  0  0  0  2  0  0  0  0  0  0
  159.0170  211.4550  153.8350 C   0  0  1  0  0  3  0  0  0  0  0  0
  161.8900  206.3400  148.6080 C   0  0  0  0  0  2  0  0  0  0  0  0
  162.0920  206.4150  151.6290 C   0  0  0  0  0  2  0  0  0  0  0  0
  160.7460  202.8670  149.5860 C   0  0  0  0  0  0  0  0  0  0  0  0
  161.0910  204.0000  148.8400 C   0  0  0  0  0  3  0  0  0  0  0  0
  161.5280  205.1680  149.4720 C   0  0  0  0  0  0  0  0  0  0  0  0
  161.2540  207.6400  151.2620 C   0  0  2  0  0  3  0  0  0  0  0  0
  161.2820  204.0690  151.6250 C   0  0  0  0  0  3  0  0  0  0  0  0
  161.6250  205.2030  150.8820 C   0  0  0  0  0  0  0  0  0  0  0  0
  160.8440  202.9080  150.9830 C   0  0  0  0  0  3  0  0  0  0  0  0
  161.7790  208.2130  150.0940 O   0  0  0  0  0  0  0  0  0  0  0  0
  161.1230  207.5900  149.0250 C   0  0  0  0  0  2  0  0  0  0  0  0
  160.2860  201.6460  148.9060 C   0  0  0  0  0  0  0  0  0  0  0  0
  159.1560  201.1540  149.1700 O   0  0  0  0  0  1  0  0  0  0  0  0
  161.0960  201.0220  147.9630 O   0  0  0  0  0  0  0  0  0  0  0  0
  155.8100  214.4530  154.0170 C   0  0  0  0  0  3  0  0  0  0  0  0
  154.9490  214.3040  152.7710 C   0  0  0  0  0  1  0  0  0  0  0  0
  154.9350  214.4390  155.2570 C   0  0  0  0  0  1  0  0  0  0  0  0
  1 17  1  0  0  0  0
  1 10  1  0  0  0  0
  3  9  1  0  0  0  0
  4  5  1  1  0  0  0
  4  8  1  0  0  0  0
  5  1  1  0  0  0  0
  6  7  2  0  0  0  0
  7 11  1  0  0  0  0
  8  6  1  0  0  0  0
  9 11  2  0  0  0  0
 10  6  1  0  0  0  0
 10  3  2  0  0  0  0
 12  2  2  0  0  0  0
 13 32  1  1  0  0  0
 13 12  1  0  0  0  0
 14 13  1  0  0  0  0
 15  3  1  0  0  0  0
 15  2  1  1  0  0  0
 16 14  1  0  0  0  0
 17 16  1  6  0  0  0
 17 15  1  0  0  0  0
 18 28  1  0  0  0  0
 18 22  1  0  0  0  0
 20 26  1  0  0  0  0
 21 22  1  0  0  0  0
 21 20  2  0  0  0  0
 22 25  2  0  0  0  0
 23 19  1  1  0  0  0
 23  4  1  0  0  0  0
 25 24  1  0  0  0  0
 25 19  1  0  0  0  0
 26 24  2  0  0  0  0
 27 23  1  0  0  0  0
 28 27  1  0  0  0  0
 29 30  1  0  0  0  0
 29 20  1  0  0  0  0
 31 29  2  0  0  0  0
 32 34  1  0  0  0  0
 33 32  1  0  0  0  0
M  END
>  <MODEL>
2

>  <REMARK>
 VINA RESULT:      -9.5      1.724      2.586
  Name = 
  3 active torsions:
  status: ('A' for Active; 'I' for Inactive)
    1  A    between atoms: C_3  and  C_25
    2  A    between atoms: C_7  and  C_11
    3  A    between atoms: C_8  and  C_18
                            x       y       z     vdW  Elec       q    Type
                         _______ _______ _______ _____ _____    ______ ____

>  <TORSDO>
F 3

$$$$
=
 OpenBabel11062409393D

 34 39  0  0  1  0  0  0  0  0999 V2000
  159.9570  210.3680  153.6920 N   0  0  0  0  0  0  0  0  0  0  0  0
  157.6730  211.6470  156.2150 C   0  0  0  0  0  3  0  0  0  0  0  0
  159.7370  210.2140  155.9900 C   0  0  0  0  0  0  0  0  0  0  0  0
  161.3460  208.8060  152.4100 C   0  0  1  0  0  3  0  0  0  0  0  0
  160.0940  209.7130  152.3970 C   0  0  0  0  0  2  0  0  0  0  0  0
  160.9460  208.4580  154.8940 C   0  0  0  0  0  0  0  0  0  0  0  0
  161.1230  207.8410  156.0980 N   0  0  0  0  0  0  0  0  0  0  0  0
  161.3150  207.8020  153.5910 C   0  0  0  0  0  2  0  0  0  0  0  0
  159.9370  209.6160  157.2350 C   0  0  0  0  0  3  0  0  0  0  0  0
  160.2690  209.6620  154.8670 C   0  0  0  0  0  0  0  0  0  0  0  0
  160.6530  208.4000  157.2590 C   0  0  0  0  0  3  0  0  0  0  0  0
  156.7450  212.4900  155.7200 C   0  0  0  0  0  3  0  0  0  0  0  0
  156.8530  213.2900  154.4320 C   0  0  2  0  0  3  0  0  0  0  0  0
  158.2750  213.7830  154.0960 C   0  0  0  0  0  2  0  0  0  0  0  0
  159.0330  211.4700  155.6060 C   0  0  1  0  0  3  0  0  0  0  0  0
  159.1210  212.7020  153.4040 C   0  0  0  0  0  2  0  0  0  0  0  0
  158.9390  211.3430  154.0690 C   0  0  1  0  0  3  0  0  0  0  0  0
  162.5320  207.3840  148.3240 C   0  0  0  0  0  2  0  0  0  0  0  0
  162.2660  206.7650  151.2770 C   0  0  0  0  0  2  0  0  0  0  0  0
  161.2420  203.8250  148.2960 C   0  0  0  0  0  0  0  0  0  0  0  0
  161.7020  205.0840  147.8910 C   0  0  0  0  0  3  0  0  0  0  0  0
  162.0390  206.0620  148.8310 C   0  0  0  0  0  0  0  0  0  0  0  0
  161.4980  208.0720  151.0800 C   0  0  2  0  0  3  0  0  0  0  0  0
  161.4610  204.5140  150.6130 C   0  0  0  0  0  3  0  0  0  0  0  0
  161.9170  205.7730  150.2100 C   0  0  0  0  0  0  0  0  0  0  0  0
  161.1240  203.5460  149.6630 C   0  0  0  0  0  3  0  0  0  0  0  0
  162.1980  208.8750  150.1660 O   0  0  0  0  0  0  0  0  0  0  0  0
  161.7140  208.5350  148.8970 C   0  0  0  0  0  2  0  0  0  0  0  0
  160.8900  202.8090  147.2930 C   0  0  0  0  0  0  0  0  0  0  0  0
  160.3950  201.7050  147.6470 O   0  0  0  0  0  1  0  0  0  0  0  0
  161.1020  203.0560  145.9400 O   0  0  0  0  0  0  0  0  0  0  0  0
  155.8180  214.4170  154.4180 C   0  0  0  0  0  3  0  0  0  0  0  0
  154.8620  214.3140  153.2390 C   0  0  0  0  0  1  0  0  0  0  0  0
  155.0370  214.4530  155.7180 C   0  0  0  0  0  1  0  0  0  0  0  0
  1 17  1  0  0  0  0
  1 10  1  0  0  0  0
  3  9  1  0  0  0  0
  4  5  1  6  0  0  0
  4  8  1  0  0  0  0
  5  1  1  0  0  0  0
  6  7  2  0  0  0  0
  7 11  1  0  0  0  0
  8  6  1  0  0  0  0
  9 11  2  0  0  0  0
 10  6  1  0  0  0  0
 10  3  2  0  0  0  0
 12  2  2  0  0  0  0
 13 32  1  1  0  0  0
 13 12  1  0  0  0  0
 14 13  1  0  0  0  0
 15  3  1  0  0  0  0
 15  2  1  1  0  0  0
 16 14  1  0  0  0  0
 17 16  1  6  0  0  0
 17 15  1  0  0  0  0
 18 22  1  0  0  0  0
 18 28  1  0  0  0  0
 20 26  1  0  0  0  0
 21 20  2  0  0  0  0
 21 22  1  0  0  0  0
 22 25  2  0  0  0  0
 23 19  1  1  0  0  0
 23  4  1  0  0  0  0
 25 24  1  0  0  0  0
 25 19  1  0  0  0  0
 26 24  2  0  0  0  0
 27 23  1  0  0  0  0
 28 27  1  0  0  0  0
 29 30  1  0  0  0  0
 29 20  1  0  0  0  0
 31 29  2  0  0  0  0
 32 34  1  0  0  0  0
 33 32  1  0  0  0  0
M  END
>  <MODEL>
3

>  <REMARK>
 VINA RESULT:      -9.4      1.581      2.435
  Name = 
  3 active torsions:
  status: ('A' for Active; 'I' for Inactive)
    1  A    between atoms: C_3  and  C_25
    2  A    between atoms: C_7  and  C_11
    3  A    between atoms: C_8  and  C_18
                            x       y       z     vdW  Elec       q    Type
                         _______ _______ _______ _____ _____    ______ ____

>  <TORSDO>
F 3

$$$$
=
 OpenBabel11062409393D

 34 39  0  0  1  0  0  0  0  0999 V2000
  161.3630  207.0140  151.7700 N   0  0  0  0  0  0  0  0  0  0  0  0
  161.2280  204.9580  148.7740 C   0  0  0  0  0  3  0  0  0  0  0  0
  162.0240  207.2180  149.5620 C   0  0  0  0  0  0  0  0  0  0  0  0
  161.1570  208.9570  153.2520 C   0  0  1  0  0  3  0  0  0  0  0  0
  160.6340  207.5420  152.9160 C   0  0  0  0  0  2  0  0  0  0  0  0
  161.6560  209.2500  150.7790 C   0  0  0  0  0  0  0  0  0  0  0  0
  161.9620  209.9660  149.6580 N   0  0  0  0  0  0  0  0  0  0  0  0
  161.1010  209.8960  152.0190 C   0  0  0  0  0  2  0  0  0  0  0  0
  162.3740  207.9320  148.4150 C   0  0  0  0  0  3  0  0  0  0  0  0
  161.7190  207.8720  150.7140 C   0  0  0  0  0  0  0  0  0  0  0  0
  162.3350  209.3410  148.4950 C   0  0  0  0  0  3  0  0  0  0  0  0
  160.7330  203.7230  148.9940 C   0  0  0  0  0  3  0  0  0  0  0  0
  160.7050  202.9890  150.3250 C   0  0  2  0  0  3  0  0  0  0  0  0
  161.9160  203.2630  151.2380 C   0  0  0  0  0  2  0  0  0  0  0  0
  161.9520  205.7530  149.8220 C   0  0  1  0  0  3  0  0  0  0  0  0
  161.7610  204.5650  152.0420 C   0  0  0  0  0  2  0  0  0  0  0  0
  161.2080  205.6900  151.1750 C   0  0  1  0  0  3  0  0  0  0  0  0
  159.8300  210.6690  157.1800 C   0  0  0  0  0  2  0  0  0  0  0  0
  160.1310  211.0450  154.1900 C   0  0  0  0  0  2  0  0  0  0  0  0
  156.6080  212.4270  156.2520 C   0  0  0  0  0  0  0  0  0  0  0  0
  157.6240  211.7930  156.9770 C   0  0  0  0  0  3  0  0  0  0  0  0
  158.7790  211.3300  156.3380 C   0  0  0  0  0  0  0  0  0  0  0  0
  160.3860  209.5560  154.4250 C   0  0  2  0  0  3  0  0  0  0  0  0
  157.9060  212.1430  154.2210 C   0  0  0  0  0  3  0  0  0  0  0  0
  158.9210  211.5070  154.9420 C   0  0  0  0  0  0  0  0  0  0  0  0
  156.7560  212.5990  154.8700 C   0  0  0  0  0  3  0  0  0  0  0  0
  161.1200  209.4040  155.6100 O   0  0  0  0  0  0  0  0  0  0  0  0
  160.1790  209.2870  156.6410 C   0  0  0  0  0  2  0  0  0  0  0  0
  155.3990  212.9070  156.9400 C   0  0  0  0  0  0  0  0  0  0  0  0
  154.4800  212.1030  157.2530 O   0  0  0  0  0  1  0  0  0  0  0  0
  155.2590  214.2550  157.2510 O   0  0  0  0  0  0  0  0  0  0  0  0
  160.4570  201.4960  150.1030 C   0  0  0  0  0  3  0  0  0  0  0  0
  159.0080  201.1920  149.7530 C   0  0  0  0  0  1  0  0  0  0  0  0
  161.3770  200.9470  149.0280 C   0  0  0  0  0  1  0  0  0  0  0  0
  1  5  1  0  0  0  0
  2 12  2  0  0  0  0
  3 15  1  0  0  0  0
  3 10  1  0  0  0  0
  4  8  1  6  0  0  0
  4 23  1  0  0  0  0
  5  4  1  0  0  0  0
  6  8  1  0  0  0  0
  7  6  1  0  0  0  0
  9 11  1  0  0  0  0
  9  3  2  0  0  0  0
 10  6  2  0  0  0  0
 10  1  1  0  0  0  0
 11  7  2  0  0  0  0
 12 13  1  0  0  0  0
 13 32  1  6  0  0  0
 13 14  1  0  0  0  0
 14 16  1  0  0  0  0
 15  2  1  6  0  0  0
 15 17  1  0  0  0  0
 17  1  1  0  0  0  0
 17 16  1  1  0  0  0
 19 25  1  0  0  0  0
 20 29  1  0  0  0  0
 20 21  1  0  0  0  0
 22 21  2  0  0  0  0
 22 18  1  0  0  0  0
 23 19  1  6  0  0  0
 23 27  1  0  0  0  0
 24 26  1  0  0  0  0
 24 25  2  0  0  0  0
 25 22  1  0  0  0  0
 26 20  2  0  0  0  0
 27 28  1  0  0  0  0
 28 18  1  0  0  0  0
 29 31  2  0  0  0  0
 29 30  1  0  0  0  0
 33 32  1  0  0  0  0
 34 32  1  0  0  0  0
M  END
>  <MODEL>
4

>  <REMARK>
 VINA RESULT:      -8.9      3.646      9.821
  Name = 
  3 active torsions:
  status: ('A' for Active; 'I' for Inactive)
    1  A    between atoms: C_3  and  C_25
    2  A    between atoms: C_7  and  C_11
    3  A    between atoms: C_8  and  C_18
                            x       y       z     vdW  Elec       q    Type
                         _______ _______ _______ _____ _____    ______ ____

>  <TORSDO>
F 3

$$$$
=
 OpenBabel11062409393D

 34 39  0  0  1  0  0  0  0  0999 V2000
  161.6630  208.7240  151.2640 N   0  0  0  0  0  0  0  0  0  0  0  0
  160.5540  212.1770  151.5160 C   0  0  0  0  0  3  0  0  0  0  0  0
  161.4050  210.2850  152.9520 C   0  0  0  0  0  0  0  0  0  0  0  0
  161.8850  206.3270  151.7320 C   0  0  1  0  0  3  0  0  0  0  0  0
  161.3890  207.3950  150.7300 C   0  0  0  0  0  2  0  0  0  0  0  0
  161.3680  207.9760  153.5930 C   0  0  0  0  0  0  0  0  0  0  0  0
  161.1600  208.3490  154.8890 N   0  0  0  0  0  0  0  0  0  0  0  0
  161.2820  206.5420  153.1450 C   0  0  0  0  0  2  0  0  0  0  0  0
  161.2270  210.6870  154.2770 C   0  0  0  0  0  3  0  0  0  0  0  0
  161.5130  208.9660  152.6410 C   0  0  0  0  0  0  0  0  0  0  0  0
  161.1060  209.6720  155.2490 C   0  0  0  0  0  3  0  0  0  0  0  0
  160.2840  212.7410  150.3220 C   0  0  0  0  0  3  0  0  0  0  0  0
  160.8300  212.2980  148.9740 C   0  0  2  0  0  3  0  0  0  0  0  0
  162.2730  211.7570  149.0090 C   0  0  0  0  0  2  0  0  0  0  0  0
  161.5570  211.0760  151.6980 C   0  0  1  0  0  3  0  0  0  0  0  0
  162.3330  210.2790  149.4310 C   0  0  0  0  0  2  0  0  0  0  0  0
  161.3990  209.9970  150.6030 C   0  0  1  0  0  3  0  0  0  0  0  0
  160.3660  202.1540  151.0910 C   0  0  0  0  0  2  0  0  0  0  0  0
  160.6110  204.9830  150.0380 C   0  0  0  0  0  2  0  0  0  0  0  0
  161.0540  201.5960  147.4110 C   0  0  0  0  0  0  0  0  0  0  0  0
  160.7960  201.3820  148.7700 C   0  0  0  0  0  3  0  0  0  0  0  0
  160.6510  202.4590  149.6500 C   0  0  0  0  0  0  0  0  0  0  0  0
  161.5770  204.9210  151.2210 C   0  0  2  0  0  3  0  0  0  0  0  0
  161.0170  203.9910  147.8010 C   0  0  0  0  0  3  0  0  0  0  0  0
  160.7630  203.7800  149.1590 C   0  0  0  0  0  0  0  0  0  0  0  0
  161.1630  202.9070  146.9310 C   0  0  0  0  0  3  0  0  0  0  0  0
  160.9930  204.1570  152.2430 O   0  0  0  0  0  0  0  0  0  0  0  0
  161.3780  202.8310  152.0080 C   0  0  0  0  0  2  0  0  0  0  0  0
  161.2060  200.4510  146.4990 C   0  0  0  0  0  0  0  0  0  0  0  0
  161.9140  199.4610  146.8280 O   0  0  0  0  0  1  0  0  0  0  0  0
  160.5700  200.4520  145.2620 O   0  0  0  0  0  0  0  0  0  0  0  0
  160.6390  213.4040  147.9340 C   0  0  0  0  0  3  0  0  0  0  0  0
  161.9180  214.1870  147.6750 C   0  0  0  0  0  1  0  0  0  0  0  0
  160.1030  212.8390  146.6320 C   0  0  0  0  0  1  0  0  0  0  0  0
  1 10  1  0  0  0  0
  3  9  1  0  0  0  0
  4  5  1  6  0  0  0
  4  8  1  0  0  0  0
  5  1  1  0  0  0  0
  6  7  2  0  0  0  0
  7 11  1  0  0  0  0
  8  6  1  0  0  0  0
  9 11  2  0  0  0  0
 10  3  2  0  0  0  0
 10  6  1  0  0  0  0
 12  2  2  0  0  0  0
 13 32  1  6  0  0  0
 13 14  1  0  0  0  0
 13 12  1  0  0  0  0
 14 16  1  0  0  0  0
 15  2  1  6  0  0  0
 15  3  1  0  0  0  0
 17 16  1  6  0  0  0
 17  1  1  0  0  0  0
 17 15  1  0  0  0  0
 18 28  1  0  0  0  0
 20 21  1  0  0  0  0
 21 22  2  0  0  0  0
 22 18  1  0  0  0  0
 23 19  1  6  0  0  0
 23  4  1  0  0  0  0
 23 27  1  0  0  0  0
 24 25  2  0  0  0  0
 25 22  1  0  0  0  0
 25 19  1  0  0  0  0
 26 20  2  0  0  0  0
 26 24  1  0  0  0  0
 28 27  1  0  0  0  0
 29 30  1  0  0  0  0
 29 20  1  0  0  0  0
 31 29  2  0  0  0  0
 33 32  1  0  0  0  0
 34 32  1  0  0  0  0
M  END
>  <MODEL>
5

>  <REMARK>
 VINA RESULT:      -8.8      2.370      3.198
  Name = 
  3 active torsions:
  status: ('A' for Active; 'I' for Inactive)
    1  A    between atoms: C_3  and  C_25
    2  A    between atoms: C_7  and  C_11
    3  A    between atoms: C_8  and  C_18
                            x       y       z     vdW  Elec       q    Type
                         _______ _______ _______ _____ _____    ______ ____

>  <TORSDO>
F 3

$$$$
=
 OpenBabel11062409393D

 34 39  0  0  1  0  0  0  0  0999 V2000
  161.6330  211.1360  149.8570 N   0  0  0  0  0  0  0  0  0  0  0  0
  160.4540  214.0310  148.0000 C   0  0  0  0  0  3  0  0  0  0  0  0
  160.6590  213.1730  150.3640 C   0  0  0  0  0  0  0  0  0  0  0  0
  161.6850  209.2830  151.4630 C   0  0  1  0  0  3  0  0  0  0  0  0
  161.6360  209.6820  149.9710 C   0  0  0  0  0  2  0  0  0  0  0  0
  160.4010  211.4140  151.9730 C   0  0  0  0  0  0  0  0  0  0  0  0
  159.6620  212.2520  152.7550 N   0  0  0  0  0  0  0  0  0  0  0  0
  160.5400  209.9460  152.2720 C   0  0  0  0  0  2  0  0  0  0  0  0
  159.9340  214.0550  151.1660 C   0  0  0  0  0  3  0  0  0  0  0  0
  160.9140  211.9060  150.7880 C   0  0  0  0  0  0  0  0  0  0  0  0
  159.4350  213.5550  152.3880 C   0  0  0  0  0  3  0  0  0  0  0  0
  160.7000  213.9540  146.6770 C   0  0  0  0  0  3  0  0  0  0  0  0
  161.7710  213.1070  146.0090 C   0  0  2  0  0  3  0  0  0  0  0  0
  163.0750  212.9610  146.8170 C   0  0  0  0  0  2  0  0  0  0  0  0
  161.3100  213.3610  149.0360 C   0  0  1  0  0  3  0  0  0  0  0  0
  162.9820  211.8590  147.8860 C   0  0  0  0  0  2  0  0  0  0  0  0
  161.6480  211.9110  148.6220 C   0  0  1  0  0  3  0  0  0  0  0  0
  161.2060  205.0550  152.8850 C   0  0  0  0  0  2  0  0  0  0  0  0
  160.4560  207.1800  150.8610 C   0  0  0  0  0  2  0  0  0  0  0  0
  161.1600  203.1070  149.6390 C   0  0  0  0  0  0  0  0  0  0  0  0
  161.2830  203.4500  150.9910 C   0  0  0  0  0  3  0  0  0  0  0  0
  161.0650  204.7630  151.4200 C   0  0  0  0  0  0  0  0  0  0  0  0
  161.6480  207.7640  151.6190 C   0  0  2  0  0  3  0  0  0  0  0  0
  160.5880  205.4090  149.1270 C   0  0  0  0  0  3  0  0  0  0  0  0
  160.7130  205.7550  150.4760 C   0  0  0  0  0  0  0  0  0  0  0  0
  160.8110  204.0940  148.7100 C   0  0  0  0  0  3  0  0  0  0  0  0
  161.5320  207.4250  152.9750 O   0  0  0  0  0  0  0  0  0  0  0  0
  162.1870  206.1960  153.1280 C   0  0  0  0  0  2  0  0  0  0  0  0
  161.3950  201.7210  149.2050 C   0  0  0  0  0  0  0  0  0  0  0  0
  161.5820  201.4560  147.9870 O   0  0  0  0  0  0  0  0  0  0  0  0
  161.4120  200.6880  150.1360 O   0  0  0  0  0  1  0  0  0  0  0  0
  162.0130  213.5890  144.5770 C   0  0  0  0  0  3  0  0  0  0  0  0
  163.4560  213.3980  144.1350 C   0  0  0  0  0  1  0  0  0  0  0  0
  161.0760  212.8980  143.6050 C   0  0  0  0  0  1  0  0  0  0  0  0
  1  5  1  0  0  0  0
  1 10  1  0  0  0  0
  3 10  2  0  0  0  0
  3  9  1  0  0  0  0
  4  5  1  6  0  0  0
  4 23  1  0  0  0  0
  4  8  1  0  0  0  0
  6  8  1  0  0  0  0
  6  7  2  0  0  0  0
  9 11  2  0  0  0  0
 10  6  1  0  0  0  0
 11  7  1  0  0  0  0
 12  2  2  0  0  0  0
 13 32  1  6  0  0  0
 13 12  1  0  0  0  0
 13 14  1  0  0  0  0
 14 16  1  0  0  0  0
 15  2  1  6  0  0  0
 15  3  1  0  0  0  0
 17 16  1  1  0  0  0
 17 15  1  0  0  0  0
 17  1  1  0  0  0  0
 18 28  1  0  0  0  0
 20 21  1  0  0  0  0
 21 22  2  0  0  0  0
 22 18  1  0  0  0  0
 23 19  1  6  0  0  0
 23 27  1  0  0  0  0
 24 25  2  0  0  0  0
 25 19  1  0  0  0  0
 25 22  1  0  0  0  0
 26 24  1  0  0  0  0
 26 20  2  0  0  0  0
 27 28  1  0  0  0  0
 29 20  1  0  0  0  0
 29 31  1  0  0  0  0
 30 29  2  0  0  0  0
 33 32  1  0  0  0  0
 34 32  1  0  0  0  0
M  END
>  <MODEL>
6

>  <REMARK>
 VINA RESULT:      -8.2      3.725      5.288
  Name = 
  3 active torsions:
  status: ('A' for Active; 'I' for Inactive)
    1  A    between atoms: C_3  and  C_25
    2  A    between atoms: C_7  and  C_11
    3  A    between atoms: C_8  and  C_18
                            x       y       z     vdW  Elec       q    Type
                         _______ _______ _______ _____ _____    ______ ____

>  <TORSDO>
F 3

$$$$
=
 OpenBabel11062409393D

 34 39  0  0  1  0  0  0  0  0999 V2000
  160.3620  209.4370  153.0650 N   0  0  0  0  0  0  0  0  0  0  0  0
  158.1980  211.0220  155.5190 C   0  0  0  0  0  3  0  0  0  0  0  0
  160.0140  209.2790  155.3470 C   0  0  0  0  0  0  0  0  0  0  0  0
  161.5410  207.6940  151.8050 C   0  0  1  0  0  3  0  0  0  0  0  0
  160.4530  208.7910  151.7610 C   0  0  0  0  0  2  0  0  0  0  0  0
  160.9750  207.3710  154.2590 C   0  0  0  0  0  0  0  0  0  0  0  0
  160.9950  206.7120  155.4540 N   0  0  0  0  0  0  0  0  0  0  0  0
  161.2940  206.6870  152.9580 C   0  0  0  0  0  2  0  0  0  0  0  0
  160.0570  208.6340  156.5840 C   0  0  0  0  0  3  0  0  0  0  0  0
  160.5020  208.6680  154.2340 C   0  0  0  0  0  0  0  0  0  0  0  0
  160.5670  207.3180  156.6080 C   0  0  0  0  0  3  0  0  0  0  0  0
  157.4420  212.0130  155.0060 C   0  0  0  0  0  3  0  0  0  0  0  0
  157.7370  212.8080  153.7440 C   0  0  2  0  0  3  0  0  0  0  0  0
  159.2330  213.0710  153.4830 C   0  0  0  0  0  2  0  0  0  0  0  0
  159.5400  210.6390  154.9650 C   0  0  1  0  0  3  0  0  0  0  0  0
  159.9270  211.8800  152.8000 C   0  0  0  0  0  2  0  0  0  0  0  0
  159.4970  210.5560  153.4220 C   0  0  1  0  0  3  0  0  0  0  0  0
  162.6220  206.2300  147.7040 C   0  0  0  0  0  2  0  0  0  0  0  0
  162.2770  205.5950  150.6450 C   0  0  0  0  0  2  0  0  0  0  0  0
  161.0090  202.8070  147.6130 C   0  0  0  0  0  0  0  0  0  0  0  0
  161.5860  204.0240  147.2300 C   0  0  0  0  0  3  0  0  0  0  0  0
  162.0050  204.9520  148.1880 C   0  0  0  0  0  0  0  0  0  0  0  0
  161.6350  206.9700  150.4640 C   0  0  2  0  0  3  0  0  0  0  0  0
  161.2720  203.4380  149.9410 C   0  0  0  0  0  3  0  0  0  0  0  0
  161.8460  204.6550  149.5610 C   0  0  0  0  0  0  0  0  0  0  0  0
  160.8550  202.5190  148.9750 C   0  0  0  0  0  3  0  0  0  0  0  0
  162.4130  207.7180  149.5680 O   0  0  0  0  0  0  0  0  0  0  0  0
  161.9090  207.4440  148.2900 C   0  0  0  0  0  2  0  0  0  0  0  0
  160.5730  201.8430  146.5910 C   0  0  0  0  0  0  0  0  0  0  0  0
  160.0590  202.2430  145.5120 O   0  0  0  0  0  0  0  0  0  0  0  0
  160.7220  200.4770  146.8080 O   0  0  0  0  0  1  0  0  0  0  0  0
  156.8980  214.0870  153.7140 C   0  0  0  0  0  3  0  0  0  0  0  0
  156.4450  214.4530  152.3090 C   0  0  0  0  0  1  0  0  0  0  0  0
  155.6960  213.9690  154.6330 C   0  0  0  0  0  1  0  0  0  0  0  0
  1 17  1  0  0  0  0
  1 10  1  0  0  0  0
  3  9  1  0  0  0  0
  4  5  1  6  0  0  0
  4  8  1  0  0  0  0
  5  1  1  0  0  0  0
  6  7  2  0  0  0  0
  7 11  1  0  0  0  0
  8  6  1  0  0  0  0
  9 11  2  0  0  0  0
 10  6  1  0  0  0  0
 10  3  2  0  0  0  0
 12  2  2  0  0  0  0
 13 32  1  1  0  0  0
 13 12  1  0  0  0  0
 14 13  1  0  0  0  0
 15  3  1  0  0  0  0
 15  2  1  1  0  0  0
 16 14  1  0  0  0  0
 17 16  1  6  0  0  0
 17 15  1  0  0  0  0
 18 22  1  0  0  0  0
 18 28  1  0  0  0  0
 20 26  1  0  0  0  0
 21 20  2  0  0  0  0
 21 22  1  0  0  0  0
 22 25  2  0  0  0  0
 23 19  1  1  0  0  0
 23  4  1  0  0  0  0
 25 24  1  0  0  0  0
 25 19  1  0  0  0  0
 26 24  2  0  0  0  0
 27 23  1  0  0  0  0
 28 27  1  0  0  0  0
 29 31  1  0  0  0  0
 29 20  1  0  0  0  0
 30 29  2  0  0  0  0
 32 34  1  0  0  0  0
 33 32  1  0  0  0  0
M  END
>  <MODEL>
7

>  <REMARK>
 VINA RESULT:      -8.1      1.420      2.114
  Name = 
  3 active torsions:
  status: ('A' for Active; 'I' for Inactive)
    1  A    between atoms: C_3  and  C_25
    2  A    between atoms: C_7  and  C_11
    3  A    between atoms: C_8  and  C_18
                            x       y       z     vdW  Elec       q    Type
                         _______ _______ _______ _____ _____    ______ ____

>  <TORSDO>
F 3

$$$$
