=
 OpenBabel11062410503D

 32 36  0  0  1  0  0  0  0  0999 V2000
  160.6050  202.0220  148.2680 C   0  0  2  0  0  3  0  0  0  0  0  0
  161.0380  205.9520  151.5110 C   0  0  0  0  0  0  0  0  0  0  0  0
  161.8650  210.0090  148.9580 C   0  0  0  0  0  2  0  0  0  0  0  0
  161.9540  210.7580  150.2930 C   0  0  0  0  0  2  0  0  0  0  0  0
  160.7390  203.7400  150.5580 C   0  0  0  0  0  0  0  0  0  0  0  0
  161.7100  205.5200  149.2220 C   0  0  0  0  0  3  0  0  0  0  0  0
  161.4890  203.2640  148.1750 C   0  0  0  0  0  2  0  0  0  0  0  0
  161.2460  208.6210  149.1510 C   0  0  0  0  0  2  0  0  0  0  0  0
  161.5830  206.4060  150.2970 C   0  0  0  0  0  0  0  0  0  0  0  0
  162.0810  207.8150  150.1450 C   0  0  0  0  0  0  0  0  0  0  0  0
  161.6510  208.1460  152.5990 C   0  0  0  0  0  0  0  0  0  0  0  0
  160.7540  201.3950  149.6480 C   0  0  0  0  0  2  0  0  0  0  0  0
  161.2750  204.1960  149.3350 C   0  0  0  0  0  0  0  0  0  0  0  0
  160.2000  202.3450  150.7070 C   0  0  0  0  0  2  0  0  0  0  0  0
  162.7730  209.9630  151.3130 C   0  0  0  0  0  2  0  0  0  0  0  0
  162.1870  208.5860  151.4390 C   0  0  0  0  0  0  0  0  0  0  0  0
  160.6070  204.6280  151.6280 C   0  0  0  0  0  3  0  0  0  0  0  0
  160.8440  206.8750  152.6750 C   0  0  0  0  0  3  0  0  0  0  0  0
  160.9870  201.1040  147.2890 O   0  0  0  0  0  0  0  0  0  0  0  0
  161.1440  201.8640  146.1270 C   0  0  0  0  0  2  0  0  0  0  0  0
  160.0540  201.5190  145.1280 C   0  0  0  0  0  2  0  0  0  0  0  0
  160.8530  204.0030  144.8060 C   0  0  0  0  0  1  0  0  0  0  0  0
  159.3820  203.0320  144.3740 S   0  0  0  0  0  0  0  0  0  0  0  0
  161.7500  208.9690  153.8510 C   0  0  0  0  0  2  0  0  0  0  0  0
  160.4690  209.7630  154.0850 C   0  0  2  0  0  3  0  0  0  0  0  0
  159.8960  212.0750  153.1190 C   0  0  1  0  0  3  0  0  0  0  0  0
  159.5640  212.0320  154.5960 C   0  0  0  0  0  2  0  0  0  0  0  0
  160.7670  211.2640  154.0840 C   0  0  1  0  0  3  0  0  0  0  0  0
  158.9900  211.2750  152.4170 O   0  0  0  0  0  1  0  0  0  0  0  0
  159.7570  209.3340  155.3720 C   0  0  0  0  0  2  0  0  0  0  0  0
  160.6280  208.4480  156.2510 C   0  0  0  0  0  2  0  0  0  0  0  0
  159.9260  207.1290  156.4900 C   0  0  0  0  0  1  0  0  0  0  0  0
  1 19  1  6  0  0  0
  1 12  1  0  0  0  0
  2 17  2  0  0  0  0
  2 18  1  0  0  0  0
  3  8  1  0  0  0  0
  3  4  1  0  0  0  0
  4 15  1  0  0  0  0
  5 14  1  0  0  0  0
  5 17  1  0  0  0  0
  6 13  1  0  0  0  0
  6  9  2  0  0  0  0
  7  1  1  0  0  0  0
  7 13  1  0  0  0  0
  8 10  1  0  0  0  0
  9  2  1  0  0  0  0
 10  9  1  0  0  0  0
 10 16  2  0  0  0  0
 11 18  2  0  0  0  0
 11 24  1  0  0  0  0
 12 14  1  0  0  0  0
 13  5  2  0  0  0  0
 15 16  1  0  0  0  0
 16 11  1  0  0  0  0
 20 19  1  0  0  0  0
 21 20  1  0  0  0  0
 23 22  1  0  0  0  0
 23 21  1  0  0  0  0
 25 24  1  1  0  0  0
 25 30  1  0  0  0  0
 26 29  1  6  0  0  0
 26 28  1  0  0  0  0
 26 27  1  0  0  0  0
 28 25  1  6  0  0  0
 28 27  1  0  0  0  0
 30 31  1  0  0  0  0
 31 32  1  0  0  0  0
M  END
>  <MODEL>
1

>  <REMARK>
 VINA RESULT:      -7.2      0.000      0.000
  Name = 
  9 active torsions:
  status: ('A' for Active; 'I' for Inactive)
    1  A    between atoms: C_2  and  O_24
    2  A    between atoms: C_6  and  C_7
    3  A    between atoms: C_7  and  C_32
    4  A    between atoms: C_10  and  C_20
    5  A    between atoms: C_10  and  O_24
    6  A    between atoms: C_16  and  C_27
    7  A    between atoms: S_17  and  C_20
    8  A    between atoms: C_22  and  C_32
    9  A    between atoms: C_27  and  C_32
                            x       y       z     vdW  Elec       q    Type
                         _______ _______ _______ _____ _____    ______ ____

>  <TORSDO>
F 9

$$$$
=
 OpenBabel11062410503D

 32 36  0  0  1  0  0  0  0  0999 V2000
  161.9460  205.7430  148.5560 C   0  0  2  0  0  3  0  0  0  0  0  0
  161.2960  209.3150  152.1580 C   0  0  0  0  0  0  0  0  0  0  0  0
  160.7600  207.1210  156.4650 C   0  0  0  0  0  2  0  0  0  0  0  0
  160.5670  208.5110  157.0810 C   0  0  0  0  0  2  0  0  0  0  0  0
  161.6410  208.1750  150.0430 C   0  0  0  0  0  0  0  0  0  0  0  0
  160.8190  206.9450  151.9690 C   0  0  0  0  0  3  0  0  0  0  0  0
  161.0950  205.7010  149.8230 C   0  0  0  0  0  2  0  0  0  0  0  0
  161.3380  207.2260  155.0500 C   0  0  0  0  0  2  0  0  0  0  0  0
  160.8660  208.1110  152.7420 C   0  0  0  0  0  0  0  0  0  0  0  0
  160.4070  208.0590  154.1710 C   0  0  0  0  0  0  0  0  0  0  0  0
  160.6260  210.5620  154.2480 C   0  0  0  0  0  0  0  0  0  0  0  0
  161.6680  207.0360  147.8000 C   0  0  0  0  0  2  0  0  0  0  0  0
  161.2210  206.9620  150.6310 C   0  0  0  0  0  0  0  0  0  0  0  0
  162.1430  208.2280  148.6270 C   0  0  0  0  0  2  0  0  0  0  0  0
  159.6500  209.3730  156.2100 C   0  0  0  0  0  2  0  0  0  0  0  0
  160.2000  209.4100  154.8130 C   0  0  0  0  0  0  0  0  0  0  0  0
  161.6930  209.3350  150.8180 C   0  0  0  0  0  3  0  0  0  0  0  0
  161.4030  210.5780  152.9560 C   0  0  0  0  0  3  0  0  0  0  0  0
  161.6370  204.6490  147.7490 O   0  0  0  0  0  0  0  0  0  0  0  0
  161.2100  203.6580  148.6370 C   0  0  0  0  0  2  0  0  0  0  0  0
  161.1150  202.3220  147.9220 C   0  0  0  0  0  2  0  0  0  0  0  0
  160.8770  202.1130  150.5310 C   0  0  0  0  0  1  0  0  0  0  0  0
  160.9380  200.9690  149.1240 S   0  0  0  0  0  0  0  0  0  0  0  0
  160.4310  211.8770  154.9460 C   0  0  0  0  0  2  0  0  0  0  0  0
  159.0790  212.4880  154.5920 C   0  0  2  0  0  3  0  0  0  0  0  0
  158.8860  213.3820  152.1900 C   0  0  1  0  0  3  0  0  0  0  0  0
  157.9220  214.1180  153.0980 C   0  0  0  0  0  2  0  0  0  0  0  0
  159.2650  213.6750  153.6450 C   0  0  1  0  0  3  0  0  0  0  0  0
  158.4400  212.0700  152.0090 O   0  0  0  0  0  1  0  0  0  0  0  0
  158.2860  212.8850  155.8400 C   0  0  0  0  0  2  0  0  0  0  0  0
  157.0650  212.0020  156.0590 C   0  0  0  0  0  2  0  0  0  0  0  0
  156.8230  211.1630  154.8220 C   0  0  0  0  0  1  0  0  0  0  0  0
  1 19  1  6  0  0  0
  1  7  1  0  0  0  0
  2  9  1  0  0  0  0
  2 18  1  0  0  0  0
  3  4  1  0  0  0  0
  5 13  2  0  0  0  0
  5 17  1  0  0  0  0
  6  9  2  0  0  0  0
  7 13  1  0  0  0  0
  8  3  1  0  0  0  0
  9 10  1  0  0  0  0
 10 16  2  0  0  0  0
 10  8  1  0  0  0  0
 11 16  1  0  0  0  0
 11 24  1  0  0  0  0
 12  1  1  0  0  0  0
 12 14  1  0  0  0  0
 13  6  1  0  0  0  0
 14  5  1  0  0  0  0
 15  4  1  0  0  0  0
 16 15  1  0  0  0  0
 17  2  2  0  0  0  0
 18 11  2  0  0  0  0
 19 20  1  0  0  0  0
 21 20  1  0  0  0  0
 21 23  1  0  0  0  0
 23 22  1  0  0  0  0
 25 24  1  1  0  0  0
 25 30  1  0  0  0  0
 26 29  1  1  0  0  0
 26 27  1  0  0  0  0
 26 28  1  0  0  0  0
 27 28  1  0  0  0  0
 28 25  1  1  0  0  0
 30 31  1  0  0  0  0
 32 31  1  0  0  0  0
M  END
>  <MODEL>
2

>  <REMARK>
 VINA RESULT:      -7.0      1.812      4.499
  Name = 
  9 active torsions:
  status: ('A' for Active; 'I' for Inactive)
    1  A    between atoms: C_2  and  O_24
    2  A    between atoms: C_6  and  C_7
    3  A    between atoms: C_7  and  C_32
    4  A    between atoms: C_10  and  C_20
    5  A    between atoms: C_10  and  O_24
    6  A    between atoms: C_16  and  C_27
    7  A    between atoms: S_17  and  C_20
    8  A    between atoms: C_22  and  C_32
    9  A    between atoms: C_27  and  C_32
                            x       y       z     vdW  Elec       q    Type
                         _______ _______ _______ _____ _____    ______ ____

>  <TORSDO>
F 9

$$$$
=
 OpenBabel11062410503D

 32 36  0  0  1  0  0  0  0  0999 V2000
  162.0230  205.1530  148.3610 C   0  0  2  0  0  3  0  0  0  0  0  0
  161.5010  208.8950  151.8080 C   0  0  0  0  0  0  0  0  0  0  0  0
  160.7010  206.9060  156.1730 C   0  0  0  0  0  2  0  0  0  0  0  0
  160.5800  208.3280  156.7320 C   0  0  0  0  0  2  0  0  0  0  0  0
  161.8320  207.6540  149.7480 C   0  0  0  0  0  0  0  0  0  0  0  0
  160.8780  206.5540  151.6910 C   0  0  0  0  0  3  0  0  0  0  0  0
  161.1340  205.2130  149.6010 C   0  0  0  0  0  2  0  0  0  0  0  0
  161.3250  206.9190  154.7740 C   0  0  0  0  0  2  0  0  0  0  0  0
  160.9780  207.7440  152.4220 C   0  0  0  0  0  0  0  0  0  0  0  0
  160.4750  207.7750  153.8370 C   0  0  0  0  0  0  0  0  0  0  0  0
  160.8530  210.2610  153.8300 C   0  0  0  0  0  0  0  0  0  0  0  0
  161.8500  206.4310  147.5500 C   0  0  0  0  0  2  0  0  0  0  0  0
  161.3190  206.4940  150.3660 C   0  0  0  0  0  0  0  0  0  0  0  0
  162.3780  207.6210  148.3470 C   0  0  0  0  0  2  0  0  0  0  0  0
  159.7460  209.2120  155.8020 C   0  0  0  0  0  2  0  0  0  0  0  0
  160.3380  209.1600  154.4220 C   0  0  0  0  0  0  0  0  0  0  0  0
  161.9380  208.8380  150.4810 C   0  0  0  0  0  3  0  0  0  0  0  0
  161.6660  210.1770  152.5620 C   0  0  0  0  0  3  0  0  0  0  0  0
  161.6670  204.0500  147.5850 O   0  0  0  0  0  0  0  0  0  0  0  0
  161.7500  204.5000  146.2640 C   0  0  0  0  0  2  0  0  0  0  0  0
  161.1950  203.4500  145.3190 C   0  0  0  0  0  2  0  0  0  0  0  0
  159.8650  201.2340  144.8360 C   0  0  0  0  0  1  0  0  0  0  0  0
  160.8130  201.9180  146.2240 S   0  0  0  0  0  0  0  0  0  0  0  0
  160.7240  211.6110  154.4720 C   0  0  0  0  0  2  0  0  0  0  0  0
  159.5240  212.3690  153.9130 C   0  0  2  0  0  3  0  0  0  0  0  0
  157.7370  213.3030  155.5070 C   0  0  1  0  0  3  0  0  0  0  0  0
  157.0950  212.8610  154.2080 C   0  0  0  0  0  2  0  0  0  0  0  0
  158.2770  212.0840  154.7540 C   0  0  1  0  0  3  0  0  0  0  0  0
  158.4990  214.4520  155.2780 O   0  0  0  0  0  1  0  0  0  0  0  0
  159.2870  212.0540  152.4330 C   0  0  0  0  0  2  0  0  0  0  0  0
  159.4650  213.2760  151.5430 C   0  0  0  0  0  2  0  0  0  0  0  0
  158.2830  213.3920  150.6050 C   0  0  0  0  0  1  0  0  0  0  0  0
  1 19  1  6  0  0  0
  1  7  1  0  0  0  0
  2  9  1  0  0  0  0
  2 18  1  0  0  0  0
  3  4  1  0  0  0  0
  5 13  2  0  0  0  0
  5 17  1  0  0  0  0
  6  9  2  0  0  0  0
  7 13  1  0  0  0  0
  8  3  1  0  0  0  0
  9 10  1  0  0  0  0
 10 16  2  0  0  0  0
 10  8  1  0  0  0  0
 11 16  1  0  0  0  0
 11 24  1  0  0  0  0
 12 14  1  0  0  0  0
 12  1  1  0  0  0  0
 13  6  1  0  0  0  0
 14  5  1  0  0  0  0
 15  4  1  0  0  0  0
 16 15  1  0  0  0  0
 17  2  2  0  0  0  0
 18 11  2  0  0  0  0
 20 19  1  0  0  0  0
 21 23  1  0  0  0  0
 21 20  1  0  0  0  0
 22 23  1  0  0  0  0
 25 30  1  6  0  0  0
 25 24  1  0  0  0  0
 26 29  1  6  0  0  0
 27 28  1  0  0  0  0
 27 26  1  0  0  0  0
 28 25  1  6  0  0  0
 28 26  1  0  0  0  0
 31 30  1  0  0  0  0
 32 31  1  0  0  0  0
M  END
>  <MODEL>
3

>  <REMARK>
 VINA RESULT:      -6.9      1.834      4.387
  Name = 
  9 active torsions:
  status: ('A' for Active; 'I' for Inactive)
    1  A    between atoms: C_2  and  O_24
    2  A    between atoms: C_6  and  C_7
    3  A    between atoms: C_7  and  C_32
    4  A    between atoms: C_10  and  C_20
    5  A    between atoms: C_10  and  O_24
    6  A    between atoms: C_16  and  C_27
    7  A    between atoms: S_17  and  C_20
    8  A    between atoms: C_22  and  C_32
    9  A    between atoms: C_27  and  C_32
                            x       y       z     vdW  Elec       q    Type
                         _______ _______ _______ _____ _____    ______ ____

>  <TORSDO>
F 9

$$$$
=
 OpenBabel11062410503D

 32 36  0  0  1  0  0  0  0  0999 V2000
  161.6270  209.1770  156.4140 C   0  0  2  0  0  3  0  0  0  0  0  0
  161.0620  206.1700  152.3160 C   0  0  0  0  0  0  0  0  0  0  0  0
  162.3580  208.6670  148.3480 C   0  0  0  0  0  2  0  0  0  0  0  0
  161.9750  207.4340  147.5210 C   0  0  0  0  0  2  0  0  0  0  0  0
  161.1010  207.0350  154.5830 C   0  0  0  0  0  0  0  0  0  0  0  0
  161.2110  208.5600  152.6980 C   0  0  0  0  0  3  0  0  0  0  0  0
  161.2050  209.5420  154.9920 C   0  0  0  0  0  2  0  0  0  0  0  0
  162.4690  208.3150  149.8350 C   0  0  0  0  0  2  0  0  0  0  0  0
  161.1540  207.4790  151.8110 C   0  0  0  0  0  0  0  0  0  0  0  0
  161.1410  207.7470  150.3330 C   0  0  0  0  0  0  0  0  0  0  0  0
  160.6880  205.3000  149.9760 C   0  0  0  0  0  0  0  0  0  0  0  0
  160.8110  207.9840  156.8950 C   0  0  0  0  0  2  0  0  0  0  0  0
  161.2050  208.3490  154.0790 C   0  0  0  0  0  0  0  0  0  0  0  0
  161.1570  206.7540  156.0590 C   0  0  0  0  0  2  0  0  0  0  0  0
  160.6540  206.8350  148.0110 C   0  0  0  0  0  2  0  0  0  0  0  0
  160.7640  206.5570  149.4830 C   0  0  0  0  0  0  0  0  0  0  0  0
  161.0510  205.9570  153.6970 C   0  0  0  0  0  3  0  0  0  0  0  0
  161.0410  204.9810  151.4070 C   0  0  0  0  0  3  0  0  0  0  0  0
  161.4130  210.2660  157.2590 O   0  0  0  0  0  0  0  0  0  0  0  0
  161.2860  211.3640  156.4030 C   0  0  0  0  0  2  0  0  0  0  0  0
  160.4420  212.4420  157.0590 C   0  0  0  0  0  2  0  0  0  0  0  0
  159.2880  212.7910  154.7230 C   0  0  0  0  0  1  0  0  0  0  0  0
  158.7430  212.4020  156.4090 S   0  0  0  0  0  0  0  0  0  0  0  0
  160.3470  204.1440  149.0810 C   0  0  0  0  0  2  0  0  0  0  0  0
  161.5190  203.7960  148.1680 C   0  0  2  0  0  3  0  0  0  0  0  0
  162.4010  204.5660  145.8800 C   0  0  1  0  0  3  0  0  0  0  0  0
  161.8420  203.1620  145.7760 C   0  0  0  0  0  2  0  0  0  0  0  0
  161.1870  204.1530  146.7180 C   0  0  1  0  0  3  0  0  0  0  0  0
  163.5900  204.5380  146.6150 O   0  0  0  0  0  1  0  0  0  0  0  0
  161.9320  202.3270  148.3040 C   0  0  0  0  0  2  0  0  0  0  0  0
  160.7830  201.4390  148.7560 C   0  0  0  0  0  2  0  0  0  0  0  0
  161.0350  200.9730  150.1740 C   0  0  0  0  0  1  0  0  0  0  0  0
  1 12  1  0  0  0  0
  1 19  1  1  0  0  0
  2 17  1  0  0  0  0
  3  8  1  0  0  0  0
  4 15  1  0  0  0  0
  4  3  1  0  0  0  0
  5 14  1  0  0  0  0
  6 13  2  0  0  0  0
  7  1  1  0  0  0  0
  8 10  1  0  0  0  0
  9  2  1  0  0  0  0
  9  6  1  0  0  0  0
 10  9  2  0  0  0  0
 11 18  1  0  0  0  0
 13  5  1  0  0  0  0
 13  7  1  0  0  0  0
 14 12  1  0  0  0  0
 15 16  1  0  0  0  0
 16 11  2  0  0  0  0
 16 10  1  0  0  0  0
 17  5  2  0  0  0  0
 18  2  2  0  0  0  0
 20 21  1  0  0  0  0
 20 19  1  0  0  0  0
 22 23  1  0  0  0  0
 23 21  1  0  0  0  0
 24 11  1  0  0  0  0
 25 30  1  6  0  0  0
 25 24  1  0  0  0  0
 26 29  1  1  0  0  0
 26 28  1  0  0  0  0
 27 26  1  0  0  0  0
 27 28  1  0  0  0  0
 28 25  1  1  0  0  0
 30 31  1  0  0  0  0
 31 32  1  0  0  0  0
M  END
>  <MODEL>
4

>  <REMARK>
 VINA RESULT:      -6.4      3.259      8.788
  Name = 
  9 active torsions:
  status: ('A' for Active; 'I' for Inactive)
    1  A    between atoms: C_2  and  O_24
    2  A    between atoms: C_6  and  C_7
    3  A    between atoms: C_7  and  C_32
    4  A    between atoms: C_10  and  C_20
    5  A    between atoms: C_10  and  O_24
    6  A    between atoms: C_16  and  C_27
    7  A    between atoms: S_17  and  C_20
    8  A    between atoms: C_22  and  C_32
    9  A    between atoms: C_27  and  C_32
                            x       y       z     vdW  Elec       q    Type
                         _______ _______ _______ _____ _____    ______ ____

>  <TORSDO>
F 9

$$$$
=
 OpenBabel11062410503D

 32 36  0  0  1  0  0  0  0  0999 V2000
  161.5950  203.3810  146.9180 C   0  0  2  0  0  3  0  0  0  0  0  0
  161.9130  207.9810  149.1310 C   0  0  0  0  0  0  0  0  0  0  0  0
  161.0420  207.4940  153.8910 C   0  0  0  0  0  2  0  0  0  0  0  0
  161.1960  209.0150  154.0130 C   0  0  0  0  0  2  0  0  0  0  0  0
  161.9100  206.1660  147.5190 C   0  0  0  0  0  0  0  0  0  0  0  0
  160.8980  205.8540  149.7040 C   0  0  0  0  0  3  0  0  0  0  0  0
  160.8030  203.9500  148.0930 C   0  0  0  0  0  2  0  0  0  0  0  0
  161.5780  206.9970  152.5450 C   0  0  0  0  0  2  0  0  0  0  0  0
  161.2390  207.1650  150.0560 C   0  0  0  0  0  0  0  0  0  0  0  0
  160.8310  207.6880  151.4040 C   0  0  0  0  0  0  0  0  0  0  0  0
  161.6230  209.9590  150.6720 C   0  0  0  0  0  0  0  0  0  0  0  0
  161.5940  204.3850  145.7710 C   0  0  0  0  0  2  0  0  0  0  0  0
  161.2450  205.3410  148.4510 C   0  0  0  0  0  0  0  0  0  0  0  0
  162.3600  205.6380  146.1850 C   0  0  0  0  0  2  0  0  0  0  0  0
  160.4700  209.7310  152.8710 C   0  0  0  0  0  2  0  0  0  0  0  0
  160.9640  209.1840  151.5630 C   0  0  0  0  0  0  0  0  0  0  0  0
  162.2560  207.4710  147.8760 C   0  0  0  0  0  3  0  0  0  0  0  0
  162.3360  209.3740  149.4790 C   0  0  0  0  0  3  0  0  0  0  0  0
  161.0140  202.1850  146.4980 O   0  0  0  0  0  0  0  0  0  0  0  0
  160.4310  201.6470  147.6480 C   0  0  0  0  0  2  0  0  0  0  0  0
  161.4630  200.8630  148.4390 C   0  0  0  0  0  2  0  0  0  0  0  0
  159.3310  201.1920  149.9410 C   0  0  0  0  0  1  0  0  0  0  0  0
  161.1090  200.9630  150.2210 S   0  0  0  0  0  0  0  0  0  0  0  0
  161.7610  211.4370  150.8960 C   0  0  0  0  0  2  0  0  0  0  0  0
  161.0570  212.2230  149.7940 C   0  0  2  0  0  3  0  0  0  0  0  0
  161.5450  212.4520  147.2810 C   0  0  1  0  0  3  0  0  0  0  0  0
  161.5240  213.8190  147.9330 C   0  0  0  0  0  2  0  0  0  0  0  0
  162.0590  212.6330  148.7120 C   0  0  1  0  0  3  0  0  0  0  0  0
  160.2450  211.9380  147.2420 O   0  0  0  0  0  1  0  0  0  0  0  0
  160.3030  213.4350  150.3490 C   0  0  0  0  0  2  0  0  0  0  0  0
  159.6660  213.1540  151.7020 C   0  0  0  0  0  2  0  0  0  0  0  0
  158.1630  213.0580  151.5400 C   0  0  0  0  0  1  0  0  0  0  0  0
  1 19  1  6  0  0  0
  1  7  1  0  0  0  0
  2 18  2  0  0  0  0
  2  9  1  0  0  0  0
  3  4  1  0  0  0  0
  5 17  2  0  0  0  0
  5 13  1  0  0  0  0
  6  9  1  0  0  0  0
  7 13  1  0  0  0  0
  8  3  1  0  0  0  0
  9 10  2  0  0  0  0
 10 16  1  0  0  0  0
 10  8  1  0  0  0  0
 11 24  1  0  0  0  0
 11 16  2  0  0  0  0
 12 14  1  0  0  0  0
 12  1  1  0  0  0  0
 13  6  2  0  0  0  0
 14  5  1  0  0  0  0
 15  4  1  0  0  0  0
 16 15  1  0  0  0  0
 17  2  1  0  0  0  0
 18 11  1  0  0  0  0
 19 20  1  0  0  0  0
 20 21  1  0  0  0  0
 21 23  1  0  0  0  0
 22 23  1  0  0  0  0
 25 30  1  1  0  0  0
 25 24  1  0  0  0  0
 26 29  1  1  0  0  0
 26 27  1  0  0  0  0
 26 28  1  0  0  0  0
 27 28  1  0  0  0  0
 28 25  1  1  0  0  0
 30 31  1  0  0  0  0
 32 31  1  0  0  0  0
M  END
>  <MODEL>
5

>  <REMARK>
 VINA RESULT:      -6.3      2.252      4.534
  Name = 
  9 active torsions:
  status: ('A' for Active; 'I' for Inactive)
    1  A    between atoms: C_2  and  O_24
    2  A    between atoms: C_6  and  C_7
    3  A    between atoms: C_7  and  C_32
    4  A    between atoms: C_10  and  C_20
    5  A    between atoms: C_10  and  O_24
    6  A    between atoms: C_16  and  C_27
    7  A    between atoms: S_17  and  C_20
    8  A    between atoms: C_22  and  C_32
    9  A    between atoms: C_27  and  C_32
                            x       y       z     vdW  Elec       q    Type
                         _______ _______ _______ _____ _____    ______ ____

>  <TORSDO>
F 9

$$$$
=
 OpenBabel11062410503D

 32 36  0  0  1  0  0  0  0  0999 V2000
  161.6000  203.8280  145.8910 C   0  0  2  0  0  3  0  0  0  0  0  0
  162.0500  207.4130  149.5100 C   0  0  0  0  0  0  0  0  0  0  0  0
  161.0930  205.4050  153.8350 C   0  0  0  0  0  2  0  0  0  0  0  0
  161.2990  206.7910  154.4560 C   0  0  0  0  0  2  0  0  0  0  0  0
  162.0060  206.2400  147.3850 C   0  0  0  0  0  0  0  0  0  0  0  0
  160.9510  205.2590  149.3400 C   0  0  0  0  0  3  0  0  0  0  0  0
  160.8110  204.0040  147.1860 C   0  0  0  0  0  2  0  0  0  0  0  0
  161.6300  205.3630  152.4000 C   0  0  0  0  0  2  0  0  0  0  0  0
  161.3340  206.3630  150.1100 C   0  0  0  0  0  0  0  0  0  0  0  0
  160.9260  206.4230  151.5540 C   0  0  0  0  0  0  0  0  0  0  0  0
  161.8090  208.7760  151.6220 C   0  0  0  0  0  0  0  0  0  0  0  0
  161.6520  205.1550  145.1440 C   0  0  0  0  0  2  0  0  0  0  0  0
  161.2970  205.1790  147.9880 C   0  0  0  0  0  0  0  0  0  0  0  0
  162.4560  206.1690  145.9530 C   0  0  0  0  0  2  0  0  0  0  0  0
  160.6170  207.8740  153.6170 C   0  0  0  0  0  2  0  0  0  0  0  0
  161.1100  207.7750  152.2020 C   0  0  0  0  0  0  0  0  0  0  0  0
  162.3930  207.3380  148.1570 C   0  0  0  0  0  3  0  0  0  0  0  0
  162.5180  208.5940  150.3030 C   0  0  0  0  0  3  0  0  0  0  0  0
  160.9820  202.8630  145.0950 O   0  0  0  0  0  0  0  0  0  0  0  0
  160.4000  201.9720  146.0010 C   0  0  0  0  0  2  0  0  0  0  0  0
  160.3760  200.5720  145.4130 C   0  0  0  0  0  2  0  0  0  0  0  0
  161.2610  198.1090  145.1750 C   0  0  0  0  0  1  0  0  0  0  0  0
  161.4640  199.4660  146.3620 S   0  0  0  0  0  0  0  0  0  0  0  0
  161.9970  210.0880  152.3250 C   0  0  0  0  0  2  0  0  0  0  0  0
  160.6770  210.5930  152.9000 C   0  0  2  0  0  3  0  0  0  0  0  0
  158.5920  211.9560  152.2660 C   0  0  1  0  0  3  0  0  0  0  0  0
  159.6810  212.8780  152.7720 C   0  0  0  0  0  2  0  0  0  0  0  0
  160.0630  211.6470  151.9750 C   0  0  1  0  0  3  0  0  0  0  0  0
  158.0900  211.2040  153.3330 O   0  0  0  0  0  1  0  0  0  0  0  0
  160.8420  211.1270  154.3260 C   0  0  0  0  0  2  0  0  0  0  0  0
  162.1510  210.6850  154.9650 C   0  0  0  0  0  2  0  0  0  0  0  0
  161.8780  210.1530  156.3560 C   0  0  0  0  0  1  0  0  0  0  0  0
  1 19  1  6  0  0  0
  1  7  1  0  0  0  0
  2  9  1  0  0  0  0
  2 18  1  0  0  0  0
  3  4  1  0  0  0  0
  5 13  2  0  0  0  0
  5 17  1  0  0  0  0
  6  9  2  0  0  0  0
  7 13  1  0  0  0  0
  8  3  1  0  0  0  0
  9 10  1  0  0  0  0
 10 16  2  0  0  0  0
 10  8  1  0  0  0  0
 11 16  1  0  0  0  0
 11 24  1  0  0  0  0
 12  1  1  0  0  0  0
 12 14  1  0  0  0  0
 13  6  1  0  0  0  0
 14  5  1  0  0  0  0
 15  4  1  0  0  0  0
 16 15  1  0  0  0  0
 17  2  2  0  0  0  0
 18 11  2  0  0  0  0
 19 20  1  0  0  0  0
 21 20  1  0  0  0  0
 21 23  1  0  0  0  0
 22 23  1  0  0  0  0
 25 24  1  6  0  0  0
 25 30  1  0  0  0  0
 26 27  1  0  0  0  0
 26 29  1  1  0  0  0
 28 26  1  0  0  0  0
 28 27  1  0  0  0  0
 28 25  1  1  0  0  0
 30 31  1  0  0  0  0
 31 32  1  0  0  0  0
M  END
>  <MODEL>
6

>  <REMARK>
 VINA RESULT:      -6.2      1.874      3.481
  Name = 
  9 active torsions:
  status: ('A' for Active; 'I' for Inactive)
    1  A    between atoms: C_2  and  O_24
    2  A    between atoms: C_6  and  C_7
    3  A    between atoms: C_7  and  C_32
    4  A    between atoms: C_10  and  C_20
    5  A    between atoms: C_10  and  O_24
    6  A    between atoms: C_16  and  C_27
    7  A    between atoms: S_17  and  C_20
    8  A    between atoms: C_22  and  C_32
    9  A    between atoms: C_27  and  C_32
                            x       y       z     vdW  Elec       q    Type
                         _______ _______ _______ _____ _____    ______ ____

>  <TORSDO>
F 9

$$$$
=
 OpenBabel11062410503D

 32 36  0  0  1  0  0  0  0  0999 V2000
  161.8930  203.9620  147.4380 C   0  0  2  0  0  3  0  0  0  0  0  0
  161.5560  208.1680  150.3270 C   0  0  0  0  0  0  0  0  0  0  0  0
  161.2140  206.8410  154.9940 C   0  0  0  0  0  2  0  0  0  0  0  0
  161.0960  208.3290  155.3450 C   0  0  0  0  0  2  0  0  0  0  0  0
  161.7430  206.6390  148.4520 C   0  0  0  0  0  0  0  0  0  0  0  0
  161.0030  205.8240  150.6160 C   0  0  0  0  0  3  0  0  0  0  0  0
  161.1170  204.1910  148.7330 C   0  0  0  0  0  2  0  0  0  0  0  0
  161.7100  206.6560  153.5560 C   0  0  0  0  0  2  0  0  0  0  0  0
  161.1280  207.1120  151.1510 C   0  0  0  0  0  0  0  0  0  0  0  0
  160.7520  207.3460  152.5860 C   0  0  0  0  0  0  0  0  0  0  0  0
  161.0450  209.8090  152.1770 C   0  0  0  0  0  0  0  0  0  0  0  0
  161.6060  205.1000  146.4660 C   0  0  0  0  0  2  0  0  0  0  0  0
  161.3260  205.5750  149.2790 C   0  0  0  0  0  0  0  0  0  0  0  0
  162.1620  206.4070  147.0270 C   0  0  0  0  0  2  0  0  0  0  0  0
  160.1530  209.0470  154.3770 C   0  0  0  0  0  2  0  0  0  0  0  0
  160.6220  208.8000  152.9710 C   0  0  0  0  0  0  0  0  0  0  0  0
  161.8740  207.9210  148.9890 C   0  0  0  0  0  3  0  0  0  0  0  0
  161.7440  209.5520  150.8660 C   0  0  0  0  0  3  0  0  0  0  0  0
  161.5060  202.7480  146.8690 O   0  0  0  0  0  0  0  0  0  0  0  0
  160.8230  202.0780  147.8870 C   0  0  0  0  0  2  0  0  0  0  0  0
  161.2130  200.6110  147.8980 C   0  0  0  0  0  2  0  0  0  0  0  0
  160.1110  201.2590  145.6010 C   0  0  0  0  0  1  0  0  0  0  0  0
  161.1930  199.9350  146.2090 S   0  0  0  0  0  0  0  0  0  0  0  0
  160.9280  211.2370  152.6220 C   0  0  0  0  0  2  0  0  0  0  0  0
  159.7290  211.9170  151.9690 C   0  0  2  0  0  3  0  0  0  0  0  0
  160.4060  213.5580  150.1100 C   0  0  1  0  0  3  0  0  0  0  0  0
  159.0330  213.9130  150.6420 C   0  0  0  0  0  2  0  0  0  0  0  0
  160.0760  213.3590  151.5920 C   0  0  1  0  0  3  0  0  0  0  0  0
  160.3270  212.3670  149.3810 O   0  0  0  0  0  1  0  0  0  0  0  0
  158.4820  211.8530  152.8550 C   0  0  0  0  0  2  0  0  0  0  0  0
  158.7840  212.1880  154.3090 C   0  0  0  0  0  2  0  0  0  0  0  0
  157.7480  213.1630  154.8270 C   0  0  0  0  0  1  0  0  0  0  0  0
  1 19  1  6  0  0  0
  1  7  1  0  0  0  0
  2 18  2  0  0  0  0
  2  9  1  0  0  0  0
  3  4  1  0  0  0  0
  5 17  2  0  0  0  0
  5 13  1  0  0  0  0
  6  9  1  0  0  0  0
  7 13  1  0  0  0  0
  8  3  1  0  0  0  0
  9 10  2  0  0  0  0
 10 16  1  0  0  0  0
 10  8  1  0  0  0  0
 11 24  1  0  0  0  0
 11 16  2  0  0  0  0
 12 14  1  0  0  0  0
 12  1  1  0  0  0  0
 13  6  2  0  0  0  0
 14  5  1  0  0  0  0
 15  4  1  0  0  0  0
 16 15  1  0  0  0  0
 17  2  1  0  0  0  0
 18 11  1  0  0  0  0
 19 20  1  0  0  0  0
 20 21  1  0  0  0  0
 22 23  1  0  0  0  0
 23 21  1  0  0  0  0
 25 24  1  1  0  0  0
 25 30  1  0  0  0  0
 26 29  1  6  0  0  0
 26 27  1  0  0  0  0
 26 28  1  0  0  0  0
 27 28  1  0  0  0  0
 28 25  1  6  0  0  0
 30 31  1  0  0  0  0
 31 32  1  0  0  0  0
M  END
>  <MODEL>
7

>  <REMARK>
 VINA RESULT:      -6.1      1.780      3.752
  Name = 
  9 active torsions:
  status: ('A' for Active; 'I' for Inactive)
    1  A    between atoms: C_2  and  O_24
    2  A    between atoms: C_6  and  C_7
    3  A    between atoms: C_7  and  C_32
    4  A    between atoms: C_10  and  C_20
    5  A    between atoms: C_10  and  O_24
    6  A    between atoms: C_16  and  C_27
    7  A    between atoms: S_17  and  C_20
    8  A    between atoms: C_22  and  C_32
    9  A    between atoms: C_27  and  C_32
                            x       y       z     vdW  Elec       q    Type
                         _______ _______ _______ _____ _____    ______ ____

>  <TORSDO>
F 9

$$$$
=
 OpenBabel11062410503D

 32 36  0  0  1  0  0  0  0  0999 V2000
  160.6820  208.7930  154.3880 C   0  0  2  0  0  3  0  0  0  0  0  0
  161.2300  206.3200  149.9460 C   0  0  0  0  0  0  0  0  0  0  0  0
  160.2290  201.6110  150.6380 C   0  0  0  0  0  2  0  0  0  0  0  0
  160.5720  201.3840  149.1610 C   0  0  0  0  0  2  0  0  0  0  0  0
  161.1550  208.0310  151.6660 C   0  0  0  0  0  0  0  0  0  0  0  0
  161.2020  205.6840  152.2850 C   0  0  0  0  0  3  0  0  0  0  0  0
  161.1770  207.3730  154.1220 C   0  0  0  0  0  2  0  0  0  0  0  0
  160.0410  203.1030  150.9320 C   0  0  0  0  0  2  0  0  0  0  0  0
  161.2320  205.3210  150.9340 C   0  0  0  0  0  0  0  0  0  0  0  0
  161.3150  203.8650  150.5710 C   0  0  0  0  0  0  0  0  0  0  0  0
  161.6420  204.5650  148.1780 C   0  0  0  0  0  0  0  0  0  0  0  0
  161.4110  209.7650  153.4690 C   0  0  0  0  0  2  0  0  0  0  0  0
  161.1440  207.0290  152.6600 C   0  0  0  0  0  0  0  0  0  0  0  0
  161.0280  209.4870  152.0190 C   0  0  0  0  0  2  0  0  0  0  0  0
  161.8370  202.1510  148.7690 C   0  0  0  0  0  2  0  0  0  0  0  0
  161.6560  203.5990  149.1240 C   0  0  0  0  0  0  0  0  0  0  0  0
  161.1770  207.6660  150.3180 C   0  0  0  0  0  3  0  0  0  0  0  0
  161.2180  205.9790  148.4880 C   0  0  0  0  0  3  0  0  0  0  0  0
  160.9250  209.1300  155.7200 O   0  0  0  0  0  0  0  0  0  0  0  0
  159.7250  209.6830  156.1740 C   0  0  0  0  0  2  0  0  0  0  0  0
  159.9860  211.0220  156.8410 C   0  0  0  0  0  2  0  0  0  0  0  0
  158.2610  211.5980  154.9420 C   0  0  0  0  0  1  0  0  0  0  0  0
  159.7330  212.3810  155.6580 S   0  0  0  0  0  0  0  0  0  0  0  0
  161.9510  204.2410  146.7460 C   0  0  0  0  0  2  0  0  0  0  0  0
  160.6890  203.8270  145.9950 C   0  0  2  0  0  3  0  0  0  0  0  0
  160.0970  201.3670  145.5450 C   0  0  1  0  0  3  0  0  0  0  0  0
  159.7250  202.2180  144.3480 C   0  0  0  0  0  2  0  0  0  0  0  0
  160.9570  202.5740  145.1590 C   0  0  1  0  0  3  0  0  0  0  0  0
  159.2260  201.6490  146.6010 O   0  0  0  0  0  1  0  0  0  0  0  0
  160.1340  204.9670  145.1360 C   0  0  0  0  0  2  0  0  0  0  0  0
  161.2200  205.9250  144.6690 C   0  0  0  0  0  2  0  0  0  0  0  0
  161.4460  205.7430  143.1830 C   0  0  0  0  0  1  0  0  0  0  0  0
  1 19  1  1  0  0  0
  2 17  1  0  0  0  0
  2  9  1  0  0  0  0
  3  8  1  0  0  0  0
  4  3  1  0  0  0  0
  5 14  1  0  0  0  0
  5 13  1  0  0  0  0
  6 13  2  0  0  0  0
  7  1  1  0  0  0  0
  9  6  1  0  0  0  0
 10  8  1  0  0  0  0
 10  9  2  0  0  0  0
 11 18  1  0  0  0  0
 11 16  2  0  0  0  0
 12  1  1  0  0  0  0
 13  7  1  0  0  0  0
 14 12  1  0  0  0  0
 15 16  1  0  0  0  0
 15  4  1  0  0  0  0
 16 10  1  0  0  0  0
 17  5  2  0  0  0  0
 18  2  2  0  0  0  0
 19 20  1  0  0  0  0
 20 21  1  0  0  0  0
 22 23  1  0  0  0  0
 23 21  1  0  0  0  0
 24 11  1  0  0  0  0
 25 30  1  6  0  0  0
 25 24  1  0  0  0  0
 26 29  1  1  0  0  0
 27 28  1  0  0  0  0
 27 26  1  0  0  0  0
 28 26  1  0  0  0  0
 28 25  1  1  0  0  0
 31 30  1  0  0  0  0
 32 31  1  0  0  0  0
M  END
>  <MODEL>
8

>  <REMARK>
 VINA RESULT:      -6.1      3.032      9.504
  Name = 
  9 active torsions:
  status: ('A' for Active; 'I' for Inactive)
    1  A    between atoms: C_2  and  O_24
    2  A    between atoms: C_6  and  C_7
    3  A    between atoms: C_7  and  C_32
    4  A    between atoms: C_10  and  C_20
    5  A    between atoms: C_10  and  O_24
    6  A    between atoms: C_16  and  C_27
    7  A    between atoms: S_17  and  C_20
    8  A    between atoms: C_22  and  C_32
    9  A    between atoms: C_27  and  C_32
                            x       y       z     vdW  Elec       q    Type
                         _______ _______ _______ _____ _____    ______ ____

>  <TORSDO>
F 9

$$$$
=
 OpenBabel11062410503D

 32 36  0  0  1  0  0  0  0  0999 V2000
  160.2340  209.9010  156.4990 C   0  0  2  0  0  3  0  0  0  0  0  0
  161.4090  206.5790  152.7930 C   0  0  0  0  0  0  0  0  0  0  0  0
  162.0460  209.0250  148.6380 C   0  0  0  0  0  2  0  0  0  0  0  0
  162.2910  207.6760  147.9520 C   0  0  0  0  0  2  0  0  0  0  0  0
  160.8310  207.5800  154.9280 C   0  0  0  0  0  0  0  0  0  0  0  0
  160.5390  208.8410  152.8740 C   0  0  0  0  0  3  0  0  0  0  0  0
  159.8700  209.9320  155.0160 C   0  0  0  0  0  2  0  0  0  0  0  0
  162.1150  208.8840  150.1620 C   0  0  0  0  0  2  0  0  0  0  0  0
  161.0250  207.7580  152.1320 C   0  0  0  0  0  0  0  0  0  0  0  0
  161.0790  207.8650  150.6340 C   0  0  0  0  0  0  0  0  0  0  0  0
  161.6940  205.4280  150.5640 C   0  0  0  0  0  0  0  0  0  0  0  0
  159.9160  208.5250  157.0710 C   0  0  0  0  0  2  0  0  0  0  0  0
  160.4570  208.7690  154.2670 C   0  0  0  0  0  0  0  0  0  0  0  0
  160.8220  207.4790  156.4280 C   0  0  0  0  0  2  0  0  0  0  0  0
  161.2750  206.6320  148.4210 C   0  0  0  0  0  2  0  0  0  0  0  0
  161.3150  206.5550  149.9210 C   0  0  0  0  0  0  0  0  0  0  0  0
  161.3230  206.5040  154.1860 C   0  0  0  0  0  3  0  0  0  0  0  0
  161.9750  205.4110  152.0460 C   0  0  0  0  0  3  0  0  0  0  0  0
  159.5020  210.8750  157.1800 O   0  0  0  0  0  0  0  0  0  0  0  0
  158.5790  211.3480  156.2440 C   0  0  0  0  0  2  0  0  0  0  0  0
  157.5280  212.2000  156.9330 C   0  0  0  0  0  2  0  0  0  0  0  0
  156.1010  211.0790  155.0310 C   0  0  0  0  0  1  0  0  0  0  0  0
  156.2660  212.7410  155.7400 S   0  0  0  0  0  0  0  0  0  0  0  0
  161.9530  204.1610  149.8040 C   0  0  0  0  0  2  0  0  0  0  0  0
  160.6600  203.5980  149.2220 C   0  0  2  0  0  3  0  0  0  0  0  0
  160.6310  201.1050  149.8440 C   0  0  1  0  0  3  0  0  0  0  0  0
  161.2050  201.9180  150.9860 C   0  0  0  0  0  2  0  0  0  0  0  0
  160.0960  202.5090  150.1370 C   0  0  1  0  0  3  0  0  0  0  0  0
  161.5400  201.0910  148.7830 O   0  0  0  0  0  1  0  0  0  0  0  0
  160.8520  203.0850  147.7920 C   0  0  0  0  0  2  0  0  0  0  0  0
  161.9550  203.8270  147.0510 C   0  0  0  0  0  2  0  0  0  0  0  0
  161.5800  203.9580  145.5900 C   0  0  0  0  0  1  0  0  0  0  0  0
  1 12  1  0  0  0  0
  1 19  1  1  0  0  0
  2 17  1  0  0  0  0
  3  8  1  0  0  0  0
  4 15  1  0  0  0  0
  4  3  1  0  0  0  0
  5 14  1  0  0  0  0
  6 13  2  0  0  0  0
  7  1  1  0  0  0  0
  8 10  1  0  0  0  0
  9  2  1  0  0  0  0
  9  6  1  0  0  0  0
 10  9  2  0  0  0  0
 11 18  1  0  0  0  0
 13  5  1  0  0  0  0
 13  7  1  0  0  0  0
 14 12  1  0  0  0  0
 15 16  1  0  0  0  0
 16 11  2  0  0  0  0
 16 10  1  0  0  0  0
 17  5  2  0  0  0  0
 18  2  2  0  0  0  0
 20 21  1  0  0  0  0
 20 19  1  0  0  0  0
 22 23  1  0  0  0  0
 23 21  1  0  0  0  0
 24 11  1  0  0  0  0
 25 30  1  6  0  0  0
 25 24  1  0  0  0  0
 26 29  1  6  0  0  0
 26 28  1  0  0  0  0
 26 27  1  0  0  0  0
 28 25  1  6  0  0  0
 28 27  1  0  0  0  0
 31 30  1  0  0  0  0
 32 31  1  0  0  0  0
M  END
>  <MODEL>
9

>  <REMARK>
 VINA RESULT:      -6.0      3.151      8.919
  Name = 
  9 active torsions:
  status: ('A' for Active; 'I' for Inactive)
    1  A    between atoms: C_2  and  O_24
    2  A    between atoms: C_6  and  C_7
    3  A    between atoms: C_7  and  C_32
    4  A    between atoms: C_10  and  C_20
    5  A    between atoms: C_10  and  O_24
    6  A    between atoms: C_16  and  C_27
    7  A    between atoms: S_17  and  C_20
    8  A    between atoms: C_22  and  C_32
    9  A    between atoms: C_27  and  C_32
                            x       y       z     vdW  Elec       q    Type
                         _______ _______ _______ _____ _____    ______ ____

>  <TORSDO>
F 9

$$$$
