=
 OpenBabel11062409243D

 37 41  0  0  1  0  0  0  0  0999 V2000
  161.5790  208.0860  150.5390 C   0  0  2  0  0  3  0  0  0  0  0  0
  162.1200  207.6690  148.1830 C   0  0  1  0  0  3  0  0  0  0  0  0
  161.6190  208.7270  149.1550 C   0  0  2  0  0  3  0  0  0  0  0  0
  161.8730  206.5880  150.3910 C   0  0  1  0  0  0  0  0  0  0  0  0
  160.7820  205.7890  150.7510 O   0  0  0  0  0  1  0  0  0  0  0  0
  162.2320  206.3460  148.9270 C   0  0  1  0  0  3  0  0  0  0  0  0
  161.0550  206.6050  147.9980 C   0  0  2  0  0  3  0  0  0  0  0  0
  161.9850  210.9660  149.8960 O   0  0  0  0  0  0  0  0  0  0  0  0
  161.9230  211.0670  148.4950 C   0  0  2  0  0  3  0  0  0  0  0  0
  162.5640  209.9140  149.1610 C   0  0  2  0  0  3  0  0  0  0  0  0
  162.9860  212.0350  148.0190 C   0  0  0  0  0  2  0  0  0  0  0  0
  162.4640  212.8230  146.9180 N   0  0  0  0  0  2  0  0  0  0  0  0
  161.0200  212.8400  147.0600 C   0  0  0  0  0  3  0  0  0  0  0  0
  160.4860  214.1620  146.5460 C   0  0  0  0  0  2  0  0  0  0  0  0
  160.3850  212.9200  145.6870 C   0  0  0  0  0  2  0  0  0  0  0  0
  163.0730  206.2160  151.2500 C   0  0  0  0  0  2  0  0  0  0  0  0
  162.6760  205.9320  152.5580 O   0  0  0  0  0  1  0  0  0  0  0  0
  161.2860  205.8780  146.6870 C   0  0  0  0  0  2  0  0  0  0  0  0
  161.2830  204.4400  146.9090 N   0  0  0  0  0  2  0  0  0  0  0  0
  161.0330  203.4970  145.8650 C   0  0  0  0  0  0  0  0  0  0  0  0
  160.7690  203.8870  144.6950 O   0  0  0  0  0  0  0  0  0  0  0  0
  161.1060  202.0400  146.1560 C   0  0  0  0  0  2  0  0  0  0  0  0
  160.7980  201.7890  147.6180 C   0  0  0  0  0  1  0  0  0  0  0  0
  160.4440  208.4070  151.3270 O   0  0  0  0  0  0  0  0  0  0  0  0
  160.8420  209.1790  152.4330 C   0  0  0  0  0  2  0  0  0  0  0  0
  158.0720  211.0920  155.7320 C   0  0  0  0  0  2  0  0  0  0  0  0
  159.9130  211.2310  153.4860 C   0  0  0  0  0  0  0  0  0  0  0  0
  160.1720  210.5130  152.3890 C   0  0  0  0  0  3  0  0  0  0  0  0
  161.7250  211.0860  155.0200 O   0  0  0  0  0  1  0  0  0  0  0  0
  159.5980  213.2640  152.3110 O   0  0  0  0  0  0  0  0  0  0  0  0
  158.4320  213.1270  154.3090 N   0  0  0  0  0  2  0  0  0  0  0  0
  159.3090  212.5710  153.3230 C   0  0  0  0  0  0  0  0  0  0  0  0
  159.5580  211.2300  156.0310 C   0  0  2  0  0  3  0  0  0  0  0  0
  160.3840  210.7400  154.8400 C   0  0  1  0  0  3  0  0  0  0  0  0
  157.4880  212.3720  155.1350 C   0  0  0  0  0  2  0  0  0  0  0  0
  159.9080  210.4090  157.2610 C   0  0  0  0  0  2  0  0  0  0  0  0
  160.0490  209.0660  156.9140 O   0  0  0  0  0  1  0  0  0  0  0  0
  1 24  1  6  0  0  0
  2  6  1  0  0  0  0
  2  3  1  0  0  0  0
  3 10  1  0  0  0  0
  3  1  1  0  0  0  0
  4  1  1  0  0  0  0
  4  5  1  0  0  0  0
  4 16  1  0  0  0  0
  6  4  1  0  0  0  0
  7  2  1  0  0  0  0
  7  6  1  0  0  0  0
  9 10  1  0  0  0  0
  9  8  1  0  0  0  0
 10  8  1  0  0  0  0
 11  9  1  0  0  0  0
 12 13  1  0  0  0  0
 12 11  1  0  0  0  0
 14 13  1  0  0  0  0
 15 14  1  0  0  0  0
 15 13  1  0  0  0  0
 16 17  1  0  0  0  0
 18 19  1  0  0  0  0
 18  7  1  0  0  0  0
 20 22  1  0  0  0  0
 20 19  1  0  0  0  0
 21 20  2  0  0  0  0
 22 23  1  0  0  0  0
 24 25  1  0  0  0  0
 26 33  1  0  0  0  0
 27 34  1  0  0  0  0
 28 25  1  0  0  0  0
 28 27  2  0  0  0  0
 30 32  2  0  0  0  0
 31 35  1  0  0  0  0
 32 27  1  0  0  0  0
 32 31  1  0  0  0  0
 33 36  1  0  0  0  0
 34 29  1  0  0  0  0
 34 33  1  0  0  0  0
 35 26  1  0  0  0  0
 37 36  1  0  0  0  0
M  END
>  <MODEL>
1

>  <REMARK>
 VINA RESULT:      -5.9      0.000      0.000
  Name = 
  12 active torsions:
  status: ('A' for Active; 'I' for Inactive)
    1  A    between atoms: C_1  and  N_5
    2  A    between atoms: C_1  and  C_36
    3  A    between atoms: C_3  and  N_32
    4  A    between atoms: C_4  and  C_22
    5  A    between atoms: C_7  and  C_33
    6  A    between atoms: C_8  and  C_31
    7  A    between atoms: C_10  and  O_14
    8  A    between atoms: C_12  and  C_17
    9  A    between atoms: O_14  and  C_31
   10  A    between atoms: C_16  and  C_30
   11  A    between atoms: C_20  and  C_24
   12  A    between atoms: C_30  and  N_32
                            x       y       z     vdW  Elec       q    Type
                         _______ _______ _______ _____ _____    ______ ____

>  <TORSDO>
F 12

$$$$
=
 OpenBabel11062409243D

 37 41  0  0  1  0  0  0  0  0999 V2000
  161.1660  206.5390  151.1870 C   0  0  2  0  0  3  0  0  0  0  0  0
  160.9940  204.6930  149.5800 C   0  0  1  0  0  3  0  0  0  0  0  0
  160.5860  206.1370  149.8340 C   0  0  2  0  0  3  0  0  0  0  0  0
  161.7670  205.2930  151.8490 C   0  0  1  0  0  0  0  0  0  0  0  0
  161.0960  204.9330  153.0230 O   0  0  0  0  0  1  0  0  0  0  0  0
  161.6770  204.1590  150.8310 C   0  0  1  0  0  3  0  0  0  0  0  0
  160.2360  203.7780  150.5230 C   0  0  2  0  0  3  0  0  0  0  0  0
  162.5500  207.0450  148.8260 O   0  0  0  0  0  0  0  0  0  0  0  0
  161.8780  208.1630  149.3520 C   0  0  2  0  0  3  0  0  0  0  0  0
  161.1450  207.0320  148.7440 C   0  0  2  0  0  3  0  0  0  0  0  0
  161.9630  209.3050  148.3620 C   0  0  0  0  0  2  0  0  0  0  0  0
  161.9750  210.5670  149.0790 N   0  0  0  0  0  2  0  0  0  0  0  0
  161.7350  211.6090  148.0980 C   0  0  0  0  0  3  0  0  0  0  0  0
  161.7150  212.9540  148.7970 C   0  0  0  0  0  2  0  0  0  0  0  0
  162.9450  212.5180  148.0300 C   0  0  0  0  0  2  0  0  0  0  0  0
  163.2350  205.5420  152.1650 C   0  0  0  0  0  2  0  0  0  0  0  0
  163.7570  206.5390  151.3390 O   0  0  0  0  0  1  0  0  0  0  0  0
  160.2030  202.3740  149.9510 C   0  0  0  0  0  2  0  0  0  0  0  0
  160.2560  202.4300  148.4970 N   0  0  0  0  0  2  0  0  0  0  0  0
  160.8750  201.4130  147.7070 C   0  0  0  0  0  0  0  0  0  0  0  0
  161.4370  200.4260  148.2550 O   0  0  0  0  0  0  0  0  0  0  0  0
  160.8360  201.5080  146.2230 C   0  0  0  0  0  2  0  0  0  0  0  0
  161.1840  202.9170  145.7870 C   0  0  0  0  0  1  0  0  0  0  0  0
  160.3090  207.3120  152.0120 O   0  0  0  0  0  0  0  0  0  0  0  0
  161.0590  208.2960  152.6790 C   0  0  0  0  0  2  0  0  0  0  0  0
  158.4380  210.9050  155.6010 C   0  0  0  0  0  2  0  0  0  0  0  0
  160.2720  210.5510  153.3740 C   0  0  0  0  0  0  0  0  0  0  0  0
  160.4780  209.6460  152.4120 C   0  0  0  0  0  3  0  0  0  0  0  0
  162.0790  210.5420  154.9210 O   0  0  0  0  0  1  0  0  0  0  0  0
  160.0850  212.3770  151.8770 O   0  0  0  0  0  0  0  0  0  0  0  0
  158.9230  212.6500  153.8640 N   0  0  0  0  0  2  0  0  0  0  0  0
  159.7570  211.8820  152.9890 C   0  0  0  0  0  0  0  0  0  0  0  0
  159.9310  210.9930  155.8810 C   0  0  2  0  0  3  0  0  0  0  0  0
  160.7170  210.2600  154.7930 C   0  0  1  0  0  3  0  0  0  0  0  0
  157.9360  212.1040  154.7970 C   0  0  0  0  0  2  0  0  0  0  0  0
  160.2330  210.3650  157.2320 C   0  0  0  0  0  2  0  0  0  0  0  0
  160.1410  208.9760  157.1450 O   0  0  0  0  0  1  0  0  0  0  0  0
  1  4  1  0  0  0  0
  1 24  1  1  0  0  0
  2  3  1  0  0  0  0
  2  7  1  0  0  0  0
  2  6  1  0  0  0  0
  3  1  1  0  0  0  0
  4 16  1  0  0  0  0
  4  5  1  0  0  0  0
  6  4  1  0  0  0  0
  7  6  1  0  0  0  0
  8  9  1  0  0  0  0
 10  8  1  0  0  0  0
 10  9  1  0  0  0  0
 10  3  1  0  0  0  0
 11 12  1  0  0  0  0
 11  9  1  0  0  0  0
 13 14  1  0  0  0  0
 13 12  1  0  0  0  0
 15 13  1  0  0  0  0
 15 14  1  0  0  0  0
 17 16  1  0  0  0  0
 18  7  1  0  0  0  0
 19 18  1  0  0  0  0
 20 21  2  0  0  0  0
 20 19  1  0  0  0  0
 22 20  1  0  0  0  0
 23 22  1  0  0  0  0
 24 25  1  0  0  0  0
 26 33  1  0  0  0  0
 27 34  1  0  0  0  0
 28 25  1  0  0  0  0
 28 27  2  0  0  0  0
 30 32  2  0  0  0  0
 31 35  1  0  0  0  0
 32 27  1  0  0  0  0
 32 31  1  0  0  0  0
 33 36  1  0  0  0  0
 34 29  1  0  0  0  0
 34 33  1  0  0  0  0
 35 26  1  0  0  0  0
 37 36  1  0  0  0  0
M  END
>  <MODEL>
2

>  <REMARK>
 VINA RESULT:      -5.7      1.706      2.426
  Name = 
  12 active torsions:
  status: ('A' for Active; 'I' for Inactive)
    1  A    between atoms: C_1  and  N_5
    2  A    between atoms: C_1  and  C_36
    3  A    between atoms: C_3  and  N_32
    4  A    between atoms: C_4  and  C_22
    5  A    between atoms: C_7  and  C_33
    6  A    between atoms: C_8  and  C_31
    7  A    between atoms: C_10  and  O_14
    8  A    between atoms: C_12  and  C_17
    9  A    between atoms: O_14  and  C_31
   10  A    between atoms: C_16  and  C_30
   11  A    between atoms: C_20  and  C_24
   12  A    between atoms: C_30  and  N_32
                            x       y       z     vdW  Elec       q    Type
                         _______ _______ _______ _____ _____    ______ ____

>  <TORSDO>
F 12

$$$$
=
 OpenBabel11062409243D

 37 41  0  0  1  0  0  0  0  0999 V2000
  160.8230  208.8870  153.0030 C   0  0  2  0  0  3  0  0  0  0  0  0
  161.8820  206.9200  151.9890 C   0  0  1  0  0  3  0  0  0  0  0  0
  161.2640  208.2750  151.6760 C   0  0  2  0  0  3  0  0  0  0  0  0
  160.9970  207.8380  154.1070 C   0  0  1  0  0  0  0  0  0  0  0  0
  159.7790  207.4510  154.6760 O   0  0  0  0  0  1  0  0  0  0  0  0
  161.6780  206.6290  153.4700 C   0  0  1  0  0  3  0  0  0  0  0  0
  160.7960  205.9560  152.4280 C   0  0  2  0  0  3  0  0  0  0  0  0
  162.2250  210.4560  151.5740 O   0  0  0  0  0  0  0  0  0  0  0  0
  161.6070  210.2880  150.3220 C   0  0  2  0  0  3  0  0  0  0  0  0
  162.2890  209.1700  151.0070 C   0  0  2  0  0  3  0  0  0  0  0  0
  162.5080  210.8500  149.2430 C   0  0  0  0  0  2  0  0  0  0  0  0
  161.8390  211.9540  148.5810 N   0  0  0  0  0  2  0  0  0  0  0  0
  162.8620  212.7010  147.8730 C   0  0  0  0  0  3  0  0  0  0  0  0
  162.2340  213.3980  146.6830 C   0  0  0  0  0  2  0  0  0  0  0  0
  162.5370  214.1800  147.9430 C   0  0  0  0  0  2  0  0  0  0  0  0
  161.9090  208.3870  155.1950 C   0  0  0  0  0  2  0  0  0  0  0  0
  161.6150  207.8000  156.4280 O   0  0  0  0  0  1  0  0  0  0  0  0
  161.2690  204.5300  152.2200 C   0  0  0  0  0  2  0  0  0  0  0  0
  161.5300  204.2950  150.8070 N   0  0  0  0  0  2  0  0  0  0  0  0
  160.9220  203.2280  150.0770 C   0  0  0  0  0  0  0  0  0  0  0  0
  160.1470  202.4150  150.6500 O   0  0  0  0  0  0  0  0  0  0  0  0
  161.1910  203.0870  148.6200 C   0  0  0  0  0  2  0  0  0  0  0  0
  161.4170  204.4520  148.0030 C   0  0  0  0  0  1  0  0  0  0  0  0
  159.5670  209.5460  152.9830 O   0  0  0  0  0  0  0  0  0  0  0  0
  159.6980  210.8290  153.5430 C   0  0  0  0  0  2  0  0  0  0  0  0
  155.6860  212.9840  154.7550 C   0  0  0  0  0  2  0  0  0  0  0  0
  158.1870  212.7880  153.2870 C   0  0  0  0  0  0  0  0  0  0  0  0
  158.9230  211.8180  152.7350 C   0  0  0  0  0  3  0  0  0  0  0  0
  159.3120  213.7130  155.1680 O   0  0  0  0  0  1  0  0  0  0  0  0
  158.0630  214.0800  151.3060 O   0  0  0  0  0  0  0  0  0  0  0  0
  156.2730  214.3720  152.7490 N   0  0  0  0  0  2  0  0  0  0  0  0
  157.5160  213.7560  152.3940 C   0  0  0  0  0  0  0  0  0  0  0  0
  156.9270  213.6210  155.3650 C   0  0  2  0  0  3  0  0  0  0  0  0
  158.1890  212.9750  154.7910 C   0  0  1  0  0  3  0  0  0  0  0  0
  155.2000  213.7450  153.5220 C   0  0  0  0  0  2  0  0  0  0  0  0
  156.9050  213.4370  156.8730 C   0  0  0  0  0  2  0  0  0  0  0  0
  156.6190  212.1080  157.1870 O   0  0  0  0  0  1  0  0  0  0  0  0
  1 24  1  6  0  0  0
  1  4  1  0  0  0  0
  2  7  1  0  0  0  0
  2  6  1  0  0  0  0
  3  2  1  0  0  0  0
  3  1  1  0  0  0  0
  4  5  1  0  0  0  0
  4 16  1  0  0  0  0
  6  4  1  0  0  0  0
  7  6  1  0  0  0  0
  9 10  1  0  0  0  0
  9  8  1  0  0  0  0
 10  8  1  0  0  0  0
 10  3  1  0  0  0  0
 11  9  1  0  0  0  0
 12 11  1  0  0  0  0
 13 15  1  0  0  0  0
 13 12  1  0  0  0  0
 14 13  1  0  0  0  0
 14 15  1  0  0  0  0
 16 17  1  0  0  0  0
 18  7  1  0  0  0  0
 19 18  1  0  0  0  0
 20 21  2  0  0  0  0
 20 19  1  0  0  0  0
 22 20  1  0  0  0  0
 23 22  1  0  0  0  0
 24 25  1  0  0  0  0
 26 33  1  0  0  0  0
 27 34  1  0  0  0  0
 28 27  2  0  0  0  0
 28 25  1  0  0  0  0
 30 32  2  0  0  0  0
 31 35  1  0  0  0  0
 32 31  1  0  0  0  0
 32 27  1  0  0  0  0
 33 36  1  0  0  0  0
 34 29  1  0  0  0  0
 34 33  1  0  0  0  0
 35 26  1  0  0  0  0
 36 37  1  0  0  0  0
M  END
>  <MODEL>
3

>  <REMARK>
 VINA RESULT:      -5.7      2.396      3.427
  Name = 
  12 active torsions:
  status: ('A' for Active; 'I' for Inactive)
    1  A    between atoms: C_1  and  N_5
    2  A    between atoms: C_1  and  C_36
    3  A    between atoms: C_3  and  N_32
    4  A    between atoms: C_4  and  C_22
    5  A    between atoms: C_7  and  C_33
    6  A    between atoms: C_8  and  C_31
    7  A    between atoms: C_10  and  O_14
    8  A    between atoms: C_12  and  C_17
    9  A    between atoms: O_14  and  C_31
   10  A    between atoms: C_16  and  C_30
   11  A    between atoms: C_20  and  C_24
   12  A    between atoms: C_30  and  N_32
                            x       y       z     vdW  Elec       q    Type
                         _______ _______ _______ _____ _____    ______ ____

>  <TORSDO>
F 12

$$$$
=
 OpenBabel11062409243D

 37 41  0  0  1  0  0  0  0  0999 V2000
  161.3200  208.3330  151.2780 C   0  0  2  0  0  3  0  0  0  0  0  0
  161.9160  207.4770  149.0570 C   0  0  1  0  0  3  0  0  0  0  0  0
  161.4320  208.7110  149.8030 C   0  0  2  0  0  3  0  0  0  0  0  0
  161.5530  206.8240  151.4130 C   0  0  1  0  0  0  0  0  0  0  0  0
  160.4180  206.1440  151.8680 O   0  0  0  0  0  1  0  0  0  0  0  0
  161.9470  206.3070  150.0320 C   0  0  1  0  0  3  0  0  0  0  0  0
  160.8120  206.4370  149.0260 C   0  0  2  0  0  3  0  0  0  0  0  0
  161.8310  211.0520  150.0380 O   0  0  0  0  0  0  0  0  0  0  0  0
  161.9080  210.8220  148.6530 C   0  0  2  0  0  3  0  0  0  0  0  0
  162.4270  209.8430  149.6320 C   0  0  2  0  0  3  0  0  0  0  0  0
  163.0570  211.6250  148.0790 C   0  0  0  0  0  2  0  0  0  0  0  0
  162.6800  213.0240  148.0060 N   0  0  0  0  0  2  0  0  0  0  0  0
  161.5520  213.1080  147.0960 C   0  0  0  0  0  3  0  0  0  0  0  0
  161.5880  214.4450  146.3830 C   0  0  0  0  0  2  0  0  0  0  0  0
  162.0670  213.1970  145.6730 C   0  0  0  0  0  2  0  0  0  0  0  0
  162.7090  206.5690  152.3700 C   0  0  0  0  0  2  0  0  0  0  0  0
  162.2340  206.2590  153.6470 O   0  0  0  0  0  1  0  0  0  0  0  0
  161.0520  205.4770  147.8770 C   0  0  0  0  0  2  0  0  0  0  0  0
  161.0110  204.1040  148.3600 N   0  0  0  0  0  2  0  0  0  0  0  0
  161.1860  202.9770  147.4990 C   0  0  0  0  0  0  0  0  0  0  0  0
  161.3540  203.1330  146.2600 O   0  0  0  0  0  0  0  0  0  0  0  0
  161.1910  201.6050  148.0760 C   0  0  0  0  0  2  0  0  0  0  0  0
  160.3300  201.5650  149.3220 C   0  0  0  0  0  1  0  0  0  0  0  0
  160.1760  208.8340  151.9500 O   0  0  0  0  0  0  0  0  0  0  0  0
  160.5640  209.8410  152.8530 C   0  0  0  0  0  2  0  0  0  0  0  0
  156.8780  212.2690  154.5060 C   0  0  0  0  0  2  0  0  0  0  0  0
  159.4560  212.0430  153.1810 C   0  0  0  0  0  0  0  0  0  0  0  0
  160.0690  211.1670  152.3780 C   0  0  0  0  0  3  0  0  0  0  0  0
  160.5060  212.0870  155.3150 O   0  0  0  0  0  1  0  0  0  0  0  0
  159.7810  213.8880  151.7310 O   0  0  0  0  0  0  0  0  0  0  0  0
  157.9190  214.0670  153.1000 N   0  0  0  0  0  2  0  0  0  0  0  0
  159.0670  213.3560  152.6240 C   0  0  0  0  0  0  0  0  0  0  0  0
  158.1340  212.4200  155.3520 C   0  0  2  0  0  3  0  0  0  0  0  0
  159.3210  211.7450  154.6610 C   0  0  1  0  0  3  0  0  0  0  0  0
  156.6730  213.4590  153.5700 C   0  0  0  0  0  2  0  0  0  0  0  0
  157.9120  211.7800  156.7120 C   0  0  0  0  0  2  0  0  0  0  0  0
  156.5610  211.4760  156.8820 O   0  0  0  0  0  1  0  0  0  0  0  0
  1  4  1  0  0  0  0
  1 24  1  6  0  0  0
  2  3  1  0  0  0  0
  2  6  1  0  0  0  0
  3  1  1  0  0  0  0
  4  5  1  0  0  0  0
  4 16  1  0  0  0  0
  6  4  1  0  0  0  0
  7  2  1  0  0  0  0
  7  6  1  0  0  0  0
  9 10  1  0  0  0  0
  9  8  1  0  0  0  0
 10  3  1  0  0  0  0
 10  8  1  0  0  0  0
 11  9  1  0  0  0  0
 12 11  1  0  0  0  0
 13 12  1  0  0  0  0
 14 13  1  0  0  0  0
 15 14  1  0  0  0  0
 15 13  1  0  0  0  0
 16 17  1  0  0  0  0
 18 19  1  0  0  0  0
 18  7  1  0  0  0  0
 20 22  1  0  0  0  0
 20 19  1  0  0  0  0
 21 20  2  0  0  0  0
 22 23  1  0  0  0  0
 24 25  1  0  0  0  0
 26 33  1  0  0  0  0
 27 34  1  0  0  0  0
 28 25  1  0  0  0  0
 28 27  2  0  0  0  0
 30 32  2  0  0  0  0
 31 35  1  0  0  0  0
 32 31  1  0  0  0  0
 32 27  1  0  0  0  0
 33 36  1  0  0  0  0
 34 29  1  0  0  0  0
 34 33  1  0  0  0  0
 35 26  1  0  0  0  0
 36 37  1  0  0  0  0
M  END
>  <MODEL>
4

>  <REMARK>
 VINA RESULT:      -5.6      1.312      1.493
  Name = 
  12 active torsions:
  status: ('A' for Active; 'I' for Inactive)
    1  A    between atoms: C_1  and  N_5
    2  A    between atoms: C_1  and  C_36
    3  A    between atoms: C_3  and  N_32
    4  A    between atoms: C_4  and  C_22
    5  A    between atoms: C_7  and  C_33
    6  A    between atoms: C_8  and  C_31
    7  A    between atoms: C_10  and  O_14
    8  A    between atoms: C_12  and  C_17
    9  A    between atoms: O_14  and  C_31
   10  A    between atoms: C_16  and  C_30
   11  A    between atoms: C_20  and  C_24
   12  A    between atoms: C_30  and  N_32
                            x       y       z     vdW  Elec       q    Type
                         _______ _______ _______ _____ _____    ______ ____

>  <TORSDO>
F 12

$$$$
=
 OpenBabel11062409243D

 37 41  0  0  1  0  0  0  0  0999 V2000
  161.3270  208.2190  150.7550 C   0  0  2  0  0  3  0  0  0  0  0  0
  162.1450  207.7420  148.4920 C   0  0  1  0  0  3  0  0  0  0  0  0
  161.5290  208.8230  149.3670 C   0  0  2  0  0  3  0  0  0  0  0  0
  161.6420  206.7200  150.6850 C   0  0  1  0  0  0  0  0  0  0  0  0
  160.5180  205.9240  150.9360 O   0  0  0  0  0  1  0  0  0  0  0  0
  162.1720  206.4410  149.2810 C   0  0  1  0  0  3  0  0  0  0  0  0
  161.1130  206.6660  148.2120 C   0  0  2  0  0  3  0  0  0  0  0  0
  161.7790  211.1010  150.0320 O   0  0  0  0  0  0  0  0  0  0  0  0
  161.9300  211.1260  148.6340 C   0  0  2  0  0  3  0  0  0  0  0  0
  162.4620  210.0150  149.4520 C   0  0  2  0  0  3  0  0  0  0  0  0
  163.0530  212.0750  148.2730 C   0  0  0  0  0  2  0  0  0  0  0  0
  162.4950  213.3410  147.8340 N   0  0  0  0  0  2  0  0  0  0  0  0
  161.6620  213.0540  146.6800 C   0  0  0  0  0  3  0  0  0  0  0  0
  161.0850  214.3520  146.1500 C   0  0  0  0  0  2  0  0  0  0  0  0
  162.2660  213.7090  145.4550 C   0  0  0  0  0  2  0  0  0  0  0  0
  162.7330  206.3800  151.6900 C   0  0  0  0  0  2  0  0  0  0  0  0
  162.2310  205.5680  152.7090 O   0  0  0  0  0  1  0  0  0  0  0  0
  161.5000  205.9050  146.9580 C   0  0  0  0  0  2  0  0  0  0  0  0
  161.1120  204.5080  147.0870 N   0  0  0  0  0  2  0  0  0  0  0  0
  161.4430  203.5210  146.1060 C   0  0  0  0  0  0  0  0  0  0  0  0
  162.0680  203.8400  145.0590 O   0  0  0  0  0  0  0  0  0  0  0  0
  161.0650  202.1010  146.3360 C   0  0  0  0  0  2  0  0  0  0  0  0
  160.1220  201.6350  145.2460 C   0  0  0  0  0  1  0  0  0  0  0  0
  160.1060  208.5550  151.3930 O   0  0  0  0  0  0  0  0  0  0  0  0
  160.3630  209.4010  152.4870 C   0  0  0  0  0  2  0  0  0  0  0  0
  162.2100  211.0450  156.4990 C   0  0  0  0  0  2  0  0  0  0  0  0
  160.8440  209.0380  154.8990 C   0  0  0  0  0  0  0  0  0  0  0  0
  160.8830  208.6030  153.6360 C   0  0  0  0  0  3  0  0  0  0  0  0
  158.7910  210.1600  155.3260 O   0  0  0  0  0  1  0  0  0  0  0  0
  161.1690  206.8920  155.8490 O   0  0  0  0  0  0  0  0  0  0  0  0
  161.9260  208.6430  157.1660 N   0  0  0  0  0  2  0  0  0  0  0  0
  161.3240  208.1370  155.9700 C   0  0  0  0  0  0  0  0  0  0  0  0
  160.6890  211.0570  156.4800 C   0  0  2  0  0  3  0  0  0  0  0  0
  160.1700  210.3560  155.2240 C   0  0  1  0  0  3  0  0  0  0  0  0
  162.7630  209.8410  157.2600 C   0  0  0  0  0  2  0  0  0  0  0  0
  160.1910  212.4930  156.5000 C   0  0  0  0  0  2  0  0  0  0  0  0
  160.0510  212.9670  155.1950 O   0  0  0  0  0  1  0  0  0  0  0  0
  1 24  1  6  0  0  0
  2  6  1  0  0  0  0
  2  3  1  0  0  0  0
  3 10  1  0  0  0  0
  3  1  1  0  0  0  0
  4  1  1  0  0  0  0
  4  5  1  0  0  0  0
  4 16  1  0  0  0  0
  6  4  1  0  0  0  0
  7  2  1  0  0  0  0
  7  6  1  0  0  0  0
  9 10  1  0  0  0  0
  9  8  1  0  0  0  0
 10  8  1  0  0  0  0
 11  9  1  0  0  0  0
 12 11  1  0  0  0  0
 13 12  1  0  0  0  0
 14 13  1  0  0  0  0
 15 14  1  0  0  0  0
 15 13  1  0  0  0  0
 16 17  1  0  0  0  0
 18 19  1  0  0  0  0
 18  7  1  0  0  0  0
 20 22  1  0  0  0  0
 20 19  1  0  0  0  0
 21 20  2  0  0  0  0
 23 22  1  0  0  0  0
 24 25  1  0  0  0  0
 25 28  1  0  0  0  0
 26 35  1  0  0  0  0
 27 34  1  0  0  0  0
 27 32  1  0  0  0  0
 28 27  2  0  0  0  0
 30 32  2  0  0  0  0
 31 35  1  0  0  0  0
 32 31  1  0  0  0  0
 33 26  1  0  0  0  0
 33 36  1  0  0  0  0
 34 29  1  0  0  0  0
 34 33  1  0  0  0  0
 37 36  1  0  0  0  0
M  END
>  <MODEL>
5

>  <REMARK>
 VINA RESULT:      -5.6      1.681      2.590
  Name = 
  12 active torsions:
  status: ('A' for Active; 'I' for Inactive)
    1  A    between atoms: C_1  and  N_5
    2  A    between atoms: C_1  and  C_36
    3  A    between atoms: C_3  and  N_32
    4  A    between atoms: C_4  and  C_22
    5  A    between atoms: C_7  and  C_33
    6  A    between atoms: C_8  and  C_31
    7  A    between atoms: C_10  and  O_14
    8  A    between atoms: C_12  and  C_17
    9  A    between atoms: O_14  and  C_31
   10  A    between atoms: C_16  and  C_30
   11  A    between atoms: C_20  and  C_24
   12  A    between atoms: C_30  and  N_32
                            x       y       z     vdW  Elec       q    Type
                         _______ _______ _______ _____ _____    ______ ____

>  <TORSDO>
F 12

$$$$
=
 OpenBabel11062409243D

 37 41  0  0  1  0  0  0  0  0999 V2000
  161.2970  206.8100  151.4840 C   0  0  2  0  0  3  0  0  0  0  0  0
  161.0790  204.5450  150.5670 C   0  0  1  0  0  3  0  0  0  0  0  0
  160.7770  206.0110  150.2920 C   0  0  2  0  0  3  0  0  0  0  0  0
  161.7480  205.8280  152.5710 C   0  0  1  0  0  0  0  0  0  0  0  0
  160.9720  205.9210  153.7320 O   0  0  0  0  0  1  0  0  0  0  0  0
  161.6310  204.4250  151.9810 C   0  0  1  0  0  3  0  0  0  0  0  0
  160.1870  204.0440  151.6870 C   0  0  2  0  0  3  0  0  0  0  0  0
  160.9660  207.7020  148.6190 O   0  0  0  0  0  0  0  0  0  0  0  0
  160.5000  206.5720  147.9230 C   0  0  2  0  0  3  0  0  0  0  0  0
  161.4800  206.4550  149.0240 C   0  0  2  0  0  3  0  0  0  0  0  0
  161.2160  206.4770  146.5920 C   0  0  0  0  0  2  0  0  0  0  0  0
  160.2470  206.2410  145.5370 N   0  0  0  0  0  2  0  0  0  0  0  0
  160.6630  205.0330  144.8490 C   0  0  0  0  0  3  0  0  0  0  0  0
  161.5820  205.4070  143.7020 C   0  0  0  0  0  2  0  0  0  0  0  0
  162.1630  204.8690  144.9920 C   0  0  0  0  0  2  0  0  0  0  0  0
  163.2070  206.0840  152.9190 C   0  0  0  0  0  2  0  0  0  0  0  0
  164.0520  205.4650  151.9950 O   0  0  0  0  0  1  0  0  0  0  0  0
  160.0740  202.5340  151.6100 C   0  0  0  0  0  2  0  0  0  0  0  0
  160.8840  202.0320  150.5090 N   0  0  0  0  0  2  0  0  0  0  0  0
  160.3200  201.3760  149.3710 C   0  0  0  0  0  0  0  0  0  0  0  0
  159.0780  201.1770  149.2940 O   0  0  0  0  0  0  0  0  0  0  0  0
  161.2060  200.9440  148.2570 C   0  0  0  0  0  2  0  0  0  0  0  0
  160.8570  201.7050  146.9950 C   0  0  0  0  0  1  0  0  0  0  0  0
  160.4550  207.8630  151.9260 O   0  0  0  0  0  0  0  0  0  0  0  0
  161.1440  209.0860  151.8400 C   0  0  0  0  0  2  0  0  0  0  0  0
  159.6960  209.6350  156.2920 C   0  0  0  0  0  2  0  0  0  0  0  0
  160.3900  210.6200  153.6460 C   0  0  0  0  0  0  0  0  0  0  0  0
  160.2950  210.1860  152.3850 C   0  0  0  0  0  3  0  0  0  0  0  0
  162.6690  210.7030  154.3240 O   0  0  0  0  0  1  0  0  0  0  0  0
  159.2690  212.6640  153.2280 O   0  0  0  0  0  0  0  0  0  0  0  0
  159.0750  211.8990  155.4070 N   0  0  0  0  0  2  0  0  0  0  0  0
  159.5490  211.7630  154.0630 C   0  0  0  0  0  0  0  0  0  0  0  0
  161.1240  210.1060  156.0540 C   0  0  2  0  0  3  0  0  0  0  0  0
  161.4560  210.0530  154.5620 C   0  0  1  0  0  3  0  0  0  0  0  0
  158.7040  210.7970  156.2970 C   0  0  0  0  0  2  0  0  0  0  0  0
  162.0880  209.2140  156.8190 C   0  0  0  0  0  2  0  0  0  0  0  0
  161.8680  207.8770  156.4860 O   0  0  0  0  0  1  0  0  0  0  0  0
  1 24  1  1  0  0  0
  1  4  1  0  0  0  0
  2  7  1  0  0  0  0
  2  6  1  0  0  0  0
  3  2  1  0  0  0  0
  3  1  1  0  0  0  0
  4 16  1  0  0  0  0
  4  5  1  0  0  0  0
  6  4  1  0  0  0  0
  7  6  1  0  0  0  0
  8 10  1  0  0  0  0
  9  8  1  0  0  0  0
  9 10  1  0  0  0  0
 10  3  1  0  0  0  0
 11  9  1  0  0  0  0
 12 11  1  0  0  0  0
 13 15  1  0  0  0  0
 13 12  1  0  0  0  0
 14 13  1  0  0  0  0
 14 15  1  0  0  0  0
 17 16  1  0  0  0  0
 18  7  1  0  0  0  0
 19 18  1  0  0  0  0
 20 19  1  0  0  0  0
 21 20  2  0  0  0  0
 22 20  1  0  0  0  0
 23 22  1  0  0  0  0
 25 24  1  0  0  0  0
 25 28  1  0  0  0  0
 26 35  1  0  0  0  0
 27 32  1  0  0  0  0
 27 34  1  0  0  0  0
 28 27  2  0  0  0  0
 29 34  1  0  0  0  0
 30 32  2  0  0  0  0
 31 35  1  0  0  0  0
 32 31  1  0  0  0  0
 33 26  1  0  0  0  0
 33 36  1  0  0  0  0
 34 33  1  0  0  0  0
 37 36  1  0  0  0  0
M  END
>  <MODEL>
6

>  <REMARK>
 VINA RESULT:      -5.3      3.004      3.975
  Name = 
  12 active torsions:
  status: ('A' for Active; 'I' for Inactive)
    1  A    between atoms: C_1  and  N_5
    2  A    between atoms: C_1  and  C_36
    3  A    between atoms: C_3  and  N_32
    4  A    between atoms: C_4  and  C_22
    5  A    between atoms: C_7  and  C_33
    6  A    between atoms: C_8  and  C_31
    7  A    between atoms: C_10  and  O_14
    8  A    between atoms: C_12  and  C_17
    9  A    between atoms: O_14  and  C_31
   10  A    between atoms: C_16  and  C_30
   11  A    between atoms: C_20  and  C_24
   12  A    between atoms: C_30  and  N_32
                            x       y       z     vdW  Elec       q    Type
                         _______ _______ _______ _____ _____    ______ ____

>  <TORSDO>
F 12

$$$$
=
 OpenBabel11062409243D

 37 41  0  0  1  0  0  0  0  0999 V2000
  160.9740  208.1940  153.1190 C   0  0  2  0  0  3  0  0  0  0  0  0
  161.5430  206.0800  152.0120 C   0  0  1  0  0  3  0  0  0  0  0  0
  161.0930  207.5100  151.7590 C   0  0  2  0  0  3  0  0  0  0  0  0
  161.1690  207.1380  154.2140 C   0  0  1  0  0  0  0  0  0  0  0  0
  160.0170  206.9470  154.9850 O   0  0  0  0  0  1  0  0  0  0  0  0
  161.5460  205.8340  153.5150 C   0  0  1  0  0  3  0  0  0  0  0  0
  160.4130  205.2970  152.6530 C   0  0  2  0  0  3  0  0  0  0  0  0
  161.6000  209.4820  150.5140 O   0  0  0  0  0  0  0  0  0  0  0  0
  161.5670  208.4590  149.5500 C   0  0  2  0  0  3  0  0  0  0  0  0
  162.1160  208.2320  150.9040 C   0  0  2  0  0  3  0  0  0  0  0  0
  162.7020  208.6650  148.5690 C   0  0  0  0  0  2  0  0  0  0  0  0
  163.0350  207.3990  147.9420 N   0  0  0  0  0  2  0  0  0  0  0  0
  161.8000  206.8610  147.4000 C   0  0  0  0  0  3  0  0  0  0  0  0
  162.1130  205.6170  146.5930 C   0  0  0  0  0  2  0  0  0  0  0  0
  161.5530  205.4890  147.9940 C   0  0  0  0  0  2  0  0  0  0  0  0
  162.3190  207.5490  155.1210 C   0  0  0  0  0  2  0  0  0  0  0  0
  161.8380  208.1060  156.3080 O   0  0  0  0  0  1  0  0  0  0  0  0
  160.6250  203.8140  152.4170 C   0  0  0  0  0  2  0  0  0  0  0  0
  160.3620  203.4900  151.0220 N   0  0  0  0  0  2  0  0  0  0  0  0
  160.8570  202.3040  150.3980 C   0  0  0  0  0  0  0  0  0  0  0  0
  161.5810  201.4940  151.0380 O   0  0  0  0  0  0  0  0  0  0  0  0
  160.4960  202.0110  148.9850 C   0  0  0  0  0  2  0  0  0  0  0  0
  161.2060  200.7560  148.5200 C   0  0  0  0  0  1  0  0  0  0  0  0
  159.8460  209.0370  153.2810 O   0  0  0  0  0  0  0  0  0  0  0  0
  160.2510  210.2650  153.8340 C   0  0  0  0  0  2  0  0  0  0  0  0
  156.2810  212.6950  154.5800 C   0  0  0  0  0  2  0  0  0  0  0  0
  158.9760  212.3790  153.5340 C   0  0  0  0  0  0  0  0  0  0  0  0
  159.7130  211.3930  153.0150 C   0  0  0  0  0  3  0  0  0  0  0  0
  159.8280  213.0210  155.6600 O   0  0  0  0  0  1  0  0  0  0  0  0
  159.3060  213.8450  151.7030 O   0  0  0  0  0  0  0  0  0  0  0  0
  157.3230  214.1870  152.8520 N   0  0  0  0  0  2  0  0  0  0  0  0
  158.5530  213.4840  152.6470 C   0  0  0  0  0  0  0  0  0  0  0  0
  157.4450  213.1500  155.4490 C   0  0  2  0  0  3  0  0  0  0  0  0
  158.7300  212.4330  155.0290 C   0  0  1  0  0  3  0  0  0  0  0  0
  156.0830  213.6050  153.3690 C   0  0  0  0  0  2  0  0  0  0  0  0
  157.1460  212.8370  156.9050 C   0  0  0  0  0  2  0  0  0  0  0  0
  156.1780  211.8360  156.9900 O   0  0  0  0  0  1  0  0  0  0  0  0
  1 24  1  1  0  0  0
  1  4  1  0  0  0  0
  2  7  1  0  0  0  0
  2  6  1  0  0  0  0
  3  2  1  0  0  0  0
  3  1  1  0  0  0  0
  4  5  1  0  0  0  0
  4 16  1  0  0  0  0
  6  4  1  0  0  0  0
  7  6  1  0  0  0  0
  8 10  1  0  0  0  0
  9  8  1  0  0  0  0
  9 10  1  0  0  0  0
 10  3  1  0  0  0  0
 11  9  1  0  0  0  0
 12 11  1  0  0  0  0
 13 12  1  0  0  0  0
 13 15  1  0  0  0  0
 14 13  1  0  0  0  0
 14 15  1  0  0  0  0
 16 17  1  0  0  0  0
 18  7  1  0  0  0  0
 19 18  1  0  0  0  0
 20 19  1  0  0  0  0
 20 21  2  0  0  0  0
 22 20  1  0  0  0  0
 23 22  1  0  0  0  0
 24 25  1  0  0  0  0
 26 33  1  0  0  0  0
 27 34  1  0  0  0  0
 28 27  2  0  0  0  0
 28 25  1  0  0  0  0
 30 32  2  0  0  0  0
 31 35  1  0  0  0  0
 32 31  1  0  0  0  0
 32 27  1  0  0  0  0
 33 36  1  0  0  0  0
 34 33  1  0  0  0  0
 34 29  1  0  0  0  0
 35 26  1  0  0  0  0
 36 37  1  0  0  0  0
M  END
>  <MODEL>
7

>  <REMARK>
 VINA RESULT:      -5.3      2.869      4.061
  Name = 
  12 active torsions:
  status: ('A' for Active; 'I' for Inactive)
    1  A    between atoms: C_1  and  N_5
    2  A    between atoms: C_1  and  C_36
    3  A    between atoms: C_3  and  N_32
    4  A    between atoms: C_4  and  C_22
    5  A    between atoms: C_7  and  C_33
    6  A    between atoms: C_8  and  C_31
    7  A    between atoms: C_10  and  O_14
    8  A    between atoms: C_12  and  C_17
    9  A    between atoms: O_14  and  C_31
   10  A    between atoms: C_16  and  C_30
   11  A    between atoms: C_20  and  C_24
   12  A    between atoms: C_30  and  N_32
                            x       y       z     vdW  Elec       q    Type
                         _______ _______ _______ _____ _____    ______ ____

>  <TORSDO>
F 12

$$$$
=
 OpenBabel11062409243D

 37 41  0  0  1  0  0  0  0  0999 V2000
  161.0860  209.3530  152.2300 C   0  0  2  0  0  3  0  0  0  0  0  0
  161.8360  207.0180  152.1580 C   0  0  1  0  0  3  0  0  0  0  0  0
  161.2160  208.1300  151.3250 C   0  0  2  0  0  3  0  0  0  0  0  0
  161.4500  208.9410  153.6620 C   0  0  1  0  0  0  0  0  0  0  0  0
  160.3640  209.0390  154.5400 O   0  0  0  0  0  1  0  0  0  0  0  0
  161.9370  207.4960  153.6000 C   0  0  1  0  0  3  0  0  0  0  0  0
  160.8320  206.5340  153.1870 C   0  0  2  0  0  3  0  0  0  0  0  0
  161.3760  209.1830  149.1900 O   0  0  0  0  0  0  0  0  0  0  0  0
  161.5730  207.8170  148.9220 C   0  0  2  0  0  3  0  0  0  0  0  0
  162.1100  208.4530  150.1440 C   0  0  2  0  0  3  0  0  0  0  0  0
  162.6800  207.6660  147.8990 C   0  0  0  0  0  2  0  0  0  0  0  0
  162.1970  206.8850  146.7750 N   0  0  0  0  0  2  0  0  0  0  0  0
  162.2410  205.4920  147.1820 C   0  0  0  0  0  3  0  0  0  0  0  0
  161.5840  204.6420  146.1130 C   0  0  0  0  0  2  0  0  0  0  0  0
  163.0930  204.7140  146.1990 C   0  0  0  0  0  2  0  0  0  0  0  0
  162.5890  209.8130  154.1710 C   0  0  0  0  0  2  0  0  0  0  0  0
  162.1420  210.6710  155.1780 O   0  0  0  0  0  1  0  0  0  0  0  0
  161.1980  205.1320  153.6330 C   0  0  0  0  0  2  0  0  0  0  0  0
  160.5660  204.1530  152.7610 N   0  0  0  0  0  2  0  0  0  0  0  0
  161.2330  203.5740  151.6370 C   0  0  0  0  0  0  0  0  0  0  0  0
  162.4070  203.9220  151.3370 O   0  0  0  0  0  0  0  0  0  0  0  0
  160.5430  202.5340  150.8270 C   0  0  0  0  0  2  0  0  0  0  0  0
  160.8160  202.7620  149.3550 C   0  0  0  0  0  1  0  0  0  0  0  0
  159.8790  210.0850  152.0960 O   0  0  0  0  0  0  0  0  0  0  0  0
  160.1040  211.4310  152.4320 C   0  0  0  0  0  2  0  0  0  0  0  0
  156.6820  211.4750  155.6730 C   0  0  0  0  0  2  0  0  0  0  0  0
  158.1920  212.6320  153.4750 C   0  0  0  0  0  0  0  0  0  0  0  0
  158.8190  212.1900  152.3800 C   0  0  0  0  0  3  0  0  0  0  0  0
  159.7660  213.4640  155.0530 O   0  0  0  0  0  1  0  0  0  0  0  0
  156.8450  214.1910  152.3040 O   0  0  0  0  0  0  0  0  0  0  0  0
  155.9040  213.4060  154.2720 N   0  0  0  0  0  2  0  0  0  0  0  0
  156.9600  213.4330  153.3050 C   0  0  0  0  0  0  0  0  0  0  0  0
  157.8500  212.3910  156.0090 C   0  0  2  0  0  3  0  0  0  0  0  0
  158.8300  212.4500  154.8370 C   0  0  1  0  0  3  0  0  0  0  0  0
  155.5080  212.2440  155.0690 C   0  0  0  0  0  2  0  0  0  0  0  0
  158.5670  211.8680  157.2430 C   0  0  0  0  0  2  0  0  0  0  0  0
  159.2010  210.6610  156.9510 O   0  0  0  0  0  1  0  0  0  0  0  0
  1 24  1  1  0  0  0
  1  4  1  0  0  0  0
  2  7  1  0  0  0  0
  2  6  1  0  0  0  0
  3  2  1  0  0  0  0
  3  1  1  0  0  0  0
  4 16  1  0  0  0  0
  4  5  1  0  0  0  0
  6  4  1  0  0  0  0
  7  6  1  0  0  0  0
  7 18  1  0  0  0  0
  8 10  1  0  0  0  0
  9  8  1  0  0  0  0
  9 10  1  0  0  0  0
 10  3  1  0  0  0  0
 11  9  1  0  0  0  0
 12 13  1  0  0  0  0
 12 11  1  0  0  0  0
 14 15  1  0  0  0  0
 14 13  1  0  0  0  0
 15 13  1  0  0  0  0
 16 17  1  0  0  0  0
 19 18  1  0  0  0  0
 20 19  1  0  0  0  0
 21 20  2  0  0  0  0
 22 20  1  0  0  0  0
 23 22  1  0  0  0  0
 24 25  1  0  0  0  0
 26 33  1  0  0  0  0
 27 34  1  0  0  0  0
 28 25  1  0  0  0  0
 28 27  2  0  0  0  0
 30 32  2  0  0  0  0
 31 35  1  0  0  0  0
 32 27  1  0  0  0  0
 32 31  1  0  0  0  0
 33 36  1  0  0  0  0
 34 29  1  0  0  0  0
 34 33  1  0  0  0  0
 35 26  1  0  0  0  0
 37 36  1  0  0  0  0
M  END
>  <MODEL>
8

>  <REMARK>
 VINA RESULT:      -5.1      2.897      4.433
  Name = 
  12 active torsions:
  status: ('A' for Active; 'I' for Inactive)
    1  A    between atoms: C_1  and  N_5
    2  A    between atoms: C_1  and  C_36
    3  A    between atoms: C_3  and  N_32
    4  A    between atoms: C_4  and  C_22
    5  A    between atoms: C_7  and  C_33
    6  A    between atoms: C_8  and  C_31
    7  A    between atoms: C_10  and  O_14
    8  A    between atoms: C_12  and  C_17
    9  A    between atoms: O_14  and  C_31
   10  A    between atoms: C_16  and  C_30
   11  A    between atoms: C_20  and  C_24
   12  A    between atoms: C_30  and  N_32
                            x       y       z     vdW  Elec       q    Type
                         _______ _______ _______ _____ _____    ______ ____

>  <TORSDO>
F 12

$$$$
=
 OpenBabel11062409243D

 37 41  0  0  1  0  0  0  0  0999 V2000
  161.0050  208.5660  152.6990 C   0  0  2  0  0  3  0  0  0  0  0  0
  161.8820  206.5760  151.5650 C   0  0  1  0  0  3  0  0  0  0  0  0
  161.3010  207.9610  151.3290 C   0  0  2  0  0  3  0  0  0  0  0  0
  161.2270  207.4880  153.7670 C   0  0  1  0  0  0  0  0  0  0  0  0
  160.0470  207.1430  154.4340 O   0  0  0  0  0  1  0  0  0  0  0  0
  161.7960  206.2640  153.0530 C   0  0  1  0  0  3  0  0  0  0  0  0
  160.7970  205.6500  152.0830 C   0  0  2  0  0  3  0  0  0  0  0  0
  162.1420  210.1670  150.9790 O   0  0  0  0  0  0  0  0  0  0  0  0
  161.5900  209.8020  149.7380 C   0  0  2  0  0  3  0  0  0  0  0  0
  162.3030  208.8240  150.5870 C   0  0  2  0  0  3  0  0  0  0  0  0
  162.5050  210.2750  148.6280 C   0  0  0  0  0  2  0  0  0  0  0  0
  162.5770  211.7240  148.6450 N   0  0  0  0  0  2  0  0  0  0  0  0
  161.2500  212.2140  148.3190 C   0  0  0  0  0  3  0  0  0  0  0  0
  161.2680  213.7290  148.3120 C   0  0  0  0  0  2  0  0  0  0  0  0
  161.3060  212.9670  147.0060 C   0  0  0  0  0  2  0  0  0  0  0  0
  162.2540  207.9760  154.7790 C   0  0  0  0  0  2  0  0  0  0  0  0
  161.6740  208.1170  156.0420 O   0  0  0  0  0  1  0  0  0  0  0  0
  161.1850  204.2100  151.8110 C   0  0  0  0  0  2  0  0  0  0  0  0
  161.4620  204.0300  150.3930 N   0  0  0  0  0  2  0  0  0  0  0  0
  160.9020  202.9610  149.6270 C   0  0  0  0  0  0  0  0  0  0  0  0
  160.1590  202.1000  150.1700 O   0  0  0  0  0  0  0  0  0  0  0  0
  161.1830  202.8770  148.1680 C   0  0  0  0  0  2  0  0  0  0  0  0
  161.5660  204.2430  147.6360 C   0  0  0  0  0  1  0  0  0  0  0  0
  159.7830  209.2780  152.8000 O   0  0  0  0  0  0  0  0  0  0  0  0
  160.0450  210.6590  152.8650 C   0  0  0  0  0  2  0  0  0  0  0  0
  158.4220  214.3920  155.2410 C   0  0  0  0  0  2  0  0  0  0  0  0
  159.5140  211.7030  155.0580 C   0  0  0  0  0  0  0  0  0  0  0  0
  160.3710  211.0480  154.2700 C   0  0  0  0  0  3  0  0  0  0  0  0
  157.3050  210.8760  154.7500 O   0  0  0  0  0  1  0  0  0  0  0  0
  160.6470  211.1560  157.0650 O   0  0  0  0  0  0  0  0  0  0  0  0
  159.4520  213.1400  157.1560 N   0  0  0  0  0  2  0  0  0  0  0  0
  159.9120  211.9790  156.4560 C   0  0  0  0  0  0  0  0  0  0  0  0
  157.4480  213.2240  155.2040 C   0  0  2  0  0  3  0  0  0  0  0  0
  158.1120  212.0010  154.5670 C   0  0  1  0  0  3  0  0  0  0  0  0
  159.1950  214.4510  156.5580 C   0  0  0  0  0  2  0  0  0  0  0  0
  156.2200  213.6110  154.3960 C   0  0  0  0  0  2  0  0  0  0  0  0
  155.3110  214.2920  155.2050 O   0  0  0  0  0  1  0  0  0  0  0  0
  1 24  1  6  0  0  0
  1  4  1  0  0  0  0
  2  7  1  0  0  0  0
  2  6  1  0  0  0  0
  3  2  1  0  0  0  0
  3  1  1  0  0  0  0
  4  5  1  0  0  0  0
  4 16  1  0  0  0  0
  6  4  1  0  0  0  0
  7  6  1  0  0  0  0
  9 10  1  0  0  0  0
  9  8  1  0  0  0  0
 10  8  1  0  0  0  0
 10  3  1  0  0  0  0
 11 12  1  0  0  0  0
 11  9  1  0  0  0  0
 13 12  1  0  0  0  0
 14 13  1  0  0  0  0
 15 14  1  0  0  0  0
 15 13  1  0  0  0  0
 16 17  1  0  0  0  0
 18  7  1  0  0  0  0
 19 18  1  0  0  0  0
 20 21  2  0  0  0  0
 20 19  1  0  0  0  0
 22 20  1  0  0  0  0
 23 22  1  0  0  0  0
 24 25  1  0  0  0  0
 25 28  1  0  0  0  0
 26 35  1  0  0  0  0
 27 32  1  0  0  0  0
 28 27  2  0  0  0  0
 32 30  2  0  0  0  0
 32 31  1  0  0  0  0
 33 26  1  0  0  0  0
 34 29  1  0  0  0  0
 34 27  1  0  0  0  0
 34 33  1  0  0  0  0
 35 31  1  0  0  0  0
 36 33  1  0  0  0  0
 36 37  1  0  0  0  0
M  END
>  <MODEL>
9

>  <REMARK>
 VINA RESULT:      -5.0      2.214      3.481
  Name = 
  12 active torsions:
  status: ('A' for Active; 'I' for Inactive)
    1  A    between atoms: C_1  and  N_5
    2  A    between atoms: C_1  and  C_36
    3  A    between atoms: C_3  and  N_32
    4  A    between atoms: C_4  and  C_22
    5  A    between atoms: C_7  and  C_33
    6  A    between atoms: C_8  and  C_31
    7  A    between atoms: C_10  and  O_14
    8  A    between atoms: C_12  and  C_17
    9  A    between atoms: O_14  and  C_31
   10  A    between atoms: C_16  and  C_30
   11  A    between atoms: C_20  and  C_24
   12  A    between atoms: C_30  and  N_32
                            x       y       z     vdW  Elec       q    Type
                         _______ _______ _______ _____ _____    ______ ____

>  <TORSDO>
F 12

$$$$
