=
 OpenBabel11062408543D

 55 63  0  0  1  0  0  0  0  0999 V2000
  162.0730  205.6940  153.5160 C   0  0  0  0  0  2  0  0  0  0  0  0
  160.6230  208.1410  152.8160 N   0  0  0  0  0  0  0  0  0  0  0  0
  162.0230  208.1160  152.3530 C   0  0  0  0  0  2  0  0  0  0  0  0
  161.1090  206.2250  154.5530 C   0  0  0  0  0  2  0  0  0  0  0  0
  162.7020  206.6540  152.4800 C   0  0  2  0  0  3  0  0  0  0  0  0
  160.1170  207.2390  153.8870 C   0  0  0  0  0  2  0  0  0  0  0  0
  162.7630  205.8630  151.3040 O   0  0  0  0  0  0  0  0  0  0  0  0
  161.5110  205.8200  150.6410 C   0  0  2  0  0  3  0  0  0  0  0  0
  160.3950  202.8150  148.8630 O   0  0  0  0  0  0  0  0  0  0  0  0
  160.7090  203.8090  146.3460 C   0  0  0  0  0  2  0  0  0  0  0  0
  161.1050  203.3450  144.9040 C   0  0  0  0  0  2  0  0  0  0  0  0
  162.2240  205.8390  146.2650 C   0  0  2  0  0  3  0  0  0  0  0  0
  161.7610  205.7880  144.7420 C   0  0  0  0  0  2  0  0  0  0  0  0
  160.8330  204.3490  150.6650 C   0  0  1  0  0  3  0  0  0  0  0  0
  161.8210  204.3890  144.0810 C   0  0  0  0  0  2  0  0  0  0  0  0
  161.7640  204.6480  147.0280 C   0  0  1  0  0  3  0  0  0  0  0  0
  162.2710  207.1770  148.1930 C   0  0  2  0  0  3  0  0  0  0  0  0
  161.8350  207.0570  146.8200 O   0  0  0  0  0  0  0  0  0  0  0  0
  160.9010  203.9530  149.2550 C   0  0  0  0  0  0  0  0  0  0  0  0
  161.2930  204.9350  148.4050 N   0  0  0  0  0  0  0  0  0  0  0  0
  161.6560  206.1500  149.0750 C   0  0  1  0  0  3  0  0  0  0  0  0
  162.1950  208.9790  150.1010 C   0  0  0  0  0  3  0  0  0  0  0  0
  162.2030  211.4570  149.5870 C   0  0  2  0  0  3  0  0  0  0  0  0
  162.3100  209.7860  147.6990 C   0  0  0  0  0  2  0  0  0  0  0  0
  161.6030  211.0170  148.2260 C   0  0  0  0  0  2  0  0  0  0  0  0
  162.3340  210.2580  150.5170 C   0  0  0  0  0  3  0  0  0  0  0  0
  161.8780  208.6000  148.6240 C   0  0  1  0  0  3  0  0  0  0  0  0
  161.3790  212.4190  150.1630 O   0  0  0  0  0  0  0  0  0  0  0  0
  160.5210  212.8290  149.1270 C   0  0  0  0  0  2  0  0  0  0  0  0
  160.8110  214.2180  148.6260 C   0  0  0  0  0  1  0  0  0  0  0  0
  160.5080  202.9480  152.4540 C   0  0  0  0  0  2  0  0  0  0  0  0
  160.5760  202.1720  151.3230 O   0  0  0  0  0  0  0  0  0  0  0  0
  161.4700  203.2540  151.3960 C   0  0  1  0  0  3  0  0  0  0  0  0
  160.2430  209.5200  153.1940 C   0  0  0  0  0  2  0  0  0  0  0  0
  160.6810  211.5020  154.6200 C   0  0  1  0  0  3  0  0  0  0  0  0
  161.6060  210.4270  155.2230 C   0  0  2  0  0  3  0  0  0  0  0  0
  160.2510  210.0330  154.6740 C   0  0  2  0  0  3  0  0  0  0  0  0
  163.0750  211.1320  157.2430 C   0  0  0  0  0  1  0  0  0  0  0  0
  161.7180  210.6020  156.7500 C   0  0  0  0  0  2  0  0  0  0  0  0
  159.9010  212.4400  155.6250 C   0  0  2  0  0  3  0  0  0  0  0  0
  160.2110  212.2500  156.9950 O   0  0  0  0  0  1  0  0  0  0  0  0
  155.0290  214.2840  157.2590 O   0  0  0  0  0  1  0  0  0  0  0  0
  156.4790  212.2300  152.1360 O   0  0  0  0  0  1  0  0  0  0  0  0
  158.3860  212.3620  155.3130 C   0  0  1  0  0  0  0  0  0  0  0  0
  158.8030  213.3970  153.1360 O   0  0  0  0  0  1  0  0  0  0  0  0
  157.8600  212.7940  153.9970 C   0  0  2  0  0  0  0  0  0  0  0  0
  155.9950  212.4080  156.1690 N   0  0  0  0  0  2  0  0  0  0  0  0
  155.7770  214.1400  153.5520 C   0  0  2  0  0  3  0  0  0  0  0  0
  155.7720  213.8570  156.1460 C   0  0  1  0  0  3  0  0  0  0  0  0
  156.4380  212.7420  153.4140 C   0  0  1  0  0  3  0  0  0  0  0  0
  158.2340  211.4890  154.2390 O   0  0  0  0  0  0  0  0  0  0  0  0
  155.0000  214.1950  154.8870 C   0  0  0  0  0  2  0  0  0  0  0  0
  157.3980  212.0710  156.4580 C   0  0  0  0  0  2  0  0  0  0  0  0
  154.8590  214.4420  152.3450 C   0  0  0  0  0  2  0  0  0  0  0  0
  155.5840  214.3330  151.1520 O   0  0  0  0  0  1  0  0  0  0  0  0
  1  4  1  0  0  0  0
  2 34  1  0  0  0  0
  2  6  1  0  0  0  0
  3  5  1  0  0  0  0
  3  2  1  0  0  0  0
  5  7  1  6  0  0  0
  5  1  1  0  0  0  0
  6  4  1  0  0  0  0
  8 14  1  0  0  0  0
  8  7  1  6  0  0  0
  9 19  2  0  0  0  0
 11 10  1  0  0  0  0
 12 13  1  6  0  0  0
 12 18  1  0  0  0  0
 12 16  1  0  0  0  0
 14 19  1  6  0  0  0
 14 33  1  0  0  0  0
 15 13  1  0  0  0  0
 15 11  1  0  0  0  0
 16 10  1  6  0  0  0
 16 20  1  0  0  0  0
 17 18  1  6  0  0  0
 17 27  1  0  0  0  0
 17 21  1  0  0  0  0
 20 19  1  0  0  0  0
 21 20  1  6  0  0  0
 21  8  1  0  0  0  0
 22 26  2  0  0  0  0
 23 28  1  1  0  0  0
 23 26  1  0  0  0  0
 24 25  1  0  0  0  0
 25 23  1  0  0  0  0
 27 24  1  6  0  0  0
 27 22  1  0  0  0  0
 29 28  1  0  0  0  0
 30 29  1  0  0  0  0
 32 33  1  0  0  0  0
 32 31  1  0  0  0  0
 33 31  1  1  0  0  0
 35 37  1  0  0  0  0
 35 36  1  0  0  0  0
 35 40  1  1  0  0  0
 36 39  1  1  0  0  0
 37 34  1  6  0  0  0
 37 36  1  0  0  0  0
 39 38  1  0  0  0  0
 40 41  1  1  0  0  0
 44 40  1  1  0  0  0
 44 53  1  0  0  0  0
 46 45  1  6  0  0  0
 46 51  1  0  0  0  0
 46 44  1  0  0  0  0
 47 53  1  0  0  0  0
 48 54  1  6  0  0  0
 48 52  1  0  0  0  0
 49 47  1  0  0  0  0
 49 42  1  1  0  0  0
 50 43  1  6  0  0  0
 50 48  1  0  0  0  0
 50 46  1  0  0  0  0
 51 44  1  0  0  0  0
 52 49  1  0  0  0  0
 55 54  1  0  0  0  0
M  END
>  <MODEL>
1

>  <REMARK>
 VINA RESULT:      -3.2      0.000      0.000
  Name = 
  12 active torsions:
  status: ('A' for Active; 'I' for Inactive)
    1  A    between atoms: C_2  and  O_28
    2  A    between atoms: C_6  and  C_20
    3  A    between atoms: C_8  and  C_43
    4  A    between atoms: O_10  and  C_18
    5  A    between atoms: O_10  and  C_32
    6  A    between atoms: C_11  and  C_29
    7  A    between atoms: C_19  and  C_37
    8  A    between atoms: C_20  and  C_22
    9  A    between atoms: N_27  and  C_54
   10  A    between atoms: O_28  and  C_44
   11  A    between atoms: C_33  and  C_52
   12  A    between atoms: C_51  and  C_54
                            x       y       z     vdW  Elec       q    Type
                         _______ _______ _______ _____ _____    ______ ____

>  <TORSDO>
F 12

$$$$
=
 OpenBabel11062408543D

 55 63  0  0  1  0  0  0  0  0999 V2000
  159.7350  209.8200  155.5910 C   0  0  0  0  0  2  0  0  0  0  0  0
  161.2130  208.2110  153.6410 N   0  0  0  0  0  0  0  0  0  0  0  0
  160.7860  209.5280  153.1350 C   0  0  0  0  0  2  0  0  0  0  0  0
  159.4570  208.3340  155.5970 C   0  0  0  0  0  2  0  0  0  0  0  0
  160.2480  210.5080  154.3040 C   0  0  2  0  0  3  0  0  0  0  0  0
  160.6020  207.5760  154.8420 C   0  0  0  0  0  2  0  0  0  0  0  0
  161.1500  211.4830  154.7990 O   0  0  0  0  0  0  0  0  0  0  0  0
  160.6410  212.7950  154.6330 C   0  0  2  0  0  3  0  0  0  0  0  0
  158.6660  214.4220  157.2580 O   0  0  0  0  0  0  0  0  0  0  0  0
  156.2660  214.2690  155.9800 C   0  0  0  0  0  2  0  0  0  0  0  0
  154.7420  214.0830  156.2890 C   0  0  0  0  0  2  0  0  0  0  0  0
  156.2450  212.5550  154.1140 C   0  0  2  0  0  3  0  0  0  0  0  0
  154.7930  213.1810  153.9210 C   0  0  0  0  0  2  0  0  0  0  0  0
  160.5710  213.6260  156.0220 C   0  0  1  0  0  3  0  0  0  0  0  0
  153.9680  213.3480  155.2220 C   0  0  0  0  0  2  0  0  0  0  0  0
  156.9100  213.0610  155.3440 C   0  0  1  0  0  3  0  0  0  0  0  0
  158.2980  212.1530  153.0500 C   0  0  2  0  0  3  0  0  0  0  0  0
  156.9820  212.7450  152.9470 O   0  0  0  0  0  0  0  0  0  0  0  0
  159.1270  213.7530  156.2360 C   0  0  0  0  0  0  0  0  0  0  0  0
  158.3580  213.3480  155.1940 N   0  0  0  0  0  0  0  0  0  0  0  0
  159.1190  212.7820  154.1180 C   0  0  1  0  0  3  0  0  0  0  0  0
  158.0930  213.1260  150.6200 C   0  0  0  0  0  3  0  0  0  0  0  0
  160.1350  213.7540  149.2640 C   0  0  2  0  0  3  0  0  0  0  0  0
  160.4140  212.8550  151.6060 C   0  0  0  0  0  2  0  0  0  0  0  0
  160.8580  212.7180  150.1650 C   0  0  0  0  0  2  0  0  0  0  0  0
  158.6400  213.7490  149.5520 C   0  0  0  0  0  3  0  0  0  0  0  0
  158.9380  212.3370  151.6640 C   0  0  1  0  0  3  0  0  0  0  0  0
  160.3650  213.4410  147.9280 O   0  0  0  0  0  0  0  0  0  0  0  0
  161.2360  214.4420  147.4650 C   0  0  0  0  0  2  0  0  0  0  0  0
  162.6050  214.3770  148.0860 C   0  0  0  0  0  1  0  0  0  0  0  0
  161.9640  211.9690  156.7880 C   0  0  0  0  0  2  0  0  0  0  0  0
  162.4840  213.1740  157.1950 O   0  0  0  0  0  0  0  0  0  0  0  0
  161.0860  213.0410  157.2600 C   0  0  1  0  0  3  0  0  0  0  0  0
  161.1640  207.2130  152.5500 C   0  0  0  0  0  2  0  0  0  0  0  0
  161.6140  206.4690  150.2270 C   0  0  1  0  0  3  0  0  0  0  0  0
  162.2660  207.8630  150.2790 C   0  0  2  0  0  3  0  0  0  0  0  0
  160.9850  207.6020  151.0430 C   0  0  2  0  0  3  0  0  0  0  0  0
  162.1310  210.1120  148.9900 C   0  0  0  0  0  1  0  0  0  0  0  0
  162.1370  208.5760  148.9190 C   0  0  0  0  0  2  0  0  0  0  0  0
  160.8070  206.0890  148.9220 C   0  0  2  0  0  3  0  0  0  0  0  0
  159.4100  206.3230  148.9840 O   0  0  0  0  0  1  0  0  0  0  0  0
  159.6510  200.8460  149.9110 O   0  0  0  0  0  1  0  0  0  0  0  0
  161.9980  203.1110  145.2280 O   0  0  0  0  0  1  0  0  0  0  0  0
  161.1790  204.6450  148.5030 C   0  0  1  0  0  0  0  0  0  0  0  0
  160.3440  205.1060  146.2500 O   0  0  0  0  0  1  0  0  0  0  0  0
  160.9970  204.1910  147.1040 C   0  0  2  0  0  0  0  0  0  0  0  0
  161.4470  202.2050  149.1530 N   0  0  0  0  0  2  0  0  0  0  0  0
  160.0880  201.9740  146.3250 C   0  0  2  0  0  3  0  0  0  0  0  0
  160.0690  201.7560  148.9250 C   0  0  1  0  0  3  0  0  0  0  0  0
  161.3590  202.8610  146.4220 C   0  0  1  0  0  3  0  0  0  0  0  0
  162.1820  204.7430  147.5430 O   0  0  0  0  0  0  0  0  0  0  0  0
  160.0150  201.0690  147.5760 C   0  0  0  0  0  2  0  0  0  0  0  0
  161.5020  203.6070  149.5940 C   0  0  0  0  0  2  0  0  0  0  0  0
  160.0880  201.1450  145.0200 C   0  0  0  0  0  2  0  0  0  0  0  0
  160.7020  199.9050  145.2390 O   0  0  0  0  0  1  0  0  0  0  0  0
  1  4  1  0  0  0  0
  2  6  1  0  0  0  0
  3  2  1  0  0  0  0
  3  5  1  0  0  0  0
  5  7  1  1  0  0  0
  5  1  1  0  0  0  0
  6  4  1  0  0  0  0
  8  7  1  1  0  0  0
  8 14  1  0  0  0  0
 10 11  1  0  0  0  0
 12 13  1  6  0  0  0
 12 16  1  0  0  0  0
 13 15  1  0  0  0  0
 14 19  1  1  0  0  0
 14 33  1  0  0  0  0
 15 11  1  0  0  0  0
 16 10  1  6  0  0  0
 17 18  1  6  0  0  0
 17 21  1  0  0  0  0
 18 12  1  0  0  0  0
 19  9  2  0  0  0  0
 20 16  1  0  0  0  0
 20 19  1  0  0  0  0
 21  8  1  0  0  0  0
 21 20  1  1  0  0  0
 23 28  1  6  0  0  0
 23 26  1  0  0  0  0
 23 25  1  0  0  0  0
 24 27  1  0  0  0  0
 25 24  1  0  0  0  0
 26 22  2  0  0  0  0
 27 22  1  6  0  0  0
 27 17  1  0  0  0  0
 29 28  1  0  0  0  0
 29 30  1  0  0  0  0
 31 32  1  0  0  0  0
 32 33  1  0  0  0  0
 33 31  1  6  0  0  0
 34  2  1  0  0  0  0
 35 40  1  6  0  0  0
 35 36  1  0  0  0  0
 35 37  1  0  0  0  0
 36 39  1  6  0  0  0
 36 37  1  0  0  0  0
 37 34  1  1  0  0  0
 39 38  1  0  0  0  0
 40 41  1  1  0  0  0
 44 40  1  1  0  0  0
 44 53  1  0  0  0  0
 46 45  1  6  0  0  0
 46 51  1  0  0  0  0
 46 44  1  0  0  0  0
 47 53  1  0  0  0  0
 48 54  1  6  0  0  0
 48 50  1  0  0  0  0
 48 52  1  0  0  0  0
 49 47  1  0  0  0  0
 49 42  1  1  0  0  0
 50 43  1  6  0  0  0
 50 46  1  0  0  0  0
 51 44  1  0  0  0  0
 52 49  1  0  0  0  0
 54 55  1  0  0  0  0
M  END
>  <MODEL>
2

>  <REMARK>
 VINA RESULT:      -3.2      1.965     10.300
  Name = 
  12 active torsions:
  status: ('A' for Active; 'I' for Inactive)
    1  A    between atoms: C_2  and  O_28
    2  A    between atoms: C_6  and  C_20
    3  A    between atoms: C_8  and  C_43
    4  A    between atoms: O_10  and  C_18
    5  A    between atoms: O_10  and  C_32
    6  A    between atoms: C_11  and  C_29
    7  A    between atoms: C_19  and  C_37
    8  A    between atoms: C_20  and  C_22
    9  A    between atoms: N_27  and  C_54
   10  A    between atoms: O_28  and  C_44
   11  A    between atoms: C_33  and  C_52
   12  A    between atoms: C_51  and  C_54
                            x       y       z     vdW  Elec       q    Type
                         _______ _______ _______ _____ _____    ______ ____

>  <TORSDO>
F 12

$$$$
=
 OpenBabel11062408543D

 55 63  0  0  1  0  0  0  0  0999 V2000
  161.9430  205.0680  153.4060 C   0  0  0  0  0  2  0  0  0  0  0  0
  161.1340  207.8340  152.8840 N   0  0  0  0  0  0  0  0  0  0  0  0
  162.5170  207.5230  152.4760 C   0  0  0  0  0  2  0  0  0  0  0  0
  161.0650  205.7210  154.4510 C   0  0  0  0  0  2  0  0  0  0  0  0
  162.8360  205.9380  152.4910 C   0  0  2  0  0  3  0  0  0  0  0  0
  160.3720  206.9890  153.8440 C   0  0  0  0  0  2  0  0  0  0  0  0
  162.7840  205.2540  151.2490 O   0  0  0  0  0  0  0  0  0  0  0  0
  161.5590  205.4890  150.5770 C   0  0  2  0  0  3  0  0  0  0  0  0
  159.9710  202.8870  148.5400 O   0  0  0  0  0  0  0  0  0  0  0  0
  160.5100  204.0150  146.1200 C   0  0  0  0  0  2  0  0  0  0  0  0
  160.8500  203.6100  144.6460 C   0  0  0  0  0  2  0  0  0  0  0  0
  162.3590  205.7450  146.2230 C   0  0  2  0  0  3  0  0  0  0  0  0
  161.9270  205.9030  144.6980 C   0  0  0  0  0  2  0  0  0  0  0  0
  160.6330  204.1640  150.4690 C   0  0  1  0  0  3  0  0  0  0  0  0
  161.7550  204.5750  143.9200 C   0  0  0  0  0  2  0  0  0  0  0  0
  161.6810  204.5950  146.8780 C   0  0  1  0  0  3  0  0  0  0  0  0
  162.5990  206.8880  148.2590 C   0  0  2  0  0  3  0  0  0  0  0  0
  162.1780  206.9620  146.8780 O   0  0  0  0  0  0  0  0  0  0  0  0
  160.6610  203.8800  149.0320 C   0  0  0  0  0  0  0  0  0  0  0  0
  161.2370  204.8450  148.2710 N   0  0  0  0  0  0  0  0  0  0  0  0
  161.7940  205.9160  149.0450 C   0  0  1  0  0  3  0  0  0  0  0  0
  162.3190  209.4470  147.7450 C   0  0  0  0  0  3  0  0  0  0  0  0
  161.1890  211.0150  149.3780 C   0  0  2  0  0  3  0  0  0  0  0  0
  161.3920  208.5600  149.9330 C   0  0  0  0  0  2  0  0  0  0  0  0
  161.6230  209.9680  150.4390 C   0  0  0  0  0  2  0  0  0  0  0  0
  161.7560  210.6470  148.0150 C   0  0  0  0  0  3  0  0  0  0  0  0
  162.4530  208.3170  148.8080 C   0  0  1  0  0  3  0  0  0  0  0  0
  161.6440  212.2730  149.7610 O   0  0  0  0  0  0  0  0  0  0  0  0
  161.5050  213.0740  148.6140 C   0  0  0  0  0  2  0  0  0  0  0  0
  162.7560  213.8320  148.2610 C   0  0  0  0  0  1  0  0  0  0  0  0
  160.0500  202.7190  152.1560 C   0  0  0  0  0  2  0  0  0  0  0  0
  159.9690  202.0310  150.9690 O   0  0  0  0  0  0  0  0  0  0  0  0
  161.0520  202.9160  151.1080 C   0  0  1  0  0  3  0  0  0  0  0  0
  161.0570  209.2270  153.3750 C   0  0  0  0  0  2  0  0  0  0  0  0
  160.8160  211.1070  154.9760 C   0  0  1  0  0  3  0  0  0  0  0  0
  162.1950  210.5190  155.3330 C   0  0  2  0  0  3  0  0  0  0  0  0
  161.0740  209.6000  154.8970 C   0  0  2  0  0  3  0  0  0  0  0  0
  163.8760  211.0890  157.2260 C   0  0  0  0  0  1  0  0  0  0  0  0
  162.4580  210.6320  156.8470 C   0  0  0  0  0  2  0  0  0  0  0  0
  159.8750  211.5390  156.1710 C   0  0  2  0  0  3  0  0  0  0  0  0
  159.1440  210.4870  156.7760 O   0  0  0  0  0  1  0  0  0  0  0  0
  157.5060  213.7460  151.7750 O   0  0  0  0  0  1  0  0  0  0  0  0
  156.1000  214.4530  157.2610 O   0  0  0  0  0  1  0  0  0  0  0  0
  158.9930  212.7270  155.7120 C   0  0  1  0  0  0  0  0  0  0  0  0
  157.1710  211.8850  157.1090 O   0  0  0  0  0  1  0  0  0  0  0  0
  157.6330  212.9190  156.2670 C   0  0  2  0  0  0  0  0  0  0  0  0
  158.3750  214.3860  153.8910 N   0  0  0  0  0  2  0  0  0  0  0  0
  155.5490  213.5720  155.0100 C   0  0  2  0  0  3  0  0  0  0  0  0
  157.3940  213.5720  153.1650 C   0  0  1  0  0  3  0  0  0  0  0  0
  156.6060  214.0420  156.0470 C   0  0  1  0  0  3  0  0  0  0  0  0
  158.7430  213.5080  156.8360 O   0  0  0  0  0  0  0  0  0  0  0  0
  156.0090  214.0050  153.5990 C   0  0  0  0  0  2  0  0  0  0  0  0
  159.4340  213.5620  154.4950 C   0  0  0  0  0  2  0  0  0  0  0  0
  154.1490  214.1320  155.3510 C   0  0  0  0  0  2  0  0  0  0  0  0
  153.7490  213.6870  156.6170 O   0  0  0  0  0  1  0  0  0  0  0  0
  1  4  1  0  0  0  0
  2 34  1  0  0  0  0
  2  6  1  0  0  0  0
  3  5  1  0  0  0  0
  3  2  1  0  0  0  0
  5  7  1  6  0  0  0
  5  1  1  0  0  0  0
  6  4  1  0  0  0  0
  8  7  1  6  0  0  0
  9 19  2  0  0  0  0
 11 10  1  0  0  0  0
 12 13  1  6  0  0  0
 12 18  1  0  0  0  0
 12 16  1  0  0  0  0
 14 19  1  6  0  0  0
 14  8  1  0  0  0  0
 14 33  1  0  0  0  0
 15 11  1  0  0  0  0
 15 13  1  0  0  0  0
 16 10  1  6  0  0  0
 16 20  1  0  0  0  0
 17 18  1  6  0  0  0
 17 27  1  0  0  0  0
 17 21  1  0  0  0  0
 20 19  1  0  0  0  0
 21 20  1  6  0  0  0
 21  8  1  0  0  0  0
 22 26  2  0  0  0  0
 23 28  1  1  0  0  0
 23 25  1  0  0  0  0
 24 25  1  0  0  0  0
 26 23  1  0  0  0  0
 27 22  1  6  0  0  0
 27 24  1  0  0  0  0
 29 28  1  0  0  0  0
 30 29  1  0  0  0  0
 32 33  1  0  0  0  0
 32 31  1  0  0  0  0
 33 31  1  1  0  0  0
 35 36  1  0  0  0  0
 35 40  1  1  0  0  0
 36 39  1  1  0  0  0
 37 34  1  6  0  0  0
 37 35  1  0  0  0  0
 37 36  1  0  0  0  0
 39 38  1  0  0  0  0
 40 41  1  6  0  0  0
 44 40  1  1  0  0  0
 44 46  1  0  0  0  0
 44 51  1  0  0  0  0
 46 51  1  0  0  0  0
 46 45  1  1  0  0  0
 47 53  1  0  0  0  0
 48 54  1  1  0  0  0
 48 50  1  0  0  0  0
 49 42  1  6  0  0  0
 49 52  1  0  0  0  0
 49 47  1  0  0  0  0
 50 46  1  0  0  0  0
 50 43  1  1  0  0  0
 52 48  1  0  0  0  0
 53 44  1  0  0  0  0
 54 55  1  0  0  0  0
M  END
>  <MODEL>
3

>  <REMARK>
 VINA RESULT:      -2.9      1.102      2.119
  Name = 
  12 active torsions:
  status: ('A' for Active; 'I' for Inactive)
    1  A    between atoms: C_2  and  O_28
    2  A    between atoms: C_6  and  C_20
    3  A    between atoms: C_8  and  C_43
    4  A    between atoms: O_10  and  C_18
    5  A    between atoms: O_10  and  C_32
    6  A    between atoms: C_11  and  C_29
    7  A    between atoms: C_19  and  C_37
    8  A    between atoms: C_20  and  C_22
    9  A    between atoms: N_27  and  C_54
   10  A    between atoms: O_28  and  C_44
   11  A    between atoms: C_33  and  C_52
   12  A    between atoms: C_51  and  C_54
                            x       y       z     vdW  Elec       q    Type
                         _______ _______ _______ _____ _____    ______ ____

>  <TORSDO>
F 12

$$$$
=
 OpenBabel11062408543D

 55 63  0  0  1  0  0  0  0  0999 V2000
  160.9680  208.7370  154.4940 C   0  0  0  0  0  2  0  0  0  0  0  0
  162.2150  207.2520  152.2990 N   0  0  0  0  0  0  0  0  0  0  0  0
  161.6830  208.5710  151.9100 C   0  0  0  0  0  2  0  0  0  0  0  0
  160.7380  207.2420  154.4770 C   0  0  0  0  0  2  0  0  0  0  0  0
  161.2810  209.4880  153.1790 C   0  0  2  0  0  3  0  0  0  0  0  0
  161.7930  206.5530  153.5440 C   0  0  0  0  0  2  0  0  0  0  0  0
  162.2130  210.4750  153.5870 O   0  0  0  0  0  0  0  0  0  0  0  0
  161.5630  211.6150  154.1220 C   0  0  2  0  0  3  0  0  0  0  0  0
  159.6700  211.4380  157.2570 O   0  0  0  0  0  0  0  0  0  0  0  0
  157.1950  211.6350  156.1370 C   0  0  0  0  0  2  0  0  0  0  0  0
  155.7300  211.1230  156.3450 C   0  0  0  0  0  2  0  0  0  0  0  0
  157.1840  211.0990  153.6600 C   0  0  2  0  0  3  0  0  0  0  0  0
  155.6650  211.5420  153.8460 C   0  0  0  0  0  2  0  0  0  0  0  0
  161.5310  211.6230  155.7420 C   0  0  1  0  0  3  0  0  0  0  0  0
  154.9440  210.9270  155.0710 C   0  0  0  0  0  2  0  0  0  0  0  0
  157.9000  211.0020  154.9600 C   0  0  1  0  0  3  0  0  0  0  0  0
  159.1670  211.5540  152.4890 C   0  0  2  0  0  3  0  0  0  0  0  0
  157.7950  211.9410  152.7330 O   0  0  0  0  0  0  0  0  0  0  0  0
  160.1050  211.4360  156.0260 C   0  0  0  0  0  0  0  0  0  0  0  0
  159.2930  211.5110  154.9410 N   0  0  0  0  0  0  0  0  0  0  0  0
  160.0100  211.6640  153.7090 C   0  0  1  0  0  3  0  0  0  0  0  0
  160.8840  211.9820  150.5500 C   0  0  0  0  0  3  0  0  0  0  0  0
  160.3150  213.4580  148.5750 C   0  0  2  0  0  3  0  0  0  0  0  0
  158.5980  213.0700  150.3840 C   0  0  0  0  0  2  0  0  0  0  0  0
  159.3120  214.1190  149.5580 C   0  0  0  0  0  2  0  0  0  0  0  0
  161.1640  212.4270  149.3050 C   0  0  0  0  0  3  0  0  0  0  0  0
  159.6630  212.4890  151.3740 C   0  0  1  0  0  3  0  0  0  0  0  0
  161.1290  214.4400  148.0200 O   0  0  0  0  0  0  0  0  0  0  0  0
  160.8810  214.3800  146.6370 C   0  0  0  0  0  2  0  0  0  0  0  0
  162.1360  214.3460  145.8070 C   0  0  0  0  0  1  0  0  0  0  0  0
  163.5990  210.6780  156.0630 C   0  0  0  0  0  2  0  0  0  0  0  0
  163.1940  211.2170  157.2610 O   0  0  0  0  0  0  0  0  0  0  0  0
  162.2070  210.5690  156.4990 C   0  0  1  0  0  3  0  0  0  0  0  0
  162.0460  206.2940  151.1850 C   0  0  0  0  0  2  0  0  0  0  0  0
  160.6040  204.5380  150.1880 C   0  0  1  0  0  3  0  0  0  0  0  0
  160.0180  204.7100  151.6030 C   0  0  2  0  0  3  0  0  0  0  0  0
  161.5110  204.8340  151.3860 C   0  0  2  0  0  3  0  0  0  0  0  0
  160.5930  202.3270  152.4560 C   0  0  0  0  0  1  0  0  0  0  0  0
  159.5000  203.3630  152.1440 C   0  0  0  0  0  2  0  0  0  0  0  0
  160.7360  203.0670  149.6270 C   0  0  2  0  0  3  0  0  0  0  0  0
  161.5160  202.1850  150.4170 O   0  0  0  0  0  1  0  0  0  0  0  0
  159.3230  201.4870  144.5960 O   0  0  0  0  0  1  0  0  0  0  0  0
  162.7280  205.8120  146.1020 O   0  0  0  0  0  1  0  0  0  0  0  0
  161.1800  203.1320  148.1440 C   0  0  1  0  0  0  0  0  0  0  0  0
  160.9020  205.5620  148.1910 O   0  0  0  0  0  1  0  0  0  0  0  0
  161.3260  204.4350  147.4540 C   0  0  2  0  0  0  0  0  0  0  0  0
  161.2610  202.0280  145.8590 N   0  0  0  0  0  2  0  0  0  0  0  0
  160.6020  205.0120  145.1100 C   0  0  2  0  0  3  0  0  0  0  0  0
  159.9700  202.4900  145.3360 C   0  0  1  0  0  3  0  0  0  0  0  0
  161.8230  204.7750  146.0390 C   0  0  1  0  0  3  0  0  0  0  0  0
  162.3810  203.8350  148.1080 O   0  0  0  0  0  0  0  0  0  0  0  0
  160.2260  203.6760  144.4300 C   0  0  0  0  0  2  0  0  0  0  0  0
  161.2260  201.8340  147.3170 C   0  0  0  0  0  2  0  0  0  0  0  0
  160.8980  206.1180  144.0730 C   0  0  0  0  0  2  0  0  0  0  0  0
  161.2260  205.5420  142.8380 O   0  0  0  0  0  1  0  0  0  0  0  0
  2  6  1  0  0  0  0
  3  2  1  0  0  0  0
  3  5  1  0  0  0  0
  4  1  1  0  0  0  0
  5  7  1  1  0  0  0
  5  1  1  0  0  0  0
  6  4  1  0  0  0  0
  8  7  1  1  0  0  0
  8 14  1  0  0  0  0
 10 11  1  0  0  0  0
 12 13  1  1  0  0  0
 12 16  1  0  0  0  0
 13 15  1  0  0  0  0
 14 19  1  6  0  0  0
 14 33  1  0  0  0  0
 15 11  1  0  0  0  0
 16 10  1  1  0  0  0
 17 18  1  1  0  0  0
 17 21  1  0  0  0  0
 18 12  1  0  0  0  0
 19  9  2  0  0  0  0
 20 16  1  0  0  0  0
 20 19  1  0  0  0  0
 21  8  1  0  0  0  0
 21 20  1  1  0  0  0
 22 27  1  0  0  0  0
 23 28  1  1  0  0  0
 23 26  1  0  0  0  0
 23 25  1  0  0  0  0
 25 24  1  0  0  0  0
 26 22  2  0  0  0  0
 27 24  1  6  0  0  0
 27 17  1  0  0  0  0
 29 28  1  0  0  0  0
 30 29  1  0  0  0  0
 31 32  1  0  0  0  0
 33 31  1  6  0  0  0
 33 32  1  0  0  0  0
 34  2  1  0  0  0  0
 35 40  1  1  0  0  0
 35 37  1  0  0  0  0
 35 36  1  0  0  0  0
 36 39  1  1  0  0  0
 37 34  1  6  0  0  0
 37 36  1  0  0  0  0
 39 38  1  0  0  0  0
 40 41  1  1  0  0  0
 44 40  1  1  0  0  0
 46 51  1  0  0  0  0
 46 44  1  0  0  0  0
 46 45  1  1  0  0  0
 47 53  1  0  0  0  0
 48 54  1  6  0  0  0
 48 50  1  0  0  0  0
 49 42  1  6  0  0  0
 49 47  1  0  0  0  0
 50 43  1  1  0  0  0
 50 46  1  0  0  0  0
 51 44  1  0  0  0  0
 52 48  1  0  0  0  0
 52 49  1  0  0  0  0
 53 44  1  0  0  0  0
 55 54  1  0  0  0  0
M  END
>  <MODEL>
4

>  <REMARK>
 VINA RESULT:      -2.7      2.069      9.805
  Name = 
  12 active torsions:
  status: ('A' for Active; 'I' for Inactive)
    1  A    between atoms: C_2  and  O_28
    2  A    between atoms: C_6  and  C_20
    3  A    between atoms: C_8  and  C_43
    4  A    between atoms: O_10  and  C_18
    5  A    between atoms: O_10  and  C_32
    6  A    between atoms: C_11  and  C_29
    7  A    between atoms: C_19  and  C_37
    8  A    between atoms: C_20  and  C_22
    9  A    between atoms: N_27  and  C_54
   10  A    between atoms: O_28  and  C_44
   11  A    between atoms: C_33  and  C_52
   12  A    between atoms: C_51  and  C_54
                            x       y       z     vdW  Elec       q    Type
                         _______ _______ _______ _____ _____    ______ ____

>  <TORSDO>
F 12

$$$$
=
 OpenBabel11062408543D

 55 63  0  0  1  0  0  0  0  0999 V2000
  161.9890  211.0760  150.8680 C   0  0  0  0  0  2  0  0  0  0  0  0
  161.5360  208.5310  149.4920 N   0  0  0  0  0  0  0  0  0  0  0  0
  161.7230  208.4040  150.9490 C   0  0  0  0  0  2  0  0  0  0  0  0
  162.6310  210.9240  149.5080 C   0  0  0  0  0  2  0  0  0  0  0  0
  161.6670  209.8250  151.7180 C   0  0  2  0  0  3  0  0  0  0  0  0
  161.9570  209.7410  148.7320 C   0  0  0  0  0  2  0  0  0  0  0  0
  160.4460  210.1720  152.3500 O   0  0  0  0  0  0  0  0  0  0  0  0
  160.5170  211.4520  152.9530 C   0  0  2  0  0  3  0  0  0  0  0  0
  160.0740  211.8900  156.5660 O   0  0  0  0  0  0  0  0  0  0  0  0
  157.6130  213.0500  156.4380 C   0  0  0  0  0  2  0  0  0  0  0  0
  156.2680  213.1240  157.2380 C   0  0  0  0  0  2  0  0  0  0  0  0
  156.4430  212.6500  154.2270 C   0  0  2  0  0  3  0  0  0  0  0  0
  155.3910  213.6280  154.9140 C   0  0  0  0  0  2  0  0  0  0  0  0
  161.1250  211.4120  154.4540 C   0  0  1  0  0  3  0  0  0  0  0  0
  155.0350  213.2870  156.3820 C   0  0  0  0  0  2  0  0  0  0  0  0
  157.5210  212.2420  155.1660 C   0  0  1  0  0  3  0  0  0  0  0  0
  157.8300  212.3630  152.3540 C   0  0  2  0  0  3  0  0  0  0  0  0
  156.9040  213.2310  153.0470 O   0  0  0  0  0  0  0  0  0  0  0  0
  159.9620  211.7690  155.2700 C   0  0  0  0  0  0  0  0  0  0  0  0
  158.8780  212.1850  154.5680 N   0  0  0  0  0  0  0  0  0  0  0  0
  159.0590  212.1000  153.1480 C   0  0  1  0  0  3  0  0  0  0  0  0
  159.5660  212.8120  150.4360 C   0  0  0  0  0  3  0  0  0  0  0  0
  158.8290  213.4390  148.0990 C   0  0  2  0  0  3  0  0  0  0  0  0
  157.0970  212.9930  149.8800 C   0  0  0  0  0  2  0  0  0  0  0  0
  157.5530  213.9620  148.8110 C   0  0  0  0  0  2  0  0  0  0  0  0
  159.8540  212.9790  149.1260 C   0  0  0  0  0  3  0  0  0  0  0  0
  158.1530  213.0810  151.0330 C   0  0  1  0  0  3  0  0  0  0  0  0
  159.3650  214.4530  147.3110 O   0  0  0  0  0  0  0  0  0  0  0  0
  159.6800  213.8360  146.0880 C   0  0  0  0  0  2  0  0  0  0  0  0
  160.9070  212.9680  146.1560 C   0  0  0  0  0  1  0  0  0  0  0  0
  162.8570  210.5390  155.6840 C   0  0  0  0  0  2  0  0  0  0  0  0
  161.7010  210.3660  156.4070 O   0  0  0  0  0  0  0  0  0  0  0  0
  161.6110  210.1540  155.0210 C   0  0  1  0  0  3  0  0  0  0  0  0
  162.1230  207.3600  148.8060 C   0  0  0  0  0  2  0  0  0  0  0  0
  162.3800  205.8240  146.8740 C   0  0  1  0  0  3  0  0  0  0  0  0
  161.4520  206.9230  146.3250 C   0  0  2  0  0  3  0  0  0  0  0  0
  161.3320  206.4900  147.7700 C   0  0  2  0  0  3  0  0  0  0  0  0
  160.8840  206.3450  143.8590 C   0  0  0  0  0  1  0  0  0  0  0  0
  160.4360  206.3290  145.3300 C   0  0  0  0  0  2  0  0  0  0  0  0
  162.0460  204.3270  146.4920 C   0  0  2  0  0  3  0  0  0  0  0  0
  160.9870  204.1620  145.5630 O   0  0  0  0  0  1  0  0  0  0  0  0
  160.2410  204.6620  151.6330 O   0  0  0  0  0  1  0  0  0  0  0  0
  160.8720  199.9880  148.4210 O   0  0  0  0  0  1  0  0  0  0  0  0
  161.8680  203.5030  147.7920 C   0  0  1  0  0  0  0  0  0  0  0  0
  160.3000  202.0350  146.6210 O   0  0  0  0  0  1  0  0  0  0  0  0
  161.0210  202.2880  147.8080 C   0  0  2  0  0  0  0  0  0  0  0  0
  161.8150  203.4510  150.3300 N   0  0  0  0  0  2  0  0  0  0  0  0
  159.3890  201.5880  149.5960 C   0  0  2  0  0  3  0  0  0  0  0  0
  160.4050  203.8000  150.5360 C   0  0  1  0  0  3  0  0  0  0  0  0
  160.7500  201.2650  148.9230 C   0  0  1  0  0  3  0  0  0  0  0  0
  162.3720  202.2310  147.5410 O   0  0  0  0  0  0  0  0  0  0  0  0
  159.6390  202.5210  150.8030 C   0  0  0  0  0  2  0  0  0  0  0  0
  162.3690  204.0880  149.1250 C   0  0  0  0  0  2  0  0  0  0  0  0
  158.6550  200.2950  150.0170 C   0  0  0  0  0  2  0  0  0  0  0  0
  157.4070  200.2230  149.3860 O   0  0  0  0  0  1  0  0  0  0  0  0
  1  5  1  0  0  0  0
  2  3  1  0  0  0  0
  3  5  1  0  0  0  0
  4  1  1  0  0  0  0
  5  7  1  6  0  0  0
  6  2  1  0  0  0  0
  6  4  1  0  0  0  0
  8  7  1  1  0  0  0
  8 21  1  0  0  0  0
  8 14  1  0  0  0  0
 10 11  1  0  0  0  0
 12 13  1  1  0  0  0
 12 16  1  0  0  0  0
 13 15  1  0  0  0  0
 14 33  1  0  0  0  0
 14 19  1  1  0  0  0
 15 11  1  0  0  0  0
 16 10  1  1  0  0  0
 17 18  1  1  0  0  0
 17 21  1  0  0  0  0
 18 12  1  0  0  0  0
 19  9  2  0  0  0  0
 20 16  1  0  0  0  0
 20 19  1  0  0  0  0
 21 20  1  1  0  0  0
 22 27  1  0  0  0  0
 23 28  1  1  0  0  0
 23 25  1  0  0  0  0
 23 26  1  0  0  0  0
 25 24  1  0  0  0  0
 26 22  2  0  0  0  0
 27 24  1  6  0  0  0
 27 17  1  0  0  0  0
 29 30  1  0  0  0  0
 29 28  1  0  0  0  0
 31 32  1  0  0  0  0
 33 31  1  6  0  0  0
 33 32  1  0  0  0  0
 34  2  1  0  0  0  0
 35 40  1  6  0  0  0
 35 37  1  0  0  0  0
 36 39  1  6  0  0  0
 36 35  1  0  0  0  0
 36 37  1  0  0  0  0
 37 34  1  1  0  0  0
 38 39  1  0  0  0  0
 40 41  1  1  0  0  0
 44 40  1  6  0  0  0
 44 46  1  0  0  0  0
 44 53  1  0  0  0  0
 46 45  1  6  0  0  0
 46 50  1  0  0  0  0
 47 49  1  0  0  0  0
 48 54  1  1  0  0  0
 48 52  1  0  0  0  0
 49 52  1  0  0  0  0
 49 42  1  1  0  0  0
 50 43  1  6  0  0  0
 50 48  1  0  0  0  0
 51 44  1  0  0  0  0
 51 46  1  0  0  0  0
 53 47  1  0  0  0  0
 55 54  1  0  0  0  0
M  END
>  <MODEL>
5

>  <REMARK>
 VINA RESULT:      -0.9      2.122     10.307
  Name = 
  12 active torsions:
  status: ('A' for Active; 'I' for Inactive)
    1  A    between atoms: C_2  and  O_28
    2  A    between atoms: C_6  and  C_20
    3  A    between atoms: C_8  and  C_43
    4  A    between atoms: O_10  and  C_18
    5  A    between atoms: O_10  and  C_32
    6  A    between atoms: C_11  and  C_29
    7  A    between atoms: C_19  and  C_37
    8  A    between atoms: C_20  and  C_22
    9  A    between atoms: N_27  and  C_54
   10  A    between atoms: O_28  and  C_44
   11  A    between atoms: C_33  and  C_52
   12  A    between atoms: C_51  and  C_54
                            x       y       z     vdW  Elec       q    Type
                         _______ _______ _______ _____ _____    ______ ____

>  <TORSDO>
F 12

$$$$
=
 OpenBabel11062408543D

 55 63  0  0  1  0  0  0  0  0999 V2000
  161.7040  210.8150  149.6670 C   0  0  0  0  0  2  0  0  0  0  0  0
  161.9660  207.9940  150.4110 N   0  0  0  0  0  0  0  0  0  0  0  0
  162.0390  208.9280  151.5500 C   0  0  0  0  0  2  0  0  0  0  0  0
  162.4890  209.9390  148.7170 C   0  0  0  0  0  2  0  0  0  0  0  0
  161.5930  210.4320  151.1610 C   0  0  2  0  0  3  0  0  0  0  0  0
  162.1740  208.4300  149.0020 C   0  0  0  0  0  2  0  0  0  0  0  0
  160.2720  210.8230  151.4950 O   0  0  0  0  0  0  0  0  0  0  0  0
  160.2250  212.1640  151.9530 C   0  0  2  0  0  3  0  0  0  0  0  0
  159.0560  212.9890  155.3280 O   0  0  0  0  0  0  0  0  0  0  0  0
  156.6790  214.0850  154.5740 C   0  0  0  0  0  2  0  0  0  0  0  0
  155.2000  214.2230  155.0690 C   0  0  0  0  0  2  0  0  0  0  0  0
  155.9840  213.4230  152.2290 C   0  0  2  0  0  3  0  0  0  0  0  0
  154.8180  214.4520  152.5740 C   0  0  0  0  0  2  0  0  0  0  0  0
  160.5140  212.3000  153.5420 C   0  0  1  0  0  3  0  0  0  0  0  0
  154.1690  214.2690  153.9680 C   0  0  0  0  0  2  0  0  0  0  0  0
  156.8450  213.1400  153.4070 C   0  0  1  0  0  3  0  0  0  0  0  0
  157.7220  212.9560  150.7220 C   0  0  2  0  0  3  0  0  0  0  0  0
  156.6780  213.8790  151.1100 O   0  0  0  0  0  0  0  0  0  0  0  0
  159.2100  212.7240  154.0590 C   0  0  0  0  0  0  0  0  0  0  0  0
  158.2950  213.0420  153.1080 N   0  0  0  0  0  0  0  0  0  0  0  0
  158.7620  212.8040  151.7740 C   0  0  1  0  0  3  0  0  0  0  0  0
  159.7080  212.9790  149.0050 C   0  0  0  0  0  3  0  0  0  0  0  0
  159.3560  213.5940  146.5760 C   0  0  2  0  0  3  0  0  0  0  0  0
  157.3890  213.5640  148.1580 C   0  0  0  0  0  2  0  0  0  0  0  0
  158.1280  214.3750  147.1150 C   0  0  0  0  0  2  0  0  0  0  0  0
  160.1620  213.0190  147.7330 C   0  0  0  0  0  3  0  0  0  0  0  0
  158.3120  213.5280  149.4230 C   0  0  1  0  0  3  0  0  0  0  0  0
  160.1500  214.4510  145.8210 O   0  0  0  0  0  0  0  0  0  0  0  0
  159.7370  214.2520  144.4910 C   0  0  0  0  0  2  0  0  0  0  0  0
  160.8810  214.1670  143.5170 C   0  0  0  0  0  1  0  0  0  0  0  0
  162.1610  211.4770  154.9130 C   0  0  0  0  0  2  0  0  0  0  0  0
  161.0080  211.5730  155.6550 O   0  0  0  0  0  0  0  0  0  0  0  0
  160.8670  211.1200  154.3320 C   0  0  1  0  0  3  0  0  0  0  0  0
  162.8630  206.8420  150.6460 C   0  0  0  0  0  2  0  0  0  0  0  0
  161.2770  204.9600  150.9600 C   0  0  1  0  0  3  0  0  0  0  0  0
  161.1460  205.7510  152.2760 C   0  0  2  0  0  3  0  0  0  0  0  0
  162.4920  205.6480  151.5900 C   0  0  2  0  0  3  0  0  0  0  0  0
  160.5720  205.4920  154.7940 C   0  0  0  0  0  1  0  0  0  0  0  0
  160.8900  204.7970  153.4590 C   0  0  0  0  0  2  0  0  0  0  0  0
  161.3060  203.3830  151.0560 C   0  0  2  0  0  3  0  0  0  0  0  0
  162.5310  202.8270  151.5020 O   0  0  0  0  0  1  0  0  0  0  0  0
  161.6490  203.9760  145.6400 O   0  0  0  0  0  1  0  0  0  0  0  0
  160.1880  199.3120  148.5860 O   0  0  0  0  0  1  0  0  0  0  0  0
  160.8030  202.7890  149.7170 C   0  0  1  0  0  0  0  0  0  0  0  0
  161.9530  200.6940  150.2400 O   0  0  0  0  0  1  0  0  0  0  0  0
  161.0900  201.3800  149.3580 C   0  0  2  0  0  0  0  0  0  0  0  0
  160.1470  203.1660  147.2930 N   0  0  0  0  0  2  0  0  0  0  0  0
  161.7910  200.4900  147.1070 C   0  0  2  0  0  3  0  0  0  0  0  0
  161.4730  203.0440  146.6760 C   0  0  1  0  0  3  0  0  0  0  0  0
  160.6440  200.5370  148.1520 C   0  0  1  0  0  3  0  0  0  0  0  0
  159.9430  201.7410  150.0330 O   0  0  0  0  0  0  0  0  0  0  0  0
  161.5980  201.6480  146.1020 C   0  0  0  0  0  2  0  0  0  0  0  0
  160.2210  203.7330  148.6490 C   0  0  0  0  0  2  0  0  0  0  0  0
  161.8390  199.1190  146.3960 C   0  0  0  0  0  2  0  0  0  0  0  0
  161.0050  199.1320  145.2710 O   0  0  0  0  0  1  0  0  0  0  0  0
  1  5  1  0  0  0  0
  2 34  1  0  0  0  0
  2  3  1  0  0  0  0
  4  6  1  0  0  0  0
  4  1  1  0  0  0  0
  5  7  1  6  0  0  0
  5  3  1  0  0  0  0
  6  2  1  0  0  0  0
  8  7  1  1  0  0  0
  8 14  1  0  0  0  0
 10 11  1  0  0  0  0
 12 13  1  1  0  0  0
 12 16  1  0  0  0  0
 13 15  1  0  0  0  0
 14 19  1  1  0  0  0
 14 33  1  0  0  0  0
 15 11  1  0  0  0  0
 16 10  1  1  0  0  0
 17 18  1  1  0  0  0
 17 21  1  0  0  0  0
 18 12  1  0  0  0  0
 19  9  2  0  0  0  0
 20 16  1  0  0  0  0
 20 19  1  0  0  0  0
 21  8  1  0  0  0  0
 21 20  1  1  0  0  0
 22 27  1  0  0  0  0
 23 28  1  1  0  0  0
 23 25  1  0  0  0  0
 23 26  1  0  0  0  0
 25 24  1  0  0  0  0
 26 22  2  0  0  0  0
 27 24  1  6  0  0  0
 27 17  1  0  0  0  0
 29 28  1  0  0  0  0
 30 29  1  0  0  0  0
 31 32  1  0  0  0  0
 33 31  1  6  0  0  0
 33 32  1  0  0  0  0
 35 40  1  1  0  0  0
 35 37  1  0  0  0  0
 35 36  1  0  0  0  0
 36 39  1  1  0  0  0
 37 34  1  6  0  0  0
 37 36  1  0  0  0  0
 39 38  1  0  0  0  0
 40 41  1  6  0  0  0
 44 51  1  0  0  0  0
 44 40  1  1  0  0  0
 46 44  1  0  0  0  0
 46 51  1  0  0  0  0
 46 45  1  1  0  0  0
 47 53  1  0  0  0  0
 48 54  1  6  0  0  0
 48 50  1  0  0  0  0
 49 42  1  6  0  0  0
 49 47  1  0  0  0  0
 50 43  1  1  0  0  0
 50 46  1  0  0  0  0
 52 49  1  0  0  0  0
 52 48  1  0  0  0  0
 53 44  1  0  0  0  0
 55 54  1  0  0  0  0
M  END
>  <MODEL>
6

>  <REMARK>
 VINA RESULT:      -0.6      2.409     10.392
  Name = 
  12 active torsions:
  status: ('A' for Active; 'I' for Inactive)
    1  A    between atoms: C_2  and  O_28
    2  A    between atoms: C_6  and  C_20
    3  A    between atoms: C_8  and  C_43
    4  A    between atoms: O_10  and  C_18
    5  A    between atoms: O_10  and  C_32
    6  A    between atoms: C_11  and  C_29
    7  A    between atoms: C_19  and  C_37
    8  A    between atoms: C_20  and  C_22
    9  A    between atoms: N_27  and  C_54
   10  A    between atoms: O_28  and  C_44
   11  A    between atoms: C_33  and  C_52
   12  A    between atoms: C_51  and  C_54
                            x       y       z     vdW  Elec       q    Type
                         _______ _______ _______ _____ _____    ______ ____

>  <TORSDO>
F 12

$$$$
=
 OpenBabel11062408543D

 55 63  0  0  1  0  0  0  0  0999 V2000
  162.1540  209.1620  150.5010 C   0  0  0  0  0  2  0  0  0  0  0  0
  161.0940  207.0380  148.7860 N   0  0  0  0  0  0  0  0  0  0  0  0
  161.2330  206.6550  150.2030 C   0  0  0  0  0  2  0  0  0  0  0  0
  162.7490  209.0570  149.1150 C   0  0  0  0  0  2  0  0  0  0  0  0
  161.5250  207.9180  151.1700 C   0  0  2  0  0  3  0  0  0  0  0  0
  161.8090  208.2040  148.1960 C   0  0  0  0  0  2  0  0  0  0  0  0
  160.4240  208.4580  151.8810 O   0  0  0  0  0  0  0  0  0  0  0  0
  160.8470  209.3550  152.8930 C   0  0  2  0  0  3  0  0  0  0  0  0
  159.6620  209.0350  156.3470 O   0  0  0  0  0  0  0  0  0  0  0  0
  158.0270  211.2140  156.3180 C   0  0  0  0  0  2  0  0  0  0  0  0
  156.6700  211.7140  156.9160 C   0  0  0  0  0  2  0  0  0  0  0  0
  157.4430  211.9820  153.9750 C   0  0  2  0  0  3  0  0  0  0  0  0
  156.7410  213.1350  154.8190 C   0  0  0  0  0  2  0  0  0  0  0  0
  160.9540  208.6590  154.3520 C   0  0  1  0  0  3  0  0  0  0  0  0
  155.8940  212.6500  156.0210 C   0  0  0  0  0  2  0  0  0  0  0  0
  157.9610  210.8920  154.8440 C   0  0  1  0  0  3  0  0  0  0  0  0
  159.0410  211.5480  152.3110 C   0  0  2  0  0  3  0  0  0  0  0  0
  158.4020  212.5480  153.1370 O   0  0  0  0  0  0  0  0  0  0  0  0
  159.8650  209.3090  155.0870 C   0  0  0  0  0  0  0  0  0  0  0  0
  159.2820  210.3490  154.4400 N   0  0  0  0  0  0  0  0  0  0  0  0
  159.7900  210.5460  153.1130 C   0  0  1  0  0  3  0  0  0  0  0  0
  160.1540  211.7410  149.9410 C   0  0  0  0  0  3  0  0  0  0  0  0
  160.8520  213.9750  148.9790 C   0  0  2  0  0  3  0  0  0  0  0  0
  159.7580  213.8760  151.2520 C   0  0  0  0  0  2  0  0  0  0  0  0
  160.9370  214.4110  150.4660 C   0  0  0  0  0  2  0  0  0  0  0  0
  160.5500  212.4860  148.8850 C   0  0  0  0  0  3  0  0  0  0  0  0
  159.9740  212.3300  151.3710 C   0  0  1  0  0  3  0  0  0  0  0  0
  162.0590  214.2580  148.3470 O   0  0  0  0  0  0  0  0  0  0  0  0
  161.9160  213.7490  147.0450 C   0  0  0  0  0  2  0  0  0  0  0  0
  162.7760  214.4530  146.0310 C   0  0  0  0  0  1  0  0  0  0  0  0
  161.9860  206.6200  154.1270 C   0  0  0  0  0  2  0  0  0  0  0  0
  161.6460  206.7730  155.4490 O   0  0  0  0  0  0  0  0  0  0  0  0
  160.7080  207.2250  154.5050 C   0  0  1  0  0  3  0  0  0  0  0  0
  161.3780  205.8720  147.9200 C   0  0  0  0  0  2  0  0  0  0  0  0
  161.5750  204.5650  145.8210 C   0  0  1  0  0  3  0  0  0  0  0  0
  161.8190  206.0130  145.3550 C   0  0  2  0  0  3  0  0  0  0  0  0
  160.8230  205.7350  146.4610 C   0  0  2  0  0  3  0  0  0  0  0  0
  162.2520  206.0070  142.7960 C   0  0  0  0  0  1  0  0  0  0  0  0
  161.2490  206.2310  143.9400 C   0  0  0  0  0  2  0  0  0  0  0  0
  160.6760  203.6440  144.9040 C   0  0  2  0  0  3  0  0  0  0  0  0
  159.5370  204.2760  144.3440 O   0  0  0  0  0  1  0  0  0  0  0  0
  161.9560  198.3440  145.1900 O   0  0  0  0  0  1  0  0  0  0  0  0
  159.6270  201.6270  149.2350 O   0  0  0  0  0  1  0  0  0  0  0  0
  160.3500  202.3370  145.6680 C   0  0  1  0  0  0  0  0  0  0  0  0
  161.2090  203.3500  147.7220 O   0  0  0  0  0  1  0  0  0  0  0  0
  160.5680  202.2410  147.1310 C   0  0  2  0  0  0  0  0  0  0  0  0
  160.1370  199.8070  145.6360 N   0  0  0  0  0  2  0  0  0  0  0  0
  161.5480  200.3000  148.4040 C   0  0  2  0  0  3  0  0  0  0  0  0
  161.5300  199.4570  145.9350 C   0  0  1  0  0  3  0  0  0  0  0  0
  160.2530  201.1090  148.1230 C   0  0  1  0  0  3  0  0  0  0  0  0
  159.3610  202.6440  146.5980 O   0  0  0  0  0  0  0  0  0  0  0  0
  161.6250  199.1200  147.4090 C   0  0  0  0  0  2  0  0  0  0  0  0
  160.0370  201.0580  144.8690 C   0  0  0  0  0  2  0  0  0  0  0  0
  161.5920  199.8130  149.8700 C   0  0  0  0  0  2  0  0  0  0  0  0
  160.9120  200.7160  150.6970 O   0  0  0  0  0  1  0  0  0  0  0  0
  1  5  1  0  0  0  0
  2  3  1  0  0  0  0
  3  5  1  0  0  0  0
  4  1  1  0  0  0  0
  5  7  1  6  0  0  0
  6  2  1  0  0  0  0
  6  4  1  0  0  0  0
  8  7  1  6  0  0  0
  8 21  1  0  0  0  0
  8 14  1  0  0  0  0
 10 11  1  0  0  0  0
 12 13  1  1  0  0  0
 12 16  1  0  0  0  0
 13 15  1  0  0  0  0
 14 33  1  0  0  0  0
 14 19  1  1  0  0  0
 15 11  1  0  0  0  0
 16 10  1  1  0  0  0
 17 21  1  0  0  0  0
 17 18  1  1  0  0  0
 18 12  1  0  0  0  0
 19  9  2  0  0  0  0
 20 16  1  0  0  0  0
 20 19  1  0  0  0  0
 21 20  1  6  0  0  0
 23 28  1  1  0  0  0
 23 25  1  0  0  0  0
 24 27  1  0  0  0  0
 25 24  1  0  0  0  0
 26 23  1  0  0  0  0
 26 22  2  0  0  0  0
 27 22  1  6  0  0  0
 27 17  1  0  0  0  0
 29 28  1  0  0  0  0
 30 29  1  0  0  0  0
 31 32  1  0  0  0  0
 33 31  1  6  0  0  0
 33 32  1  0  0  0  0
 34  2  1  0  0  0  0
 35 40  1  6  0  0  0
 35 37  1  0  0  0  0
 36 39  1  6  0  0  0
 36 35  1  0  0  0  0
 36 37  1  0  0  0  0
 37 34  1  1  0  0  0
 38 39  1  0  0  0  0
 40 41  1  1  0  0  0
 44 40  1  6  0  0  0
 44 51  1  0  0  0  0
 44 46  1  0  0  0  0
 46 45  1  1  0  0  0
 46 50  1  0  0  0  0
 47 49  1  0  0  0  0
 48 54  1  1  0  0  0
 49 42  1  6  0  0  0
 49 52  1  0  0  0  0
 50 48  1  0  0  0  0
 50 43  1  1  0  0  0
 51 46  1  0  0  0  0
 52 48  1  0  0  0  0
 53 47  1  0  0  0  0
 53 44  1  0  0  0  0
 54 55  1  0  0  0  0
M  END
>  <MODEL>
7

>  <REMARK>
 VINA RESULT:      -0.5      2.442     10.799
  Name = 
  12 active torsions:
  status: ('A' for Active; 'I' for Inactive)
    1  A    between atoms: C_2  and  O_28
    2  A    between atoms: C_6  and  C_20
    3  A    between atoms: C_8  and  C_43
    4  A    between atoms: O_10  and  C_18
    5  A    between atoms: O_10  and  C_32
    6  A    between atoms: C_11  and  C_29
    7  A    between atoms: C_19  and  C_37
    8  A    between atoms: C_20  and  C_22
    9  A    between atoms: N_27  and  C_54
   10  A    between atoms: O_28  and  C_44
   11  A    between atoms: C_33  and  C_52
   12  A    between atoms: C_51  and  C_54
                            x       y       z     vdW  Elec       q    Type
                         _______ _______ _______ _____ _____    ______ ____

>  <TORSDO>
F 12

$$$$
