=
 OpenBabel11062408063D

 34 40  0  0  1  0  0  0  0  0999 V2000
  161.1080  206.7000  153.7580 C   0  0  0  0  0  0  0  0  0  0  0  0
  161.7140  208.8890  152.8690 C   0  0  0  0  0  0  0  0  0  0  0  0
  162.0410  206.9130  151.4410 C   0  0  1  0  0  3  0  0  0  0  0  0
  161.2190  207.3340  149.0520 C   0  0  1  0  0  3  0  0  0  0  0  0
  160.9520  208.6780  155.1580 C   0  0  0  0  0  3  0  0  0  0  0  0
  161.3900  209.4830  154.0920 C   0  0  0  0  0  3  0  0  0  0  0  0
  161.6270  209.0840  150.5080 C   0  0  0  0  0  0  0  0  0  0  0  0
  161.6900  207.4820  152.7660 C   0  0  0  0  0  0  0  0  0  0  0  0
  161.8020  208.5310  148.2610 C   0  0  0  0  0  2  0  0  0  0  0  0
  160.7680  207.2960  154.9780 C   0  0  0  0  0  3  0  0  0  0  0  0
  161.8590  205.4010  151.2700 C   0  0  2  0  0  3  0  0  0  0  0  0
  160.6410  205.3480  153.4000 C   0  0  0  0  0  3  0  0  0  0  0  0
  161.8490  209.6750  151.6570 N   0  0  0  0  0  0  0  0  0  0  0  0
  161.8970  205.9900  148.7940 C   0  0  0  0  0  2  0  0  0  0  0  0
  161.5540  205.0340  149.8670 N   0  0  0  0  0  0  0  0  0  0  0  0
  161.8720  209.6350  149.2250 N   0  0  0  0  0  0  0  0  0  0  0  0
  161.3500  207.7060  150.4450 N   0  0  0  0  0  0  0  0  0  0  0  0
  160.9240  204.8120  152.2430 N   0  0  0  0  0  0  0  0  0  0  0  0
  160.9040  201.9660  147.7940 C   0  0  0  0  0  0  0  0  0  0  0  0
  160.6900  201.0100  148.7890 C   0  0  0  0  0  3  0  0  0  0  0  0
  161.2670  203.6710  149.4960 C   0  0  0  0  0  0  0  0  0  0  0  0
  160.7590  201.3760  150.1350 C   0  0  0  0  0  3  0  0  0  0  0  0
  161.1890  203.2890  148.1450 C   0  0  0  0  0  3  0  0  0  0  0  0
  161.0440  202.6980  150.4860 C   0  0  0  0  0  3  0  0  0  0  0  0
  160.8300  201.5780  146.3610 C   0  0  0  0  0  1  0  0  0  0  0  0
  161.6410  211.7640  148.1130 C   0  0  0  0  0  3  0  0  0  0  0  0
  162.3350  210.9480  148.8950 C   0  0  0  0  0  3  0  0  0  0  0  0
  162.1600  213.1240  147.8060 C   0  0  0  0  0  2  0  0  0  0  0  0
  161.1260  213.9150  147.0070 C   0  0  2  0  0  3  0  0  0  0  0  0
  159.8460  213.1080  146.7690 C   0  0  0  0  0  2  0  0  0  0  0  0
  160.6350  212.7850  144.4810 N   0  0  0  0  0  2  0  0  0  0  0  0
  161.8960  213.3930  144.8970 C   0  0  0  0  0  2  0  0  0  0  0  0
  161.6530  214.4480  145.8030 O   0  0  0  0  0  0  0  0  0  0  0  0
  160.0740  212.1060  145.6430 C   0  0  0  0  0  2  0  0  0  0  0  0
  1 10  1  0  0  0  0
  2  6  2  0  0  0  0
  3  8  1  1  0  0  0
  4  9  1  6  0  0  0
  4 17  1  0  0  0  0
  6  5  1  0  0  0  0
  7 13  2  0  0  0  0
  8  2  1  0  0  0  0
  8  1  2  0  0  0  0
  9 16  1  0  0  0  0
 10  5  2  0  0  0  0
 11  3  1  0  0  0  0
 11 18  1  1  0  0  0
 12  1  1  0  0  0  0
 13  2  1  0  0  0  0
 14  4  1  0  0  0  0
 14 15  1  0  0  0  0
 15 11  1  0  0  0  0
 16  7  1  0  0  0  0
 17  7  1  0  0  0  0
 17  3  1  0  0  0  0
 18 12  2  0  0  0  0
 19 23  2  0  0  0  0
 19 20  1  0  0  0  0
 20 22  2  0  0  0  0
 21 15  1  0  0  0  0
 21 24  2  0  0  0  0
 22 24  1  0  0  0  0
 23 21  1  0  0  0  0
 25 19  1  0  0  0  0
 26 27  2  0  0  0  0
 27 16  1  0  0  0  0
 28 26  1  0  0  0  0
 29 28  1  6  0  0  0
 30 29  1  0  0  0  0
 31 32  1  0  0  0  0
 31 34  1  0  0  0  0
 32 33  1  0  0  0  0
 33 29  1  0  0  0  0
 34 30  1  0  0  0  0
M  END
>  <MODEL>
1

>  <REMARK>
 VINA RESULT:     -10.0      0.000      0.000
  Name = 
  4 active torsions:
  status: ('A' for Active; 'I' for Inactive)
    1  A    between atoms: C_3  and  C_13
    2  A    between atoms: C_11  and  C_13
    3  A    between atoms: C_12  and  N_28
    4  A    between atoms: C_17  and  N_29
                            x       y       z     vdW  Elec       q    Type
                         _______ _______ _______ _____ _____    ______ ____

>  <TORSDO>
F 4

$$$$
=
 OpenBabel11062408063D

 34 40  0  0  1  0  0  0  0  0999 V2000
  161.7940  207.7210  148.3190 C   0  0  0  0  0  0  0  0  0  0  0  0
  161.4900  208.4060  150.6400 C   0  0  0  0  0  0  0  0  0  0  0  0
  160.8200  206.1280  149.9930 C   0  0  1  0  0  3  0  0  0  0  0  0
  161.6090  204.3950  151.7060 C   0  0  1  0  0  3  0  0  0  0  0  0
  162.2940  209.9970  149.0020 C   0  0  0  0  0  3  0  0  0  0  0  0
  161.9430  209.6900  150.3280 C   0  0  0  0  0  3  0  0  0  0  0  0
  161.5200  206.6460  152.2290 C   0  0  0  0  0  0  0  0  0  0  0  0
  161.3000  207.4760  149.5960 C   0  0  0  0  0  0  0  0  0  0  0  0
  161.1830  204.5590  153.1850 C   0  0  0  0  0  2  0  0  0  0  0  0
  162.2630  209.0020  148.0090 C   0  0  0  0  0  3  0  0  0  0  0  0
  160.7680  205.0630  148.8930 C   0  0  2  0  0  3  0  0  0  0  0  0
  162.0410  206.5690  147.4320 C   0  0  0  0  0  3  0  0  0  0  0  0
  161.4300  207.9360  152.0120 N   0  0  0  0  0  0  0  0  0  0  0  0
  160.7290  203.4650  150.8730 C   0  0  0  0  0  2  0  0  0  0  0  0
  160.9640  203.6980  149.4330 N   0  0  0  0  0  0  0  0  0  0  0  0
  161.3140  205.9920  153.4700 N   0  0  0  0  0  0  0  0  0  0  0  0
  161.5850  205.7350  151.1580 N   0  0  0  0  0  0  0  0  0  0  0  0
  161.6390  205.3670  147.7450 N   0  0  0  0  0  0  0  0  0  0  0  0
  160.6310  201.5010  146.4010 C   0  0  0  0  0  0  0  0  0  0  0  0
  161.1520  200.2990  146.8820 C   0  0  0  0  0  3  0  0  0  0  0  0
  161.0300  202.5510  148.5620 C   0  0  0  0  0  0  0  0  0  0  0  0
  161.6100  200.2130  148.1980 C   0  0  0  0  0  3  0  0  0  0  0  0
  160.5690  202.6200  147.2360 C   0  0  0  0  0  3  0  0  0  0  0  0
  161.5480  201.3320  149.0330 C   0  0  0  0  0  3  0  0  0  0  0  0
  160.1420  201.5930  145.0000 C   0  0  0  0  0  1  0  0  0  0  0  0
  160.1090  207.5060  154.9120 C   0  0  0  0  0  3  0  0  0  0  0  0
  161.0400  206.5760  154.7470 C   0  0  0  0  0  3  0  0  0  0  0  0
  159.8550  208.0780  156.2610 C   0  0  0  0  0  2  0  0  0  0  0  0
  159.6410  209.5870  156.1630 C   0  0  2  0  0  3  0  0  0  0  0  0
  160.1150  210.1470  154.8180 C   0  0  0  0  0  2  0  0  0  0  0  0
  162.0650  211.0020  156.0130 N   0  0  0  0  0  2  0  0  0  0  0  0
  161.6050  210.2470  157.1760 C   0  0  0  0  0  2  0  0  0  0  0  0
  160.1970  210.2930  157.2610 O   0  0  0  0  0  0  0  0  0  0  0  0
  161.6340  210.2770  154.8240 C   0  0  0  0  0  2  0  0  0  0  0  0
  1  8  1  0  0  0  0
  2 13  1  0  0  0  0
  3  8  1  6  0  0  0
  3 17  1  0  0  0  0
  4 14  1  6  0  0  0
  4  9  1  0  0  0  0
  5  6  2  0  0  0  0
  6  2  1  0  0  0  0
  7 16  1  0  0  0  0
  8  2  2  0  0  0  0
  9 16  1  0  0  0  0
 10  1  2  0  0  0  0
 10  5  1  0  0  0  0
 11 18  1  6  0  0  0
 11 15  1  0  0  0  0
 11  3  1  0  0  0  0
 12 18  2  0  0  0  0
 12  1  1  0  0  0  0
 13  7  2  0  0  0  0
 15 14  1  0  0  0  0
 16 27  1  0  0  0  0
 17  4  1  0  0  0  0
 17  7  1  0  0  0  0
 19 20  2  0  0  0  0
 19 23  1  0  0  0  0
 20 22  1  0  0  0  0
 21 24  1  0  0  0  0
 21 15  1  0  0  0  0
 22 24  2  0  0  0  0
 23 21  2  0  0  0  0
 25 19  1  0  0  0  0
 26 28  1  0  0  0  0
 27 26  2  0  0  0  0
 29 28  1  1  0  0  0
 29 33  1  0  0  0  0
 30 34  1  0  0  0  0
 30 29  1  0  0  0  0
 31 32  1  0  0  0  0
 32 33  1  0  0  0  0
 34 31  1  0  0  0  0
M  END
>  <MODEL>
2

>  <REMARK>
 VINA RESULT:     -10.0      3.300      6.210
  Name = 
  4 active torsions:
  status: ('A' for Active; 'I' for Inactive)
    1  A    between atoms: C_3  and  C_13
    2  A    between atoms: C_11  and  C_13
    3  A    between atoms: C_12  and  N_28
    4  A    between atoms: C_17  and  N_29
                            x       y       z     vdW  Elec       q    Type
                         _______ _______ _______ _____ _____    ______ ____

>  <TORSDO>
F 4

$$$$
=
 OpenBabel11062408063D

 34 40  0  0  1  0  0  0  0  0999 V2000
  161.7840  208.2990  148.7540 C   0  0  0  0  0  0  0  0  0  0  0  0
  161.4780  209.1710  151.0110 C   0  0  0  0  0  0  0  0  0  0  0  0
  160.7950  206.8530  150.5480 C   0  0  1  0  0  3  0  0  0  0  0  0
  161.5670  205.2590  152.3980 C   0  0  1  0  0  3  0  0  0  0  0  0
  162.2970  210.6190  149.2530 C   0  0  0  0  0  3  0  0  0  0  0  0
  161.9410  210.4230  150.5970 C   0  0  0  0  0  3  0  0  0  0  0  0
  161.4910  207.5460  152.7370 C   0  0  0  0  0  0  0  0  0  0  0  0
  161.2850  208.1610  150.0450 C   0  0  0  0  0  0  0  0  0  0  0  0
  161.1370  205.5450  153.8580 C   0  0  0  0  0  2  0  0  0  0  0  0
  162.2630  209.5480  148.3430 C   0  0  0  0  0  3  0  0  0  0  0  0
  160.7380  205.7030  149.5370 C   0  0  2  0  0  3  0  0  0  0  0  0
  162.0260  207.0780  147.9640 C   0  0  0  0  0  3  0  0  0  0  0  0
  161.4110  208.8150  152.4160 N   0  0  0  0  0  0  0  0  0  0  0  0
  160.6830  204.2710  151.6400 C   0  0  0  0  0  2  0  0  0  0  0  0
  160.9240  204.3850  150.1870 N   0  0  0  0  0  0  0  0  0  0  0  0
  161.2770  206.9960  154.0260 N   0  0  0  0  0  0  0  0  0  0  0  0
  161.5540  206.5510  151.7440 N   0  0  0  0  0  0  0  0  0  0  0  0
  161.6150  205.9080  148.3720 N   0  0  0  0  0  0  0  0  0  0  0  0
  160.9830  202.0210  147.2650 C   0  0  0  0  0  0  0  0  0  0  0  0
  161.0880  200.7910  147.9160 C   0  0  0  0  0  3  0  0  0  0  0  0
  160.9850  203.1700  149.4120 C   0  0  0  0  0  0  0  0  0  0  0  0
  161.1380  200.7420  149.3110 C   0  0  0  0  0  3  0  0  0  0  0  0
  160.9300  203.2040  148.0080 C   0  0  0  0  0  3  0  0  0  0  0  0
  161.0850  201.9240  150.0540 C   0  0  0  0  0  3  0  0  0  0  0  0
  160.9280  202.0750  145.7800 C   0  0  0  0  0  1  0  0  0  0  0  0
  160.5510  208.9290  155.2740 C   0  0  0  0  0  3  0  0  0  0  0  0
  161.0040  207.6830  155.2510 C   0  0  0  0  0  3  0  0  0  0  0  0
  160.2730  209.5990  156.5730 C   0  0  0  0  0  2  0  0  0  0  0  0
  159.1030  210.5700  156.4260 C   0  0  2  0  0  3  0  0  0  0  0  0
  158.8530  210.9500  154.9640 C   0  0  0  0  0  2  0  0  0  0  0  0
  159.9170  213.0870  155.4770 N   0  0  0  0  0  2  0  0  0  0  0  0
  160.2740  212.5250  156.7770 C   0  0  0  0  0  2  0  0  0  0  0  0
  159.2280  211.7100  157.2600 O   0  0  0  0  0  0  0  0  0  0  0  0
  159.8800  211.9870  154.5210 C   0  0  0  0  0  2  0  0  0  0  0  0
  1  8  1  0  0  0  0
  2 13  1  0  0  0  0
  3  8  1  6  0  0  0
  3 17  1  0  0  0  0
  4 14  1  6  0  0  0
  4  9  1  0  0  0  0
  5  6  2  0  0  0  0
  6  2  1  0  0  0  0
  7 16  1  0  0  0  0
  8  2  2  0  0  0  0
  9 16  1  0  0  0  0
 10  1  2  0  0  0  0
 10  5  1  0  0  0  0
 11 18  1  6  0  0  0
 11 15  1  0  0  0  0
 11  3  1  0  0  0  0
 12 18  2  0  0  0  0
 12  1  1  0  0  0  0
 13  7  2  0  0  0  0
 15 14  1  0  0  0  0
 16 27  1  0  0  0  0
 17  4  1  0  0  0  0
 17  7  1  0  0  0  0
 19 20  2  0  0  0  0
 19 23  1  0  0  0  0
 20 22  1  0  0  0  0
 21 24  1  0  0  0  0
 21 15  1  0  0  0  0
 22 24  2  0  0  0  0
 23 21  2  0  0  0  0
 25 19  1  0  0  0  0
 26 28  1  0  0  0  0
 27 26  2  0  0  0  0
 29 28  1  6  0  0  0
 29 33  1  0  0  0  0
 30 29  1  0  0  0  0
 31 32  1  0  0  0  0
 32 33  1  0  0  0  0
 34 30  1  0  0  0  0
 34 31  1  0  0  0  0
M  END
>  <MODEL>
3

>  <REMARK>
 VINA RESULT:      -9.7      3.154      5.920
  Name = 
  4 active torsions:
  status: ('A' for Active; 'I' for Inactive)
    1  A    between atoms: C_3  and  C_13
    2  A    between atoms: C_11  and  C_13
    3  A    between atoms: C_12  and  N_28
    4  A    between atoms: C_17  and  N_29
                            x       y       z     vdW  Elec       q    Type
                         _______ _______ _______ _____ _____    ______ ____

>  <TORSDO>
F 4

$$$$
=
 OpenBabel11062408063D

 34 40  0  0  1  0  0  0  0  0999 V2000
  161.2690  204.9470  150.0790 C   0  0  0  0  0  0  0  0  0  0  0  0
  161.3630  206.5380  148.2330 C   0  0  0  0  0  0  0  0  0  0  0  0
  160.8310  207.3830  150.4810 C   0  0  1  0  0  3  0  0  0  0  0  0
  162.1310  209.5240  151.0130 C   0  0  1  0  0  3  0  0  0  0  0  0
  161.6440  204.1710  147.8080 C   0  0  0  0  0  3  0  0  0  0  0  0
  161.6010  205.4940  147.3350 C   0  0  0  0  0  3  0  0  0  0  0  0
  161.9030  208.7650  148.8400 C   0  0  0  0  0  0  0  0  0  0  0  0
  161.0710  206.2290  149.5780 C   0  0  0  0  0  0  0  0  0  0  0  0
  161.9940  210.7370  150.0600 C   0  0  0  0  0  2  0  0  0  0  0  0
  161.5240  203.9020  149.1830 C   0  0  0  0  0  3  0  0  0  0  0  0
  160.6760  207.0690  151.9740 C   0  0  2  0  0  3  0  0  0  0  0  0
  161.4580  204.7850  151.5320 C   0  0  0  0  0  3  0  0  0  0  0  0
  161.6310  207.9190  147.8760 N   0  0  0  0  0  0  0  0  0  0  0  0
  161.2090  209.5440  152.2300 C   0  0  0  0  0  2  0  0  0  0  0  0
  161.1250  208.1940  152.8260 N   0  0  0  0  0  0  0  0  0  0  0  0
  162.0220  210.1720  148.7070 N   0  0  0  0  0  0  0  0  0  0  0  0
  161.8520  208.3670  150.1890 N   0  0  0  0  0  0  0  0  0  0  0  0
  161.2620  205.7740  152.3610 N   0  0  0  0  0  0  0  0  0  0  0  0
  161.9080  208.8540  156.4430 C   0  0  0  0  0  0  0  0  0  0  0  0
  161.1720  207.8440  157.0650 C   0  0  0  0  0  3  0  0  0  0  0  0
  161.1400  208.0840  154.2640 C   0  0  0  0  0  0  0  0  0  0  0  0
  160.4230  206.9510  156.2960 C   0  0  0  0  0  3  0  0  0  0  0  0
  161.8930  208.9720  155.0500 C   0  0  0  0  0  3  0  0  0  0  0  0
  160.4090  207.0690  154.9050 C   0  0  0  0  0  3  0  0  0  0  0  0
  162.7060  209.8050  157.2600 C   0  0  0  0  0  1  0  0  0  0  0  0
  161.5480  212.2260  147.5320 C   0  0  0  0  0  3  0  0  0  0  0  0
  161.9480  210.9610  147.5160 C   0  0  0  0  0  3  0  0  0  0  0  0
  161.4940  213.0080  146.2680 C   0  0  0  0  0  2  0  0  0  0  0  0
  160.0440  213.2020  145.8290 C   0  0  2  0  0  3  0  0  0  0  0  0
  159.5410  212.0320  144.9790 C   0  0  0  0  0  2  0  0  0  0  0  0
  159.8030  213.4980  143.0440 N   0  0  0  0  0  2  0  0  0  0  0  0
  160.4570  214.4520  143.9360 C   0  0  0  0  0  2  0  0  0  0  0  0
  159.8250  214.4530  145.1970 O   0  0  0  0  0  0  0  0  0  0  0  0
  160.0790  212.1620  143.5580 C   0  0  0  0  0  2  0  0  0  0  0  0
  1 12  1  0  0  0  0
  2  8  2  0  0  0  0
  3  8  1  6  0  0  0
  3 11  1  0  0  0  0
  4  9  1  6  0  0  0
  4 14  1  0  0  0  0
  5 10  1  0  0  0  0
  6  5  2  0  0  0  0
  6  2  1  0  0  0  0
  7 17  1  0  0  0  0
  8  1  1  0  0  0  0
 10  1  2  0  0  0  0
 11 18  1  1  0  0  0
 11 15  1  0  0  0  0
 12 18  2  0  0  0  0
 13  2  1  0  0  0  0
 13  7  2  0  0  0  0
 14 15  1  0  0  0  0
 15 21  1  0  0  0  0
 16  7  1  0  0  0  0
 16  9  1  0  0  0  0
 17  3  1  0  0  0  0
 17  4  1  0  0  0  0
 19 20  1  0  0  0  0
 19 25  1  0  0  0  0
 21 24  2  0  0  0  0
 21 23  1  0  0  0  0
 22 20  2  0  0  0  0
 23 19  2  0  0  0  0
 24 22  1  0  0  0  0
 27 26  2  0  0  0  0
 27 16  1  0  0  0  0
 28 26  1  0  0  0  0
 29 28  1  6  0  0  0
 30 29  1  0  0  0  0
 31 34  1  0  0  0  0
 31 32  1  0  0  0  0
 32 33  1  0  0  0  0
 33 29  1  0  0  0  0
 34 30  1  0  0  0  0
M  END
>  <MODEL>
4

>  <REMARK>
 VINA RESULT:      -9.2      1.567      5.482
  Name = 
  4 active torsions:
  status: ('A' for Active; 'I' for Inactive)
    1  A    between atoms: C_3  and  C_13
    2  A    between atoms: C_11  and  C_13
    3  A    between atoms: C_12  and  N_28
    4  A    between atoms: C_17  and  N_29
                            x       y       z     vdW  Elec       q    Type
                         _______ _______ _______ _____ _____    ______ ____

>  <TORSDO>
F 4

$$$$
=
 OpenBabel11062408063D

 34 40  0  0  1  0  0  0  0  0999 V2000
  161.0720  202.3540  149.7650 C   0  0  0  0  0  0  0  0  0  0  0  0
  161.0490  202.4040  147.3270 C   0  0  0  0  0  0  0  0  0  0  0  0
  160.6990  204.5130  148.5460 C   0  0  1  0  0  3  0  0  0  0  0  0
  162.0660  206.4250  147.5270 C   0  0  1  0  0  3  0  0  0  0  0  0
  161.2640  200.2940  148.4930 C   0  0  0  0  0  3  0  0  0  0  0  0
  161.2050  201.0160  147.2900 C   0  0  0  0  0  3  0  0  0  0  0  0
  161.6640  204.4750  146.3490 C   0  0  0  0  0  0  0  0  0  0  0  0
  160.8550  203.0360  148.5730 C   0  0  0  0  0  0  0  0  0  0  0  0
  161.8750  206.7630  146.0280 C   0  0  0  0  0  2  0  0  0  0  0  0
  161.2450  200.9650  149.7290 C   0  0  0  0  0  3  0  0  0  0  0  0
  160.6530  205.2260  149.9010 C   0  0  2  0  0  3  0  0  0  0  0  0
  161.3680  203.1400  150.9780 C   0  0  0  0  0  3  0  0  0  0  0  0
  161.3090  203.2270  146.1600 N   0  0  0  0  0  0  0  0  0  0  0  0
  161.2390  207.2660  148.4970 C   0  0  0  0  0  2  0  0  0  0  0  0
  161.1800  206.6080  149.8180 N   0  0  0  0  0  0  0  0  0  0  0  0
  161.7930  205.4680  145.3460 N   0  0  0  0  0  0  0  0  0  0  0  0
  161.7090  205.0260  147.6440 N   0  0  0  0  0  0  0  0  0  0  0  0
  161.2480  204.4390  150.9950 N   0  0  0  0  0  0  0  0  0  0  0  0
  161.0540  207.7580  153.3950 C   0  0  0  0  0  0  0  0  0  0  0  0
  161.5310  209.0640  153.2740 C   0  0  0  0  0  3  0  0  0  0  0  0
  161.3020  207.4340  150.9940 C   0  0  0  0  0  0  0  0  0  0  0  0
  161.8920  209.5630  152.0200 C   0  0  0  0  0  3  0  0  0  0  0  0
  160.9380  206.9480  152.2620 C   0  0  0  0  0  3  0  0  0  0  0  0
  161.7760  208.7530  150.8870 C   0  0  0  0  0  3  0  0  0  0  0  0
  160.6680  207.2270  154.7290 C   0  0  0  0  0  1  0  0  0  0  0  0
  161.8160  206.3420  143.0960 C   0  0  0  0  0  3  0  0  0  0  0  0
  161.6400  205.3250  143.9300 C   0  0  0  0  0  3  0  0  0  0  0  0
  161.6530  206.1420  141.6310 C   0  0  0  0  0  2  0  0  0  0  0  0
  162.5890  207.0760  140.8650 C   0  0  2  0  0  3  0  0  0  0  0  0
  161.8640  208.3270  140.3590 C   0  0  0  0  0  2  0  0  0  0  0  0
  161.8960  207.2880  138.1490 N   0  0  0  0  0  2  0  0  0  0  0  0
  162.3970  206.0780  138.7950 C   0  0  0  0  0  2  0  0  0  0  0  0
  163.2970  206.4140  139.8290 O   0  0  0  0  0  0  0  0  0  0  0  0
  161.0510  207.9800  139.1160 C   0  0  0  0  0  2  0  0  0  0  0  0
  1 12  1  0  0  0  0
  2  8  1  0  0  0  0
  3  8  1  1  0  0  0
  3 11  1  0  0  0  0
  4  9  1  6  0  0  0
  4 17  1  0  0  0  0
  4 14  1  0  0  0  0
  5 10  2  0  0  0  0
  6  2  2  0  0  0  0
  6  5  1  0  0  0  0
  7 17  1  0  0  0  0
  8  1  2  0  0  0  0
 10  1  1  0  0  0  0
 11 18  1  1  0  0  0
 12 18  2  0  0  0  0
 13  7  2  0  0  0  0
 13  2  1  0  0  0  0
 14 15  1  0  0  0  0
 15 11  1  0  0  0  0
 15 21  1  0  0  0  0
 16  9  1  0  0  0  0
 16  7  1  0  0  0  0
 17  3  1  0  0  0  0
 19 25  1  0  0  0  0
 20 19  1  0  0  0  0
 21 23  1  0  0  0  0
 22 20  2  0  0  0  0
 23 19  2  0  0  0  0
 24 21  2  0  0  0  0
 24 22  1  0  0  0  0
 26 27  2  0  0  0  0
 27 16  1  0  0  0  0
 28 26  1  0  0  0  0
 29 28  1  6  0  0  0
 30 29  1  0  0  0  0
 31 32  1  0  0  0  0
 31 34  1  0  0  0  0
 32 33  1  0  0  0  0
 33 29  1  0  0  0  0
 34 30  1  0  0  0  0
M  END
>  <MODEL>
5

>  <REMARK>
 VINA RESULT:      -8.6      4.154      7.158
  Name = 
  4 active torsions:
  status: ('A' for Active; 'I' for Inactive)
    1  A    between atoms: C_3  and  C_13
    2  A    between atoms: C_11  and  C_13
    3  A    between atoms: C_12  and  N_28
    4  A    between atoms: C_17  and  N_29
                            x       y       z     vdW  Elec       q    Type
                         _______ _______ _______ _____ _____    ______ ____

>  <TORSDO>
F 4

$$$$
=
 OpenBabel11062408063D

 34 40  0  0  1  0  0  0  0  0999 V2000
  161.1610  205.4260  152.5760 C   0  0  0  0  0  0  0  0  0  0  0  0
  161.6990  207.8000  152.4180 C   0  0  0  0  0  0  0  0  0  0  0  0
  162.0780  206.3790  150.4450 C   0  0  1  0  0  3  0  0  0  0  0  0
  161.2330  207.5010  148.3030 C   0  0  1  0  0  3  0  0  0  0  0  0
  160.9530  206.8630  154.5220 C   0  0  0  0  0  3  0  0  0  0  0  0
  161.3620  207.9720  153.7630 C   0  0  0  0  0  3  0  0  0  0  0  0
  161.5960  208.7200  150.2360 C   0  0  0  0  0  0  0  0  0  0  0  0
  161.7150  206.4960  151.8800 C   0  0  0  0  0  0  0  0  0  0  0  0
  161.7780  208.9020  147.9290 C   0  0  0  0  0  2  0  0  0  0  0  0
  160.8080  205.6010  153.9190 C   0  0  0  0  0  3  0  0  0  0  0  0
  161.9400  204.9910  149.8100 C   0  0  2  0  0  3  0  0  0  0  0  0
  160.7330  204.2400  151.8110 C   0  0  0  0  0  3  0  0  0  0  0  0
  161.8050  208.9290  151.5130 N   0  0  0  0  0  0  0  0  0  0  0  0
  161.9500  206.3250  147.6430 C   0  0  0  0  0  2  0  0  0  0  0  0
  161.6400  205.0720  148.3620 N   0  0  0  0  0  0  0  0  0  0  0  0
  161.8190  209.6510  149.1900 N   0  0  0  0  0  0  0  0  0  0  0  0
  161.3590  207.4220  149.7440 N   0  0  0  0  0  0  0  0  0  0  0  0
  161.0270  204.1010  150.5460 N   0  0  0  0  0  0  0  0  0  0  0  0
  161.2120  201.4630  147.4010 C   0  0  0  0  0  0  0  0  0  0  0  0
  160.9220  201.5800  146.0410 C   0  0  0  0  0  3  0  0  0  0  0  0
  161.3920  203.8850  147.5810 C   0  0  0  0  0  0  0  0  0  0  0  0
  160.8690  202.8410  145.4440 C   0  0  0  0  0  3  0  0  0  0  0  0
  161.4470  202.6090  148.1670 C   0  0  0  0  0  3  0  0  0  0  0  0
  161.1040  203.9860  146.2090 C   0  0  0  0  0  3  0  0  0  0  0  0
  161.2710  200.1210  148.0370 C   0  0  0  0  0  1  0  0  0  0  0  0
  162.4890  211.7550  148.2170 C   0  0  0  0  0  3  0  0  0  0  0  0
  162.2410  211.0140  149.2890 C   0  0  0  0  0  3  0  0  0  0  0  0
  162.9190  213.1710  148.3710 C   0  0  0  0  0  2  0  0  0  0  0  0
  161.9930  214.0920  147.5780 C   0  0  2  0  0  3  0  0  0  0  0  0
  160.5770  213.5190  147.4610 C   0  0  0  0  0  2  0  0  0  0  0  0
  161.1490  212.9320  145.1610 N   0  0  0  0  0  2  0  0  0  0  0  0
  162.5220  213.3230  145.4690 C   0  0  0  0  0  2  0  0  0  0  0  0
  162.5290  214.4520  146.3160 O   0  0  0  0  0  0  0  0  0  0  0  0
  160.5510  212.4310  146.3930 C   0  0  0  0  0  2  0  0  0  0  0  0
  1 10  1  0  0  0  0
  2  6  2  0  0  0  0
  3  8  1  1  0  0  0
  4 14  1  6  0  0  0
  4 17  1  0  0  0  0
  6  5  1  0  0  0  0
  7 13  2  0  0  0  0
  8  2  1  0  0  0  0
  8  1  2  0  0  0  0
  9  4  1  0  0  0  0
  9 16  1  0  0  0  0
 10  5  2  0  0  0  0
 11  3  1  0  0  0  0
 11 18  1  1  0  0  0
 12  1  1  0  0  0  0
 13  2  1  0  0  0  0
 14 15  1  0  0  0  0
 15 11  1  0  0  0  0
 16 27  1  0  0  0  0
 16  7  1  0  0  0  0
 17  7  1  0  0  0  0
 17  3  1  0  0  0  0
 18 12  2  0  0  0  0
 19 25  1  0  0  0  0
 19 23  1  0  0  0  0
 20 19  2  0  0  0  0
 21 23  2  0  0  0  0
 21 15  1  0  0  0  0
 22 20  1  0  0  0  0
 22 24  2  0  0  0  0
 24 21  1  0  0  0  0
 26 28  1  0  0  0  0
 26 27  2  0  0  0  0
 29 28  1  6  0  0  0
 30 29  1  0  0  0  0
 31 32  1  0  0  0  0
 31 34  1  0  0  0  0
 32 33  1  0  0  0  0
 33 29  1  0  0  0  0
 34 30  1  0  0  0  0
M  END
>  <MODEL>
6

>  <REMARK>
 VINA RESULT:      -8.3      1.097      1.735
  Name = 
  4 active torsions:
  status: ('A' for Active; 'I' for Inactive)
    1  A    between atoms: C_3  and  C_13
    2  A    between atoms: C_11  and  C_13
    3  A    between atoms: C_12  and  N_28
    4  A    between atoms: C_17  and  N_29
                            x       y       z     vdW  Elec       q    Type
                         _______ _______ _______ _____ _____    ______ ____

>  <TORSDO>
F 4

$$$$
