=
 OpenBabel11052422543D

 28 32  0  0  1  0  0  0  0  0999 V2000
  161.4470  207.9090  149.8340 C   0  0  0  0  0  3  0  0  0  0  0  0
  160.5980  206.9180  155.8790 O   0  0  0  0  0  1  0  0  0  0  0  0
  161.1310  205.7680  150.9380 C   0  0  0  0  0  0  0  0  0  0  0  0
  161.4000  207.8640  152.3580 C   0  0  1  0  0  3  0  0  0  0  0  0
  161.2390  205.8900  148.5190 C   0  0  0  0  0  0  0  0  0  0  0  0
  161.2730  207.1740  151.0170 C   0  0  0  0  0  0  0  0  0  0  0  0
  161.4330  205.6160  153.4300 C   0  0  0  0  0  2  0  0  0  0  0  0
  161.0940  205.1410  149.6890 C   0  0  0  0  0  3  0  0  0  0  0  0
  160.5650  209.1060  154.8960 C   0  0  2  0  0  3  0  0  0  0  0  0
  160.7110  209.2230  152.3780 C   0  0  0  0  0  2  0  0  0  0  0  0
  160.9290  204.9240  152.1660 C   0  0  0  0  0  2  0  0  0  0  0  0
  161.1450  207.6830  154.8440 C   0  0  2  0  0  3  0  0  0  0  0  0
  161.1980  205.0940  146.9610 Cl  0  0  0  0  0  0  0  0  0  0  0  0
  161.4220  207.2720  148.5920 C   0  0  0  0  0  3  0  0  0  0  0  0
  160.8370  207.0160  153.5020 C   0  0  1  0  0  3  0  0  0  0  0  0
  161.0290  209.9470  153.6860 C   0  0  1  0  0  3  0  0  0  0  0  0
  160.3540  211.3160  153.6630 C   0  0  2  0  0  3  0  0  0  0  0  0
  158.8800  211.1640  153.9980 C   0  0  2  0  0  3  0  0  0  0  0  0
  159.3120  211.3590  152.5620 C   0  0  0  0  0  2  0  0  0  0  0  0
  158.3630  212.4800  154.5560 C   0  0  2  0  0  3  0  0  0  0  0  0
  158.0340  212.2990  156.0370 C   0  0  2  0  0  3  0  0  0  0  0  0
  156.1380  213.7200  154.8860 C   0  0  0  0  0  1  0  0  0  0  0  0
  156.9130  212.4170  155.0170 C   0  0  1  0  0  0  0  0  0  0  0  0
  158.2360  213.5090  156.7050 O   0  0  0  0  0  1  0  0  0  0  0  0
  156.2030  211.1760  154.7260 N   0  0  0  0  0  2  0  0  0  0  0  0
  155.5330  210.8190  155.8480 O   0  0  0  0  0  1  0  0  0  0  0  0
  162.3770  209.7900  156.3010 O   0  0  0  0  0  1  0  0  0  0  0  0
  160.9860  209.7580  156.2080 C   0  0  0  0  0  2  0  0  0  0  0  0
  1  6  1  0  0  0  0
  3  6  2  0  0  0  0
  3 11  1  0  0  0  0
  4 10  1  6  0  0  0
  4 15  1  0  0  0  0
  5 14  1  0  0  0  0
  5  8  2  0  0  0  0
  6  4  1  0  0  0  0
  8  3  1  0  0  0  0
  9 28  1  1  0  0  0
 11  7  1  0  0  0  0
 12  9  1  0  0  0  0
 12  2  1  1  0  0  0
 13  5  1  0  0  0  0
 14  1  2  0  0  0  0
 15  7  1  1  0  0  0
 15 12  1  0  0  0  0
 16 10  1  6  0  0  0
 16  9  1  0  0  0  0
 17 19  1  6  0  0  0
 17 16  1  0  0  0  0
 17 18  1  0  0  0  0
 18 19  1  6  0  0  0
 20 18  1  6  0  0  0
 20 23  1  0  0  0  0
 20 21  1  0  0  0  0
 21 24  1  1  0  0  0
 23 22  1  6  0  0  0
 23 21  1  0  0  0  0
 25 23  1  0  0  0  0
 25 26  1  0  0  0  0
 28 27  1  0  0  0  0
M  END
>  <MODEL>
1

>  <REMARK>
 VINA RESULT:      -8.6      0.000      0.000
  Name = 
  4 active torsions:
  status: ('A' for Active; 'I' for Inactive)
    1  A    between atoms: C_1  and  C_27
    2  A    between atoms: C_2  and  C_3
    3  A    between atoms: N_6  and  C_11
    4  A    between atoms: C_16  and  C_21
                            x       y       z     vdW  Elec       q    Type
                         _______ _______ _______ _____ _____    ______ ____

>  <TORSDO>
F 4

$$$$
=
 OpenBabel11052422543D

 28 32  0  0  1  0  0  0  0  0999 V2000
  161.8520  207.5370  149.1800 C   0  0  0  0  0  3  0  0  0  0  0  0
  160.5490  206.4500  155.1260 O   0  0  0  0  0  1  0  0  0  0  0  0
  161.1560  205.4290  150.1660 C   0  0  0  0  0  0  0  0  0  0  0  0
  161.6670  207.4000  151.6940 C   0  0  1  0  0  3  0  0  0  0  0  0
  161.4080  205.6290  147.7630 C   0  0  0  0  0  0  0  0  0  0  0  0
  161.5060  206.7920  150.3170 C   0  0  0  0  0  0  0  0  0  0  0  0
  161.3020  205.1330  152.6590 C   0  0  0  0  0  2  0  0  0  0  0  0
  161.0890  204.8650  148.8880 C   0  0  0  0  0  3  0  0  0  0  0  0
  160.9010  208.6540  154.2470 C   0  0  2  0  0  3  0  0  0  0  0  0
  161.1930  208.8470  151.7460 C   0  0  0  0  0  2  0  0  0  0  0  0
  160.7650  204.5780  151.3420 C   0  0  0  0  0  2  0  0  0  0  0  0
  161.2590  207.1620  154.1540 C   0  0  2  0  0  3  0  0  0  0  0  0
  161.3270  204.9110  146.1680 Cl  0  0  0  0  0  0  0  0  0  0  0  0
  161.7950  206.9620  147.9090 C   0  0  0  0  0  3  0  0  0  0  0  0
  160.9230  206.6050  152.7700 C   0  0  1  0  0  3  0  0  0  0  0  0
  161.5500  209.4610  153.1010 C   0  0  1  0  0  3  0  0  0  0  0  0
  161.0940  210.9170  153.1110 C   0  0  2  0  0  3  0  0  0  0  0  0
  159.6210  210.9880  153.4780 C   0  0  2  0  0  3  0  0  0  0  0  0
  160.0480  211.1390  152.0360 C   0  0  0  0  0  2  0  0  0  0  0  0
  159.3250  212.3590  154.0660 C   0  0  2  0  0  3  0  0  0  0  0  0
  159.0590  212.2130  155.5630 C   0  0  2  0  0  3  0  0  0  0  0  0
  157.3160  213.8930  154.5250 C   0  0  0  0  0  1  0  0  0  0  0  0
  157.9090  212.4930  154.6100 C   0  0  1  0  0  0  0  0  0  0  0  0
  159.4650  213.3770  156.2190 O   0  0  0  0  0  1  0  0  0  0  0  0
  157.0180  211.3660  154.3610 N   0  0  0  0  0  2  0  0  0  0  0  0
  156.2190  211.2310  155.4460 O   0  0  0  0  0  1  0  0  0  0  0  0
  160.2650  209.2200  156.4840 O   0  0  0  0  0  1  0  0  0  0  0  0
  161.3480  209.1800  155.6070 C   0  0  0  0  0  2  0  0  0  0  0  0
  1  6  1  0  0  0  0
  3  6  2  0  0  0  0
  3 11  1  0  0  0  0
  4 10  1  6  0  0  0
  4 15  1  0  0  0  0
  5 14  1  0  0  0  0
  5  8  2  0  0  0  0
  6  4  1  0  0  0  0
  8  3  1  0  0  0  0
  9 28  1  1  0  0  0
 11  7  1  0  0  0  0
 12  9  1  0  0  0  0
 12  2  1  1  0  0  0
 13  5  1  0  0  0  0
 14  1  2  0  0  0  0
 15  7  1  1  0  0  0
 15 12  1  0  0  0  0
 16 10  1  6  0  0  0
 16 17  1  0  0  0  0
 16  9  1  0  0  0  0
 17 19  1  6  0  0  0
 17 18  1  0  0  0  0
 18 19  1  6  0  0  0
 20 18  1  6  0  0  0
 20 23  1  0  0  0  0
 20 21  1  0  0  0  0
 21 24  1  1  0  0  0
 23 22  1  1  0  0  0
 23 21  1  0  0  0  0
 25 23  1  0  0  0  0
 25 26  1  0  0  0  0
 28 27  1  0  0  0  0
M  END
>  <MODEL>
2

>  <REMARK>
 VINA RESULT:      -8.2      0.975      1.016
  Name = 
  4 active torsions:
  status: ('A' for Active; 'I' for Inactive)
    1  A    between atoms: C_1  and  C_27
    2  A    between atoms: C_2  and  C_3
    3  A    between atoms: N_6  and  C_11
    4  A    between atoms: C_16  and  C_21
                            x       y       z     vdW  Elec       q    Type
                         _______ _______ _______ _____ _____    ______ ____

>  <TORSDO>
F 4

$$$$
=
 OpenBabel11052422543D

 28 32  0  0  1  0  0  0  0  0999 V2000
  160.8420  203.5450  150.0230 C   0  0  0  0  0  3  0  0  0  0  0  0
  162.2840  209.2050  147.9940 O   0  0  0  0  0  1  0  0  0  0  0  0
  161.5070  204.1690  147.7720 C   0  0  0  0  0  0  0  0  0  0  0  0
  161.0950  206.0000  149.4920 C   0  0  1  0  0  3  0  0  0  0  0  0
  161.1920  201.8360  148.3500 C   0  0  0  0  0  0  0  0  0  0  0  0
  161.1990  204.5420  149.1020 C   0  0  0  0  0  0  0  0  0  0  0  0
  161.4250  206.5900  147.0950 C   0  0  0  0  0  2  0  0  0  0  0  0
  161.5210  202.8180  147.4130 C   0  0  0  0  0  3  0  0  0  0  0  0
  161.9690  208.6910  150.3150 C   0  0  2  0  0  3  0  0  0  0  0  0
  161.6100  206.2610  150.9020 C   0  0  0  0  0  2  0  0  0  0  0  0
  161.9080  205.1860  146.7400 C   0  0  0  0  0  2  0  0  0  0  0  0
  161.5670  208.3800  148.8640 C   0  0  2  0  0  3  0  0  0  0  0  0
  161.2070  200.1470  147.8880 Cl  0  0  0  0  0  0  0  0  0  0  0  0
  160.8460  202.1990  149.6520 C   0  0  0  0  0  3  0  0  0  0  0  0
  161.8470  206.9150  148.5220 C   0  0  1  0  0  3  0  0  0  0  0  0
  161.3100  207.7050  151.3060 C   0  0  1  0  0  3  0  0  0  0  0  0
  161.8070  207.9270  152.7310 C   0  0  2  0  0  3  0  0  0  0  0  0
  160.6210  208.0740  153.6690 C   0  0  2  0  0  3  0  0  0  0  0  0
  161.3840  209.2990  153.2180 C   0  0  0  0  0  2  0  0  0  0  0  0
  161.0540  207.6950  155.0760 C   0  0  2  0  0  3  0  0  0  0  0  0
  159.8240  207.6390  155.9790 C   0  0  2  0  0  3  0  0  0  0  0  0
  161.7960  208.8240  157.2610 C   0  0  0  0  0  1  0  0  0  0  0  0
  160.8070  208.7910  156.1040 C   0  0  1  0  0  0  0  0  0  0  0  0
  160.0300  206.6890  156.9820 O   0  0  0  0  0  1  0  0  0  0  0  0
  160.3390  210.0680  155.5770 N   0  0  0  0  0  2  0  0  0  0  0  0
  159.0180  210.1650  155.8580 O   0  0  0  0  0  1  0  0  0  0  0  0
  162.3220  211.0130  149.8530 O   0  0  0  0  0  1  0  0  0  0  0  0
  161.5760  210.1290  150.6330 C   0  0  0  0  0  2  0  0  0  0  0  0
  3  6  1  0  0  0  0
  4 10  1  1  0  0  0
  5 14  2  0  0  0  0
  6  4  1  0  0  0  0
  6  1  2  0  0  0  0
  8  3  2  0  0  0  0
  8  5  1  0  0  0  0
  9 28  1  1  0  0  0
  9 16  1  0  0  0  0
 11  7  1  0  0  0  0
 11  3  1  0  0  0  0
 12  2  1  6  0  0  0
 12  9  1  0  0  0  0
 13  5  1  0  0  0  0
 14  1  1  0  0  0  0
 15  7  1  6  0  0  0
 15 12  1  0  0  0  0
 15  4  1  0  0  0  0
 16 10  1  6  0  0  0
 16 17  1  0  0  0  0
 17 19  1  6  0  0  0
 17 18  1  0  0  0  0
 18 19  1  1  0  0  0
 20 18  1  6  0  0  0
 20 21  1  0  0  0  0
 20 23  1  0  0  0  0
 21 23  1  0  0  0  0
 21 24  1  1  0  0  0
 23 22  1  1  0  0  0
 25 26  1  0  0  0  0
 25 23  1  0  0  0  0
 27 28  1  0  0  0  0
M  END
>  <MODEL>
3

>  <REMARK>
 VINA RESULT:      -8.2      2.960      5.080
  Name = 
  4 active torsions:
  status: ('A' for Active; 'I' for Inactive)
    1  A    between atoms: C_1  and  C_27
    2  A    between atoms: C_2  and  C_3
    3  A    between atoms: N_6  and  C_11
    4  A    between atoms: C_16  and  C_21
                            x       y       z     vdW  Elec       q    Type
                         _______ _______ _______ _____ _____    ______ ____

>  <TORSDO>
F 4

$$$$
=
 OpenBabel11052422543D

 28 32  0  0  1  0  0  0  0  0999 V2000
  161.9460  207.8050  149.1850 C   0  0  0  0  0  3  0  0  0  0  0  0
  160.4610  206.1990  154.9680 O   0  0  0  0  0  1  0  0  0  0  0  0
  161.1750  205.6320  149.9500 C   0  0  0  0  0  0  0  0  0  0  0  0
  161.6920  207.4370  151.6690 C   0  0  1  0  0  3  0  0  0  0  0  0
  161.4950  206.0510  147.5830 C   0  0  0  0  0  0  0  0  0  0  0  0
  161.5530  206.9650  150.2380 C   0  0  0  0  0  0  0  0  0  0  0  0
  161.2480  205.1000  152.4060 C   0  0  0  0  0  2  0  0  0  0  0  0
  161.1290  205.1930  148.6230 C   0  0  0  0  0  3  0  0  0  0  0  0
  160.8880  208.4660  154.3110 C   0  0  2  0  0  3  0  0  0  0  0  0
  161.2510  208.8850  151.8470 C   0  0  0  0  0  2  0  0  0  0  0  0
  160.7330  204.6860  151.0310 C   0  0  0  0  0  2  0  0  0  0  0  0
  161.2130  206.9800  154.0860 C   0  0  2  0  0  3  0  0  0  0  0  0
  161.4390  205.4880  145.9260 Cl  0  0  0  0  0  0  0  0  0  0  0  0
  161.9090  207.3530  147.8640 C   0  0  0  0  0  3  0  0  0  0  0  0
  160.9010  206.5640  152.6470 C   0  0  1  0  0  3  0  0  0  0  0  0
  161.5870  209.3600  153.2610 C   0  0  1  0  0  3  0  0  0  0  0  0
  161.1650  210.8200  153.3990 C   0  0  2  0  0  3  0  0  0  0  0  0
  159.6840  210.9550  153.0860 C   0  0  2  0  0  3  0  0  0  0  0  0
  160.7130  211.3560  152.0540 C   0  0  0  0  0  2  0  0  0  0  0  0
  159.1460  212.1990  153.7760 C   0  0  2  0  0  3  0  0  0  0  0  0
  157.6580  212.0070  154.0600 C   0  0  2  0  0  3  0  0  0  0  0  0
  158.0710  214.4530  153.1760 C   0  0  0  0  0  1  0  0  0  0  0  0
  158.1060  212.9480  152.9540 C   0  0  1  0  0  0  0  0  0  0  0  0
  157.3130  212.7140  155.2140 O   0  0  0  0  0  1  0  0  0  0  0  0
  157.8910  212.4590  151.5960 N   0  0  0  0  0  2  0  0  0  0  0  0
  158.2440  213.4530  150.7460 O   0  0  0  0  0  1  0  0  0  0  0  0
  160.2210  209.3600  156.4280 O   0  0  0  0  0  1  0  0  0  0  0  0
  161.3110  208.8500  155.7240 C   0  0  0  0  0  2  0  0  0  0  0  0
  1  6  1  0  0  0  0
  3  6  2  0  0  0  0
  3 11  1  0  0  0  0
  4 10  1  6  0  0  0
  4 15  1  0  0  0  0
  5 14  1  0  0  0  0
  5  8  2  0  0  0  0
  6  4  1  0  0  0  0
  8  3  1  0  0  0  0
  9 28  1  1  0  0  0
 11  7  1  0  0  0  0
 12  9  1  0  0  0  0
 12  2  1  1  0  0  0
 13  5  1  0  0  0  0
 14  1  2  0  0  0  0
 15  7  1  1  0  0  0
 15 12  1  0  0  0  0
 16 10  1  6  0  0  0
 16 17  1  0  0  0  0
 16  9  1  0  0  0  0
 17 19  1  6  0  0  0
 18 19  1  6  0  0  0
 18 17  1  0  0  0  0
 20 18  1  6  0  0  0
 20 21  1  0  0  0  0
 21 24  1  1  0  0  0
 23 22  1  1  0  0  0
 23 20  1  0  0  0  0
 23 21  1  0  0  0  0
 25 23  1  0  0  0  0
 26 25  1  0  0  0  0
 28 27  1  0  0  0  0
M  END
>  <MODEL>
4

>  <REMARK>
 VINA RESULT:      -8.0      1.760      1.922
  Name = 
  4 active torsions:
  status: ('A' for Active; 'I' for Inactive)
    1  A    between atoms: C_1  and  C_27
    2  A    between atoms: C_2  and  C_3
    3  A    between atoms: N_6  and  C_11
    4  A    between atoms: C_16  and  C_21
                            x       y       z     vdW  Elec       q    Type
                         _______ _______ _______ _____ _____    ______ ____

>  <TORSDO>
F 4

$$$$
=
 OpenBabel11052422543D

 28 32  0  0  1  0  0  0  0  0999 V2000
  161.8310  206.0230  147.6820 C   0  0  0  0  0  3  0  0  0  0  0  0
  160.8130  206.1110  153.7810 O   0  0  0  0  0  1  0  0  0  0  0  0
  161.2070  204.1450  149.0910 C   0  0  0  0  0  0  0  0  0  0  0  0
  161.7620  206.3780  150.1810 C   0  0  1  0  0  3  0  0  0  0  0  0
  161.3470  203.8730  146.6860 C   0  0  0  0  0  0  0  0  0  0  0  0
  161.5470  205.5120  148.9580 C   0  0  0  0  0  0  0  0  0  0  0  0
  161.4700  204.3410  151.5840 C   0  0  0  0  0  2  0  0  0  0  0  0
  161.0900  203.3430  147.9520 C   0  0  0  0  0  3  0  0  0  0  0  0
  161.0960  208.1030  152.4750 C   0  0  2  0  0  3  0  0  0  0  0  0
  161.2720  207.8050  149.9730 C   0  0  0  0  0  2  0  0  0  0  0  0
  160.8810  203.5380  150.4280 C   0  0  0  0  0  2  0  0  0  0  0  0
  161.4690  206.6220  152.6570 C   0  0  2  0  0  3  0  0  0  0  0  0
  161.2040  202.8580  145.2670 Cl  0  0  0  0  0  0  0  0  0  0  0  0
  161.7230  205.2110  146.5520 C   0  0  0  0  0  3  0  0  0  0  0  0
  161.0780  205.8050  151.4250 C   0  0  1  0  0  3  0  0  0  0  0  0
  161.6820  208.6730  151.1640 C   0  0  1  0  0  3  0  0  0  0  0  0
  161.2080  210.1020  150.9120 C   0  0  2  0  0  3  0  0  0  0  0  0
  162.0160  210.7170  149.7830 C   0  0  2  0  0  3  0  0  0  0  0  0
  162.3270  211.0780  151.2170 C   0  0  0  0  0  2  0  0  0  0  0  0
  161.2010  211.8310  149.1440 C   0  0  2  0  0  3  0  0  0  0  0  0
  161.2160  211.6520  147.6270 C   0  0  2  0  0  3  0  0  0  0  0  0
  161.5310  214.2010  148.2100 C   0  0  0  0  0  1  0  0  0  0  0  0
  162.0290  212.7640  148.2690 C   0  0  1  0  0  0  0  0  0  0  0  0
  160.0230  212.1440  147.0930 O   0  0  0  0  0  1  0  0  0  0  0  0
  163.4710  212.5480  148.2900 N   0  0  0  0  0  2  0  0  0  0  0  0
  163.8270  212.0640  147.0770 O   0  0  0  0  0  1  0  0  0  0  0  0
  160.5220  209.4550  154.3640 O   0  0  0  0  0  1  0  0  0  0  0  0
  161.5970  208.8860  153.6830 C   0  0  0  0  0  2  0  0  0  0  0  0
  1  6  1  0  0  0  0
  3 11  1  0  0  0  0
  4 10  1  6  0  0  0
  4 15  1  0  0  0  0
  5  8  2  0  0  0  0
  6  3  2  0  0  0  0
  6  4  1  0  0  0  0
  8  3  1  0  0  0  0
  9 12  1  0  0  0  0
  9 28  1  1  0  0  0
 11  7  1  0  0  0  0
 12  2  1  1  0  0  0
 13  5  1  0  0  0  0
 14  5  1  0  0  0  0
 14  1  2  0  0  0  0
 15  7  1  1  0  0  0
 15 12  1  0  0  0  0
 16 10  1  6  0  0  0
 16  9  1  0  0  0  0
 17 16  1  0  0  0  0
 17 19  1  1  0  0  0
 18 17  1  0  0  0  0
 18 19  1  1  0  0  0
 20 18  1  1  0  0  0
 21 24  1  6  0  0  0
 21 23  1  0  0  0  0
 21 20  1  0  0  0  0
 23 22  1  6  0  0  0
 23 25  1  0  0  0  0
 23 20  1  0  0  0  0
 26 25  1  0  0  0  0
 28 27  1  0  0  0  0
M  END
>  <MODEL>
5

>  <REMARK>
 VINA RESULT:      -7.9      4.000      5.272
  Name = 
  4 active torsions:
  status: ('A' for Active; 'I' for Inactive)
    1  A    between atoms: C_1  and  C_27
    2  A    between atoms: C_2  and  C_3
    3  A    between atoms: N_6  and  C_11
    4  A    between atoms: C_16  and  C_21
                            x       y       z     vdW  Elec       q    Type
                         _______ _______ _______ _____ _____    ______ ____

>  <TORSDO>
F 4

$$$$
=
 OpenBabel11052422543D

 28 32  0  0  1  0  0  0  0  0999 V2000
  162.0950  206.5130  147.2520 C   0  0  0  0  0  3  0  0  0  0  0  0
  160.9420  207.6330  153.2230 O   0  0  0  0  0  1  0  0  0  0  0  0
  161.3380  204.9200  148.9230 C   0  0  0  0  0  0  0  0  0  0  0  0
  161.9870  207.2680  149.6590 C   0  0  1  0  0  3  0  0  0  0  0  0
  161.5180  204.2580  146.5970 C   0  0  0  0  0  0  0  0  0  0  0  0
  161.7540  206.2290  148.5840 C   0  0  0  0  0  0  0  0  0  0  0  0
  161.5530  205.5020  151.3600 C   0  0  0  0  0  2  0  0  0  0  0  0
  161.2040  203.9510  147.9230 C   0  0  0  0  0  3  0  0  0  0  0  0
  161.3630  209.3720  151.6260 C   0  0  2  0  0  3  0  0  0  0  0  0
  161.5810  208.6670  149.2100 C   0  0  0  0  0  2  0  0  0  0  0  0
  160.9480  204.5540  150.3280 C   0  0  0  0  0  2  0  0  0  0  0  0
  161.6510  207.9230  152.0540 C   0  0  2  0  0  3  0  0  0  0  0  0
  161.3530  203.0360  145.3550 Cl  0  0  0  0  0  0  0  0  0  0  0  0
  161.9700  205.5360  146.2630 C   0  0  0  0  0  3  0  0  0  0  0  0
  161.2450  206.9390  150.9560 C   0  0  1  0  0  3  0  0  0  0  0  0
  162.0100  209.6940  150.2590 C   0  0  1  0  0  3  0  0  0  0  0  0
  161.6200  211.0850  149.7690 C   0  0  2  0  0  3  0  0  0  0  0  0
  161.6240  211.1100  148.2500 C   0  0  2  0  0  3  0  0  0  0  0  0
  162.7790  211.7110  149.0180 C   0  0  0  0  0  2  0  0  0  0  0  0
  160.6990  212.2200  147.7730 C   0  0  2  0  0  3  0  0  0  0  0  0
  160.2160  211.8930  146.3610 C   0  0  2  0  0  3  0  0  0  0  0  0
  160.8210  214.4530  146.5090 C   0  0  0  0  0  1  0  0  0  0  0  0
  161.2440  212.9920  146.5780 C   0  0  1  0  0  0  0  0  0  0  0  0
  158.9390  212.4270  146.1750 O   0  0  0  0  0  1  0  0  0  0  0  0
  162.6040  212.6620  146.1690 N   0  0  0  0  0  2  0  0  0  0  0  0
  162.8130  213.2310  144.9580 O   0  0  0  0  0  1  0  0  0  0  0  0
  160.8250  211.0640  153.2300 O   0  0  0  0  0  1  0  0  0  0  0  0
  161.8780  210.3130  152.7090 C   0  0  0  0  0  2  0  0  0  0  0  0
  1  6  1  0  0  0  0
  3 11  1  0  0  0  0
  4 10  1  6  0  0  0
  4 15  1  0  0  0  0
  5  8  2  0  0  0  0
  6  3  2  0  0  0  0
  6  4  1  0  0  0  0
  8  3  1  0  0  0  0
  9 12  1  0  0  0  0
  9 28  1  1  0  0  0
 11  7  1  0  0  0  0
 12  2  1  1  0  0  0
 13  5  1  0  0  0  0
 14  5  1  0  0  0  0
 14  1  2  0  0  0  0
 15  7  1  1  0  0  0
 15 12  1  0  0  0  0
 16 10  1  6  0  0  0
 16  9  1  0  0  0  0
 17 19  1  1  0  0  0
 17 16  1  0  0  0  0
 18 19  1  1  0  0  0
 18 17  1  0  0  0  0
 20 18  1  6  0  0  0
 21 24  1  1  0  0  0
 21 23  1  0  0  0  0
 21 20  1  0  0  0  0
 23 22  1  6  0  0  0
 23 20  1  0  0  0  0
 25 23  1  0  0  0  0
 26 25  1  0  0  0  0
 28 27  1  0  0  0  0
M  END
>  <MODEL>
6

>  <REMARK>
 VINA RESULT:      -7.7      4.623      5.884
  Name = 
  4 active torsions:
  status: ('A' for Active; 'I' for Inactive)
    1  A    between atoms: C_1  and  C_27
    2  A    between atoms: C_2  and  C_3
    3  A    between atoms: N_6  and  C_11
    4  A    between atoms: C_16  and  C_21
                            x       y       z     vdW  Elec       q    Type
                         _______ _______ _______ _____ _____    ______ ____

>  <TORSDO>
F 4

$$$$
=
 OpenBabel11052422543D

 28 32  0  0  1  0  0  0  0  0999 V2000
  162.0720  205.7380  146.2730 C   0  0  0  0  0  3  0  0  0  0  0  0
  159.9650  201.1540  149.8480 O   0  0  0  0  0  1  0  0  0  0  0  0
  161.0130  203.6780  145.5410 C   0  0  0  0  0  0  0  0  0  0  0  0
  161.5820  203.9690  148.0050 C   0  0  1  0  0  3  0  0  0  0  0  0
  161.5640  205.4060  143.9320 C   0  0  0  0  0  0  0  0  0  0  0  0
  161.5080  204.4920  146.5880 C   0  0  0  0  0  0  0  0  0  0  0  0
  160.8310  201.7540  147.1500 C   0  0  0  0  0  2  0  0  0  0  0  0
  161.0270  204.1510  144.2250 C   0  0  0  0  0  3  0  0  0  0  0  0
  160.6840  203.2680  150.7230 C   0  0  2  0  0  3  0  0  0  0  0  0
  161.2860  205.0500  149.0380 C   0  0  0  0  0  2  0  0  0  0  0  0
  160.3860  202.3380  145.8120 C   0  0  0  0  0  2  0  0  0  0  0  0
  160.8650  202.2010  149.6300 C   0  0  2  0  0  3  0  0  0  0  0  0
  161.5820  205.9850  142.2800 Cl  0  0  0  0  0  0  0  0  0  0  0  0
  162.0930  206.1960  144.9540 C   0  0  0  0  0  3  0  0  0  0  0  0
  160.6260  202.7960  148.2420 C   0  0  1  0  0  3  0  0  0  0  0  0
  161.5560  204.5120  150.4440 C   0  0  1  0  0  3  0  0  0  0  0  0
  161.2840  205.6250  151.4520 C   0  0  2  0  0  3  0  0  0  0  0  0
  162.5340  206.4700  151.6310 C   0  0  2  0  0  3  0  0  0  0  0  0
  162.1620  205.4410  152.6740 C   0  0  0  0  0  2  0  0  0  0  0  0
  162.1290  207.8530  152.1150 C   0  0  2  0  0  3  0  0  0  0  0  0
  160.7560  208.2000  151.5420 C   0  0  2  0  0  3  0  0  0  0  0  0
  162.3250  210.3090  151.3890 C   0  0  0  0  0  1  0  0  0  0  0  0
  162.0020  208.8760  150.9930 C   0  0  1  0  0  0  0  0  0  0  0  0
  160.0810  209.0350  152.4350 O   0  0  0  0  0  1  0  0  0  0  0  0
  162.4210  208.4290  149.6700 N   0  0  0  0  0  2  0  0  0  0  0  0
  161.9560  209.3300  148.7710 O   0  0  0  0  0  1  0  0  0  0  0  0
  162.2860  202.0420  152.0110 O   0  0  0  0  0  1  0  0  0  0  0  0
  161.0320  202.6490  152.0720 C   0  0  0  0  0  2  0  0  0  0  0  0
  1  6  1  0  0  0  0
  3 11  1  0  0  0  0
  3  6  2  0  0  0  0
  4 15  1  0  0  0  0
  4 10  1  1  0  0  0
  5  8  2  0  0  0  0
  5 14  1  0  0  0  0
  6  4  1  0  0  0  0
  8  3  1  0  0  0  0
  9 28  1  1  0  0  0
 11  7  1  0  0  0  0
 12  2  1  1  0  0  0
 12  9  1  0  0  0  0
 13  5  1  0  0  0  0
 14  1  2  0  0  0  0
 15  7  1  6  0  0  0
 15 12  1  0  0  0  0
 16 10  1  6  0  0  0
 16  9  1  0  0  0  0
 16 17  1  0  0  0  0
 17 18  1  0  0  0  0
 17 19  1  1  0  0  0
 18 19  1  1  0  0  0
 20 18  1  6  0  0  0
 21 20  1  0  0  0  0
 21 24  1  1  0  0  0
 23 22  1  1  0  0  0
 23 21  1  0  0  0  0
 23 20  1  0  0  0  0
 25 23  1  0  0  0  0
 26 25  1  0  0  0  0
 27 28  1  0  0  0  0
M  END
>  <MODEL>
7

>  <REMARK>
 VINA RESULT:      -7.4      4.223      6.751
  Name = 
  4 active torsions:
  status: ('A' for Active; 'I' for Inactive)
    1  A    between atoms: C_1  and  C_27
    2  A    between atoms: C_2  and  C_3
    3  A    between atoms: N_6  and  C_11
    4  A    between atoms: C_16  and  C_21
                            x       y       z     vdW  Elec       q    Type
                         _______ _______ _______ _____ _____    ______ ____

>  <TORSDO>
F 4

$$$$
=
 OpenBabel11052422543D

 28 32  0  0  1  0  0  0  0  0999 V2000
  161.4660  207.7460  148.9090 C   0  0  0  0  0  3  0  0  0  0  0  0
  160.8380  204.9370  154.3810 O   0  0  0  0  0  1  0  0  0  0  0  0
  161.1690  205.3690  149.3100 C   0  0  0  0  0  0  0  0  0  0  0  0
  161.5140  206.9250  151.2950 C   0  0  1  0  0  3  0  0  0  0  0  0
  161.1870  206.2320  147.0440 C   0  0  0  0  0  0  0  0  0  0  0  0
  161.3290  206.6820  149.8130 C   0  0  0  0  0  0  0  0  0  0  0  0
  161.5650  204.4560  151.6190 C   0  0  0  0  0  2  0  0  0  0  0  0
  161.0790  205.1590  147.9300 C   0  0  0  0  0  3  0  0  0  0  0  0
  160.7900  207.3210  154.1240 C   0  0  2  0  0  3  0  0  0  0  0  0
  160.8410  208.2100  151.7600 C   0  0  0  0  0  2  0  0  0  0  0  0
  161.0060  204.1870  150.2250 C   0  0  0  0  0  2  0  0  0  0  0  0
  161.3530  205.9850  153.6120 C   0  0  2  0  0  3  0  0  0  0  0  0
  161.0780  205.9560  145.3190 Cl  0  0  0  0  0  0  0  0  0  0  0  0
  161.3860  207.5250  147.5320 C   0  0  0  0  0  3  0  0  0  0  0  0
  160.9870  205.7650  152.1440 C   0  0  1  0  0  3  0  0  0  0  0  0
  161.2170  208.4960  153.2150 C   0  0  1  0  0  3  0  0  0  0  0  0
  160.5560  209.8030  153.6420 C   0  0  2  0  0  3  0  0  0  0  0  0
  161.1760  210.9620  152.8800 C   0  0  2  0  0  3  0  0  0  0  0  0
  161.5750  210.7020  154.3140 C   0  0  0  0  0  2  0  0  0  0  0  0
  160.1790  212.1090  152.8300 C   0  0  2  0  0  3  0  0  0  0  0  0
  158.9640  211.6790  152.0110 C   0  0  2  0  0  3  0  0  0  0  0  0
  159.6210  214.1470  151.3690 C   0  0  0  0  0  1  0  0  0  0  0  0
  159.9620  212.6650  151.4280 C   0  0  1  0  0  0  0  0  0  0  0  0
  157.8280  212.3350  152.4900 O   0  0  0  0  0  1  0  0  0  0  0  0
  160.8320  212.1300  150.3860 N   0  0  0  0  0  2  0  0  0  0  0  0
  160.8490  213.0260  149.3710 O   0  0  0  0  0  1  0  0  0  0  0  0
  160.1830  207.5120  156.4310 O   0  0  0  0  0  1  0  0  0  0  0  0
  161.2680  207.5370  155.5550 C   0  0  0  0  0  2  0  0  0  0  0  0
  1  6  1  0  0  0  0
  3  6  2  0  0  0  0
  3 11  1  0  0  0  0
  4 10  1  1  0  0  0
  4 15  1  0  0  0  0
  5 14  1  0  0  0  0
  5  8  2  0  0  0  0
  6  4  1  0  0  0  0
  8  3  1  0  0  0  0
  9 28  1  1  0  0  0
 11  7  1  0  0  0  0
 12  9  1  0  0  0  0
 12  2  1  1  0  0  0
 13  5  1  0  0  0  0
 14  1  2  0  0  0  0
 15  7  1  6  0  0  0
 15 12  1  0  0  0  0
 16 10  1  6  0  0  0
 16 17  1  0  0  0  0
 16  9  1  0  0  0  0
 17 19  1  1  0  0  0
 18 17  1  0  0  0  0
 18 19  1  1  0  0  0
 20 18  1  6  0  0  0
 21 24  1  1  0  0  0
 21 20  1  0  0  0  0
 23 22  1  6  0  0  0
 23 21  1  0  0  0  0
 23 20  1  0  0  0  0
 25 23  1  0  0  0  0
 26 25  1  0  0  0  0
 28 27  1  0  0  0  0
M  END
>  <MODEL>
8

>  <REMARK>
 VINA RESULT:      -7.4      2.466      3.204
  Name = 
  4 active torsions:
  status: ('A' for Active; 'I' for Inactive)
    1  A    between atoms: C_1  and  C_27
    2  A    between atoms: C_2  and  C_3
    3  A    between atoms: N_6  and  C_11
    4  A    between atoms: C_16  and  C_21
                            x       y       z     vdW  Elec       q    Type
                         _______ _______ _______ _____ _____    ______ ____

>  <TORSDO>
F 4

$$$$
=
 OpenBabel11052422543D

 28 32  0  0  1  0  0  0  0  0999 V2000
  160.6090  204.7100  151.0270 C   0  0  0  0  0  3  0  0  0  0  0  0
  162.5310  209.6700  147.8730 O   0  0  0  0  0  1  0  0  0  0  0  0
  161.4550  204.7620  148.7500 C   0  0  0  0  0  0  0  0  0  0  0  0
  161.0490  206.9600  149.9690 C   0  0  1  0  0  3  0  0  0  0  0  0
  160.9570  202.6440  149.8200 C   0  0  0  0  0  0  0  0  0  0  0  0
  161.0860  205.4480  149.9320 C   0  0  0  0  0  0  0  0  0  0  0  0
  161.5680  206.9600  147.5330 C   0  0  0  0  0  2  0  0  0  0  0  0
  161.4060  203.3650  148.7120 C   0  0  0  0  0  3  0  0  0  0  0  0
  162.0360  209.7250  150.2200 C   0  0  2  0  0  3  0  0  0  0  0  0
  161.4880  207.5170  151.3170 C   0  0  0  0  0  2  0  0  0  0  0  0
  161.9840  205.4910  147.5470 C   0  0  0  0  0  2  0  0  0  0  0  0
  161.7090  209.1040  148.8520 C   0  0  2  0  0  3  0  0  0  0  0  0
  160.8960  200.8960  149.7590 Cl  0  0  0  0  0  0  0  0  0  0  0  0
  160.5520  203.3160  150.9750 C   0  0  0  0  0  3  0  0  0  0  0  0
  161.9180  207.5890  148.8760 C   0  0  1  0  0  3  0  0  0  0  0  0
  161.2530  209.0280  151.3560 C   0  0  1  0  0  3  0  0  0  0  0  0
  161.6710  209.5520  152.7270 C   0  0  2  0  0  3  0  0  0  0  0  0
  160.4350  209.8950  153.5410 C   0  0  2  0  0  3  0  0  0  0  0  0
  161.2350  210.9960  152.8830 C   0  0  0  0  0  2  0  0  0  0  0  0
  160.7840  209.8280  155.0190 C   0  0  2  0  0  3  0  0  0  0  0  0
  159.7520  208.9600  155.7360 C   0  0  2  0  0  3  0  0  0  0  0  0
  160.2790  211.0830  157.2030 C   0  0  0  0  0  1  0  0  0  0  0  0
  159.7360  210.4680  155.9200 C   0  0  1  0  0  0  0  0  0  0  0  0
  160.3570  208.3260  156.8230 O   0  0  0  0  0  1  0  0  0  0  0  0
  158.6500  211.1670  155.2420 N   0  0  0  0  0  2  0  0  0  0  0  0
  157.5020  210.8600  155.8910 O   0  0  0  0  0  1  0  0  0  0  0  0
  162.4830  211.8370  149.1860 O   0  0  0  0  0  1  0  0  0  0  0  0
  161.7140  211.2140  150.1690 C   0  0  0  0  0  2  0  0  0  0  0  0
  3  6  1  0  0  0  0
  4 10  1  1  0  0  0
  5 14  2  0  0  0  0
  6  4  1  0  0  0  0
  6  1  2  0  0  0  0
  7 11  1  0  0  0  0
  8  3  2  0  0  0  0
  8  5  1  0  0  0  0
  9 28  1  6  0  0  0
  9 16  1  0  0  0  0
 11  3  1  0  0  0  0
 12  2  1  6  0  0  0
 12 15  1  0  0  0  0
 12  9  1  0  0  0  0
 13  5  1  0  0  0  0
 14  1  1  0  0  0  0
 15  7  1  6  0  0  0
 15  4  1  0  0  0  0
 16 10  1  1  0  0  0
 16 17  1  0  0  0  0
 17 19  1  6  0  0  0
 17 18  1  0  0  0  0
 18 19  1  6  0  0  0
 20 18  1  6  0  0  0
 20 21  1  0  0  0  0
 20 23  1  0  0  0  0
 21 23  1  0  0  0  0
 21 24  1  1  0  0  0
 23 22  1  1  0  0  0
 25 26  1  0  0  0  0
 25 23  1  0  0  0  0
 27 28  1  0  0  0  0
M  END
>  <MODEL>
9

>  <REMARK>
 VINA RESULT:      -7.3      2.767      4.405
  Name = 
  4 active torsions:
  status: ('A' for Active; 'I' for Inactive)
    1  A    between atoms: C_1  and  C_27
    2  A    between atoms: C_2  and  C_3
    3  A    between atoms: N_6  and  C_11
    4  A    between atoms: C_16  and  C_21
                            x       y       z     vdW  Elec       q    Type
                         _______ _______ _______ _____ _____    ______ ____

>  <TORSDO>
F 4

$$$$
