=
 OpenBabel11062409353D

 34 37  0  0  1  0  0  0  0  0999 V2000
  162.7580  206.6390  153.2550 C   0  0  0  0  0  2  0  0  0  0  0  0
  160.4080  207.0330  154.0660 C   0  0  0  0  0  1  0  0  0  0  0  0
  162.4830  205.4200  152.3770 C   0  0  0  0  0  2  0  0  0  0  0  0
  161.7780  205.7750  151.0650 C   0  0  2  0  0  3  0  0  0  0  0  0
  161.5650  207.6040  153.2660 C   0  0  2  0  0  3  0  0  0  0  0  0
  161.7640  207.2980  150.8230 C   0  0  2  0  0  3  0  0  0  0  0  0
  161.0990  208.0200  151.9260 N   0  0  0  0  0  0  0  0  0  0  0  0
  161.4510  209.7190  151.7740 S   0  0  0  0  0  0  0  0  0  0  0  0
  162.9120  209.9620  152.0390 O   0  0  0  0  0  0  0  0  0  0  0  0
  161.1230  210.1930  150.3860 O   0  0  0  0  0  0  0  0  0  0  0  0
  159.1720  211.0080  152.6010 C   0  0  0  0  0  3  0  0  0  0  0  0
  158.9670  212.1230  154.7400 C   0  0  0  0  0  3  0  0  0  0  0  0
  158.4140  211.7490  153.5120 C   0  0  0  0  0  3  0  0  0  0  0  0
  161.0360  211.0130  154.1480 C   0  0  0  0  0  3  0  0  0  0  0  0
  160.4840  210.6360  152.9180 C   0  0  0  0  0  0  0  0  0  0  0  0
  160.2770  211.7560  155.0590 C   0  0  0  0  0  3  0  0  0  0  0  0
  161.1440  207.5920  149.6030 O   0  0  0  0  0  0  0  0  0  0  0  0
  161.9410  206.9750  148.6350 C   0  0  0  0  0  2  0  0  0  0  0  0
  161.0870  206.5170  147.4620 C   0  0  0  0  0  2  0  0  0  0  0  0
  162.4280  205.6610  144.8830 C   0  0  0  0  0  2  0  0  0  0  0  0
  161.1190  201.9450  146.8850 C   0  0  0  0  0  0  0  0  0  0  0  0
  160.6890  202.4260  145.5510 C   0  0  0  0  0  0  0  0  0  0  0  0
  160.9120  203.7240  145.0880 O   0  0  0  0  0  0  0  0  0  0  0  0
  161.2500  200.6060  147.0510 F   0  0  0  0  0  0  0  0  0  0  0  0
  161.7240  204.6600  145.7720 C   0  0  0  0  0  0  0  0  0  0  0  0
  160.1190  201.6110  144.7800 O   0  0  0  0  0  0  0  0  0  0  0  0
  161.1470  204.1710  148.1130 C   0  0  0  0  0  3  0  0  0  0  0  0
  161.3240  205.0740  147.1480 C   0  0  0  0  0  0  0  0  0  0  0  0
  161.2660  202.7070  147.9780 C   0  0  0  0  0  3  0  0  0  0  0  0
  163.2070  204.5110  145.5180 C   0  0  0  0  0  2  0  0  0  0  0  0
  160.3740  205.1760  151.0770 C   0  0  0  0  0  2  0  0  0  0  0  0
  160.2860  203.9780  152.0090 C   0  0  0  0  0  2  0  0  0  0  0  0
  160.2780  202.4320  151.0540 S   0  0  0  0  0  0  0  0  0  0  0  0
  161.9680  202.0240  151.5670 C   0  0  0  0  0  1  0  0  0  0  0  0
  1  5  1  0  0  0  0
  3  1  1  0  0  0  0
  4 31  1  1  0  0  0
  4  3  1  0  0  0  0
  5  2  1  6  0  0  0
  6 17  1  6  0  0  0
  6  4  1  0  0  0  0
  6  7  1  0  0  0  0
  7  5  1  0  0  0  0
  8  7  1  0  0  0  0
  8  9  2  0  0  0  0
  8 15  1  0  0  0  0
 10  8  2  0  0  0  0
 11 15  2  0  0  0  0
 11 13  1  0  0  0  0
 12 16  1  0  0  0  0
 13 12  2  0  0  0  0
 14 16  2  0  0  0  0
 15 14  1  0  0  0  0
 18 17  1  0  0  0  0
 19 18  1  0  0  0  0
 20 30  1  0  0  0  0
 20 25  1  0  0  0  0
 21 24  1  0  0  0  0
 21 29  2  0  0  0  0
 22 21  1  0  0  0  0
 23 22  1  0  0  0  0
 23 25  1  0  0  0  0
 25 28  1  0  0  0  0
 26 22  2  0  0  0  0
 28 19  1  0  0  0  0
 28 27  2  0  0  0  0
 29 27  1  0  0  0  0
 30 25  1  0  0  0  0
 31 32  1  0  0  0  0
 33 34  1  0  0  0  0
 33 32  1  0  0  0  0
M  END
>  <MODEL>
1

>  <REMARK>
 VINA RESULT:      -6.0      0.000      0.000
  Name = 
  9 active torsions:
  status: ('A' for Active; 'I' for Inactive)
    1  A    between atoms: S_1  and  C_20
    2  A    between atoms: S_1  and  N_34
    3  A    between atoms: S_3  and  C_13
    4  A    between atoms: C_6  and  O_18
    5  A    between atoms: C_6  and  C_30
    6  A    between atoms: C_13  and  C_27
    7  A    between atoms: O_18  and  C_33
    8  A    between atoms: C_25  and  C_27
    9  A    between atoms: C_28  and  C_30
                            x       y       z     vdW  Elec       q    Type
                         _______ _______ _______ _____ _____    ______ ____

>  <TORSDO>
F 9

$$$$
=
 OpenBabel11062409353D

 34 37  0  0  1  0  0  0  0  0999 V2000
  162.7870  206.2540  152.8280 C   0  0  0  0  0  2  0  0  0  0  0  0
  160.4350  205.8170  153.6150 C   0  0  0  0  0  1  0  0  0  0  0  0
  162.5680  205.9980  151.3380 C   0  0  0  0  0  2  0  0  0  0  0  0
  161.8130  207.1330  150.6410 C   0  0  2  0  0  3  0  0  0  0  0  0
  161.5360  206.8550  153.4840 C   0  0  2  0  0  3  0  0  0  0  0  0
  161.6980  208.3770  151.5450 C   0  0  2  0  0  3  0  0  0  0  0  0
  161.0150  208.0670  152.8170 N   0  0  0  0  0  0  0  0  0  0  0  0
  161.2560  209.3930  153.9190 S   0  0  0  0  0  0  0  0  0  0  0  0
  161.6020  208.8640  155.2840 O   0  0  0  0  0  0  0  0  0  0  0  0
  162.3790  210.2680  153.4380 O   0  0  0  0  0  0  0  0  0  0  0  0
  159.3810  211.1340  152.9230 C   0  0  0  0  0  3  0  0  0  0  0  0
  157.4830  211.9310  154.1980 C   0  0  0  0  0  3  0  0  0  0  0  0
  158.2250  211.9150  153.0130 C   0  0  0  0  0  3  0  0  0  0  0  0
  159.0520  210.3830  155.2020 C   0  0  0  0  0  3  0  0  0  0  0  0
  159.7960  210.3650  154.0170 C   0  0  0  0  0  0  0  0  0  0  0  0
  157.8960  211.1650  155.2930 C   0  0  0  0  0  3  0  0  0  0  0  0
  161.0330  209.4080  150.8720 O   0  0  0  0  0  0  0  0  0  0  0  0
  161.9850  209.9410  149.9980 C   0  0  0  0  0  2  0  0  0  0  0  0
  162.1310  211.4380  150.2280 C   0  0  0  0  0  2  0  0  0  0  0  0
  159.8720  213.4460  149.9990 C   0  0  0  0  0  2  0  0  0  0  0  0
  161.6580  213.1340  145.9690 C   0  0  0  0  0  0  0  0  0  0  0  0
  160.2580  212.8220  146.3390 C   0  0  0  0  0  0  0  0  0  0  0  0
  159.8210  212.6710  147.6560 O   0  0  0  0  0  0  0  0  0  0  0  0
  161.8720  213.6800  144.7460 F   0  0  0  0  0  0  0  0  0  0  0  0
  160.6290  212.9730  148.7780 C   0  0  0  0  0  0  0  0  0  0  0  0
  159.4080  212.7180  145.4160 O   0  0  0  0  0  0  0  0  0  0  0  0
  162.8260  212.1720  148.0120 C   0  0  0  0  0  3  0  0  0  0  0  0
  161.8960  212.2070  148.9660 C   0  0  0  0  0  0  0  0  0  0  0  0
  162.7440  212.8060  146.6820 C   0  0  0  0  0  3  0  0  0  0  0  0
  160.6660  214.4380  149.1520 C   0  0  0  0  0  2  0  0  0  0  0  0
  160.4500  206.6170  150.1870 C   0  0  0  0  0  2  0  0  0  0  0  0
  160.5090  206.0520  148.7770 C   0  0  0  0  0  2  0  0  0  0  0  0
  161.7750  206.9160  147.8010 S   0  0  0  0  0  0  0  0  0  0  0  0
  161.9580  205.5140  146.6660 C   0  0  0  0  0  1  0  0  0  0  0  0
  1  5  1  0  0  0  0
  3  1  1  0  0  0  0
  4 31  1  1  0  0  0
  4  3  1  0  0  0  0
  4  6  1  0  0  0  0
  5  2  1  6  0  0  0
  6 17  1  6  0  0  0
  6  7  1  0  0  0  0
  7  5  1  0  0  0  0
  7  8  1  0  0  0  0
  8 15  1  0  0  0  0
  8  9  2  0  0  0  0
 10  8  2  0  0  0  0
 11 13  2  0  0  0  0
 11 15  1  0  0  0  0
 12 16  2  0  0  0  0
 13 12  1  0  0  0  0
 14 16  1  0  0  0  0
 15 14  2  0  0  0  0
 18 19  1  0  0  0  0
 18 17  1  0  0  0  0
 21 22  1  0  0  0  0
 21 29  2  0  0  0  0
 22 23  1  0  0  0  0
 23 25  1  0  0  0  0
 24 21  1  0  0  0  0
 25 28  1  0  0  0  0
 25 30  1  0  0  0  0
 25 20  1  0  0  0  0
 26 22  2  0  0  0  0
 27 28  2  0  0  0  0
 28 19  1  0  0  0  0
 29 27  1  0  0  0  0
 30 20  1  0  0  0  0
 32 31  1  0  0  0  0
 33 32  1  0  0  0  0
 34 33  1  0  0  0  0
M  END
>  <MODEL>
2

>  <REMARK>
 VINA RESULT:      -5.7      3.998      6.258
  Name = 
  9 active torsions:
  status: ('A' for Active; 'I' for Inactive)
    1  A    between atoms: S_1  and  C_20
    2  A    between atoms: S_1  and  N_34
    3  A    between atoms: S_3  and  C_13
    4  A    between atoms: C_6  and  O_18
    5  A    between atoms: C_6  and  C_30
    6  A    between atoms: C_13  and  C_27
    7  A    between atoms: O_18  and  C_33
    8  A    between atoms: C_25  and  C_27
    9  A    between atoms: C_28  and  C_30
                            x       y       z     vdW  Elec       q    Type
                         _______ _______ _______ _____ _____    ______ ____

>  <TORSDO>
F 9

$$$$
=
 OpenBabel11062409353D

 34 37  0  0  1  0  0  0  0  0999 V2000
  161.1770  212.0640  156.1610 C   0  0  0  0  0  2  0  0  0  0  0  0
  159.0690  210.8870  156.8760 C   0  0  0  0  0  1  0  0  0  0  0  0
  162.0660  210.8330  155.9920 C   0  0  0  0  0  2  0  0  0  0  0  0
  161.7390  210.0290  154.7310 C   0  0  2  0  0  3  0  0  0  0  0  0
  159.7150  211.7530  155.8090 C   0  0  2  0  0  3  0  0  0  0  0  0
  160.7840  210.8000  153.7970 C   0  0  2  0  0  3  0  0  0  0  0  0
  159.5200  211.1470  154.4750 N   0  0  0  0  0  0  0  0  0  0  0  0
  158.6700  212.3190  153.5080 S   0  0  0  0  0  0  0  0  0  0  0  0
  159.6430  213.3290  152.9600 O   0  0  0  0  0  0  0  0  0  0  0  0
  157.9780  211.6390  152.3600 O   0  0  0  0  0  0  0  0  0  0  0  0
  157.8270  213.8140  155.6500 C   0  0  0  0  0  3  0  0  0  0  0  0
  155.5130  214.4100  156.0390 C   0  0  0  0  0  3  0  0  0  0  0  0
  156.8550  214.4520  156.4270 C   0  0  0  0  0  3  0  0  0  0  0  0
  156.1140  213.0960  154.0960 C   0  0  0  0  0  3  0  0  0  0  0  0
  157.4580  213.1370  154.4820 C   0  0  0  0  0  0  0  0  0  0  0  0
  155.1410  213.7330  154.8730 C   0  0  0  0  0  3  0  0  0  0  0  0
  160.5290  210.0570  152.6390 O   0  0  0  0  0  0  0  0  0  0  0  0
  161.7670  209.9520  151.9970 C   0  0  0  0  0  2  0  0  0  0  0  0
  161.5930  209.3500  150.6110 C   0  0  0  0  0  2  0  0  0  0  0  0
  161.4150  207.6930  148.0800 C   0  0  0  0  0  2  0  0  0  0  0  0
  161.8200  204.8180  151.4110 C   0  0  0  0  0  0  0  0  0  0  0  0
  160.6880  204.9110  150.4610 C   0  0  0  0  0  0  0  0  0  0  0  0
  160.4780  205.9990  149.6120 O   0  0  0  0  0  0  0  0  0  0  0  0
  162.1690  203.5810  151.8440 F   0  0  0  0  0  0  0  0  0  0  0  0
  161.4200  207.0420  149.4450 C   0  0  0  0  0  0  0  0  0  0  0  0
  159.8870  203.9420  150.3920 O   0  0  0  0  0  0  0  0  0  0  0  0
  162.2570  207.2990  151.7450 C   0  0  0  0  0  3  0  0  0  0  0  0
  161.7830  207.8660  150.6360 C   0  0  0  0  0  0  0  0  0  0  0  0
  162.4470  205.8560  151.9810 C   0  0  0  0  0  3  0  0  0  0  0  0
  162.5370  206.7340  148.4740 C   0  0  0  0  0  2  0  0  0  0  0  0
  161.1790  208.6690  155.1390 C   0  0  0  0  0  2  0  0  0  0  0  0
  161.6530  208.2640  156.5260 C   0  0  0  0  0  2  0  0  0  0  0  0
  160.6420  206.8950  157.1650 S   0  0  0  0  0  0  0  0  0  0  0  0
  159.3450  207.1860  155.9320 C   0  0  0  0  0  1  0  0  0  0  0  0
  3  1  1  0  0  0  0
  4 31  1  1  0  0  0
  4  3  1  0  0  0  0
  5  1  1  0  0  0  0
  5  2  1  1  0  0  0
  6 17  1  6  0  0  0
  6  7  1  0  0  0  0
  6  4  1  0  0  0  0
  7  5  1  0  0  0  0
  8  7  1  0  0  0  0
  8 15  1  0  0  0  0
  9  8  2  0  0  0  0
 10  8  2  0  0  0  0
 11 13  1  0  0  0  0
 12 13  2  0  0  0  0
 14 15  1  0  0  0  0
 14 16  2  0  0  0  0
 15 11  2  0  0  0  0
 16 12  1  0  0  0  0
 18 17  1  0  0  0  0
 19 28  1  0  0  0  0
 19 18  1  0  0  0  0
 20 30  1  0  0  0  0
 20 25  1  0  0  0  0
 21 24  1  0  0  0  0
 21 29  2  0  0  0  0
 22 21  1  0  0  0  0
 23 22  1  0  0  0  0
 25 23  1  0  0  0  0
 25 28  1  0  0  0  0
 26 22  2  0  0  0  0
 27 29  1  0  0  0  0
 28 27  2  0  0  0  0
 30 25  1  0  0  0  0
 31 32  1  0  0  0  0
 32 33  1  0  0  0  0
 34 33  1  0  0  0  0
M  END
>  <MODEL>
3

>  <REMARK>
 VINA RESULT:      -5.5      3.240      5.161
  Name = 
  9 active torsions:
  status: ('A' for Active; 'I' for Inactive)
    1  A    between atoms: S_1  and  C_20
    2  A    between atoms: S_1  and  N_34
    3  A    between atoms: S_3  and  C_13
    4  A    between atoms: C_6  and  O_18
    5  A    between atoms: C_6  and  C_30
    6  A    between atoms: C_13  and  C_27
    7  A    between atoms: O_18  and  C_33
    8  A    between atoms: C_25  and  C_27
    9  A    between atoms: C_28  and  C_30
                            x       y       z     vdW  Elec       q    Type
                         _______ _______ _______ _____ _____    ______ ____

>  <TORSDO>
F 9

$$$$
=
 OpenBabel11062409353D

 34 37  0  0  1  0  0  0  0  0999 V2000
  162.2820  206.3220  147.9290 C   0  0  0  0  0  2  0  0  0  0  0  0
  159.8000  206.5640  148.2770 C   0  0  0  0  0  1  0  0  0  0  0  0
  162.6930  207.7470  148.2940 C   0  0  0  0  0  2  0  0  0  0  0  0
  162.6350  208.0190  149.7990 C   0  0  2  0  0  3  0  0  0  0  0  0
  161.0640  205.8630  148.7420 C   0  0  2  0  0  3  0  0  0  0  0  0
  162.4440  206.7170  150.6040 C   0  0  2  0  0  3  0  0  0  0  0  0
  161.2140  206.0050  150.2060 N   0  0  0  0  0  0  0  0  0  0  0  0
  161.2620  204.3950  150.8670 S   0  0  0  0  0  0  0  0  0  0  0  0
  162.5700  204.1750  151.5770 O   0  0  0  0  0  0  0  0  0  0  0  0
  160.1390  204.2040  151.8480 O   0  0  0  0  0  0  0  0  0  0  0  0
  161.5360  203.4970  148.2870 C   0  0  0  0  0  3  0  0  0  0  0  0
  160.7670  201.3280  147.5350 C   0  0  0  0  0  3  0  0  0  0  0  0
  161.3800  202.5560  147.2660 C   0  0  0  0  0  3  0  0  0  0  0  0
  160.4700  201.9830  149.8470 C   0  0  0  0  0  3  0  0  0  0  0  0
  161.0840  203.2120  149.5810 C   0  0  0  0  0  0  0  0  0  0  0  0
  160.3130  201.0410  148.8250 C   0  0  0  0  0  3  0  0  0  0  0  0
  162.4280  206.9910  151.9760 O   0  0  0  0  0  0  0  0  0  0  0  0
  161.1090  207.3620  152.2550 C   0  0  0  0  0  2  0  0  0  0  0  0
  160.8110  207.1760  153.7350 C   0  0  0  0  0  2  0  0  0  0  0  0
  160.3600  207.3340  156.7280 C   0  0  0  0  0  2  0  0  0  0  0  0
  160.2650  211.4960  155.2440 C   0  0  0  0  0  0  0  0  0  0  0  0
  159.1660  210.7820  155.9360 C   0  0  0  0  0  0  0  0  0  0  0  0
  159.1460  209.4000  156.1330 O   0  0  0  0  0  0  0  0  0  0  0  0
  160.3980  212.8220  155.4930 F   0  0  0  0  0  0  0  0  0  0  0  0
  160.2510  208.5620  155.8520 C   0  0  0  0  0  0  0  0  0  0  0  0
  158.2130  211.4620  156.3980 O   0  0  0  0  0  0  0  0  0  0  0  0
  161.1160  209.5920  153.7910 C   0  0  0  0  0  3  0  0  0  0  0  0
  160.7470  208.4910  154.4460 C   0  0  0  0  0  0  0  0  0  0  0  0
  161.0580  210.9760  154.2980 C   0  0  0  0  0  3  0  0  0  0  0  0
  161.3020  208.5180  156.9390 C   0  0  0  0  0  2  0  0  0  0  0  0
  161.5360  209.0410  150.0780 C   0  0  0  0  0  2  0  0  0  0  0  0
  162.1050  210.4410  150.2450 C   0  0  0  0  0  2  0  0  0  0  0  0
  162.1180  211.3120  148.6500 S   0  0  0  0  0  0  0  0  0  0  0  0
  161.0960  212.6620  149.3000 C   0  0  0  0  0  1  0  0  0  0  0  0
  1  3  1  0  0  0  0
  1  5  1  0  0  0  0
  3  4  1  0  0  0  0
  4 31  1  6  0  0  0
  4  6  1  0  0  0  0
  5  2  1  6  0  0  0
  5  7  1  0  0  0  0
  6 17  1  1  0  0  0
  7  6  1  0  0  0  0
  7  8  1  0  0  0  0
  8  9  2  0  0  0  0
  8 10  2  0  0  0  0
 11 15  1  0  0  0  0
 12 16  2  0  0  0  0
 13 12  1  0  0  0  0
 13 11  2  0  0  0  0
 15 14  2  0  0  0  0
 15  8  1  0  0  0  0
 16 14  1  0  0  0  0
 17 18  1  0  0  0  0
 18 19  1  0  0  0  0
 19 28  1  0  0  0  0
 20 30  1  0  0  0  0
 21 24  1  0  0  0  0
 21 22  1  0  0  0  0
 22 23  1  0  0  0  0
 22 26  2  0  0  0  0
 25 23  1  0  0  0  0
 25 20  1  0  0  0  0
 25 30  1  0  0  0  0
 27 29  1  0  0  0  0
 27 28  2  0  0  0  0
 28 25  1  0  0  0  0
 29 21  2  0  0  0  0
 31 32  1  0  0  0  0
 33 34  1  0  0  0  0
 33 32  1  0  0  0  0
M  END
>  <MODEL>
4

>  <REMARK>
 VINA RESULT:      -5.3      3.700      9.192
  Name = 
  9 active torsions:
  status: ('A' for Active; 'I' for Inactive)
    1  A    between atoms: S_1  and  C_20
    2  A    between atoms: S_1  and  N_34
    3  A    between atoms: S_3  and  C_13
    4  A    between atoms: C_6  and  O_18
    5  A    between atoms: C_6  and  C_30
    6  A    between atoms: C_13  and  C_27
    7  A    between atoms: O_18  and  C_33
    8  A    between atoms: C_25  and  C_27
    9  A    between atoms: C_28  and  C_30
                            x       y       z     vdW  Elec       q    Type
                         _______ _______ _______ _____ _____    ______ ____

>  <TORSDO>
F 9

$$$$
=
 OpenBabel11062409353D

 34 37  0  0  1  0  0  0  0  0999 V2000
  162.7660  206.2860  153.1760 C   0  0  0  0  0  2  0  0  0  0  0  0
  160.4170  206.2870  154.0830 C   0  0  0  0  0  1  0  0  0  0  0  0
  162.5590  205.2860  152.0390 C   0  0  0  0  0  2  0  0  0  0  0  0
  161.7900  205.8790  150.8550 C   0  0  2  0  0  3  0  0  0  0  0  0
  161.5030  207.1210  153.4260 C   0  0  2  0  0  3  0  0  0  0  0  0
  161.6510  207.4100  150.9770 C   0  0  2  0  0  3  0  0  0  0  0  0
  160.9670  207.7980  152.2260 N   0  0  0  0  0  0  0  0  0  0  0  0
  161.1820  209.5080  152.4730 S   0  0  0  0  0  0  0  0  0  0  0  0
  162.5040  209.9430  151.9000 O   0  0  0  0  0  0  0  0  0  0  0  0
  160.0820  210.2720  151.7900 O   0  0  0  0  0  0  0  0  0  0  0  0
  162.2860  210.3140  154.8530 C   0  0  0  0  0  3  0  0  0  0  0  0
  161.0490  210.4360  156.9300 C   0  0  0  0  0  3  0  0  0  0  0  0
  162.2430  210.5940  156.2220 C   0  0  0  0  0  3  0  0  0  0  0  0
  159.9390  209.7190  154.9010 C   0  0  0  0  0  3  0  0  0  0  0  0
  161.1340  209.8780  154.1890 C   0  0  0  0  0  0  0  0  0  0  0  0
  159.8960  209.9990  156.2700 C   0  0  0  0  0  3  0  0  0  0  0  0
  160.9750  207.9280  149.8670 O   0  0  0  0  0  0  0  0  0  0  0  0
  161.9810  208.3780  149.0080 C   0  0  0  0  0  2  0  0  0  0  0  0
  162.7690  207.2000  148.4570 C   0  0  0  0  0  2  0  0  0  0  0  0
  163.9500  204.8340  146.9740 C   0  0  0  0  0  2  0  0  0  0  0  0
  160.0370  205.6470  145.0860 C   0  0  0  0  0  0  0  0  0  0  0  0
  161.3610  205.6860  144.4220 C   0  0  0  0  0  0  0  0  0  0  0  0
  162.5730  205.6960  145.1140 O   0  0  0  0  0  0  0  0  0  0  0  0
  158.9860  205.2050  144.3520 F   0  0  0  0  0  0  0  0  0  0  0  0
  162.6670  205.4900  146.5120 C   0  0  0  0  0  0  0  0  0  0  0  0
  161.3960  205.6800  143.1640 O   0  0  0  0  0  0  0  0  0  0  0  0
  160.6800  206.7050  147.3060 C   0  0  0  0  0  3  0  0  0  0  0  0
  161.9860  206.4610  147.4180 C   0  0  0  0  0  0  0  0  0  0  0  0
  159.7620  206.1290  146.3050 C   0  0  0  0  0  3  0  0  0  0  0  0
  162.6450  204.0400  146.9380 C   0  0  0  0  0  2  0  0  0  0  0  0
  160.4370  205.1800  150.7420 C   0  0  0  0  0  2  0  0  0  0  0  0
  160.5500  203.6930  151.0360 C   0  0  0  0  0  2  0  0  0  0  0  0
  160.4890  202.7360  149.4920 S   0  0  0  0  0  0  0  0  0  0  0  0
  160.8770  201.1890  150.3540 C   0  0  0  0  0  1  0  0  0  0  0  0
  1  5  1  0  0  0  0
  3  1  1  0  0  0  0
  4 31  1  1  0  0  0
  4  6  1  0  0  0  0
  4  3  1  0  0  0  0
  5  2  1  6  0  0  0
  6 17  1  6  0  0  0
  6  7  1  0  0  0  0
  7  8  1  0  0  0  0
  7  5  1  0  0  0  0
  8 15  1  0  0  0  0
  9  8  2  0  0  0  0
 10  8  2  0  0  0  0
 11 13  1  0  0  0  0
 13 12  2  0  0  0  0
 14 16  2  0  0  0  0
 15 11  2  0  0  0  0
 15 14  1  0  0  0  0
 16 12  1  0  0  0  0
 18 17  1  0  0  0  0
 19 18  1  0  0  0  0
 21 29  2  0  0  0  0
 22 21  1  0  0  0  0
 22 23  1  0  0  0  0
 23 25  1  0  0  0  0
 24 21  1  0  0  0  0
 25 30  1  0  0  0  0
 25 20  1  0  0  0  0
 25 28  1  0  0  0  0
 26 22  2  0  0  0  0
 27 28  2  0  0  0  0
 28 19  1  0  0  0  0
 29 27  1  0  0  0  0
 30 20  1  0  0  0  0
 31 32  1  0  0  0  0
 33 34  1  0  0  0  0
 33 32  1  0  0  0  0
M  END
>  <MODEL>
5

>  <REMARK>
 VINA RESULT:      -4.7      2.007      2.487
  Name = 
  9 active torsions:
  status: ('A' for Active; 'I' for Inactive)
    1  A    between atoms: S_1  and  C_20
    2  A    between atoms: S_1  and  N_34
    3  A    between atoms: S_3  and  C_13
    4  A    between atoms: C_6  and  O_18
    5  A    between atoms: C_6  and  C_30
    6  A    between atoms: C_13  and  C_27
    7  A    between atoms: O_18  and  C_33
    8  A    between atoms: C_25  and  C_27
    9  A    between atoms: C_28  and  C_30
                            x       y       z     vdW  Elec       q    Type
                         _______ _______ _______ _____ _____    ______ ____

>  <TORSDO>
F 9

$$$$
=
 OpenBabel11062409353D

 34 37  0  0  1  0  0  0  0  0999 V2000
  160.3450  212.6960  156.3640 C   0  0  0  0  0  2  0  0  0  0  0  0
  158.5210  211.2100  157.2610 C   0  0  0  0  0  1  0  0  0  0  0  0
  161.3740  211.6110  156.0500 C   0  0  0  0  0  2  0  0  0  0  0  0
  161.0220  210.7970  154.8020 C   0  0  2  0  0  3  0  0  0  0  0  0
  158.9120  212.1850  156.1640 C   0  0  2  0  0  3  0  0  0  0  0  0
  159.8660  211.4430  154.0100 C   0  0  2  0  0  3  0  0  0  0  0  0
  158.6520  211.5880  154.8370 N   0  0  0  0  0  0  0  0  0  0  0  0
  157.5390  212.6460  154.0160 S   0  0  0  0  0  0  0  0  0  0  0  0
  156.2530  211.9150  153.7370 O   0  0  0  0  0  0  0  0  0  0  0  0
  157.2410  213.8460  154.8700 O   0  0  0  0  0  0  0  0  0  0  0  0
  157.6630  212.8420  151.2810 C   0  0  0  0  0  3  0  0  0  0  0  0
  159.3900  214.0640  150.1020 C   0  0  0  0  0  3  0  0  0  0  0  0
  158.2350  213.2750  150.0810 C   0  0  0  0  0  3  0  0  0  0  0  0
  159.3980  213.9880  152.5230 C   0  0  0  0  0  3  0  0  0  0  0  0
  158.2420  213.1990  152.5040 C   0  0  0  0  0  0  0  0  0  0  0  0
  159.9710  214.4200  151.3230 C   0  0  0  0  0  3  0  0  0  0  0  0
  159.5880  210.6980  152.8590 O   0  0  0  0  0  0  0  0  0  0  0  0
  160.6590  209.8080  152.7370 C   0  0  0  0  0  2  0  0  0  0  0  0
  160.8440  209.4020  151.2830 C   0  0  0  0  0  2  0  0  0  0  0  0
  161.6050  208.1930  148.6100 C   0  0  0  0  0  2  0  0  0  0  0  0
  161.6260  204.8670  151.5210 C   0  0  0  0  0  0  0  0  0  0  0  0
  160.7760  204.9750  150.3120 C   0  0  0  0  0  0  0  0  0  0  0  0
  160.6090  206.1560  149.5870 O   0  0  0  0  0  0  0  0  0  0  0  0
  162.0580  203.6300  151.8700 F   0  0  0  0  0  0  0  0  0  0  0  0
  161.3700  207.3250  149.8270 C   0  0  0  0  0  0  0  0  0  0  0  0
  160.1970  203.9370  149.8980 O   0  0  0  0  0  0  0  0  0  0  0  0
  161.5340  207.2910  152.2820 C   0  0  0  0  0  3  0  0  0  0  0  0
  161.2710  207.9730  151.1670 C   0  0  0  0  0  0  0  0  0  0  0  0
  161.9000  205.8650  152.3720 C   0  0  0  0  0  3  0  0  0  0  0  0
  162.7340  207.3330  149.1740 C   0  0  0  0  0  2  0  0  0  0  0  0
  160.7100  209.3610  155.2160 C   0  0  0  0  0  2  0  0  0  0  0  0
  161.4410  208.9780  156.4930 C   0  0  0  0  0  2  0  0  0  0  0  0
  160.6970  207.4890  157.2240 S   0  0  0  0  0  0  0  0  0  0  0  0
  159.9540  207.0000  155.6450 C   0  0  0  0  0  1  0  0  0  0  0  0
  3  1  1  0  0  0  0
  4 31  1  1  0  0  0
  4  3  1  0  0  0  0
  5  1  1  0  0  0  0
  5  2  1  1  0  0  0
  6 17  1  6  0  0  0
  6  4  1  0  0  0  0
  6  7  1  0  0  0  0
  7  5  1  0  0  0  0
  8  7  1  0  0  0  0
  8 10  2  0  0  0  0
  9  8  2  0  0  0  0
 11 15  1  0  0  0  0
 12 16  2  0  0  0  0
 13 12  1  0  0  0  0
 13 11  2  0  0  0  0
 15 14  2  0  0  0  0
 15  8  1  0  0  0  0
 16 14  1  0  0  0  0
 18 17  1  0  0  0  0
 19 18  1  0  0  0  0
 20 30  1  0  0  0  0
 20 25  1  0  0  0  0
 21 24  1  0  0  0  0
 21 29  2  0  0  0  0
 22 21  1  0  0  0  0
 23 25  1  0  0  0  0
 23 22  1  0  0  0  0
 25 28  1  0  0  0  0
 26 22  2  0  0  0  0
 27 29  1  0  0  0  0
 28 19  1  0  0  0  0
 28 27  2  0  0  0  0
 30 25  1  0  0  0  0
 31 32  1  0  0  0  0
 32 33  1  0  0  0  0
 34 33  1  0  0  0  0
M  END
>  <MODEL>
6

>  <REMARK>
 VINA RESULT:      -4.5      3.455      5.568
  Name = 
  9 active torsions:
  status: ('A' for Active; 'I' for Inactive)
    1  A    between atoms: S_1  and  C_20
    2  A    between atoms: S_1  and  N_34
    3  A    between atoms: S_3  and  C_13
    4  A    between atoms: C_6  and  O_18
    5  A    between atoms: C_6  and  C_30
    6  A    between atoms: C_13  and  C_27
    7  A    between atoms: O_18  and  C_33
    8  A    between atoms: C_25  and  C_27
    9  A    between atoms: C_28  and  C_30
                            x       y       z     vdW  Elec       q    Type
                         _______ _______ _______ _____ _____    ______ ____

>  <TORSDO>
F 9

$$$$
=
 OpenBabel11062409353D

 34 37  0  0  1  0  0  0  0  0999 V2000
  159.8380  204.9700  150.0900 C   0  0  0  0  0  2  0  0  0  0  0  0
  162.0980  203.8890  149.8460 C   0  0  0  0  0  1  0  0  0  0  0  0
  159.8620  205.1850  151.6030 C   0  0  0  0  0  2  0  0  0  0  0  0
  160.7810  206.3330  152.0270 C   0  0  2  0  0  3  0  0  0  0  0  0
  161.2420  205.0890  149.4830 C   0  0  2  0  0  3  0  0  0  0  0  0
  161.2440  207.1680  150.8170 C   0  0  2  0  0  3  0  0  0  0  0  0
  161.9530  206.3400  149.8210 N   0  0  0  0  0  0  0  0  0  0  0  0
  162.1040  207.2500  148.3440 S   0  0  0  0  0  0  0  0  0  0  0  0
  161.1130  208.3830  148.3400 O   0  0  0  0  0  0  0  0  0  0  0  0
  163.4910  207.8180  148.2260 O   0  0  0  0  0  0  0  0  0  0  0  0
  162.7490  205.2340  146.5960 C   0  0  0  0  0  3  0  0  0  0  0  0
  161.3410  204.5680  144.7420 C   0  0  0  0  0  3  0  0  0  0  0  0
  162.5140  204.4150  145.4880 C   0  0  0  0  0  3  0  0  0  0  0  0
  160.6380  206.3570  146.2140 C   0  0  0  0  0  3  0  0  0  0  0  0
  161.8110  206.2050  146.9630 C   0  0  0  0  0  0  0  0  0  0  0  0
  160.4030  205.5380  145.1050 C   0  0  0  0  0  3  0  0  0  0  0  0
  162.0540  208.2290  151.2370 O   0  0  0  0  0  0  0  0  0  0  0  0
  161.1670  209.2730  151.5160 C   0  0  0  0  0  2  0  0  0  0  0  0
  161.5980  210.0060  152.7780 C   0  0  0  0  0  2  0  0  0  0  0  0
  161.3420  210.5030  155.7560 C   0  0  0  0  0  2  0  0  0  0  0  0
  157.7130  212.2150  153.9030 C   0  0  0  0  0  0  0  0  0  0  0  0
  157.7600  211.1310  154.9110 C   0  0  0  0  0  0  0  0  0  0  0  0
  158.9250  210.4430  155.2550 O   0  0  0  0  0  0  0  0  0  0  0  0
  156.6720  213.0810  153.9680 F   0  0  0  0  0  0  0  0  0  0  0  0
  160.2110  210.8290  154.8060 C   0  0  0  0  0  0  0  0  0  0  0  0
  156.6950  210.8330  155.5150 O   0  0  0  0  0  0  0  0  0  0  0  0
  159.7190  211.5300  152.4990 C   0  0  0  0  0  3  0  0  0  0  0  0
  160.4790  210.8270  153.3380 C   0  0  0  0  0  0  0  0  0  0  0  0
  158.5370  212.3400  152.8540 C   0  0  0  0  0  3  0  0  0  0  0  0
  160.8500  211.9410  155.6050 C   0  0  0  0  0  2  0  0  0  0  0  0
  161.9540  205.7630  152.8220 C   0  0  0  0  0  2  0  0  0  0  0  0
  161.9540  206.2660  154.2560 C   0  0  0  0  0  2  0  0  0  0  0  0
  160.3750  207.0810  154.6400 S   0  0  0  0  0  0  0  0  0  0  0  0
  160.6760  206.9780  156.4250 C   0  0  0  0  0  1  0  0  0  0  0  0
  1  3  1  0  0  0  0
  3  4  1  0  0  0  0
  4 31  1  6  0  0  0
  5  7  1  0  0  0  0
  5  2  1  1  0  0  0
  5  1  1  0  0  0  0
  6 17  1  1  0  0  0
  6  4  1  0  0  0  0
  7  6  1  0  0  0  0
  8  7  1  0  0  0  0
  9  8  2  0  0  0  0
 10  8  2  0  0  0  0
 11 15  1  0  0  0  0
 12 16  2  0  0  0  0
 12 13  1  0  0  0  0
 13 11  2  0  0  0  0
 14 15  2  0  0  0  0
 15  8  1  0  0  0  0
 16 14  1  0  0  0  0
 17 18  1  0  0  0  0
 18 19  1  0  0  0  0
 19 28  1  0  0  0  0
 21 24  1  0  0  0  0
 21 22  1  0  0  0  0
 22 23  1  0  0  0  0
 22 26  2  0  0  0  0
 25 23  1  0  0  0  0
 25 30  1  0  0  0  0
 25 20  1  0  0  0  0
 27 29  1  0  0  0  0
 27 28  2  0  0  0  0
 28 25  1  0  0  0  0
 29 21  2  0  0  0  0
 30 20  1  0  0  0  0
 31 32  1  0  0  0  0
 32 33  1  0  0  0  0
 33 34  1  0  0  0  0
M  END
>  <MODEL>
7

>  <REMARK>
 VINA RESULT:      -4.3      3.616      8.731
  Name = 
  9 active torsions:
  status: ('A' for Active; 'I' for Inactive)
    1  A    between atoms: S_1  and  C_20
    2  A    between atoms: S_1  and  N_34
    3  A    between atoms: S_3  and  C_13
    4  A    between atoms: C_6  and  O_18
    5  A    between atoms: C_6  and  C_30
    6  A    between atoms: C_13  and  C_27
    7  A    between atoms: O_18  and  C_33
    8  A    between atoms: C_25  and  C_27
    9  A    between atoms: C_28  and  C_30
                            x       y       z     vdW  Elec       q    Type
                         _______ _______ _______ _____ _____    ______ ____

>  <TORSDO>
F 9

$$$$
=
 OpenBabel11062409353D

 34 37  0  0  1  0  0  0  0  0999 V2000
  160.3760  207.2100  151.7460 C   0  0  0  0  0  2  0  0  0  0  0  0
  162.7070  206.3060  152.0390 C   0  0  0  0  0  1  0  0  0  0  0  0
  160.6260  208.6270  152.2600 C   0  0  0  0  0  2  0  0  0  0  0  0
  161.4020  209.4940  151.2650 C   0  0  2  0  0  3  0  0  0  0  0  0
  161.6140  206.6420  151.0400 C   0  0  2  0  0  3  0  0  0  0  0  0
  161.5020  208.8200  149.8810 C   0  0  2  0  0  3  0  0  0  0  0  0
  162.1550  207.4990  149.9640 N   0  0  0  0  0  0  0  0  0  0  0  0
  161.8950  206.6520  148.4650 S   0  0  0  0  0  0  0  0  0  0  0  0
  160.8230  207.3460  147.6680 O   0  0  0  0  0  0  0  0  0  0  0  0
  163.1620  206.6280  147.6580 O   0  0  0  0  0  0  0  0  0  0  0  0
  160.8490  204.6480  150.0220 C   0  0  0  0  0  3  0  0  0  0  0  0
  160.6660  202.3450  149.2970 C   0  0  0  0  0  3  0  0  0  0  0  0
  160.4760  203.3250  150.2770 C   0  0  0  0  0  3  0  0  0  0  0  0
  161.5990  204.0120  147.8100 C   0  0  0  0  0  3  0  0  0  0  0  0
  161.4090  204.9950  148.7880 C   0  0  0  0  0  0  0  0  0  0  0  0
  161.2270  202.6890  148.0640 C   0  0  0  0  0  3  0  0  0  0  0  0
  162.1860  209.6480  148.9840 O   0  0  0  0  0  0  0  0  0  0  0  0
  161.2650  210.6400  148.6340 C   0  0  0  0  0  2  0  0  0  0  0  0
  161.9490  211.9980  148.5810 C   0  0  0  0  0  2  0  0  0  0  0  0
  159.2650  213.2540  147.9460 C   0  0  0  0  0  2  0  0  0  0  0  0
  161.6670  213.5400  144.2480 C   0  0  0  0  0  0  0  0  0  0  0  0
  160.3810  212.8250  144.4090 C   0  0  0  0  0  0  0  0  0  0  0  0
  159.8080  212.5330  145.6480 O   0  0  0  0  0  0  0  0  0  0  0  0
  161.8990  214.1440  143.0550 F   0  0  0  0  0  0  0  0  0  0  0  0
  160.3070  213.0430  146.8700 C   0  0  0  0  0  0  0  0  0  0  0  0
  159.7520  212.4880  143.3710 O   0  0  0  0  0  0  0  0  0  0  0  0
  162.7340  212.9360  146.4740 C   0  0  0  0  0  3  0  0  0  0  0  0
  161.6980  212.6820  147.2740 C   0  0  0  0  0  0  0  0  0  0  0  0
  162.6770  213.5370  145.1280 C   0  0  0  0  0  3  0  0  0  0  0  0
  159.8550  214.4480  147.1980 C   0  0  0  0  0  2  0  0  0  0  0  0
  162.7720  209.8210  151.8520 C   0  0  0  0  0  2  0  0  0  0  0  0
  162.6970  210.0440  153.3540 C   0  0  0  0  0  2  0  0  0  0  0  0
  161.2090  210.9980  153.7780 S   0  0  0  0  0  0  0  0  0  0  0  0
  161.4980  210.7910  155.5560 C   0  0  0  0  0  1  0  0  0  0  0  0
  1  3  1  0  0  0  0
  4 31  1  1  0  0  0
  4  3  1  0  0  0  0
  5  1  1  0  0  0  0
  5  2  1  1  0  0  0
  6 17  1  6  0  0  0
  6  7  1  0  0  0  0
  6  4  1  0  0  0  0
  7  5  1  0  0  0  0
  8 15  1  0  0  0  0
  8  7  1  0  0  0  0
  9  8  2  0  0  0  0
 10  8  2  0  0  0  0
 11 13  1  0  0  0  0
 12 13  2  0  0  0  0
 14 16  2  0  0  0  0
 14 15  1  0  0  0  0
 15 11  2  0  0  0  0
 16 12  1  0  0  0  0
 18 17  1  0  0  0  0
 19 18  1  0  0  0  0
 21 22  1  0  0  0  0
 21 29  2  0  0  0  0
 22 23  1  0  0  0  0
 23 25  1  0  0  0  0
 24 21  1  0  0  0  0
 25 30  1  0  0  0  0
 25 28  1  0  0  0  0
 25 20  1  0  0  0  0
 26 22  2  0  0  0  0
 27 28  2  0  0  0  0
 28 19  1  0  0  0  0
 29 27  1  0  0  0  0
 30 20  1  0  0  0  0
 31 32  1  0  0  0  0
 32 33  1  0  0  0  0
 33 34  1  0  0  0  0
M  END
>  <MODEL>
8

>  <REMARK>
 VINA RESULT:      -4.0      4.712      7.953
  Name = 
  9 active torsions:
  status: ('A' for Active; 'I' for Inactive)
    1  A    between atoms: S_1  and  C_20
    2  A    between atoms: S_1  and  N_34
    3  A    between atoms: S_3  and  C_13
    4  A    between atoms: C_6  and  O_18
    5  A    between atoms: C_6  and  C_30
    6  A    between atoms: C_13  and  C_27
    7  A    between atoms: O_18  and  C_33
    8  A    between atoms: C_25  and  C_27
    9  A    between atoms: C_28  and  C_30
                            x       y       z     vdW  Elec       q    Type
                         _______ _______ _______ _____ _____    ______ ____

>  <TORSDO>
F 9

$$$$
=
 OpenBabel11062409353D

 34 37  0  0  1  0  0  0  0  0999 V2000
  160.8720  205.2590  152.4730 C   0  0  0  0  0  2  0  0  0  0  0  0
  163.3810  205.4530  152.3860 C   0  0  0  0  0  1  0  0  0  0  0  0
  160.6300  206.1270  153.7070 C   0  0  0  0  0  2  0  0  0  0  0  0
  160.7970  207.6230  153.4260 C   0  0  2  0  0  3  0  0  0  0  0  0
  162.0790  205.7560  151.6650 C   0  0  2  0  0  3  0  0  0  0  0  0
  160.8970  207.9100  151.9140 C   0  0  2  0  0  3  0  0  0  0  0  0
  162.0240  207.1860  151.2950 N   0  0  0  0  0  0  0  0  0  0  0  0
  161.8470  207.2530  149.5640 S   0  0  0  0  0  0  0  0  0  0  0  0
  160.6660  208.1140  149.2060 O   0  0  0  0  0  0  0  0  0  0  0  0
  163.0830  207.8390  148.9400 O   0  0  0  0  0  0  0  0  0  0  0  0
  162.1210  205.2910  147.6640 C   0  0  0  0  0  3  0  0  0  0  0  0
  161.2050  203.0620  147.8990 C   0  0  0  0  0  3  0  0  0  0  0  0
  161.9190  204.0050  147.1530 C   0  0  0  0  0  3  0  0  0  0  0  0
  160.8970  204.6890  149.6650 C   0  0  0  0  0  3  0  0  0  0  0  0
  161.6120  205.6350  148.9210 C   0  0  0  0  0  0  0  0  0  0  0  0
  160.6940  203.4040  149.1540 C   0  0  0  0  0  3  0  0  0  0  0  0
  161.0150  209.2860  151.6860 O   0  0  0  0  0  0  0  0  0  0  0  0
  159.9620  209.8620  152.4020 C   0  0  0  0  0  2  0  0  0  0  0  0
  160.3770  211.2210  152.9470 C   0  0  0  0  0  2  0  0  0  0  0  0
  160.4460  211.9780  155.8810 C   0  0  0  0  0  2  0  0  0  0  0  0
  156.3730  212.9330  154.4550 C   0  0  0  0  0  0  0  0  0  0  0  0
  156.7290  211.9770  155.5290 C   0  0  0  0  0  0  0  0  0  0  0  0
  158.0250  211.5090  155.7500 O   0  0  0  0  0  0  0  0  0  0  0  0
  155.2240  213.6380  154.6040 F   0  0  0  0  0  0  0  0  0  0  0  0
  159.1600  212.0330  155.0860 C   0  0  0  0  0  0  0  0  0  0  0  0
  155.8170  211.5890  156.3060 O   0  0  0  0  0  0  0  0  0  0  0  0
  158.2560  212.4130  152.8290 C   0  0  0  0  0  3  0  0  0  0  0  0
  159.2260  211.9200  153.5990 C   0  0  0  0  0  0  0  0  0  0  0  0
  157.0180  213.0700  153.2880 C   0  0  0  0  0  3  0  0  0  0  0  0
  159.7130  213.3040  155.6890 C   0  0  0  0  0  2  0  0  0  0  0  0
  162.0080  208.1410  154.1970 C   0  0  0  0  0  2  0  0  0  0  0  0
  161.6150  208.6610  155.5710 C   0  0  0  0  0  2  0  0  0  0  0  0
  159.8530  208.3450  155.8860 S   0  0  0  0  0  0  0  0  0  0  0  0
  160.2290  207.2000  157.2410 C   0  0  0  0  0  1  0  0  0  0  0  0
  1  3  1  0  0  0  0
  4  3  1  0  0  0  0
  4 31  1  1  0  0  0
  5  2  1  1  0  0  0
  5  1  1  0  0  0  0
  6 17  1  1  0  0  0
  6  4  1  0  0  0  0
  7  5  1  0  0  0  0
  7  6  1  0  0  0  0
  8  7  1  0  0  0  0
  9  8  2  0  0  0  0
 10  8  2  0  0  0  0
 11 15  1  0  0  0  0
 12 16  2  0  0  0  0
 13 11  2  0  0  0  0
 13 12  1  0  0  0  0
 15  8  1  0  0  0  0
 15 14  2  0  0  0  0
 16 14  1  0  0  0  0
 17 18  1  0  0  0  0
 18 19  1  0  0  0  0
 19 28  1  0  0  0  0
 21 24  1  0  0  0  0
 21 22  1  0  0  0  0
 22 23  1  0  0  0  0
 22 26  2  0  0  0  0
 25 30  1  0  0  0  0
 25 23  1  0  0  0  0
 25 20  1  0  0  0  0
 27 29  1  0  0  0  0
 27 28  2  0  0  0  0
 28 25  1  0  0  0  0
 29 21  2  0  0  0  0
 30 20  1  0  0  0  0
 31 32  1  0  0  0  0
 32 33  1  0  0  0  0
 33 34  1  0  0  0  0
M  END
>  <MODEL>
9

>  <REMARK>
 VINA RESULT:      -4.0      3.707      9.113
  Name = 
  9 active torsions:
  status: ('A' for Active; 'I' for Inactive)
    1  A    between atoms: S_1  and  C_20
    2  A    between atoms: S_1  and  N_34
    3  A    between atoms: S_3  and  C_13
    4  A    between atoms: C_6  and  O_18
    5  A    between atoms: C_6  and  C_30
    6  A    between atoms: C_13  and  C_27
    7  A    between atoms: O_18  and  C_33
    8  A    between atoms: C_25  and  C_27
    9  A    between atoms: C_28  and  C_30
                            x       y       z     vdW  Elec       q    Type
                         _______ _______ _______ _____ _____    ______ ____

>  <TORSDO>
F 9

$$$$
