=
 OpenBabel11062408333D

 32 35  0  0  1  0  0  0  0  0999 V2000
  162.4420  207.7560  150.6810 O   0  0  0  0  0  0  0  0  0  0  0  0
  162.4190  209.1720  150.6670 C   0  0  2  0  0  3  0  0  0  0  0  0
  161.1770  207.2680  151.0700 C   0  0  2  0  0  3  0  0  0  0  0  0
  160.8620  207.6550  152.5140 C   0  0  0  0  0  2  0  0  0  0  0  0
  162.0150  209.8150  152.0060 C   0  0  0  0  0  2  0  0  0  0  0  0
  160.7560  209.1720  152.5750 C   0  0  2  0  0  3  0  0  0  0  0  0
  161.1150  205.7890  150.8850 C   0  0  0  0  0  0  0  0  0  0  0  0
  161.0000  204.9600  152.0060 C   0  0  0  0  0  3  0  0  0  0  0  0
  161.0270  201.8400  148.0930 C   0  0  0  0  0  3  0  0  0  0  0  0
  161.1510  205.2140  149.6090 C   0  0  0  0  0  3  0  0  0  0  0  0
  160.8790  201.6380  150.5060 C   0  0  0  0  0  3  0  0  0  0  0  0
  160.9600  203.0270  150.6280 C   0  0  0  0  0  0  0  0  0  0  0  0
  160.9250  203.6090  151.8570 N   0  0  0  0  0  0  0  0  0  0  0  0
  161.0740  203.8280  149.4720 C   0  0  0  0  0  0  0  0  0  0  0  0
  160.9100  201.0460  149.2380 C   0  0  0  0  0  3  0  0  0  0  0  0
  161.1110  203.2320  148.2090 C   0  0  0  0  0  3  0  0  0  0  0  0
  161.8440  209.7890  149.3810 C   0  0  2  0  0  3  0  0  0  0  0  0
  161.9580  208.9060  148.3060 O   0  0  0  0  0  1  0  0  0  0  0  0
  162.3390  211.1940  149.0190 C   0  0  0  0  0  2  0  0  0  0  0  0
  161.2300  212.2330  148.8860 C   0  0  2  0  0  3  0  0  0  0  0  0
  161.7280  213.3940  148.0400 C   0  0  1  0  0  3  0  0  0  0  0  0
  162.6950  212.8910  146.9880 C   0  0  0  0  0  2  0  0  0  0  0  0
  161.2650  213.2070  146.6090 C   0  0  2  0  0  3  0  0  0  0  0  0
  161.2200  214.4510  145.9810 O   0  0  0  0  0  1  0  0  0  0  0  0
  160.8560  212.7040  150.1480 O   0  0  0  0  0  0  0  0  0  0  0  0
  159.8350  213.6280  149.9000 C   0  0  0  0  0  2  0  0  0  0  0  0
  159.1880  212.5510  152.0470 C   0  0  0  0  0  1  0  0  0  0  0  0
  158.7340  213.4730  150.9330 C   0  0  0  0  0  2  0  0  0  0  0  0
  160.5550  209.6130  153.9440 N   0  0  0  0  0  2  0  0  0  0  0  0
  161.6490  210.5150  154.2670 C   0  0  0  0  0  2  0  0  0  0  0  0
  162.2520  209.4150  156.2980 O   0  0  0  0  0  1  0  0  0  0  0  0
  161.8010  210.6270  155.7720 C   0  0  0  0  0  2  0  0  0  0  0  0
  1  3  1  0  0  0  0
  2 17  1  6  0  0  0
  2  1  1  0  0  0  0
  2  5  1  0  0  0  0
  3  7  1  1  0  0  0
  3  4  1  0  0  0  0
  4  6  1  0  0  0  0
  5  6  1  0  0  0  0
  6 29  1  1  0  0  0
  7  8  1  0  0  0  0
  9 16  2  0  0  0  0
  9 15  1  0  0  0  0
 10  7  2  0  0  0  0
 11 12  1  0  0  0  0
 12 13  1  0  0  0  0
 13  8  2  0  0  0  0
 14 10  1  0  0  0  0
 14 12  2  0  0  0  0
 15 11  2  0  0  0  0
 16 14  1  0  0  0  0
 17 18  1  6  0  0  0
 19 17  1  0  0  0  0
 20 19  1  1  0  0  0
 20 25  1  0  0  0  0
 21 20  1  1  0  0  0
 22 21  1  0  0  0  0
 23 24  1  6  0  0  0
 23 22  1  0  0  0  0
 23 21  1  0  0  0  0
 26 25  1  0  0  0  0
 26 28  1  0  0  0  0
 28 27  1  0  0  0  0
 29 30  1  0  0  0  0
 30 32  1  0  0  0  0
 32 31  1  0  0  0  0
M  END
>  <MODEL>
1

>  <REMARK>
 VINA RESULT:      -7.8      0.000      0.000
  Name = 
  11 active torsions:
  status: ('A' for Active; 'I' for Inactive)
    1  A    between atoms: C_2  and  C_5
    2  A    between atoms: C_3  and  C_20
    3  A    between atoms: C_4  and  C_24
    4  A    between atoms: C_13  and  N_18
    5  A    between atoms: C_13  and  C_29
    6  A    between atoms: O_15  and  C_20
    7  A    between atoms: O_15  and  C_26
    8  A    between atoms: C_16  and  C_20
    9  A    between atoms: C_16  and  C_24
   10  A    between atoms: N_18  and  C_30
   11  A    between atoms: C_19  and  C_26
                            x       y       z     vdW  Elec       q    Type
                         _______ _______ _______ _____ _____    ______ ____

>  <TORSDO>
F 11

$$$$
=
 OpenBabel11062408333D

 32 35  0  0  1  0  0  0  0  0999 V2000
  162.4270  208.0870  150.7110 O   0  0  0  0  0  0  0  0  0  0  0  0
  162.3730  209.5020  150.6720 C   0  0  2  0  0  3  0  0  0  0  0  0
  161.1650  207.5770  151.0820 C   0  0  2  0  0  3  0  0  0  0  0  0
  160.8130  207.9810  152.5130 C   0  0  0  0  0  2  0  0  0  0  0  0
  161.9280  210.1570  151.9920 C   0  0  0  0  0  2  0  0  0  0  0  0
  160.6720  209.4960  152.5460 C   0  0  2  0  0  3  0  0  0  0  0  0
  161.1400  206.0940  150.9210 C   0  0  0  0  0  0  0  0  0  0  0  0
  161.1230  205.2790  152.0580 C   0  0  0  0  0  3  0  0  0  0  0  0
  161.0030  202.1020  148.1940 C   0  0  0  0  0  3  0  0  0  0  0  0
  161.1130  205.5010  149.6540 C   0  0  0  0  0  3  0  0  0  0  0  0
  161.0140  201.9320  150.6130 C   0  0  0  0  0  3  0  0  0  0  0  0
  161.0580  203.3250  150.7120 C   0  0  0  0  0  0  0  0  0  0  0  0
  161.0820  203.9250  151.9330 N   0  0  0  0  0  0  0  0  0  0  0  0
  161.0730  204.1120  149.5400 C   0  0  0  0  0  0  0  0  0  0  0  0
  160.9840  201.3220  149.3550 C   0  0  0  0  0  3  0  0  0  0  0  0
  161.0490  203.4970  148.2860 C   0  0  0  0  0  3  0  0  0  0  0  0
  161.8110  210.0840  149.3640 C   0  0  2  0  0  3  0  0  0  0  0  0
  161.8250  209.1320  148.3440 O   0  0  0  0  0  1  0  0  0  0  0  0
  162.4050  211.4200  148.9040 C   0  0  0  0  0  2  0  0  0  0  0  0
  161.3640  212.4630  148.5070 C   0  0  2  0  0  3  0  0  0  0  0  0
  160.4780  212.7690  149.7050 C   0  0  1  0  0  3  0  0  0  0  0  0
  160.5430  214.2450  150.0350 C   0  0  0  0  0  2  0  0  0  0  0  0
  159.3560  213.6930  149.2770 C   0  0  2  0  0  3  0  0  0  0  0  0
  158.2820  213.5380  150.1520 O   0  0  0  0  0  1  0  0  0  0  0  0
  160.5760  211.9840  147.4560 O   0  0  0  0  0  0  0  0  0  0  0  0
  161.0540  212.6430  146.3190 C   0  0  0  0  0  2  0  0  0  0  0  0
  158.6540  212.5830  145.6690 C   0  0  0  0  0  1  0  0  0  0  0  0
  160.0800  212.4650  145.1680 C   0  0  0  0  0  2  0  0  0  0  0  0
  160.4330  209.9550  153.9030 N   0  0  0  0  0  2  0  0  0  0  0  0
  161.6210  210.6810  154.3230 C   0  0  0  0  0  2  0  0  0  0  0  0
  163.2410  210.7120  156.0770 O   0  0  0  0  0  1  0  0  0  0  0  0
  161.9140  210.3930  155.7830 C   0  0  0  0  0  2  0  0  0  0  0  0
  1  3  1  0  0  0  0
  2 17  1  6  0  0  0
  2  1  1  0  0  0  0
  2  5  1  0  0  0  0
  3  7  1  1  0  0  0
  3  4  1  0  0  0  0
  4  6  1  0  0  0  0
  5  6  1  0  0  0  0
  6 29  1  1  0  0  0
  7  8  1  0  0  0  0
  9 16  2  0  0  0  0
  9 15  1  0  0  0  0
 10  7  2  0  0  0  0
 11 12  1  0  0  0  0
 12 13  1  0  0  0  0
 13  8  2  0  0  0  0
 14 10  1  0  0  0  0
 14 12  2  0  0  0  0
 15 11  2  0  0  0  0
 16 14  1  0  0  0  0
 17 18  1  6  0  0  0
 19 17  1  0  0  0  0
 20 19  1  1  0  0  0
 21 20  1  6  0  0  0
 21 22  1  0  0  0  0
 23 21  1  0  0  0  0
 23 22  1  0  0  0  0
 23 24  1  1  0  0  0
 25 20  1  0  0  0  0
 26 25  1  0  0  0  0
 28 27  1  0  0  0  0
 28 26  1  0  0  0  0
 29 30  1  0  0  0  0
 30 32  1  0  0  0  0
 32 31  1  0  0  0  0
M  END
>  <MODEL>
2

>  <REMARK>
 VINA RESULT:      -7.4      1.074      2.261
  Name = 
  11 active torsions:
  status: ('A' for Active; 'I' for Inactive)
    1  A    between atoms: C_2  and  C_5
    2  A    between atoms: C_3  and  C_20
    3  A    between atoms: C_4  and  C_24
    4  A    between atoms: C_13  and  N_18
    5  A    between atoms: C_13  and  C_29
    6  A    between atoms: O_15  and  C_20
    7  A    between atoms: O_15  and  C_26
    8  A    between atoms: C_16  and  C_20
    9  A    between atoms: C_16  and  C_24
   10  A    between atoms: N_18  and  C_30
   11  A    between atoms: C_19  and  C_26
                            x       y       z     vdW  Elec       q    Type
                         _______ _______ _______ _____ _____    ______ ____

>  <TORSDO>
F 11

$$$$
=
 OpenBabel11062408333D

 32 35  0  0  1  0  0  0  0  0999 V2000
  162.4400  208.2840  149.9300 O   0  0  0  0  0  0  0  0  0  0  0  0
  162.3840  209.6570  150.2780 C   0  0  2  0  0  3  0  0  0  0  0  0
  161.2080  207.6700  150.2380 C   0  0  2  0  0  3  0  0  0  0  0  0
  160.9590  207.6680  151.7450 C   0  0  0  0  0  2  0  0  0  0  0  0
  162.0350  209.9260  151.7520 C   0  0  0  0  0  2  0  0  0  0  0  0
  160.8220  209.1160  152.1940 C   0  0  2  0  0  3  0  0  0  0  0  0
  161.1700  206.2840  149.6870 C   0  0  0  0  0  0  0  0  0  0  0  0
  161.3080  206.0880  148.3080 C   0  0  0  0  0  3  0  0  0  0  0  0
  160.8490  201.4880  150.2230 C   0  0  0  0  0  3  0  0  0  0  0  0
  161.0200  205.1720  150.5240 C   0  0  0  0  0  3  0  0  0  0  0  0
  161.1390  202.4570  148.0180 C   0  0  0  0  0  3  0  0  0  0  0  0
  161.1470  203.7360  148.5800 C   0  0  0  0  0  0  0  0  0  0  0  0
  161.2930  204.8310  147.7870 N   0  0  0  0  0  0  0  0  0  0  0  0
  161.0070  203.8900  149.9760 C   0  0  0  0  0  0  0  0  0  0  0  0
  160.9920  201.3340  148.8400 C   0  0  0  0  0  3  0  0  0  0  0  0
  160.8550  202.7660  150.7920 C   0  0  0  0  0  3  0  0  0  0  0  0
  161.7290  210.5580  149.2170 C   0  0  2  0  0  3  0  0  0  0  0  0
  161.4950  209.8530  148.0350 O   0  0  0  0  0  1  0  0  0  0  0  0
  162.4120  211.9040  148.9510 C   0  0  0  0  0  2  0  0  0  0  0  0
  161.4700  212.9970  148.4540 C   0  0  2  0  0  3  0  0  0  0  0  0
  160.1810  212.9510  149.2590 C   0  0  1  0  0  3  0  0  0  0  0  0
  160.3020  213.8320  150.4850 C   0  0  0  0  0  2  0  0  0  0  0  0
  159.5470  214.3270  149.2710 C   0  0  2  0  0  3  0  0  0  0  0  0
  158.1780  214.1950  149.4950 O   0  0  0  0  0  1  0  0  0  0  0  0
  161.1810  212.8060  147.1000 O   0  0  0  0  0  0  0  0  0  0  0  0
  162.3530  213.1680  146.4270 C   0  0  0  0  0  2  0  0  0  0  0  0
  163.3210  213.3060  144.1400 C   0  0  0  0  0  1  0  0  0  0  0  0
  162.0520  213.4210  144.9610 C   0  0  0  0  0  2  0  0  0  0  0  0
  160.6820  209.1900  153.6380 N   0  0  0  0  0  2  0  0  0  0  0  0
  160.9730  207.8650  154.1640 C   0  0  0  0  0  2  0  0  0  0  0  0
  159.7690  207.2820  156.1410 O   0  0  0  0  0  1  0  0  0  0  0  0
  160.9370  207.8900  155.6800 C   0  0  0  0  0  2  0  0  0  0  0  0
  1  3  1  0  0  0  0
  1  2  1  0  0  0  0
  2 17  1  6  0  0  0
  2  5  1  0  0  0  0
  3  7  1  1  0  0  0
  3  4  1  0  0  0  0
  4  6  1  0  0  0  0
  5  6  1  0  0  0  0
  6 29  1  1  0  0  0
  7 10  1  0  0  0  0
  8  7  2  0  0  0  0
  9 16  2  0  0  0  0
 11 12  1  0  0  0  0
 11 15  2  0  0  0  0
 12 14  1  0  0  0  0
 13  8  1  0  0  0  0
 13 12  2  0  0  0  0
 14 10  2  0  0  0  0
 14 16  1  0  0  0  0
 15  9  1  0  0  0  0
 17 18  1  6  0  0  0
 19 17  1  0  0  0  0
 20 19  1  1  0  0  0
 21 20  1  6  0  0  0
 21 23  1  0  0  0  0
 21 22  1  0  0  0  0
 23 24  1  1  0  0  0
 23 22  1  0  0  0  0
 25 20  1  0  0  0  0
 26 25  1  0  0  0  0
 27 28  1  0  0  0  0
 28 26  1  0  0  0  0
 29 30  1  0  0  0  0
 30 32  1  0  0  0  0
 32 31  1  0  0  0  0
M  END
>  <MODEL>
3

>  <REMARK>
 VINA RESULT:      -7.3      1.586      3.078
  Name = 
  11 active torsions:
  status: ('A' for Active; 'I' for Inactive)
    1  A    between atoms: C_2  and  C_5
    2  A    between atoms: C_3  and  C_20
    3  A    between atoms: C_4  and  C_24
    4  A    between atoms: C_13  and  N_18
    5  A    between atoms: C_13  and  C_29
    6  A    between atoms: O_15  and  C_20
    7  A    between atoms: O_15  and  C_26
    8  A    between atoms: C_16  and  C_20
    9  A    between atoms: C_16  and  C_24
   10  A    between atoms: N_18  and  C_30
   11  A    between atoms: C_19  and  C_26
                            x       y       z     vdW  Elec       q    Type
                         _______ _______ _______ _____ _____    ______ ____

>  <TORSDO>
F 11

$$$$
=
 OpenBabel11062408333D

 32 35  0  0  1  0  0  0  0  0999 V2000
  162.0140  207.5950  152.3020 O   0  0  0  0  0  0  0  0  0  0  0  0
  162.1880  206.8450  151.1130 C   0  0  2  0  0  3  0  0  0  0  0  0
  161.0640  208.6150  152.0810 C   0  0  2  0  0  3  0  0  0  0  0  0
  161.5820  209.6320  151.0650 C   0  0  0  0  0  2  0  0  0  0  0  0
  162.6120  207.6790  149.8910 C   0  0  0  0  0  2  0  0  0  0  0  0
  161.7370  208.9170  149.7310 C   0  0  2  0  0  3  0  0  0  0  0  0
  160.7090  209.2770  153.3700 C   0  0  0  0  0  0  0  0  0  0  0  0
  160.9980  208.6320  154.5770 C   0  0  0  0  0  3  0  0  0  0  0  0
  158.9140  212.9820  155.9080 C   0  0  0  0  0  3  0  0  0  0  0  0
  160.1100  210.5420  153.3960 C   0  0  0  0  0  3  0  0  0  0  0  0
  159.8180  211.0410  157.0480 C   0  0  0  0  0  3  0  0  0  0  0  0
  160.1130  210.4540  155.8150 C   0  0  0  0  0  0  0  0  0  0  0  0
  160.6970  209.2260  155.7640 N   0  0  0  0  0  0  0  0  0  0  0  0
  159.8060  211.1390  154.6190 C   0  0  0  0  0  0  0  0  0  0  0  0
  159.2210  212.3060  157.0930 C   0  0  0  0  0  3  0  0  0  0  0  0
  159.2050  212.3990  154.6700 C   0  0  0  0  0  3  0  0  0  0  0  0
  161.1350  205.7450  150.8920 C   0  0  2  0  0  3  0  0  0  0  0  0
  161.5700  204.5220  151.4050 O   0  0  0  0  0  1  0  0  0  0  0  0
  160.5880  205.6030  149.4670 C   0  0  0  0  0  2  0  0  0  0  0  0
  161.2580  204.5030  148.6470 C   0  0  2  0  0  3  0  0  0  0  0  0
  161.1850  204.8630  147.1710 C   0  0  1  0  0  3  0  0  0  0  0  0
  160.9800  206.3550  147.0110 C   0  0  0  0  0  2  0  0  0  0  0  0
  162.3560  205.7570  146.8150 C   0  0  2  0  0  3  0  0  0  0  0  0
  162.6170  205.6400  145.4510 O   0  0  0  0  0  1  0  0  0  0  0  0
  160.6120  203.2820  148.8600 O   0  0  0  0  0  0  0  0  0  0  0  0
  161.1770  202.4080  147.9260 C   0  0  0  0  0  2  0  0  0  0  0  0
  161.0190  201.0420  149.9990 C   0  0  0  0  0  1  0  0  0  0  0  0
  161.2400  201.0040  148.4990 C   0  0  0  0  0  2  0  0  0  0  0  0
  162.3200  209.8060  148.7420 N   0  0  0  0  0  2  0  0  0  0  0  0
  161.9660  211.1630  149.1260 C   0  0  0  0  0  2  0  0  0  0  0  0
  161.9320  212.6410  147.2510 O   0  0  0  0  0  1  0  0  0  0  0  0
  162.7390  212.1590  148.2820 C   0  0  0  0  0  2  0  0  0  0  0  0
  2 17  1  6  0  0  0
  2  1  1  0  0  0  0
  3  1  1  0  0  0  0
  3  7  1  1  0  0  0
  4  3  1  0  0  0  0
  5  2  1  0  0  0  0
  6 29  1  6  0  0  0
  6  5  1  0  0  0  0
  6  4  1  0  0  0  0
  7 10  2  0  0  0  0
  7  8  1  0  0  0  0
  8 13  2  0  0  0  0
  9 15  1  0  0  0  0
 10 14  1  0  0  0  0
 11 15  2  0  0  0  0
 12 11  1  0  0  0  0
 13 12  1  0  0  0  0
 14 16  1  0  0  0  0
 14 12  2  0  0  0  0
 16  9  2  0  0  0  0
 17 18  1  6  0  0  0
 19 17  1  0  0  0  0
 20 25  1  0  0  0  0
 20 19  1  1  0  0  0
 21 20  1  1  0  0  0
 22 21  1  0  0  0  0
 23 24  1  6  0  0  0
 23 22  1  0  0  0  0
 23 21  1  0  0  0  0
 26 28  1  0  0  0  0
 26 25  1  0  0  0  0
 28 27  1  0  0  0  0
 29 30  1  0  0  0  0
 31 32  1  0  0  0  0
 32 30  1  0  0  0  0
M  END
>  <MODEL>
4

>  <REMARK>
 VINA RESULT:      -7.3      2.404      8.120
  Name = 
  11 active torsions:
  status: ('A' for Active; 'I' for Inactive)
    1  A    between atoms: C_2  and  C_5
    2  A    between atoms: C_3  and  C_20
    3  A    between atoms: C_4  and  C_24
    4  A    between atoms: C_13  and  N_18
    5  A    between atoms: C_13  and  C_29
    6  A    between atoms: O_15  and  C_20
    7  A    between atoms: O_15  and  C_26
    8  A    between atoms: C_16  and  C_20
    9  A    between atoms: C_16  and  C_24
   10  A    between atoms: N_18  and  C_30
   11  A    between atoms: C_19  and  C_26
                            x       y       z     vdW  Elec       q    Type
                         _______ _______ _______ _____ _____    ______ ____

>  <TORSDO>
F 11

$$$$
=
 OpenBabel11062408333D

 32 35  0  0  1  0  0  0  0  0999 V2000
  162.3270  206.9550  150.5390 O   0  0  0  0  0  0  0  0  0  0  0  0
  162.3670  206.8500  149.1270 C   0  0  2  0  0  3  0  0  0  0  0  0
  161.3810  207.9340  150.9120 C   0  0  2  0  0  3  0  0  0  0  0  0
  161.8160  209.3210  150.4430 C   0  0  0  0  0  2  0  0  0  0  0  0
  162.6850  208.1690  148.4000 C   0  0  0  0  0  2  0  0  0  0  0  0
  161.8240  209.3140  148.9210 C   0  0  2  0  0  3  0  0  0  0  0  0
  161.1690  207.9090  152.3890 C   0  0  0  0  0  0  0  0  0  0  0  0
  161.2430  206.6920  153.0750 C   0  0  0  0  0  3  0  0  0  0  0  0
  160.3140  210.1070  156.6120 C   0  0  0  0  0  3  0  0  0  0  0  0
  160.9160  209.0840  153.1070 C   0  0  0  0  0  3  0  0  0  0  0  0
  160.6490  207.7060  156.5270 C   0  0  0  0  0  3  0  0  0  0  0  0
  160.8200  207.7780  155.1420 C   0  0  0  0  0  0  0  0  0  0  0  0
  161.0690  206.6500  154.4230 N   0  0  0  0  0  0  0  0  0  0  0  0
  160.7390  209.0270  154.4890 C   0  0  0  0  0  0  0  0  0  0  0  0
  160.3980  208.8700  157.2610 C   0  0  0  0  0  3  0  0  0  0  0  0
  160.4830  210.1850  155.2250 C   0  0  0  0  0  3  0  0  0  0  0  0
  161.2750  205.9510  148.5220 C   0  0  2  0  0  3  0  0  0  0  0  0
  160.0180  206.5470  148.6270 O   0  0  0  0  0  1  0  0  0  0  0  0
  161.2550  204.4930  148.9960 C   0  0  0  0  0  2  0  0  0  0  0  0
  161.3090  203.4680  147.8670 C   0  0  2  0  0  3  0  0  0  0  0  0
  161.5750  202.0900  148.4530 C   0  0  1  0  0  3  0  0  0  0  0  0
  160.2750  201.4580  148.9020 C   0  0  0  0  0  2  0  0  0  0  0  0
  160.9040  201.0400  147.5910 C   0  0  2  0  0  3  0  0  0  0  0  0
  161.5620  199.8230  147.7630 O   0  0  0  0  0  1  0  0  0  0  0  0
  162.3260  203.7950  146.9660 O   0  0  0  0  0  0  0  0  0  0  0  0
  161.7060  203.8130  145.7130 C   0  0  0  0  0  2  0  0  0  0  0  0
  160.4570  205.8320  144.9700 C   0  0  0  0  0  1  0  0  0  0  0  0
  161.8260  205.1940  145.0940 C   0  0  0  0  0  2  0  0  0  0  0  0
  162.3250  210.5780  148.4090 N   0  0  0  0  0  2  0  0  0  0  0  0
  161.9190  211.6100  149.3490 C   0  0  0  0  0  2  0  0  0  0  0  0
  160.6370  213.6240  149.3430 O   0  0  0  0  0  1  0  0  0  0  0  0
  161.5540  212.8780  148.6010 C   0  0  0  0  0  2  0  0  0  0  0  0
  1  3  1  0  0  0  0
  2 17  1  6  0  0  0
  2  1  1  0  0  0  0
  3  7  1  1  0  0  0
  4  3  1  0  0  0  0
  5  6  1  0  0  0  0
  5  2  1  0  0  0  0
  6 29  1  1  0  0  0
  6  4  1  0  0  0  0
  7  8  2  0  0  0  0
  7 10  1  0  0  0  0
  8 13  1  0  0  0  0
  9 15  1  0  0  0  0
 10 14  2  0  0  0  0
 11 15  2  0  0  0  0
 12 11  1  0  0  0  0
 13 12  2  0  0  0  0
 14 12  1  0  0  0  0
 14 16  1  0  0  0  0
 16  9  2  0  0  0  0
 17 18  1  1  0  0  0
 17 19  1  0  0  0  0
 20 19  1  1  0  0  0
 21 20  1  6  0  0  0
 21 22  1  0  0  0  0
 23 24  1  1  0  0  0
 23 21  1  0  0  0  0
 23 22  1  0  0  0  0
 25 20  1  0  0  0  0
 26 25  1  0  0  0  0
 27 28  1  0  0  0  0
 28 26  1  0  0  0  0
 29 30  1  0  0  0  0
 32 31  1  0  0  0  0
 32 30  1  0  0  0  0
M  END
>  <MODEL>
5

>  <REMARK>
 VINA RESULT:      -7.2      2.770      7.950
  Name = 
  11 active torsions:
  status: ('A' for Active; 'I' for Inactive)
    1  A    between atoms: C_2  and  C_5
    2  A    between atoms: C_3  and  C_20
    3  A    between atoms: C_4  and  C_24
    4  A    between atoms: C_13  and  N_18
    5  A    between atoms: C_13  and  C_29
    6  A    between atoms: O_15  and  C_20
    7  A    between atoms: O_15  and  C_26
    8  A    between atoms: C_16  and  C_20
    9  A    between atoms: C_16  and  C_24
   10  A    between atoms: N_18  and  C_30
   11  A    between atoms: C_19  and  C_26
                            x       y       z     vdW  Elec       q    Type
                         _______ _______ _______ _____ _____    ______ ____

>  <TORSDO>
F 11

$$$$
=
 OpenBabel11062408333D

 32 35  0  0  1  0  0  0  0  0999 V2000
  160.4330  207.4830  151.5450 O   0  0  0  0  0  0  0  0  0  0  0  0
  160.6500  208.5530  152.4480 C   0  0  2  0  0  3  0  0  0  0  0  0
  161.6140  207.2370  150.8140 C   0  0  2  0  0  3  0  0  0  0  0  0
  161.9590  208.4230  149.9170 C   0  0  0  0  0  2  0  0  0  0  0  0
  161.1210  209.8600  151.7840 C   0  0  0  0  0  2  0  0  0  0  0  0
  162.2720  209.6100  150.8170 C   0  0  2  0  0  3  0  0  0  0  0  0
  161.4740  205.9830  150.0160 C   0  0  0  0  0  0  0  0  0  0  0  0
  161.6170  206.0340  148.6250 C   0  0  0  0  0  3  0  0  0  0  0  0
  160.7600  201.2130  149.6580 C   0  0  0  0  0  3  0  0  0  0  0  0
  161.2220  204.7530  150.6340 C   0  0  0  0  0  3  0  0  0  0  0  0
  161.1610  202.5440  147.6700 C   0  0  0  0  0  3  0  0  0  0  0  0
  161.2630  203.6920  148.4590 C   0  0  0  0  0  0  0  0  0  0  0  0
  161.5100  204.8990  147.8810 N   0  0  0  0  0  0  0  0  0  0  0  0
  161.1140  203.5980  149.8590 C   0  0  0  0  0  0  0  0  0  0  0  0
  160.9120  201.3050  148.2700 C   0  0  0  0  0  3  0  0  0  0  0  0
  160.8590  202.3600  150.4530 C   0  0  0  0  0  3  0  0  0  0  0  0
  161.3220  208.1460  153.7710 C   0  0  2  0  0  3  0  0  0  0  0  0
  161.4470  206.7590  153.8640 O   0  0  0  0  0  1  0  0  0  0  0  0
  160.7310  208.7520  155.0490 C   0  0  0  0  0  2  0  0  0  0  0  0
  160.8910  210.2660  155.1540 C   0  0  2  0  0  3  0  0  0  0  0  0
  161.5630  210.6090  156.4750 C   0  0  1  0  0  3  0  0  0  0  0  0
  162.4250  209.4520  156.9330 C   0  0  0  0  0  2  0  0  0  0  0  0
  163.0640  210.6550  156.2770 C   0  0  2  0  0  3  0  0  0  0  0  0
  163.6260  211.4710  157.2580 O   0  0  0  0  0  1  0  0  0  0  0  0
  159.6410  210.8890  155.0920 O   0  0  0  0  0  0  0  0  0  0  0  0
  159.9230  212.2580  155.0370 C   0  0  0  0  0  2  0  0  0  0  0  0
  158.1480  212.0030  153.3130 C   0  0  0  0  0  1  0  0  0  0  0  0
  159.2980  212.8660  153.7950 C   0  0  0  0  0  2  0  0  0  0  0  0
  162.5140  210.8020  150.0230 N   0  0  0  0  0  2  0  0  0  0  0  0
  161.9530  210.5570  148.7040 C   0  0  0  0  0  2  0  0  0  0  0  0
  161.7930  212.9380  148.6670 O   0  0  0  0  0  1  0  0  0  0  0  0
  162.0270  211.8190  147.8670 C   0  0  0  0  0  2  0  0  0  0  0  0
  1  2  1  0  0  0  0
  2 17  1  1  0  0  0
  3  7  1  6  0  0  0
  3  1  1  0  0  0  0
  4  3  1  0  0  0  0
  4  6  1  0  0  0  0
  5  2  1  0  0  0  0
  6 29  1  6  0  0  0
  6  5  1  0  0  0  0
  7 10  1  0  0  0  0
  8  7  2  0  0  0  0
  9 16  2  0  0  0  0
 11 15  2  0  0  0  0
 11 12  1  0  0  0  0
 12 14  1  0  0  0  0
 13 12  2  0  0  0  0
 13  8  1  0  0  0  0
 14 16  1  0  0  0  0
 14 10  2  0  0  0  0
 15  9  1  0  0  0  0
 17 18  1  1  0  0  0
 17 19  1  0  0  0  0
 20 19  1  1  0  0  0
 21 20  1  6  0  0  0
 21 22  1  0  0  0  0
 23 21  1  0  0  0  0
 23 22  1  0  0  0  0
 23 24  1  1  0  0  0
 25 20  1  0  0  0  0
 26 25  1  0  0  0  0
 27 28  1  0  0  0  0
 28 26  1  0  0  0  0
 30 29  1  0  0  0  0
 32 31  1  0  0  0  0
 32 30  1  0  0  0  0
M  END
>  <MODEL>
6

>  <REMARK>
 VINA RESULT:      -7.2      1.973      5.364
  Name = 
  11 active torsions:
  status: ('A' for Active; 'I' for Inactive)
    1  A    between atoms: C_2  and  C_5
    2  A    between atoms: C_3  and  C_20
    3  A    between atoms: C_4  and  C_24
    4  A    between atoms: C_13  and  N_18
    5  A    between atoms: C_13  and  C_29
    6  A    between atoms: O_15  and  C_20
    7  A    between atoms: O_15  and  C_26
    8  A    between atoms: C_16  and  C_20
    9  A    between atoms: C_16  and  C_24
   10  A    between atoms: N_18  and  C_30
   11  A    between atoms: C_19  and  C_26
                            x       y       z     vdW  Elec       q    Type
                         _______ _______ _______ _____ _____    ______ ____

>  <TORSDO>
F 11

$$$$
=
 OpenBabel11062408333D

 32 35  0  0  1  0  0  0  0  0999 V2000
  160.5360  208.0420  151.2750 O   0  0  0  0  0  0  0  0  0  0  0  0
  160.7890  209.2060  152.0420 C   0  0  2  0  0  3  0  0  0  0  0  0
  161.6770  207.7260  150.5080 C   0  0  2  0  0  3  0  0  0  0  0  0
  161.9560  208.8110  149.4700 C   0  0  0  0  0  2  0  0  0  0  0  0
  161.2030  210.4360  151.2150 C   0  0  0  0  0  2  0  0  0  0  0  0
  162.3020  210.0900  150.2170 C   0  0  2  0  0  3  0  0  0  0  0  0
  161.5110  206.3930  149.8600 C   0  0  0  0  0  0  0  0  0  0  0  0
  161.6220  206.2840  148.4700 C   0  0  0  0  0  3  0  0  0  0  0  0
  160.7540  201.6190  150.0580 C   0  0  0  0  0  3  0  0  0  0  0  0
  161.2640  205.2420  150.6180 C   0  0  0  0  0  3  0  0  0  0  0  0
  161.1190  202.7130  147.9250 C   0  0  0  0  0  3  0  0  0  0  0  0
  161.2480  203.9430  148.5760 C   0  0  0  0  0  0  0  0  0  0  0  0
  161.4900  205.0750  147.8610 N   0  0  0  0  0  0  0  0  0  0  0  0
  161.1300  204.0090  149.9810 C   0  0  0  0  0  0  0  0  0  0  0  0
  160.8750  201.5530  148.6660 C   0  0  0  0  0  3  0  0  0  0  0  0
  160.8800  202.8470  150.7160 C   0  0  0  0  0  3  0  0  0  0  0  0
  161.5390  208.9500  153.3610 C   0  0  2  0  0  3  0  0  0  0  0  0
  161.4180  207.6170  153.7570 O   0  0  0  0  0  1  0  0  0  0  0  0
  161.2390  209.9160  154.5130 C   0  0  0  0  0  2  0  0  0  0  0  0
  159.7630  210.0030  154.8880 C   0  0  2  0  0  3  0  0  0  0  0  0
  159.4030  211.4520  155.1770 C   0  0  1  0  0  3  0  0  0  0  0  0
  159.6860  212.3090  153.9610 C   0  0  0  0  0  2  0  0  0  0  0  0
  158.2690  211.8790  154.2680 C   0  0  2  0  0  3  0  0  0  0  0  0
  157.5840  212.9370  154.8620 O   0  0  0  0  0  1  0  0  0  0  0  0
  159.5060  209.2250  156.0200 O   0  0  0  0  0  0  0  0  0  0  0  0
  160.6350  209.3840  156.8310 C   0  0  0  0  0  2  0  0  0  0  0  0
  160.0930  206.9690  157.0750 C   0  0  0  0  0  1  0  0  0  0  0  0
  161.1640  208.0270  157.2560 C   0  0  0  0  0  2  0  0  0  0  0  0
  162.4820  211.1910  149.2850 N   0  0  0  0  0  2  0  0  0  0  0  0
  161.4700  211.0450  148.2520 C   0  0  0  0  0  2  0  0  0  0  0  0
  161.6260  213.4150  148.4910 O   0  0  0  0  0  1  0  0  0  0  0  0
  161.1210  212.4030  147.6730 C   0  0  0  0  0  2  0  0  0  0  0  0
  1  2  1  0  0  0  0
  2 17  1  1  0  0  0
  3  7  1  6  0  0  0
  3  1  1  0  0  0  0
  4  6  1  0  0  0  0
  4  3  1  0  0  0  0
  5  2  1  0  0  0  0
  6 29  1  6  0  0  0
  6  5  1  0  0  0  0
  7 10  1  0  0  0  0
  8  7  2  0  0  0  0
  9 16  2  0  0  0  0
 11 12  1  0  0  0  0
 11 15  2  0  0  0  0
 12 14  1  0  0  0  0
 13  8  1  0  0  0  0
 13 12  2  0  0  0  0
 14 10  2  0  0  0  0
 14 16  1  0  0  0  0
 15  9  1  0  0  0  0
 17 18  1  1  0  0  0
 17 19  1  0  0  0  0
 20 19  1  1  0  0  0
 20 25  1  0  0  0  0
 21 20  1  6  0  0  0
 22 23  1  0  0  0  0
 22 21  1  0  0  0  0
 23 24  1  1  0  0  0
 23 21  1  0  0  0  0
 25 26  1  0  0  0  0
 26 28  1  0  0  0  0
 27 28  1  0  0  0  0
 30 29  1  0  0  0  0
 32 30  1  0  0  0  0
 32 31  1  0  0  0  0
M  END
>  <MODEL>
7

>  <REMARK>
 VINA RESULT:      -7.2      2.331      5.469
  Name = 
  11 active torsions:
  status: ('A' for Active; 'I' for Inactive)
    1  A    between atoms: C_2  and  C_5
    2  A    between atoms: C_3  and  C_20
    3  A    between atoms: C_4  and  C_24
    4  A    between atoms: C_13  and  N_18
    5  A    between atoms: C_13  and  C_29
    6  A    between atoms: O_15  and  C_20
    7  A    between atoms: O_15  and  C_26
    8  A    between atoms: C_16  and  C_20
    9  A    between atoms: C_16  and  C_24
   10  A    between atoms: N_18  and  C_30
   11  A    between atoms: C_19  and  C_26
                            x       y       z     vdW  Elec       q    Type
                         _______ _______ _______ _____ _____    ______ ____

>  <TORSDO>
F 11

$$$$
=
 OpenBabel11062408333D

 32 35  0  0  1  0  0  0  0  0999 V2000
  161.9850  208.9080  151.3240 O   0  0  0  0  0  0  0  0  0  0  0  0
  161.7130  209.8200  152.3730 C   0  0  2  0  0  3  0  0  0  0  0  0
  160.9910  207.9070  151.2990 C   0  0  2  0  0  3  0  0  0  0  0  0
  161.0430  207.0540  152.5650 C   0  0  0  0  0  2  0  0  0  0  0  0
  161.6070  209.1730  153.7660 C   0  0  0  0  0  2  0  0  0  0  0  0
  160.6970  207.9510  153.7440 C   0  0  2  0  0  3  0  0  0  0  0  0
  161.1370  207.0650  150.0770 C   0  0  0  0  0  0  0  0  0  0  0  0
  161.4190  207.6750  148.8500 C   0  0  0  0  0  3  0  0  0  0  0  0
  161.2260  202.7780  147.8370 C   0  0  0  0  0  3  0  0  0  0  0  0
  161.0170  205.6710  150.1360 C   0  0  0  0  0  3  0  0  0  0  0  0
  161.6240  204.8200  146.5900 C   0  0  0  0  0  3  0  0  0  0  0  0
  161.4580  205.5670  147.7590 C   0  0  0  0  0  0  0  0  0  0  0  0
  161.5730  206.9220  147.7270 N   0  0  0  0  0  0  0  0  0  0  0  0
  161.1760  204.9120  148.9770 C   0  0  0  0  0  0  0  0  0  0  0  0
  161.5100  203.4260  146.6310 C   0  0  0  0  0  3  0  0  0  0  0  0
  161.0570  203.5210  149.0110 C   0  0  0  0  0  3  0  0  0  0  0  0
  160.6930  210.9150  152.0180 C   0  0  2  0  0  3  0  0  0  0  0  0
  161.0700  211.5960  150.8590 O   0  0  0  0  0  1  0  0  0  0  0  0
  160.3110  211.8800  153.1460 C   0  0  0  0  0  2  0  0  0  0  0  0
  158.8520  212.3270  153.1190 C   0  0  2  0  0  3  0  0  0  0  0  0
  158.0190  211.3730  153.9600 C   0  0  1  0  0  3  0  0  0  0  0  0
  158.6230  211.2380  155.3420 C   0  0  0  0  0  2  0  0  0  0  0  0
  157.4180  212.1280  155.1290 C   0  0  2  0  0  3  0  0  0  0  0  0
  156.2710  211.4610  155.5580 O   0  0  0  0  0  1  0  0  0  0  0  0
  158.3720  212.3300  151.8060 O   0  0  0  0  0  0  0  0  0  0  0  0
  158.1820  213.6810  151.4950 C   0  0  0  0  0  2  0  0  0  0  0  0
  157.1750  213.4790  149.2290 C   0  0  0  0  0  1  0  0  0  0  0  0
  156.9160  213.8510  150.6760 C   0  0  0  0  0  2  0  0  0  0  0  0
  160.8250  207.2210  154.9940 N   0  0  0  0  0  2  0  0  0  0  0  0
  159.8040  207.7320  155.8940 C   0  0  0  0  0  2  0  0  0  0  0  0
  161.7520  208.3530  157.1260 O   0  0  0  0  0  1  0  0  0  0  0  0
  160.4070  208.0080  157.2580 C   0  0  0  0  0  2  0  0  0  0  0  0
  1  2  1  0  0  0  0
  2 17  1  6  0  0  0
  2  5  1  0  0  0  0
  3  7  1  6  0  0  0
  3  1  1  0  0  0  0
  3  4  1  0  0  0  0
  4  6  1  0  0  0  0
  6  5  1  0  0  0  0
  6 29  1  1  0  0  0
  7 10  1  0  0  0  0
  8  7  2  0  0  0  0
  9 16  2  0  0  0  0
 11 15  2  0  0  0  0
 11 12  1  0  0  0  0
 12 14  1  0  0  0  0
 13 12  2  0  0  0  0
 13  8  1  0  0  0  0
 14 16  1  0  0  0  0
 14 10  2  0  0  0  0
 15  9  1  0  0  0  0
 17 18  1  6  0  0  0
 17 19  1  0  0  0  0
 20 19  1  6  0  0  0
 21 20  1  6  0  0  0
 21 23  1  0  0  0  0
 21 22  1  0  0  0  0
 23 22  1  0  0  0  0
 23 24  1  1  0  0  0
 25 20  1  0  0  0  0
 26 25  1  0  0  0  0
 27 28  1  0  0  0  0
 28 26  1  0  0  0  0
 29 30  1  0  0  0  0
 30 32  1  0  0  0  0
 31 32  1  0  0  0  0
M  END
>  <MODEL>
8

>  <REMARK>
 VINA RESULT:      -7.1      2.655      4.360
  Name = 
  11 active torsions:
  status: ('A' for Active; 'I' for Inactive)
    1  A    between atoms: C_2  and  C_5
    2  A    between atoms: C_3  and  C_20
    3  A    between atoms: C_4  and  C_24
    4  A    between atoms: C_13  and  N_18
    5  A    between atoms: C_13  and  C_29
    6  A    between atoms: O_15  and  C_20
    7  A    between atoms: O_15  and  C_26
    8  A    between atoms: C_16  and  C_20
    9  A    between atoms: C_16  and  C_24
   10  A    between atoms: N_18  and  C_30
   11  A    between atoms: C_19  and  C_26
                            x       y       z     vdW  Elec       q    Type
                         _______ _______ _______ _____ _____    ______ ____

>  <TORSDO>
F 11

$$$$
=
 OpenBabel11062408333D

 32 35  0  0  1  0  0  0  0  0999 V2000
  162.2090  207.9100  151.2060 O   0  0  0  0  0  0  0  0  0  0  0  0
  162.0720  209.0400  152.0500 C   0  0  2  0  0  3  0  0  0  0  0  0
  161.0910  207.0650  151.3660 C   0  0  2  0  0  3  0  0  0  0  0  0
  161.0460  206.4800  152.7770 C   0  0  0  0  0  2  0  0  0  0  0  0
  161.8970  208.7030  153.5420 C   0  0  0  0  0  2  0  0  0  0  0  0
  160.8340  207.6300  153.7490 C   0  0  2  0  0  3  0  0  0  0  0  0
  161.1110  205.9840  150.3370 C   0  0  0  0  0  0  0  0  0  0  0  0
  161.4410  206.2990  149.0150 C   0  0  0  0  0  3  0  0  0  0  0  0
  160.6400  201.3590  149.0000 C   0  0  0  0  0  3  0  0  0  0  0  0
  160.8250  204.6550  150.6730 C   0  0  0  0  0  3  0  0  0  0  0  0
  161.2570  203.0480  147.3720 C   0  0  0  0  0  3  0  0  0  0  0  0
  161.2050  204.0280  148.3670 C   0  0  0  0  0  0  0  0  0  0  0  0
  161.4810  205.3250  148.0650 N   0  0  0  0  0  0  0  0  0  0  0  0
  160.8690  203.6680  149.6900 C   0  0  0  0  0  0  0  0  0  0  0  0
  160.9760  201.7150  147.6900 C   0  0  0  0  0  3  0  0  0  0  0  0
  160.5840  202.3360  150.0010 C   0  0  0  0  0  3  0  0  0  0  0  0
  161.2010  210.1680  151.4700 C   0  0  2  0  0  3  0  0  0  0  0  0
  161.7720  210.6980  150.3120 O   0  0  0  0  0  1  0  0  0  0  0  0
  160.7710  211.2670  152.4480 C   0  0  0  0  0  2  0  0  0  0  0  0
  159.2590  211.4050  152.6080 C   0  0  2  0  0  3  0  0  0  0  0  0
  158.8580  212.8500  152.3550 C   0  0  1  0  0  3  0  0  0  0  0  0
  159.6700  213.4210  151.2110 C   0  0  0  0  0  2  0  0  0  0  0  0
  158.2460  212.9670  150.9740 C   0  0  2  0  0  3  0  0  0  0  0  0
  157.4070  214.0800  150.9430 O   0  0  0  0  0  1  0  0  0  0  0  0
  158.8750  211.0340  153.8990 O   0  0  0  0  0  0  0  0  0  0  0  0
  157.7110  211.7680  154.1540 C   0  0  0  0  0  2  0  0  0  0  0  0
  158.6790  211.4140  156.4180 C   0  0  0  0  0  1  0  0  0  0  0  0
  157.6930  212.2260  155.6010 C   0  0  0  0  0  2  0  0  0  0  0  0
  160.8800  207.1530  155.1200 N   0  0  0  0  0  2  0  0  0  0  0  0
  160.2530  208.1710  155.9480 C   0  0  0  0  0  2  0  0  0  0  0  0
  162.2510  208.8840  157.0420 O   0  0  0  0  0  1  0  0  0  0  0  0
  161.0010  208.3050  157.2610 C   0  0  0  0  0  2  0  0  0  0  0  0
  1  3  1  0  0  0  0
  1  2  1  0  0  0  0
  2 17  1  6  0  0  0
  2  5  1  0  0  0  0
  3  7  1  6  0  0  0
  3  4  1  0  0  0  0
  4  6  1  0  0  0  0
  5  6  1  0  0  0  0
  6 29  1  1  0  0  0
  7 10  1  0  0  0  0
  8  7  2  0  0  0  0
  9 16  2  0  0  0  0
 11 15  2  0  0  0  0
 11 12  1  0  0  0  0
 12 14  1  0  0  0  0
 13 12  2  0  0  0  0
 13  8  1  0  0  0  0
 14 16  1  0  0  0  0
 14 10  2  0  0  0  0
 15  9  1  0  0  0  0
 17 18  1  6  0  0  0
 17 19  1  0  0  0  0
 20 19  1  1  0  0  0
 20 25  1  0  0  0  0
 21 20  1  6  0  0  0
 22 21  1  0  0  0  0
 23 24  1  1  0  0  0
 23 22  1  0  0  0  0
 23 21  1  0  0  0  0
 25 26  1  0  0  0  0
 26 28  1  0  0  0  0
 28 27  1  0  0  0  0
 29 30  1  0  0  0  0
 30 32  1  0  0  0  0
 31 32  1  0  0  0  0
M  END
>  <MODEL>
9

>  <REMARK>
 VINA RESULT:      -7.1      2.417      3.326
  Name = 
  11 active torsions:
  status: ('A' for Active; 'I' for Inactive)
    1  A    between atoms: C_2  and  C_5
    2  A    between atoms: C_3  and  C_20
    3  A    between atoms: C_4  and  C_24
    4  A    between atoms: C_13  and  N_18
    5  A    between atoms: C_13  and  C_29
    6  A    between atoms: O_15  and  C_20
    7  A    between atoms: O_15  and  C_26
    8  A    between atoms: C_16  and  C_20
    9  A    between atoms: C_16  and  C_24
   10  A    between atoms: N_18  and  C_30
   11  A    between atoms: C_19  and  C_26
                            x       y       z     vdW  Elec       q    Type
                         _______ _______ _______ _____ _____    ______ ____

>  <TORSDO>
F 11

$$$$
