=
 OpenBabel11062408463D

 55 59  0  0  1  0  0  0  0  0999 V2000
  161.5230  204.5890  147.2440 C   0  0  0  0  0  3  0  0  0  0  0  0
  161.2670  205.2520  144.5280 C   0  0  0  0  0  0  0  0  0  0  0  0
  161.0210  206.2050  145.5210 C   0  0  0  0  0  3  0  0  0  0  0  0
  161.7660  203.6260  146.2600 C   0  0  0  0  0  3  0  0  0  0  0  0
  161.1640  205.8890  146.8790 C   0  0  0  0  0  0  0  0  0  0  0  0
  161.6490  203.9620  144.9060 C   0  0  0  0  0  3  0  0  0  0  0  0
  161.1290  205.5640  143.1720 O   0  0  0  0  0  0  0  0  0  0  0  0
  162.0730  206.3590  142.4730 C   0  0  0  0  0  2  0  0  0  0  0  0
  161.8590  206.2170  140.9830 C   0  0  0  0  0  2  0  0  0  0  0  0
  162.3530  207.4780  140.2950 C   0  0  0  0  0  2  0  0  0  0  0  0
  161.2750  208.1100  139.4220 C   0  0  0  0  0  2  0  0  0  0  0  0
  161.5790  209.5650  139.1260 C   0  0  0  0  0  2  0  0  0  0  0  0
  161.5370  210.3610  140.4270 C   0  0  0  0  0  2  0  0  0  0  0  0
  162.2710  211.6990  140.3310 C   0  0  1  0  0  3  0  0  0  0  0  0
  162.5680  212.0190  139.0030 O   0  0  0  0  0  1  0  0  0  0  0  0
  163.3060  214.2470  142.2240 O   0  0  0  0  0  1  0  0  0  0  0  0
  161.6270  212.8700  141.1010 C   0  0  1  0  0  0  0  0  0  0  0  0
  159.1460  212.8610  145.0420 C   0  0  0  0  0  3  0  0  0  0  0  0
  162.8990  212.1670  143.0440 F   0  0  0  0  0  0  0  0  0  0  0  0
  162.3280  213.2700  142.4230 C   0  0  1  0  0  0  0  0  0  0  0  0
  160.4540  213.2990  145.5680 C   0  0  0  0  0  3  0  0  0  0  0  0
  161.4200  213.7290  144.7540 C   0  0  0  0  0  3  0  0  0  0  0  0
  160.0040  213.1390  142.8260 N   0  0  0  0  0  0  0  0  0  0  0  0
  161.1990  213.8390  143.2680 C   0  0  2  0  0  3  0  0  0  0  0  0
  161.5740  213.9920  140.2610 O   0  0  0  0  0  1  0  0  0  0  0  0
  158.9500  212.7710  143.7240 C   0  0  0  0  0  3  0  0  0  0  0  0
  160.2050  212.4820  141.5470 C   0  0  1  0  0  3  0  0  0  0  0  0
  159.1250  212.8510  140.5660 C   0  0  0  0  0  3  0  0  0  0  0  0
  158.5060  211.9840  139.9790 O   0  0  0  0  0  0  0  0  0  0  0  0
  160.8850  206.8900  147.9570 C   0  0  0  0  0  2  0  0  0  0  0  0
  162.0630  207.7810  148.2380 C   0  0  0  0  0  3  0  0  0  0  0  0
  162.3160  208.3170  149.4340 C   0  0  0  0  0  3  0  0  0  0  0  0
  161.4710  208.1070  150.6570 C   0  0  2  0  0  3  0  0  0  0  0  0
  161.6390  210.5510  150.7560 O   0  0  0  0  0  0  0  0  0  0  0  0
  161.5010  209.3750  151.5220 C   0  0  2  0  0  0  0  0  0  0  0  0
  162.7410  210.1880  151.5700 C   0  0  0  0  0  2  0  0  0  0  0  0
  160.5390  209.4880  152.7270 C   0  0  0  0  0  2  0  0  0  0  0  0
  159.5440  210.6550  152.6640 C   0  0  0  0  0  2  0  0  0  0  0  0
  159.0160  212.7230  153.5810 C   0  0  0  0  0  1  0  0  0  0  0  0
  159.4130  211.3690  153.9400 N   0  0  0  0  0  0  0  0  0  0  0  0
  160.7320  211.4760  154.5660 C   0  0  0  0  0  2  0  0  0  0  0  0
  162.0370  210.7510  156.5870 C   0  0  0  0  0  1  0  0  0  0  0  0
  159.6960  210.0200  156.2650 C   0  0  0  0  0  1  0  0  0  0  0  0
  160.1820  212.3540  156.8440 C   0  0  0  0  0  1  0  0  0  0  0  0
  160.6690  211.1540  156.0600 C   0  0  0  0  0  0  0  0  0  0  0  0
  161.9490  206.9390  151.3980 N   0  0  0  0  0  2  0  0  0  0  0  0
  160.9710  205.9430  151.2770 N   0  0  0  0  0  2  0  0  0  0  0  0
  161.1200  203.8290  152.5250 C   0  0  0  0  0  2  0  0  0  0  0  0
  160.3040  202.8110  150.4930 C   0  0  2  0  0  3  0  0  0  0  0  0
  161.6410  204.6490  151.3470 C   0  0  1  0  0  3  0  0  0  0  0  0
  161.3310  203.8540  150.0950 C   0  0  0  0  0  2  0  0  0  0  0  0
  160.5340  202.5510  151.9640 C   0  0  0  0  0  2  0  0  0  0  0  0
  160.4270  201.5290  149.6740 C   0  0  0  0  0  3  0  0  0  0  0  0
  159.6420  201.6030  148.5170 O   0  0  0  0  0  1  0  0  0  0  0  0
  161.7530  201.2460  149.3490 O   0  0  0  0  0  1  0  0  0  0  0  0
  2  6  2  0  0  0  0
  2  3  1  0  0  0  0
  3  5  2  0  0  0  0
  4  1  2  0  0  0  0
  5  1  1  0  0  0  0
  5 30  1  0  0  0  0
  6  4  1  0  0  0  0
  7  2  1  0  0  0  0
  8  7  1  0  0  0  0
  9  8  1  0  0  0  0
 10  9  1  0  0  0  0
 11 10  1  0  0  0  0
 12 11  1  0  0  0  0
 12 13  1  0  0  0  0
 14 15  1  6  0  0  0
 14 13  1  0  0  0  0
 14 17  1  0  0  0  0
 17 25  1  6  0  0  0
 17 27  1  0  0  0  0
 17 20  1  0  0  0  0
 18 21  1  0  0  0  0
 20 16  1  6  0  0  0
 20 19  1  0  0  0  0
 20 24  1  0  0  0  0
 22 21  2  0  0  0  0
 23 24  1  0  0  0  0
 23 26  1  0  0  0  0
 24 22  1  1  0  0  0
 26 18  2  0  0  0  0
 27 28  1  6  0  0  0
 27 23  1  0  0  0  0
 29 28  2  0  0  0  0
 30 31  1  0  0  0  0
 31 32  2  0  0  0  0
 33 32  1  6  0  0  0
 33 46  1  0  0  0  0
 33 35  1  0  0  0  0
 34 35  1  0  0  0  0
 34 36  1  0  0  0  0
 35 36  1  0  0  0  0
 35 37  1  1  0  0  0
 38 37  1  0  0  0  0
 38 40  1  0  0  0  0
 39 40  1  0  0  0  0
 40 41  1  0  0  0  0
 41 45  1  0  0  0  0
 45 43  1  0  0  0  0
 45 42  1  0  0  0  0
 45 44  1  0  0  0  0
 47 46  1  0  0  0  0
 49 53  1  6  0  0  0
 49 52  1  0  0  0  0
 50 47  1  6  0  0  0
 50 48  1  0  0  0  0
 51 49  1  0  0  0  0
 51 50  1  0  0  0  0
 52 48  1  0  0  0  0
 54 53  1  0  0  0  0
 55 53  1  0  0  0  0
M  END
>  <MODEL>
1

>  <REMARK>
 VINA RESULT:      -6.2      0.000      0.000
  Name = 
  23 active torsions:
  status: ('A' for Active; 'I' for Inactive)
    1  A    between atoms: C_1  and  C_53
    2  A    between atoms: C_2  and  C_28
    3  A    between atoms: C_2  and  C_44
    4  A    between atoms: C_6  and  C_20
    5  A    between atoms: C_7  and  C_20
    6  A    between atoms: C_7  and  C_22
    7  A    between atoms: C_8  and  C_22
    8  A    between atoms: C_8  and  C_35
    9  A    between atoms: C_10  and  C_32
   10  A    between atoms: C_16  and  C_17
   11  A    between atoms: C_16  and  C_26
   12  A    between atoms: C_17  and  C_33
   13  A    between atoms: C_19  and  C_40
   14  A    between atoms: C_19  and  N_45
   15  A    between atoms: C_26  and  N_45
   16  A    between atoms: C_27  and  O_54
   17  A    between atoms: C_33  and  N_36
   18  A    between atoms: C_33  and  C_49
   19  A    between atoms: C_34  and  N_52
   20  A    between atoms: C_35  and  C_43
   21  A    between atoms: N_36  and  N_52
   22  A    between atoms: C_43  and  C_51
   23  A    between atoms: C_51  and  O_54
                            x       y       z     vdW  Elec       q    Type
                         _______ _______ _______ _____ _____    ______ ____

>  <TORSDO>
F 23

$$$$
=
 OpenBabel11062408463D

 55 59  0  0  1  0  0  0  0  0999 V2000
  162.2680  209.6270  150.8380 C   0  0  0  0  0  3  0  0  0  0  0  0
  161.5990  211.0840  148.5330 C   0  0  0  0  0  0  0  0  0  0  0  0
  161.7750  209.6980  148.4750 C   0  0  0  0  0  3  0  0  0  0  0  0
  162.1000  211.0130  150.9080 C   0  0  0  0  0  3  0  0  0  0  0  0
  162.0910  208.9600  149.6230 C   0  0  0  0  0  0  0  0  0  0  0  0
  161.7560  211.7360  149.7600 C   0  0  0  0  0  3  0  0  0  0  0  0
  161.2810  211.8240  147.3910 O   0  0  0  0  0  0  0  0  0  0  0  0
  162.0960  212.8830  146.9160 C   0  0  0  0  0  2  0  0  0  0  0  0
  161.2690  214.1390  146.7670 C   0  0  0  0  0  2  0  0  0  0  0  0
  161.0720  214.4240  145.2880 C   0  0  0  0  0  2  0  0  0  0  0  0
  161.3540  213.1950  144.4290 C   0  0  0  0  0  2  0  0  0  0  0  0
  160.4610  213.1550  143.2050 C   0  0  0  0  0  2  0  0  0  0  0  0
  161.0460  212.1780  142.1900 C   0  0  0  0  0  2  0  0  0  0  0  0
  161.6630  212.8760  140.9780 C   0  0  1  0  0  3  0  0  0  0  0  0
  163.0510  212.9770  141.1050 O   0  0  0  0  0  1  0  0  0  0  0  0
  160.4860  214.1300  138.1160 O   0  0  0  0  0  1  0  0  0  0  0  0
  161.2250  212.3350  139.6020 C   0  0  1  0  0  0  0  0  0  0  0  0
  157.4260  209.9210  138.4030 C   0  0  0  0  0  3  0  0  0  0  0  0
  159.1590  213.5790  139.8760 F   0  0  0  0  0  0  0  0  0  0  0  0
  160.0460  213.0840  138.9300 C   0  0  1  0  0  0  0  0  0  0  0  0
  157.0240  211.2660  137.9470 C   0  0  0  0  0  3  0  0  0  0  0  0
  157.9170  212.2500  137.8170 C   0  0  0  0  0  3  0  0  0  0  0  0
  159.6350  210.7630  138.7720 N   0  0  0  0  0  0  0  0  0  0  0  0
  159.3820  212.0150  138.0770 C   0  0  2  0  0  3  0  0  0  0  0  0
  162.3250  212.3540  138.7330 O   0  0  0  0  0  1  0  0  0  0  0  0
  158.6780  209.6980  138.8140 C   0  0  0  0  0  3  0  0  0  0  0  0
  160.7000  210.8940  139.7500 C   0  0  1  0  0  3  0  0  0  0  0  0
  161.7490  209.8310  139.5640 C   0  0  0  0  0  3  0  0  0  0  0  0
  161.5330  208.8750  138.8430 O   0  0  0  0  0  0  0  0  0  0  0  0
  162.3040  207.4780  149.5780 C   0  0  0  0  0  2  0  0  0  0  0  0
  161.0710  206.7300  149.1490 C   0  0  0  0  0  3  0  0  0  0  0  0
  160.5760  205.6820  149.8110 C   0  0  0  0  0  3  0  0  0  0  0  0
  161.1690  205.1090  151.0650 C   0  0  2  0  0  3  0  0  0  0  0  0
  160.1320  202.9630  151.6380 O   0  0  0  0  0  0  0  0  0  0  0  0
  161.2040  203.5780  150.9590 C   0  0  2  0  0  0  0  0  0  0  0  0
  161.4250  202.7740  152.1860 C   0  0  0  0  0  2  0  0  0  0  0  0
  161.5860  202.9240  149.6110 C   0  0  0  0  0  2  0  0  0  0  0  0
  160.4040  202.4980  148.7300 C   0  0  0  0  0  2  0  0  0  0  0  0
  161.1860  201.5380  146.7660 C   0  0  0  0  0  1  0  0  0  0  0  0
  160.6220  202.7670  147.3040 N   0  0  0  0  0  0  0  0  0  0  0  0
  161.6560  203.7940  147.1640 C   0  0  0  0  0  2  0  0  0  0  0  0
  160.6440  203.7000  144.8660 C   0  0  0  0  0  1  0  0  0  0  0  0
  163.0280  204.2810  145.1750 C   0  0  0  0  0  1  0  0  0  0  0  0
  161.2820  205.8770  145.8290 C   0  0  0  0  0  1  0  0  0  0  0  0
  161.6450  204.4100  145.7630 C   0  0  0  0  0  0  0  0  0  0  0  0
  160.3960  205.5510  152.2280 N   0  0  0  0  0  2  0  0  0  0  0  0
  161.2600  205.5340  153.3300 N   0  0  0  0  0  2  0  0  0  0  0  0
  160.7290  207.9020  152.9310 C   0  0  0  0  0  2  0  0  0  0  0  0
  160.3930  208.0160  155.3180 C   0  0  2  0  0  3  0  0  0  0  0  0
  161.6830  206.9060  153.5870 C   0  0  1  0  0  3  0  0  0  0  0  0
  161.6330  207.1770  155.0770 C   0  0  0  0  0  2  0  0  0  0  0  0
  160.1470  208.7650  154.0290 C   0  0  0  0  0  2  0  0  0  0  0  0
  160.5560  208.9720  156.4970 C   0  0  0  0  0  3  0  0  0  0  0  0
  161.9110  209.2050  156.7620 O   0  0  0  0  0  1  0  0  0  0  0  0
  159.8840  210.1760  156.2860 O   0  0  0  0  0  1  0  0  0  0  0  0
  1  4  1  0  0  0  0
  2  6  1  0  0  0  0
  3  2  2  0  0  0  0
  3  5  1  0  0  0  0
  5  1  2  0  0  0  0
  6  4  2  0  0  0  0
  7  2  1  0  0  0  0
  8  7  1  0  0  0  0
  9  8  1  0  0  0  0
 10  9  1  0  0  0  0
 11 10  1  0  0  0  0
 12 11  1  0  0  0  0
 13 12  1  0  0  0  0
 14 15  1  1  0  0  0
 14 13  1  0  0  0  0
 17 25  1  6  0  0  0
 17 27  1  0  0  0  0
 17 14  1  0  0  0  0
 18 26  2  0  0  0  0
 20 16  1  6  0  0  0
 20 17  1  0  0  0  0
 20 19  1  0  0  0  0
 21 18  1  0  0  0  0
 22 21  2  0  0  0  0
 23 26  1  0  0  0  0
 23 27  1  0  0  0  0
 24 22  1  1  0  0  0
 24 23  1  0  0  0  0
 24 20  1  0  0  0  0
 27 28  1  6  0  0  0
 29 28  2  0  0  0  0
 30  5  1  0  0  0  0
 31 30  1  0  0  0  0
 31 32  2  0  0  0  0
 33 32  1  6  0  0  0
 33 46  1  0  0  0  0
 34 36  1  0  0  0  0
 35 37  1  6  0  0  0
 35 33  1  0  0  0  0
 35 34  1  0  0  0  0
 35 36  1  0  0  0  0
 38 37  1  0  0  0  0
 39 40  1  0  0  0  0
 40 38  1  0  0  0  0
 41 40  1  0  0  0  0
 42 45  1  0  0  0  0
 43 45  1  0  0  0  0
 45 44  1  0  0  0  0
 45 41  1  0  0  0  0
 46 47  1  0  0  0  0
 48 50  1  0  0  0  0
 48 52  1  0  0  0  0
 49 53  1  1  0  0  0
 50 47  1  1  0  0  0
 50 51  1  0  0  0  0
 51 49  1  0  0  0  0
 52 49  1  0  0  0  0
 53 54  1  0  0  0  0
 55 53  1  0  0  0  0
M  END
>  <MODEL>
2

>  <REMARK>
 VINA RESULT:      -4.8      2.505      7.393
  Name = 
  23 active torsions:
  status: ('A' for Active; 'I' for Inactive)
    1  A    between atoms: C_1  and  C_53
    2  A    between atoms: C_2  and  C_28
    3  A    between atoms: C_2  and  C_44
    4  A    between atoms: C_6  and  C_20
    5  A    between atoms: C_7  and  C_20
    6  A    between atoms: C_7  and  C_22
    7  A    between atoms: C_8  and  C_22
    8  A    between atoms: C_8  and  C_35
    9  A    between atoms: C_10  and  C_32
   10  A    between atoms: C_16  and  C_17
   11  A    between atoms: C_16  and  C_26
   12  A    between atoms: C_17  and  C_33
   13  A    between atoms: C_19  and  C_40
   14  A    between atoms: C_19  and  N_45
   15  A    between atoms: C_26  and  N_45
   16  A    between atoms: C_27  and  O_54
   17  A    between atoms: C_33  and  N_36
   18  A    between atoms: C_33  and  C_49
   19  A    between atoms: C_34  and  N_52
   20  A    between atoms: C_35  and  C_43
   21  A    between atoms: N_36  and  N_52
   22  A    between atoms: C_43  and  C_51
   23  A    between atoms: C_51  and  O_54
                            x       y       z     vdW  Elec       q    Type
                         _______ _______ _______ _____ _____    ______ ____

>  <TORSDO>
F 23

$$$$
=
 OpenBabel11062408463D

 55 59  0  0  1  0  0  0  0  0999 V2000
  161.6660  204.7380  147.4270 C   0  0  0  0  0  3  0  0  0  0  0  0
  161.3770  205.1790  144.6700 C   0  0  0  0  0  0  0  0  0  0  0  0
  161.0090  206.1640  145.5930 C   0  0  0  0  0  3  0  0  0  0  0  0
  162.0320  203.7430  146.5150 C   0  0  0  0  0  3  0  0  0  0  0  0
  161.1670  205.9600  146.9700 C   0  0  0  0  0  0  0  0  0  0  0  0
  161.8970  203.9700  145.1390 C   0  0  0  0  0  3  0  0  0  0  0  0
  161.2250  205.3810  143.2950 O   0  0  0  0  0  0  0  0  0  0  0  0
  161.9800  206.3430  142.5770 C   0  0  0  0  0  2  0  0  0  0  0  0
  161.9180  206.0430  141.0970 C   0  0  0  0  0  2  0  0  0  0  0  0
  162.4020  207.2610  140.3290 C   0  0  0  0  0  2  0  0  0  0  0  0
  161.4680  207.6160  139.1770 C   0  0  0  0  0  2  0  0  0  0  0  0
  161.7320  209.0150  138.6580 C   0  0  0  0  0  2  0  0  0  0  0  0
  160.9610  210.0200  139.5080 C   0  0  0  0  0  2  0  0  0  0  0  0
  161.8710  210.8830  140.3820 C   0  0  1  0  0  3  0  0  0  0  0  0
  163.2150  210.7090  140.0400 O   0  0  0  0  0  1  0  0  0  0  0  0
  161.3780  213.0980  142.8320 O   0  0  0  0  0  1  0  0  0  0  0  0
  161.4700  212.3680  140.5010 C   0  0  1  0  0  0  0  0  0  0  0  0
  157.3500  214.4230  139.8030 C   0  0  0  0  0  3  0  0  0  0  0  0
  159.7650  211.6820  142.0850 F   0  0  0  0  0  0  0  0  0  0  0  0
  160.6010  212.7320  141.7310 C   0  0  1  0  0  0  0  0  0  0  0  0
  157.3520  214.3570  141.2770 C   0  0  0  0  0  3  0  0  0  0  0  0
  158.4710  214.1030  141.9580 C   0  0  0  0  0  3  0  0  0  0  0  0
  159.6420  213.7400  139.8210 N   0  0  0  0  0  0  0  0  0  0  0  0
  159.7910  213.9280  141.2550 C   0  0  2  0  0  3  0  0  0  0  0  0
  162.6320  213.1530  140.5210 O   0  0  0  0  0  1  0  0  0  0  0  0
  158.4500  214.1060  139.1160 C   0  0  0  0  0  3  0  0  0  0  0  0
  160.5880  212.7670  139.3030 C   0  0  1  0  0  3  0  0  0  0  0  0
  161.3510  213.3180  138.1280 C   0  0  0  0  0  3  0  0  0  0  0  0
  161.8500  212.5660  137.3120 O   0  0  0  0  0  0  0  0  0  0  0  0
  160.7600  206.9930  147.9750 C   0  0  0  0  0  2  0  0  0  0  0  0
  161.7650  208.1050  148.1000 C   0  0  0  0  0  3  0  0  0  0  0  0
  162.1360  208.6370  149.2660 C   0  0  0  0  0  3  0  0  0  0  0  0
  161.6130  208.2050  150.6040 C   0  0  2  0  0  3  0  0  0  0  0  0
  161.8020  210.6310  150.9010 O   0  0  0  0  0  0  0  0  0  0  0  0
  161.6240  209.4010  151.5670 C   0  0  2  0  0  0  0  0  0  0  0  0
  162.8690  210.1910  151.7240 C   0  0  0  0  0  2  0  0  0  0  0  0
  160.6180  209.4310  152.7420 C   0  0  0  0  0  2  0  0  0  0  0  0
  159.4940  210.4690  152.6150 C   0  0  0  0  0  2  0  0  0  0  0  0
  159.7770  210.5670  154.9180 C   0  0  0  0  0  1  0  0  0  0  0  0
  159.4190  211.3790  153.7640 N   0  0  0  0  0  0  0  0  0  0  0  0
  158.0280  211.7880  153.9600 C   0  0  0  0  0  2  0  0  0  0  0  0
  156.4180  213.7160  154.0320 C   0  0  0  0  0  1  0  0  0  0  0  0
  158.2920  213.6940  152.4180 C   0  0  0  0  0  1  0  0  0  0  0  0
  158.7360  214.0340  154.8080 C   0  0  0  0  0  1  0  0  0  0  0  0
  157.8640  213.3020  153.8100 C   0  0  0  0  0  0  0  0  0  0  0  0
  162.4160  207.0940  151.1180 N   0  0  0  0  0  2  0  0  0  0  0  0
  161.9540  206.8110  152.4100 N   0  0  0  0  0  2  0  0  0  0  0  0
  160.4280  205.6860  150.8430 C   0  0  0  0  0  2  0  0  0  0  0  0
  161.6050  203.6720  151.4640 C   0  0  2  0  0  3  0  0  0  0  0  0
  160.8770  205.8340  152.2950 C   0  0  1  0  0  3  0  0  0  0  0  0
  161.3820  204.4740  152.7320 C   0  0  0  0  0  2  0  0  0  0  0  0
  160.6460  204.2430  150.4450 C   0  0  0  0  0  2  0  0  0  0  0  0
  161.3750  202.1780  151.6710 C   0  0  0  0  0  3  0  0  0  0  0  0
  160.7700  201.6080  150.5440 O   0  0  0  0  0  1  0  0  0  0  0  0
  162.5580  201.5100  151.9840 O   0  0  0  0  0  1  0  0  0  0  0  0
  2  6  2  0  0  0  0
  2  3  1  0  0  0  0
  3  5  2  0  0  0  0
  4  1  2  0  0  0  0
  5  1  1  0  0  0  0
  5 30  1  0  0  0  0
  6  4  1  0  0  0  0
  7  2  1  0  0  0  0
  8  7  1  0  0  0  0
  9  8  1  0  0  0  0
 10  9  1  0  0  0  0
 11 10  1  0  0  0  0
 12 11  1  0  0  0  0
 12 13  1  0  0  0  0
 13 14  1  0  0  0  0
 14 15  1  6  0  0  0
 14 17  1  0  0  0  0
 17 25  1  1  0  0  0
 17 20  1  0  0  0  0
 18 21  1  0  0  0  0
 20 19  1  1  0  0  0
 20 16  1  0  0  0  0
 21 22  2  0  0  0  0
 23 24  1  0  0  0  0
 24 20  1  0  0  0  0
 24 22  1  1  0  0  0
 26 18  2  0  0  0  0
 26 23  1  0  0  0  0
 27 28  1  6  0  0  0
 27 23  1  0  0  0  0
 27 17  1  0  0  0  0
 29 28  2  0  0  0  0
 30 31  1  0  0  0  0
 31 32  2  0  0  0  0
 33 32  1  6  0  0  0
 33 46  1  0  0  0  0
 33 35  1  0  0  0  0
 34 35  1  0  0  0  0
 34 36  1  0  0  0  0
 35 36  1  0  0  0  0
 35 37  1  1  0  0  0
 38 37  1  0  0  0  0
 38 40  1  0  0  0  0
 40 41  1  0  0  0  0
 40 39  1  0  0  0  0
 43 45  1  0  0  0  0
 45 41  1  0  0  0  0
 45 42  1  0  0  0  0
 45 44  1  0  0  0  0
 46 47  1  0  0  0  0
 48 50  1  0  0  0  0
 49 53  1  1  0  0  0
 49 51  1  0  0  0  0
 50 47  1  6  0  0  0
 50 51  1  0  0  0  0
 52 48  1  0  0  0  0
 52 49  1  0  0  0  0
 53 55  1  0  0  0  0
 54 53  1  0  0  0  0
M  END
>  <MODEL>
3

>  <REMARK>
 VINA RESULT:      -4.8      1.647      2.518
  Name = 
  23 active torsions:
  status: ('A' for Active; 'I' for Inactive)
    1  A    between atoms: C_1  and  C_53
    2  A    between atoms: C_2  and  C_28
    3  A    between atoms: C_2  and  C_44
    4  A    between atoms: C_6  and  C_20
    5  A    between atoms: C_7  and  C_20
    6  A    between atoms: C_7  and  C_22
    7  A    between atoms: C_8  and  C_22
    8  A    between atoms: C_8  and  C_35
    9  A    between atoms: C_10  and  C_32
   10  A    between atoms: C_16  and  C_17
   11  A    between atoms: C_16  and  C_26
   12  A    between atoms: C_17  and  C_33
   13  A    between atoms: C_19  and  C_40
   14  A    between atoms: C_19  and  N_45
   15  A    between atoms: C_26  and  N_45
   16  A    between atoms: C_27  and  O_54
   17  A    between atoms: C_33  and  N_36
   18  A    between atoms: C_33  and  C_49
   19  A    between atoms: C_34  and  N_52
   20  A    between atoms: C_35  and  C_43
   21  A    between atoms: N_36  and  N_52
   22  A    between atoms: C_43  and  C_51
   23  A    between atoms: C_51  and  O_54
                            x       y       z     vdW  Elec       q    Type
                         _______ _______ _______ _____ _____    ______ ____

>  <TORSDO>
F 23

$$$$
=
 OpenBabel11062408463D

 55 59  0  0  1  0  0  0  0  0999 V2000
  161.5570  204.2290  146.8010 C   0  0  0  0  0  3  0  0  0  0  0  0
  161.4490  205.6810  144.4000 C   0  0  0  0  0  0  0  0  0  0  0  0
  161.6890  206.3290  145.6160 C   0  0  0  0  0  3  0  0  0  0  0  0
  161.3120  203.5700  145.5920 C   0  0  0  0  0  3  0  0  0  0  0  0
  161.7620  205.6110  146.8170 C   0  0  0  0  0  0  0  0  0  0  0  0
  161.2700  204.2950  144.3950 C   0  0  0  0  0  3  0  0  0  0  0  0
  161.3790  206.3930  143.1990 O   0  0  0  0  0  0  0  0  0  0  0  0
  161.7640  205.8310  141.9550 C   0  0  0  0  0  2  0  0  0  0  0  0
  162.4090  206.8910  141.0920 C   0  0  0  0  0  2  0  0  0  0  0  0
  161.3220  207.6360  140.3360 C   0  0  0  0  0  2  0  0  0  0  0  0
  161.6800  207.8250  138.8660 C   0  0  0  0  0  2  0  0  0  0  0  0
  162.1820  209.2290  138.5920 C   0  0  0  0  0  2  0  0  0  0  0  0
  161.1560  210.2370  139.0980 C   0  0  0  0  0  2  0  0  0  0  0  0
  160.8920  211.3680  138.1040 C   0  0  1  0  0  3  0  0  0  0  0  0
  159.7050  211.1540  137.3970 O   0  0  0  0  0  1  0  0  0  0  0  0
  162.9980  213.9470  137.8630 O   0  0  0  0  0  1  0  0  0  0  0  0
  161.0000  212.7970  138.6740 C   0  0  1  0  0  0  0  0  0  0  0  0
  162.0480  214.2320  142.9790 C   0  0  0  0  0  3  0  0  0  0  0  0
  163.2650  212.2530  139.3520 F   0  0  0  0  0  0  0  0  0  0  0  0
  162.4370  213.2970  138.9640 C   0  0  1  0  0  0  0  0  0  0  0  0
  163.3480  214.4520  142.3170 C   0  0  0  0  0  3  0  0  0  0  0  0
  163.4580  214.4530  140.9870 C   0  0  0  0  0  3  0  0  0  0  0  0
  161.0840  213.8110  140.8310 N   0  0  0  0  0  0  0  0  0  0  0  0
  162.2490  214.2870  140.1030 C   0  0  2  0  0  3  0  0  0  0  0  0
  160.3820  213.6900  137.7870 O   0  0  0  0  0  1  0  0  0  0  0  0
  160.9730  213.9070  142.2550 C   0  0  0  0  0  3  0  0  0  0  0  0
  160.3090  212.8630  140.0500 C   0  0  1  0  0  3  0  0  0  0  0  0
  158.8570  213.2550  139.9950 C   0  0  0  0  0  3  0  0  0  0  0  0
  157.9940  212.4630  140.3250 O   0  0  0  0  0  0  0  0  0  0  0  0
  161.9970  206.2890  148.1310 C   0  0  0  0  0  2  0  0  0  0  0  0
  162.0390  207.7870  148.0090 C   0  0  0  0  0  3  0  0  0  0  0  0
  161.7580  208.6190  149.0150 C   0  0  0  0  0  3  0  0  0  0  0  0
  161.3670  208.1820  150.3970 C   0  0  2  0  0  3  0  0  0  0  0  0
  161.9120  210.5500  150.7160 O   0  0  0  0  0  0  0  0  0  0  0  0
  161.4670  209.3760  151.3560 C   0  0  2  0  0  0  0  0  0  0  0  0
  162.7990  209.9590  151.6500 C   0  0  0  0  0  2  0  0  0  0  0  0
  160.3580  209.5870  152.4150 C   0  0  0  0  0  2  0  0  0  0  0  0
  160.4140  210.9260  153.1630 C   0  0  0  0  0  2  0  0  0  0  0  0
  158.7890  212.2240  152.1290 C   0  0  0  0  0  1  0  0  0  0  0  0
  159.0900  211.5240  153.3700 N   0  0  0  0  0  0  0  0  0  0  0  0
  159.1850  212.5480  154.4110 C   0  0  0  0  0  2  0  0  0  0  0  0
  157.2400  213.4410  155.7270 C   0  0  0  0  0  1  0  0  0  0  0  0
  158.9900  212.0800  156.8240 C   0  0  0  0  0  1  0  0  0  0  0  0
  157.4020  211.0220  155.2810 C   0  0  0  0  0  1  0  0  0  0  0  0
  158.2030  212.2770  155.5530 C   0  0  0  0  0  0  0  0  0  0  0  0
  162.2190  207.0720  150.8280 N   0  0  0  0  0  2  0  0  0  0  0  0
  161.5550  206.4250  151.8780 N   0  0  0  0  0  2  0  0  0  0  0  0
  161.0550  204.1930  152.7840 C   0  0  0  0  0  2  0  0  0  0  0  0
  160.4370  203.6380  150.5170 C   0  0  2  0  0  3  0  0  0  0  0  0
  161.9330  205.0160  151.8430 C   0  0  1  0  0  3  0  0  0  0  0  0
  161.7040  204.4690  150.4490 C   0  0  0  0  0  2  0  0  0  0  0  0
  160.3400  203.1560  151.9460 C   0  0  0  0  0  2  0  0  0  0  0  0
  160.4510  202.4710  149.5340 C   0  0  0  0  0  3  0  0  0  0  0  0
  161.7640  202.0590  149.2720 O   0  0  0  0  0  1  0  0  0  0  0  0
  159.6830  201.4000  149.9880 O   0  0  0  0  0  1  0  0  0  0  0  0
  1  5  1  0  0  0  0
  2  3  1  0  0  0  0
  3  5  2  0  0  0  0
  4  1  2  0  0  0  0
  5 30  1  0  0  0  0
  6  2  2  0  0  0  0
  6  4  1  0  0  0  0
  7  2  1  0  0  0  0
  8  7  1  0  0  0  0
  9  8  1  0  0  0  0
 10  9  1  0  0  0  0
 11 10  1  0  0  0  0
 12 11  1  0  0  0  0
 12 13  1  0  0  0  0
 14 15  1  1  0  0  0
 14 17  1  0  0  0  0
 14 13  1  0  0  0  0
 17 25  1  6  0  0  0
 17 20  1  0  0  0  0
 17 27  1  0  0  0  0
 20 16  1  6  0  0  0
 20 19  1  0  0  0  0
 20 24  1  0  0  0  0
 21 18  1  0  0  0  0
 22 21  2  0  0  0  0
 23 26  1  0  0  0  0
 24 23  1  0  0  0  0
 24 22  1  1  0  0  0
 26 18  2  0  0  0  0
 27 28  1  6  0  0  0
 27 23  1  0  0  0  0
 28 29  2  0  0  0  0
 31 30  1  0  0  0  0
 31 32  2  0  0  0  0
 33 32  1  6  0  0  0
 33 46  1  0  0  0  0
 33 35  1  0  0  0  0
 34 35  1  0  0  0  0
 34 36  1  0  0  0  0
 35 36  1  0  0  0  0
 35 37  1  1  0  0  0
 37 38  1  0  0  0  0
 38 40  1  0  0  0  0
 39 40  1  0  0  0  0
 40 41  1  0  0  0  0
 41 45  1  0  0  0  0
 44 45  1  0  0  0  0
 45 42  1  0  0  0  0
 45 43  1  0  0  0  0
 46 47  1  0  0  0  0
 49 53  1  6  0  0  0
 49 52  1  0  0  0  0
 50 47  1  6  0  0  0
 50 48  1  0  0  0  0
 51 49  1  0  0  0  0
 51 50  1  0  0  0  0
 52 48  1  0  0  0  0
 53 55  1  0  0  0  0
 54 53  1  0  0  0  0
M  END
>  <MODEL>
4

>  <REMARK>
 VINA RESULT:      -4.3      1.617      2.126
  Name = 
  23 active torsions:
  status: ('A' for Active; 'I' for Inactive)
    1  A    between atoms: C_1  and  C_53
    2  A    between atoms: C_2  and  C_28
    3  A    between atoms: C_2  and  C_44
    4  A    between atoms: C_6  and  C_20
    5  A    between atoms: C_7  and  C_20
    6  A    between atoms: C_7  and  C_22
    7  A    between atoms: C_8  and  C_22
    8  A    between atoms: C_8  and  C_35
    9  A    between atoms: C_10  and  C_32
   10  A    between atoms: C_16  and  C_17
   11  A    between atoms: C_16  and  C_26
   12  A    between atoms: C_17  and  C_33
   13  A    between atoms: C_19  and  C_40
   14  A    between atoms: C_19  and  N_45
   15  A    between atoms: C_26  and  N_45
   16  A    between atoms: C_27  and  O_54
   17  A    between atoms: C_33  and  N_36
   18  A    between atoms: C_33  and  C_49
   19  A    between atoms: C_34  and  N_52
   20  A    between atoms: C_35  and  C_43
   21  A    between atoms: N_36  and  N_52
   22  A    between atoms: C_43  and  C_51
   23  A    between atoms: C_51  and  O_54
                            x       y       z     vdW  Elec       q    Type
                         _______ _______ _______ _____ _____    ______ ____

>  <TORSDO>
F 23

$$$$
=
 OpenBabel11062408463D

 55 59  0  0  1  0  0  0  0  0999 V2000
  161.1500  205.3410  149.0870 C   0  0  0  0  0  3  0  0  0  0  0  0
  161.9420  205.6880  146.4170 C   0  0  0  0  0  0  0  0  0  0  0  0
  161.8880  206.7770  147.2920 C   0  0  0  0  0  3  0  0  0  0  0  0
  161.1950  204.2450  148.2210 C   0  0  0  0  0  3  0  0  0  0  0  0
  161.5110  206.6110  148.6310 C   0  0  0  0  0  0  0  0  0  0  0  0
  161.6010  204.4180  146.8920 C   0  0  0  0  0  3  0  0  0  0  0  0
  162.3210  205.8480  145.0810 O   0  0  0  0  0  0  0  0  0  0  0  0
  161.5150  205.4040  144.0010 C   0  0  0  0  0  2  0  0  0  0  0  0
  161.5210  206.4380  142.8980 C   0  0  0  0  0  2  0  0  0  0  0  0
  161.9930  205.7800  141.6120 C   0  0  0  0  0  2  0  0  0  0  0  0
  162.3670  206.8100  140.5510 C   0  0  0  0  0  2  0  0  0  0  0  0
  161.3780  207.9570  140.5140 C   0  0  0  0  0  2  0  0  0  0  0  0
  162.0720  209.2020  139.9710 C   0  0  0  0  0  2  0  0  0  0  0  0
  161.2580  210.4780  140.1830 C   0  0  1  0  0  3  0  0  0  0  0  0
  161.9520  211.3940  140.9790 O   0  0  0  0  0  1  0  0  0  0  0  0
  161.2080  213.4970  138.7580 O   0  0  0  0  0  1  0  0  0  0  0  0
  160.6730  211.1160  138.9070 C   0  0  1  0  0  0  0  0  0  0  0  0
  156.2620  212.1460  137.8250 C   0  0  0  0  0  3  0  0  0  0  0  0
  159.7030  212.8310  140.3240 F   0  0  0  0  0  0  0  0  0  0  0  0
  160.1940  212.5830  139.0490 C   0  0  1  0  0  0  0  0  0  0  0  0
  156.7450  213.4850  138.2140 C   0  0  0  0  0  3  0  0  0  0  0  0
  158.0490  213.7460  138.3290 C   0  0  0  0  0  3  0  0  0  0  0  0
  158.5200  211.3640  137.9110 N   0  0  0  0  0  0  0  0  0  0  0  0
  159.0860  212.6990  138.0140 C   0  0  2  0  0  3  0  0  0  0  0  0
  161.6310  211.0520  137.8850 O   0  0  0  0  0  1  0  0  0  0  0  0
  157.1230  211.1320  137.7020 C   0  0  0  0  0  3  0  0  0  0  0  0
  159.4010  210.3590  138.4810 C   0  0  1  0  0  3  0  0  0  0  0  0
  159.6460  209.2320  137.5140 C   0  0  0  0  0  3  0  0  0  0  0  0
  158.7120  208.5960  137.0630 O   0  0  0  0  0  0  0  0  0  0  0  0
  161.4270  207.7680  149.5790 C   0  0  0  0  0  2  0  0  0  0  0  0
  161.3130  207.3330  151.0140 C   0  0  0  0  0  3  0  0  0  0  0  0
  161.4600  208.1600  152.0500 C   0  0  0  0  0  3  0  0  0  0  0  0
  161.7520  209.6280  151.9340 C   0  0  2  0  0  3  0  0  0  0  0  0
  161.8000  210.9710  153.9830 O   0  0  0  0  0  0  0  0  0  0  0  0
  160.9640  210.3920  153.0070 C   0  0  2  0  0  0  0  0  0  0  0  0
  160.9790  209.8960  154.4050 C   0  0  0  0  0  2  0  0  0  0  0  0
  159.7570  211.2590  152.5800 C   0  0  0  0  0  2  0  0  0  0  0  0
  159.3060  212.3060  153.6080 C   0  0  0  0  0  2  0  0  0  0  0  0
  157.6230  213.3770  152.4190 C   0  0  0  0  0  1  0  0  0  0  0  0
  157.8580  212.5440  153.5900 N   0  0  0  0  0  0  0  0  0  0  0  0
  157.4920  213.3530  154.7540 C   0  0  0  0  0  2  0  0  0  0  0  0
  156.2770  211.2250  155.3090 C   0  0  0  0  0  1  0  0  0  0  0  0
  155.8590  213.2930  156.6000 C   0  0  0  0  0  1  0  0  0  0  0  0
  157.9840  212.0930  156.8600 C   0  0  0  0  0  1  0  0  0  0  0  0
  156.9070  212.4880  155.8730 C   0  0  0  0  0  0  0  0  0  0  0  0
  161.4200  210.0960  150.5870 N   0  0  0  0  0  2  0  0  0  0  0  0
  161.4730  211.4960  150.6100 N   0  0  0  0  0  2  0  0  0  0  0  0
  161.6400  210.9880  148.2100 C   0  0  0  0  0  2  0  0  0  0  0  0
  160.4050  213.0390  147.9000 C   0  0  2  0  0  3  0  0  0  0  0  0
  162.0270  211.9430  149.3360 C   0  0  1  0  0  3  0  0  0  0  0  0
  161.4390  213.2940  148.9800 C   0  0  0  0  0  2  0  0  0  0  0  0
  160.8560  211.7830  147.1890 C   0  0  0  0  0  2  0  0  0  0  0  0
  160.2730  214.2110  146.9320 C   0  0  0  0  0  3  0  0  0  0  0  0
  161.3780  214.2740  146.0750 O   0  0  0  0  0  1  0  0  0  0  0  0
  159.0880  214.1480  146.1990 O   0  0  0  0  0  1  0  0  0  0  0  0
  2  6  2  0  0  0  0
  2  3  1  0  0  0  0
  3  5  2  0  0  0  0
  4  1  2  0  0  0  0
  5  1  1  0  0  0  0
  5 30  1  0  0  0  0
  6  4  1  0  0  0  0
  7  2  1  0  0  0  0
  8  7  1  0  0  0  0
  9  8  1  0  0  0  0
 10  9  1  0  0  0  0
 11 10  1  0  0  0  0
 12 11  1  0  0  0  0
 13 14  1  0  0  0  0
 13 12  1  0  0  0  0
 14 15  1  6  0  0  0
 17 25  1  6  0  0  0
 17 20  1  0  0  0  0
 17 14  1  0  0  0  0
 18 21  1  0  0  0  0
 20 16  1  6  0  0  0
 20 19  1  0  0  0  0
 21 22  2  0  0  0  0
 23 24  1  0  0  0  0
 23 27  1  0  0  0  0
 24 22  1  1  0  0  0
 24 20  1  0  0  0  0
 26 18  2  0  0  0  0
 26 23  1  0  0  0  0
 27 28  1  6  0  0  0
 27 17  1  0  0  0  0
 29 28  2  0  0  0  0
 30 31  1  0  0  0  0
 31 32  2  0  0  0  0
 33 32  1  6  0  0  0
 33 35  1  0  0  0  0
 34 36  1  0  0  0  0
 35 37  1  6  0  0  0
 35 34  1  0  0  0  0
 35 36  1  0  0  0  0
 37 38  1  0  0  0  0
 39 40  1  0  0  0  0
 40 38  1  0  0  0  0
 40 41  1  0  0  0  0
 41 45  1  0  0  0  0
 42 45  1  0  0  0  0
 45 43  1  0  0  0  0
 45 44  1  0  0  0  0
 46 47  1  0  0  0  0
 46 33  1  0  0  0  0
 48 50  1  0  0  0  0
 49 53  1  6  0  0  0
 49 51  1  0  0  0  0
 50 47  1  1  0  0  0
 51 50  1  0  0  0  0
 52 49  1  0  0  0  0
 52 48  1  0  0  0  0
 54 53  1  0  0  0  0
 55 53  1  0  0  0  0
M  END
>  <MODEL>
5

>  <REMARK>
 VINA RESULT:      -3.4      2.624      5.460
  Name = 
  23 active torsions:
  status: ('A' for Active; 'I' for Inactive)
    1  A    between atoms: C_1  and  C_53
    2  A    between atoms: C_2  and  C_28
    3  A    between atoms: C_2  and  C_44
    4  A    between atoms: C_6  and  C_20
    5  A    between atoms: C_7  and  C_20
    6  A    between atoms: C_7  and  C_22
    7  A    between atoms: C_8  and  C_22
    8  A    between atoms: C_8  and  C_35
    9  A    between atoms: C_10  and  C_32
   10  A    between atoms: C_16  and  C_17
   11  A    between atoms: C_16  and  C_26
   12  A    between atoms: C_17  and  C_33
   13  A    between atoms: C_19  and  C_40
   14  A    between atoms: C_19  and  N_45
   15  A    between atoms: C_26  and  N_45
   16  A    between atoms: C_27  and  O_54
   17  A    between atoms: C_33  and  N_36
   18  A    between atoms: C_33  and  C_49
   19  A    between atoms: C_34  and  N_52
   20  A    between atoms: C_35  and  C_43
   21  A    between atoms: N_36  and  N_52
   22  A    between atoms: C_43  and  C_51
   23  A    between atoms: C_51  and  O_54
                            x       y       z     vdW  Elec       q    Type
                         _______ _______ _______ _____ _____    ______ ____

>  <TORSDO>
F 23

$$$$
=
 OpenBabel11062408463D

 55 59  0  0  1  0  0  0  0  0999 V2000
  159.5060  206.5930  154.1900 C   0  0  0  0  0  3  0  0  0  0  0  0
  161.0410  207.7600  156.2300 C   0  0  0  0  0  0  0  0  0  0  0  0
  161.6070  207.4820  154.9810 C   0  0  0  0  0  3  0  0  0  0  0  0
  158.9310  206.8610  155.4350 C   0  0  0  0  0  3  0  0  0  0  0  0
  160.8440  206.9160  153.9510 C   0  0  0  0  0  0  0  0  0  0  0  0
  159.6950  207.4530  156.4480 C   0  0  0  0  0  3  0  0  0  0  0  0
  161.7980  208.3270  157.2590 O   0  0  0  0  0  0  0  0  0  0  0  0
  162.4260  209.5940  157.1350 C   0  0  0  0  0  2  0  0  0  0  0  0
  161.3930  210.6910  157.2600 C   0  0  0  0  0  2  0  0  0  0  0  0
  161.5670  211.6610  156.1040 C   0  0  0  0  0  2  0  0  0  0  0  0
  160.3300  212.5280  155.8980 C   0  0  0  0  0  2  0  0  0  0  0  0
  159.0710  211.8190  156.3560 C   0  0  0  0  0  2  0  0  0  0  0  0
  158.3060  211.3160  155.1350 C   0  0  0  0  0  2  0  0  0  0  0  0
  158.6950  212.0430  153.8480 C   0  0  1  0  0  3  0  0  0  0  0  0
  158.6530  211.1810  152.7480 O   0  0  0  0  0  1  0  0  0  0  0  0
  156.3760  213.9020  155.3680 O   0  0  0  0  0  1  0  0  0  0  0  0
  157.9690  213.3790  153.5900 C   0  0  1  0  0  0  0  0  0  0  0  0
  154.6780  214.4450  150.4710 C   0  0  0  0  0  3  0  0  0  0  0  0
  155.8770  212.2010  153.9470 F   0  0  0  0  0  0  0  0  0  0  0  0
  156.4920  213.4410  154.0560 C   0  0  1  0  0  0  0  0  0  0  0  0
  153.8400  214.2790  151.6750 C   0  0  0  0  0  3  0  0  0  0  0  0
  154.3780  214.2500  152.8960 C   0  0  0  0  0  3  0  0  0  0  0  0
  156.6160  214.3230  151.8670 N   0  0  0  0  0  0  0  0  0  0  0  0
  155.8580  214.4410  153.1020 C   0  0  2  0  0  3  0  0  0  0  0  0
  158.6820  214.4130  154.2120 O   0  0  0  0  0  1  0  0  0  0  0  0
  156.0100  214.4450  150.5760 C   0  0  0  0  0  3  0  0  0  0  0  0
  157.8820  213.6400  152.0740 C   0  0  1  0  0  3  0  0  0  0  0  0
  159.0310  214.4360  151.5160 C   0  0  0  0  0  3  0  0  0  0  0  0
  160.0420  213.8740  151.1410 O   0  0  0  0  0  0  0  0  0  0  0  0
  161.4360  206.5920  152.6140 C   0  0  0  0  0  2  0  0  0  0  0  0
  160.4950  206.8860  151.4790 C   0  0  0  0  0  3  0  0  0  0  0  0
  160.8020  207.6810  150.4520 C   0  0  0  0  0  3  0  0  0  0  0  0
  162.1170  208.3860  150.2850 C   0  0  2  0  0  3  0  0  0  0  0  0
  163.1480  210.3250  151.3730 O   0  0  0  0  0  0  0  0  0  0  0  0
  161.9790  209.8420  150.7500 C   0  0  2  0  0  0  0  0  0  0  0  0
  162.0130  210.1430  152.2030 C   0  0  0  0  0  2  0  0  0  0  0  0
  161.2540  210.8590  149.8380 C   0  0  0  0  0  2  0  0  0  0  0  0
  162.1030  212.0560  149.3880 C   0  0  0  0  0  2  0  0  0  0  0  0
  163.2620  213.0630  147.6450 C   0  0  0  0  0  1  0  0  0  0  0  0
  162.0820  212.2620  147.9350 N   0  0  0  0  0  0  0  0  0  0  0  0
  160.9250  213.0880  147.5860 C   0  0  0  0  0  2  0  0  0  0  0  0
  159.6660  214.1150  145.6690 C   0  0  0  0  0  1  0  0  0  0  0  0
  159.9350  211.6620  145.8360 C   0  0  0  0  0  1  0  0  0  0  0  0
  161.8620  213.0700  145.2660 C   0  0  0  0  0  1  0  0  0  0  0  0
  160.5980  212.9920  146.0940 C   0  0  0  0  0  0  0  0  0  0  0  0
  162.5500  208.3070  148.8890 N   0  0  0  0  0  2  0  0  0  0  0  0
  161.6660  207.4430  148.2290 N   0  0  0  0  0  2  0  0  0  0  0  0
  162.1700  205.0480  148.4780 C   0  0  0  0  0  2  0  0  0  0  0  0
  161.1550  204.8180  146.3000 C   0  0  2  0  0  3  0  0  0  0  0  0
  162.4450  206.3300  147.6950 C   0  0  1  0  0  3  0  0  0  0  0  0
  162.0230  206.0620  146.2640 C   0  0  0  0  0  2  0  0  0  0  0  0
  161.6170  204.0310  147.5040 C   0  0  0  0  0  2  0  0  0  0  0  0
  161.2640  203.9950  145.0200 C   0  0  0  0  0  3  0  0  0  0  0  0
  162.6040  203.7290  144.7130 O   0  0  0  0  0  1  0  0  0  0  0  0
  160.5350  202.8100  145.1010 O   0  0  0  0  0  1  0  0  0  0  0  0
  1  4  1  0  0  0  0
  2  6  1  0  0  0  0
  2  7  1  0  0  0  0
  3  2  2  0  0  0  0
  4  6  2  0  0  0  0
  5  1  2  0  0  0  0
  5  3  1  0  0  0  0
  8  7  1  0  0  0  0
  8  9  1  0  0  0  0
 10  9  1  0  0  0  0
 11 10  1  0  0  0  0
 11 12  1  0  0  0  0
 13 12  1  0  0  0  0
 14 15  1  6  0  0  0
 14 13  1  0  0  0  0
 17 14  1  0  0  0  0
 17 20  1  0  0  0  0
 17 25  1  1  0  0  0
 18 26  2  0  0  0  0
 18 21  1  0  0  0  0
 20 19  1  6  0  0  0
 20 16  1  0  0  0  0
 21 22  2  0  0  0  0
 23 27  1  0  0  0  0
 23 24  1  0  0  0  0
 24 22  1  6  0  0  0
 24 20  1  0  0  0  0
 26 23  1  0  0  0  0
 27 28  1  1  0  0  0
 27 17  1  0  0  0  0
 29 28  2  0  0  0  0
 30  5  1  0  0  0  0
 31 30  1  0  0  0  0
 32 31  2  0  0  0  0
 33 32  1  6  0  0  0
 33 35  1  0  0  0  0
 34 36  1  0  0  0  0
 35 37  1  6  0  0  0
 35 34  1  0  0  0  0
 35 36  1  0  0  0  0
 38 37  1  0  0  0  0
 39 40  1  0  0  0  0
 40 38  1  0  0  0  0
 41 40  1  0  0  0  0
 42 45  1  0  0  0  0
 43 45  1  0  0  0  0
 44 45  1  0  0  0  0
 45 41  1  0  0  0  0
 46 33  1  0  0  0  0
 47 46  1  0  0  0  0
 49 53  1  6  0  0  0
 49 52  1  0  0  0  0
 50 47  1  1  0  0  0
 50 48  1  0  0  0  0
 51 49  1  0  0  0  0
 51 50  1  0  0  0  0
 52 48  1  0  0  0  0
 53 55  1  0  0  0  0
 54 53  1  0  0  0  0
M  END
>  <MODEL>
6

>  <REMARK>
 VINA RESULT:      -3.3      4.493     10.045
  Name = 
  23 active torsions:
  status: ('A' for Active; 'I' for Inactive)
    1  A    between atoms: C_1  and  C_53
    2  A    between atoms: C_2  and  C_28
    3  A    between atoms: C_2  and  C_44
    4  A    between atoms: C_6  and  C_20
    5  A    between atoms: C_7  and  C_20
    6  A    between atoms: C_7  and  C_22
    7  A    between atoms: C_8  and  C_22
    8  A    between atoms: C_8  and  C_35
    9  A    between atoms: C_10  and  C_32
   10  A    between atoms: C_16  and  C_17
   11  A    between atoms: C_16  and  C_26
   12  A    between atoms: C_17  and  C_33
   13  A    between atoms: C_19  and  C_40
   14  A    between atoms: C_19  and  N_45
   15  A    between atoms: C_26  and  N_45
   16  A    between atoms: C_27  and  O_54
   17  A    between atoms: C_33  and  N_36
   18  A    between atoms: C_33  and  C_49
   19  A    between atoms: C_34  and  N_52
   20  A    between atoms: C_35  and  C_43
   21  A    between atoms: N_36  and  N_52
   22  A    between atoms: C_43  and  C_51
   23  A    between atoms: C_51  and  O_54
                            x       y       z     vdW  Elec       q    Type
                         _______ _______ _______ _____ _____    ______ ____

>  <TORSDO>
F 23

$$$$
