=
 OpenBabel11052422113D

 25 28  0  0  1  0  0  0  0  0999 V2000
  161.4600  205.1890  148.9820 C   0  0  0  0  0  0  0  0  0  0  0  0
  161.4400  206.1530  150.0070 C   0  0  0  0  0  0  0  0  0  0  0  0
  161.8700  206.8970  147.3220 C   0  0  0  0  0  3  0  0  0  0  0  0
  161.3230  203.7820  149.1570 N   0  0  0  0  0  0  0  0  0  0  0  0
  160.8580  201.0310  148.8420 C   0  0  0  0  0  2  0  0  0  0  0  0
  161.8470  207.8750  148.3220 C   0  0  0  0  0  3  0  0  0  0  0  0
  161.6810  203.0460  147.9400 C   0  0  1  0  0  3  0  0  0  0  0  0
  160.7390  201.9560  147.7160 N   0  0  0  0  0  2  0  0  0  0  0  0
  161.6230  208.4980  150.6780 C   0  0  0  0  0  0  0  0  0  0  0  0
  161.8540  210.2050  150.3220 Cl  0  0  0  0  0  0  0  0  0  0  0  0
  161.2610  205.7970  151.3490 C   0  0  0  0  0  3  0  0  0  0  0  0
  160.4970  201.6910  150.1830 C   0  0  0  0  0  2  0  0  0  0  0  0
  161.6740  205.5630  147.6740 C   0  0  0  0  0  0  0  0  0  0  0  0
  161.6650  204.2080  146.5180 S   0  0  0  0  0  0  0  0  0  0  0  0
  161.4340  208.1180  152.0100 C   0  0  0  0  0  3  0  0  0  0  0  0
  160.3620  203.2140  150.1030 C   0  0  0  0  0  2  0  0  0  0  0  0
  161.2510  206.7740  152.3460 C   0  0  0  0  0  0  0  0  0  0  0  0
  161.6330  207.5200  149.6660 C   0  0  0  0  0  0  0  0  0  0  0  0
  161.0740  206.3820  153.7710 C   0  0  0  0  0  2  0  0  0  0  0  0
  161.5410  207.5060  154.6820 C   0  0  0  0  0  2  0  0  0  0  0  0
  160.1600  209.4990  155.3980 C   0  0  0  0  0  0  0  0  0  0  0  0
  161.0720  210.4420  154.6880 C   0  0  0  0  0  1  0  0  0  0  0  0
  159.1640  209.9650  156.0130 O   0  0  0  0  0  0  0  0  0  0  0  0
  160.4060  208.0820  155.3910 N   0  0  0  0  0  0  0  0  0  0  0  0
  159.5780  207.1910  156.1880 C   0  0  0  0  0  1  0  0  0  0  0  0
  1  4  1  0  0  0  0
  1  2  1  0  0  0  0
  2 11  1  0  0  0  0
  3 13  1  0  0  0  0
  3  6  2  0  0  0  0
  4 16  1  0  0  0  0
  5 12  1  0  0  0  0
  6 18  1  0  0  0  0
  7 14  1  6  0  0  0
  7  4  1  0  0  0  0
  8  7  1  0  0  0  0
  8  5  1  0  0  0  0
  9 15  2  0  0  0  0
 10  9  1  0  0  0  0
 11 17  2  0  0  0  0
 13  1  2  0  0  0  0
 14 13  1  0  0  0  0
 15 17  1  0  0  0  0
 16 12  1  0  0  0  0
 17 19  1  0  0  0  0
 18  2  2  0  0  0  0
 18  9  1  0  0  0  0
 19 20  1  0  0  0  0
 20 24  1  0  0  0  0
 21 23  2  0  0  0  0
 22 21  1  0  0  0  0
 24 21  1  0  0  0  0
 24 25  1  0  0  0  0
M  END
>  <MODEL>
1

>  <REMARK>
 VINA RESULT:      -9.0      0.000      0.000
  Name = 
  3 active torsions:
  status: ('A' for Active; 'I' for Inactive)
    1  A    between atoms: C_6  and  C_15
    2  A    between atoms: C_6  and  C_23
    3  A    between atoms: C_15  and  N_21
                            x       y       z     vdW  Elec       q    Type
                         _______ _______ _______ _____ _____    ______ ____

>  <TORSDO>
F 3

$$$$
=
 OpenBabel11052422113D

 25 28  0  0  1  0  0  0  0  0999 V2000
  161.1230  204.5330  149.6380 C   0  0  0  0  0  0  0  0  0  0  0  0
  161.3040  205.8100  150.2050 C   0  0  0  0  0  0  0  0  0  0  0  0
  160.8360  203.5520  151.8270 C   0  0  0  0  0  3  0  0  0  0  0  0
  161.1040  204.2350  148.2450 N   0  0  0  0  0  0  0  0  0  0  0  0
  161.2290  203.0140  145.7200 C   0  0  0  0  0  2  0  0  0  0  0  0
  161.0210  204.8080  152.4160 C   0  0  0  0  0  3  0  0  0  0  0  0
  160.6050  202.8810  147.9880 C   0  0  1  0  0  3  0  0  0  0  0  0
  161.4020  202.2400  146.9480 N   0  0  0  0  0  2  0  0  0  0  0  0
  161.4280  207.2120  152.2050 C   0  0  0  0  0  0  0  0  0  0  0  0
  161.3810  207.4440  153.9470 Cl  0  0  0  0  0  0  0  0  0  0  0  0
  161.5040  206.9460  149.4120 C   0  0  0  0  0  3  0  0  0  0  0  0
  161.7270  204.4610  145.8640 C   0  0  0  0  0  2  0  0  0  0  0  0
  160.8920  203.4380  150.4400 C   0  0  0  0  0  0  0  0  0  0  0  0
  160.6880  201.9120  149.5460 S   0  0  0  0  0  0  0  0  0  0  0  0
  161.6340  208.3300  151.3920 C   0  0  0  0  0  3  0  0  0  0  0  0
  162.0350  204.8650  147.3090 C   0  0  0  0  0  2  0  0  0  0  0  0
  161.6750  208.2000  150.0010 C   0  0  0  0  0  0  0  0  0  0  0  0
  161.2560  205.9440  151.6190 C   0  0  0  0  0  0  0  0  0  0  0  0
  161.8730  209.4030  149.1470 C   0  0  0  0  0  2  0  0  0  0  0  0
  161.8940  210.6550  150.0090 C   0  0  0  0  0  2  0  0  0  0  0  0
  160.9840  212.9520  149.4740 C   0  0  0  0  0  0  0  0  0  0  0  0
  160.0830  212.9210  150.6620 C   0  0  0  0  0  1  0  0  0  0  0  0
  160.9740  213.9700  148.7320 O   0  0  0  0  0  0  0  0  0  0  0  0
  161.8480  211.8450  149.1690 N   0  0  0  0  0  0  0  0  0  0  0  0
  162.6290  211.8410  147.9420 C   0  0  0  0  0  1  0  0  0  0  0  0
  1  2  2  0  0  0  0
  1 13  1  0  0  0  0
  2 18  1  0  0  0  0
  3  6  1  0  0  0  0
  4  1  1  0  0  0  0
  5 12  1  0  0  0  0
  5  8  1  0  0  0  0
  7  8  1  6  0  0  0
  7  4  1  0  0  0  0
  7 14  1  0  0  0  0
  9 10  1  0  0  0  0
 11 17  2  0  0  0  0
 11  2  1  0  0  0  0
 12 16  1  0  0  0  0
 13  3  2  0  0  0  0
 14 13  1  0  0  0  0
 15  9  2  0  0  0  0
 16  4  1  0  0  0  0
 17 15  1  0  0  0  0
 18  9  1  0  0  0  0
 18  6  2  0  0  0  0
 19 17  1  0  0  0  0
 19 20  1  0  0  0  0
 21 22  1  0  0  0  0
 23 21  2  0  0  0  0
 24 21  1  0  0  0  0
 24 20  1  0  0  0  0
 25 24  1  0  0  0  0
M  END
>  <MODEL>
2

>  <REMARK>
 VINA RESULT:      -8.6      3.191      4.699
  Name = 
  3 active torsions:
  status: ('A' for Active; 'I' for Inactive)
    1  A    between atoms: C_6  and  C_15
    2  A    between atoms: C_6  and  C_23
    3  A    between atoms: C_15  and  N_21
                            x       y       z     vdW  Elec       q    Type
                         _______ _______ _______ _____ _____    ______ ____

>  <TORSDO>
F 3

$$$$
=
 OpenBabel11052422113D

 25 28  0  0  1  0  0  0  0  0999 V2000
  161.4160  205.9760  151.5090 C   0  0  0  0  0  0  0  0  0  0  0  0
  161.3970  205.0950  150.4110 C   0  0  0  0  0  0  0  0  0  0  0  0
  160.7910  204.1890  153.0100 C   0  0  0  0  0  3  0  0  0  0  0  0
  161.7720  207.3550  151.4660 N   0  0  0  0  0  0  0  0  0  0  0  0
  162.1010  210.0990  151.9610 C   0  0  0  0  0  2  0  0  0  0  0  0
  160.7570  203.2950  151.9340 C   0  0  0  0  0  3  0  0  0  0  0  0
  161.9730  207.9050  152.8100 C   0  0  1  0  0  3  0  0  0  0  0  0
  161.3870  209.2370  152.9020 N   0  0  0  0  0  2  0  0  0  0  0  0
  161.0390  202.8350  149.5470 C   0  0  0  0  0  0  0  0  0  0  0  0
  160.6250  201.1390  149.7530 Cl  0  0  0  0  0  0  0  0  0  0  0  0
  161.7290  205.5220  149.1190 C   0  0  0  0  0  3  0  0  0  0  0  0
  161.9560  209.6250  150.5060 C   0  0  0  0  0  2  0  0  0  0  0  0
  161.1210  205.5220  152.7750 C   0  0  0  0  0  0  0  0  0  0  0  0
  161.1960  206.7780  154.0350 S   0  0  0  0  0  0  0  0  0  0  0  0
  161.3660  203.2870  148.2650 C   0  0  0  0  0  3  0  0  0  0  0  0
  161.3450  208.2270  150.3710 C   0  0  0  0  0  2  0  0  0  0  0  0
  161.7070  204.6250  148.0490 C   0  0  0  0  0  0  0  0  0  0  0  0
  161.0570  203.7330  150.6310 C   0  0  0  0  0  0  0  0  0  0  0  0
  162.0750  205.0870  146.6830 C   0  0  0  0  0  2  0  0  0  0  0  0
  162.0190  203.9220  145.7070 C   0  0  0  0  0  2  0  0  0  0  0  0
  159.9430  203.0290  144.5740 C   0  0  0  0  0  0  0  0  0  0  0  0
  160.0810  201.7120  145.2610 C   0  0  0  0  0  1  0  0  0  0  0  0
  158.9760  203.2030  143.7860 O   0  0  0  0  0  0  0  0  0  0  0  0
  160.8940  204.0840  144.7950 N   0  0  0  0  0  0  0  0  0  0  0  0
  160.8130  205.3160  144.0260 C   0  0  0  0  0  1  0  0  0  0  0  0
  1 13  1  0  0  0  0
  2 18  1  0  0  0  0
  2  1  2  0  0  0  0
  4  1  1  0  0  0  0
  4  7  1  0  0  0  0
  5  8  1  0  0  0  0
  6  3  1  0  0  0  0
  7  8  1  6  0  0  0
  7 14  1  0  0  0  0
  9 10  1  0  0  0  0
  9 18  1  0  0  0  0
 11  2  1  0  0  0  0
 12  5  1  0  0  0  0
 13  3  2  0  0  0  0
 13 14  1  0  0  0  0
 15  9  2  0  0  0  0
 16 12  1  0  0  0  0
 16  4  1  0  0  0  0
 17 15  1  0  0  0  0
 17 11  2  0  0  0  0
 18  6  2  0  0  0  0
 19 17  1  0  0  0  0
 20 19  1  0  0  0  0
 21 24  1  0  0  0  0
 21 22  1  0  0  0  0
 23 21  2  0  0  0  0
 24 20  1  0  0  0  0
 25 24  1  0  0  0  0
M  END
>  <MODEL>
3

>  <REMARK>
 VINA RESULT:      -8.6      4.251      8.130
  Name = 
  3 active torsions:
  status: ('A' for Active; 'I' for Inactive)
    1  A    between atoms: C_6  and  C_15
    2  A    between atoms: C_6  and  C_23
    3  A    between atoms: C_15  and  N_21
                            x       y       z     vdW  Elec       q    Type
                         _______ _______ _______ _____ _____    ______ ____

>  <TORSDO>
F 3

$$$$
=
 OpenBabel11052422113D

 25 28  0  0  1  0  0  0  0  0999 V2000
  161.2470  204.5200  149.0990 C   0  0  0  0  0  0  0  0  0  0  0  0
  161.3160  205.4900  150.1170 C   0  0  0  0  0  0  0  0  0  0  0  0
  160.8680  202.7750  150.7270 C   0  0  0  0  0  3  0  0  0  0  0  0
  161.3390  204.7710  147.7000 N   0  0  0  0  0  0  0  0  0  0  0  0
  161.7040  204.6010  144.9210 C   0  0  0  0  0  2  0  0  0  0  0  0
  160.9410  203.7180  151.7570 C   0  0  0  0  0  3  0  0  0  0  0  0
  160.9360  203.6020  146.9120 C   0  0  1  0  0  3  0  0  0  0  0  0
  161.8360  203.4240  145.7780 N   0  0  0  0  0  2  0  0  0  0  0  0
  161.2240  206.0330  152.5000 C   0  0  0  0  0  0  0  0  0  0  0  0
  161.0460  205.5860  154.1910 Cl  0  0  0  0  0  0  0  0  0  0  0  0
  161.5050  206.8470  149.8290 C   0  0  0  0  0  3  0  0  0  0  0  0
  162.1090  205.8990  145.6400 C   0  0  0  0  0  2  0  0  0  0  0  0
  161.0240  203.1960  149.4080 C   0  0  0  0  0  0  0  0  0  0  0  0
  160.9680  202.1170  147.9930 S   0  0  0  0  0  0  0  0  0  0  0  0
  161.4220  207.3810  152.1870 C   0  0  0  0  0  3  0  0  0  0  0  0
  162.2950  205.7330  147.1510 C   0  0  0  0  0  2  0  0  0  0  0  0
  161.5650  207.7880  150.8580 C   0  0  0  0  0  0  0  0  0  0  0  0
  161.1650  205.0770  151.4680 C   0  0  0  0  0  0  0  0  0  0  0  0
  161.7520  209.2300  150.5380 C   0  0  0  0  0  2  0  0  0  0  0  0
  162.2820  209.9690  151.7570 C   0  0  0  0  0  2  0  0  0  0  0  0
  160.9530  210.9410  153.6750 C   0  0  0  0  0  0  0  0  0  0  0  0
  161.6460  210.0610  154.6600 C   0  0  0  0  0  1  0  0  0  0  0  0
  160.0770  211.7450  154.0910 O   0  0  0  0  0  0  0  0  0  0  0  0
  161.2670  210.8780  152.2730 N   0  0  0  0  0  0  0  0  0  0  0  0
  160.4980  211.6540  151.3150 C   0  0  0  0  0  1  0  0  0  0  0  0
  1 13  2  0  0  0  0
  1  2  1  0  0  0  0
  2 18  1  0  0  0  0
  3  6  2  0  0  0  0
  4  1  1  0  0  0  0
  5 12  1  0  0  0  0
  5  8  1  0  0  0  0
  7  8  1  6  0  0  0
  7  4  1  0  0  0  0
  7 14  1  0  0  0  0
  9 10  1  0  0  0  0
 11  2  2  0  0  0  0
 11 17  1  0  0  0  0
 12 16  1  0  0  0  0
 13  3  1  0  0  0  0
 14 13  1  0  0  0  0
 15  9  1  0  0  0  0
 16  4  1  0  0  0  0
 17 15  2  0  0  0  0
 18  6  1  0  0  0  0
 18  9  2  0  0  0  0
 19 17  1  0  0  0  0
 19 20  1  0  0  0  0
 20 24  1  0  0  0  0
 21 23  2  0  0  0  0
 21 22  1  0  0  0  0
 24 21  1  0  0  0  0
 25 24  1  0  0  0  0
M  END
>  <MODEL>
4

>  <REMARK>
 VINA RESULT:      -8.5      2.238      3.749
  Name = 
  3 active torsions:
  status: ('A' for Active; 'I' for Inactive)
    1  A    between atoms: C_6  and  C_15
    2  A    between atoms: C_6  and  C_23
    3  A    between atoms: C_15  and  N_21
                            x       y       z     vdW  Elec       q    Type
                         _______ _______ _______ _____ _____    ______ ____

>  <TORSDO>
F 3

$$$$
=
 OpenBabel11052422113D

 25 28  0  0  1  0  0  0  0  0999 V2000
  161.4550  207.5000  150.7610 C   0  0  0  0  0  0  0  0  0  0  0  0
  161.4800  206.4820  149.7880 C   0  0  0  0  0  0  0  0  0  0  0  0
  162.1360  209.1420  149.1230 C   0  0  0  0  0  3  0  0  0  0  0  0
  161.0700  207.3430  152.1220 N   0  0  0  0  0  0  0  0  0  0  0  0
  160.6880  207.6040  154.8920 C   0  0  0  0  0  2  0  0  0  0  0  0
  162.1770  208.1470  148.1400 C   0  0  0  0  0  3  0  0  0  0  0  0
  160.8720  208.6370  152.7830 C   0  0  1  0  0  3  0  0  0  0  0  0
  161.4310  208.6060  154.1300 N   0  0  0  0  0  2  0  0  0  0  0  0
  161.8760  205.8120  147.4690 C   0  0  0  0  0  0  0  0  0  0  0  0
  162.3290  206.1580  145.8060 Cl  0  0  0  0  0  0  0  0  0  0  0  0
  161.1240  205.1630  150.0940 C   0  0  0  0  0  3  0  0  0  0  0  0
  160.8250  206.1930  154.2960 C   0  0  0  0  0  2  0  0  0  0  0  0
  161.7740  208.7970  150.4240 C   0  0  0  0  0  0  0  0  0  0  0  0
  161.6880  209.9440  151.7820 S   0  0  0  0  0  0  0  0  0  0  0  0
  161.5250  204.5010  147.8020 C   0  0  0  0  0  3  0  0  0  0  0  0
  161.4650  206.1720  152.9050 C   0  0  0  0  0  2  0  0  0  0  0  0
  161.1530  204.1740  149.1090 C   0  0  0  0  0  0  0  0  0  0  0  0
  161.8520  206.8150  148.4570 C   0  0  0  0  0  0  0  0  0  0  0  0
  160.7590  202.7790  149.4430 C   0  0  0  0  0  2  0  0  0  0  0  0
  160.0820  202.1280  148.2470 C   0  0  0  0  0  2  0  0  0  0  0  0
  160.8800  200.6070  146.3930 C   0  0  0  0  0  0  0  0  0  0  0  0
  160.0590  201.3350  145.3820 C   0  0  0  0  0  1  0  0  0  0  0  0
  161.5810  199.6310  146.0140 O   0  0  0  0  0  0  0  0  0  0  0  0
  160.8730  200.9980  147.7760 N   0  0  0  0  0  0  0  0  0  0  0  0
  161.5810  200.2030  148.7650 C   0  0  0  0  0  1  0  0  0  0  0  0
  1  4  1  0  0  0  0
  2 11  1  0  0  0  0
  2  1  2  0  0  0  0
  3 13  2  0  0  0  0
  4  7  1  0  0  0  0
  4 16  1  0  0  0  0
  6 18  2  0  0  0  0
  6  3  1  0  0  0  0
  7 14  1  6  0  0  0
  7  8  1  0  0  0  0
  8  5  1  0  0  0  0
  9 15  2  0  0  0  0
  9 18  1  0  0  0  0
 10  9  1  0  0  0  0
 12  5  1  0  0  0  0
 13  1  1  0  0  0  0
 13 14  1  0  0  0  0
 15 17  1  0  0  0  0
 16 12  1  0  0  0  0
 17 19  1  0  0  0  0
 17 11  2  0  0  0  0
 18  2  1  0  0  0  0
 20 19  1  0  0  0  0
 21 24  1  0  0  0  0
 22 21  1  0  0  0  0
 23 21  2  0  0  0  0
 24 20  1  0  0  0  0
 24 25  1  0  0  0  0
M  END
>  <MODEL>
5

>  <REMARK>
 VINA RESULT:      -8.5      3.794      7.388
  Name = 
  3 active torsions:
  status: ('A' for Active; 'I' for Inactive)
    1  A    between atoms: C_6  and  C_15
    2  A    between atoms: C_6  and  C_23
    3  A    between atoms: C_15  and  N_21
                            x       y       z     vdW  Elec       q    Type
                         _______ _______ _______ _____ _____    ______ ____

>  <TORSDO>
F 3

$$$$
=
 OpenBabel11052422113D

 25 28  0  0  1  0  0  0  0  0999 V2000
  161.4880  206.5250  149.8080 C   0  0  0  0  0  0  0  0  0  0  0  0
  161.6640  207.8940  150.0850 C   0  0  0  0  0  0  0  0  0  0  0  0
  161.2360  206.0350  152.1610 C   0  0  0  0  0  3  0  0  0  0  0  0
  161.4550  205.9340  148.5130 N   0  0  0  0  0  0  0  0  0  0  0  0
  161.5600  204.2000  146.3070 C   0  0  0  0  0  2  0  0  0  0  0  0
  161.4170  207.3890  152.4640 C   0  0  0  0  0  3  0  0  0  0  0  0
  160.9650  204.5530  148.5590 C   0  0  1  0  0  3  0  0  0  0  0  0
  161.7550  203.7080  147.6700 N   0  0  0  0  0  2  0  0  0  0  0  0
  161.7990  209.6940  151.7360 C   0  0  0  0  0  0  0  0  0  0  0  0
  161.7710  210.2950  153.3880 Cl  0  0  0  0  0  0  0  0  0  0  0  0
  161.8440  208.8340  149.0650 C   0  0  0  0  0  3  0  0  0  0  0  0
  162.0480  205.6470  146.1310 C   0  0  0  0  0  2  0  0  0  0  0  0
  161.2760  205.6260  150.8300 C   0  0  0  0  0  0  0  0  0  0  0  0
  161.0750  203.9420  150.2880 S   0  0  0  0  0  0  0  0  0  0  0  0
  161.9860  210.6130  150.6990 C   0  0  0  0  0  3  0  0  0  0  0  0
  162.3700  206.3540  147.4510 C   0  0  0  0  0  2  0  0  0  0  0  0
  162.0110  210.1870  149.3680 C   0  0  0  0  0  0  0  0  0  0  0  0
  161.6320  208.3280  151.4380 C   0  0  0  0  0  0  0  0  0  0  0  0
  162.1880  211.1800  148.2730 C   0  0  0  0  0  2  0  0  0  0  0  0
  161.8580  212.5750  148.7780 C   0  0  0  0  0  2  0  0  0  0  0  0
  159.5710  213.5570  149.2230 C   0  0  0  0  0  0  0  0  0  0  0  0
  159.8940  213.7700  150.6640 C   0  0  0  0  0  1  0  0  0  0  0  0
  158.4340  213.8980  148.8000 O   0  0  0  0  0  0  0  0  0  0  0  0
  160.5300  212.9720  148.3270 N   0  0  0  0  0  0  0  0  0  0  0  0
  160.1560  212.6600  146.9570 C   0  0  0  0  0  1  0  0  0  0  0  0
  1  2  2  0  0  0  0
  1 13  1  0  0  0  0
  2 18  1  0  0  0  0
  3  6  1  0  0  0  0
  4  7  1  0  0  0  0
  4  1  1  0  0  0  0
  5  8  1  0  0  0  0
  7  8  1  6  0  0  0
  7 14  1  0  0  0  0
  9 10  1  0  0  0  0
 11 17  2  0  0  0  0
 11  2  1  0  0  0  0
 12  5  1  0  0  0  0
 12 16  1  0  0  0  0
 13  3  2  0  0  0  0
 14 13  1  0  0  0  0
 15  9  2  0  0  0  0
 16  4  1  0  0  0  0
 17 15  1  0  0  0  0
 18  9  1  0  0  0  0
 18  6  2  0  0  0  0
 19 20  1  0  0  0  0
 19 17  1  0  0  0  0
 21 22  1  0  0  0  0
 23 21  2  0  0  0  0
 24 20  1  0  0  0  0
 24 21  1  0  0  0  0
 25 24  1  0  0  0  0
M  END
>  <MODEL>
6

>  <REMARK>
 VINA RESULT:      -8.3      3.556      5.189
  Name = 
  3 active torsions:
  status: ('A' for Active; 'I' for Inactive)
    1  A    between atoms: C_6  and  C_15
    2  A    between atoms: C_6  and  C_23
    3  A    between atoms: C_15  and  N_21
                            x       y       z     vdW  Elec       q    Type
                         _______ _______ _______ _____ _____    ______ ____

>  <TORSDO>
F 3

$$$$
=
 OpenBabel11052422113D

 25 28  0  0  1  0  0  0  0  0999 V2000
  161.1610  208.5220  152.6850 C   0  0  0  0  0  0  0  0  0  0  0  0
  161.2900  207.5760  151.6510 C   0  0  0  0  0  0  0  0  0  0  0  0
  161.8150  210.3070  151.1930 C   0  0  0  0  0  3  0  0  0  0  0  0
  160.7250  208.2520  154.0130 N   0  0  0  0  0  0  0  0  0  0  0  0
  160.2050  208.3020  156.7720 C   0  0  0  0  0  2  0  0  0  0  0  0
  161.9590  209.3850  150.1510 C   0  0  0  0  0  3  0  0  0  0  0  0
  160.4220  209.4850  154.7460 C   0  0  1  0  0  3  0  0  0  0  0  0
  160.9210  209.3930  156.1140 N   0  0  0  0  0  2  0  0  0  0  0  0
  161.8290  207.0880  149.3150 C   0  0  0  0  0  0  0  0  0  0  0  0
  162.3340  207.5720  147.7020 Cl  0  0  0  0  0  0  0  0  0  0  0  0
  161.0010  206.2210  151.8520 C   0  0  0  0  0  3  0  0  0  0  0  0
  160.4540  206.9440  156.0930 C   0  0  0  0  0  2  0  0  0  0  0  0
  161.4170  209.8550  152.4490 C   0  0  0  0  0  0  0  0  0  0  0  0
  161.2010  210.9010  153.8740 S   0  0  0  0  0  0  0  0  0  0  0  0
  161.5430  205.7400  149.5440 C   0  0  0  0  0  3  0  0  0  0  0  0
  161.1550  207.0540  154.7360 C   0  0  0  0  0  2  0  0  0  0  0  0
  161.1330  205.3050  150.8070 C   0  0  0  0  0  0  0  0  0  0  0  0
  161.7010  208.0190  150.3640 C   0  0  0  0  0  0  0  0  0  0  0  0
  160.8090  203.8690  151.0300 C   0  0  0  0  0  2  0  0  0  0  0  0
  160.2880  203.2470  149.7440 C   0  0  0  0  0  2  0  0  0  0  0  0
  161.1110  201.3630  148.2740 C   0  0  0  0  0  0  0  0  0  0  0  0
  160.8280  202.1450  147.0360 C   0  0  0  0  0  1  0  0  0  0  0  0
  161.5940  200.2050  148.1620 O   0  0  0  0  0  0  0  0  0  0  0  0
  160.8370  201.9080  149.5760 N   0  0  0  0  0  0  0  0  0  0  0  0
  161.0040  201.0870  150.7640 C   0  0  0  0  0  1  0  0  0  0  0  0
  1  4  1  0  0  0  0
  2 11  1  0  0  0  0
  2  1  2  0  0  0  0
  3 13  2  0  0  0  0
  4 16  1  0  0  0  0
  4  7  1  0  0  0  0
  6 18  2  0  0  0  0
  6  3  1  0  0  0  0
  7 14  1  6  0  0  0
  7  8  1  0  0  0  0
  8  5  1  0  0  0  0
  9 15  2  0  0  0  0
  9 18  1  0  0  0  0
 10  9  1  0  0  0  0
 12  5  1  0  0  0  0
 13  1  1  0  0  0  0
 13 14  1  0  0  0  0
 15 17  1  0  0  0  0
 16 12  1  0  0  0  0
 17 19  1  0  0  0  0
 17 11  2  0  0  0  0
 18  2  1  0  0  0  0
 20 19  1  0  0  0  0
 21 24  1  0  0  0  0
 22 21  1  0  0  0  0
 23 21  2  0  0  0  0
 24 20  1  0  0  0  0
 24 25  1  0  0  0  0
M  END
>  <MODEL>
7

>  <REMARK>
 VINA RESULT:      -8.1      3.500      7.265
  Name = 
  3 active torsions:
  status: ('A' for Active; 'I' for Inactive)
    1  A    between atoms: C_6  and  C_15
    2  A    between atoms: C_6  and  C_23
    3  A    between atoms: C_15  and  N_21
                            x       y       z     vdW  Elec       q    Type
                         _______ _______ _______ _____ _____    ______ ____

>  <TORSDO>
F 3

$$$$
=
 OpenBabel11052422113D

 25 28  0  0  1  0  0  0  0  0999 V2000
  161.1050  207.4210  152.7780 C   0  0  0  0  0  0  0  0  0  0  0  0
  161.1120  206.7420  151.5450 C   0  0  0  0  0  0  0  0  0  0  0  0
  161.2030  205.3290  153.9820 C   0  0  0  0  0  3  0  0  0  0  0  0
  161.1010  208.8350  152.9500 N   0  0  0  0  0  0  0  0  0  0  0  0
  160.8320  211.4600  153.9080 C   0  0  0  0  0  2  0  0  0  0  0  0
  161.2030  204.6290  152.7710 C   0  0  0  0  0  3  0  0  0  0  0  0
  161.3910  209.2120  154.3370 C   0  0  1  0  0  3  0  0  0  0  0  0
  160.5230  210.3080  154.7530 N   0  0  0  0  0  2  0  0  0  0  0  0
  161.1720  204.6230  150.3230 C   0  0  0  0  0  0  0  0  0  0  0  0
  161.2250  202.8670  150.2570 Cl  0  0  0  0  0  0  0  0  0  0  0  0
  161.1010  207.4290  150.3250 C   0  0  0  0  0  3  0  0  0  0  0  0
  160.5580  211.1870  152.4200 C   0  0  0  0  0  2  0  0  0  0  0  0
  161.1530  206.7210  153.9620 C   0  0  0  0  0  0  0  0  0  0  0  0
  161.1350  207.7480  155.4170 S   0  0  0  0  0  0  0  0  0  0  0  0
  161.1520  205.3320  149.1190 C   0  0  0  0  0  3  0  0  0  0  0  0
  160.2920  209.7120  152.1040 C   0  0  0  0  0  2  0  0  0  0  0  0
  161.1140  206.7290  149.1170 C   0  0  0  0  0  0  0  0  0  0  0  0
  161.1570  205.3210  151.5460 C   0  0  0  0  0  0  0  0  0  0  0  0
  161.1170  207.4710  147.8270 C   0  0  0  0  0  2  0  0  0  0  0  0
  162.1020  206.8320  146.8610 C   0  0  0  0  0  2  0  0  0  0  0  0
  162.0570  204.6390  145.6050 C   0  0  0  0  0  0  0  0  0  0  0  0
  163.4590  204.3270  146.0110 C   0  0  0  0  0  1  0  0  0  0  0  0
  161.4370  203.8120  144.8840 O   0  0  0  0  0  0  0  0  0  0  0  0
  161.4190  205.8580  146.0190 N   0  0  0  0  0  0  0  0  0  0  0  0
  160.0990  206.2020  145.5140 C   0  0  0  0  0  1  0  0  0  0  0  0
  1  4  1  0  0  0  0
  1 13  1  0  0  0  0
  2 18  1  0  0  0  0
  2  1  2  0  0  0  0
  4  7  1  0  0  0  0
  5  8  1  0  0  0  0
  6  3  1  0  0  0  0
  7  8  1  1  0  0  0
  7 14  1  0  0  0  0
  9 18  1  0  0  0  0
 10  9  1  0  0  0  0
 11  2  1  0  0  0  0
 12  5  1  0  0  0  0
 13  3  2  0  0  0  0
 13 14  1  0  0  0  0
 15  9  2  0  0  0  0
 16 12  1  0  0  0  0
 16  4  1  0  0  0  0
 17 15  1  0  0  0  0
 17 11  2  0  0  0  0
 18  6  2  0  0  0  0
 19 17  1  0  0  0  0
 20 19  1  0  0  0  0
 21 22  1  0  0  0  0
 21 24  1  0  0  0  0
 23 21  2  0  0  0  0
 24 20  1  0  0  0  0
 25 24  1  0  0  0  0
M  END
>  <MODEL>
8

>  <REMARK>
 VINA RESULT:      -8.0      4.040      7.930
  Name = 
  3 active torsions:
  status: ('A' for Active; 'I' for Inactive)
    1  A    between atoms: C_6  and  C_15
    2  A    between atoms: C_6  and  C_23
    3  A    between atoms: C_15  and  N_21
                            x       y       z     vdW  Elec       q    Type
                         _______ _______ _______ _____ _____    ______ ____

>  <TORSDO>
F 3

$$$$
=
 OpenBabel11052422113D

 25 28  0  0  1  0  0  0  0  0999 V2000
  161.3410  206.2220  150.4760 C   0  0  0  0  0  0  0  0  0  0  0  0
  161.4510  207.4850  151.0880 C   0  0  0  0  0  0  0  0  0  0  0  0
  161.0550  205.1550  152.6250 C   0  0  0  0  0  3  0  0  0  0  0  0
  161.3640  205.9700  149.0740 N   0  0  0  0  0  0  0  0  0  0  0  0
  161.5960  204.8430  146.5130 C   0  0  0  0  0  2  0  0  0  0  0  0
  161.1700  206.3970  153.2580 C   0  0  0  0  0  3  0  0  0  0  0  0
  160.9330  204.6040  148.7610 C   0  0  1  0  0  3  0  0  0  0  0  0
  161.7800  204.0360  147.7180 N   0  0  0  0  0  2  0  0  0  0  0  0
  161.4690  208.8230  153.1360 C   0  0  0  0  0  0  0  0  0  0  0  0
  161.3760  208.9930  154.8840 Cl  0  0  0  0  0  0  0  0  0  0  0  0
  161.6140  208.6550  150.3380 C   0  0  0  0  0  3  0  0  0  0  0  0
  162.0240  206.3060  146.7160 C   0  0  0  0  0  2  0  0  0  0  0  0
  161.1440  205.0910  151.2360 C   0  0  0  0  0  0  0  0  0  0  0  0
  161.0300  203.5880  150.2880 S   0  0  0  0  0  0  0  0  0  0  0  0
  161.6400  209.9760  152.3650 C   0  0  0  0  0  3  0  0  0  0  0  0
  162.2840  206.6730  148.1800 C   0  0  0  0  0  2  0  0  0  0  0  0
  161.7150  209.8950  150.9720 C   0  0  0  0  0  0  0  0  0  0  0  0
  161.3680  207.5690  152.5050 C   0  0  0  0  0  0  0  0  0  0  0  0
  161.8740  211.1340  150.1630 C   0  0  0  0  0  2  0  0  0  0  0  0
  161.9590  210.7830  148.6860 C   0  0  0  0  0  2  0  0  0  0  0  0
  161.4370  212.6790  147.0970 C   0  0  0  0  0  0  0  0  0  0  0  0
  160.0100  212.2580  146.9910 C   0  0  0  0  0  1  0  0  0  0  0  0
  161.8200  213.6900  146.4490 O   0  0  0  0  0  0  0  0  0  0  0  0
  162.3680  211.9500  147.9150 N   0  0  0  0  0  0  0  0  0  0  0  0
  163.7790  212.3010  147.9100 C   0  0  0  0  0  1  0  0  0  0  0  0
  1  2  2  0  0  0  0
  1 13  1  0  0  0  0
  2 18  1  0  0  0  0
  3  6  1  0  0  0  0
  4  1  1  0  0  0  0
  5 12  1  0  0  0  0
  5  8  1  0  0  0  0
  7  8  1  6  0  0  0
  7  4  1  0  0  0  0
  7 14  1  0  0  0  0
  9 10  1  0  0  0  0
 11 17  2  0  0  0  0
 11  2  1  0  0  0  0
 12 16  1  0  0  0  0
 13  3  2  0  0  0  0
 14 13  1  0  0  0  0
 15  9  2  0  0  0  0
 16  4  1  0  0  0  0
 17 15  1  0  0  0  0
 18  9  1  0  0  0  0
 18  6  2  0  0  0  0
 19 17  1  0  0  0  0
 20 19  1  0  0  0  0
 21 24  1  0  0  0  0
 22 21  1  0  0  0  0
 23 21  2  0  0  0  0
 24 20  1  0  0  0  0
 25 24  1  0  0  0  0
M  END
>  <MODEL>
9

>  <REMARK>
 VINA RESULT:      -8.0      3.642      5.554
  Name = 
  3 active torsions:
  status: ('A' for Active; 'I' for Inactive)
    1  A    between atoms: C_6  and  C_15
    2  A    between atoms: C_6  and  C_23
    3  A    between atoms: C_15  and  N_21
                            x       y       z     vdW  Elec       q    Type
                         _______ _______ _______ _____ _____    ______ ____

>  <TORSDO>
F 3

$$$$
