=
 OpenBabel11052422563D

 28 31  0  0  1  0  0  0  0  0999 V2000
  160.7790  205.4920  150.0290 C   0  0  1  0  0  3  0  0  0  0  0  0
  160.8950  206.8960  154.8090 C   0  0  0  0  0  1  0  0  0  0  0  0
  161.5610  208.9410  151.5780 C   0  0  2  0  0  3  0  0  0  0  0  0
  161.9950  209.5710  153.9630 C   0  0  0  0  0  1  0  0  0  0  0  0
  160.8680  206.2120  152.4110 C   0  0  2  0  0  3  0  0  0  0  0  0
  160.9170  207.9370  150.6280 C   0  0  0  0  0  2  0  0  0  0  0  0
  161.2160  203.8160  151.7380 C   0  0  0  0  0  3  0  0  0  0  0  0
  161.4740  207.1840  153.4300 C   0  0  1  0  0  3  0  0  0  0  0  0
  161.2070  204.8320  152.7460 N   0  0  0  0  0  2  0  0  0  0  0  0
  161.1980  208.6490  153.0480 C   0  0  2  0  0  3  0  0  0  0  0  0
  161.0400  204.1220  150.4880 N   0  0  0  0  0  0  0  0  0  0  0  0
  161.3590  206.5300  151.0000 C   0  0  2  0  0  3  0  0  0  0  0  0
  161.4760  204.3600  147.8610 C   0  0  0  0  0  2  0  0  0  0  0  0
  161.2960  205.6910  148.6040 C   0  0  1  0  0  3  0  0  0  0  0  0
  162.1350  204.5820  146.4960 C   0  0  0  0  0  0  0  0  0  0  0  0
  160.4450  206.4570  146.4150 C   0  0  0  0  0  2  0  0  0  0  0  0
  161.7960  205.9550  145.9040 C   0  0  0  0  0  2  0  0  0  0  0  0
  160.4330  206.6380  147.8760 N   0  0  0  0  0  2  0  0  0  0  0  0
  163.6400  204.4760  146.6480 C   0  0  0  0  0  1  0  0  0  0  0  0
  161.6660  203.4990  145.5470 C   0  0  0  0  0  1  0  0  0  0  0  0
  160.4670  211.1660  152.0370 C   0  0  0  0  0  3  0  0  0  0  0  0
  161.5590  210.8270  149.8950 C   0  0  0  0  0  0  0  0  0  0  0  0
  160.4840  212.9420  150.3960 C   0  0  0  0  0  0  0  0  0  0  0  0
  161.1950  210.3400  151.1650 C   0  0  0  0  0  0  0  0  0  0  0  0
  161.2030  212.1270  149.5190 C   0  0  0  0  0  3  0  0  0  0  0  0
  162.4600  209.8390  148.7550 Cl  0  0  0  0  0  0  0  0  0  0  0  0
  160.1420  214.1990  150.0250 F   0  0  0  0  0  0  0  0  0  0  0  0
  160.1150  212.4620  151.6530 C   0  0  0  0  0  3  0  0  0  0  0  0
  1 11  1  1  0  0  0
  1 12  1  0  0  0  0
  3 24  1  6  0  0  0
  3 10  1  0  0  0  0
  5  9  1  1  0  0  0
  5  8  1  0  0  0  0
  6  3  1  0  0  0  0
  7  9  1  0  0  0  0
  8  2  1  1  0  0  0
 10  8  1  0  0  0  0
 10  4  1  1  0  0  0
 11  7  2  0  0  0  0
 12  6  1  6  0  0  0
 12  5  1  0  0  0  0
 14 13  1  6  0  0  0
 14  1  1  0  0  0  0
 15 19  1  0  0  0  0
 15 13  1  0  0  0  0
 16 18  1  0  0  0  0
 17 16  1  0  0  0  0
 17 15  1  0  0  0  0
 18 14  1  0  0  0  0
 20 15  1  0  0  0  0
 22 24  1  0  0  0  0
 23 28  2  0  0  0  0
 24 21  2  0  0  0  0
 25 22  2  0  0  0  0
 25 23  1  0  0  0  0
 26 22  1  0  0  0  0
 27 23  1  0  0  0  0
 28 21  1  0  0  0  0
M  END
>  <MODEL>
1

>  <REMARK>
 VINA RESULT:      -7.9      0.000      0.000
  Name = 
  2 active torsions:
  status: ('A' for Active; 'I' for Inactive)
    1  A    between atoms: C_1  and  C_3
    2  A    between atoms: C_10  and  C_13
                            x       y       z     vdW  Elec       q    Type
                         _______ _______ _______ _____ _____    ______ ____

>  <TORSDO>
F 2

$$$$
=
 OpenBabel11052422563D

 28 31  0  0  1  0  0  0  0  0999 V2000
  160.8390  205.6780  149.6710 C   0  0  1  0  0  3  0  0  0  0  0  0
  161.2190  207.4190  154.3250 C   0  0  0  0  0  1  0  0  0  0  0  0
  161.8510  209.1860  150.9270 C   0  0  2  0  0  3  0  0  0  0  0  0
  162.4130  209.9650  153.2410 C   0  0  0  0  0  1  0  0  0  0  0  0
  161.0600  206.5640  151.9880 C   0  0  2  0  0  3  0  0  0  0  0  0
  161.1200  208.1490  150.0800 C   0  0  0  0  0  2  0  0  0  0  0  0
  161.2640  204.1100  151.4840 C   0  0  0  0  0  3  0  0  0  0  0  0
  161.7540  207.5750  152.9080 C   0  0  1  0  0  3  0  0  0  0  0  0
  161.3460  205.1960  152.4120 N   0  0  0  0  0  2  0  0  0  0  0  0
  161.5350  209.0210  152.4270 C   0  0  2  0  0  3  0  0  0  0  0  0
  161.0510  204.3330  150.2210 N   0  0  0  0  0  0  0  0  0  0  0  0
  161.5080  206.7530  150.5390 C   0  0  2  0  0  3  0  0  0  0  0  0
  161.4790  204.3510  147.5980 C   0  0  0  0  0  2  0  0  0  0  0  0
  161.3060  205.7450  148.2170 C   0  0  1  0  0  3  0  0  0  0  0  0
  162.0900  204.4490  146.1970 C   0  0  0  0  0  0  0  0  0  0  0  0
  160.3730  206.2910  145.9960 C   0  0  0  0  0  2  0  0  0  0  0  0
  161.7130  205.7560  145.4890 C   0  0  0  0  0  2  0  0  0  0  0  0
  160.4070  206.6100  147.4330 N   0  0  0  0  0  2  0  0  0  0  0  0
  163.6000  204.3720  146.3070 C   0  0  0  0  0  1  0  0  0  0  0  0
  161.6040  203.2760  145.3710 C   0  0  0  0  0  1  0  0  0  0  0  0
  162.2360  211.0950  149.3270 C   0  0  0  0  0  3  0  0  0  0  0  0
  160.5540  211.3510  151.0590 C   0  0  0  0  0  0  0  0  0  0  0  0
  160.9750  213.1530  149.4910 C   0  0  0  0  0  0  0  0  0  0  0  0
  161.5360  210.5680  150.4240 C   0  0  0  0  0  0  0  0  0  0  0  0
  160.2780  212.6390  150.5870 C   0  0  0  0  0  3  0  0  0  0  0  0
  159.6530  210.7520  152.4430 Cl  0  0  0  0  0  0  0  0  0  0  0  0
  160.7030  214.4000  149.0400 F   0  0  0  0  0  0  0  0  0  0  0  0
  161.9540  212.3830  148.8620 C   0  0  0  0  0  3  0  0  0  0  0  0
  1 11  1  1  0  0  0
  1 12  1  0  0  0  0
  3 24  1  6  0  0  0
  3 10  1  0  0  0  0
  5  9  1  1  0  0  0
  5  8  1  0  0  0  0
  6  3  1  0  0  0  0
  7  9  1  0  0  0  0
  8  2  1  1  0  0  0
 10  8  1  0  0  0  0
 10  4  1  1  0  0  0
 11  7  2  0  0  0  0
 12  6  1  6  0  0  0
 12  5  1  0  0  0  0
 14 13  1  6  0  0  0
 14  1  1  0  0  0  0
 15 19  1  0  0  0  0
 15 13  1  0  0  0  0
 16 18  1  0  0  0  0
 17 16  1  0  0  0  0
 17 15  1  0  0  0  0
 18 14  1  0  0  0  0
 20 15  1  0  0  0  0
 21 24  1  0  0  0  0
 22 26  1  0  0  0  0
 23 25  2  0  0  0  0
 24 22  2  0  0  0  0
 25 22  1  0  0  0  0
 27 23  1  0  0  0  0
 28 21  2  0  0  0  0
 28 23  1  0  0  0  0
M  END
>  <MODEL>
2

>  <REMARK>
 VINA RESULT:      -7.2      1.106      1.440
  Name = 
  2 active torsions:
  status: ('A' for Active; 'I' for Inactive)
    1  A    between atoms: C_1  and  C_3
    2  A    between atoms: C_10  and  C_13
                            x       y       z     vdW  Elec       q    Type
                         _______ _______ _______ _____ _____    ______ ____

>  <TORSDO>
F 2

$$$$
=
 OpenBabel11052422563D

 28 31  0  0  1  0  0  0  0  0999 V2000
  160.9050  205.7920  151.0570 C   0  0  1  0  0  3  0  0  0  0  0  0
  160.3260  207.1040  155.8300 C   0  0  0  0  0  1  0  0  0  0  0  0
  160.9690  209.2910  152.6880 C   0  0  2  0  0  3  0  0  0  0  0  0
  161.0610  209.9360  155.1070 C   0  0  0  0  0  1  0  0  0  0  0  0
  160.6440  206.4700  153.4390 C   0  0  2  0  0  3  0  0  0  0  0  0
  160.5900  208.2150  151.6750 C   0  0  0  0  0  2  0  0  0  0  0  0
  161.4360  204.1740  152.7960 C   0  0  0  0  0  3  0  0  0  0  0  0
  160.9840  207.5060  154.5170 C   0  0  1  0  0  3  0  0  0  0  0  0
  161.1660  205.1560  153.8010 N   0  0  0  0  0  2  0  0  0  0  0  0
  160.5160  208.9170  154.1140 C   0  0  2  0  0  3  0  0  0  0  0  0
  161.3360  204.4720  151.5350 N   0  0  0  0  0  0  0  0  0  0  0  0
  161.2130  206.8900  152.0850 C   0  0  2  0  0  3  0  0  0  0  0  0
  160.5830  205.7220  148.5350 C   0  0  0  0  0  2  0  0  0  0  0  0
  161.5210  206.0980  149.6910 C   0  0  1  0  0  3  0  0  0  0  0  0
  161.2850  205.8990  147.1850 C   0  0  0  0  0  0  0  0  0  0  0  0
  161.9950  208.0650  148.2740 C   0  0  0  0  0  2  0  0  0  0  0  0
  162.3410  207.0110  147.2210 C   0  0  0  0  0  2  0  0  0  0  0  0
  161.9600  207.5040  149.6350 N   0  0  0  0  0  2  0  0  0  0  0  0
  161.9610  204.5980  146.8020 C   0  0  0  0  0  1  0  0  0  0  0  0
  160.2440  206.2320  146.1360 C   0  0  0  0  0  1  0  0  0  0  0  0
  159.2510  211.1310  152.8230 C   0  0  0  0  0  3  0  0  0  0  0  0
  161.0740  211.3570  151.2360 C   0  0  0  0  0  0  0  0  0  0  0  0
  159.3870  213.0900  151.4110 C   0  0  0  0  0  0  0  0  0  0  0  0
  160.4250  210.6210  152.2450 C   0  0  0  0  0  0  0  0  0  0  0  0
  160.5520  212.5890  150.8260 C   0  0  0  0  0  3  0  0  0  0  0  0
  162.5400  210.7670  150.4660 Cl  0  0  0  0  0  0  0  0  0  0  0  0
  158.8870  214.2820  151.0090 F   0  0  0  0  0  0  0  0  0  0  0  0
  158.7360  212.3610  152.4070 C   0  0  0  0  0  3  0  0  0  0  0  0
  1 11  1  1  0  0  0
  1 12  1  0  0  0  0
  3 24  1  6  0  0  0
  3 10  1  0  0  0  0
  5  9  1  1  0  0  0
  5  8  1  0  0  0  0
  6  3  1  0  0  0  0
  7  9  1  0  0  0  0
  8  2  1  1  0  0  0
 10  8  1  0  0  0  0
 10  4  1  1  0  0  0
 11  7  2  0  0  0  0
 12  6  1  6  0  0  0
 12  5  1  0  0  0  0
 14 13  1  6  0  0  0
 14  1  1  0  0  0  0
 15 17  1  0  0  0  0
 15 13  1  0  0  0  0
 16 18  1  0  0  0  0
 17 16  1  0  0  0  0
 18 14  1  0  0  0  0
 19 15  1  0  0  0  0
 20 15  1  0  0  0  0
 22 24  1  0  0  0  0
 23 28  2  0  0  0  0
 24 21  2  0  0  0  0
 25 22  2  0  0  0  0
 25 23  1  0  0  0  0
 26 22  1  0  0  0  0
 27 23  1  0  0  0  0
 28 21  1  0  0  0  0
M  END
>  <MODEL>
3

>  <REMARK>
 VINA RESULT:      -7.1      1.293      1.636
  Name = 
  2 active torsions:
  status: ('A' for Active; 'I' for Inactive)
    1  A    between atoms: C_1  and  C_3
    2  A    between atoms: C_10  and  C_13
                            x       y       z     vdW  Elec       q    Type
                         _______ _______ _______ _____ _____    ______ ____

>  <TORSDO>
F 2

$$$$
=
 OpenBabel11052422563D

 28 31  0  0  1  0  0  0  0  0999 V2000
  161.6340  207.2470  152.4540 C   0  0  1  0  0  3  0  0  0  0  0  0
  161.3420  202.2890  152.0320 C   0  0  0  0  0  1  0  0  0  0  0  0
  160.8120  205.0680  149.3730 C   0  0  2  0  0  3  0  0  0  0  0  0
  160.2910  202.6220  149.2270 C   0  0  0  0  0  1  0  0  0  0  0  0
  161.4580  204.7730  152.2230 C   0  0  2  0  0  3  0  0  0  0  0  0
  161.4870  206.1760  150.1760 C   0  0  0  0  0  2  0  0  0  0  0  0
  161.1210  205.9250  154.4320 C   0  0  0  0  0  3  0  0  0  0  0  0
  160.8180  203.6030  151.4670 C   0  0  1  0  0  3  0  0  0  0  0  0
  161.0970  204.7340  153.6380 N   0  0  0  0  0  2  0  0  0  0  0  0
  161.1170  203.6740  149.9580 C   0  0  2  0  0  3  0  0  0  0  0  0
  161.3470  207.0820  153.8840 N   0  0  0  0  0  0  0  0  0  0  0  0
  161.0230  206.1090  151.6230 C   0  0  2  0  0  3  0  0  0  0  0  0
  160.8140  209.5580  153.1290 C   0  0  0  0  0  2  0  0  0  0  0  0
  161.1730  208.6210  151.9670 C   0  0  1  0  0  3  0  0  0  0  0  0
  160.2150  210.8680  152.6080 C   0  0  0  0  0  0  0  0  0  0  0  0
  162.1590  210.6730  151.0080 C   0  0  0  0  0  2  0  0  0  0  0  0
  160.7580  211.2450  151.2250 C   0  0  0  0  0  2  0  0  0  0  0  0
  162.1750  209.2010  151.0550 N   0  0  0  0  0  2  0  0  0  0  0  0
  158.7090  210.7240  152.5180 C   0  0  0  0  0  1  0  0  0  0  0  0
  160.5380  211.9750  153.5910 C   0  0  0  0  0  1  0  0  0  0  0  0
  161.4130  204.0210  147.1600 C   0  0  0  0  0  3  0  0  0  0  0  0
  161.3790  206.4420  147.3290 C   0  0  0  0  0  0  0  0  0  0  0  0
  161.9540  205.3730  145.2300 C   0  0  0  0  0  0  0  0  0  0  0  0
  161.2030  205.1790  147.9250 C   0  0  0  0  0  0  0  0  0  0  0  0
  161.7530  206.5320  145.9840 C   0  0  0  0  0  3  0  0  0  0  0  0
  161.1430  207.9290  148.2360 Cl  0  0  0  0  0  0  0  0  0  0  0  0
  162.3160  205.4680  143.9280 F   0  0  0  0  0  0  0  0  0  0  0  0
  161.7860  204.1190  145.8180 C   0  0  0  0  0  3  0  0  0  0  0  0
  1 11  1  1  0  0  0
  3 24  1  6  0  0  0
  3 10  1  0  0  0  0
  3  6  1  0  0  0  0
  5  9  1  1  0  0  0
  8  2  1  1  0  0  0
  8  5  1  0  0  0  0
  9  7  1  0  0  0  0
 10  4  1  6  0  0  0
 10  8  1  0  0  0  0
 11  7  2  0  0  0  0
 12  6  1  6  0  0  0
 12  5  1  0  0  0  0
 12  1  1  0  0  0  0
 14  1  1  0  0  0  0
 14 13  1  1  0  0  0
 15 13  1  0  0  0  0
 15 20  1  0  0  0  0
 16 18  1  0  0  0  0
 16 17  1  0  0  0  0
 17 15  1  0  0  0  0
 18 14  1  0  0  0  0
 19 15  1  0  0  0  0
 21 24  1  0  0  0  0
 22 24  2  0  0  0  0
 22 26  1  0  0  0  0
 23 28  1  0  0  0  0
 23 25  2  0  0  0  0
 25 22  1  0  0  0  0
 27 23  1  0  0  0  0
 28 21  2  0  0  0  0
M  END
>  <MODEL>
4

>  <REMARK>
 VINA RESULT:      -7.0      2.580      6.637
  Name = 
  2 active torsions:
  status: ('A' for Active; 'I' for Inactive)
    1  A    between atoms: C_1  and  C_3
    2  A    between atoms: C_10  and  C_13
                            x       y       z     vdW  Elec       q    Type
                         _______ _______ _______ _____ _____    ______ ____

>  <TORSDO>
F 2

$$$$
=
 OpenBabel11052422563D

 28 31  0  0  1  0  0  0  0  0999 V2000
  161.9630  209.9080  151.0400 C   0  0  1  0  0  3  0  0  0  0  0  0
  161.2890  205.7220  153.6590 C   0  0  0  0  0  1  0  0  0  0  0  0
  160.8230  206.4100  149.8670 C   0  0  2  0  0  3  0  0  0  0  0  0
  160.1180  204.4160  151.2080 C   0  0  0  0  0  1  0  0  0  0  0  0
  161.5950  207.8110  152.3300 C   0  0  2  0  0  3  0  0  0  0  0  0
  161.6180  207.7120  149.8510 C   0  0  0  0  0  2  0  0  0  0  0  0
  161.4600  210.0740  153.4150 C   0  0  0  0  0  3  0  0  0  0  0  0
  160.8330  206.4830  152.4210 C   0  0  1  0  0  3  0  0  0  0  0  0
  161.3080  208.6530  153.4880 N   0  0  0  0  0  2  0  0  0  0  0  0
  161.0560  205.6170  151.1680 C   0  0  2  0  0  3  0  0  0  0  0  0
  161.7410  210.6520  152.2860 N   0  0  0  0  0  0  0  0  0  0  0  0
  161.2280  208.5610  151.0510 C   0  0  2  0  0  3  0  0  0  0  0  0
  161.2610  212.2100  150.2160 C   0  0  0  0  0  2  0  0  0  0  0  0
  161.5780  210.7590  149.8280 C   0  0  1  0  0  3  0  0  0  0  0  0
  160.7360  212.9940  149.0090 C   0  0  0  0  0  0  0  0  0  0  0  0
  162.6790  211.8290  147.8930 C   0  0  0  0  0  2  0  0  0  0  0  0
  161.3080  212.4740  147.6850 C   0  0  0  0  0  2  0  0  0  0  0  0
  162.6160  210.6600  148.7870 N   0  0  0  0  0  2  0  0  0  0  0  0
  159.2250  212.8820  148.9640 C   0  0  0  0  0  1  0  0  0  0  0  0
  161.1090  214.4520  149.1770 C   0  0  0  0  0  1  0  0  0  0  0  0
  161.2720  204.2080  148.7250 C   0  0  0  0  0  3  0  0  0  0  0  0
  161.3380  206.2400  147.3980 C   0  0  0  0  0  0  0  0  0  0  0  0
  161.7650  204.0900  146.3610 C   0  0  0  0  0  0  0  0  0  0  0  0
  161.1440  205.6040  148.6380 C   0  0  0  0  0  0  0  0  0  0  0  0
  161.6460  205.4780  146.2650 C   0  0  0  0  0  3  0  0  0  0  0  0
  161.2030  207.9830  147.2270 Cl  0  0  0  0  0  0  0  0  0  0  0  0
  162.0640  203.3590  145.2600 F   0  0  0  0  0  0  0  0  0  0  0  0
  161.5800  203.4550  147.5890 C   0  0  0  0  0  3  0  0  0  0  0  0
  1 12  1  0  0  0  0
  1 11  1  1  0  0  0
  3 24  1  6  0  0  0
  3 10  1  0  0  0  0
  5  8  1  0  0  0  0
  5  9  1  1  0  0  0
  6  3  1  0  0  0  0
  7  9  1  0  0  0  0
  8  2  1  1  0  0  0
 10  4  1  1  0  0  0
 10  8  1  0  0  0  0
 11  7  2  0  0  0  0
 12  6  1  6  0  0  0
 12  5  1  0  0  0  0
 14 13  1  1  0  0  0
 14  1  1  0  0  0  0
 15 20  1  0  0  0  0
 15 13  1  0  0  0  0
 16 18  1  0  0  0  0
 17 16  1  0  0  0  0
 17 15  1  0  0  0  0
 18 14  1  0  0  0  0
 19 15  1  0  0  0  0
 22 24  2  0  0  0  0
 23 28  1  0  0  0  0
 24 21  1  0  0  0  0
 25 23  2  0  0  0  0
 25 22  1  0  0  0  0
 26 22  1  0  0  0  0
 27 23  1  0  0  0  0
 28 21  2  0  0  0  0
M  END
>  <MODEL>
5

>  <REMARK>
 VINA RESULT:      -7.0      3.019      6.611
  Name = 
  2 active torsions:
  status: ('A' for Active; 'I' for Inactive)
    1  A    between atoms: C_1  and  C_3
    2  A    between atoms: C_10  and  C_13
                            x       y       z     vdW  Elec       q    Type
                         _______ _______ _______ _____ _____    ______ ____

>  <TORSDO>
F 2

$$$$
=
 OpenBabel11052422563D

 28 31  0  0  1  0  0  0  0  0999 V2000
  159.6870  210.6580  152.9980 C   0  0  1  0  0  3  0  0  0  0  0  0
  161.9180  210.5820  148.5420 C   0  0  0  0  0  1  0  0  0  0  0  0
  161.5840  207.7990  151.2270 C   0  0  2  0  0  3  0  0  0  0  0  0
  163.0250  207.8520  149.1780 C   0  0  0  0  0  1  0  0  0  0  0  0
  160.8300  210.6030  150.7860 C   0  0  2  0  0  3  0  0  0  0  0  0
  160.4580  208.4730  152.0040 C   0  0  0  0  0  2  0  0  0  0  0  0
  160.4780  212.7520  152.0410 C   0  0  0  0  0  3  0  0  0  0  0  0
  161.9440  209.9760  149.9390 C   0  0  1  0  0  3  0  0  0  0  0  0
  161.0390  212.0410  150.9330 N   0  0  0  0  0  2  0  0  0  0  0  0
  161.7890  208.4470  149.8430 C   0  0  2  0  0  3  0  0  0  0  0  0
  159.8750  212.1140  153.0000 N   0  0  0  0  0  0  0  0  0  0  0  0
  160.7690  209.9530  152.1670 C   0  0  2  0  0  3  0  0  0  0  0  0
  160.8780  209.3170  154.8020 C   0  0  0  0  0  2  0  0  0  0  0  0
  159.6240  210.1200  154.4280 C   0  0  1  0  0  3  0  0  0  0  0  0
  160.7180  208.6680  156.1800 C   0  0  0  0  0  0  0  0  0  0  0  0
  159.8420  210.9710  156.7370 C   0  0  0  0  0  2  0  0  0  0  0  0
  159.8110  209.4870  157.1060 C   0  0  0  0  0  2  0  0  0  0  0  0
  159.3460  211.2170  155.3720 N   0  0  0  0  0  2  0  0  0  0  0  0
  160.1210  207.2850  156.0120 C   0  0  0  0  0  1  0  0  0  0  0  0
  162.0870  208.5320  156.8140 C   0  0  0  0  0  1  0  0  0  0  0  0
  160.8390  205.7630  149.9390 C   0  0  0  0  0  3  0  0  0  0  0  0
  161.5430  205.4860  152.2460 C   0  0  0  0  0  0  0  0  0  0  0  0
  160.8100  203.5690  150.9540 C   0  0  0  0  0  0  0  0  0  0  0  0
  161.3230  206.3200  151.1340 C   0  0  0  0  0  0  0  0  0  0  0  0
  161.2870  204.1140  152.1490 C   0  0  0  0  0  3  0  0  0  0  0  0
  162.1370  206.1240  153.7720 Cl  0  0  0  0  0  0  0  0  0  0  0  0
  160.5640  202.2400  150.8680 F   0  0  0  0  0  0  0  0  0  0  0  0
  160.5850  204.3930  149.8510 C   0  0  0  0  0  3  0  0  0  0  0  0
  1 11  1  1  0  0  0
  1 14  1  0  0  0  0
  3 24  1  6  0  0  0
  3  6  1  0  0  0  0
  5  9  1  1  0  0  0
  5 12  1  0  0  0  0
  7 11  2  0  0  0  0
  8  2  1  6  0  0  0
  8  5  1  0  0  0  0
  9  7  1  0  0  0  0
 10  4  1  1  0  0  0
 10  8  1  0  0  0  0
 10  3  1  0  0  0  0
 12  6  1  6  0  0  0
 12  1  1  0  0  0  0
 13 15  1  0  0  0  0
 14 13  1  1  0  0  0
 14 18  1  0  0  0  0
 15 20  1  0  0  0  0
 15 17  1  0  0  0  0
 16 17  1  0  0  0  0
 18 16  1  0  0  0  0
 19 15  1  0  0  0  0
 21 24  1  0  0  0  0
 22 26  1  0  0  0  0
 23 25  2  0  0  0  0
 24 22  2  0  0  0  0
 25 22  1  0  0  0  0
 27 23  1  0  0  0  0
 28 21  2  0  0  0  0
 28 23  1  0  0  0  0
M  END
>  <MODEL>
6

>  <REMARK>
 VINA RESULT:      -6.5      3.998      7.882
  Name = 
  2 active torsions:
  status: ('A' for Active; 'I' for Inactive)
    1  A    between atoms: C_1  and  C_3
    2  A    between atoms: C_10  and  C_13
                            x       y       z     vdW  Elec       q    Type
                         _______ _______ _______ _____ _____    ______ ____

>  <TORSDO>
F 2

$$$$
=
 OpenBabel11052422563D

 28 31  0  0  1  0  0  0  0  0999 V2000
  160.7400  205.7250  149.3840 C   0  0  1  0  0  3  0  0  0  0  0  0
  161.2010  207.5970  153.9800 C   0  0  0  0  0  1  0  0  0  0  0  0
  161.9820  209.1970  150.5310 C   0  0  2  0  0  3  0  0  0  0  0  0
  162.5760  210.0160  152.8230 C   0  0  0  0  0  1  0  0  0  0  0  0
  161.0030  206.6740  151.6720 C   0  0  2  0  0  3  0  0  0  0  0  0
  161.1880  208.1850  149.7110 C   0  0  0  0  0  2  0  0  0  0  0  0
  161.0410  204.1960  151.2540 C   0  0  0  0  0  3  0  0  0  0  0  0
  161.7570  207.6660  152.5640 C   0  0  1  0  0  3  0  0  0  0  0  0
  161.1900  205.3060  152.1450 N   0  0  0  0  0  2  0  0  0  0  0  0
  161.6430  209.1070  152.0320 C   0  0  2  0  0  3  0  0  0  0  0  0
  160.8550  204.3890  149.9820 N   0  0  0  0  0  0  0  0  0  0  0  0
  161.4750  206.7810  150.2220 C   0  0  2  0  0  3  0  0  0  0  0  0
  161.4150  204.2830  147.4010 C   0  0  0  0  0  2  0  0  0  0  0  0
  161.2230  205.7100  147.9330 C   0  0  1  0  0  3  0  0  0  0  0  0
  162.0400  204.3030  146.0030 C   0  0  0  0  0  0  0  0  0  0  0  0
  160.3110  206.1140  145.6740 C   0  0  0  0  0  2  0  0  0  0  0  0
  161.6610  205.5620  145.2140 C   0  0  0  0  0  2  0  0  0  0  0  0
  160.3260  206.5190  147.0890 N   0  0  0  0  0  2  0  0  0  0  0  0
  163.5490  204.2470  146.1340 C   0  0  0  0  0  1  0  0  0  0  0  0
  161.5740  203.0780  145.2440 C   0  0  0  0  0  1  0  0  0  0  0  0
  161.0160  211.5200  150.7010 C   0  0  0  0  0  3  0  0  0  0  0  0
  162.2990  210.9360  148.7240 C   0  0  0  0  0  0  0  0  0  0  0  0
  161.3400  213.1520  148.9460 C   0  0  0  0  0  0  0  0  0  0  0  0
  161.7670  210.5790  149.9780 C   0  0  0  0  0  0  0  0  0  0  0  0
  162.0840  212.2220  148.2170 C   0  0  0  0  0  3  0  0  0  0  0  0
  163.2380  209.8010  147.7660 Cl  0  0  0  0  0  0  0  0  0  0  0  0
  161.1350  214.3950  148.4480 F   0  0  0  0  0  0  0  0  0  0  0  0
  160.8050  212.8010  150.1860 C   0  0  0  0  0  3  0  0  0  0  0  0
  1 11  1  1  0  0  0
  1 12  1  0  0  0  0
  3 24  1  6  0  0  0
  3 10  1  0  0  0  0
  5  9  1  1  0  0  0
  5  8  1  0  0  0  0
  6  3  1  0  0  0  0
  7  9  1  0  0  0  0
  8  2  1  1  0  0  0
 10  8  1  0  0  0  0
 10  4  1  1  0  0  0
 11  7  2  0  0  0  0
 12  6  1  6  0  0  0
 12  5  1  0  0  0  0
 14 13  1  6  0  0  0
 14  1  1  0  0  0  0
 15 19  1  0  0  0  0
 15 13  1  0  0  0  0
 16 18  1  0  0  0  0
 17 16  1  0  0  0  0
 17 15  1  0  0  0  0
 18 14  1  0  0  0  0
 20 15  1  0  0  0  0
 22 24  1  0  0  0  0
 23 28  2  0  0  0  0
 24 21  2  0  0  0  0
 25 22  2  0  0  0  0
 25 23  1  0  0  0  0
 26 22  1  0  0  0  0
 27 23  1  0  0  0  0
 28 21  1  0  0  0  0
M  END
>  <MODEL>
7

>  <REMARK>
 VINA RESULT:      -6.5      0.963      1.101
  Name = 
  2 active torsions:
  status: ('A' for Active; 'I' for Inactive)
    1  A    between atoms: C_1  and  C_3
    2  A    between atoms: C_10  and  C_13
                            x       y       z     vdW  Elec       q    Type
                         _______ _______ _______ _____ _____    ______ ____

>  <TORSDO>
F 2

$$$$
=
 OpenBabel11052422563D

 28 31  0  0  1  0  0  0  0  0999 V2000
  161.7840  206.4970  151.7770 C   0  0  1  0  0  3  0  0  0  0  0  0
  161.2570  201.6890  150.5770 C   0  0  0  0  0  1  0  0  0  0  0  0
  160.7030  204.8820  148.4410 C   0  0  2  0  0  3  0  0  0  0  0  0
  160.0690  202.5130  147.9320 C   0  0  0  0  0  1  0  0  0  0  0  0
  161.4890  204.1020  151.1610 C   0  0  2  0  0  3  0  0  0  0  0  0
  161.4670  205.8200  149.3700 C   0  0  0  0  0  2  0  0  0  0  0  0
  161.3230  204.8860  153.5430 C   0  0  0  0  0  3  0  0  0  0  0  0
  160.7600  203.0940  150.2650 C   0  0  1  0  0  3  0  0  0  0  0  0
  161.2050  203.8440  152.5690 N   0  0  0  0  0  2  0  0  0  0  0  0
  160.9780  203.4020  148.7720 C   0  0  2  0  0  3  0  0  0  0  0  0
  161.5690  206.1090  153.1770 N   0  0  0  0  0  0  0  0  0  0  0  0
  161.0800  205.5330  150.8120 C   0  0  2  0  0  3  0  0  0  0  0  0
  161.2630  208.7380  152.8610 C   0  0  0  0  0  2  0  0  0  0  0  0
  161.3570  207.9470  151.5480 C   0  0  1  0  0  3  0  0  0  0  0  0
  160.6900  210.1370  152.6140 C   0  0  0  0  0  0  0  0  0  0  0  0
  162.3300  210.0510  150.6950 C   0  0  0  0  0  2  0  0  0  0  0  0
  161.0290  210.6660  151.2160 C   0  0  0  0  0  2  0  0  0  0  0  0
  162.2400  208.5880  150.5580 N   0  0  0  0  0  2  0  0  0  0  0  0
  159.1820  210.0890  152.7640 C   0  0  0  0  0  1  0  0  0  0  0  0
  161.2500  211.0830  153.6560 C   0  0  0  0  0  1  0  0  0  0  0  0
  160.0790  205.9010  146.2210 C   0  0  0  0  0  3  0  0  0  0  0  0
  162.2470  204.8300  146.4400 C   0  0  0  0  0  0  0  0  0  0  0  0
  161.5850  205.8250  144.3300 C   0  0  0  0  0  0  0  0  0  0  0  0
  161.0180  205.2170  147.0080 C   0  0  0  0  0  0  0  0  0  0  0  0
  162.5230  205.1390  145.1030 C   0  0  0  0  0  3  0  0  0  0  0  0
  163.4580  203.9610  147.3700 Cl  0  0  0  0  0  0  0  0  0  0  0  0
  161.8590  206.1200  143.0370 F   0  0  0  0  0  0  0  0  0  0  0  0
  160.3630  206.2050  144.8870 C   0  0  0  0  0  3  0  0  0  0  0  0
  1 11  1  1  0  0  0
  3 24  1  6  0  0  0
  3 10  1  0  0  0  0
  3  6  1  0  0  0  0
  5  9  1  1  0  0  0
  8  2  1  6  0  0  0
  8  5  1  0  0  0  0
  9  7  1  0  0  0  0
 10  4  1  6  0  0  0
 10  8  1  0  0  0  0
 11  7  2  0  0  0  0
 12  6  1  6  0  0  0
 12  5  1  0  0  0  0
 12  1  1  0  0  0  0
 14  1  1  0  0  0  0
 14 13  1  1  0  0  0
 15 19  1  0  0  0  0
 15 13  1  0  0  0  0
 15 20  1  0  0  0  0
 16 17  1  0  0  0  0
 17 15  1  0  0  0  0
 18 16  1  0  0  0  0
 18 14  1  0  0  0  0
 21 24  1  0  0  0  0
 22 24  2  0  0  0  0
 22 26  1  0  0  0  0
 23 28  1  0  0  0  0
 23 25  2  0  0  0  0
 25 22  1  0  0  0  0
 27 23  1  0  0  0  0
 28 21  2  0  0  0  0
M  END
>  <MODEL>
8

>  <REMARK>
 VINA RESULT:      -6.4      2.794      6.718
  Name = 
  2 active torsions:
  status: ('A' for Active; 'I' for Inactive)
    1  A    between atoms: C_1  and  C_3
    2  A    between atoms: C_10  and  C_13
                            x       y       z     vdW  Elec       q    Type
                         _______ _______ _______ _____ _____    ______ ____

>  <TORSDO>
F 2

$$$$
=
 OpenBabel11052422563D

 28 31  0  0  1  0  0  0  0  0999 V2000
  162.3550  210.1470  150.1050 C   0  0  1  0  0  3  0  0  0  0  0  0
  161.7580  205.5810  152.0120 C   0  0  0  0  0  1  0  0  0  0  0  0
  160.9550  206.9430  148.4660 C   0  0  2  0  0  3  0  0  0  0  0  0
  160.2980  204.7610  149.5070 C   0  0  0  0  0  1  0  0  0  0  0  0
  162.0230  207.8640  151.0430 C   0  0  2  0  0  3  0  0  0  0  0  0
  161.8010  208.2060  148.5950 C   0  0  0  0  0  2  0  0  0  0  0  0
  162.0940  209.9010  152.5120 C   0  0  0  0  0  3  0  0  0  0  0  0
  161.2170  206.5620  150.9790 C   0  0  1  0  0  3  0  0  0  0  0  0
  161.8880  208.4940  152.3530 N   0  0  0  0  0  2  0  0  0  0  0  0
  161.2790  205.9250  149.5790 C   0  0  2  0  0  3  0  0  0  0  0  0
  162.2880  210.6640  151.4780 N   0  0  0  0  0  0  0  0  0  0  0  0
  161.5660  208.8380  149.9580 C   0  0  2  0  0  3  0  0  0  0  0  0
  160.8860  212.1890  149.7270 C   0  0  0  0  0  2  0  0  0  0  0  0
  161.8910  211.2090  149.1070 C   0  0  1  0  0  3  0  0  0  0  0  0
  160.3290  213.1420  148.6660 C   0  0  0  0  0  0  0  0  0  0  0  0
  162.7720  213.2530  148.0360 C   0  0  0  0  0  2  0  0  0  0  0  0
  161.3340  213.4090  147.5400 C   0  0  0  0  0  2  0  0  0  0  0  0
  163.0550  211.8880  148.5090 N   0  0  0  0  0  2  0  0  0  0  0  0
  159.0740  212.5400  148.0660 C   0  0  0  0  0  1  0  0  0  0  0  0
  159.9660  214.4530  149.3330 C   0  0  0  0  0  1  0  0  0  0  0  0
  160.0400  206.3560  146.1920 C   0  0  0  0  0  3  0  0  0  0  0  0
  162.3470  205.7940  146.6970 C   0  0  0  0  0  0  0  0  0  0  0  0
  161.4050  205.2510  144.5300 C   0  0  0  0  0  0  0  0  0  0  0  0
  161.1190  206.3590  147.0900 C   0  0  0  0  0  0  0  0  0  0  0  0
  162.4830  205.2450  145.4170 C   0  0  0  0  0  3  0  0  0  0  0  0
  163.7310  205.7580  147.7790 Cl  0  0  0  0  0  0  0  0  0  0  0  0
  161.5440  204.7170  143.2930 F   0  0  0  0  0  0  0  0  0  0  0  0
  160.1840  205.8040  144.9170 C   0  0  0  0  0  3  0  0  0  0  0  0
  1 11  1  1  0  0  0
  3 24  1  6  0  0  0
  3  6  1  0  0  0  0
  3 10  1  0  0  0  0
  5  9  1  1  0  0  0
  8  5  1  0  0  0  0
  8  2  1  1  0  0  0
  9  7  1  0  0  0  0
 10  4  1  1  0  0  0
 10  8  1  0  0  0  0
 11  7  2  0  0  0  0
 12  6  1  6  0  0  0
 12  1  1  0  0  0  0
 12  5  1  0  0  0  0
 14 13  1  1  0  0  0
 14  1  1  0  0  0  0
 15 20  1  0  0  0  0
 15 13  1  0  0  0  0
 16 18  1  0  0  0  0
 17 16  1  0  0  0  0
 17 15  1  0  0  0  0
 18 14  1  0  0  0  0
 19 15  1  0  0  0  0
 21 24  1  0  0  0  0
 22 24  2  0  0  0  0
 22 26  1  0  0  0  0
 23 28  1  0  0  0  0
 23 25  2  0  0  0  0
 25 22  1  0  0  0  0
 27 23  1  0  0  0  0
 28 21  2  0  0  0  0
M  END
>  <MODEL>
9

>  <REMARK>
 VINA RESULT:      -6.3      3.208      6.861
  Name = 
  2 active torsions:
  status: ('A' for Active; 'I' for Inactive)
    1  A    between atoms: C_1  and  C_3
    2  A    between atoms: C_10  and  C_13
                            x       y       z     vdW  Elec       q    Type
                         _______ _______ _______ _____ _____    ______ ____

>  <TORSDO>
F 2

$$$$
