=
 OpenBabel11062408293D

 32 37  0  0  1  0  0  0  0  0999 V2000
  161.8450  209.7300  151.0030 C   0  0  2  0  0  3  0  0  0  0  0  0
  161.1380  210.0590  153.4860 C   0  0  2  0  0  3  0  0  0  0  0  0
  161.1100  208.7060  150.1300 C   0  0  0  0  0  2  0  0  0  0  0  0
  161.9450  209.2790  152.4860 C   0  0  1  0  0  3  0  0  0  0  0  0
  161.2490  209.5680  154.9180 C   0  0  1  0  0  3  0  0  0  0  0  0
  156.8160  212.1490  154.3670 C   0  0  0  0  0  2  0  0  0  0  0  0
  160.2690  211.0140  153.1060 C   0  0  0  0  0  0  0  0  0  0  0  0
  158.2010  211.4620  156.3610 C   0  0  0  0  0  2  0  0  0  0  0  0
  159.0570  210.7540  155.3030 C   0  0  2  0  0  3  0  0  0  0  0  0
  161.5660  207.7990  152.6710 C   0  0  2  0  0  3  0  0  0  0  0  0
  160.3790  210.3360  155.9210 C   0  0  0  0  0  2  0  0  0  0  0  0
  161.9070  207.3540  154.0190 N   0  0  0  0  0  2  0  0  0  0  0  0
  162.2430  206.9360  151.6160 C   0  0  0  0  0  2  0  0  0  0  0  0
  160.3350  211.5360  151.7780 N   0  0  0  0  0  0  0  0  0  0  0  0
  161.2660  211.0680  150.8380 N   0  0  0  0  0  0  0  0  0  0  0  0
  159.3280  211.6610  154.0940 C   0  0  2  0  0  3  0  0  0  0  0  0
  161.0240  208.0430  154.9710 C   0  0  1  0  0  3  0  0  0  0  0  0
  161.8000  207.3360  150.1980 C   0  0  0  0  0  2  0  0  0  0  0  0
  157.2590  212.5230  155.7770 C   0  0  0  0  0  2  0  0  0  0  0  0
  158.0120  212.0770  153.4110 C   0  0  0  0  0  2  0  0  0  0  0  0
  160.3060  213.3570  148.0780 C   0  0  0  0  0  0  0  0  0  0  0  0
  162.8100  213.3740  145.6590 O   0  0  0  0  0  1  0  0  0  0  0  0
  159.4810  214.4530  147.8460 O   0  0  0  0  0  1  0  0  0  0  0  0
  163.1030  212.2600  147.7060 C   0  0  0  0  0  3  0  0  0  0  0  0
  161.5410  211.8620  149.6610 C   0  0  0  0  0  0  0  0  0  0  0  0
  160.8010  212.5940  146.8960 C   0  0  0  0  0  2  0  0  0  0  0  0
  162.6610  211.6060  148.9530 C   0  0  0  0  0  3  0  0  0  0  0  0
  160.6420  213.0130  149.3340 C   0  0  0  0  0  0  0  0  0  0  0  0
  160.1160  213.8390  150.4660 C   0  0  0  0  0  1  0  0  0  0  0  0
  162.2800  212.7430  146.7760 C   0  0  0  0  0  0  0  0  0  0  0  0
  161.2420  207.4780  156.3740 C   0  0  0  0  0  2  0  0  0  0  0  0
  160.0050  206.9340  156.9110 N   0  0  0  0  0  1  0  0  0  0  0  0
  1  3  1  6  0  0  0
  1  4  1  0  0  0  0
  2  7  1  6  0  0  0
  2  5  1  0  0  0  0
  3 18  1  0  0  0  0
  4 10  1  0  0  0  0
  4  2  1  0  0  0  0
  5 17  1  0  0  0  0
  5 11  1  0  0  0  0
  6 19  1  0  0  0  0
  7 16  1  0  0  0  0
  9 11  1  0  0  0  0
  9  8  1  0  0  0  0
 10 12  1  0  0  0  0
 12 17  1  0  0  0  0
 13 10  1  0  0  0  0
 14  7  2  0  0  0  0
 15  1  1  0  0  0  0
 15 14  1  0  0  0  0
 16  9  1  0  0  0  0
 17 31  1  0  0  0  0
 18 13  1  0  0  0  0
 19  8  1  0  0  0  0
 20 16  1  0  0  0  0
 20  6  1  0  0  0  0
 21 28  2  0  0  0  0
 22 30  1  0  0  0  0
 23 21  1  0  0  0  0
 24 27  1  0  0  0  0
 25 15  1  0  0  0  0
 26 21  1  0  0  0  0
 27 25  2  0  0  0  0
 28 25  1  0  0  0  0
 28 29  1  0  0  0  0
 30 26  1  0  0  0  0
 30 24  2  0  0  0  0
 31 32  1  0  0  0  0
M  END
>  <MODEL>
1

>  <REMARK>
 VINA RESULT:      -6.2      0.000      0.000
  Name = 
  2 active torsions:
  status: ('A' for Active; 'I' for Inactive)
    1  A    between atoms: C_13  and  C_29
    2  A    between atoms: C_16  and  N_27
                            x       y       z     vdW  Elec       q    Type
                         _______ _______ _______ _____ _____    ______ ____

>  <TORSDO>
F 2

$$$$
=
 OpenBabel11062408293D

 32 37  0  0  1  0  0  0  0  0999 V2000
  162.0220  210.3600  149.7950 C   0  0  2  0  0  3  0  0  0  0  0  0
  161.3740  210.5580  152.3080 C   0  0  2  0  0  3  0  0  0  0  0  0
  161.2650  209.3850  148.8860 C   0  0  0  0  0  2  0  0  0  0  0  0
  162.1570  209.8310  151.2490 C   0  0  1  0  0  3  0  0  0  0  0  0
  161.5170  209.9910  153.7090 C   0  0  1  0  0  3  0  0  0  0  0  0
  157.0770  212.6010  153.3990 C   0  0  0  0  0  2  0  0  0  0  0  0
  160.4990  211.5320  152.0000 C   0  0  0  0  0  0  0  0  0  0  0  0
  158.5070  211.8080  155.3200 C   0  0  0  0  0  2  0  0  0  0  0  0
  159.3370  211.1570  154.2070 C   0  0  2  0  0  3  0  0  0  0  0  0
  161.7790  208.3440  151.3650 C   0  0  2  0  0  3  0  0  0  0  0  0
  160.6720  210.7050  154.7710 C   0  0  0  0  0  2  0  0  0  0  0  0
  162.1500  207.8280  152.6790 N   0  0  0  0  0  2  0  0  0  0  0  0
  162.4290  207.5380  150.2500 C   0  0  0  0  0  2  0  0  0  0  0  0
  160.5350  212.1240  150.7000 N   0  0  0  0  0  0  0  0  0  0  0  0
  161.4430  211.7060  149.7140 N   0  0  0  0  0  0  0  0  0  0  0  0
  159.5820  212.1260  153.0420 C   0  0  2  0  0  3  0  0  0  0  0  0
  161.2910  208.4650  153.6850 C   0  0  1  0  0  3  0  0  0  0  0  0
  161.9540  208.0130  148.8650 C   0  0  0  0  0  2  0  0  0  0  0  0
  157.5530  212.8990  154.8160 C   0  0  0  0  0  2  0  0  0  0  0  0
  158.2510  212.5780  152.4130 C   0  0  0  0  0  2  0  0  0  0  0  0
  160.4010  213.6320  146.7180 C   0  0  0  0  0  0  0  0  0  0  0  0
  163.2070  214.4390  144.8220 O   0  0  0  0  0  1  0  0  0  0  0  0
  159.3470  214.4300  146.2810 O   0  0  0  0  0  1  0  0  0  0  0  0
  163.4140  213.4390  146.9370 C   0  0  0  0  0  3  0  0  0  0  0  0
  161.6910  212.5610  148.5750 C   0  0  0  0  0  0  0  0  0  0  0  0
  161.3220  213.0700  145.6890 C   0  0  0  0  0  2  0  0  0  0  0  0
  162.9530  212.6660  148.1060 C   0  0  0  0  0  3  0  0  0  0  0  0
  160.5710  213.3890  148.0290 C   0  0  0  0  0  0  0  0  0  0  0  0
  159.6110  214.0020  149.0000 C   0  0  0  0  0  1  0  0  0  0  0  0
  162.6830  213.6630  145.8460 C   0  0  0  0  0  0  0  0  0  0  0  0
  161.5400  207.8270  155.0510 C   0  0  0  0  0  2  0  0  0  0  0  0
  160.3360  207.1800  155.5480 N   0  0  0  0  0  1  0  0  0  0  0  0
  1  3  1  6  0  0  0
  1  4  1  0  0  0  0
  2  7  1  6  0  0  0
  2  5  1  0  0  0  0
  4 10  1  0  0  0  0
  4  2  1  0  0  0  0
  5 11  1  0  0  0  0
  6 19  1  0  0  0  0
  7 16  1  0  0  0  0
  9 11  1  0  0  0  0
  9  8  1  0  0  0  0
 10 12  1  0  0  0  0
 12 17  1  0  0  0  0
 13 10  1  0  0  0  0
 14  7  2  0  0  0  0
 15  1  1  0  0  0  0
 15 14  1  0  0  0  0
 16  9  1  0  0  0  0
 17  5  1  0  0  0  0
 17 31  1  0  0  0  0
 18  3  1  0  0  0  0
 18 13  1  0  0  0  0
 19  8  1  0  0  0  0
 20 16  1  0  0  0  0
 20  6  1  0  0  0  0
 21 28  2  0  0  0  0
 22 30  1  0  0  0  0
 23 21  1  0  0  0  0
 24 27  1  0  0  0  0
 25 15  1  0  0  0  0
 26 30  1  0  0  0  0
 26 21  1  0  0  0  0
 27 25  2  0  0  0  0
 28 25  1  0  0  0  0
 28 29  1  0  0  0  0
 30 24  2  0  0  0  0
 31 32  1  0  0  0  0
M  END
>  <MODEL>
2

>  <REMARK>
 VINA RESULT:      -5.1      1.188      1.347
  Name = 
  2 active torsions:
  status: ('A' for Active; 'I' for Inactive)
    1  A    between atoms: C_13  and  C_29
    2  A    between atoms: C_16  and  N_27
                            x       y       z     vdW  Elec       q    Type
                         _______ _______ _______ _____ _____    ______ ____

>  <TORSDO>
F 2

$$$$
=
 OpenBabel11062408293D

 32 37  0  0  1  0  0  0  0  0999 V2000
  161.6300  209.6480  150.7160 C   0  0  2  0  0  3  0  0  0  0  0  0
  160.9390  207.1950  150.1860 C   0  0  2  0  0  3  0  0  0  0  0  0
  162.9890  209.9350  151.3650 C   0  0  0  0  0  2  0  0  0  0  0  0
  161.0160  208.3050  151.1980 C   0  0  1  0  0  3  0  0  0  0  0  0
  160.3540  205.8950  150.7090 C   0  0  1  0  0  3  0  0  0  0  0  0
  163.3300  204.8740  146.6190 C   0  0  0  0  0  2  0  0  0  0  0  0
  161.4930  207.3090  148.9650 C   0  0  0  0  0  0  0  0  0  0  0  0
  161.5130  203.6000  147.8200 C   0  0  0  0  0  2  0  0  0  0  0  0
  161.5510  204.7940  148.7820 C   0  0  2  0  0  3  0  0  0  0  0  0
  161.7510  207.7350  152.4230 C   0  0  2  0  0  3  0  0  0  0  0  0
  160.3320  204.7530  149.6850 C   0  0  0  0  0  2  0  0  0  0  0  0
  161.0020  206.6170  152.9890 N   0  0  0  0  0  2  0  0  0  0  0  0
  161.9890  208.8240  153.4600 C   0  0  0  0  0  2  0  0  0  0  0  0
  161.8740  208.5980  148.4840 N   0  0  0  0  0  0  0  0  0  0  0  0
  161.7140  209.7600  149.2550 N   0  0  0  0  0  0  0  0  0  0  0  0
  161.5770  206.1290  148.0260 C   0  0  2  0  0  3  0  0  0  0  0  0
  161.0410  205.5030  152.0330 C   0  0  1  0  0  3  0  0  0  0  0  0
  162.8690  209.9520  152.8950 C   0  0  0  0  0  2  0  0  0  0  0  0
  162.1850  203.8790  146.4690 C   0  0  0  0  0  2  0  0  0  0  0  0
  162.8230  206.2290  147.1260 C   0  0  0  0  0  2  0  0  0  0  0  0
  160.2180  212.9550  148.1010 C   0  0  0  0  0  0  0  0  0  0  0  0
  162.3280  214.4510  145.7710 O   0  0  0  0  0  1  0  0  0  0  0  0
  159.3040  213.9140  148.5260 O   0  0  0  0  0  1  0  0  0  0  0  0
  162.9890  212.5340  146.9570 C   0  0  0  0  0  3  0  0  0  0  0  0
  161.7620  211.0510  148.6050 C   0  0  0  0  0  0  0  0  0  0  0  0
  160.5760  212.9250  146.6540 C   0  0  0  0  0  2  0  0  0  0  0  0
  162.7780  211.3110  147.7550 C   0  0  0  0  0  3  0  0  0  0  0  0
  160.7570  212.0930  148.9820 C   0  0  0  0  0  0  0  0  0  0  0  0
  160.3570  212.1980  150.4200 C   0  0  0  0  0  1  0  0  0  0  0  0
  162.0100  213.2990  146.4760 C   0  0  0  0  0  0  0  0  0  0  0  0
  160.4080  204.2640  152.6630 C   0  0  0  0  0  2  0  0  0  0  0  0
  161.1210  203.0590  152.2670 N   0  0  0  0  0  1  0  0  0  0  0  0
  1  4  1  0  0  0  0
  1  3  1  1  0  0  0
  2  7  1  1  0  0  0
  2  5  1  0  0  0  0
  2  4  1  0  0  0  0
  3 18  1  0  0  0  0
  4 10  1  0  0  0  0
  5 17  1  0  0  0  0
  6 20  1  0  0  0  0
  8  9  1  0  0  0  0
  9 11  1  0  0  0  0
 10 12  1  0  0  0  0
 10 13  1  0  0  0  0
 11  5  1  0  0  0  0
 14  7  2  0  0  0  0
 14 15  1  0  0  0  0
 15  1  1  0  0  0  0
 16  9  1  0  0  0  0
 16  7  1  0  0  0  0
 17 31  1  0  0  0  0
 17 12  1  0  0  0  0
 18 13  1  0  0  0  0
 19  6  1  0  0  0  0
 19  8  1  0  0  0  0
 20 16  1  0  0  0  0
 21 23  1  0  0  0  0
 21 28  2  0  0  0  0
 22 30  1  0  0  0  0
 24 27  1  0  0  0  0
 25 28  1  0  0  0  0
 25 15  1  0  0  0  0
 26 21  1  0  0  0  0
 27 25  2  0  0  0  0
 28 29  1  0  0  0  0
 30 26  1  0  0  0  0
 30 24  2  0  0  0  0
 32 31  1  0  0  0  0
M  END
>  <MODEL>
3

>  <REMARK>
 VINA RESULT:      -4.8      2.680      5.711
  Name = 
  2 active torsions:
  status: ('A' for Active; 'I' for Inactive)
    1  A    between atoms: C_13  and  C_29
    2  A    between atoms: C_16  and  N_27
                            x       y       z     vdW  Elec       q    Type
                         _______ _______ _______ _____ _____    ______ ____

>  <TORSDO>
F 2

$$$$
=
 OpenBabel11062408293D

 32 37  0  0  1  0  0  0  0  0999 V2000
  162.0580  209.4580  149.0430 C   0  0  2  0  0  3  0  0  0  0  0  0
  161.6550  209.2990  151.6100 C   0  0  2  0  0  3  0  0  0  0  0  0
  161.0690  208.8010  148.0740 C   0  0  0  0  0  2  0  0  0  0  0  0
  162.2080  208.6590  150.3670 C   0  0  1  0  0  3  0  0  0  0  0  0
  161.8040  208.4720  152.8740 C   0  0  1  0  0  3  0  0  0  0  0  0
  157.8960  211.7860  153.4850 C   0  0  0  0  0  2  0  0  0  0  0  0
  160.9480  210.4430  151.5640 C   0  0  0  0  0  0  0  0  0  0  0  0
  159.3060  210.4350  155.0820 C   0  0  0  0  0  2  0  0  0  0  0  0
  159.9150  209.8690  153.7920 C   0  0  2  0  0  3  0  0  0  0  0  0
  161.5790  207.2580  150.2760 C   0  0  2  0  0  3  0  0  0  0  0  0
  161.1870  209.1100  154.1260 C   0  0  0  0  0  2  0  0  0  0  0  0
  161.9530  206.4580  151.4390 N   0  0  0  0  0  2  0  0  0  0  0  0
  161.9840  206.5720  148.9790 C   0  0  0  0  0  2  0  0  0  0  0  0
  160.9880  211.2470  150.3840 N   0  0  0  0  0  0  0  0  0  0  0  0
  161.7260  210.8720  149.2500 N   0  0  0  0  0  0  0  0  0  0  0  0
  160.2380  210.9800  152.7840 C   0  0  2  0  0  3  0  0  0  0  0  0
  161.3050  207.0340  152.6240 C   0  0  1  0  0  3  0  0  0  0  0  0
  161.4950  207.3610  147.7520 C   0  0  0  0  0  2  0  0  0  0  0  0
  158.5280  211.7400  154.8710 C   0  0  0  0  0  2  0  0  0  0  0  0
  158.9660  211.7510  152.3870 C   0  0  0  0  0  2  0  0  0  0  0  0
  160.8150  213.4350  146.7240 C   0  0  0  0  0  0  0  0  0  0  0  0
  163.5790  214.1270  144.7240 O   0  0  0  0  0  1  0  0  0  0  0  0
  159.8820  214.4480  146.5280 O   0  0  0  0  0  1  0  0  0  0  0  0
  163.7620  212.7490  146.6170 C   0  0  0  0  0  3  0  0  0  0  0  0
  162.0340  211.8680  148.2480 C   0  0  0  0  0  0  0  0  0  0  0  0
  161.5570  212.9300  145.5330 C   0  0  0  0  0  2  0  0  0  0  0  0
  163.2600  211.8610  147.6830 C   0  0  0  0  0  3  0  0  0  0  0  0
  161.0330  212.9400  147.9550 C   0  0  0  0  0  0  0  0  0  0  0  0
  160.2580  213.5110  149.1010 C   0  0  0  0  0  1  0  0  0  0  0  0
  163.0050  213.2710  145.6530 C   0  0  0  0  0  0  0  0  0  0  0  0
  161.5410  206.1260  153.8300 C   0  0  0  0  0  2  0  0  0  0  0  0
  161.1510  204.7570  153.5330 N   0  0  0  0  0  1  0  0  0  0  0  0
  1  3  1  6  0  0  0
  1 15  1  0  0  0  0
  1  4  1  0  0  0  0
  2  7  1  6  0  0  0
  2  5  1  0  0  0  0
  4  2  1  0  0  0  0
  5 11  1  0  0  0  0
  6 19  1  0  0  0  0
  7 16  1  0  0  0  0
  9 11  1  0  0  0  0
  9  8  1  0  0  0  0
 10  4  1  0  0  0  0
 10 12  1  0  0  0  0
 12 17  1  0  0  0  0
 13 10  1  0  0  0  0
 14  7  2  0  0  0  0
 15 14  1  0  0  0  0
 16  9  1  0  0  0  0
 17  5  1  0  0  0  0
 17 31  1  0  0  0  0
 18  3  1  0  0  0  0
 18 13  1  0  0  0  0
 19  8  1  0  0  0  0
 20 16  1  0  0  0  0
 20  6  1  0  0  0  0
 21 28  2  0  0  0  0
 22 30  1  0  0  0  0
 23 21  1  0  0  0  0
 24 27  1  0  0  0  0
 25 15  1  0  0  0  0
 26 30  1  0  0  0  0
 26 21  1  0  0  0  0
 27 25  2  0  0  0  0
 28 25  1  0  0  0  0
 28 29  1  0  0  0  0
 30 24  2  0  0  0  0
 32 31  1  0  0  0  0
M  END
>  <MODEL>
4

>  <REMARK>
 VINA RESULT:      -4.3      1.468      2.053
  Name = 
  2 active torsions:
  status: ('A' for Active; 'I' for Inactive)
    1  A    between atoms: C_13  and  C_29
    2  A    between atoms: C_16  and  N_27
                            x       y       z     vdW  Elec       q    Type
                         _______ _______ _______ _____ _____    ______ ____

>  <TORSDO>
F 2

$$$$
=
 OpenBabel11062408293D

 32 37  0  0  1  0  0  0  0  0999 V2000
  159.6060  209.4380  155.2430 C   0  0  2  0  0  3  0  0  0  0  0  0
  160.3490  208.4120  152.9690 C   0  0  2  0  0  3  0  0  0  0  0  0
  160.6640  209.9140  156.2470 C   0  0  0  0  0  2  0  0  0  0  0  0
  160.0750  208.1990  154.4330 C   0  0  1  0  0  3  0  0  0  0  0  0
  160.8270  207.1790  152.2240 C   0  0  1  0  0  3  0  0  0  0  0  0
  162.3840  211.3890  149.6810 C   0  0  0  0  0  2  0  0  0  0  0  0
  160.3180  209.6360  152.4130 C   0  0  0  0  0  0  0  0  0  0  0  0
  162.1330  208.9600  149.0490 C   0  0  0  0  0  2  0  0  0  0  0  0
  161.7670  208.7920  150.5290 C   0  0  2  0  0  3  0  0  0  0  0  0
  161.3410  207.5580  155.0290 C   0  0  2  0  0  3  0  0  0  0  0  0
  161.1550  207.4200  150.7450 C   0  0  0  0  0  2  0  0  0  0  0  0
  161.6040  206.2700  154.3940 N   0  0  0  0  0  2  0  0  0  0  0  0
  161.2100  207.4160  156.5380 C   0  0  0  0  0  2  0  0  0  0  0  0
  159.7060  210.7150  153.1210 N   0  0  0  0  0  0  0  0  0  0  0  0
  159.1500  210.5490  154.4000 N   0  0  0  0  0  0  0  0  0  0  0  0
  160.7750  209.8680  150.9930 C   0  0  2  0  0  3  0  0  0  0  0  0
  161.9830  206.5120  152.9960 C   0  0  1  0  0  3  0  0  0  0  0  0
  161.0400  208.7860  157.2170 C   0  0  0  0  0  2  0  0  0  0  0  0
  162.0550  210.4120  148.5590 C   0  0  0  0  0  2  0  0  0  0  0  0
  161.3730  211.2770  150.8280 C   0  0  0  0  0  2  0  0  0  0  0  0
  158.1810  213.3230  156.6670 C   0  0  0  0  0  0  0  0  0  0  0  0
  154.7290  213.7650  156.5520 O   0  0  0  0  0  1  0  0  0  0  0  0
  158.7360  214.4530  157.2610 O   0  0  0  0  0  1  0  0  0  0  0  0
  155.8160  212.2850  155.0870 C   0  0  0  0  0  3  0  0  0  0  0  0
  158.2330  211.5460  154.9060 C   0  0  0  0  0  0  0  0  0  0  0  0
  156.9100  212.7890  157.2360 C   0  0  0  0  0  2  0  0  0  0  0  0
  156.9180  211.4150  154.6330 C   0  0  0  0  0  3  0  0  0  0  0  0
  158.7810  212.7470  155.6100 C   0  0  0  0  0  0  0  0  0  0  0  0
  160.0460  213.3530  155.0890 C   0  0  0  0  0  1  0  0  0  0  0  0
  155.8050  212.9430  156.2460 C   0  0  0  0  0  0  0  0  0  0  0  0
  162.4240  205.2000  152.3500 C   0  0  0  0  0  2  0  0  0  0  0  0
  161.3180  204.2580  152.2810 N   0  0  0  0  0  1  0  0  0  0  0  0
  1  3  1  6  0  0  0
  2  7  1  1  0  0  0
  2  4  1  0  0  0  0
  3 18  1  0  0  0  0
  4 10  1  0  0  0  0
  4  1  1  0  0  0  0
  5  2  1  0  0  0  0
  5 17  1  0  0  0  0
  6 20  1  0  0  0  0
  7 14  2  0  0  0  0
  8  9  1  0  0  0  0
  9 11  1  0  0  0  0
  9 16  1  0  0  0  0
 10 13  1  0  0  0  0
 11  5  1  0  0  0  0
 12 10  1  0  0  0  0
 13 18  1  0  0  0  0
 14 15  1  0  0  0  0
 15 25  1  0  0  0  0
 15  1  1  0  0  0  0
 16  7  1  0  0  0  0
 17 12  1  0  0  0  0
 19  8  1  0  0  0  0
 19  6  1  0  0  0  0
 20 16  1  0  0  0  0
 21 26  1  0  0  0  0
 21 23  1  0  0  0  0
 24 30  2  0  0  0  0
 25 28  1  0  0  0  0
 27 25  2  0  0  0  0
 27 24  1  0  0  0  0
 28 21  2  0  0  0  0
 29 28  1  0  0  0  0
 30 22  1  0  0  0  0
 30 26  1  0  0  0  0
 31 17  1  0  0  0  0
 32 31  1  0  0  0  0
M  END
>  <MODEL>
5

>  <REMARK>
 VINA RESULT:      -4.2      3.255      6.727
  Name = 
  2 active torsions:
  status: ('A' for Active; 'I' for Inactive)
    1  A    between atoms: C_13  and  C_29
    2  A    between atoms: C_16  and  N_27
                            x       y       z     vdW  Elec       q    Type
                         _______ _______ _______ _____ _____    ______ ____

>  <TORSDO>
F 2

$$$$
=
 OpenBabel11062408293D

 32 37  0  0  1  0  0  0  0  0999 V2000
  160.8200  208.4170  154.3560 C   0  0  2  0  0  3  0  0  0  0  0  0
  160.5070  211.0000  154.2810 C   0  0  2  0  0  3  0  0  0  0  0  0
  159.7080  207.5290  154.9270 C   0  0  0  0  0  2  0  0  0  0  0  0
  160.9110  209.7900  155.0770 C   0  0  1  0  0  3  0  0  0  0  0  0
  160.5900  212.3150  155.0340 C   0  0  1  0  0  3  0  0  0  0  0  0
  157.2190  212.8070  151.1590 C   0  0  0  0  0  2  0  0  0  0  0  0
  159.9680  210.8930  153.0530 C   0  0  0  0  0  0  0  0  0  0  0  0
  158.4900  214.4530  152.5880 C   0  0  0  0  0  2  0  0  0  0  0  0
  158.9580  213.1890  153.3210 C   0  0  2  0  0  3  0  0  0  0  0  0
  160.0870  209.8200  156.3760 C   0  0  2  0  0  3  0  0  0  0  0  0
  160.1220  213.5360  154.2310 C   0  0  0  0  0  2  0  0  0  0  0  0
  160.3920  211.0260  157.1410 N   0  0  0  0  0  2  0  0  0  0  0  0
  160.3360  208.5650  157.1990 C   0  0  0  0  0  2  0  0  0  0  0  0
  160.0710  209.6570  152.3440 N   0  0  0  0  0  0  0  0  0  0  0  0
  160.7010  208.5300  152.8980 N   0  0  0  0  0  0  0  0  0  0  0  0
  159.3920  212.0930  152.3390 C   0  0  2  0  0  3  0  0  0  0  0  0
  159.8830  212.1860  156.3990 C   0  0  1  0  0  3  0  0  0  0  0  0
  159.9130  207.3000  156.4310 C   0  0  0  0  0  2  0  0  0  0  0  0
  157.8960  214.1730  151.2020 C   0  0  0  0  0  2  0  0  0  0  0  0
  158.2260  211.6810  151.4210 C   0  0  0  0  0  2  0  0  0  0  0  0
  161.2490  206.9710  149.5740 C   0  0  0  0  0  0  0  0  0  0  0  0
  161.6550  203.5340  149.9570 O   0  0  0  0  0  1  0  0  0  0  0  0
  161.6910  207.3130  148.3000 O   0  0  0  0  0  1  0  0  0  0  0  0
  161.5330  204.9600  151.8200 C   0  0  0  0  0  3  0  0  0  0  0  0
  161.1040  207.4490  152.0270 C   0  0  0  0  0  0  0  0  0  0  0  0
  160.4710  205.7080  149.7260 C   0  0  0  0  0  2  0  0  0  0  0  0
  161.1890  206.2030  152.5380 C   0  0  0  0  0  3  0  0  0  0  0  0
  161.5260  207.7620  150.6260 C   0  0  0  0  0  0  0  0  0  0  0  0
  162.3250  209.0060  150.3930 C   0  0  0  0  0  1  0  0  0  0  0  0
  161.2480  204.7260  150.5390 C   0  0  0  0  0  0  0  0  0  0  0  0
  160.0380  213.4470  157.2480 C   0  0  0  0  0  2  0  0  0  0  0  0
  158.8060  214.2190  157.2610 N   0  0  0  0  0  1  0  0  0  0  0  0
  1  3  1  1  0  0  0
  1  4  1  0  0  0  0
  2  7  1  1  0  0  0
  2  5  1  0  0  0  0
  2  4  1  0  0  0  0
  3 18  1  0  0  0  0
  4 10  1  0  0  0  0
  5 17  1  0  0  0  0
  6 19  1  0  0  0  0
  6 20  1  0  0  0  0
  8  9  1  0  0  0  0
  9 11  1  0  0  0  0
 10 12  1  0  0  0  0
 10 13  1  0  0  0  0
 11  5  1  0  0  0  0
 14 15  1  0  0  0  0
 14  7  2  0  0  0  0
 15  1  1  0  0  0  0
 16  7  1  0  0  0  0
 16  9  1  0  0  0  0
 17 12  1  0  0  0  0
 17 31  1  0  0  0  0
 18 13  1  0  0  0  0
 19  8  1  0  0  0  0
 20 16  1  0  0  0  0
 21 26  1  0  0  0  0
 21 28  2  0  0  0  0
 22 30  1  0  0  0  0
 23 21  1  0  0  0  0
 24 27  1  0  0  0  0
 25 27  2  0  0  0  0
 25 15  1  0  0  0  0
 26 30  1  0  0  0  0
 28 25  1  0  0  0  0
 29 28  1  0  0  0  0
 30 24  2  0  0  0  0
 31 32  1  0  0  0  0
M  END
>  <MODEL>
6

>  <REMARK>
 VINA RESULT:      -4.1      3.077      5.456
  Name = 
  2 active torsions:
  status: ('A' for Active; 'I' for Inactive)
    1  A    between atoms: C_13  and  C_29
    2  A    between atoms: C_16  and  N_27
                            x       y       z     vdW  Elec       q    Type
                         _______ _______ _______ _____ _____    ______ ____

>  <TORSDO>
F 2

$$$$
=
 OpenBabel11062408293D

 32 37  0  0  1  0  0  0  0  0999 V2000
  161.3580  207.3700  151.2960 C   0  0  2  0  0  3  0  0  0  0  0  0
  160.7870  205.4020  149.6900 C   0  0  2  0  0  3  0  0  0  0  0  0
  162.6470  207.3270  152.1260 C   0  0  0  0  0  2  0  0  0  0  0  0
  160.7430  205.9590  151.0860 C   0  0  1  0  0  3  0  0  0  0  0  0
  160.1950  204.0130  149.5380 C   0  0  1  0  0  3  0  0  0  0  0  0
  163.5460  204.8400  145.7030 C   0  0  0  0  0  2  0  0  0  0  0  0
  161.4420  206.0310  148.6970 C   0  0  0  0  0  0  0  0  0  0  0  0
  161.6670  203.1940  146.0570 C   0  0  0  0  0  2  0  0  0  0  0  0
  161.5870  203.8470  147.4420 C   0  0  2  0  0  3  0  0  0  0  0  0
  161.3830  204.9020  152.0030 C   0  0  2  0  0  3  0  0  0  0  0  0
  160.2950  203.4330  148.1220 C   0  0  0  0  0  2  0  0  0  0  0  0
  160.6200  203.6590  151.9540 N   0  0  0  0  0  2  0  0  0  0  0  0
  161.4980  205.4260  153.4270 C   0  0  0  0  0  2  0  0  0  0  0  0
  161.8280  207.3960  148.8620 N   0  0  0  0  0  0  0  0  0  0  0  0
  161.5680  208.1070  150.0450 N   0  0  0  0  0  0  0  0  0  0  0  0
  161.6420  205.3790  147.3500 C   0  0  2  0  0  3  0  0  0  0  0  0
  160.7740  203.0740  150.6160 C   0  0  1  0  0  3  0  0  0  0  0  0
  162.3920  206.6760  153.4930 C   0  0  0  0  0  2  0  0  0  0  0  0
  162.4470  204.0260  145.0300 C   0  0  0  0  0  2  0  0  0  0  0  0
  162.9580  205.8450  146.7010 C   0  0  0  0  0  2  0  0  0  0  0  0
  160.6180  211.4900  151.2410 C   0  0  0  0  0  0  0  0  0  0  0  0
  161.6340  213.8720  148.9140 O   0  0  0  0  0  1  0  0  0  0  0  0
  160.3230  212.1520  152.4290 O   0  0  0  0  0  1  0  0  0  0  0  0
  162.2480  211.6160  148.6930 C   0  0  0  0  0  3  0  0  0  0  0  0
  161.6360  209.5510  150.0290 C   0  0  0  0  0  0  0  0  0  0  0  0
  160.2010  212.1330  149.9620 C   0  0  0  0  0  2  0  0  0  0  0  0
  162.1340  210.1650  148.9340 C   0  0  0  0  0  3  0  0  0  0  0  0
  161.2640  210.3110  151.2630 C   0  0  0  0  0  0  0  0  0  0  0  0
  161.6630  209.7390  152.5870 C   0  0  0  0  0  1  0  0  0  0  0  0
  161.4050  212.5280  149.1740 C   0  0  0  0  0  0  0  0  0  0  0  0
  160.1240  201.6910  150.5820 C   0  0  0  0  0  2  0  0  0  0  0  0
  161.0030  200.7190  149.9520 N   0  0  0  0  0  1  0  0  0  0  0  0
  1  3  1  6  0  0  0
  2  7  1  1  0  0  0
  2  4  1  0  0  0  0
  3 18  1  0  0  0  0
  4  1  1  0  0  0  0
  4 10  1  0  0  0  0
  5  2  1  0  0  0  0
  5 17  1  0  0  0  0
  6 20  1  0  0  0  0
  7 14  2  0  0  0  0
  8  9  1  0  0  0  0
  9 11  1  0  0  0  0
 10 13  1  0  0  0  0
 11  5  1  0  0  0  0
 12 10  1  0  0  0  0
 13 18  1  0  0  0  0
 14 15  1  0  0  0  0
 15  1  1  0  0  0  0
 16  9  1  0  0  0  0
 16  7  1  0  0  0  0
 17 12  1  0  0  0  0
 19  6  1  0  0  0  0
 19  8  1  0  0  0  0
 20 16  1  0  0  0  0
 21 28  2  0  0  0  0
 21 23  1  0  0  0  0
 22 30  1  0  0  0  0
 24 27  1  0  0  0  0
 24 30  2  0  0  0  0
 25 15  1  0  0  0  0
 25 28  1  0  0  0  0
 26 21  1  0  0  0  0
 27 25  2  0  0  0  0
 28 29  1  0  0  0  0
 30 26  1  0  0  0  0
 31 17  1  0  0  0  0
 32 31  1  0  0  0  0
M  END
>  <MODEL>
7

>  <REMARK>
 VINA RESULT:      -4.1      3.605      6.999
  Name = 
  2 active torsions:
  status: ('A' for Active; 'I' for Inactive)
    1  A    between atoms: C_13  and  C_29
    2  A    between atoms: C_16  and  N_27
                            x       y       z     vdW  Elec       q    Type
                         _______ _______ _______ _____ _____    ______ ____

>  <TORSDO>
F 2

$$$$
=
 OpenBabel11062408293D

 32 37  0  0  1  0  0  0  0  0999 V2000
  161.0470  213.0170  142.3130 C   0  0  2  0  0  3  0  0  0  0  0  0
  160.0840  211.7130  140.2760 C   0  0  2  0  0  3  0  0  0  0  0  0
  161.5600  214.4500  142.1280 C   0  0  0  0  0  2  0  0  0  0  0  0
  161.2970  212.1330  141.0600 C   0  0  1  0  0  3  0  0  0  0  0  0
  160.3790  210.8710  139.0480 C   0  0  1  0  0  3  0  0  0  0  0  0
  155.8130  213.1930  138.4340 C   0  0  0  0  0  2  0  0  0  0  0  0
  158.8570  212.1840  140.5610 C   0  0  0  0  0  0  0  0  0  0  0  0
  156.9300  211.2160  137.3340 C   0  0  0  0  0  2  0  0  0  0  0  0
  158.1180  211.6160  138.2180 C   0  0  2  0  0  3  0  0  0  0  0  0
  162.2600  212.7980  140.0620 C   0  0  2  0  0  3  0  0  0  0  0  0
  159.1410  210.4950  138.2250 C   0  0  0  0  0  2  0  0  0  0  0  0
  162.6580  211.8440  139.0310 N   0  0  0  0  0  2  0  0  0  0  0  0
  163.4710  213.3700  140.7840 C   0  0  0  0  0  2  0  0  0  0  0  0
  158.6260  212.8310  141.8140 N   0  0  0  0  0  0  0  0  0  0  0  0
  159.6480  213.0170  142.7580 N   0  0  0  0  0  0  0  0  0  0  0  0
  157.6780  211.9090  139.6590 C   0  0  2  0  0  3  0  0  0  0  0  0
  161.4830  211.5390  138.2030 C   0  0  1  0  0  3  0  0  0  0  0  0
  163.0590  214.4530  141.7960 C   0  0  0  0  0  2  0  0  0  0  0  0
  155.5980  211.8320  137.7810 C   0  0  0  0  0  2  0  0  0  0  0  0
  156.6680  213.0700  139.7010 C   0  0  0  0  0  2  0  0  0  0  0  0
  159.8250  212.5060  146.4300 C   0  0  0  0  0  0  0  0  0  0  0  0
  157.1940  214.1920  147.9650 O   0  0  0  0  0  1  0  0  0  0  0  0
  160.7540  212.1790  147.4130 O   0  0  0  0  0  1  0  0  0  0  0  0
  157.6250  214.4410  145.6700 C   0  0  0  0  0  3  0  0  0  0  0  0
  159.2980  213.3280  144.1260 C   0  0  0  0  0  0  0  0  0  0  0  0
  158.3790  212.3670  146.7630 C   0  0  0  0  0  2  0  0  0  0  0  0
  158.1860  214.0560  144.3600 C   0  0  0  0  0  3  0  0  0  0  0  0
  160.2350  212.9370  145.2240 C   0  0  0  0  0  0  0  0  0  0  0  0
  161.7050  213.0630  144.9730 C   0  0  0  0  0  1  0  0  0  0  0  0
  157.7280  213.7100  146.7780 C   0  0  0  0  0  0  0  0  0  0  0  0
  161.9020  210.6730  137.0170 C   0  0  0  0  0  2  0  0  0  0  0  0
  162.3330  209.3570  137.4610 N   0  0  0  0  0  1  0  0  0  0  0  0
  1  3  1  6  0  0  0
  1 15  1  0  0  0  0
  2  7  1  6  0  0  0
  2  4  1  0  0  0  0
  4  1  1  0  0  0  0
  5  2  1  0  0  0  0
  6 20  1  0  0  0  0
  7 14  2  0  0  0  0
  8 19  1  0  0  0  0
  8  9  1  0  0  0  0
  9 11  1  0  0  0  0
  9 16  1  0  0  0  0
 10 13  1  0  0  0  0
 10  4  1  0  0  0  0
 11  5  1  0  0  0  0
 12 10  1  0  0  0  0
 13 18  1  0  0  0  0
 14 15  1  0  0  0  0
 15 25  1  0  0  0  0
 16 20  1  0  0  0  0
 16  7  1  0  0  0  0
 17 12  1  0  0  0  0
 17  5  1  0  0  0  0
 18  3  1  0  0  0  0
 19  6  1  0  0  0  0
 21 26  1  0  0  0  0
 21 23  1  0  0  0  0
 24 30  2  0  0  0  0
 25 27  2  0  0  0  0
 25 28  1  0  0  0  0
 26 30  1  0  0  0  0
 27 24  1  0  0  0  0
 28 21  2  0  0  0  0
 29 28  1  0  0  0  0
 30 22  1  0  0  0  0
 31 32  1  0  0  0  0
 31 17  1  0  0  0  0
M  END
>  <MODEL>
8

>  <REMARK>
 VINA RESULT:      -4.1      7.582     12.600
  Name = 
  2 active torsions:
  status: ('A' for Active; 'I' for Inactive)
    1  A    between atoms: C_13  and  C_29
    2  A    between atoms: C_16  and  N_27
                            x       y       z     vdW  Elec       q    Type
                         _______ _______ _______ _____ _____    ______ ____

>  <TORSDO>
F 2

$$$$
=
 OpenBabel11062408293D

 32 37  0  0  1  0  0  0  0  0999 V2000
  161.4900  207.5140  150.2290 C   0  0  2  0  0  3  0  0  0  0  0  0
  160.4560  208.9550  152.1350 C   0  0  2  0  0  3  0  0  0  0  0  0
  162.9650  207.6950  149.8500 C   0  0  0  0  0  2  0  0  0  0  0  0
  160.8280  208.8440  150.6810 C   0  0  1  0  0  3  0  0  0  0  0  0
  159.8340  210.2800  152.5350 C   0  0  1  0  0  3  0  0  0  0  0  0
  161.9230  208.0780  156.7070 C   0  0  0  0  0  2  0  0  0  0  0  0
  160.7980  208.0080  153.0280 C   0  0  0  0  0  0  0  0  0  0  0  0
  160.2160  209.9040  156.3650 C   0  0  0  0  0  2  0  0  0  0  0  0
  160.5510  209.7000  154.8820 C   0  0  2  0  0  3  0  0  0  0  0  0
  161.6990  210.0690  150.3540 C   0  0  2  0  0  3  0  0  0  0  0  0
  159.5100  210.4030  154.0290 C   0  0  0  0  0  2  0  0  0  0  0  0
  160.9440  211.3000  150.5680 N   0  0  0  0  0  2  0  0  0  0  0  0
  162.2300  209.9850  148.9310 C   0  0  0  0  0  2  0  0  0  0  0  0
  161.2270  206.7270  152.5650 N   0  0  0  0  0  0  0  0  0  0  0  0
  161.3310  206.4230  151.1980 N   0  0  0  0  0  0  0  0  0  0  0  0
  160.5890  208.2120  154.5090 C   0  0  2  0  0  3  0  0  0  0  0  0
  160.6950  211.4460  152.0080 C   0  0  1  0  0  3  0  0  0  0  0  0
  163.1160  208.7420  148.7360 C   0  0  0  0  0  2  0  0  0  0  0  0
  160.6690  208.7430  157.2610 C   0  0  0  0  0  2  0  0  0  0  0  0
  161.6620  207.4670  155.3250 C   0  0  0  0  0  2  0  0  0  0  0  0
  160.7800  203.6340  148.8110 C   0  0  0  0  0  0  0  0  0  0  0  0
  161.1280  200.5960  150.4740 O   0  0  0  0  0  1  0  0  0  0  0  0
  160.8320  203.3810  147.4440 O   0  0  0  0  0  1  0  0  0  0  0  0
  161.6380  202.6290  151.5340 C   0  0  0  0  0  3  0  0  0  0  0  0
  161.4040  205.0390  150.7860 C   0  0  0  0  0  0  0  0  0  0  0  0
  160.0290  202.6750  149.6700 C   0  0  0  0  0  2  0  0  0  0  0  0
  161.5830  204.0910  151.7300 C   0  0  0  0  0  3  0  0  0  0  0  0
  161.3970  204.7130  149.3260 C   0  0  0  0  0  0  0  0  0  0  0  0
  162.1420  205.6200  148.3990 C   0  0  0  0  0  1  0  0  0  0  0  0
  160.9690  201.9700  150.5890 C   0  0  0  0  0  0  0  0  0  0  0  0
  160.0510  212.8050  152.2810 C   0  0  0  0  0  2  0  0  0  0  0  0
  159.7010  213.4730  151.0380 N   0  0  0  0  0  1  0  0  0  0  0  0
  1  3  1  1  0  0  0
  1  4  1  0  0  0  0
  1 15  1  0  0  0  0
  2  5  1  0  0  0  0
  2  7  1  1  0  0  0
  4  2  1  0  0  0  0
  5 11  1  0  0  0  0
  6 19  1  0  0  0  0
  7 16  1  0  0  0  0
  8 19  1  0  0  0  0
  9  8  1  0  0  0  0
 10 12  1  0  0  0  0
 10  4  1  0  0  0  0
 11  9  1  0  0  0  0
 12 17  1  0  0  0  0
 13 10  1  0  0  0  0
 14  7  2  0  0  0  0
 15 14  1  0  0  0  0
 16  9  1  0  0  0  0
 16 20  1  0  0  0  0
 17 31  1  0  0  0  0
 17  5  1  0  0  0  0
 18 13  1  0  0  0  0
 18  3  1  0  0  0  0
 20  6  1  0  0  0  0
 21 28  2  0  0  0  0
 21 26  1  0  0  0  0
 22 30  1  0  0  0  0
 23 21  1  0  0  0  0
 24 27  1  0  0  0  0
 25 15  1  0  0  0  0
 25 27  2  0  0  0  0
 26 30  1  0  0  0  0
 28 25  1  0  0  0  0
 29 28  1  0  0  0  0
 30 24  2  0  0  0  0
 32 31  1  0  0  0  0
M  END
>  <MODEL>
9

>  <REMARK>
 VINA RESULT:      -3.8      3.782      6.723
  Name = 
  2 active torsions:
  status: ('A' for Active; 'I' for Inactive)
    1  A    between atoms: C_13  and  C_29
    2  A    between atoms: C_16  and  N_27
                            x       y       z     vdW  Elec       q    Type
                         _______ _______ _______ _____ _____    ______ ____

>  <TORSDO>
F 2

$$$$
