=
 OpenBabel11062408553D

 55 61  0  0  1  0  0  0  0  0999 V2000
  162.9470  212.0180  148.2730 C   0  0  0  0  0  3  0  0  0  0  0  0
  160.5690  213.4200  147.6380 C   0  0  1  0  0  3  0  0  0  0  0  0
  160.5670  211.9050  147.4440 C   0  0  0  0  0  2  0  0  0  0  0  0
  163.0610  213.2850  147.8680 C   0  0  0  0  0  3  0  0  0  0  0  0
  161.7050  211.3070  148.1370 N   0  0  0  0  0  0  0  0  0  0  0  0
  161.9180  214.0010  147.2030 C   0  0  0  0  0  2  0  0  0  0  0  0
  159.4040  214.0700  146.8950 C   0  0  0  0  0  2  0  0  0  0  0  0
  159.7470  214.4040  145.4480 C   0  0  0  0  0  2  0  0  0  0  0  0
  158.9980  213.4840  144.4940 C   0  0  0  0  0  2  0  0  0  0  0  0
  159.8560  212.3020  144.0640 C   0  0  0  0  0  2  0  0  0  0  0  0
  161.2410  212.7650  143.6550 C   0  0  0  0  0  2  0  0  0  0  0  0
  161.6240  212.0980  142.4150 N   0  0  0  0  0  2  0  0  0  0  0  0
  161.6950  213.0730  138.4150 C   0  0  2  0  0  0  0  0  0  0  0  0
  159.8370  210.9020  137.5630 O   0  0  0  0  0  1  0  0  0  0  0  0
  160.5780  212.2460  140.1350 C   0  0  2  0  0  0  0  0  0  0  0  0
  160.7400  214.1280  141.6370 F   0  0  0  0  0  0  0  0  0  0  0  0
  162.0930  210.2250  140.4020 O   0  0  0  0  0  1  0  0  0  0  0  0
  161.2980  211.0130  139.5600 C   0  0  2  0  0  0  0  0  0  0  0  0
  161.3990  212.9670  141.2530 C   0  0  1  0  0  0  0  0  0  0  0  0
  162.7080  213.8910  139.2390 C   0  0  0  0  0  2  0  0  0  0  0  0
  162.0670  211.5870  138.3710 C   0  0  1  0  0  0  0  0  0  0  0  0
  161.5920  213.6390  137.0110 C   0  0  0  0  0  1  0  0  0  0  0  0
  161.0350  210.4860  138.1550 C   0  0  2  0  0  0  0  0  0  0  0  0
  162.7760  213.3770  140.6920 C   0  0  0  0  0  2  0  0  0  0  0  0
  159.3090  211.8870  140.5930 O   0  0  0  0  0  1  0  0  0  0  0  0
  163.4200  211.2260  138.3740 O   0  0  0  0  0  1  0  0  0  0  0  0
  160.4500  213.1560  139.0660 O   0  0  0  0  0  0  0  0  0  0  0  0
  161.5590  209.1040  137.7920 C   0  0  0  0  0  2  0  0  0  0  0  0
  160.5090  208.1840  137.7920 O   0  0  0  0  0  1  0  0  0  0  0  0
  161.5600  209.9680  148.6850 C   0  0  0  0  0  2  0  0  0  0  0  0
  162.3720  209.8350  149.9640 C   0  0  0  0  0  2  0  0  0  0  0  0
  161.6100  204.9190  150.2190 C   0  0  0  0  0  2  0  0  0  0  0  0
  160.6500  211.1040  151.9820 C   0  0  0  0  0  2  0  0  0  0  0  0
  160.8800  203.8590  152.3710 C   0  0  0  0  0  2  0  0  0  0  0  0
  161.7380  206.2810  152.3660 C   0  0  1  0  0  3  0  0  0  0  0  0
  160.7690  205.2650  152.9760 C   0  0  0  0  0  2  0  0  0  0  0  0
  161.8440  203.7670  151.1930 C   0  0  0  0  0  2  0  0  0  0  0  0
  161.7120  206.2170  150.8950 N   0  0  0  0  0  0  0  0  0  0  0  0
  161.5030  208.7010  152.1330 C   0  0  0  0  0  0  0  0  0  0  0  0
  161.0240  210.1340  154.1640 C   0  0  0  0  0  2  0  0  0  0  0  0
  161.3880  207.6170  152.8440 N   0  0  0  0  0  0  0  0  0  0  0  0
  160.5610  211.5620  154.3730 C   0  0  1  0  0  3  0  0  0  0  0  0
  162.0250  207.3960  150.1290 C   0  0  0  0  0  0  0  0  0  0  0  0
  160.0990  212.0710  153.0120 C   0  0  0  0  0  2  0  0  0  0  0  0
  161.9560  208.6060  150.7170 C   0  0  0  0  0  0  0  0  0  0  0  0
  161.1400  209.9600  152.7280 N   0  0  0  0  0  0  0  0  0  0  0  0
  162.4420  207.2630  148.6880 C   0  0  0  0  0  2  0  0  0  0  0  0
  160.1400  206.6410  148.5720 O   0  0  0  0  0  1  0  0  0  0  0  0
  161.2500  206.9590  147.7900 C   0  0  2  0  0  3  0  0  0  0  0  0
  161.5510  205.8130  146.8340 C   0  0  0  0  0  2  0  0  0  0  0  0
  162.6730  206.0930  146.0720 F   0  0  0  0  0  0  0  0  0  0  0  0
  159.4180  211.5900  155.3760 C   0  0  0  0  0  2  0  0  0  0  0  0
  158.3350  212.5070  154.9190 C   0  0  0  0  0  0  0  0  0  0  0  0
  158.2890  213.6930  155.3440 O   0  0  0  0  0  1  0  0  0  0  0  0
  157.3930  212.0640  154.0000 O   0  0  0  0  0  0  0  0  0  0  0  0
  2  7  1  6  0  0  0
  3  2  1  0  0  0  0
  3  5  1  0  0  0  0
  4  1  2  0  0  0  0
  5  1  1  0  0  0  0
  5 30  1  0  0  0  0
  6  2  1  0  0  0  0
  6  4  1  0  0  0  0
  8  7  1  0  0  0  0
  9  8  1  0  0  0  0
 10  9  1  0  0  0  0
 11 10  1  0  0  0  0
 12 11  1  0  0  0  0
 13 22  1  6  0  0  0
 13 27  1  0  0  0  0
 13 20  1  0  0  0  0
 15 25  1  1  0  0  0
 15 19  1  0  0  0  0
 18 15  1  0  0  0  0
 18 17  1  1  0  0  0
 19 16  1  1  0  0  0
 19 12  1  0  0  0  0
 20 24  1  0  0  0  0
 21 26  1  6  0  0  0
 21 13  1  0  0  0  0
 21 18  1  0  0  0  0
 23 14  1  6  0  0  0
 23 21  1  0  0  0  0
 23 18  1  0  0  0  0
 24 19  1  0  0  0  0
 27 15  1  0  0  0  0
 28 29  1  0  0  0  0
 28 23  1  0  0  0  0
 30 31  1  0  0  0  0
 31 45  1  0  0  0  0
 32 38  1  0  0  0  0
 32 37  1  0  0  0  0
 33 46  1  0  0  0  0
 33 44  1  0  0  0  0
 34 36  1  0  0  0  0
 35 41  1  0  0  0  0
 35 36  1  1  0  0  0
 37 34  1  0  0  0  0
 38 35  1  0  0  0  0
 39 46  1  0  0  0  0
 39 41  2  0  0  0  0
 40 42  1  0  0  0  0
 42 52  1  1  0  0  0
 43 45  2  0  0  0  0
 43 38  1  0  0  0  0
 44 42  1  0  0  0  0
 45 39  1  0  0  0  0
 46 40  1  0  0  0  0
 47 43  1  0  0  0  0
 49 48  1  1  0  0  0
 49 47  1  0  0  0  0
 50 49  1  0  0  0  0
 51 50  1  0  0  0  0
 53 54  1  0  0  0  0
 53 52  1  0  0  0  0
 55 53  2  0  0  0  0
M  END
>  <MODEL>
1

>  <REMARK>
 VINA RESULT:      -7.4      0.000      0.000
  Name = 
  16 active torsions:
  status: ('A' for Active; 'I' for Inactive)
    1  A    between atoms: C_2  and  C_28
    2  A    between atoms: C_2  and  N_44
    3  A    between atoms: C_4  and  C_40
    4  A    between atoms: C_8  and  N_22
    5  A    between atoms: C_8  and  C_43
    6  A    between atoms: C_10  and  C_32
    7  A    between atoms: C_11  and  C_38
    8  A    between atoms: C_19  and  C_40
    9  A    between atoms: C_19  and  C_45
   10  A    between atoms: C_20  and  N_22
   11  A    between atoms: C_27  and  C_54
   12  A    between atoms: C_28  and  C_49
   13  A    between atoms: C_32  and  C_39
   14  A    between atoms: C_35  and  C_43
   15  A    between atoms: C_35  and  C_51
   16  A    between atoms: C_51  and  C_54
                            x       y       z     vdW  Elec       q    Type
                         _______ _______ _______ _____ _____    ______ ____

>  <TORSDO>
F 16

$$$$
=
 OpenBabel11062408553D

 55 61  0  0  1  0  0  0  0  0999 V2000
  162.3820  209.3770  150.6280 C   0  0  0  0  0  3  0  0  0  0  0  0
  161.8230  211.3460  148.6700 C   0  0  1  0  0  3  0  0  0  0  0  0
  162.5570  210.0870  148.2140 C   0  0  0  0  0  2  0  0  0  0  0  0
  162.3010  210.6490  151.0280 C   0  0  0  0  0  3  0  0  0  0  0  0
  162.4500  209.0460  149.2310 N   0  0  0  0  0  0  0  0  0  0  0  0
  162.3390  211.7840  150.0440 C   0  0  0  0  0  2  0  0  0  0  0  0
  161.9470  212.4610  147.6330 C   0  0  0  0  0  2  0  0  0  0  0  0
  160.7630  213.4200  147.6630 C   0  0  0  0  0  2  0  0  0  0  0  0
  160.4050  213.7860  149.0970 C   0  0  0  0  0  2  0  0  0  0  0  0
  159.0020  213.3190  149.4610 C   0  0  0  0  0  2  0  0  0  0  0  0
  158.4480  214.1340  150.6130 C   0  0  0  0  0  2  0  0  0  0  0  0
  157.9580  213.2310  151.6500 N   0  0  0  0  0  2  0  0  0  0  0  0
  159.0330  212.9220  155.6120 C   0  0  2  0  0  0  0  0  0  0  0  0
  157.7840  210.2480  156.0350 O   0  0  0  0  0  1  0  0  0  0  0  0
  158.6100  211.9160  153.6890 C   0  0  2  0  0  0  0  0  0  0  0  0
  160.2080  213.0680  152.2950 F   0  0  0  0  0  0  0  0  0  0  0  0
  156.1520  212.5570  153.6660 O   0  0  0  0  0  1  0  0  0  0  0  0
  157.2260  211.9850  154.3590 C   0  0  2  0  0  0  0  0  0  0  0  0
  158.9040  213.1440  152.7690 C   0  0  1  0  0  0  0  0  0  0  0  0
  159.3590  214.3060  155.0200 C   0  0  0  0  0  2  0  0  0  0  0  0
  157.5230  212.6780  155.6890 C   0  0  1  0  0  0  0  0  0  0  0  0
  159.6660  212.7840  156.9850 C   0  0  0  0  0  1  0  0  0  0  0  0
  156.9120  211.2810  155.6730 C   0  0  2  0  0  0  0  0  0  0  0  0
  158.7850  214.4420  153.5940 C   0  0  0  0  0  2  0  0  0  0  0  0
  158.7400  210.7170  152.9860 O   0  0  0  0  0  1  0  0  0  0  0  0
  156.6710  213.7620  155.9370 O   0  0  0  0  0  1  0  0  0  0  0  0
  159.5530  211.9500  154.7370 O   0  0  0  0  0  0  0  0  0  0  0  0
  155.4550  211.1550  156.0950 C   0  0  0  0  0  2  0  0  0  0  0  0
  154.9170  209.9690  155.5900 O   0  0  0  0  0  1  0  0  0  0  0  0
  162.4200  207.6560  148.8040 C   0  0  0  0  0  2  0  0  0  0  0  0
  161.0060  207.1050  148.9090 C   0  0  0  0  0  2  0  0  0  0  0  0
  160.6200  202.2450  147.8860 C   0  0  0  0  0  2  0  0  0  0  0  0
  160.4170  207.4580  151.7690 C   0  0  0  0  0  2  0  0  0  0  0  0
  161.0420  200.5360  149.6720 C   0  0  0  0  0  2  0  0  0  0  0  0
  161.7140  202.9850  150.0630 C   0  0  1  0  0  3  0  0  0  0  0  0
  161.1880  201.6860  150.6780 C   0  0  0  0  0  2  0  0  0  0  0  0
  161.3280  200.9370  148.2290 C   0  0  0  0  0  2  0  0  0  0  0  0
  160.9900  203.3120  148.8220 N   0  0  0  0  0  0  0  0  0  0  0  0
  161.3170  205.2970  150.7470 C   0  0  0  0  0  0  0  0  0  0  0  0
  161.8200  206.0260  153.1180 C   0  0  0  0  0  2  0  0  0  0  0  0
  161.5900  204.0600  151.0460 N   0  0  0  0  0  0  0  0  0  0  0  0
  161.4660  207.2380  153.9560 C   0  0  1  0  0  3  0  0  0  0  0  0
  160.8600  204.6890  148.4200 C   0  0  0  0  0  0  0  0  0  0  0  0
  160.3940  207.9990  153.1850 C   0  0  0  0  0  2  0  0  0  0  0  0
  161.0410  205.6660  149.3300 C   0  0  0  0  0  0  0  0  0  0  0  0
  161.2410  206.2640  151.8090 N   0  0  0  0  0  0  0  0  0  0  0  0
  160.5420  205.0230  146.9860 C   0  0  0  0  0  2  0  0  0  0  0  0
  162.8010  205.5170  146.3930 O   0  0  0  0  0  1  0  0  0  0  0  0
  161.7150  204.7050  146.0680 C   0  0  2  0  0  3  0  0  0  0  0  0
  161.3440  204.9010  144.6040 C   0  0  0  0  0  2  0  0  0  0  0  0
  160.1430  204.2770  144.3140 F   0  0  0  0  0  0  0  0  0  0  0  0
  160.9420  206.7910  155.3120 C   0  0  0  0  0  2  0  0  0  0  0  0
  160.9700  207.9180  156.2880 C   0  0  0  0  0  0  0  0  0  0  0  0
  160.0830  208.0050  157.1790 O   0  0  0  0  0  1  0  0  0  0  0  0
  161.9920  208.8560  156.2350 O   0  0  0  0  0  0  0  0  0  0  0  0
  1  4  2  0  0  0  0
  2  7  1  6  0  0  0
  2  6  1  0  0  0  0
  3  2  1  0  0  0  0
  3  5  1  0  0  0  0
  5  1  1  0  0  0  0
  6  4  1  0  0  0  0
  7  8  1  0  0  0  0
  8  9  1  0  0  0  0
  9 10  1  0  0  0  0
 10 11  1  0  0  0  0
 11 12  1  0  0  0  0
 12 19  1  0  0  0  0
 13 21  1  0  0  0  0
 13 22  1  1  0  0  0
 15 25  1  6  0  0  0
 15 18  1  0  0  0  0
 15 27  1  0  0  0  0
 18 17  1  6  0  0  0
 18 23  1  0  0  0  0
 18 21  1  0  0  0  0
 19 16  1  6  0  0  0
 19 24  1  0  0  0  0
 19 15  1  0  0  0  0
 20 13  1  0  0  0  0
 21 26  1  1  0  0  0
 23 21  1  0  0  0  0
 23 14  1  1  0  0  0
 23 28  1  0  0  0  0
 24 20  1  0  0  0  0
 27 13  1  0  0  0  0
 29 28  1  0  0  0  0
 30 31  1  0  0  0  0
 30  5  1  0  0  0  0
 31 45  1  0  0  0  0
 32 37  1  0  0  0  0
 32 38  1  0  0  0  0
 33 46  1  0  0  0  0
 33 44  1  0  0  0  0
 34 36  1  0  0  0  0
 35 36  1  1  0  0  0
 35 41  1  0  0  0  0
 37 34  1  0  0  0  0
 38 35  1  0  0  0  0
 39 41  2  0  0  0  0
 39 46  1  0  0  0  0
 40 42  1  0  0  0  0
 42 52  1  1  0  0  0
 43 38  1  0  0  0  0
 43 45  2  0  0  0  0
 44 42  1  0  0  0  0
 45 39  1  0  0  0  0
 46 40  1  0  0  0  0
 47 43  1  0  0  0  0
 49 48  1  1  0  0  0
 49 47  1  0  0  0  0
 50 49  1  0  0  0  0
 51 50  1  0  0  0  0
 52 53  1  0  0  0  0
 53 54  1  0  0  0  0
 55 53  2  0  0  0  0
M  END
>  <MODEL>
2

>  <REMARK>
 VINA RESULT:      -6.8      5.371      9.773
  Name = 
  16 active torsions:
  status: ('A' for Active; 'I' for Inactive)
    1  A    between atoms: C_2  and  C_28
    2  A    between atoms: C_2  and  N_44
    3  A    between atoms: C_4  and  C_40
    4  A    between atoms: C_8  and  N_22
    5  A    between atoms: C_8  and  C_43
    6  A    between atoms: C_10  and  C_32
    7  A    between atoms: C_11  and  C_38
    8  A    between atoms: C_19  and  C_40
    9  A    between atoms: C_19  and  C_45
   10  A    between atoms: C_20  and  N_22
   11  A    between atoms: C_27  and  C_54
   12  A    between atoms: C_28  and  C_49
   13  A    between atoms: C_32  and  C_39
   14  A    between atoms: C_35  and  C_43
   15  A    between atoms: C_35  and  C_51
   16  A    between atoms: C_51  and  C_54
                            x       y       z     vdW  Elec       q    Type
                         _______ _______ _______ _____ _____    ______ ____

>  <TORSDO>
F 16

$$$$
=
 OpenBabel11062408553D

 55 61  0  0  1  0  0  0  0  0999 V2000
  161.6140  204.9830  147.8360 C   0  0  0  0  0  3  0  0  0  0  0  0
  161.5600  205.4140  145.0360 C   0  0  1  0  0  3  0  0  0  0  0  0
  160.5780  206.2120  145.8910 C   0  0  0  0  0  2  0  0  0  0  0  0
  161.9780  203.9720  147.0430 C   0  0  0  0  0  3  0  0  0  0  0  0
  160.9670  206.1490  147.2970 N   0  0  0  0  0  0  0  0  0  0  0  0
  161.6750  203.9830  145.5700 C   0  0  0  0  0  2  0  0  0  0  0  0
  161.1550  205.4410  143.5640 C   0  0  0  0  0  2  0  0  0  0  0  0
  162.1360  206.2280  142.7040 C   0  0  0  0  0  2  0  0  0  0  0  0
  161.6820  206.2440  141.2500 C   0  0  0  0  0  2  0  0  0  0  0  0
  162.5750  207.1300  140.3930 C   0  0  0  0  0  2  0  0  0  0  0  0
  161.7840  207.7530  139.2590 C   0  0  0  0  0  2  0  0  0  0  0  0
  161.1500  208.9790  139.7320 N   0  0  0  0  0  2  0  0  0  0  0  0
  161.4510  212.9790  138.8050 C   0  0  2  0  0  0  0  0  0  0  0  0
  163.2130  213.6700  141.1090 O   0  0  0  0  0  1  0  0  0  0  0  0
  162.3730  211.1730  139.6850 C   0  0  2  0  0  0  0  0  0  0  0  0
  162.2290  209.7010  137.7780 F   0  0  0  0  0  0  0  0  0  0  0  0
  160.7060  211.0080  141.5940 O   0  0  0  0  0  1  0  0  0  0  0  0
  161.6150  211.7920  140.8730 C   0  0  2  0  0  0  0  0  0  0  0  0
  161.5220  210.1270  138.8960 C   0  0  1  0  0  0  0  0  0  0  0  0
  160.4380  212.2410  137.9090 C   0  0  0  0  0  2  0  0  0  0  0  0
  160.9820  213.0410  140.2620 C   0  0  1  0  0  0  0  0  0  0  0  0
  161.7000  214.3750  138.2650 C   0  0  0  0  0  1  0  0  0  0  0  0
  161.9480  213.1680  141.4340 C   0  0  2  0  0  0  0  0  0  0  0  0
  160.2240  210.7940  138.3990 C   0  0  0  0  0  2  0  0  0  0  0  0
  163.5760  210.6150  140.1250 O   0  0  0  0  0  1  0  0  0  0  0  0
  159.6100  213.1390  140.5300 O   0  0  0  0  0  1  0  0  0  0  0  0
  162.6460  212.2350  138.8000 O   0  0  0  0  0  0  0  0  0  0  0  0
  161.3580  213.5600  142.7820 C   0  0  0  0  0  2  0  0  0  0  0  0
  162.0950  212.9710  143.8110 O   0  0  0  0  0  1  0  0  0  0  0  0
  160.6820  207.2910  148.1510 C   0  0  0  0  0  2  0  0  0  0  0  0
  161.9710  207.8360  148.7460 C   0  0  0  0  0  2  0  0  0  0  0  0
  160.6120  207.4280  153.5220 C   0  0  0  0  0  2  0  0  0  0  0  0
  161.4280  210.6020  147.9050 C   0  0  0  0  0  2  0  0  0  0  0  0
  160.6530  209.4320  155.0270 C   0  0  0  0  0  2  0  0  0  0  0  0
  161.8060  209.5330  152.7330 C   0  0  1  0  0  3  0  0  0  0  0  0
  161.0170  210.2880  153.8070 C   0  0  0  0  0  2  0  0  0  0  0  0
  161.0340  207.9630  154.8880 C   0  0  0  0  0  2  0  0  0  0  0  0
  161.1810  208.2340  152.4360 N   0  0  0  0  0  0  0  0  0  0  0  0
  161.8810  209.9010  150.3190 C   0  0  0  0  0  0  0  0  0  0  0  0
  162.4920  212.1780  149.3970 C   0  0  0  0  0  2  0  0  0  0  0  0
  161.8920  210.3660  151.5350 N   0  0  0  0  0  0  0  0  0  0  0  0
  162.3820  212.8390  148.0380 C   0  0  1  0  0  3  0  0  0  0  0  0
  161.3400  207.6540  151.1270 C   0  0  0  0  0  0  0  0  0  0  0  0
  161.4980  211.9350  147.1870 C   0  0  0  0  0  2  0  0  0  0  0  0
  161.7050  208.4390  150.0940 C   0  0  0  0  0  0  0  0  0  0  0  0
  161.9910  210.8270  149.2230 N   0  0  0  0  0  0  0  0  0  0  0  0
  161.1150  206.1780  150.9300 C   0  0  0  0  0  2  0  0  0  0  0  0
  163.2900  205.6960  151.7880 O   0  0  0  0  0  1  0  0  0  0  0  0
  161.9440  205.3540  151.9080 C   0  0  2  0  0  3  0  0  0  0  0  0
  161.7670  203.8610  151.6660 C   0  0  0  0  0  2  0  0  0  0  0  0
  160.5470  203.6030  151.0650 F   0  0  0  0  0  0  0  0  0  0  0  0
  161.7600  214.2190  148.1860 C   0  0  0  0  0  2  0  0  0  0  0  0
  160.2760  214.1460  148.0610 C   0  0  0  0  0  0  0  0  0  0  0  0
  159.7170  214.4530  146.9740 O   0  0  0  0  0  0  0  0  0  0  0  0
  159.5100  213.7100  149.1340 O   0  0  0  0  0  1  0  0  0  0  0  0
  2  7  1  6  0  0  0
  2  6  1  0  0  0  0
  2  3  1  0  0  0  0
  3  5  1  0  0  0  0
  4  1  2  0  0  0  0
  5  1  1  0  0  0  0
  5 30  1  0  0  0  0
  6  4  1  0  0  0  0
  8  7  1  0  0  0  0
  9  8  1  0  0  0  0
 10  9  1  0  0  0  0
 11 12  1  0  0  0  0
 11 10  1  0  0  0  0
 13 22  1  6  0  0  0
 13 21  1  0  0  0  0
 15 25  1  1  0  0  0
 15 18  1  0  0  0  0
 18 23  1  0  0  0  0
 18 17  1  1  0  0  0
 19 16  1  6  0  0  0
 19 15  1  0  0  0  0
 19 12  1  0  0  0  0
 20 24  1  0  0  0  0
 20 13  1  0  0  0  0
 21 26  1  1  0  0  0
 21 18  1  0  0  0  0
 21 23  1  0  0  0  0
 23 14  1  6  0  0  0
 23 28  1  0  0  0  0
 24 19  1  0  0  0  0
 27 13  1  0  0  0  0
 27 15  1  0  0  0  0
 28 29  1  0  0  0  0
 30 31  1  0  0  0  0
 31 45  1  0  0  0  0
 32 37  1  0  0  0  0
 33 46  1  0  0  0  0
 35 36  1  1  0  0  0
 36 34  1  0  0  0  0
 37 34  1  0  0  0  0
 38 35  1  0  0  0  0
 38 32  1  0  0  0  0
 39 41  2  0  0  0  0
 41 35  1  0  0  0  0
 42 52  1  1  0  0  0
 42 40  1  0  0  0  0
 43 38  1  0  0  0  0
 44 33  1  0  0  0  0
 44 42  1  0  0  0  0
 45 39  1  0  0  0  0
 45 43  2  0  0  0  0
 46 40  1  0  0  0  0
 46 39  1  0  0  0  0
 47 43  1  0  0  0  0
 47 49  1  0  0  0  0
 49 48  1  6  0  0  0
 50 49  1  0  0  0  0
 51 50  1  0  0  0  0
 53 52  1  0  0  0  0
 53 55  1  0  0  0  0
 54 53  2  0  0  0  0
M  END
>  <MODEL>
3

>  <REMARK>
 VINA RESULT:      -6.7      2.573      5.505
  Name = 
  16 active torsions:
  status: ('A' for Active; 'I' for Inactive)
    1  A    between atoms: C_2  and  C_28
    2  A    between atoms: C_2  and  N_44
    3  A    between atoms: C_4  and  C_40
    4  A    between atoms: C_8  and  N_22
    5  A    between atoms: C_8  and  C_43
    6  A    between atoms: C_10  and  C_32
    7  A    between atoms: C_11  and  C_38
    8  A    between atoms: C_19  and  C_40
    9  A    between atoms: C_19  and  C_45
   10  A    between atoms: C_20  and  N_22
   11  A    between atoms: C_27  and  C_54
   12  A    between atoms: C_28  and  C_49
   13  A    between atoms: C_32  and  C_39
   14  A    between atoms: C_35  and  C_43
   15  A    between atoms: C_35  and  C_51
   16  A    between atoms: C_51  and  C_54
                            x       y       z     vdW  Elec       q    Type
                         _______ _______ _______ _____ _____    ______ ____

>  <TORSDO>
F 16

$$$$
=
 OpenBabel11062408553D

 55 61  0  0  1  0  0  0  0  0999 V2000
  161.9580  204.3610  147.6300 C   0  0  0  0  0  3  0  0  0  0  0  0
  161.6940  205.3640  144.9940 C   0  0  1  0  0  3  0  0  0  0  0  0
  161.3930  206.3210  146.1460 C   0  0  0  0  0  2  0  0  0  0  0  0
  161.6370  203.4980  146.6640 C   0  0  0  0  0  3  0  0  0  0  0  0
  161.9100  205.7800  147.3990 N   0  0  0  0  0  0  0  0  0  0  0  0
  161.1560  203.9680  145.3200 C   0  0  0  0  0  2  0  0  0  0  0  0
  161.1350  205.8970  143.6770 C   0  0  0  0  0  2  0  0  0  0  0  0
  162.1320  205.7790  142.5290 C   0  0  0  0  0  2  0  0  0  0  0  0
  161.7030  206.6480  141.3550 C   0  0  0  0  0  2  0  0  0  0  0  0
  162.4490  206.2760  140.0810 C   0  0  0  0  0  2  0  0  0  0  0  0
  162.0070  207.1530  138.9250 C   0  0  0  0  0  2  0  0  0  0  0  0
  161.5520  208.4390  139.4440 N   0  0  0  0  0  2  0  0  0  0  0  0
  159.5780  211.7080  137.9050 C   0  0  2  0  0  0  0  0  0  0  0  0
  161.9940  213.4480  137.7490 O   0  0  0  0  0  1  0  0  0  0  0  0
  161.4380  210.5200  138.0400 C   0  0  2  0  0  0  0  0  0  0  0  0
  160.5840  208.3850  137.3070 F   0  0  0  0  0  0  0  0  0  0  0  0
  161.8040  211.0060  140.5070 O   0  0  0  0  0  1  0  0  0  0  0  0
  161.5630  211.5020  139.2190 C   0  0  2  0  0  0  0  0  0  0  0  0
  160.7660  209.1680  138.4410 C   0  0  1  0  0  0  0  0  0  0  0  0
  158.6150  210.5760  138.3110 C   0  0  0  0  0  2  0  0  0  0  0  0
  160.2790  212.3230  139.1210 C   0  0  1  0  0  0  0  0  0  0  0  0
  158.8270  212.7730  137.1270 C   0  0  0  0  0  1  0  0  0  0  0  0
  161.6350  213.0120  139.0290 C   0  0  2  0  0  0  0  0  0  0  0  0
  159.3720  209.4480  139.0410 C   0  0  0  0  0  2  0  0  0  0  0  0
  162.6910  210.3080  137.4610 O   0  0  0  0  0  1  0  0  0  0  0  0
  159.5870  212.3960  140.3370 O   0  0  0  0  0  1  0  0  0  0  0  0
  160.5880  211.1430  137.1040 O   0  0  0  0  0  0  0  0  0  0  0  0
  162.0600  213.8690  140.2130 C   0  0  0  0  0  2  0  0  0  0  0  0
  163.4540  213.9030  140.2970 O   0  0  0  0  0  1  0  0  0  0  0  0
  162.3730  206.7070  148.4190 C   0  0  0  0  0  2  0  0  0  0  0  0
  161.4570  207.9190  148.4820 C   0  0  0  0  0  2  0  0  0  0  0  0
  160.7560  207.5470  153.4000 C   0  0  0  0  0  2  0  0  0  0  0  0
  161.1820  210.7570  147.7610 C   0  0  0  0  0  2  0  0  0  0  0  0
  161.2850  209.4800  154.9060 C   0  0  0  0  0  2  0  0  0  0  0  0
  162.1000  209.4980  152.4690 C   0  0  1  0  0  3  0  0  0  0  0  0
  161.5840  210.3170  153.6550 C   0  0  0  0  0  2  0  0  0  0  0  0
  161.4380  207.9780  154.6950 C   0  0  0  0  0  2  0  0  0  0  0  0
  161.2670  208.3030  152.2520 N   0  0  0  0  0  0  0  0  0  0  0  0
  161.8770  209.9270  150.0740 C   0  0  0  0  0  0  0  0  0  0  0  0
  162.6540  212.1300  149.0990 C   0  0  0  0  0  2  0  0  0  0  0  0
  162.1260  210.3480  151.2810 N   0  0  0  0  0  0  0  0  0  0  0  0
  162.4420  212.8420  147.7780 C   0  0  1  0  0  3  0  0  0  0  0  0
  161.1560  207.7480  150.9270 C   0  0  0  0  0  0  0  0  0  0  0  0
  161.3290  212.0910  147.0550 C   0  0  0  0  0  2  0  0  0  0  0  0
  161.4720  208.5090  149.8610 C   0  0  0  0  0  0  0  0  0  0  0  0
  161.9540  210.8640  148.9850 N   0  0  0  0  0  0  0  0  0  0  0  0
  160.7060  206.3220  150.7480 C   0  0  0  0  0  2  0  0  0  0  0  0
  162.8600  205.7290  151.5890 O   0  0  0  0  0  1  0  0  0  0  0  0
  161.5130  205.3710  151.6240 C   0  0  2  0  0  3  0  0  0  0  0  0
  161.3510  203.9260  151.1700 C   0  0  0  0  0  2  0  0  0  0  0  0
  160.0620  203.6950  150.7210 F   0  0  0  0  0  0  0  0  0  0  0  0
  162.0420  214.2870  148.0310 C   0  0  0  0  0  2  0  0  0  0  0  0
  160.7360  214.3560  148.7490 C   0  0  0  0  0  0  0  0  0  0  0  0
  160.7060  214.3550  150.0090 O   0  0  0  0  0  1  0  0  0  0  0  0
  159.5530  214.4530  148.0290 O   0  0  0  0  0  0  0  0  0  0  0  0
  2  7  1  6  0  0  0
  2  6  1  0  0  0  0
  2  3  1  0  0  0  0
  3  5  1  0  0  0  0
  4  1  2  0  0  0  0
  5  1  1  0  0  0  0
  5 30  1  0  0  0  0
  6  4  1  0  0  0  0
  8  7  1  0  0  0  0
  9  8  1  0  0  0  0
 10  9  1  0  0  0  0
 11 12  1  0  0  0  0
 11 10  1  0  0  0  0
 13 22  1  6  0  0  0
 13 20  1  0  0  0  0
 13 21  1  0  0  0  0
 15 25  1  6  0  0  0
 15 19  1  0  0  0  0
 15 18  1  0  0  0  0
 18 17  1  1  0  0  0
 19 16  1  6  0  0  0
 19 24  1  0  0  0  0
 19 12  1  0  0  0  0
 20 24  1  0  0  0  0
 21 18  1  0  0  0  0
 21 26  1  1  0  0  0
 23 14  1  6  0  0  0
 23 21  1  0  0  0  0
 23 18  1  0  0  0  0
 23 28  1  0  0  0  0
 27 13  1  0  0  0  0
 27 15  1  0  0  0  0
 28 29  1  0  0  0  0
 30 31  1  0  0  0  0
 31 45  1  0  0  0  0
 32 37  1  0  0  0  0
 33 46  1  0  0  0  0
 35 36  1  1  0  0  0
 36 34  1  0  0  0  0
 37 34  1  0  0  0  0
 38 35  1  0  0  0  0
 38 32  1  0  0  0  0
 39 41  2  0  0  0  0
 41 35  1  0  0  0  0
 42 52  1  1  0  0  0
 42 40  1  0  0  0  0
 43 38  1  0  0  0  0
 44 33  1  0  0  0  0
 44 42  1  0  0  0  0
 45 39  1  0  0  0  0
 45 43  2  0  0  0  0
 46 40  1  0  0  0  0
 46 39  1  0  0  0  0
 47 43  1  0  0  0  0
 47 49  1  0  0  0  0
 49 48  1  6  0  0  0
 50 49  1  0  0  0  0
 51 50  1  0  0  0  0
 52 53  1  0  0  0  0
 53 54  1  0  0  0  0
 55 53  2  0  0  0  0
M  END
>  <MODEL>
4

>  <REMARK>
 VINA RESULT:      -6.5      2.629      5.546
  Name = 
  16 active torsions:
  status: ('A' for Active; 'I' for Inactive)
    1  A    between atoms: C_2  and  C_28
    2  A    between atoms: C_2  and  N_44
    3  A    between atoms: C_4  and  C_40
    4  A    between atoms: C_8  and  N_22
    5  A    between atoms: C_8  and  C_43
    6  A    between atoms: C_10  and  C_32
    7  A    between atoms: C_11  and  C_38
    8  A    between atoms: C_19  and  C_40
    9  A    between atoms: C_19  and  C_45
   10  A    between atoms: C_20  and  N_22
   11  A    between atoms: C_27  and  C_54
   12  A    between atoms: C_28  and  C_49
   13  A    between atoms: C_32  and  C_39
   14  A    between atoms: C_35  and  C_43
   15  A    between atoms: C_35  and  C_51
   16  A    between atoms: C_51  and  C_54
                            x       y       z     vdW  Elec       q    Type
                         _______ _______ _______ _____ _____    ______ ____

>  <TORSDO>
F 16

$$$$
=
 OpenBabel11062408553D

 55 61  0  0  1  0  0  0  0  0999 V2000
  162.1080  204.4460  147.6760 C   0  0  0  0  0  3  0  0  0  0  0  0
  161.7370  205.1290  144.9520 C   0  0  1  0  0  3  0  0  0  0  0  0
  161.4530  206.2090  145.9940 C   0  0  0  0  0  2  0  0  0  0  0  0
  161.7740  203.4700  146.8290 C   0  0  0  0  0  3  0  0  0  0  0  0
  162.0220  205.8270  147.2830 N   0  0  0  0  0  0  0  0  0  0  0  0
  161.2400  203.7720  145.4560 C   0  0  0  0  0  2  0  0  0  0  0  0
  161.1240  205.4940  143.6020 C   0  0  0  0  0  2  0  0  0  0  0  0
  162.1800  205.8130  142.5490 C   0  0  0  0  0  2  0  0  0  0  0  0
  161.5870  206.6660  141.4360 C   0  0  0  0  0  2  0  0  0  0  0  0
  162.5880  206.8970  140.3130 C   0  0  0  0  0  2  0  0  0  0  0  0
  161.8870  207.3970  139.0640 C   0  0  0  0  0  2  0  0  0  0  0  0
  161.0770  208.5620  139.4010 N   0  0  0  0  0  2  0  0  0  0  0  0
  161.8160  212.5420  138.6450 C   0  0  2  0  0  0  0  0  0  0  0  0
  159.6620  213.5720  140.4310 O   0  0  0  0  0  1  0  0  0  0  0  0
  161.1270  210.9870  140.0580 C   0  0  2  0  0  0  0  0  0  0  0  0
  163.0860  209.5780  140.0630 F   0  0  0  0  0  0  0  0  0  0  0  0
  159.0760  210.3720  138.6920 O   0  0  0  0  0  1  0  0  0  0  0  0
  159.8400  211.3720  139.3070 C   0  0  2  0  0  0  0  0  0  0  0  0
  161.8830  209.7890  139.4000 C   0  0  1  0  0  0  0  0  0  0  0  0
  162.6470  211.6070  137.7460 C   0  0  0  0  0  2  0  0  0  0  0  0
  160.3190  212.4480  138.3340 C   0  0  1  0  0  0  0  0  0  0  0  0
  162.3040  213.9710  138.4970 C   0  0  0  0  0  1  0  0  0  0  0  0
  159.2420  212.7720  139.3630 C   0  0  2  0  0  0  0  0  0  0  0  0
  162.2160  210.1380  137.9340 C   0  0  0  0  0  2  0  0  0  0  0  0
  160.8360  210.7240  141.3980 O   0  0  0  0  0  1  0  0  0  0  0  0
  159.9140  212.2060  137.0150 O   0  0  0  0  0  1  0  0  0  0  0  0
  161.9770  212.1080  139.9750 O   0  0  0  0  0  0  0  0  0  0  0  0
  157.8240  212.9730  138.8440 C   0  0  0  0  0  2  0  0  0  0  0  0
  156.9090  212.7750  139.8800 O   0  0  0  0  0  1  0  0  0  0  0  0
  162.4970  206.8750  148.1720 C   0  0  0  0  0  2  0  0  0  0  0  0
  161.4300  207.9460  148.3390 C   0  0  0  0  0  2  0  0  0  0  0  0
  160.7210  207.4360  153.2430 C   0  0  0  0  0  2  0  0  0  0  0  0
  161.2190  210.8110  147.7070 C   0  0  0  0  0  2  0  0  0  0  0  0
  161.2930  209.3100  154.8090 C   0  0  0  0  0  2  0  0  0  0  0  0
  162.1080  209.3850  152.3730 C   0  0  1  0  0  3  0  0  0  0  0  0
  161.6100  210.1790  153.5840 C   0  0  0  0  0  2  0  0  0  0  0  0
  161.4130  207.8110  154.5510 C   0  0  0  0  0  2  0  0  0  0  0  0
  161.2490  208.2170  152.1190 N   0  0  0  0  0  0  0  0  0  0  0  0
  161.8950  209.8940  149.9930 C   0  0  0  0  0  0  0  0  0  0  0  0
  162.7200  212.1080  149.0860 C   0  0  0  0  0  2  0  0  0  0  0  0
  162.1530  210.2710  151.2120 N   0  0  0  0  0  0  0  0  0  0  0  0
  162.5240  212.8650  147.7880 C   0  0  1  0  0  3  0  0  0  0  0  0
  161.1250  207.7060  150.7780 C   0  0  0  0  0  0  0  0  0  0  0  0
  161.3950  212.1620  147.0430 C   0  0  0  0  0  2  0  0  0  0  0  0
  161.4590  208.4920  149.7350 C   0  0  0  0  0  0  0  0  0  0  0  0
  161.9920  210.8620  148.9330 N   0  0  0  0  0  0  0  0  0  0  0  0
  160.6440  206.2960  150.5550 C   0  0  0  0  0  2  0  0  0  0  0  0
  162.7530  205.4640  151.3020 O   0  0  0  0  0  1  0  0  0  0  0  0
  161.3760  205.3100  151.4570 C   0  0  2  0  0  3  0  0  0  0  0  0
  160.9790  203.8730  151.1450 C   0  0  0  0  0  2  0  0  0  0  0  0
  160.5530  203.2230  152.2910 F   0  0  0  0  0  0  0  0  0  0  0  0
  162.1560  214.3100  148.0870 C   0  0  0  0  0  2  0  0  0  0  0  0
  160.7950  214.3950  148.6920 C   0  0  0  0  0  0  0  0  0  0  0  0
  160.6630  214.4530  149.9440 O   0  0  0  0  0  1  0  0  0  0  0  0
  159.6750  214.4430  147.8740 O   0  0  0  0  0  0  0  0  0  0  0  0
  2  7  1  6  0  0  0
  2  6  1  0  0  0  0
  2  3  1  0  0  0  0
  3  5  1  0  0  0  0
  4  1  2  0  0  0  0
  5  1  1  0  0  0  0
  5 30  1  0  0  0  0
  6  4  1  0  0  0  0
  8  7  1  0  0  0  0
  9  8  1  0  0  0  0
 10  9  1  0  0  0  0
 11 12  1  0  0  0  0
 11 10  1  0  0  0  0
 13 22  1  6  0  0  0
 13 27  1  0  0  0  0
 15 25  1  1  0  0  0
 18 17  1  6  0  0  0
 18 23  1  0  0  0  0
 18 15  1  0  0  0  0
 19 12  1  0  0  0  0
 19 15  1  0  0  0  0
 19 16  1  1  0  0  0
 20 24  1  0  0  0  0
 20 13  1  0  0  0  0
 21 26  1  6  0  0  0
 21 13  1  0  0  0  0
 21 18  1  0  0  0  0
 21 23  1  0  0  0  0
 23 14  1  1  0  0  0
 24 19  1  0  0  0  0
 27 15  1  0  0  0  0
 28 23  1  0  0  0  0
 28 29  1  0  0  0  0
 30 31  1  0  0  0  0
 31 45  1  0  0  0  0
 32 37  1  0  0  0  0
 33 46  1  0  0  0  0
 35 36  1  1  0  0  0
 36 34  1  0  0  0  0
 37 34  1  0  0  0  0
 38 35  1  0  0  0  0
 38 32  1  0  0  0  0
 39 41  2  0  0  0  0
 41 35  1  0  0  0  0
 42 52  1  1  0  0  0
 42 40  1  0  0  0  0
 43 38  1  0  0  0  0
 44 33  1  0  0  0  0
 44 42  1  0  0  0  0
 45 39  1  0  0  0  0
 45 43  2  0  0  0  0
 46 40  1  0  0  0  0
 46 39  1  0  0  0  0
 47 43  1  0  0  0  0
 47 49  1  0  0  0  0
 49 48  1  6  0  0  0
 50 49  1  0  0  0  0
 50 51  1  0  0  0  0
 52 53  1  0  0  0  0
 53 54  1  0  0  0  0
 55 53  2  0  0  0  0
M  END
>  <MODEL>
5

>  <REMARK>
 VINA RESULT:      -6.5      2.606      5.400
  Name = 
  16 active torsions:
  status: ('A' for Active; 'I' for Inactive)
    1  A    between atoms: C_2  and  C_28
    2  A    between atoms: C_2  and  N_44
    3  A    between atoms: C_4  and  C_40
    4  A    between atoms: C_8  and  N_22
    5  A    between atoms: C_8  and  C_43
    6  A    between atoms: C_10  and  C_32
    7  A    between atoms: C_11  and  C_38
    8  A    between atoms: C_19  and  C_40
    9  A    between atoms: C_19  and  C_45
   10  A    between atoms: C_20  and  N_22
   11  A    between atoms: C_27  and  C_54
   12  A    between atoms: C_28  and  C_49
   13  A    between atoms: C_32  and  C_39
   14  A    between atoms: C_35  and  C_43
   15  A    between atoms: C_35  and  C_51
   16  A    between atoms: C_51  and  C_54
                            x       y       z     vdW  Elec       q    Type
                         _______ _______ _______ _____ _____    ______ ____

>  <TORSDO>
F 16

$$$$
=
 OpenBabel11062408553D

 55 61  0  0  1  0  0  0  0  0999 V2000
  161.9310  208.9220  151.7290 C   0  0  0  0  0  3  0  0  0  0  0  0
  161.2130  206.2030  152.0680 C   0  0  1  0  0  3  0  0  0  0  0  0
  161.1060  207.1170  153.2860 C   0  0  0  0  0  2  0  0  0  0  0  0
  162.5280  208.0180  150.9490 C   0  0  0  0  0  3  0  0  0  0  0  0
  161.1600  208.5150  152.8730 N   0  0  0  0  0  0  0  0  0  0  0  0
  162.4690  206.5490  151.2630 C   0  0  0  0  0  2  0  0  0  0  0  0
  161.1890  204.7320  152.4800 C   0  0  0  0  0  2  0  0  0  0  0  0
  160.3190  203.8830  151.5600 C   0  0  0  0  0  2  0  0  0  0  0  0
  161.0890  202.6640  151.0690 C   0  0  0  0  0  2  0  0  0  0  0  0
  160.1670  201.6420  150.4210 C   0  0  0  0  0  2  0  0  0  0  0  0
  160.1240  201.8340  148.9170 C   0  0  0  0  0  2  0  0  0  0  0  0
  161.4590  202.1760  148.4380 N   0  0  0  0  0  2  0  0  0  0  0  0
  160.9170  204.4860  145.0730 C   0  0  2  0  0  0  0  0  0  0  0  0
  163.0160  206.4880  145.7650 O   0  0  0  0  0  1  0  0  0  0  0  0
  162.2830  203.7170  146.6320 C   0  0  2  0  0  0  0  0  0  0  0  0
  161.9510  201.3500  146.2980 F   0  0  0  0  0  0  0  0  0  0  0  0
  161.1270  204.9450  148.5320 O   0  0  0  0  0  1  0  0  0  0  0  0
  161.7200  205.0020  147.2640 C   0  0  2  0  0  0  0  0  0  0  0  0
  161.4530  202.4440  146.9940 C   0  0  1  0  0  0  0  0  0  0  0  0
  159.8590  203.3740  145.2000 C   0  0  0  0  0  2  0  0  0  0  0  0
  160.7790  205.5330  146.1830 C   0  0  1  0  0  0  0  0  0  0  0  0
  160.8190  205.1410  143.7070 C   0  0  0  0  0  1  0  0  0  0  0  0
  161.9490  206.3830  146.6640 C   0  0  2  0  0  0  0  0  0  0  0  0
  159.9880  202.6470  146.5540 C   0  0  0  0  0  2  0  0  0  0  0  0
  163.6250  203.5600  146.9850 O   0  0  0  0  0  1  0  0  0  0  0  0
  159.5030  205.8350  146.6760 O   0  0  0  0  0  1  0  0  0  0  0  0
  162.1830  203.8920  145.2370 O   0  0  0  0  0  0  0  0  0  0  0  0
  161.6190  207.6030  147.5120 C   0  0  0  0  0  2  0  0  0  0  0  0
  162.7850  208.1080  148.0910 O   0  0  0  0  0  1  0  0  0  0  0  0
  160.4200  209.5000  153.6470 C   0  0  0  0  0  2  0  0  0  0  0  0
  160.8110  210.9050  153.2180 C   0  0  0  0  0  2  0  0  0  0  0  0
  156.3700  212.3620  154.9430 C   0  0  0  0  0  2  0  0  0  0  0  0
  160.9250  211.6060  150.3640 C   0  0  0  0  0  2  0  0  0  0  0  0
  155.1630  214.2830  153.8760 C   0  0  0  0  0  2  0  0  0  0  0  0
  157.6340  213.8560  153.3140 C   0  0  1  0  0  3  0  0  0  0  0  0
  156.2680  214.3300  152.8110 C   0  0  0  0  0  2  0  0  0  0  0  0
  155.6020  213.6570  155.1950 C   0  0  0  0  0  2  0  0  0  0  0  0
  157.5130  212.5860  154.0510 N   0  0  0  0  0  0  0  0  0  0  0  0
  159.4640  212.8110  152.0780 C   0  0  0  0  0  0  0  0  0  0  0  0
  160.4310  213.9490  150.0340 C   0  0  0  0  0  2  0  0  0  0  0  0
  158.5390  213.7220  152.1740 N   0  0  0  0  0  0  0  0  0  0  0  0
  161.3360  213.5090  148.9000 C   0  0  1  0  0  3  0  0  0  0  0  0
  158.6270  211.6730  154.0780 C   0  0  0  0  0  0  0  0  0  0  0  0
  161.4330  211.9910  148.9880 C   0  0  0  0  0  2  0  0  0  0  0  0
  159.5960  211.7820  153.1480 C   0  0  0  0  0  0  0  0  0  0  0  0
  160.3030  212.7980  150.9090 N   0  0  0  0  0  0  0  0  0  0  0  0
  158.7060  210.6210  155.1520 C   0  0  0  0  0  2  0  0  0  0  0  0
  159.5850  212.5300  156.2840 O   0  0  0  0  0  1  0  0  0  0  0  0
  159.1660  211.2140  156.4780 C   0  0  2  0  0  3  0  0  0  0  0  0
  160.2970  210.3980  157.0890 C   0  0  0  0  0  2  0  0  0  0  0  0
  159.9330  209.0680  157.2080 F   0  0  0  0  0  0  0  0  0  0  0  0
  160.7350  213.9350  147.5690 C   0  0  0  0  0  2  0  0  0  0  0  0
  161.0530  212.9420  146.5030 C   0  0  0  0  0  0  0  0  0  0  0  0
  162.1690  212.9790  145.9170 O   0  0  0  0  0  0  0  0  0  0  0  0
  160.1320  211.9560  146.1770 O   0  0  0  0  0  1  0  0  0  0  0  0
  1  5  1  0  0  0  0
  2  7  1  1  0  0  0
  2  3  1  0  0  0  0
  4  6  1  0  0  0  0
  4  1  2  0  0  0  0
  5  3  1  0  0  0  0
  5 30  1  0  0  0  0
  6  2  1  0  0  0  0
  8  7  1  0  0  0  0
  9  8  1  0  0  0  0
 10  9  1  0  0  0  0
 11 10  1  0  0  0  0
 12 11  1  0  0  0  0
 13 22  1  6  0  0  0
 13 20  1  0  0  0  0
 13 27  1  0  0  0  0
 13 21  1  0  0  0  0
 15 25  1  1  0  0  0
 15 19  1  0  0  0  0
 15 18  1  0  0  0  0
 18 17  1  1  0  0  0
 19 16  1  6  0  0  0
 19 12  1  0  0  0  0
 20 24  1  0  0  0  0
 21 23  1  0  0  0  0
 21 26  1  1  0  0  0
 21 18  1  0  0  0  0
 23 14  1  6  0  0  0
 23 18  1  0  0  0  0
 23 28  1  0  0  0  0
 24 19  1  0  0  0  0
 27 15  1  0  0  0  0
 28 29  1  0  0  0  0
 31 30  1  0  0  0  0
 32 37  1  0  0  0  0
 33 46  1  0  0  0  0
 34 37  1  0  0  0  0
 35 36  1  6  0  0  0
 35 38  1  0  0  0  0
 36 34  1  0  0  0  0
 38 43  1  0  0  0  0
 38 32  1  0  0  0  0
 39 41  2  0  0  0  0
 39 45  1  0  0  0  0
 40 46  1  0  0  0  0
 41 35  1  0  0  0  0
 42 52  1  6  0  0  0
 42 44  1  0  0  0  0
 42 40  1  0  0  0  0
 43 47  1  0  0  0  0
 44 33  1  0  0  0  0
 45 31  1  0  0  0  0
 45 43  2  0  0  0  0
 46 39  1  0  0  0  0
 47 49  1  0  0  0  0
 49 48  1  6  0  0  0
 49 50  1  0  0  0  0
 50 51  1  0  0  0  0
 53 52  1  0  0  0  0
 54 53  2  0  0  0  0
 55 53  1  0  0  0  0
M  END
>  <MODEL>
6

>  <REMARK>
 VINA RESULT:      -4.4      4.822      9.518
  Name = 
  16 active torsions:
  status: ('A' for Active; 'I' for Inactive)
    1  A    between atoms: C_2  and  C_28
    2  A    between atoms: C_2  and  N_44
    3  A    between atoms: C_4  and  C_40
    4  A    between atoms: C_8  and  N_22
    5  A    between atoms: C_8  and  C_43
    6  A    between atoms: C_10  and  C_32
    7  A    between atoms: C_11  and  C_38
    8  A    between atoms: C_19  and  C_40
    9  A    between atoms: C_19  and  C_45
   10  A    between atoms: C_20  and  N_22
   11  A    between atoms: C_27  and  C_54
   12  A    between atoms: C_28  and  C_49
   13  A    between atoms: C_32  and  C_39
   14  A    between atoms: C_35  and  C_43
   15  A    between atoms: C_35  and  C_51
   16  A    between atoms: C_51  and  C_54
                            x       y       z     vdW  Elec       q    Type
                         _______ _______ _______ _____ _____    ______ ____

>  <TORSDO>
F 16

$$$$
