=
 OpenBabel11062409523D

 34 39  0  0  1  0  0  0  0  0999 V2000
  160.6560  209.7790  154.2450 C   0  0  2  0  0  0  0  0  0  0  0  0
  162.7290  207.1330  150.8500 O   0  0  0  0  0  1  0  0  0  0  0  0
  162.1660  209.6720  152.2840 C   0  0  0  0  0  2  0  0  0  0  0  0
  162.1690  209.9260  156.2860 C   0  0  0  0  0  2  0  0  0  0  0  0
  162.7950  211.0190  155.6780 O   0  0  0  0  0  0  0  0  0  0  0  0
  161.8290  210.5140  153.5210 C   0  0  2  0  0  3  0  0  0  0  0  0
  160.7330  209.8370  155.7870 C   0  0  0  0  0  2  0  0  0  0  0  0
  163.0980  210.5900  154.3810 C   0  0  0  0  0  2  0  0  0  0  0  0
  161.9020  207.1310  151.9690 C   0  0  0  0  0  0  0  0  0  0  0  0
  161.3230  205.9370  152.4620 C   0  0  0  0  0  0  0  0  0  0  0  0
  160.4980  205.9970  153.6040 C   0  0  0  0  0  3  0  0  0  0  0  0
  161.6360  208.3330  152.6310 C   0  0  0  0  0  0  0  0  0  0  0  0
  160.2430  207.2130  154.2470 C   0  0  0  0  0  3  0  0  0  0  0  0
  160.8230  208.3790  153.7380 C   0  0  0  0  0  0  0  0  0  0  0  0
  158.1280  210.0240  154.7020 C   0  0  1  0  0  3  0  0  0  0  0  0
  158.9410  212.9620  154.3060 C   0  0  2  0  0  3  0  0  0  0  0  0
  155.1660  211.5060  157.1670 C   0  0  0  0  0  1  0  0  0  0  0  0
  159.3950  211.8780  153.3470 C   0  0  2  0  0  0  0  0  0  0  0  0
  159.3030  210.3830  153.7640 C   0  0  1  0  0  3  0  0  0  0  0  0
  156.1920  213.6550  156.1650 C   0  0  2  0  0  3  0  0  0  0  0  0
  156.2020  211.5270  154.9500 O   0  0  0  0  0  0  0  0  0  0  0  0
  155.4880  214.4530  157.2590 C   0  0  0  0  0  1  0  0  0  0  0  0
  157.4640  211.1700  155.4850 C   0  0  2  0  0  3  0  0  0  0  0  0
  160.4500  212.2630  152.5150 O   0  0  0  0  0  1  0  0  0  0  0  0
  158.2630  213.6110  152.1080 O   0  0  0  0  0  1  0  0  0  0  0  0
  155.4980  212.3030  155.9020 C   0  0  1  0  0  3  0  0  0  0  0  0
  157.6720  213.4670  156.4080 C   0  0  0  0  0  0  0  0  0  0  0  0
  158.3840  212.3970  155.6310 C   0  0  2  0  0  3  0  0  0  0  0  0
  158.3990  214.4260  156.9890 C   0  0  0  0  0  2  0  0  0  0  0  0
  158.0910  212.6190  153.0760 C   0  0  2  0  0  3  0  0  0  0  0  0
  157.1330  209.1040  154.0110 C   0  0  0  0  0  1  0  0  0  0  0  0
  161.5550  204.6240  151.8180 C   0  0  0  0  0  0  0  0  0  0  0  0
  160.5100  203.9160  151.2350 O   0  0  0  0  0  0  0  0  0  0  0  0
  162.7120  204.1260  151.7950 O   0  0  0  0  0  1  0  0  0  0  0  0
  1  7  1  1  0  0  0
  2  9  1  0  0  0  0
  3 12  1  0  0  0  0
  5  4  1  0  0  0  0
  6  3  1  6  0  0  0
  6  1  1  0  0  0  0
  6  8  1  0  0  0  0
  7  4  1  0  0  0  0
  8  5  1  0  0  0  0
  9 10  2  0  0  0  0
  9 12  1  0  0  0  0
 10 11  1  0  0  0  0
 11 13  2  0  0  0  0
 12 14  2  0  0  0  0
 14  1  1  0  0  0  0
 14 13  1  0  0  0  0
 15 31  1  6  0  0  0
 15 23  1  0  0  0  0
 16 28  1  0  0  0  0
 18 19  1  0  0  0  0
 18 16  1  0  0  0  0
 19  1  1  0  0  0  0
 19 15  1  0  0  0  0
 20 27  1  0  0  0  0
 20 22  1  0  0  0  0
 21 23  1  0  0  0  0
 21 26  1  0  0  0  0
 23 28  1  0  0  0  0
 24 18  1  0  0  0  0
 25 30  1  0  0  0  0
 26 20  1  0  0  0  0
 26 17  1  0  0  0  0
 27 29  2  0  0  0  0
 28 27  1  0  0  0  0
 30 18  1  0  0  0  0
 30 16  1  0  0  0  0
 32 10  1  0  0  0  0
 33 32  2  0  0  0  0
 34 32  1  0  0  0  0
M  END
>  <MODEL>
1

>  <REMARK>
 VINA RESULT:      -0.2      0.000      0.000
  Name = 
  2 active torsions:
  status: ('A' for Active; 'I' for Inactive)
    1  A    between atoms: C_1  and  C_9
    2  A    between atoms: C_3  and  C_25
                            x       y       z     vdW  Elec       q    Type
                         _______ _______ _______ _____ _____    ______ ____

>  <TORSDO>
F 2

$$$$
=
 OpenBabel11062409523D

 34 39  0  0  1  0  0  0  0  0999 V2000
  159.3040  212.2010  152.0960 C   0  0  2  0  0  0  0  0  0  0  0  0
  157.2370  214.4370  155.7770 O   0  0  0  0  0  1  0  0  0  0  0  0
  159.0740  214.2630  153.4500 C   0  0  0  0  0  2  0  0  0  0  0  0
  157.9750  212.6110  149.9650 C   0  0  0  0  0  2  0  0  0  0  0  0
  158.7140  213.7870  149.7920 O   0  0  0  0  0  0  0  0  0  0  0  0
  159.5140  213.7490  152.0730 C   0  0  2  0  0  3  0  0  0  0  0  0
  158.8100  211.6130  150.7550 C   0  0  0  0  0  2  0  0  0  0  0  0
  158.6380  214.4470  151.0240 C   0  0  0  0  0  2  0  0  0  0  0  0
  157.3010  213.2670  155.0270 C   0  0  0  0  0  0  0  0  0  0  0  0
  156.4950  212.1440  155.3350 C   0  0  0  0  0  0  0  0  0  0  0  0
  156.5990  210.9870  154.5350 C   0  0  0  0  0  3  0  0  0  0  0  0
  158.1750  213.1920  153.9400 C   0  0  0  0  0  0  0  0  0  0  0  0
  157.4860  210.9340  153.4540 C   0  0  0  0  0  3  0  0  0  0  0  0
  158.2730  212.0550  153.1740 C   0  0  0  0  0  0  0  0  0  0  0  0
  160.4370  210.4460  153.6110 C   0  0  1  0  0  3  0  0  0  0  0  0
  161.5210  209.6290  150.8540 C   0  0  2  0  0  3  0  0  0  0  0  0
  160.8570  206.4610  154.6060 C   0  0  0  0  0  1  0  0  0  0  0  0
  161.5220  211.0760  151.3090 C   0  0  2  0  0  0  0  0  0  0  0  0
  160.6380  211.5130  152.5110 C   0  0  1  0  0  3  0  0  0  0  0  0
  161.9380  206.5730  152.2620 C   0  0  2  0  0  3  0  0  0  0  0  0
  161.9250  208.4990  153.7760 O   0  0  0  0  0  0  0  0  0  0  0  0
  161.8540  205.0510  152.1950 C   0  0  0  0  0  1  0  0  0  0  0  0
  160.7040  208.9770  153.2390 C   0  0  2  0  0  3  0  0  0  0  0  0
  161.7210  211.9950  150.2740 O   0  0  0  0  0  1  0  0  0  0  0  0
  163.7650  210.4390  150.6900 O   0  0  0  0  0  1  0  0  0  0  0  0
  161.9360  207.0850  153.7160 C   0  0  1  0  0  3  0  0  0  0  0  0
  160.8840  207.2760  151.4380 C   0  0  0  0  0  0  0  0  0  0  0  0
  160.6180  208.7260  151.7220 C   0  0  2  0  0  3  0  0  0  0  0  0
  160.4710  206.7670  150.2730 C   0  0  0  0  0  2  0  0  0  0  0  0
  162.7340  210.1990  151.6010 C   0  0  2  0  0  3  0  0  0  0  0  0
  161.0900  210.8710  154.9170 C   0  0  0  0  0  1  0  0  0  0  0  0
  155.5440  212.1420  156.4700 C   0  0  0  0  0  0  0  0  0  0  0  0
  154.8990  213.3070  156.8660 O   0  0  0  0  0  0  0  0  0  0  0  0
  155.3100  211.0750  157.0970 O   0  0  0  0  0  1  0  0  0  0  0  0
  1  7  1  6  0  0  0
  1 19  1  0  0  0  0
  1 14  1  0  0  0  0
  3 12  1  0  0  0  0
  4  7  1  0  0  0  0
  5  4  1  0  0  0  0
  5  8  1  0  0  0  0
  6  8  1  6  0  0  0
  6  1  1  0  0  0  0
  6  3  1  0  0  0  0
  9 10  1  0  0  0  0
  9  2  1  0  0  0  0
 10 32  1  0  0  0  0
 11 10  2  0  0  0  0
 12  9  2  0  0  0  0
 13 11  1  0  0  0  0
 14 13  2  0  0  0  0
 14 12  1  0  0  0  0
 15 31  1  1  0  0  0
 16 18  1  0  0  0  0
 16 30  1  0  0  0  0
 16 28  1  0  0  0  0
 18 30  1  0  0  0  0
 18 19  1  0  0  0  0
 19 15  1  0  0  0  0
 20 26  1  0  0  0  0
 22 20  1  0  0  0  0
 23 15  1  0  0  0  0
 23 21  1  0  0  0  0
 24 18  1  0  0  0  0
 25 30  1  0  0  0  0
 26 21  1  0  0  0  0
 26 17  1  0  0  0  0
 27 28  1  0  0  0  0
 27 20  1  0  0  0  0
 28 23  1  0  0  0  0
 29 27  2  0  0  0  0
 32 33  2  0  0  0  0
 32 34  1  0  0  0  0
M  END
>  <MODEL>
2

>  <REMARK>
 VINA RESULT:       1.5      2.074      7.368
  Name = 
  2 active torsions:
  status: ('A' for Active; 'I' for Inactive)
    1  A    between atoms: C_1  and  C_9
    2  A    between atoms: C_3  and  C_25
                            x       y       z     vdW  Elec       q    Type
                         _______ _______ _______ _____ _____    ______ ____

>  <TORSDO>
F 2

$$$$
=
 OpenBabel11062409523D

 34 39  0  0  1  0  0  0  0  0999 V2000
  160.5570  208.3540  154.6770 C   0  0  2  0  0  0  0  0  0  0  0  0
  163.4900  205.5360  152.1700 O   0  0  0  0  0  1  0  0  0  0  0  0
  162.7010  207.1180  154.5570 C   0  0  0  0  0  2  0  0  0  0  0  0
  159.0170  206.9410  156.1290 C   0  0  0  0  0  2  0  0  0  0  0  0
  160.0180  206.9470  157.1070 O   0  0  0  0  0  0  0  0  0  0  0  0
  161.6930  207.7190  155.5440 C   0  0  2  0  0  3  0  0  0  0  0  0
  159.1440  208.2000  155.2820 C   0  0  0  0  0  2  0  0  0  0  0  0
  161.1860  206.5740  156.4320 C   0  0  0  0  0  2  0  0  0  0  0  0
  162.2580  206.1810  152.2010 C   0  0  0  0  0  0  0  0  0  0  0  0
  161.3480  206.0940  151.1190 C   0  0  0  0  0  0  0  0  0  0  0  0
  160.1110  206.7650  151.2100 C   0  0  0  0  0  3  0  0  0  0  0  0
  161.9000  206.9310  153.3250 C   0  0  0  0  0  0  0  0  0  0  0  0
  159.7770  207.5130  152.3450 C   0  0  0  0  0  3  0  0  0  0  0  0
  160.6940  207.5860  153.3970 C   0  0  0  0  0  0  0  0  0  0  0  0
  160.5000  210.3400  153.0310 C   0  0  1  0  0  3  0  0  0  0  0  0
  159.1070  211.5670  155.4810 C   0  0  2  0  0  3  0  0  0  0  0  0
  158.1990  212.9520  150.8110 C   0  0  0  0  0  1  0  0  0  0  0  0
  160.3990  210.7820  155.6140 C   0  0  2  0  0  0  0  0  0  0  0  0
  160.8720  209.8620  154.4540 C   0  0  1  0  0  3  0  0  0  0  0  0
  157.6910  213.6770  153.2380 C   0  0  2  0  0  3  0  0  0  0  0  0
  159.8320  212.6660  152.6100 O   0  0  0  0  0  0  0  0  0  0  0  0
  156.4870  214.4520  152.7120 C   0  0  0  0  0  1  0  0  0  0  0  0
  159.3570  211.3620  152.8970 C   0  0  2  0  0  3  0  0  0  0  0  0
  160.6910  210.3890  156.9230 O   0  0  0  0  0  1  0  0  0  0  0  0
  160.6940  212.9690  156.5890 O   0  0  0  0  0  1  0  0  0  0  0  0
  158.7560  213.4590  152.1450 C   0  0  1  0  0  3  0  0  0  0  0  0
  157.3280  212.3740  153.9110 C   0  0  0  0  0  0  0  0  0  0  0  0
  158.4160  211.3600  154.1160 C   0  0  2  0  0  3  0  0  0  0  0  0
  156.2050  212.2610  154.6270 C   0  0  0  0  0  2  0  0  0  0  0  0
  160.4570  212.2890  155.3920 C   0  0  2  0  0  3  0  0  0  0  0  0
  161.7400  210.7060  152.2310 C   0  0  0  0  0  1  0  0  0  0  0  0
  161.6510  205.3210  149.8930 C   0  0  0  0  0  0  0  0  0  0  0  0
  162.0110  205.9610  148.7130 O   0  0  0  0  0  0  0  0  0  0  0  0
  161.5810  204.0640  149.9050 O   0  0  0  0  0  1  0  0  0  0  0  0
  1  7  1  1  0  0  0
  1  6  1  0  0  0  0
  2  9  1  0  0  0  0
  4  5  1  0  0  0  0
  6  3  1  6  0  0  0
  6  8  1  0  0  0  0
  7  4  1  0  0  0  0
  8  5  1  0  0  0  0
  9 12  1  0  0  0  0
 10 11  1  0  0  0  0
 10  9  2  0  0  0  0
 11 13  2  0  0  0  0
 12 14  2  0  0  0  0
 12  3  1  0  0  0  0
 13 14  1  0  0  0  0
 14  1  1  0  0  0  0
 15 31  1  1  0  0  0
 15 19  1  0  0  0  0
 16 18  1  0  0  0  0
 17 26  1  0  0  0  0
 18 24  1  0  0  0  0
 19  1  1  0  0  0  0
 19 18  1  0  0  0  0
 20 27  1  0  0  0  0
 21 23  1  0  0  0  0
 22 20  1  0  0  0  0
 23 15  1  0  0  0  0
 23 28  1  0  0  0  0
 26 21  1  0  0  0  0
 26 20  1  0  0  0  0
 27 28  1  0  0  0  0
 27 29  2  0  0  0  0
 28 16  1  0  0  0  0
 30 16  1  0  0  0  0
 30 18  1  0  0  0  0
 30 25  1  0  0  0  0
 32 34  1  0  0  0  0
 32 10  1  0  0  0  0
 33 32  2  0  0  0  0
M  END
>  <MODEL>
3

>  <REMARK>
 VINA RESULT:       2.2      1.952      3.516
  Name = 
  2 active torsions:
  status: ('A' for Active; 'I' for Inactive)
    1  A    between atoms: C_1  and  C_9
    2  A    between atoms: C_3  and  C_25
                            x       y       z     vdW  Elec       q    Type
                         _______ _______ _______ _____ _____    ______ ____

>  <TORSDO>
F 2

$$$$
=
 OpenBabel11062409523D

 34 39  0  0  1  0  0  0  0  0999 V2000
  161.5250  207.3080  151.9080 C   0  0  2  0  0  0  0  0  0  0  0  0
  163.5330  205.6540  147.9010 O   0  0  0  0  0  1  0  0  0  0  0  0
  163.4680  206.2270  150.8140 C   0  0  0  0  0  2  0  0  0  0  0  0
  160.2600  205.4410  153.0870 C   0  0  0  0  0  2  0  0  0  0  0  0
  161.4600  205.0940  153.7150 O   0  0  0  0  0  0  0  0  0  0  0  0
  162.7760  206.4080  152.1710 C   0  0  2  0  0  3  0  0  0  0  0  0
  160.2880  206.9250  152.7510 C   0  0  0  0  0  2  0  0  0  0  0  0
  162.4000  205.0100  152.6820 C   0  0  0  0  0  2  0  0  0  0  0  0
  162.4020  206.2290  148.4710 C   0  0  0  0  0  0  0  0  0  0  0  0
  161.2580  206.5410  147.6980 C   0  0  0  0  0  0  0  0  0  0  0  0
  160.1390  207.1160  148.3330 C   0  0  0  0  0  3  0  0  0  0  0  0
  162.3850  206.5030  149.8420 C   0  0  0  0  0  0  0  0  0  0  0  0
  160.1470  207.3860  149.7060 C   0  0  0  0  0  3  0  0  0  0  0  0
  161.2900  207.0720  150.4470 C   0  0  0  0  0  0  0  0  0  0  0  0
  161.3080  209.7550  151.1200 C   0  0  1  0  0  3  0  0  0  0  0  0
  160.4930  210.0140  154.0720 C   0  0  2  0  0  3  0  0  0  0  0  0
  158.8330  212.9970  150.4800 C   0  0  0  0  0  1  0  0  0  0  0  0
  161.7250  209.2330  153.6560 C   0  0  2  0  0  0  0  0  0  0  0  0
  161.9040  208.7940  152.1750 C   0  0  1  0  0  3  0  0  0  0  0  0
  158.8440  212.7960  153.0560 C   0  0  2  0  0  3  0  0  0  0  0  0
  160.7480  212.0760  151.6930 O   0  0  0  0  0  0  0  0  0  0  0  0
  157.6230  213.7100  153.0920 C   0  0  0  0  0  1  0  0  0  0  0  0
  160.2400  210.7580  151.5900 C   0  0  2  0  0  3  0  0  0  0  0  0
  162.2270  208.3920  154.6530 O   0  0  0  0  0  1  0  0  0  0  0  0
  162.3600  210.9190  155.2610 O   0  0  0  0  0  1  0  0  0  0  0  0
  159.6660  212.9860  151.7660 C   0  0  1  0  0  3  0  0  0  0  0  0
  158.5170  211.3380  153.2820 C   0  0  0  0  0  0  0  0  0  0  0  0
  159.5460  210.3160  152.8910 C   0  0  2  0  0  3  0  0  0  0  0  0
  157.5430  210.9750  154.1220 C   0  0  0  0  0  2  0  0  0  0  0  0
  161.8530  210.7180  153.9750 C   0  0  2  0  0  3  0  0  0  0  0  0
  162.4010  210.3840  150.2690 C   0  0  0  0  0  1  0  0  0  0  0  0
  161.1960  206.2820  146.2410 C   0  0  0  0  0  0  0  0  0  0  0  0
  162.3470  206.0120  145.5110 O   0  0  0  0  0  0  0  0  0  0  0  0
  160.0890  206.3080  145.6410 O   0  0  0  0  0  1  0  0  0  0  0  0
  1  6  1  0  0  0  0
  1 19  1  0  0  0  0
  1  7  1  1  0  0  0
  2  9  1  0  0  0  0
  4  5  1  0  0  0  0
  6  3  1  6  0  0  0
  6  8  1  0  0  0  0
  7  4  1  0  0  0  0
  8  5  1  0  0  0  0
  9 12  1  0  0  0  0
 10 11  1  0  0  0  0
 10  9  2  0  0  0  0
 11 13  2  0  0  0  0
 12 14  2  0  0  0  0
 12  3  1  0  0  0  0
 13 14  1  0  0  0  0
 14  1  1  0  0  0  0
 15 31  1  1  0  0  0
 15 23  1  0  0  0  0
 15 19  1  0  0  0  0
 17 26  1  0  0  0  0
 18 30  1  0  0  0  0
 18 16  1  0  0  0  0
 18 24  1  0  0  0  0
 19 18  1  0  0  0  0
 20 22  1  0  0  0  0
 20 27  1  0  0  0  0
 21 26  1  0  0  0  0
 23 21  1  0  0  0  0
 23 28  1  0  0  0  0
 26 20  1  0  0  0  0
 27 29  2  0  0  0  0
 28 27  1  0  0  0  0
 28 16  1  0  0  0  0
 30 16  1  0  0  0  0
 30 25  1  0  0  0  0
 32 10  1  0  0  0  0
 33 32  2  0  0  0  0
 34 32  1  0  0  0  0
M  END
>  <MODEL>
4

>  <REMARK>
 VINA RESULT:       2.4      2.609      4.962
  Name = 
  2 active torsions:
  status: ('A' for Active; 'I' for Inactive)
    1  A    between atoms: C_1  and  C_9
    2  A    between atoms: C_3  and  C_25
                            x       y       z     vdW  Elec       q    Type
                         _______ _______ _______ _____ _____    ______ ____

>  <TORSDO>
F 2

$$$$
