=
 OpenBabel11062410423D

 32 37  0  0  1  0  0  0  0  0999 V2000
  160.8310  207.4580  152.9340 C   0  0  1  0  0  3  0  0  0  0  0  0
  160.1060  203.4130  151.1220 F   0  0  0  0  0  0  0  0  0  0  0  0
  162.2050  208.8660  151.3920 C   0  0  1  0  0  3  0  0  0  0  0  0
  162.0950  210.0960  152.3110 C   0  0  1  0  0  3  0  0  0  0  0  0
  162.2590  210.6530  149.5620 C   0  0  2  0  0  3  0  0  0  0  0  0
  160.7220  204.1380  152.0910 C   0  0  0  0  0  3  0  0  0  0  0  0
  162.0890  206.1570  153.2220 S   0  0  0  0  0  0  0  0  0  0  0  0
  161.4910  205.2060  151.8390 C   0  0  0  0  0  0  0  0  0  0  0  0
  160.8340  207.1020  150.3300 C   0  0  2  0  0  3  0  0  0  0  0  0
  161.0150  211.2100  150.2400 C   0  0  0  0  0  2  0  0  0  0  0  0
  161.1520  211.1840  151.7660 C   0  0  0  0  0  2  0  0  0  0  0  0
  161.7060  205.8420  150.4900 C   0  0  2  0  0  3  0  0  0  0  0  0
  161.3790  208.0800  148.8890 S   0  0  0  0  0  0  0  0  0  0  0  0
  160.9940  208.5450  153.9870 C   0  0  0  0  0  0  0  0  0  0  0  0
  161.6370  209.7050  153.6980 C   0  0  0  0  0  3  0  0  0  0  0  0
  162.1930  210.8460  148.1950 F   0  0  0  0  0  0  0  0  0  0  0  0
  160.9370  208.0550  151.5170 C   0  0  1  0  0  3  0  0  0  0  0  0
  162.4480  209.1700  149.9090 C   0  0  2  0  0  3  0  0  0  0  0  0
  160.8210  210.2780  156.7730 C   0  0  0  0  0  2  0  0  0  0  0  0
  160.4950  208.2970  155.4090 C   0  0  1  0  0  0  0  0  0  0  0  0
  159.6440  207.1890  155.4470 O   0  0  0  0  0  1  0  0  0  0  0  0
  161.8090  209.2380  157.2590 C   0  0  0  0  0  2  0  0  0  0  0  0
  161.6790  208.0370  156.3330 C   0  0  0  0  0  2  0  0  0  0  0  0
  159.7660  209.4920  156.0270 C   0  0  2  0  0  3  0  0  0  0  0  0
  158.9780  210.3510  155.0380 C   0  0  0  0  0  2  0  0  0  0  0  0
  159.4960  212.8340  155.0990 C   0  0  0  0  0  3  0  0  0  0  0  0
  157.8840  211.9620  156.5760 N   0  0  0  0  0  0  0  0  0  0  0  0
  159.1860  214.0360  155.7300 C   0  0  0  0  0  3  0  0  0  0  0  0
  158.7680  211.7240  155.5780 C   0  0  0  0  0  0  0  0  0  0  0  0
  158.0230  213.5910  156.8420 S   0  0  0  0  0  0  0  0  0  0  0  0
  160.8040  205.0080  148.3160 C   0  0  0  0  0  2  0  0  0  0  0  0
  161.6920  204.9060  149.3050 C   0  0  0  0  0  3  0  0  0  0  0  0
  1  7  1  1  0  0  0
  1 14  1  0  0  0  0
  2  6  1  0  0  0  0
  3 17  1  0  0  0  0
  3  4  1  0  0  0  0
  4 15  1  0  0  0  0
  5 18  1  0  0  0  0
  5 10  1  0  0  0  0
  8  6  2  0  0  0  0
  8  7  1  0  0  0  0
  9 12  1  0  0  0  0
  9 17  1  0  0  0  0
 10 11  1  0  0  0  0
 11  4  1  0  0  0  0
 12  8  1  0  0  0  0
 13 18  1  0  0  0  0
 13  9  1  0  0  0  0
 14 20  1  0  0  0  0
 15 14  2  0  0  0  0
 16  5  1  0  0  0  0
 17  1  1  0  0  0  0
 18  3  1  0  0  0  0
 19 22  1  0  0  0  0
 20 21  1  0  0  0  0
 20 24  1  0  0  0  0
 20 23  1  0  0  0  0
 23 22  1  0  0  0  0
 24 19  1  0  0  0  0
 25 29  1  0  0  0  0
 25 24  1  0  0  0  0
 26 29  1  0  0  0  0
 26 28  2  0  0  0  0
 27 30  1  0  0  0  0
 28 30  1  0  0  0  0
 29 27  2  0  0  0  0
 31 32  2  0  0  0  0
 32 12  1  0  0  0  0
M  END
>  <MODEL>
1

>  <REMARK>
 VINA RESULT:      -6.2      0.000      0.000
  Name = 
  4 active torsions:
  status: ('A' for Active; 'I' for Inactive)
    1  A    between atoms: C_8  and  C_28
    2  A    between atoms: C_19  and  C_24
    3  A    between atoms: C_23  and  C_24
    4  A    between atoms: C_25  and  C_26
                            x       y       z     vdW  Elec       q    Type
                         _______ _______ _______ _____ _____    ______ ____

>  <TORSDO>
F 4

$$$$
=
 OpenBabel11062410423D

 32 37  0  0  1  0  0  0  0  0999 V2000
  161.2370  206.9860  148.7320 C   0  0  1  0  0  3  0  0  0  0  0  0
  161.2380  211.4590  149.1370 F   0  0  0  0  0  0  0  0  0  0  0  0
  161.9960  205.9220  150.8620 C   0  0  1  0  0  3  0  0  0  0  0  0
  161.7330  204.5040  150.3250 C   0  0  1  0  0  3  0  0  0  0  0  0
  161.3570  204.8360  153.0880 C   0  0  2  0  0  3  0  0  0  0  0  0
  161.7980  210.3630  148.5650 C   0  0  0  0  0  3  0  0  0  0  0  0
  162.7960  207.8760  148.3630 S   0  0  0  0  0  0  0  0  0  0  0  0
  162.2470  209.3110  149.2630 C   0  0  0  0  0  0  0  0  0  0  0  0
  160.9440  208.1510  151.0690 C   0  0  2  0  0  3  0  0  0  0  0  0
  160.1290  204.3280  152.3470 C   0  0  0  0  0  2  0  0  0  0  0  0
  160.4890  203.8380  150.9400 C   0  0  0  0  0  2  0  0  0  0  0  0
  162.1040  209.1130  150.7510 C   0  0  2  0  0  3  0  0  0  0  0  0
  161.0250  207.6040  152.8080 S   0  0  0  0  0  0  0  0  0  0  0  0
  161.2890  205.6090  148.0860 C   0  0  0  0  0  0  0  0  0  0  0  0
  161.5880  204.5070  148.8190 C   0  0  0  0  0  3  0  0  0  0  0  0
  161.0480  205.1070  154.4090 F   0  0  0  0  0  0  0  0  0  0  0  0
  160.9900  206.8660  150.2480 C   0  0  1  0  0  3  0  0  0  0  0  0
  161.9410  206.0710  152.3870 C   0  0  2  0  0  3  0  0  0  0  0  0
  162.6640  203.8950  145.6430 C   0  0  0  0  0  2  0  0  0  0  0  0
  161.0770  205.4750  146.5800 C   0  0  1  0  0  0  0  0  0  0  0  0
  159.8180  205.9580  146.2140 O   0  0  0  0  0  1  0  0  0  0  0  0
  163.0710  205.2720  145.1600 C   0  0  0  0  0  2  0  0  0  0  0  0
  162.1420  206.2710  145.8360 C   0  0  0  0  0  2  0  0  0  0  0  0
  161.2180  204.0430  146.0590 C   0  0  2  0  0  3  0  0  0  0  0  0
  160.7700  202.9530  147.0340 C   0  0  0  0  0  2  0  0  0  0  0  0
  160.0560  201.3890  145.1690 C   0  0  0  0  0  3  0  0  0  0  0  0
  161.4050  200.5580  146.9100 N   0  0  0  0  0  0  0  0  0  0  0  0
  160.1380  200.0800  144.7010 C   0  0  0  0  0  3  0  0  0  0  0  0
  160.7600  201.6190  146.3710 C   0  0  0  0  0  0  0  0  0  0  0  0
  161.0870  199.3260  145.8490 S   0  0  0  0  0  0  0  0  0  0  0  0
  161.0670  210.8400  152.2250 C   0  0  0  0  0  2  0  0  0  0  0  0
  162.1400  210.3650  151.5930 C   0  0  0  0  0  3  0  0  0  0  0  0
  1 14  1  1  0  0  0
  1 17  1  0  0  0  0
  3 18  1  0  0  0  0
  4  3  1  0  0  0  0
  4 11  1  0  0  0  0
  5 16  1  0  0  0  0
  6  2  1  0  0  0  0
  6  8  2  0  0  0  0
  7  1  1  0  0  0  0
  7  8  1  0  0  0  0
  8 12  1  0  0  0  0
  9 13  1  0  0  0  0
 10  5  1  0  0  0  0
 11 10  1  0  0  0  0
 12  9  1  0  0  0  0
 12 32  1  0  0  0  0
 14 15  2  0  0  0  0
 15  4  1  0  0  0  0
 17  3  1  0  0  0  0
 17  9  1  0  0  0  0
 18 13  1  0  0  0  0
 18  5  1  0  0  0  0
 19 24  1  0  0  0  0
 20 14  1  0  0  0  0
 21 20  1  0  0  0  0
 22 19  1  0  0  0  0
 22 23  1  0  0  0  0
 23 20  1  0  0  0  0
 24 20  1  0  0  0  0
 24 25  1  0  0  0  0
 26 29  1  0  0  0  0
 28 26  2  0  0  0  0
 28 30  1  0  0  0  0
 29 27  2  0  0  0  0
 29 25  1  0  0  0  0
 30 27  1  0  0  0  0
 32 31  2  0  0  0  0
M  END
>  <MODEL>
2

>  <REMARK>
 VINA RESULT:      -5.8      4.351      9.468
  Name = 
  4 active torsions:
  status: ('A' for Active; 'I' for Inactive)
    1  A    between atoms: C_8  and  C_28
    2  A    between atoms: C_19  and  C_24
    3  A    between atoms: C_23  and  C_24
    4  A    between atoms: C_25  and  C_26
                            x       y       z     vdW  Elec       q    Type
                         _______ _______ _______ _____ _____    ______ ____

>  <TORSDO>
F 4

$$$$
=
 OpenBabel11062410423D

 32 37  0  0  1  0  0  0  0  0999 V2000
  161.9310  205.5940  149.3090 C   0  0  1  0  0  3  0  0  0  0  0  0
  162.9350  205.8790  144.9410 F   0  0  0  0  0  0  0  0  0  0  0  0
  160.3560  203.6960  149.7150 C   0  0  1  0  0  3  0  0  0  0  0  0
  160.3980  203.9020  151.2390 C   0  0  1  0  0  3  0  0  0  0  0  0
  160.0440  201.2480  150.3890 C   0  0  2  0  0  3  0  0  0  0  0  0
  162.3040  206.4340  146.0070 C   0  0  0  0  0  3  0  0  0  0  0  0
  160.8150  206.5800  148.2400 S   0  0  0  0  0  0  0  0  0  0  0  0
  161.4270  205.7730  146.7750 C   0  0  0  0  0  0  0  0  0  0  0  0
  161.8290  203.4890  147.7380 C   0  0  2  0  0  3  0  0  0  0  0  0
  161.2640  201.4630  151.2730 C   0  0  0  0  0  2  0  0  0  0  0  0
  161.2070  202.8220  151.9800 C   0  0  0  0  0  2  0  0  0  0  0  0
  161.0870  204.3080  146.6660 C   0  0  2  0  0  3  0  0  0  0  0  0
  161.1230  201.8110  147.8650 S   0  0  0  0  0  0  0  0  0  0  0  0
  161.7220  206.0100  150.7580 C   0  0  0  0  0  0  0  0  0  0  0  0
  160.9610  205.2600  151.5950 C   0  0  0  0  0  3  0  0  0  0  0  0
  160.0220  199.9550  149.8990 F   0  0  0  0  0  0  0  0  0  0  0  0
  161.6980  204.0810  149.1390 C   0  0  1  0  0  3  0  0  0  0  0  0
  160.0120  202.2760  149.2490 C   0  0  2  0  0  3  0  0  0  0  0  0
  160.5390  208.8860  151.8200 C   0  0  0  0  0  2  0  0  0  0  0  0
  162.3130  207.3270  151.2570 C   0  0  1  0  0  0  0  0  0  0  0  0
  163.6470  207.1570  151.6330 O   0  0  0  0  0  1  0  0  0  0  0  0
  161.2070  209.4090  150.5650 C   0  0  0  0  0  2  0  0  0  0  0  0
  162.2450  208.3740  150.1520 C   0  0  0  0  0  2  0  0  0  0  0  0
  161.5500  207.9420  152.4320 C   0  0  2  0  0  3  0  0  0  0  0  0
  160.9130  206.9340  153.3880 C   0  0  0  0  0  2  0  0  0  0  0  0
  160.0260  206.9130  155.7650 C   0  0  0  0  0  3  0  0  0  0  0  0
  161.5830  208.5620  155.1360 N   0  0  0  0  0  0  0  0  0  0  0  0
  160.0830  207.5610  156.9960 C   0  0  0  0  0  3  0  0  0  0  0  0
  160.8560  207.4780  154.7740 C   0  0  0  0  0  0  0  0  0  0  0  0
  161.1740  208.7950  156.7250 S   0  0  0  0  0  0  0  0  0  0  0  0
  160.0420  203.6030  144.5110 C   0  0  0  0  0  2  0  0  0  0  0  0
  161.1280  203.7190  145.2760 C   0  0  0  0  0  3  0  0  0  0  0  0
  1  7  1  6  0  0  0
  1 14  1  0  0  0  0
  2  6  1  0  0  0  0
  3  4  1  0  0  0  0
  4 15  1  0  0  0  0
  4 11  1  0  0  0  0
  5 10  1  0  0  0  0
  6  8  2  0  0  0  0
  8  7  1  0  0  0  0
  9 13  1  0  0  0  0
  9 17  1  0  0  0  0
 10 11  1  0  0  0  0
 12  8  1  0  0  0  0
 12  9  1  0  0  0  0
 13 18  1  0  0  0  0
 14 20  1  0  0  0  0
 14 15  2  0  0  0  0
 16  5  1  0  0  0  0
 17  1  1  0  0  0  0
 17  3  1  0  0  0  0
 18  3  1  0  0  0  0
 18  5  1  0  0  0  0
 19 24  1  0  0  0  0
 20 21  1  0  0  0  0
 20 24  1  0  0  0  0
 22 19  1  0  0  0  0
 23 22  1  0  0  0  0
 23 20  1  0  0  0  0
 24 25  1  0  0  0  0
 25 29  1  0  0  0  0
 26 28  2  0  0  0  0
 27 30  1  0  0  0  0
 29 27  2  0  0  0  0
 29 26  1  0  0  0  0
 30 28  1  0  0  0  0
 31 32  2  0  0  0  0
 32 12  1  0  0  0  0
M  END
>  <MODEL>
3

>  <REMARK>
 VINA RESULT:      -4.8      3.176      6.183
  Name = 
  4 active torsions:
  status: ('A' for Active; 'I' for Inactive)
    1  A    between atoms: C_8  and  C_28
    2  A    between atoms: C_19  and  C_24
    3  A    between atoms: C_23  and  C_24
    4  A    between atoms: C_25  and  C_26
                            x       y       z     vdW  Elec       q    Type
                         _______ _______ _______ _____ _____    ______ ____

>  <TORSDO>
F 4

$$$$
=
 OpenBabel11062410423D

 32 37  0  0  1  0  0  0  0  0999 V2000
  160.8900  207.4250  152.8360 C   0  0  1  0  0  3  0  0  0  0  0  0
  159.7700  203.0860  152.5290 F   0  0  0  0  0  0  0  0  0  0  0  0
  162.4200  208.0600  150.9640 C   0  0  1  0  0  3  0  0  0  0  0  0
  162.4290  209.5400  151.3860 C   0  0  1  0  0  3  0  0  0  0  0  0
  162.6810  209.0690  148.6280 C   0  0  2  0  0  3  0  0  0  0  0  0
  160.4470  204.0470  153.2090 C   0  0  0  0  0  3  0  0  0  0  0  0
  162.0030  206.1990  153.6220 S   0  0  0  0  0  0  0  0  0  0  0  0
  161.3260  204.8800  152.6350 C   0  0  0  0  0  0  0  0  0  0  0  0
  160.8860  206.1700  150.5270 C   0  0  2  0  0  3  0  0  0  0  0  0
  161.4940  209.9430  149.0070 C   0  0  0  0  0  2  0  0  0  0  0  0
  161.6100  210.4470  150.4500 C   0  0  0  0  0  2  0  0  0  0  0  0
  161.6200  204.9730  151.1600 C   0  0  2  0  0  3  0  0  0  0  0  0
  161.5470  206.5180  148.8620 S   0  0  0  0  0  0  0  0  0  0  0  0
  161.1530  208.7940  153.4460 C   0  0  0  0  0  0  0  0  0  0  0  0
  161.9160  209.7110  152.7990 C   0  0  0  0  0  3  0  0  0  0  0  0
  162.6510  208.7700  147.2790 F   0  0  0  0  0  0  0  0  0  0  0  0
  161.0740  207.4680  151.3070 C   0  0  1  0  0  3  0  0  0  0  0  0
  162.7100  207.7940  149.4820 C   0  0  2  0  0  3  0  0  0  0  0  0
  160.7920  211.4930  155.2850 C   0  0  0  0  0  2  0  0  0  0  0  0
  160.6150  209.1130  154.8390 C   0  0  1  0  0  0  0  0  0  0  0  0
  159.8190  208.0670  155.3120 O   0  0  0  0  0  1  0  0  0  0  0  0
  161.8120  210.8000  156.1650 C   0  0  0  0  0  2  0  0  0  0  0  0
  161.7750  209.3210  155.8050 C   0  0  0  0  0  2  0  0  0  0  0  0
  159.8060  210.4100  154.9090 C   0  0  2  0  0  3  0  0  0  0  0  0
  159.0140  210.7470  153.6450 C   0  0  0  0  0  2  0  0  0  0  0  0
  156.9120  211.3700  154.9230 C   0  0  0  0  0  3  0  0  0  0  0  0
  157.7460  212.8510  153.2950 N   0  0  0  0  0  0  0  0  0  0  0  0
  155.9270  212.3420  155.0670 C   0  0  0  0  0  3  0  0  0  0  0  0
  157.8910  211.6770  153.9540 C   0  0  0  0  0  0  0  0  0  0  0  0
  156.3740  213.5030  153.9540 S   0  0  0  0  0  0  0  0  0  0  0  0
  160.6240  203.4910  149.4160 C   0  0  0  0  0  2  0  0  0  0  0  0
  161.5230  203.6840  150.3810 C   0  0  0  0  0  3  0  0  0  0  0  0
  1 14  1  1  0  0  0
  1  7  1  0  0  0  0
  2  6  1  0  0  0  0
  3 17  1  0  0  0  0
  3  4  1  0  0  0  0
  4 15  1  0  0  0  0
  5 10  1  0  0  0  0
  5 18  1  0  0  0  0
  8  6  2  0  0  0  0
  8  7  1  0  0  0  0
  9 12  1  0  0  0  0
  9 17  1  0  0  0  0
 10 11  1  0  0  0  0
 11  4  1  0  0  0  0
 12  8  1  0  0  0  0
 13 18  1  0  0  0  0
 13  9  1  0  0  0  0
 14 20  1  0  0  0  0
 15 14  2  0  0  0  0
 16  5  1  0  0  0  0
 17  1  1  0  0  0  0
 18  3  1  0  0  0  0
 19 22  1  0  0  0  0
 20 24  1  0  0  0  0
 20 21  1  0  0  0  0
 20 23  1  0  0  0  0
 23 22  1  0  0  0  0
 24 19  1  0  0  0  0
 25 29  1  0  0  0  0
 25 24  1  0  0  0  0
 26 28  2  0  0  0  0
 27 29  2  0  0  0  0
 27 30  1  0  0  0  0
 29 26  1  0  0  0  0
 30 28  1  0  0  0  0
 31 32  2  0  0  0  0
 32 12  1  0  0  0  0
M  END
>  <MODEL>
4

>  <REMARK>
 VINA RESULT:      -4.7      1.569      1.769
  Name = 
  4 active torsions:
  status: ('A' for Active; 'I' for Inactive)
    1  A    between atoms: C_8  and  C_28
    2  A    between atoms: C_19  and  C_24
    3  A    between atoms: C_23  and  C_24
    4  A    between atoms: C_25  and  C_26
                            x       y       z     vdW  Elec       q    Type
                         _______ _______ _______ _____ _____    ______ ____

>  <TORSDO>
F 4

$$$$
=
 OpenBabel11062410423D

 32 37  0  0  1  0  0  0  0  0999 V2000
  160.3310  210.2400  153.9500 C   0  0  1  0  0  3  0  0  0  0  0  0
  161.5470  210.2000  149.6270 F   0  0  0  0  0  0  0  0  0  0  0  0
  159.1930  212.3930  154.5110 C   0  0  1  0  0  3  0  0  0  0  0  0
  158.8760  211.9290  155.9430 C   0  0  1  0  0  3  0  0  0  0  0  0
  156.9950  213.6710  154.7950 C   0  0  2  0  0  3  0  0  0  0  0  0
  161.9420  210.2430  150.9250 C   0  0  0  0  0  3  0  0  0  0  0  0
  161.9600  210.9590  153.5150 S   0  0  0  0  0  0  0  0  0  0  0  0
  161.4800  211.1370  151.8090 C   0  0  0  0  0  0  0  0  0  0  0  0
  159.0490  211.6640  152.1510 C   0  0  2  0  0  3  0  0  0  0  0  0
  156.4180  212.3350  155.2410 C   0  0  0  0  0  2  0  0  0  0  0  0
  157.3900  211.5870  156.1600 C   0  0  0  0  0  2  0  0  0  0  0  0
  160.3860  212.1440  151.5580 C   0  0  2  0  0  3  0  0  0  0  0  0
  157.8430  213.0330  152.2020 S   0  0  0  0  0  0  0  0  0  0  0  0
  160.3180  209.9060  155.4340 C   0  0  0  0  0  0  0  0  0  0  0  0
  159.7120  210.7290  156.3280 C   0  0  0  0  0  3  0  0  0  0  0  0
  156.0420  214.4070  154.1160 F   0  0  0  0  0  0  0  0  0  0  0  0
  159.1720  211.1910  153.5970 C   0  0  1  0  0  3  0  0  0  0  0  0
  158.2520  213.4600  153.9390 C   0  0  2  0  0  3  0  0  0  0  0  0
  159.7570  206.6690  155.5070 C   0  0  0  0  0  2  0  0  0  0  0  0
  161.0630  208.6710  155.9360 C   0  0  1  0  0  0  0  0  0  0  0  0
  162.4170  208.9560  156.1280 O   0  0  0  0  0  1  0  0  0  0  0  0
  159.7400  206.8970  157.0040 C   0  0  0  0  0  2  0  0  0  0  0  0
  160.4660  208.2110  157.2610 C   0  0  0  0  0  2  0  0  0  0  0  0
  160.9460  207.4590  155.0080 C   0  0  2  0  0  3  0  0  0  0  0  0
  160.8520  207.7910  153.5190 C   0  0  0  0  0  2  0  0  0  0  0  0
  161.1150  206.6300  151.2780 C   0  0  0  0  0  3  0  0  0  0  0  0
  161.2740  205.3600  153.2530 N   0  0  0  0  0  0  0  0  0  0  0  0
  161.3330  205.4000  150.6640 C   0  0  0  0  0  3  0  0  0  0  0  0
  161.0930  206.5770  152.6890 C   0  0  0  0  0  0  0  0  0  0  0  0
  161.4720  204.3510  151.9550 S   0  0  0  0  0  0  0  0  0  0  0  0
  160.5530  213.9660  149.8590 C   0  0  0  0  0  2  0  0  0  0  0  0
  160.2980  212.6910  150.1530 C   0  0  0  0  0  3  0  0  0  0  0  0
  1  7  1  1  0  0  0
  1 14  1  0  0  0  0
  2  6  1  0  0  0  0
  3  4  1  0  0  0  0
  4 11  1  0  0  0  0
  4 15  1  0  0  0  0
  5 10  1  0  0  0  0
  6  8  2  0  0  0  0
  8  7  1  0  0  0  0
  9 13  1  0  0  0  0
  9 17  1  0  0  0  0
 10 11  1  0  0  0  0
 12  8  1  0  0  0  0
 12  9  1  0  0  0  0
 13 18  1  0  0  0  0
 14 20  1  0  0  0  0
 14 15  2  0  0  0  0
 16  5  1  0  0  0  0
 17  1  1  0  0  0  0
 17  3  1  0  0  0  0
 18  3  1  0  0  0  0
 18  5  1  0  0  0  0
 19 22  1  0  0  0  0
 20 21  1  0  0  0  0
 20 23  1  0  0  0  0
 22 23  1  0  0  0  0
 24 19  1  0  0  0  0
 24 20  1  0  0  0  0
 25 24  1  0  0  0  0
 26 29  1  0  0  0  0
 28 26  2  0  0  0  0
 28 30  1  0  0  0  0
 29 27  2  0  0  0  0
 29 25  1  0  0  0  0
 30 27  1  0  0  0  0
 31 32  2  0  0  0  0
 32 12  1  0  0  0  0
M  END
>  <MODEL>
5

>  <REMARK>
 VINA RESULT:      -4.4      2.937      6.233
  Name = 
  4 active torsions:
  status: ('A' for Active; 'I' for Inactive)
    1  A    between atoms: C_8  and  C_28
    2  A    between atoms: C_19  and  C_24
    3  A    between atoms: C_23  and  C_24
    4  A    between atoms: C_25  and  C_26
                            x       y       z     vdW  Elec       q    Type
                         _______ _______ _______ _____ _____    ______ ____

>  <TORSDO>
F 4

$$$$
=
 OpenBabel11062410423D

 32 37  0  0  1  0  0  0  0  0999 V2000
  158.9620  212.8400  140.6270 C   0  0  1  0  0  3  0  0  0  0  0  0
  159.4430  212.5220  145.0810 F   0  0  0  0  0  0  0  0  0  0  0  0
  161.1870  213.1670  139.5350 C   0  0  1  0  0  3  0  0  0  0  0  0
  160.5780  213.1010  138.1240 C   0  0  1  0  0  3  0  0  0  0  0  0
  163.1960  212.1100  138.3550 C   0  0  2  0  0  3  0  0  0  0  0  0
  158.9880  213.2500  144.0300 C   0  0  0  0  0  3  0  0  0  0  0  0
  158.9640  214.3950  141.5980 S   0  0  0  0  0  0  0  0  0  0  0  0
  159.7480  213.5880  142.9790 C   0  0  0  0  0  0  0  0  0  0  0  0
  161.1990  211.9810  141.7070 C   0  0  2  0  0  3  0  0  0  0  0  0
  162.1910  211.1030  137.8130 C   0  0  0  0  0  2  0  0  0  0  0  0
  160.8900  211.7890  137.3830 C   0  0  0  0  0  2  0  0  0  0  0  0
  161.1630  213.1320  142.7300 C   0  0  2  0  0  3  0  0  0  0  0  0
  162.9020  211.7060  141.1120 S   0  0  0  0  0  0  0  0  0  0  0  0
  158.3180  213.1040  139.2740 C   0  0  0  0  0  0  0  0  0  0  0  0
  159.0770  213.2910  138.1650 C   0  0  0  0  0  3  0  0  0  0  0  0
  164.4200  211.5050  138.5720 F   0  0  0  0  0  0  0  0  0  0  0  0
  160.3840  212.2730  140.4500 C   0  0  1  0  0  3  0  0  0  0  0  0
  162.6650  212.7700  139.6350 C   0  0  2  0  0  3  0  0  0  0  0  0
  156.0240  212.4400  137.0170 C   0  0  0  0  0  2  0  0  0  0  0  0
  156.7990  213.2360  139.1750 C   0  0  1  0  0  0  0  0  0  0  0  0
  156.2350  213.3860  140.4440 O   0  0  0  0  0  1  0  0  0  0  0  0
  155.8530  213.9450  137.0220 C   0  0  0  0  0  2  0  0  0  0  0  0
  156.4410  214.4530  138.3320 C   0  0  0  0  0  2  0  0  0  0  0  0
  156.1200  212.0560  138.4760 C   0  0  2  0  0  3  0  0  0  0  0  0
  156.7960  210.7020  138.6870 C   0  0  0  0  0  2  0  0  0  0  0  0
  154.7170  209.6210  139.6600 C   0  0  0  0  0  3  0  0  0  0  0  0
  155.8700  208.5310  137.9210 N   0  0  0  0  0  0  0  0  0  0  0  0
  153.8830  208.5090  139.5830 C   0  0  0  0  0  3  0  0  0  0  0  0
  155.7870  209.6070  138.7400 C   0  0  0  0  0  0  0  0  0  0  0  0
  154.5730  207.6010  138.3640 S   0  0  0  0  0  0  0  0  0  0  0  0
  163.2110  213.4900  144.1120 C   0  0  0  0  0  2  0  0  0  0  0  0
  162.0170  212.9170  143.9560 C   0  0  0  0  0  3  0  0  0  0  0  0
  1 14  1  6  0  0  0
  1  7  1  0  0  0  0
  3 18  1  0  0  0  0
  3 17  1  0  0  0  0
  4 15  1  0  0  0  0
  4  3  1  0  0  0  0
  5 16  1  0  0  0  0
  5 18  1  0  0  0  0
  6  2  1  0  0  0  0
  7  8  1  0  0  0  0
  8  6  2  0  0  0  0
  9 12  1  0  0  0  0
 10  5  1  0  0  0  0
 11 10  1  0  0  0  0
 11  4  1  0  0  0  0
 12  8  1  0  0  0  0
 12 32  1  0  0  0  0
 13  9  1  0  0  0  0
 15 14  2  0  0  0  0
 17  1  1  0  0  0  0
 17  9  1  0  0  0  0
 18 13  1  0  0  0  0
 19 22  1  0  0  0  0
 19 24  1  0  0  0  0
 20 14  1  0  0  0  0
 20 21  1  0  0  0  0
 22 23  1  0  0  0  0
 23 20  1  0  0  0  0
 24 25  1  0  0  0  0
 24 20  1  0  0  0  0
 25 29  1  0  0  0  0
 27 30  1  0  0  0  0
 27 29  2  0  0  0  0
 28 26  2  0  0  0  0
 29 26  1  0  0  0  0
 30 28  1  0  0  0  0
 32 31  2  0  0  0  0
M  END
>  <MODEL>
6

>  <REMARK>
 VINA RESULT:      -4.2     11.255     14.914
  Name = 
  4 active torsions:
  status: ('A' for Active; 'I' for Inactive)
    1  A    between atoms: C_8  and  C_28
    2  A    between atoms: C_19  and  C_24
    3  A    between atoms: C_23  and  C_24
    4  A    between atoms: C_25  and  C_26
                            x       y       z     vdW  Elec       q    Type
                         _______ _______ _______ _____ _____    ______ ____

>  <TORSDO>
F 4

$$$$
=
 OpenBabel11062410423D

 32 37  0  0  1  0  0  0  0  0999 V2000
  161.2700  208.7010  151.6590 C   0  0  1  0  0  3  0  0  0  0  0  0
  161.0710  211.1860  147.9240 F   0  0  0  0  0  0  0  0  0  0  0  0
  161.0970  210.1590  153.6810 C   0  0  1  0  0  3  0  0  0  0  0  0
  161.0880  208.9500  154.6330 C   0  0  1  0  0  3  0  0  0  0  0  0
  159.6080  211.1760  155.4960 C   0  0  2  0  0  3  0  0  0  0  0  0
  161.8250  210.4030  148.7370 C   0  0  0  0  0  3  0  0  0  0  0  0
  162.8370  209.4020  151.0160 S   0  0  0  0  0  0  0  0  0  0  0  0
  161.9550  210.6140  150.0540 C   0  0  0  0  0  0  0  0  0  0  0  0
  160.0350  211.0200  151.6200 C   0  0  2  0  0  3  0  0  0  0  0  0
  158.7960  209.8940  155.3760 C   0  0  0  0  0  2  0  0  0  0  0  0
  159.7060  208.6680  155.2500 C   0  0  0  0  0  2  0  0  0  0  0  0
  161.2160  211.6520  150.8590 C   0  0  2  0  0  3  0  0  0  0  0  0
  159.4000  212.1710  152.8850 S   0  0  0  0  0  0  0  0  0  0  0  0
  161.5930  207.5390  152.5880 C   0  0  0  0  0  0  0  0  0  0  0  0
  161.5740  207.6990  153.9350 C   0  0  0  0  0  3  0  0  0  0  0  0
  158.7820  212.2470  155.7850 F   0  0  0  0  0  0  0  0  0  0  0  0
  160.4240  209.7610  152.3890 C   0  0  1  0  0  3  0  0  0  0  0  0
  160.4190  211.4260  154.2170 C   0  0  2  0  0  3  0  0  0  0  0  0
  160.0810  204.9820  151.1830 C   0  0  0  0  0  2  0  0  0  0  0  0
  162.0190  206.1970  151.9960 C   0  0  1  0  0  0  0  0  0  0  0  0
  163.3870  206.1950  151.7150 O   0  0  0  0  0  1  0  0  0  0  0  0
  160.5740  204.2550  152.4160 C   0  0  0  0  0  2  0  0  0  0  0  0
  161.7210  205.0790  152.9880 C   0  0  0  0  0  2  0  0  0  0  0  0
  161.2600  205.8120  150.7250 C   0  0  2  0  0  3  0  0  0  0  0  0
  160.8460  206.9850  149.8370 C   0  0  0  0  0  2  0  0  0  0  0  0
  162.3310  206.4850  147.8420 C   0  0  0  0  0  3  0  0  0  0  0  0
  159.9960  206.5390  147.5490 N   0  0  0  0  0  0  0  0  0  0  0  0
  162.3310  206.2030  146.4780 C   0  0  0  0  0  3  0  0  0  0  0  0
  161.0450  206.6580  148.3970 C   0  0  0  0  0  0  0  0  0  0  0  0
  160.7070  206.2030  146.0910 S   0  0  0  0  0  0  0  0  0  0  0  0
  159.6460  213.3230  149.8720 C   0  0  0  0  0  2  0  0  0  0  0  0
  160.8940  212.9420  150.1440 C   0  0  0  0  0  3  0  0  0  0  0  0
  1  7  1  1  0  0  0
  1 17  1  0  0  0  0
  1 14  1  0  0  0  0
  2  6  1  0  0  0  0
  3 18  1  0  0  0  0
  3  4  1  0  0  0  0
  4 11  1  0  0  0  0
  5 16  1  0  0  0  0
  6  8  2  0  0  0  0
  8 12  1  0  0  0  0
  8  7  1  0  0  0  0
  9 17  1  0  0  0  0
  9 13  1  0  0  0  0
 10  5  1  0  0  0  0
 11 10  1  0  0  0  0
 12  9  1  0  0  0  0
 13 18  1  0  0  0  0
 14 15  2  0  0  0  0
 15  4  1  0  0  0  0
 17  3  1  0  0  0  0
 18  5  1  0  0  0  0
 19 22  1  0  0  0  0
 20 14  1  0  0  0  0
 20 23  1  0  0  0  0
 21 20  1  0  0  0  0
 22 23  1  0  0  0  0
 24 19  1  0  0  0  0
 24 20  1  0  0  0  0
 25 24  1  0  0  0  0
 26 29  1  0  0  0  0
 27 29  2  0  0  0  0
 28 26  2  0  0  0  0
 29 25  1  0  0  0  0
 30 28  1  0  0  0  0
 30 27  1  0  0  0  0
 31 32  2  0  0  0  0
 32 12  1  0  0  0  0
M  END
>  <MODEL>
7

>  <REMARK>
 VINA RESULT:      -4.0      3.111      6.893
  Name = 
  4 active torsions:
  status: ('A' for Active; 'I' for Inactive)
    1  A    between atoms: C_8  and  C_28
    2  A    between atoms: C_19  and  C_24
    3  A    between atoms: C_23  and  C_24
    4  A    between atoms: C_25  and  C_26
                            x       y       z     vdW  Elec       q    Type
                         _______ _______ _______ _____ _____    ______ ____

>  <TORSDO>
F 4

$$$$
=
 OpenBabel11062410423D

 32 37  0  0  1  0  0  0  0  0999 V2000
  160.0560  211.0340  152.3880 C   0  0  1  0  0  3  0  0  0  0  0  0
  158.3820  209.7660  156.3580 F   0  0  0  0  0  0  0  0  0  0  0  0
  161.8950  209.4920  151.6890 C   0  0  1  0  0  3  0  0  0  0  0  0
  162.0580  210.1950  150.3300 C   0  0  1  0  0  3  0  0  0  0  0  0
  162.6030  207.4390  150.3360 C   0  0  2  0  0  3  0  0  0  0  0  0
  159.0920  210.6880  155.6590 C   0  0  0  0  0  3  0  0  0  0  0  0
  160.8700  211.6740  153.9010 S   0  0  0  0  0  0  0  0  0  0  0  0
  160.1490  210.3820  154.8930 C   0  0  0  0  0  0  0  0  0  0  0  0
  160.1790  208.5350  153.1930 C   0  0  2  0  0  3  0  0  0  0  0  0
  161.5120  207.8580  149.3610 C   0  0  0  0  0  2  0  0  0  0  0  0
  161.5070  209.3760  149.1490 C   0  0  0  0  0  2  0  0  0  0  0  0
  160.6460  208.9930  154.5870 C   0  0  2  0  0  3  0  0  0  0  0  0
  161.0970  207.0480  152.6660 S   0  0  0  0  0  0  0  0  0  0  0  0
  160.4280  211.9250  151.2120 C   0  0  0  0  0  0  0  0  0  0  0  0
  161.3920  211.5530  150.3330 C   0  0  0  0  0  3  0  0  0  0  0  0
  162.7090  206.0610  150.3810 F   0  0  0  0  0  0  0  0  0  0  0  0
  160.4450  209.5700  152.1040 C   0  0  1  0  0  3  0  0  0  0  0  0
  162.3380  208.0240  151.7310 C   0  0  2  0  0  3  0  0  0  0  0  0
  157.5660  213.0520  150.0550 C   0  0  0  0  0  2  0  0  0  0  0  0
  159.7620  213.2920  151.0620 C   0  0  1  0  0  0  0  0  0  0  0  0
  160.3850  214.2360  151.8810 O   0  0  0  0  0  1  0  0  0  0  0  0
  158.4580  213.7080  149.0210 C   0  0  0  0  0  2  0  0  0  0  0  0
  159.8600  213.7570  149.6140 C   0  0  0  0  0  2  0  0  0  0  0  0
  158.2640  213.2880  151.3750 C   0  0  2  0  0  3  0  0  0  0  0  0
  157.8310  212.2980  152.4570 C   0  0  0  0  0  2  0  0  0  0  0  0
  155.9390  212.8650  154.0490 C   0  0  0  0  0  3  0  0  0  0  0  0
  158.0460  213.8630  154.3700 N   0  0  0  0  0  0  0  0  0  0  0  0
  155.5920  213.6230  155.1640 C   0  0  0  0  0  3  0  0  0  0  0  0
  157.2830  213.0140  153.6430 C   0  0  0  0  0  0  0  0  0  0  0  0
  157.0110  214.4190  155.5380 S   0  0  0  0  0  0  0  0  0  0  0  0
  161.2320  207.9460  156.7770 C   0  0  0  0  0  2  0  0  0  0  0  0
  160.4700  207.9690  155.6830 C   0  0  0  0  0  3  0  0  0  0  0  0
  1 14  1  6  0  0  0
  1  7  1  0  0  0  0
  3 18  1  0  0  0  0
  3 17  1  0  0  0  0
  4 15  1  0  0  0  0
  4  3  1  0  0  0  0
  5 16  1  0  0  0  0
  5 18  1  0  0  0  0
  6  2  1  0  0  0  0
  7  8  1  0  0  0  0
  8  6  2  0  0  0  0
  9 12  1  0  0  0  0
 10  5  1  0  0  0  0
 11 10  1  0  0  0  0
 11  4  1  0  0  0  0
 12  8  1  0  0  0  0
 12 32  1  0  0  0  0
 13  9  1  0  0  0  0
 15 14  2  0  0  0  0
 17  1  1  0  0  0  0
 17  9  1  0  0  0  0
 18 13  1  0  0  0  0
 19 24  1  0  0  0  0
 20 14  1  0  0  0  0
 20 24  1  0  0  0  0
 20 21  1  0  0  0  0
 22 23  1  0  0  0  0
 22 19  1  0  0  0  0
 23 20  1  0  0  0  0
 24 25  1  0  0  0  0
 25 29  1  0  0  0  0
 26 28  2  0  0  0  0
 27 30  1  0  0  0  0
 28 30  1  0  0  0  0
 29 26  1  0  0  0  0
 29 27  2  0  0  0  0
 32 31  2  0  0  0  0
M  END
>  <MODEL>
8

>  <REMARK>
 VINA RESULT:      -3.3      3.069      5.461
  Name = 
  4 active torsions:
  status: ('A' for Active; 'I' for Inactive)
    1  A    between atoms: C_8  and  C_28
    2  A    between atoms: C_19  and  C_24
    3  A    between atoms: C_23  and  C_24
    4  A    between atoms: C_25  and  C_26
                            x       y       z     vdW  Elec       q    Type
                         _______ _______ _______ _____ _____    ______ ____

>  <TORSDO>
F 4

$$$$
