=
 OpenBabel11052422173D

 25 28  0  0  1  0  0  0  0  0999 V2000
  161.5140  204.9800  148.7530 C   0  0  0  0  0  0  0  0  0  0  0  0
  161.6450  206.1330  149.5220 C   0  0  0  0  0  0  0  0  0  0  0  0
  162.3330  206.0830  146.8200 N   0  0  0  0  0  0  0  0  0  0  0  0
  161.0870  203.7050  149.0270 C   0  0  0  0  0  0  0  0  0  0  0  0
  161.1790  207.5340  151.5570 C   0  0  2  0  0  3  0  0  0  0  0  0
  160.3640  201.0360  148.9250 C   0  0  0  0  0  3  0  0  0  0  0  0
  162.4780  207.2090  147.5310 N   0  0  0  0  0  0  0  0  0  0  0  0
  161.1950  203.0070  147.8380 C   0  0  0  0  0  0  0  0  0  0  0  0
  160.8380  201.6620  147.7580 C   0  0  0  0  0  3  0  0  0  0  0  0
  161.3600  206.1240  150.9990 C   0  0  0  0  0  2  0  0  0  0  0  0
  160.2560  201.7550  150.1350 C   0  0  0  0  0  3  0  0  0  0  0  0
  161.8530  204.9730  147.4230 C   0  0  0  0  0  0  0  0  0  0  0  0
  161.6690  203.7730  146.8290 N   0  0  0  0  0  2  0  0  0  0  0  0
  162.2970  208.5960  149.5780 C   0  0  1  0  0  3  0  0  0  0  0  0
  160.6200  203.1110  150.1980 C   0  0  0  0  0  3  0  0  0  0  0  0
  162.3260  208.4310  151.0990 C   0  0  0  0  0  2  0  0  0  0  0  0
  162.1650  207.2760  148.8650 C   0  0  0  0  0  0  0  0  0  0  0  0
  161.0380  208.8560  155.1950 C   0  0  0  0  0  0  0  0  0  0  0  0
  161.0610  210.1480  155.7880 N   0  0  0  0  0  1  0  0  0  0  0  0
  160.9530  207.8370  155.9310 O   0  0  0  0  0  0  0  0  0  0  0  0
  161.0980  207.4990  153.0460 C   0  0  0  0  0  0  0  0  0  0  0  0
  161.1120  208.7340  153.7700 N   0  0  0  0  0  2  0  0  0  0  0  0
  161.0170  206.3950  153.6500 O   0  0  0  0  0  0  0  0  0  0  0  0
  161.2450  209.4390  149.2120 O   0  0  0  0  0  0  0  0  0  0  0  0
  161.8620  210.5910  148.7190 C   0  0  0  0  0  1  0  0  0  0  0  0
  1  4  1  0  0  0  0
  1  2  2  0  0  0  0
  2 10  1  0  0  0  0
  3 12  2  0  0  0  0
  3  7  1  0  0  0  0
  4 15  1  0  0  0  0
  5 21  1  1  0  0  0
  6 11  1  0  0  0  0
  7 17  2  0  0  0  0
  8  4  2  0  0  0  0
  9  8  1  0  0  0  0
  9  6  2  0  0  0  0
 10  5  1  0  0  0  0
 11 15  2  0  0  0  0
 12  1  1  0  0  0  0
 13 12  1  0  0  0  0
 13  8  1  0  0  0  0
 14 24  1  1  0  0  0
 14 16  1  0  0  0  0
 16  5  1  0  0  0  0
 17  2  1  0  0  0  0
 17 14  1  0  0  0  0
 18 19  1  0  0  0  0
 18 20  2  0  0  0  0
 21 23  2  0  0  0  0
 21 22  1  0  0  0  0
 22 18  1  0  0  0  0
 25 24  1  0  0  0  0
M  END
>  <MODEL>
1

>  <REMARK>
 VINA RESULT:      -9.4      0.000      0.000
  Name = 
  2 active torsions:
  status: ('A' for Active; 'I' for Inactive)
    1  A    between atoms: C_6  and  C_15
    2  A    between atoms: O_13  and  C_20
                            x       y       z     vdW  Elec       q    Type
                         _______ _______ _______ _____ _____    ______ ____

>  <TORSDO>
F 2

$$$$
=
 OpenBabel11052422173D

 25 28  0  0  1  0  0  0  0  0999 V2000
  161.4160  208.2610  151.4970 C   0  0  0  0  0  0  0  0  0  0  0  0
  161.3380  207.3460  150.4510 C   0  0  0  0  0  0  0  0  0  0  0  0
  161.7850  210.0620  149.9990 N   0  0  0  0  0  0  0  0  0  0  0  0
  161.3050  208.1490  152.8610 C   0  0  0  0  0  0  0  0  0  0  0  0
  161.3550  205.0170  149.5050 C   0  0  2  0  0  3  0  0  0  0  0  0
  161.1910  208.5890  155.5900 C   0  0  0  0  0  3  0  0  0  0  0  0
  161.7100  209.2100  148.9670 N   0  0  0  0  0  0  0  0  0  0  0  0
  161.4730  209.4270  153.3600 C   0  0  0  0  0  0  0  0  0  0  0  0
  161.4200  209.6780  154.7300 C   0  0  0  0  0  3  0  0  0  0  0  0
  161.0030  205.9010  150.6990 C   0  0  0  0  0  2  0  0  0  0  0  0
  161.0220  207.2860  155.0730 C   0  0  0  0  0  3  0  0  0  0  0  0
  161.6400  209.5930  151.2590 C   0  0  0  0  0  0  0  0  0  0  0  0
  161.6810  210.3410  152.3850 N   0  0  0  0  0  2  0  0  0  0  0  0
  161.4710  206.9700  147.9340 C   0  0  1  0  0  3  0  0  0  0  0  0
  161.0770  207.0510  153.6890 C   0  0  0  0  0  3  0  0  0  0  0  0
  160.8000  205.6240  148.2190 C   0  0  0  0  0  2  0  0  0  0  0  0
  161.4790  207.8700  149.1420 C   0  0  0  0  0  0  0  0  0  0  0  0
  160.7770  201.2450  148.8400 C   0  0  0  0  0  0  0  0  0  0  0  0
  161.2170  200.3290  147.8470 N   0  0  0  0  0  1  0  0  0  0  0  0
  160.0200  200.8430  149.7640 O   0  0  0  0  0  0  0  0  0  0  0  0
  160.8320  203.6350  149.7050 C   0  0  0  0  0  0  0  0  0  0  0  0
  161.1990  202.6120  148.7750 N   0  0  0  0  0  2  0  0  0  0  0  0
  160.0770  203.3800  150.6840 O   0  0  0  0  0  0  0  0  0  0  0  0
  162.7790  206.7630  147.4900 O   0  0  0  0  0  0  0  0  0  0  0  0
  162.6620  205.8530  146.4380 C   0  0  0  0  0  1  0  0  0  0  0  0
  1  4  1  0  0  0  0
  2 10  1  0  0  0  0
  2  1  2  0  0  0  0
  3 12  2  0  0  0  0
  4  8  2  0  0  0  0
  4 15  1  0  0  0  0
  5 21  1  1  0  0  0
  5 10  1  0  0  0  0
  7 17  2  0  0  0  0
  7  3  1  0  0  0  0
  8  9  1  0  0  0  0
  9  6  2  0  0  0  0
 11  6  1  0  0  0  0
 12  1  1  0  0  0  0
 12 13  1  0  0  0  0
 13  8  1  0  0  0  0
 14 24  1  1  0  0  0
 14 16  1  0  0  0  0
 14 17  1  0  0  0  0
 15 11  2  0  0  0  0
 16  5  1  0  0  0  0
 17  2  1  0  0  0  0
 18 20  2  0  0  0  0
 19 18  1  0  0  0  0
 21 23  2  0  0  0  0
 22 18  1  0  0  0  0
 22 21  1  0  0  0  0
 25 24  1  0  0  0  0
M  END
>  <MODEL>
2

>  <REMARK>
 VINA RESULT:      -8.9      2.436      6.630
  Name = 
  2 active torsions:
  status: ('A' for Active; 'I' for Inactive)
    1  A    between atoms: C_6  and  C_15
    2  A    between atoms: O_13  and  C_20
                            x       y       z     vdW  Elec       q    Type
                         _______ _______ _______ _____ _____    ______ ____

>  <TORSDO>
F 2

$$$$
=
 OpenBabel11052422173D

 25 28  0  0  1  0  0  0  0  0999 V2000
  161.2940  204.8590  148.8910 C   0  0  0  0  0  0  0  0  0  0  0  0
  161.3070  205.8560  149.8620 C   0  0  0  0  0  0  0  0  0  0  0  0
  160.5770  203.2320  150.4600 N   0  0  0  0  0  0  0  0  0  0  0  0
  161.5750  204.8450  147.5470 C   0  0  0  0  0  0  0  0  0  0  0  0
  161.9620  208.1180  150.7420 C   0  0  2  0  0  3  0  0  0  0  0  0
  161.9860  204.1620  144.8980 C   0  0  0  0  0  3  0  0  0  0  0  0
  160.5730  204.1670  151.4180 N   0  0  0  0  0  0  0  0  0  0  0  0
  161.3700  203.5430  147.1320 C   0  0  0  0  0  0  0  0  0  0  0  0
  161.5690  203.1700  145.8040 C   0  0  0  0  0  3  0  0  0  0  0  0
  161.6120  207.2870  149.5100 C   0  0  0  0  0  2  0  0  0  0  0  0
  162.1950  205.4900  145.3290 C   0  0  0  0  0  3  0  0  0  0  0  0
  160.9350  203.5720  149.2010 C   0  0  0  0  0  0  0  0  0  0  0  0
  160.9710  202.7340  148.1410 N   0  0  0  0  0  2  0  0  0  0  0  0
  160.9430  206.4490  152.3140 C   0  0  1  0  0  3  0  0  0  0  0  0
  161.9890  205.8480  146.6720 C   0  0  0  0  0  3  0  0  0  0  0  0
  160.9190  207.9030  151.8360 C   0  0  0  0  0  2  0  0  0  0  0  0
  160.9120  205.4720  151.1680 C   0  0  0  0  0  0  0  0  0  0  0  0
  161.7110  211.3310  148.5920 C   0  0  0  0  0  0  0  0  0  0  0  0
  161.2930  211.6110  147.2630 N   0  0  0  0  0  1  0  0  0  0  0  0
  162.1110  212.2720  149.3280 O   0  0  0  0  0  0  0  0  0  0  0  0
  162.0620  209.5630  150.3860 C   0  0  0  0  0  0  0  0  0  0  0  0
  161.6720  209.9830  149.0740 N   0  0  0  0  0  2  0  0  0  0  0  0
  162.4840  210.3960  151.2340 O   0  0  0  0  0  0  0  0  0  0  0  0
  162.0780  206.2250  153.0950 O   0  0  0  0  0  0  0  0  0  0  0  0
  161.7200  206.6410  154.3790 C   0  0  0  0  0  1  0  0  0  0  0  0
  1 12  1  0  0  0  0
  1  2  2  0  0  0  0
  2 17  1  0  0  0  0
  3  7  1  0  0  0  0
  4  1  1  0  0  0  0
  5 21  1  6  0  0  0
  5 16  1  0  0  0  0
  6 11  2  0  0  0  0
  6  9  1  0  0  0  0
  8  4  1  0  0  0  0
  8 13  1  0  0  0  0
  9  8  2  0  0  0  0
 10  2  1  0  0  0  0
 10  5  1  0  0  0  0
 11 15  1  0  0  0  0
 12  3  2  0  0  0  0
 13 12  1  0  0  0  0
 14 24  1  6  0  0  0
 15  4  2  0  0  0  0
 16 14  1  0  0  0  0
 17  7  2  0  0  0  0
 17 14  1  0  0  0  0
 18 22  1  0  0  0  0
 18 20  2  0  0  0  0
 19 18  1  0  0  0  0
 21 23  2  0  0  0  0
 22 21  1  0  0  0  0
 24 25  1  0  0  0  0
M  END
>  <MODEL>
3

>  <REMARK>
 VINA RESULT:      -8.9      2.437      4.562
  Name = 
  2 active torsions:
  status: ('A' for Active; 'I' for Inactive)
    1  A    between atoms: C_6  and  C_15
    2  A    between atoms: O_13  and  C_20
                            x       y       z     vdW  Elec       q    Type
                         _______ _______ _______ _____ _____    ______ ____

>  <TORSDO>
F 2

$$$$
=
 OpenBabel11052422173D

 25 28  0  0  1  0  0  0  0  0999 V2000
  161.5090  206.3510  149.7570 C   0  0  0  0  0  0  0  0  0  0  0  0
  161.6520  207.5550  150.4390 C   0  0  0  0  0  0  0  0  0  0  0  0
  162.2010  207.3360  147.7140 N   0  0  0  0  0  0  0  0  0  0  0  0
  161.1280  205.0880  150.1380 C   0  0  0  0  0  0  0  0  0  0  0  0
  161.2580  209.0810  152.3980 C   0  0  2  0  0  3  0  0  0  0  0  0
  160.4650  202.4040  150.2530 C   0  0  0  0  0  3  0  0  0  0  0  0
  162.3550  208.5100  148.3400 N   0  0  0  0  0  0  0  0  0  0  0  0
  161.1910  204.3130  148.9950 C   0  0  0  0  0  0  0  0  0  0  0  0
  160.8630  202.9590  149.0230 C   0  0  0  0  0  3  0  0  0  0  0  0
  161.4440  207.6410  151.9270 C   0  0  0  0  0  2  0  0  0  0  0  0
  160.4020  203.2020  151.4160 C   0  0  0  0  0  3  0  0  0  0  0  0
  161.7800  206.2600  148.4150 C   0  0  0  0  0  0  0  0  0  0  0  0
  161.5940  205.0180  147.9130 N   0  0  0  0  0  2  0  0  0  0  0  0
  162.2470  210.0290  150.2960 C   0  0  1  0  0  3  0  0  0  0  0  0
  160.7360  204.5650  151.3690 C   0  0  0  0  0  3  0  0  0  0  0  0
  162.3580  209.9690  151.8210 C   0  0  0  0  0  2  0  0  0  0  0  0
  162.1090  208.6610  149.6810 C   0  0  0  0  0  0  0  0  0  0  0  0
  160.5450  208.0220  156.0550 C   0  0  0  0  0  0  0  0  0  0  0  0
  159.8880  206.9180  156.6630 N   0  0  0  0  0  1  0  0  0  0  0  0
  161.0470  208.9210  156.7800 O   0  0  0  0  0  0  0  0  0  0  0  0
  161.2540  209.1470  153.8880 C   0  0  0  0  0  0  0  0  0  0  0  0
  160.6240  208.0950  154.6270 N   0  0  0  0  0  2  0  0  0  0  0  0
  161.8010  210.1170  154.4810 O   0  0  0  0  0  0  0  0  0  0  0  0
  161.1580  210.8230  149.9310 O   0  0  0  0  0  0  0  0  0  0  0  0
  161.7080  211.8700  149.1880 C   0  0  0  0  0  1  0  0  0  0  0  0
  1  4  1  0  0  0  0
  1  2  2  0  0  0  0
  2 10  1  0  0  0  0
  3  7  1  0  0  0  0
  3 12  2  0  0  0  0
  4 15  1  0  0  0  0
  5 21  1  1  0  0  0
  6 11  1  0  0  0  0
  7 17  2  0  0  0  0
  8  9  1  0  0  0  0
  8  4  2  0  0  0  0
  9  6  2  0  0  0  0
 10  5  1  0  0  0  0
 12  1  1  0  0  0  0
 13 12  1  0  0  0  0
 13  8  1  0  0  0  0
 14 24  1  1  0  0  0
 14 16  1  0  0  0  0
 15 11  2  0  0  0  0
 16  5  1  0  0  0  0
 17 14  1  0  0  0  0
 17  2  1  0  0  0  0
 18 19  1  0  0  0  0
 18 20  2  0  0  0  0
 21 23  2  0  0  0  0
 21 22  1  0  0  0  0
 22 18  1  0  0  0  0
 25 24  1  0  0  0  0
M  END
>  <MODEL>
4

>  <REMARK>
 VINA RESULT:      -8.7      1.499      1.908
  Name = 
  2 active torsions:
  status: ('A' for Active; 'I' for Inactive)
    1  A    between atoms: C_6  and  C_15
    2  A    between atoms: O_13  and  C_20
                            x       y       z     vdW  Elec       q    Type
                         _______ _______ _______ _____ _____    ______ ____

>  <TORSDO>
F 2

$$$$
=
 OpenBabel11052422173D

 25 28  0  0  1  0  0  0  0  0999 V2000
  161.1430  206.4090  151.7080 C   0  0  0  0  0  0  0  0  0  0  0  0
  161.2690  207.7940  151.7690 C   0  0  0  0  0  0  0  0  0  0  0  0
  160.8660  206.2520  154.0580 N   0  0  0  0  0  0  0  0  0  0  0  0
  161.1610  205.5040  150.6760 C   0  0  0  0  0  0  0  0  0  0  0  0
  161.9080  210.0310  150.8160 C   0  0  2  0  0  3  0  0  0  0  0  0
  161.1030  203.2330  149.0960 C   0  0  0  0  0  3  0  0  0  0  0  0
  160.9770  207.5830  154.1540 N   0  0  0  0  0  0  0  0  0  0  0  0
  160.9780  204.2640  151.2590 C   0  0  0  0  0  0  0  0  0  0  0  0
  160.9440  203.1030  150.4880 C   0  0  0  0  0  3  0  0  0  0  0  0
  161.3910  208.6250  150.5210 C   0  0  0  0  0  2  0  0  0  0  0  0
  161.2910  204.5030  148.5080 C   0  0  0  0  0  3  0  0  0  0  0  0
  160.9490  205.6640  152.8430 C   0  0  0  0  0  0  0  0  0  0  0  0
  160.8430  204.3380  152.6030 N   0  0  0  0  0  2  0  0  0  0  0  0
  161.3400  209.8650  153.2540 C   0  0  1  0  0  3  0  0  0  0  0  0
  161.3210  205.6620  149.3010 C   0  0  0  0  0  3  0  0  0  0  0  0
  161.1150  210.6530  151.9620 C   0  0  0  0  0  2  0  0  0  0  0  0
  161.1620  208.3820  153.0550 C   0  0  0  0  0  0  0  0  0  0  0  0
  161.2020  213.1510  148.6330 C   0  0  0  0  0  0  0  0  0  0  0  0
  160.6920  214.4530  148.8890 N   0  0  0  0  0  1  0  0  0  0  0  0
  161.5300  212.8340  147.4590 O   0  0  0  0  0  0  0  0  0  0  0  0
  161.8290  210.8830  149.5950 C   0  0  0  0  0  0  0  0  0  0  0  0
  161.3320  212.2200  149.7130 N   0  0  0  0  0  2  0  0  0  0  0  0
  162.1970  210.4250  148.4780 O   0  0  0  0  0  0  0  0  0  0  0  0
  162.6180  210.1250  153.7520 O   0  0  0  0  0  0  0  0  0  0  0  0
  162.4070  210.6510  155.0280 C   0  0  0  0  0  1  0  0  0  0  0  0
  1  2  2  0  0  0  0
  1 12  1  0  0  0  0
  2 17  1  0  0  0  0
  3  7  1  0  0  0  0
  4  8  1  0  0  0  0
  4  1  1  0  0  0  0
  5 21  1  6  0  0  0
  5 16  1  0  0  0  0
  6  9  1  0  0  0  0
  8 13  1  0  0  0  0
  9  8  2  0  0  0  0
 10  5  1  0  0  0  0
 10  2  1  0  0  0  0
 11  6  2  0  0  0  0
 11 15  1  0  0  0  0
 12  3  2  0  0  0  0
 13 12  1  0  0  0  0
 14 24  1  6  0  0  0
 15  4  2  0  0  0  0
 16 14  1  0  0  0  0
 17 14  1  0  0  0  0
 17  7  2  0  0  0  0
 18 19  1  0  0  0  0
 18 22  1  0  0  0  0
 20 18  2  0  0  0  0
 21 22  1  0  0  0  0
 23 21  2  0  0  0  0
 24 25  1  0  0  0  0
M  END
>  <MODEL>
5

>  <REMARK>
 VINA RESULT:      -8.4      2.699      5.214
  Name = 
  2 active torsions:
  status: ('A' for Active; 'I' for Inactive)
    1  A    between atoms: C_6  and  C_15
    2  A    between atoms: O_13  and  C_20
                            x       y       z     vdW  Elec       q    Type
                         _______ _______ _______ _____ _____    ______ ____

>  <TORSDO>
F 2

$$$$
=
 OpenBabel11052422173D

 25 28  0  0  1  0  0  0  0  0999 V2000
  161.4530  206.7240  149.6080 C   0  0  0  0  0  0  0  0  0  0  0  0
  161.5270  208.0740  149.9360 C   0  0  0  0  0  0  0  0  0  0  0  0
  160.8720  206.1360  151.8310 N   0  0  0  0  0  0  0  0  0  0  0  0
  161.6340  206.0230  148.4420 C   0  0  0  0  0  0  0  0  0  0  0  0
  162.2190  210.4520  149.4990 C   0  0  2  0  0  3  0  0  0  0  0  0
  161.8560  204.0800  146.4840 C   0  0  0  0  0  3  0  0  0  0  0  0
  160.9280  207.4280  152.1800 N   0  0  0  0  0  0  0  0  0  0  0  0
  161.4140  204.6960  148.7600 C   0  0  0  0  0  0  0  0  0  0  0  0
  161.5180  203.6970  147.7950 C   0  0  0  0  0  3  0  0  0  0  0  0
  161.7880  209.1210  148.8870 C   0  0  0  0  0  2  0  0  0  0  0  0
  162.0810  205.4370  146.1660 C   0  0  0  0  0  3  0  0  0  0  0  0
  161.1330  205.7820  150.5520 C   0  0  0  0  0  0  0  0  0  0  0  0
  161.0990  204.5210  150.0640 N   0  0  0  0  0  2  0  0  0  0  0  0
  161.3380  209.8380  151.7660 C   0  0  1  0  0  3  0  0  0  0  0  0
  161.9710  206.4320  147.1530 C   0  0  0  0  0  3  0  0  0  0  0  0
  161.2630  210.8490  150.6200 C   0  0  0  0  0  2  0  0  0  0  0  0
  161.2340  208.4160  151.2800 C   0  0  0  0  0  0  0  0  0  0  0  0
  161.0240  212.7420  146.6130 C   0  0  0  0  0  0  0  0  0  0  0  0
  159.8090  212.8830  145.8890 N   0  0  0  0  0  1  0  0  0  0  0  0
  162.0030  213.4850  146.3330 O   0  0  0  0  0  0  0  0  0  0  0  0
  162.2760  211.5130  148.4530 C   0  0  0  0  0  0  0  0  0  0  0  0
  161.1180  211.7590  147.6490 N   0  0  0  0  0  2  0  0  0  0  0  0
  163.3340  212.1810  148.2860 O   0  0  0  0  0  0  0  0  0  0  0  0
  162.5310  210.0090  152.4720 O   0  0  0  0  0  0  0  0  0  0  0  0
  162.1380  210.4040  153.7530 C   0  0  0  0  0  1  0  0  0  0  0  0
  1  2  2  0  0  0  0
  1 12  1  0  0  0  0
  2 17  1  0  0  0  0
  3  7  1  0  0  0  0
  4  8  1  0  0  0  0
  4  1  1  0  0  0  0
  5 21  1  6  0  0  0
  5 16  1  0  0  0  0
  6  9  1  0  0  0  0
  8 13  1  0  0  0  0
  9  8  2  0  0  0  0
 10  5  1  0  0  0  0
 10  2  1  0  0  0  0
 11  6  2  0  0  0  0
 11 15  1  0  0  0  0
 12  3  2  0  0  0  0
 13 12  1  0  0  0  0
 14 24  1  6  0  0  0
 15  4  2  0  0  0  0
 16 14  1  0  0  0  0
 17 14  1  0  0  0  0
 17  7  2  0  0  0  0
 18 22  1  0  0  0  0
 19 18  1  0  0  0  0
 20 18  2  0  0  0  0
 22 21  1  0  0  0  0
 23 21  2  0  0  0  0
 24 25  1  0  0  0  0
M  END
>  <MODEL>
6

>  <REMARK>
 VINA RESULT:      -8.4      2.663      5.402
  Name = 
  2 active torsions:
  status: ('A' for Active; 'I' for Inactive)
    1  A    between atoms: C_6  and  C_15
    2  A    between atoms: O_13  and  C_20
                            x       y       z     vdW  Elec       q    Type
                         _______ _______ _______ _____ _____    ______ ____

>  <TORSDO>
F 2

$$$$
=
 OpenBabel11052422173D

 25 28  0  0  1  0  0  0  0  0999 V2000
  161.1490  205.7830  150.9250 C   0  0  0  0  0  0  0  0  0  0  0  0
  161.0190  206.8330  151.8300 C   0  0  0  0  0  0  0  0  0  0  0  0
  161.0600  204.1720  152.6640 N   0  0  0  0  0  0  0  0  0  0  0  0
  161.2670  205.7220  149.5590 C   0  0  0  0  0  0  0  0  0  0  0  0
  161.1680  209.2550  152.4880 C   0  0  2  0  0  3  0  0  0  0  0  0
  161.5290  204.9330  146.9200 C   0  0  0  0  0  3  0  0  0  0  0  0
  160.9280  205.1570  153.5610 N   0  0  0  0  0  0  0  0  0  0  0  0
  161.3560  204.3780  149.2470 C   0  0  0  0  0  0  0  0  0  0  0  0
  161.4880  203.9520  147.9280 C   0  0  0  0  0  3  0  0  0  0  0  0
  160.9030  208.2590  151.3620 C   0  0  0  0  0  2  0  0  0  0  0  0
  161.4390  206.3040  147.2460 C   0  0  0  0  0  3  0  0  0  0  0  0
  161.1710  204.4790  151.3510 C   0  0  0  0  0  0  0  0  0  0  0  0
  161.2980  203.5870  150.3440 N   0  0  0  0  0  2  0  0  0  0  0  0
  160.8010  207.5290  154.2720 C   0  0  1  0  0  3  0  0  0  0  0  0
  161.3050  206.7150  148.5820 C   0  0  0  0  0  3  0  0  0  0  0  0
  160.3500  208.8840  153.7220 C   0  0  0  0  0  2  0  0  0  0  0  0
  160.8900  206.4790  153.1960 C   0  0  0  0  0  0  0  0  0  0  0  0
  159.5570  212.7770  152.5220 C   0  0  0  0  0  0  0  0  0  0  0  0
  158.6510  213.4520  153.3850 N   0  0  0  0  0  1  0  0  0  0  0  0
  160.0010  213.3710  151.5030 O   0  0  0  0  0  0  0  0  0  0  0  0
  160.8520  210.6430  152.0420 C   0  0  0  0  0  0  0  0  0  0  0  0
  159.9510  211.4340  152.8230 N   0  0  0  0  0  2  0  0  0  0  0  0
  161.3770  211.1050  150.9920 O   0  0  0  0  0  0  0  0  0  0  0  0
  162.0390  207.6620  154.9050 O   0  0  0  0  0  0  0  0  0  0  0  0
  161.7500  208.2350  156.1450 C   0  0  0  0  0  1  0  0  0  0  0  0
  1 12  1  0  0  0  0
  1  2  2  0  0  0  0
  2 17  1  0  0  0  0
  3  7  1  0  0  0  0
  4  1  1  0  0  0  0
  5 21  1  6  0  0  0
  5 16  1  0  0  0  0
  6 11  2  0  0  0  0
  6  9  1  0  0  0  0
  8  4  1  0  0  0  0
  8 13  1  0  0  0  0
  9  8  2  0  0  0  0
 10  2  1  0  0  0  0
 10  5  1  0  0  0  0
 11 15  1  0  0  0  0
 12  3  2  0  0  0  0
 13 12  1  0  0  0  0
 14 24  1  6  0  0  0
 15  4  2  0  0  0  0
 16 14  1  0  0  0  0
 17  7  2  0  0  0  0
 17 14  1  0  0  0  0
 18 22  1  0  0  0  0
 18 19  1  0  0  0  0
 20 18  2  0  0  0  0
 21 22  1  0  0  0  0
 23 21  2  0  0  0  0
 24 25  1  0  0  0  0
M  END
>  <MODEL>
7

>  <REMARK>
 VINA RESULT:      -8.1      2.550      4.539
  Name = 
  2 active torsions:
  status: ('A' for Active; 'I' for Inactive)
    1  A    between atoms: C_6  and  C_15
    2  A    between atoms: O_13  and  C_20
                            x       y       z     vdW  Elec       q    Type
                         _______ _______ _______ _____ _____    ______ ____

>  <TORSDO>
F 2

$$$$
=
 OpenBabel11052422173D

 25 28  0  0  1  0  0  0  0  0999 V2000
  161.0080  206.7170  151.9270 C   0  0  0  0  0  0  0  0  0  0  0  0
  160.8320  207.8790  152.6730 C   0  0  0  0  0  0  0  0  0  0  0  0
  161.2060  205.3960  153.8870 N   0  0  0  0  0  0  0  0  0  0  0  0
  161.0390  206.4540  150.5800 C   0  0  0  0  0  0  0  0  0  0  0  0
  160.7730  210.3770  152.9490 C   0  0  2  0  0  3  0  0  0  0  0  0
  161.2010  205.2900  148.0750 C   0  0  0  0  0  3  0  0  0  0  0  0
  161.0330  206.4930  154.6360 N   0  0  0  0  0  0  0  0  0  0  0  0
  161.2450  205.0920  150.4660 C   0  0  0  0  0  0  0  0  0  0  0  0
  161.3310  204.4790  149.2180 C   0  0  0  0  0  3  0  0  0  0  0  0
  160.5370  209.1970  152.0100 C   0  0  0  0  0  2  0  0  0  0  0  0
  160.9910  206.6800  148.2000 C   0  0  0  0  0  3  0  0  0  0  0  0
  161.1950  205.5040  152.5390 C   0  0  0  0  0  0  0  0  0  0  0  0
  161.3440  204.4800  151.6680 N   0  0  0  0  0  2  0  0  0  0  0  0
  160.7100  208.9250  154.9940 C   0  0  1  0  0  3  0  0  0  0  0  0
  160.9070  207.2820  149.4670 C   0  0  0  0  0  3  0  0  0  0  0  0
  160.0840  210.1300  154.2880 C   0  0  0  0  0  2  0  0  0  0  0  0
  160.8330  207.7320  154.0820 C   0  0  0  0  0  0  0  0  0  0  0  0
  158.8440  213.7190  152.6080 C   0  0  0  0  0  0  0  0  0  0  0  0
  157.9630  214.4520  153.4490 N   0  0  0  0  0  1  0  0  0  0  0  0
  159.1300  214.1690  151.4670 O   0  0  0  0  0  0  0  0  0  0  0  0
  160.2850  211.6430  152.3290 C   0  0  0  0  0  0  0  0  0  0  0  0
  159.3900  212.4790  153.0710 N   0  0  0  0  0  2  0  0  0  0  0  0
  160.6620  211.9660  151.1690 O   0  0  0  0  0  0  0  0  0  0  0  0
  161.9670  209.2690  155.4950 O   0  0  0  0  0  0  0  0  0  0  0  0
  161.8850  209.0310  156.8680 C   0  0  0  0  0  1  0  0  0  0  0  0
  1 12  1  0  0  0  0
  1  2  2  0  0  0  0
  2 17  1  0  0  0  0
  3  7  1  0  0  0  0
  4  1  1  0  0  0  0
  5 21  1  6  0  0  0
  5 16  1  0  0  0  0
  6 11  2  0  0  0  0
  6  9  1  0  0  0  0
  8  4  1  0  0  0  0
  8 13  1  0  0  0  0
  9  8  2  0  0  0  0
 10  2  1  0  0  0  0
 10  5  1  0  0  0  0
 11 15  1  0  0  0  0
 12  3  2  0  0  0  0
 13 12  1  0  0  0  0
 14 24  1  6  0  0  0
 15  4  2  0  0  0  0
 16 14  1  0  0  0  0
 17  7  2  0  0  0  0
 17 14  1  0  0  0  0
 18 22  1  0  0  0  0
 18 19  1  0  0  0  0
 20 18  2  0  0  0  0
 21 22  1  0  0  0  0
 23 21  2  0  0  0  0
 24 25  1  0  0  0  0
M  END
>  <MODEL>
8

>  <REMARK>
 VINA RESULT:      -7.9      2.929      5.272
  Name = 
  2 active torsions:
  status: ('A' for Active; 'I' for Inactive)
    1  A    between atoms: C_6  and  C_15
    2  A    between atoms: O_13  and  C_20
                            x       y       z     vdW  Elec       q    Type
                         _______ _______ _______ _____ _____    ______ ____

>  <TORSDO>
F 2

$$$$
=
 OpenBabel11052422173D

 25 28  0  0  1  0  0  0  0  0999 V2000
  160.7970  208.4640  153.3290 C   0  0  0  0  0  0  0  0  0  0  0  0
  161.0550  207.3810  152.4930 C   0  0  0  0  0  0  0  0  0  0  0  0
  161.1400  207.1470  155.2710 N   0  0  0  0  0  0  0  0  0  0  0  0
  160.4810  209.7800  153.1000 C   0  0  0  0  0  0  0  0  0  0  0  0
  160.9990  206.1980  150.2760 C   0  0  2  0  0  3  0  0  0  0  0  0
  159.8400  212.4630  153.3130 C   0  0  0  0  0  3  0  0  0  0  0  0
  161.4000  206.0850  154.4980 N   0  0  0  0  0  0  0  0  0  0  0  0
  160.3500  210.3600  154.3480 C   0  0  0  0  0  0  0  0  0  0  0  0
  160.0280  211.7090  154.4860 C   0  0  0  0  0  3  0  0  0  0  0  0
  161.0990  207.5400  150.9980 C   0  0  0  0  0  2  0  0  0  0  0  0
  159.9740  211.8640  152.0420 C   0  0  0  0  0  3  0  0  0  0  0  0
  160.8390  208.3320  154.6940 C   0  0  0  0  0  0  0  0  0  0  0  0
  160.5690  209.4810  155.3530 N   0  0  0  0  0  2  0  0  0  0  0  0
  161.6240  204.9020  152.3300 C   0  0  1  0  0  3  0  0  0  0  0  0
  160.3000  210.5020  151.9220 C   0  0  0  0  0  3  0  0  0  0  0  0
  161.9890  205.2030  150.8750 C   0  0  0  0  0  2  0  0  0  0  0  0
  161.3820  206.1570  153.1280 C   0  0  0  0  0  0  0  0  0  0  0  0
  161.5600  205.2240  146.5690 C   0  0  0  0  0  0  0  0  0  0  0  0
  161.6250  203.9940  145.8600 N   0  0  0  0  0  1  0  0  0  0  0  0
  161.7060  206.3080  145.9440 O   0  0  0  0  0  0  0  0  0  0  0  0
  161.2440  206.3730  148.8150 C   0  0  0  0  0  0  0  0  0  0  0  0
  161.3320  205.2120  147.9820 N   0  0  0  0  0  2  0  0  0  0  0  0
  161.3710  207.5300  148.3280 O   0  0  0  0  0  0  0  0  0  0  0  0
  160.4910  204.0860  152.3770 O   0  0  0  0  0  0  0  0  0  0  0  0
  160.8910  202.8810  151.7970 C   0  0  0  0  0  1  0  0  0  0  0  0
  1 12  1  0  0  0  0
  2 17  1  0  0  0  0
  2  1  2  0  0  0  0
  4  1  1  0  0  0  0
  4  8  1  0  0  0  0
  5 21  1  6  0  0  0
  5 16  1  0  0  0  0
  5 10  1  0  0  0  0
  6  9  1  0  0  0  0
  7  3  1  0  0  0  0
  8  9  2  0  0  0  0
  8 13  1  0  0  0  0
 10  2  1  0  0  0  0
 11  6  2  0  0  0  0
 12  3  2  0  0  0  0
 12 13  1  0  0  0  0
 14 24  1  6  0  0  0
 14 17  1  0  0  0  0
 15 11  1  0  0  0  0
 15  4  2  0  0  0  0
 16 14  1  0  0  0  0
 17  7  2  0  0  0  0
 18 22  1  0  0  0  0
 19 18  1  0  0  0  0
 20 18  2  0  0  0  0
 22 21  1  0  0  0  0
 23 21  2  0  0  0  0
 25 24  1  0  0  0  0
M  END
>  <MODEL>
9

>  <REMARK>
 VINA RESULT:      -7.7      2.245      7.853
  Name = 
  2 active torsions:
  status: ('A' for Active; 'I' for Inactive)
    1  A    between atoms: C_6  and  C_15
    2  A    between atoms: O_13  and  C_20
                            x       y       z     vdW  Elec       q    Type
                         _______ _______ _______ _____ _____    ______ ____

>  <TORSDO>
F 2

$$$$
