=
 OpenBabel11052421533D

 30 31  0  0  1  0  0  0  0  0999 V2000
  161.5520  208.8370  152.0330 N   0  0  0  0  0  0  0  0  0  0  0  0
  161.3440  207.5970  151.3120 C   0  0  1  0  0  3  0  0  0  0  0  0
  161.4270  210.2810  154.0440 N   0  0  0  0  0  2  0  0  0  0  0  0
  161.4490  207.9670  149.8410 C   0  0  0  0  0  2  0  0  0  0  0  0
  161.9420  209.9390  151.1770 C   0  0  0  0  0  2  0  0  0  0  0  0
  162.0950  209.3450  149.7900 C   0  0  0  0  0  2  0  0  0  0  0  0
  160.8490  208.0210  154.1060 O   0  0  0  0  0  0  0  0  0  0  0  0
  161.2600  209.0020  153.4270 C   0  0  0  0  0  0  0  0  0  0  0  0
  161.1840  210.5080  155.4650 C   0  0  1  0  0  3  0  0  0  0  0  0
  163.4500  210.8540  156.1300 O   0  0  0  0  0  0  0  0  0  0  0  0
  162.3980  210.1780  156.2790 C   0  0  0  0  0  0  0  0  0  0  0  0
  162.3820  209.0870  157.1990 N   0  0  0  0  0  1  0  0  0  0  0  0
  160.3270  212.1400  157.2010 C   0  0  0  0  0  1  0  0  0  0  0  0
  160.6960  211.9350  155.7400 C   0  0  2  0  0  3  0  0  0  0  0  0
  157.9310  210.9280  155.5910 O   0  0  0  0  0  0  0  0  0  0  0  0
  159.6250  212.3650  154.8380 N   0  0  0  0  0  2  0  0  0  0  0  0
  157.3790  212.3160  153.8180 N   0  0  0  0  0  1  0  0  0  0  0  0
  158.3000  211.8220  154.7840 C   0  0  0  0  0  0  0  0  0  0  0  0
  162.4350  206.5970  151.6800 C   0  0  0  0  0  2  0  0  0  0  0  0
  161.8710  205.2610  151.8080 N   0  0  0  0  0  0  0  0  0  0  0  0
  161.3030  205.1780  153.1410 C   0  0  0  0  0  1  0  0  0  0  0  0
  160.7590  205.1650  150.8720 C   0  0  0  0  0  2  0  0  0  0  0  0
  160.8750  201.8590  147.7120 C   0  0  0  0  0  0  0  0  0  0  0  0
  159.9940  201.3630  148.8120 C   0  0  0  0  0  2  0  0  0  0  0  0
  161.2260  200.9840  146.6920 O   0  0  0  0  0  1  0  0  0  0  0  0
  160.9210  203.9640  150.0010 C   0  0  0  0  0  0  0  0  0  0  0  0
  160.6610  201.4810  150.1430 C   0  0  0  0  0  3  0  0  0  0  0  0
  161.2920  203.1270  147.6510 C   0  0  0  0  0  3  0  0  0  0  0  0
  161.0340  202.6500  150.6690 C   0  0  0  0  0  3  0  0  0  0  0  0
  161.0700  204.1610  148.6830 C   0  0  0  0  0  3  0  0  0  0  0  0
  1  8  1  0  0  0  0
  2 19  1  1  0  0  0
  2  1  1  0  0  0  0
  4  2  1  0  0  0  0
  5  1  1  0  0  0  0
  6  4  1  0  0  0  0
  6  5  1  0  0  0  0
  8  3  1  0  0  0  0
  8  7  2  0  0  0  0
  9  3  1  6  0  0  0
  9 14  1  0  0  0  0
  9 11  1  0  0  0  0
 10 11  2  0  0  0  0
 11 12  1  0  0  0  0
 14 13  1  1  0  0  0
 16 14  1  0  0  0  0
 17 18  1  0  0  0  0
 18 16  1  0  0  0  0
 18 15  2  0  0  0  0
 19 20  1  0  0  0  0
 20 21  1  0  0  0  0
 22 20  1  0  0  0  0
 23 24  1  0  0  0  0
 24 27  1  0  0  0  0
 25 23  1  0  0  0  0
 26 29  1  0  0  0  0
 26 22  1  0  0  0  0
 27 29  2  0  0  0  0
 28 23  2  0  0  0  0
 28 30  1  0  0  0  0
 30 26  2  0  0  0  0
M  END
>  <MODEL>
1

>  <REMARK>
 VINA RESULT:      -8.1      0.000      0.000
  Name = 
  8 active torsions:
  status: ('A' for Active; 'I' for Inactive)
    1  A    between atoms: C_3  and  N_11
    2  A    between atoms: C_3  and  C_19
    3  A    between atoms: C_4  and  C_8
    4  A    between atoms: C_8  and  C_12
    5  A    between atoms: C_8  and  N_13
    6  A    between atoms: N_9  and  C_12
    7  A    between atoms: C_10  and  C_25
    8  A    between atoms: N_11  and  C_25
                            x       y       z     vdW  Elec       q    Type
                         _______ _______ _______ _____ _____    ______ ____

>  <TORSDO>
F 8

$$$$
=
 OpenBabel11052421533D

 30 31  0  0  1  0  0  0  0  0999 V2000
  161.3460  209.0570  151.2960 N   0  0  0  0  0  0  0  0  0  0  0  0
  161.4730  207.7720  150.6370 C   0  0  1  0  0  3  0  0  0  0  0  0
  160.5900  210.5430  153.1310 N   0  0  0  0  0  2  0  0  0  0  0  0
  161.8440  208.0960  149.1990 C   0  0  0  0  0  2  0  0  0  0  0  0
  161.7570  210.1710  150.4660 C   0  0  0  0  0  2  0  0  0  0  0  0
  162.2900  209.5530  149.1870 C   0  0  0  0  0  2  0  0  0  0  0  0
  160.3280  208.2260  153.2290 O   0  0  0  0  0  0  0  0  0  0  0  0
  160.7380  209.2310  152.5830 C   0  0  0  0  0  0  0  0  0  0  0  0
  160.0140  210.7870  154.4490 C   0  0  1  0  0  3  0  0  0  0  0  0
  160.7580  212.2950  156.1440 O   0  0  0  0  0  0  0  0  0  0  0  0
  161.0450  211.3220  155.3960 C   0  0  0  0  0  0  0  0  0  0  0  0
  162.3560  210.7600  155.4380 N   0  0  0  0  0  1  0  0  0  0  0  0
  157.6310  211.1780  155.2100 C   0  0  0  0  0  1  0  0  0  0  0  0
  158.7890  211.7050  154.3770 C   0  0  2  0  0  3  0  0  0  0  0  0
  158.5640  214.3560  153.1120 O   0  0  0  0  0  0  0  0  0  0  0  0
  158.3810  212.0210  153.0060 N   0  0  0  0  0  2  0  0  0  0  0  0
  157.8050  213.4820  151.1040 N   0  0  0  0  0  1  0  0  0  0  0  0
  158.2590  213.3330  152.4440 C   0  0  0  0  0  0  0  0  0  0  0  0
  162.5850  206.9620  151.2950 C   0  0  0  0  0  2  0  0  0  0  0  0
  162.0970  205.6380  151.6530 N   0  0  0  0  0  0  0  0  0  0  0  0
  161.7250  205.7000  153.0540 C   0  0  0  0  0  1  0  0  0  0  0  0
  160.8710  205.4070  150.9040 C   0  0  0  0  0  2  0  0  0  0  0  0
  160.8800  201.9570  147.8990 C   0  0  0  0  0  0  0  0  0  0  0  0
  159.9700  201.5470  149.0110 C   0  0  0  0  0  2  0  0  0  0  0  0
  161.2030  201.0230  146.9230 O   0  0  0  0  0  1  0  0  0  0  0  0
  160.9910  204.1610  150.0890 C   0  0  0  0  0  0  0  0  0  0  0  0
  160.6310  201.6990  150.3420 C   0  0  0  0  0  3  0  0  0  0  0  0
  161.3480  203.2030  147.7840 C   0  0  0  0  0  3  0  0  0  0  0  0
  161.0460  202.8750  150.8180 C   0  0  0  0  0  3  0  0  0  0  0  0
  161.1590  204.2920  148.7650 C   0  0  0  0  0  3  0  0  0  0  0  0
  1  8  1  0  0  0  0
  2 19  1  1  0  0  0
  2  1  1  0  0  0  0
  4  2  1  0  0  0  0
  5  1  1  0  0  0  0
  6  4  1  0  0  0  0
  6  5  1  0  0  0  0
  8  3  1  0  0  0  0
  8  7  2  0  0  0  0
  9  3  1  6  0  0  0
  9 11  1  0  0  0  0
 11 12  1  0  0  0  0
 11 10  2  0  0  0  0
 14  9  1  0  0  0  0
 14 13  1  6  0  0  0
 16 14  1  0  0  0  0
 17 18  1  0  0  0  0
 18 16  1  0  0  0  0
 18 15  2  0  0  0  0
 19 20  1  0  0  0  0
 20 21  1  0  0  0  0
 22 20  1  0  0  0  0
 23 24  1  0  0  0  0
 24 27  1  0  0  0  0
 25 23  1  0  0  0  0
 26 29  1  0  0  0  0
 26 22  1  0  0  0  0
 27 29  2  0  0  0  0
 28 23  2  0  0  0  0
 28 30  1  0  0  0  0
 30 26  2  0  0  0  0
M  END
>  <MODEL>
2

>  <REMARK>
 VINA RESULT:      -8.1      1.433      1.706
  Name = 
  8 active torsions:
  status: ('A' for Active; 'I' for Inactive)
    1  A    between atoms: C_3  and  N_11
    2  A    between atoms: C_3  and  C_19
    3  A    between atoms: C_4  and  C_8
    4  A    between atoms: C_8  and  C_12
    5  A    between atoms: C_8  and  N_13
    6  A    between atoms: N_9  and  C_12
    7  A    between atoms: C_10  and  C_25
    8  A    between atoms: N_11  and  C_25
                            x       y       z     vdW  Elec       q    Type
                         _______ _______ _______ _____ _____    ______ ____

>  <TORSDO>
F 8

$$$$
=
 OpenBabel11052421533D

 30 31  0  0  1  0  0  0  0  0999 V2000
  161.3590  207.9490  152.2360 N   0  0  0  0  0  0  0  0  0  0  0  0
  161.8550  207.3320  151.0210 C   0  0  1  0  0  3  0  0  0  0  0  0
  160.8080  209.8940  153.6700 N   0  0  0  0  0  2  0  0  0  0  0  0
  162.1310  205.8840  151.3920 C   0  0  0  0  0  2  0  0  0  0  0  0
  161.1350  207.0020  153.3090 C   0  0  0  0  0  2  0  0  0  0  0  0
  161.4180  205.6350  152.7150 C   0  0  0  0  0  2  0  0  0  0  0  0
  161.5230  210.1480  151.4620 O   0  0  0  0  0  0  0  0  0  0  0  0
  161.2400  209.3660  152.4130 C   0  0  0  0  0  0  0  0  0  0  0  0
  160.6310  211.3230  153.9050 C   0  0  1  0  0  3  0  0  0  0  0  0
  158.4740  211.0190  152.9280 O   0  0  0  0  0  0  0  0  0  0  0  0
  159.3880  211.8290  153.2380 C   0  0  0  0  0  0  0  0  0  0  0  0
  159.2430  213.2130  152.9230 N   0  0  0  0  0  1  0  0  0  0  0  0
  161.8190  211.0230  156.1210 C   0  0  0  0  0  1  0  0  0  0  0  0
  160.6420  211.6620  155.4000 C   0  0  2  0  0  3  0  0  0  0  0  0
  158.6740  213.5860  156.4480 O   0  0  0  0  0  0  0  0  0  0  0  0
  159.3690  211.3790  156.0680 N   0  0  0  0  0  2  0  0  0  0  0  0
  157.2760  211.9210  157.2540 N   0  0  0  0  0  1  0  0  0  0  0  0
  158.4560  212.3530  156.5880 C   0  0  0  0  0  0  0  0  0  0  0  0
  160.7860  207.3990  149.9340 C   0  0  0  0  0  2  0  0  0  0  0  0
  161.3880  207.7610  148.6600 N   0  0  0  0  0  0  0  0  0  0  0  0
  162.1610  208.9660  148.8940 C   0  0  0  0  0  1  0  0  0  0  0  0
  162.3390  206.7150  148.3120 C   0  0  0  0  0  2  0  0  0  0  0  0
  161.0100  203.3210  145.5450 C   0  0  0  0  0  0  0  0  0  0  0  0
  161.2690  204.5040  144.6710 C   0  0  0  0  0  2  0  0  0  0  0  0
  160.4290  202.1920  144.9850 O   0  0  0  0  0  1  0  0  0  0  0  0
  161.7090  205.7350  147.3780 C   0  0  0  0  0  0  0  0  0  0  0  0
  160.5490  205.7170  145.1630 C   0  0  0  0  0  3  0  0  0  0  0  0
  161.3670  203.2960  146.8330 C   0  0  0  0  0  3  0  0  0  0  0  0
  160.7840  206.2690  146.3550 C   0  0  0  0  0  3  0  0  0  0  0  0
  161.9280  204.4300  147.5970 C   0  0  0  0  0  3  0  0  0  0  0  0
  1  8  1  0  0  0  0
  1  5  1  0  0  0  0
  2 19  1  6  0  0  0
  2  4  1  0  0  0  0
  2  1  1  0  0  0  0
  3  9  1  0  0  0  0
  4  6  1  0  0  0  0
  6  5  1  0  0  0  0
  7  8  2  0  0  0  0
  8  3  1  0  0  0  0
  9 11  1  1  0  0  0
  9 14  1  0  0  0  0
 10 11  2  0  0  0  0
 12 11  1  0  0  0  0
 14 16  1  0  0  0  0
 14 13  1  1  0  0  0
 15 18  2  0  0  0  0
 16 18  1  0  0  0  0
 18 17  1  0  0  0  0
 20 21  1  0  0  0  0
 20 19  1  0  0  0  0
 22 20  1  0  0  0  0
 23 28  2  0  0  0  0
 24 27  1  0  0  0  0
 24 23  1  0  0  0  0
 25 23  1  0  0  0  0
 26 30  2  0  0  0  0
 26 22  1  0  0  0  0
 27 29  2  0  0  0  0
 28 30  1  0  0  0  0
 29 26  1  0  0  0  0
M  END
>  <MODEL>
3

>  <REMARK>
 VINA RESULT:      -7.5      2.243      3.608
  Name = 
  8 active torsions:
  status: ('A' for Active; 'I' for Inactive)
    1  A    between atoms: C_3  and  N_11
    2  A    between atoms: C_3  and  C_19
    3  A    between atoms: C_4  and  C_8
    4  A    between atoms: C_8  and  C_12
    5  A    between atoms: C_8  and  N_13
    6  A    between atoms: N_9  and  C_12
    7  A    between atoms: C_10  and  C_25
    8  A    between atoms: N_11  and  C_25
                            x       y       z     vdW  Elec       q    Type
                         _______ _______ _______ _____ _____    ______ ____

>  <TORSDO>
F 8

$$$$
=
 OpenBabel11052421533D

 30 31  0  0  1  0  0  0  0  0999 V2000
  161.2760  206.9050  152.3680 N   0  0  0  0  0  0  0  0  0  0  0  0
  161.8270  206.7290  151.0380 C   0  0  1  0  0  3  0  0  0  0  0  0
  160.4950  208.2740  154.2810 N   0  0  0  0  0  2  0  0  0  0  0  0
  162.3060  205.2870  150.9920 C   0  0  0  0  0  2  0  0  0  0  0  0
  161.2060  205.6730  153.1270 C   0  0  0  0  0  2  0  0  0  0  0  0
  161.6610  204.5810  152.1770 C   0  0  0  0  0  2  0  0  0  0  0  0
  161.1240  209.2340  152.2490 O   0  0  0  0  0  0  0  0  0  0  0  0
  160.9690  208.1850  152.9350 C   0  0  0  0  0  0  0  0  0  0  0  0
  160.1290  209.5400  154.9070 C   0  0  1  0  0  3  0  0  0  0  0  0
  159.5320  210.3290  157.0790 O   0  0  0  0  0  0  0  0  0  0  0  0
  160.0370  209.3990  156.3960 C   0  0  0  0  0  0  0  0  0  0  0  0
  160.5410  208.2340  157.0480 N   0  0  0  0  0  1  0  0  0  0  0  0
  162.3310  210.6970  155.3800 C   0  0  0  0  0  1  0  0  0  0  0  0
  161.0850  210.6710  154.5090 C   0  0  2  0  0  3  0  0  0  0  0  0
  158.8980  211.5230  152.7290 O   0  0  0  0  0  0  0  0  0  0  0  0
  160.4350  211.9820  154.4400 N   0  0  0  0  0  2  0  0  0  0  0  0
  158.8880  213.6880  153.5570 N   0  0  0  0  0  1  0  0  0  0  0  0
  159.3900  212.3570  153.5340 C   0  0  0  0  0  0  0  0  0  0  0  0
  160.7380  206.9530  149.9950 C   0  0  0  0  0  2  0  0  0  0  0  0
  161.2780  207.6710  148.8500 N   0  0  0  0  0  0  0  0  0  0  0  0
  161.9550  208.8410  149.3780 C   0  0  0  0  0  1  0  0  0  0  0  0
  162.3040  206.8290  148.2500 C   0  0  0  0  0  2  0  0  0  0  0  0
  161.0160  203.4450  145.4530 C   0  0  0  0  0  0  0  0  0  0  0  0
  161.2050  204.6550  144.5960 C   0  0  0  0  0  2  0  0  0  0  0  0
  160.4590  202.3070  144.8860 O   0  0  0  0  0  1  0  0  0  0  0  0
  161.6820  205.8460  147.3150 C   0  0  0  0  0  0  0  0  0  0  0  0
  160.4560  205.8300  145.1350 C   0  0  0  0  0  3  0  0  0  0  0  0
  161.4130  203.4080  146.7280 C   0  0  0  0  0  3  0  0  0  0  0  0
  160.7070  206.3660  146.3320 C   0  0  0  0  0  3  0  0  0  0  0  0
  161.9550  204.5460  147.5000 C   0  0  0  0  0  3  0  0  0  0  0  0
  1  8  1  0  0  0  0
  1  5  1  0  0  0  0
  2 19  1  6  0  0  0
  2  1  1  0  0  0  0
  4  2  1  0  0  0  0
  4  6  1  0  0  0  0
  6  5  1  0  0  0  0
  7  8  2  0  0  0  0
  8  3  1  0  0  0  0
  9  3  1  6  0  0  0
  9 11  1  0  0  0  0
 11 12  1  0  0  0  0
 11 10  2  0  0  0  0
 14  9  1  0  0  0  0
 14 13  1  1  0  0  0
 15 18  2  0  0  0  0
 16 14  1  0  0  0  0
 18 17  1  0  0  0  0
 18 16  1  0  0  0  0
 20 21  1  0  0  0  0
 20 19  1  0  0  0  0
 22 20  1  0  0  0  0
 23 28  2  0  0  0  0
 24 27  1  0  0  0  0
 24 23  1  0  0  0  0
 25 23  1  0  0  0  0
 26 30  2  0  0  0  0
 26 22  1  0  0  0  0
 27 29  2  0  0  0  0
 28 30  1  0  0  0  0
 29 26  1  0  0  0  0
M  END
>  <MODEL>
4

>  <REMARK>
 VINA RESULT:      -7.2      2.058      3.323
  Name = 
  8 active torsions:
  status: ('A' for Active; 'I' for Inactive)
    1  A    between atoms: C_3  and  N_11
    2  A    between atoms: C_3  and  C_19
    3  A    between atoms: C_4  and  C_8
    4  A    between atoms: C_8  and  C_12
    5  A    between atoms: C_8  and  N_13
    6  A    between atoms: N_9  and  C_12
    7  A    between atoms: C_10  and  C_25
    8  A    between atoms: N_11  and  C_25
                            x       y       z     vdW  Elec       q    Type
                         _______ _______ _______ _____ _____    ______ ____

>  <TORSDO>
F 8

$$$$
=
 OpenBabel11052421533D

 30 31  0  0  1  0  0  0  0  0999 V2000
  161.6050  207.7640  152.1970 N   0  0  0  0  0  0  0  0  0  0  0  0
  162.4710  207.0810  151.2550 C   0  0  1  0  0  3  0  0  0  0  0  0
  160.7530  209.7770  153.3680 N   0  0  0  0  0  2  0  0  0  0  0  0
  162.4120  205.6150  151.6510 C   0  0  0  0  0  2  0  0  0  0  0  0
  160.8690  206.8620  153.0580 C   0  0  0  0  0  2  0  0  0  0  0  0
  161.2080  205.4660  152.5730 C   0  0  0  0  0  2  0  0  0  0  0  0
  162.3100  209.9210  151.6350 O   0  0  0  0  0  0  0  0  0  0  0  0
  161.5870  209.1880  152.3650 C   0  0  0  0  0  0  0  0  0  0  0  0
  160.6590  211.2190  153.5680 C   0  0  1  0  0  3  0  0  0  0  0  0
  158.5870  211.1170  152.3870 O   0  0  0  0  0  0  0  0  0  0  0  0
  159.5880  211.8130  152.7050 C   0  0  0  0  0  0  0  0  0  0  0  0
  159.7050  213.1490  152.2160 N   0  0  0  0  0  1  0  0  0  0  0  0
  161.5780  211.0490  155.9210 C   0  0  0  0  0  1  0  0  0  0  0  0
  160.4550  211.5790  155.0430 C   0  0  2  0  0  3  0  0  0  0  0  0
  158.2140  213.3500  155.7610 O   0  0  0  0  0  0  0  0  0  0  0  0
  159.1340  211.2030  155.5540 N   0  0  0  0  0  2  0  0  0  0  0  0
  156.8670  211.5910  156.4440 N   0  0  0  0  0  1  0  0  0  0  0  0
  158.0840  212.1070  155.9180 C   0  0  0  0  0  0  0  0  0  0  0  0
  161.9380  207.2630  149.8380 C   0  0  0  0  0  2  0  0  0  0  0  0
  161.3280  206.0280  149.3680 N   0  0  0  0  0  0  0  0  0  0  0  0
  159.8990  206.2700  149.3050 C   0  0  0  0  0  1  0  0  0  0  0  0
  161.7770  205.8130  147.9990 C   0  0  0  0  0  2  0  0  0  0  0  0
  160.7550  201.6940  146.2890 C   0  0  0  0  0  0  0  0  0  0  0  0
  160.0890  201.7750  147.6240 C   0  0  0  0  0  2  0  0  0  0  0  0
  160.7520  200.4800  145.6150 O   0  0  0  0  0  1  0  0  0  0  0  0
  161.5830  204.3840  147.6110 C   0  0  0  0  0  0  0  0  0  0  0  0
  161.0500  202.1920  148.6900 C   0  0  0  0  0  3  0  0  0  0  0  0
  161.3050  202.7610  145.7010 C   0  0  0  0  0  3  0  0  0  0  0  0
  161.6770  203.3700  148.6840 C   0  0  0  0  0  3  0  0  0  0  0  0
  161.4540  204.1010  146.3070 C   0  0  0  0  0  3  0  0  0  0  0  0
  1  8  1  0  0  0  0
  1  5  1  0  0  0  0
  2 19  1  6  0  0  0
  2  4  1  0  0  0  0
  2  1  1  0  0  0  0
  3  9  1  0  0  0  0
  4  6  1  0  0  0  0
  6  5  1  0  0  0  0
  7  8  2  0  0  0  0
  8  3  1  0  0  0  0
  9 11  1  6  0  0  0
  9 14  1  0  0  0  0
 10 11  2  0  0  0  0
 12 11  1  0  0  0  0
 14 16  1  0  0  0  0
 14 13  1  1  0  0  0
 15 18  2  0  0  0  0
 16 18  1  0  0  0  0
 18 17  1  0  0  0  0
 20 19  1  0  0  0  0
 21 20  1  0  0  0  0
 22 20  1  0  0  0  0
 23 24  1  0  0  0  0
 24 27  1  0  0  0  0
 25 23  1  0  0  0  0
 26 22  1  0  0  0  0
 26 29  1  0  0  0  0
 28 23  2  0  0  0  0
 28 30  1  0  0  0  0
 29 27  2  0  0  0  0
 30 26  2  0  0  0  0
M  END
>  <MODEL>
5

>  <REMARK>
 VINA RESULT:      -7.1      1.954      2.990
  Name = 
  8 active torsions:
  status: ('A' for Active; 'I' for Inactive)
    1  A    between atoms: C_3  and  N_11
    2  A    between atoms: C_3  and  C_19
    3  A    between atoms: C_4  and  C_8
    4  A    between atoms: C_8  and  C_12
    5  A    between atoms: C_8  and  N_13
    6  A    between atoms: N_9  and  C_12
    7  A    between atoms: C_10  and  C_25
    8  A    between atoms: N_11  and  C_25
                            x       y       z     vdW  Elec       q    Type
                         _______ _______ _______ _____ _____    ______ ____

>  <TORSDO>
F 8

$$$$
=
 OpenBabel11052421533D

 30 31  0  0  1  0  0  0  0  0999 V2000
  161.3800  209.2540  151.8090 N   0  0  0  0  0  0  0  0  0  0  0  0
  161.5430  208.2260  150.8000 C   0  0  1  0  0  3  0  0  0  0  0  0
  160.5630  210.1150  153.9850 N   0  0  0  0  0  2  0  0  0  0  0  0
  161.9320  208.9690  149.5320 C   0  0  0  0  0  2  0  0  0  0  0  0
  161.7830  210.5700  151.3570 C   0  0  0  0  0  2  0  0  0  0  0  0
  162.3490  210.3690  149.9650 C   0  0  0  0  0  2  0  0  0  0  0  0
  160.3450  207.8710  153.3830 O   0  0  0  0  0  0  0  0  0  0  0  0
  160.7460  209.0280  153.0750 C   0  0  0  0  0  0  0  0  0  0  0  0
  159.9600  209.9470  155.3030 C   0  0  1  0  0  3  0  0  0  0  0  0
  160.5060  208.4710  157.0980 O   0  0  0  0  0  0  0  0  0  0  0  0
  160.9240  209.3130  156.2600 C   0  0  0  0  0  0  0  0  0  0  0  0
  162.3040  209.6760  156.2490 N   0  0  0  0  0  1  0  0  0  0  0  0
  159.9150  211.5540  157.2600 C   0  0  0  0  0  1  0  0  0  0  0  0
  159.4110  211.2680  155.8540 C   0  0  2  0  0  3  0  0  0  0  0  0
  157.8270  212.9400  154.0180 O   0  0  0  0  0  0  0  0  0  0  0  0
  157.9530  211.3750  155.7600 N   0  0  0  0  0  2  0  0  0  0  0  0
  155.8060  212.2540  154.9240 N   0  0  0  0  0  1  0  0  0  0  0  0
  157.2270  212.2270  154.8660 C   0  0  0  0  0  0  0  0  0  0  0  0
  162.6590  207.2720  151.2110 C   0  0  0  0  0  2  0  0  0  0  0  0
  162.1790  205.8980  151.1930 N   0  0  0  0  0  0  0  0  0  0  0  0
  162.0220  205.4970  152.5790 C   0  0  0  0  0  1  0  0  0  0  0  0
  160.8450  205.9100  150.6080 C   0  0  0  0  0  2  0  0  0  0  0  0
  161.4910  203.7120  146.6470 C   0  0  0  0  0  0  0  0  0  0  0  0
  161.9460  205.1190  146.4300 C   0  0  0  0  0  2  0  0  0  0  0  0
  161.4170  202.8590  145.5540 O   0  0  0  0  0  1  0  0  0  0  0  0
  160.8800  205.3270  149.2340 C   0  0  0  0  0  0  0  0  0  0  0  0
  160.9040  206.1020  146.8560 C   0  0  0  0  0  3  0  0  0  0  0  0
  161.2060  203.2360  147.8630 C   0  0  0  0  0  3  0  0  0  0  0  0
  160.4700  206.2020  148.1150 C   0  0  0  0  0  3  0  0  0  0  0  0
  161.1660  204.0230  149.1130 C   0  0  0  0  0  3  0  0  0  0  0  0
  1  8  1  0  0  0  0
  2 19  1  1  0  0  0
  2  1  1  0  0  0  0
  4  6  1  0  0  0  0
  4  2  1  0  0  0  0
  5  1  1  0  0  0  0
  6  5  1  0  0  0  0
  8  7  2  0  0  0  0
  8  3  1  0  0  0  0
  9  3  1  6  0  0  0
  9 14  1  0  0  0  0
  9 11  1  0  0  0  0
 11 10  2  0  0  0  0
 12 11  1  0  0  0  0
 14 13  1  1  0  0  0
 15 18  2  0  0  0  0
 16 14  1  0  0  0  0
 18 17  1  0  0  0  0
 18 16  1  0  0  0  0
 20 19  1  0  0  0  0
 20 21  1  0  0  0  0
 22 20  1  0  0  0  0
 23 28  2  0  0  0  0
 24 23  1  0  0  0  0
 24 27  1  0  0  0  0
 25 23  1  0  0  0  0
 26 22  1  0  0  0  0
 27 29  2  0  0  0  0
 28 30  1  0  0  0  0
 29 26  1  0  0  0  0
 30 26  2  0  0  0  0
M  END
>  <MODEL>
6

>  <REMARK>
 VINA RESULT:      -6.9      1.569      2.136
  Name = 
  8 active torsions:
  status: ('A' for Active; 'I' for Inactive)
    1  A    between atoms: C_3  and  N_11
    2  A    between atoms: C_3  and  C_19
    3  A    between atoms: C_4  and  C_8
    4  A    between atoms: C_8  and  C_12
    5  A    between atoms: C_8  and  N_13
    6  A    between atoms: N_9  and  C_12
    7  A    between atoms: C_10  and  C_25
    8  A    between atoms: N_11  and  C_25
                            x       y       z     vdW  Elec       q    Type
                         _______ _______ _______ _____ _____    ______ ____

>  <TORSDO>
F 8

$$$$
=
 OpenBabel11052421533D

 30 31  0  0  1  0  0  0  0  0999 V2000
  161.6140  207.8430  152.3510 N   0  0  0  0  0  0  0  0  0  0  0  0
  162.6190  207.3490  151.4300 C   0  0  1  0  0  3  0  0  0  0  0  0
  160.5080  209.6190  153.6810 N   0  0  0  0  0  2  0  0  0  0  0  0
  162.6190  205.8400  151.6130 C   0  0  0  0  0  2  0  0  0  0  0  0
  160.8540  206.7890  152.9920 C   0  0  0  0  0  2  0  0  0  0  0  0
  161.3380  205.4970  152.3630 C   0  0  0  0  0  2  0  0  0  0  0  0
  162.2240  210.0920  152.1720 O   0  0  0  0  0  0  0  0  0  0  0  0
  161.4800  209.2250  152.7090 C   0  0  0  0  0  0  0  0  0  0  0  0
  160.2940  211.0110  154.0630 C   0  0  1  0  0  3  0  0  0  0  0  0
  159.4410  212.3240  152.2610 O   0  0  0  0  0  0  0  0  0  0  0  0
  159.1770  211.6210  153.2730 C   0  0  0  0  0  0  0  0  0  0  0  0
  157.8190  211.4390  153.6720 N   0  0  0  0  0  1  0  0  0  0  0  0
  160.3520  212.5720  156.0560 C   0  0  0  0  0  1  0  0  0  0  0  0
  160.0610  211.1600  155.5710 C   0  0  2  0  0  3  0  0  0  0  0  0
  162.9650  210.7550  155.8480 O   0  0  0  0  0  0  0  0  0  0  0  0
  160.7600  210.1500  156.3680 N   0  0  0  0  0  2  0  0  0  0  0  0
  162.7110  208.9150  157.2350 N   0  0  0  0  0  1  0  0  0  0  0  0
  162.1800  209.9750  156.4480 C   0  0  0  0  0  0  0  0  0  0  0  0
  162.2260  207.7030  150.0000 C   0  0  0  0  0  2  0  0  0  0  0  0
  161.7500  206.5180  149.3010 N   0  0  0  0  0  0  0  0  0  0  0  0
  160.3010  206.6000  149.2870 C   0  0  0  0  0  1  0  0  0  0  0  0
  162.1880  206.6220  147.9160 C   0  0  0  0  0  2  0  0  0  0  0  0
  160.9770  202.8610  145.6100 C   0  0  0  0  0  0  0  0  0  0  0  0
  161.2860  203.9040  144.5860 C   0  0  0  0  0  2  0  0  0  0  0  0
  160.4170  201.6610  145.1910 O   0  0  0  0  0  1  0  0  0  0  0  0
  161.5990  205.5160  147.1050 C   0  0  0  0  0  0  0  0  0  0  0  0
  160.5500  205.1750  144.8600 C   0  0  0  0  0  3  0  0  0  0  0  0
  161.2690  203.0230  146.9030 C   0  0  0  0  0  3  0  0  0  0  0  0
  160.7290  205.8950  145.9700 C   0  0  0  0  0  3  0  0  0  0  0  0
  161.7990  204.2570  147.5220 C   0  0  0  0  0  3  0  0  0  0  0  0
  1  8  1  0  0  0  0
  1  5  1  0  0  0  0
  2 19  1  6  0  0  0
  2  4  1  0  0  0  0
  2  1  1  0  0  0  0
  3  9  1  0  0  0  0
  4  6  1  0  0  0  0
  6  5  1  0  0  0  0
  7  8  2  0  0  0  0
  8  3  1  0  0  0  0
  9 11  1  6  0  0  0
  9 14  1  0  0  0  0
 10 11  2  0  0  0  0
 11 12  1  0  0  0  0
 14 13  1  1  0  0  0
 14 16  1  0  0  0  0
 15 18  2  0  0  0  0
 16 18  1  0  0  0  0
 18 17  1  0  0  0  0
 20 19  1  0  0  0  0
 21 20  1  0  0  0  0
 22 20  1  0  0  0  0
 23 28  2  0  0  0  0
 24 27  1  0  0  0  0
 24 23  1  0  0  0  0
 25 23  1  0  0  0  0
 26 30  2  0  0  0  0
 26 22  1  0  0  0  0
 27 29  2  0  0  0  0
 28 30  1  0  0  0  0
 29 26  1  0  0  0  0
M  END
>  <MODEL>
7

>  <REMARK>
 VINA RESULT:      -6.9      1.936      3.793
  Name = 
  8 active torsions:
  status: ('A' for Active; 'I' for Inactive)
    1  A    between atoms: C_3  and  N_11
    2  A    between atoms: C_3  and  C_19
    3  A    between atoms: C_4  and  C_8
    4  A    between atoms: C_8  and  C_12
    5  A    between atoms: C_8  and  N_13
    6  A    between atoms: N_9  and  C_12
    7  A    between atoms: C_10  and  C_25
    8  A    between atoms: N_11  and  C_25
                            x       y       z     vdW  Elec       q    Type
                         _______ _______ _______ _____ _____    ______ ____

>  <TORSDO>
F 8

$$$$
=
 OpenBabel11052421533D

 30 31  0  0  1  0  0  0  0  0999 V2000
  161.3620  206.1550  150.6910 N   0  0  0  0  0  0  0  0  0  0  0  0
  160.8230  207.2920  151.4120 C   0  0  1  0  0  3  0  0  0  0  0  0
  161.6200  204.7220  148.6840 N   0  0  0  0  0  2  0  0  0  0  0  0
  161.0490  206.9750  152.8810 C   0  0  0  0  0  2  0  0  0  0  0  0
  162.0570  205.2120  151.5430 C   0  0  0  0  0  2  0  0  0  0  0  0
  162.0570  205.8340  152.9260 C   0  0  0  0  0  2  0  0  0  0  0  0
  160.4290  206.7280  148.6260 O   0  0  0  0  0  0  0  0  0  0  0  0
  161.1090  205.9060  149.3010 C   0  0  0  0  0  0  0  0  0  0  0  0
  161.4310  204.4260  147.2680 C   0  0  1  0  0  3  0  0  0  0  0  0
  163.7470  204.7020  146.7610 O   0  0  0  0  0  0  0  0  0  0  0  0
  162.5580  204.9760  146.4480 C   0  0  0  0  0  0  0  0  0  0  0  0
  162.2990  205.8300  145.3340 N   0  0  0  0  0  1  0  0  0  0  0  0
  160.8310  202.6360  145.5810 C   0  0  0  0  0  1  0  0  0  0  0  0
  161.2350  202.9270  147.0180 C   0  0  2  0  0  3  0  0  0  0  0  0
  161.8760  200.8570  149.0140 O   0  0  0  0  0  0  0  0  0  0  0  0
  160.3330  202.2920  147.9820 N   0  0  0  0  0  2  0  0  0  0  0  0
  159.6860  200.7120  149.7620 N   0  0  0  0  0  1  0  0  0  0  0  0
  160.6880  201.2650  148.9170 C   0  0  0  0  0  0  0  0  0  0  0  0
  161.5850  208.5560  151.0250 C   0  0  0  0  0  2  0  0  0  0  0  0
  161.5780  209.5040  152.1290 N   0  0  0  0  0  0  0  0  0  0  0  0
  162.8220  210.2460  152.0450 C   0  0  0  0  0  1  0  0  0  0  0  0
  160.5050  210.4560  151.8790 C   0  0  0  0  0  2  0  0  0  0  0  0
  157.9790  211.8310  155.4380 C   0  0  0  0  0  0  0  0  0  0  0  0
  159.3820  211.7070  155.9370 C   0  0  0  0  0  2  0  0  0  0  0  0
  156.9650  212.0720  156.3550 O   0  0  0  0  0  1  0  0  0  0  0  0
  159.7210  210.6900  153.1290 C   0  0  0  0  0  0  0  0  0  0  0  0
  159.9680  210.3750  155.5970 C   0  0  0  0  0  3  0  0  0  0  0  0
  157.6780  211.7710  154.1380 C   0  0  0  0  0  3  0  0  0  0  0  0
  160.1420  209.9560  154.3420 C   0  0  0  0  0  3  0  0  0  0  0  0
  158.6210  211.4530  153.0460 C   0  0  0  0  0  3  0  0  0  0  0  0
  1  2  1  0  0  0  0
  1  5  1  0  0  0  0
  2 19  1  6  0  0  0
  2  4  1  0  0  0  0
  3  8  1  0  0  0  0
  4  6  1  0  0  0  0
  5  6  1  0  0  0  0
  7  8  2  0  0  0  0
  8  1  1  0  0  0  0
  9 11  1  6  0  0  0
  9  3  1  0  0  0  0
 11 10  2  0  0  0  0
 12 11  1  0  0  0  0
 14 13  1  6  0  0  0
 14  9  1  0  0  0  0
 14 16  1  0  0  0  0
 16 18  1  0  0  0  0
 18 15  2  0  0  0  0
 18 17  1  0  0  0  0
 19 20  1  0  0  0  0
 21 20  1  0  0  0  0
 22 20  1  0  0  0  0
 22 26  1  0  0  0  0
 23 24  1  0  0  0  0
 23 25  1  0  0  0  0
 26 29  1  0  0  0  0
 27 24  1  0  0  0  0
 28 23  2  0  0  0  0
 29 27  2  0  0  0  0
 30 26  2  0  0  0  0
 30 28  1  0  0  0  0
M  END
>  <MODEL>
8

>  <REMARK>
 VINA RESULT:      -6.7      2.686      9.611
  Name = 
  8 active torsions:
  status: ('A' for Active; 'I' for Inactive)
    1  A    between atoms: C_3  and  N_11
    2  A    between atoms: C_3  and  C_19
    3  A    between atoms: C_4  and  C_8
    4  A    between atoms: C_8  and  C_12
    5  A    between atoms: C_8  and  N_13
    6  A    between atoms: N_9  and  C_12
    7  A    between atoms: C_10  and  C_25
    8  A    between atoms: N_11  and  C_25
                            x       y       z     vdW  Elec       q    Type
                         _______ _______ _______ _____ _____    ______ ____

>  <TORSDO>
F 8

$$$$
=
 OpenBabel11052421533D

 30 31  0  0  1  0  0  0  0  0999 V2000
  160.3330  209.2350  154.0520 N   0  0  0  0  0  0  0  0  0  0  0  0
  161.1500  208.3130  153.2880 C   0  0  1  0  0  3  0  0  0  0  0  0
  159.4530  211.4870  154.6020 N   0  0  0  0  0  2  0  0  0  0  0  0
  161.2390  207.0570  154.1400 C   0  0  0  0  0  2  0  0  0  0  0  0
  159.7530  208.6400  155.2390 C   0  0  0  0  0  2  0  0  0  0  0  0
  160.1460  207.1750  155.1950 C   0  0  0  0  0  2  0  0  0  0  0  0
  160.8180  211.1110  152.7460 O   0  0  0  0  0  0  0  0  0  0  0  0
  160.2250  210.6330  153.7530 C   0  0  0  0  0  0  0  0  0  0  0  0
  159.2730  212.9100  154.3340 C   0  0  1  0  0  3  0  0  0  0  0  0
  157.3300  212.9000  152.9470 O   0  0  0  0  0  0  0  0  0  0  0  0
  158.5660  213.1270  153.0310 C   0  0  0  0  0  0  0  0  0  0  0  0
  159.2860  213.5610  151.8770 N   0  0  0  0  0  1  0  0  0  0  0  0
  159.5200  214.4030  156.3650 C   0  0  0  0  0  1  0  0  0  0  0  0
  158.5550  213.6210  155.4870 C   0  0  2  0  0  3  0  0  0  0  0  0
  155.6280  213.7320  155.8000 O   0  0  0  0  0  0  0  0  0  0  0  0
  157.6960  212.7310  156.2720 N   0  0  0  0  0  2  0  0  0  0  0  0
  155.5810  211.9270  157.2530 N   0  0  0  0  0  1  0  0  0  0  0  0
  156.2750  212.8440  156.4160 C   0  0  0  0  0  0  0  0  0  0  0  0
  160.4680  207.9980  151.9610 C   0  0  0  0  0  2  0  0  0  0  0  0
  161.4540  207.9270  150.8930 N   0  0  0  0  0  0  0  0  0  0  0  0
  162.3360  209.0660  151.0680 C   0  0  0  0  0  1  0  0  0  0  0  0
  162.2600  206.7360  151.1220 C   0  0  0  0  0  2  0  0  0  0  0  0
  160.7260  202.7140  149.5710 C   0  0  0  0  0  0  0  0  0  0  0  0
  161.5630  203.2980  148.4790 C   0  0  0  0  0  2  0  0  0  0  0  0
  159.9930  201.5650  149.3070 O   0  0  0  0  0  1  0  0  0  0  0  0
  161.6280  205.5520  150.4670 C   0  0  0  0  0  0  0  0  0  0  0  0
  161.1520  204.6990  148.1650 C   0  0  0  0  0  3  0  0  0  0  0  0
  160.7020  203.2300  150.8030 C   0  0  0  0  0  3  0  0  0  0  0  0
  161.2220  205.6940  149.0520 C   0  0  0  0  0  3  0  0  0  0  0  0
  161.3640  204.4810  151.2300 C   0  0  0  0  0  3  0  0  0  0  0  0
  1  5  1  0  0  0  0
  2 19  1  6  0  0  0
  2  1  1  0  0  0  0
  2  4  1  0  0  0  0
  4  6  1  0  0  0  0
  6  5  1  0  0  0  0
  7  8  2  0  0  0  0
  8  1  1  0  0  0  0
  8  3  1  0  0  0  0
  9 11  1  6  0  0  0
  9  3  1  0  0  0  0
  9 14  1  0  0  0  0
 10 11  2  0  0  0  0
 12 11  1  0  0  0  0
 14 16  1  0  0  0  0
 14 13  1  1  0  0  0
 15 18  2  0  0  0  0
 16 18  1  0  0  0  0
 18 17  1  0  0  0  0
 20 21  1  0  0  0  0
 20 22  1  0  0  0  0
 20 19  1  0  0  0  0
 23 28  2  0  0  0  0
 24 23  1  0  0  0  0
 25 23  1  0  0  0  0
 26 22  1  0  0  0  0
 26 30  2  0  0  0  0
 27 24  1  0  0  0  0
 27 29  2  0  0  0  0
 28 30  1  0  0  0  0
 29 26  1  0  0  0  0
M  END
>  <MODEL>
9

>  <REMARK>
 VINA RESULT:      -6.7      2.140      3.771
  Name = 
  8 active torsions:
  status: ('A' for Active; 'I' for Inactive)
    1  A    between atoms: C_3  and  N_11
    2  A    between atoms: C_3  and  C_19
    3  A    between atoms: C_4  and  C_8
    4  A    between atoms: C_8  and  C_12
    5  A    between atoms: C_8  and  N_13
    6  A    between atoms: N_9  and  C_12
    7  A    between atoms: C_10  and  C_25
    8  A    between atoms: N_11  and  C_25
                            x       y       z     vdW  Elec       q    Type
                         _______ _______ _______ _____ _____    ______ ____

>  <TORSDO>
F 8

$$$$
