=
 OpenBabel11062408313D

 32 35  0  0  1  0  0  0  0  0999 V2000
  161.2080  206.4190  153.8680 C   0  0  0  0  0  2  0  0  0  0  0  0
  160.6760  207.7510  154.3150 C   0  0  0  0  0  0  0  0  0  0  0  0
  161.3190  206.3010  152.3400 C   0  0  1  0  0  3  0  0  0  0  0  0
  161.7950  207.5860  151.6930 C   0  0  0  0  0  0  0  0  0  0  0  0
  161.5180  208.7660  152.2590 C   0  0  0  0  0  3  0  0  0  0  0  0
  160.8730  208.8470  153.5790 C   0  0  0  0  0  3  0  0  0  0  0  0
  162.2380  205.1340  152.0030 C   0  0  0  0  0  2  0  0  0  0  0  0
  161.5420  204.1590  151.1180 C   0  0  0  0  0  0  0  0  0  0  0  0
  161.0740  201.5820  147.6130 C   0  0  0  0  0  3  0  0  0  0  0  0
  161.3750  204.3520  149.7170 N   0  0  0  0  0  0  0  0  0  0  0  0
  161.1460  200.9580  150.0020 C   0  0  0  0  0  3  0  0  0  0  0  0
  160.5220  202.2840  150.3540 C   0  0  1  0  0  3  0  0  0  0  0  0
  161.1400  202.9620  151.5280 C   0  0  0  0  0  2  0  0  0  0  0  0
  160.7980  203.2850  149.2820 C   0  0  2  0  0  3  0  0  0  0  0  0
  161.3430  200.6190  148.7160 C   0  0  0  0  0  3  0  0  0  0  0  0
  160.8330  202.8760  147.8740 C   0  0  0  0  0  3  0  0  0  0  0  0
  162.3440  207.5710  150.3020 C   0  0  0  0  0  2  0  0  0  0  0  0
  161.2170  207.5680  149.2850 C   0  0  0  0  0  2  0  0  0  0  0  0
  161.7680  207.1970  147.9250 C   0  0  0  0  0  2  0  0  0  0  0  0
  160.6690  206.5780  147.0890 C   0  0  0  0  0  1  0  0  0  0  0  0
  160.0480  207.8630  155.6630 C   0  0  0  0  0  2  0  0  0  0  0  0
  159.2330  208.9980  155.7210 O   0  0  0  0  0  0  0  0  0  0  0  0
  159.7290  209.7130  156.7160 O   0  0  0  0  0  0  0  0  0  0  0  0
  160.2910  212.0870  156.2160 C   0  0  2  0  0  0  0  0  0  0  0  0
  158.4650  213.4380  155.2070 N   0  0  0  0  0  2  0  0  0  0  0  0
  161.2160  212.1500  157.2610 O   0  0  0  0  0  1  0  0  0  0  0  0
  157.9290  211.1170  155.7770 C   0  0  0  0  0  2  0  0  0  0  0  0
  159.6210  213.4670  156.1070 C   0  0  0  0  0  2  0  0  0  0  0  0
  159.2280  211.0260  156.5860 C   0  0  1  0  0  3  0  0  0  0  0  0
  157.4430  212.5630  155.7770 C   0  0  0  0  0  2  0  0  0  0  0  0
  160.9940  211.7750  155.0330 O   0  0  0  0  0  0  0  0  0  0  0  0
  162.1020  211.1160  155.3560 F   0  0  0  0  0  0  0  0  0  0  0  0
  1  2  1  0  0  0  0
  2 21  1  0  0  0  0
  3  7  1  1  0  0  0
  3  1  1  0  0  0  0
  4  5  2  0  0  0  0
  4  3  1  0  0  0  0
  5  6  1  0  0  0  0
  6  2  2  0  0  0  0
  8 13  1  0  0  0  0
  8  7  1  0  0  0  0
  9 16  2  0  0  0  0
  9 15  1  0  0  0  0
 10  8  2  0  0  0  0
 12 11  1  6  0  0  0
 12 13  1  0  0  0  0
 14 16  1  6  0  0  0
 14 10  1  0  0  0  0
 14 12  1  0  0  0  0
 15 11  2  0  0  0  0
 17  4  1  0  0  0  0
 18 17  1  0  0  0  0
 19 18  1  0  0  0  0
 20 19  1  0  0  0  0
 21 22  1  0  0  0  0
 22 23  1  0  0  0  0
 24 29  1  0  0  0  0
 24 26  1  1  0  0  0
 25 30  1  0  0  0  0
 25 28  1  0  0  0  0
 27 30  1  0  0  0  0
 27 29  1  0  0  0  0
 28 24  1  0  0  0  0
 29 23  1  6  0  0  0
 31 32  1  0  0  0  0
 31 24  1  0  0  0  0
M  END
>  <MODEL>
1

>  <REMARK>
 VINA RESULT:      -8.3      0.000      0.000
  Name = 
  10 active torsions:
  status: ('A' for Active; 'I' for Inactive)
    1  A    between atoms: C_2  and  C_5
    2  A    between atoms: C_2  and  C_6
    3  A    between atoms: C_3  and  O_22
    4  A    between atoms: C_4  and  C_27
    5  A    between atoms: C_13  and  C_29
    6  A    between atoms: C_14  and  C_18
    7  A    between atoms: O_16  and  C_20
    8  A    between atoms: O_16  and  O_24
    9  A    between atoms: C_18  and  C_29
   10  A    between atoms: O_24  and  C_27
                            x       y       z     vdW  Elec       q    Type
                         _______ _______ _______ _____ _____    ______ ____

>  <TORSDO>
F 10

$$$$
=
 OpenBabel11062408313D

 32 35  0  0  1  0  0  0  0  0999 V2000
  161.1930  207.7910  150.4250 C   0  0  0  0  0  2  0  0  0  0  0  0
  160.7710  206.4040  150.0310 C   0  0  0  0  0  0  0  0  0  0  0  0
  160.9600  208.0870  151.9150 C   0  0  1  0  0  3  0  0  0  0  0  0
  161.2750  206.8970  152.7980 C   0  0  0  0  0  0  0  0  0  0  0  0
  161.1280  205.6530  152.3280 C   0  0  0  0  0  3  0  0  0  0  0  0
  160.7950  205.4050  150.9160 C   0  0  0  0  0  3  0  0  0  0  0  0
  161.7830  209.3060  152.3070 C   0  0  0  0  0  2  0  0  0  0  0  0
  160.9580  210.2630  153.0970 C   0  0  0  0  0  0  0  0  0  0  0  0
  157.4520  211.5870  155.3540 C   0  0  0  0  0  3  0  0  0  0  0  0
  159.5980  210.5570  152.7990 N   0  0  0  0  0  0  0  0  0  0  0  0
  159.7890  211.3440  156.1160 C   0  0  0  0  0  3  0  0  0  0  0  0
  160.2630  211.6800  154.7240 C   0  0  1  0  0  3  0  0  0  0  0  0
  161.3740  210.8180  154.2300 C   0  0  0  0  0  2  0  0  0  0  0  0
  159.2010  211.3590  153.7260 C   0  0  2  0  0  3  0  0  0  0  0  0
  158.4770  211.3630  156.4090 C   0  0  0  0  0  3  0  0  0  0  0  0
  157.7860  211.5630  154.0550 C   0  0  0  0  0  3  0  0  0  0  0  0
  161.4980  207.0850  154.2650 C   0  0  0  0  0  2  0  0  0  0  0  0
  160.1720  207.1910  154.9960 C   0  0  0  0  0  2  0  0  0  0  0  0
  160.4270  207.4870  156.4580 C   0  0  0  0  0  2  0  0  0  0  0  0
  161.7680  208.1730  156.6060 C   0  0  0  0  0  1  0  0  0  0  0  0
  160.4610  206.1220  148.6000 C   0  0  0  0  0  2  0  0  0  0  0  0
  161.4990  206.5820  147.7830 O   0  0  0  0  0  0  0  0  0  0  0  0
  162.2960  205.5380  147.6390 O   0  0  0  0  0  0  0  0  0  0  0  0
  161.6410  204.2160  145.6320 C   0  0  2  0  0  0  0  0  0  0  0  0
  160.9980  201.8540  146.0610 N   0  0  0  0  0  2  0  0  0  0  0  0
  161.1690  205.3490  144.9650 O   0  0  0  0  0  1  0  0  0  0  0  0
  161.5800  203.2060  148.0170 C   0  0  0  0  0  2  0  0  0  0  0  0
  160.7410  203.0340  145.2310 C   0  0  0  0  0  2  0  0  0  0  0  0
  161.5110  204.4700  147.1530 C   0  0  1  0  0  3  0  0  0  0  0  0
  160.6330  202.1570  147.4430 C   0  0  0  0  0  2  0  0  0  0  0  0
  162.9720  203.9950  145.2200 O   0  0  0  0  0  0  0  0  0  0  0  0
  163.7760  204.7710  145.9400 F   0  0  0  0  0  0  0  0  0  0  0  0
  1  3  1  0  0  0  0
  2  1  1  0  0  0  0
  2  6  2  0  0  0  0
  3  7  1  1  0  0  0
  3  4  1  0  0  0  0
  4 17  1  0  0  0  0
  5  4  2  0  0  0  0
  6  5  1  0  0  0  0
  7  8  1  0  0  0  0
  8 13  1  0  0  0  0
  9 15  1  0  0  0  0
 10  8  2  0  0  0  0
 10 14  1  0  0  0  0
 11 15  2  0  0  0  0
 12 13  1  6  0  0  0
 12 11  1  0  0  0  0
 14 16  1  1  0  0  0
 14 12  1  0  0  0  0
 16  9  2  0  0  0  0
 17 18  1  0  0  0  0
 18 19  1  0  0  0  0
 19 20  1  0  0  0  0
 21  2  1  0  0  0  0
 22 21  1  0  0  0  0
 23 22  1  0  0  0  0
 24 26  1  6  0  0  0
 24 29  1  0  0  0  0
 25 30  1  0  0  0  0
 28 24  1  0  0  0  0
 28 25  1  0  0  0  0
 29 23  1  1  0  0  0
 29 27  1  0  0  0  0
 30 27  1  0  0  0  0
 31 24  1  0  0  0  0
 31 32  1  0  0  0  0
M  END
>  <MODEL>
2

>  <REMARK>
 VINA RESULT:      -8.2      4.562      9.844
  Name = 
  10 active torsions:
  status: ('A' for Active; 'I' for Inactive)
    1  A    between atoms: C_2  and  C_5
    2  A    between atoms: C_2  and  C_6
    3  A    between atoms: C_3  and  O_22
    4  A    between atoms: C_4  and  C_27
    5  A    between atoms: C_13  and  C_29
    6  A    between atoms: C_14  and  C_18
    7  A    between atoms: O_16  and  C_20
    8  A    between atoms: O_16  and  O_24
    9  A    between atoms: C_18  and  C_29
   10  A    between atoms: O_24  and  C_27
                            x       y       z     vdW  Elec       q    Type
                         _______ _______ _______ _____ _____    ______ ____

>  <TORSDO>
F 10

$$$$
=
 OpenBabel11062408313D

 32 35  0  0  1  0  0  0  0  0999 V2000
  161.1940  206.9280  153.8130 C   0  0  0  0  0  2  0  0  0  0  0  0
  160.7270  208.3230  154.1200 C   0  0  0  0  0  0  0  0  0  0  0  0
  161.3580  206.6720  152.3060 C   0  0  1  0  0  3  0  0  0  0  0  0
  161.9370  207.8660  151.5740 C   0  0  0  0  0  0  0  0  0  0  0  0
  161.7090  209.1050  152.0250 C   0  0  0  0  0  3  0  0  0  0  0  0
  161.0180  209.3370  153.3040 C   0  0  0  0  0  3  0  0  0  0  0  0
  162.2180  205.4290  152.1120 C   0  0  0  0  0  2  0  0  0  0  0  0
  161.5210  204.4430  151.2400 C   0  0  0  0  0  0  0  0  0  0  0  0
  161.1250  201.6700  147.8790 C   0  0  0  0  0  3  0  0  0  0  0  0
  161.4650  204.5510  149.8210 N   0  0  0  0  0  0  0  0  0  0  0  0
  160.9880  201.2050  150.3010 C   0  0  0  0  0  3  0  0  0  0  0  0
  160.4310  202.5880  150.5210 C   0  0  1  0  0  3  0  0  0  0  0  0
  161.0110  203.3030  151.6940 C   0  0  0  0  0  2  0  0  0  0  0  0
  160.8490  203.4960  149.4120 C   0  0  2  0  0  3  0  0  0  0  0  0
  161.2510  200.7680  149.0570 C   0  0  0  0  0  3  0  0  0  0  0  0
  160.9550  202.9900  148.0390 C   0  0  0  0  0  3  0  0  0  0  0  0
  162.5380  207.6990  150.2160 C   0  0  0  0  0  2  0  0  0  0  0  0
  161.4840  207.8870  149.1400 C   0  0  0  0  0  2  0  0  0  0  0  0
  162.0130  207.3640  147.8220 C   0  0  0  0  0  2  0  0  0  0  0  0
  160.9270  206.5750  147.1220 C   0  0  0  0  0  1  0  0  0  0  0  0
  160.0530  208.5870  155.4240 C   0  0  0  0  0  2  0  0  0  0  0  0
  159.9520  209.9650  155.6430 O   0  0  0  0  0  0  0  0  0  0  0  0
  158.6640  210.1750  155.8490 O   0  0  0  0  0  0  0  0  0  0  0  0
  156.8330  211.7590  155.2620 C   0  0  2  0  0  0  0  0  0  0  0  0
  157.5580  213.9390  154.3140 N   0  0  0  0  0  2  0  0  0  0  0  0
  155.9390  210.7200  154.9940 O   0  0  0  0  0  1  0  0  0  0  0  0
  159.3250  212.3270  154.8380 C   0  0  0  0  0  2  0  0  0  0  0  0
  156.5230  212.9020  154.2810 C   0  0  0  0  0  2  0  0  0  0  0  0
  158.2650  211.2330  155.0040 C   0  0  1  0  0  3  0  0  0  0  0  0
  158.8180  213.3660  153.8430 C   0  0  0  0  0  2  0  0  0  0  0  0
  156.6290  212.1720  156.5960 O   0  0  0  0  0  0  0  0  0  0  0  0
  155.3430  212.0260  156.8960 F   0  0  0  0  0  0  0  0  0  0  0  0
  1  2  1  0  0  0  0
  2 21  1  0  0  0  0
  3  7  1  1  0  0  0
  3  1  1  0  0  0  0
  4  5  2  0  0  0  0
  4  3  1  0  0  0  0
  5  6  1  0  0  0  0
  6  2  2  0  0  0  0
  8 13  1  0  0  0  0
  8  7  1  0  0  0  0
  9 16  2  0  0  0  0
  9 15  1  0  0  0  0
 10  8  2  0  0  0  0
 12 11  1  6  0  0  0
 12 13  1  0  0  0  0
 14 16  1  6  0  0  0
 14 10  1  0  0  0  0
 14 12  1  0  0  0  0
 15 11  2  0  0  0  0
 17  4  1  0  0  0  0
 18 17  1  0  0  0  0
 19 18  1  0  0  0  0
 20 19  1  0  0  0  0
 21 22  1  0  0  0  0
 22 23  1  0  0  0  0
 24 26  1  6  0  0  0
 24 31  1  0  0  0  0
 27 29  1  0  0  0  0
 28 25  1  0  0  0  0
 28 24  1  0  0  0  0
 29 24  1  0  0  0  0
 29 23  1  1  0  0  0
 30 25  1  0  0  0  0
 30 27  1  0  0  0  0
 31 32  1  0  0  0  0
M  END
>  <MODEL>
3

>  <REMARK>
 VINA RESULT:      -8.2      1.778      2.199
  Name = 
  10 active torsions:
  status: ('A' for Active; 'I' for Inactive)
    1  A    between atoms: C_2  and  C_5
    2  A    between atoms: C_2  and  C_6
    3  A    between atoms: C_3  and  O_22
    4  A    between atoms: C_4  and  C_27
    5  A    between atoms: C_13  and  C_29
    6  A    between atoms: C_14  and  C_18
    7  A    between atoms: O_16  and  C_20
    8  A    between atoms: O_16  and  O_24
    9  A    between atoms: C_18  and  C_29
   10  A    between atoms: O_24  and  C_27
                            x       y       z     vdW  Elec       q    Type
                         _______ _______ _______ _____ _____    ______ ____

>  <TORSDO>
F 10

$$$$
=
 OpenBabel11062408313D

 32 35  0  0  1  0  0  0  0  0999 V2000
  161.2120  207.6130  150.9190 C   0  0  0  0  0  2  0  0  0  0  0  0
  160.8690  206.1660  150.7050 C   0  0  0  0  0  0  0  0  0  0  0  0
  160.9260  208.0900  152.3520 C   0  0  1  0  0  3  0  0  0  0  0  0
  161.2760  207.0450  153.3910 C   0  0  0  0  0  0  0  0  0  0  0  0
  161.2020  205.7440  153.0870 C   0  0  0  0  0  3  0  0  0  0  0  0
  160.9180  205.2960  151.7150 C   0  0  0  0  0  3  0  0  0  0  0  0
  161.6790  209.3920  152.5940 C   0  0  0  0  0  2  0  0  0  0  0  0
  160.8180  210.3660  153.3220 C   0  0  0  0  0  0  0  0  0  0  0  0
  157.1690  211.7820  155.2760 C   0  0  0  0  0  3  0  0  0  0  0  0
  159.5010  210.7110  152.9080 N   0  0  0  0  0  0  0  0  0  0  0  0
  159.4180  211.4480  156.2410 C   0  0  0  0  0  3  0  0  0  0  0  0
  160.0270  211.7850  154.9030 C   0  0  1  0  0  3  0  0  0  0  0  0
  161.1480  210.8910  154.4970 C   0  0  0  0  0  2  0  0  0  0  0  0
  159.0490  211.5150  153.8080 C   0  0  2  0  0  3  0  0  0  0  0  0
  158.0870  211.5090  156.4160 C   0  0  0  0  0  3  0  0  0  0  0  0
  157.6180  211.7640  154.0130 C   0  0  0  0  0  3  0  0  0  0  0  0
  161.4520  207.4360  154.8240 C   0  0  0  0  0  2  0  0  0  0  0  0
  160.1300  207.3540  155.5640 C   0  0  0  0  0  2  0  0  0  0  0  0
  160.3690  207.5590  157.0450 C   0  0  0  0  0  2  0  0  0  0  0  0
  161.5640  208.4670  157.2400 C   0  0  0  0  0  1  0  0  0  0  0  0
  160.6090  205.6830  149.3180 C   0  0  0  0  0  2  0  0  0  0  0  0
  161.7360  205.0200  148.8210 O   0  0  0  0  0  0  0  0  0  0  0  0
  161.4880  203.7390  149.0320 O   0  0  0  0  0  0  0  0  0  0  0  0
  160.8410  201.6990  147.7590 C   0  0  2  0  0  0  0  0  0  0  0  0
  160.4510  202.0260  145.3260 N   0  0  0  0  0  2  0  0  0  0  0  0
  161.5460  200.8610  148.6260 O   0  0  0  0  0  1  0  0  0  0  0  0
  161.1570  203.9950  146.6000 C   0  0  0  0  0  2  0  0  0  0  0  0
  160.9470  201.0990  146.3460 C   0  0  0  0  0  2  0  0  0  0  0  0
  161.5220  203.0880  147.7810 C   0  0  1  0  0  3  0  0  0  0  0  0
  161.3100  203.2080  145.3020 C   0  0  0  0  0  2  0  0  0  0  0  0
  159.4970  201.7360  148.1890 O   0  0  0  0  0  0  0  0  0  0  0  0
  159.4610  201.5000  149.4960 F   0  0  0  0  0  0  0  0  0  0  0  0
  1  3  1  0  0  0  0
  2  1  1  0  0  0  0
  2  6  2  0  0  0  0
  3  7  1  1  0  0  0
  3  4  1  0  0  0  0
  4 17  1  0  0  0  0
  5  4  2  0  0  0  0
  6  5  1  0  0  0  0
  7  8  1  0  0  0  0
  8 13  1  0  0  0  0
  9 15  1  0  0  0  0
 10  8  2  0  0  0  0
 10 14  1  0  0  0  0
 11 15  2  0  0  0  0
 12 13  1  6  0  0  0
 12 11  1  0  0  0  0
 14 16  1  1  0  0  0
 14 12  1  0  0  0  0
 16  9  2  0  0  0  0
 17 18  1  0  0  0  0
 18 19  1  0  0  0  0
 19 20  1  0  0  0  0
 21  2  1  0  0  0  0
 22 23  1  0  0  0  0
 22 21  1  0  0  0  0
 24 29  1  0  0  0  0
 24 31  1  0  0  0  0
 24 26  1  1  0  0  0
 25 28  1  0  0  0  0
 27 29  1  0  0  0  0
 28 24  1  0  0  0  0
 29 23  1  1  0  0  0
 30 25  1  0  0  0  0
 30 27  1  0  0  0  0
 31 32  1  0  0  0  0
M  END
>  <MODEL>
4

>  <REMARK>
 VINA RESULT:      -7.8      4.348     10.021
  Name = 
  10 active torsions:
  status: ('A' for Active; 'I' for Inactive)
    1  A    between atoms: C_2  and  C_5
    2  A    between atoms: C_2  and  C_6
    3  A    between atoms: C_3  and  O_22
    4  A    between atoms: C_4  and  C_27
    5  A    between atoms: C_13  and  C_29
    6  A    between atoms: C_14  and  C_18
    7  A    between atoms: O_16  and  C_20
    8  A    between atoms: O_16  and  O_24
    9  A    between atoms: C_18  and  C_29
   10  A    between atoms: O_24  and  C_27
                            x       y       z     vdW  Elec       q    Type
                         _______ _______ _______ _____ _____    ______ ____

>  <TORSDO>
F 10

$$$$
=
 OpenBabel11062408313D

 32 35  0  0  1  0  0  0  0  0999 V2000
  161.2140  207.5890  151.2520 C   0  0  0  0  0  2  0  0  0  0  0  0
  160.9480  206.1160  151.1300 C   0  0  0  0  0  0  0  0  0  0  0  0
  160.8790  208.1450  152.6450 C   0  0  1  0  0  3  0  0  0  0  0  0
  161.2640  207.1900  153.7570 C   0  0  0  0  0  0  0  0  0  0  0  0
  161.2600  205.8700  153.5400 C   0  0  0  0  0  3  0  0  0  0  0  0
  161.0240  205.3170  152.1970 C   0  0  0  0  0  3  0  0  0  0  0  0
  161.5610  209.4970  152.8110 C   0  0  0  0  0  2  0  0  0  0  0  0
  160.5990  210.5070  153.3340 C   0  0  0  0  0  0  0  0  0  0  0  0
  157.0870  211.9030  155.5370 C   0  0  0  0  0  3  0  0  0  0  0  0
  159.1870  210.3930  153.1920 N   0  0  0  0  0  0  0  0  0  0  0  0
  159.4690  212.4330  155.9150 C   0  0  0  0  0  3  0  0  0  0  0  0
  159.7230  212.2840  154.4360 C   0  0  1  0  0  3  0  0  0  0  0  0
  160.9630  211.5290  154.1000 C   0  0  0  0  0  2  0  0  0  0  0  0
  158.6880  211.4000  153.8220 C   0  0  2  0  0  3  0  0  0  0  0  0
  158.2240  212.3120  156.4060 C   0  0  0  0  0  3  0  0  0  0  0  0
  157.3010  211.4400  154.2970 C   0  0  0  0  0  3  0  0  0  0  0  0
  161.3940  207.6830  155.1620 C   0  0  0  0  0  2  0  0  0  0  0  0
  160.0330  207.7560  155.8300 C   0  0  0  0  0  2  0  0  0  0  0  0
  159.9800  208.9710  156.7320 C   0  0  0  0  0  2  0  0  0  0  0  0
  161.3890  209.4160  157.0590 C   0  0  0  0  0  1  0  0  0  0  0  0
  160.7370  205.5290  149.7760 C   0  0  0  0  0  2  0  0  0  0  0  0
  160.9030  206.5120  148.7940 O   0  0  0  0  0  0  0  0  0  0  0  0
  162.0610  206.2250  148.2280 O   0  0  0  0  0  0  0  0  0  0  0  0
  162.1950  204.5590  146.3820 C   0  0  2  0  0  0  0  0  0  0  0  0
  160.5010  204.8090  144.5800 N   0  0  0  0  0  2  0  0  0  0  0  0
  163.5740  204.4060  146.5400 O   0  0  0  0  0  1  0  0  0  0  0  0
  160.4470  206.4720  146.3780 C   0  0  0  0  0  2  0  0  0  0  0  0
  161.8820  204.4230  144.8820 C   0  0  0  0  0  2  0  0  0  0  0  0
  161.8160  205.9810  146.8600 C   0  0  1  0  0  3  0  0  0  0  0  0
  160.3320  206.2310  144.8760 C   0  0  0  0  0  2  0  0  0  0  0  0
  161.5580  203.5400  147.1220 O   0  0  0  0  0  0  0  0  0  0  0  0
  162.2970  203.2640  148.1910 F   0  0  0  0  0  0  0  0  0  0  0  0
  1  3  1  0  0  0  0
  2  1  1  0  0  0  0
  2  6  2  0  0  0  0
  3  7  1  1  0  0  0
  3  4  1  0  0  0  0
  4 17  1  0  0  0  0
  5  4  2  0  0  0  0
  6  5  1  0  0  0  0
  7  8  1  0  0  0  0
  8 13  1  0  0  0  0
  9 15  1  0  0  0  0
 10  8  2  0  0  0  0
 10 14  1  0  0  0  0
 11 15  2  0  0  0  0
 12 13  1  1  0  0  0
 12 11  1  0  0  0  0
 14 16  1  1  0  0  0
 14 12  1  0  0  0  0
 16  9  2  0  0  0  0
 17 18  1  0  0  0  0
 18 19  1  0  0  0  0
 19 20  1  0  0  0  0
 21  2  1  0  0  0  0
 22 21  1  0  0  0  0
 23 22  1  0  0  0  0
 24 26  1  1  0  0  0
 24 29  1  0  0  0  0
 24 31  1  0  0  0  0
 25 30  1  0  0  0  0
 25 28  1  0  0  0  0
 27 29  1  0  0  0  0
 28 24  1  0  0  0  0
 29 23  1  1  0  0  0
 30 27  1  0  0  0  0
 31 32  1  0  0  0  0
M  END
>  <MODEL>
5

>  <REMARK>
 VINA RESULT:      -7.7      4.270      9.671
  Name = 
  10 active torsions:
  status: ('A' for Active; 'I' for Inactive)
    1  A    between atoms: C_2  and  C_5
    2  A    between atoms: C_2  and  C_6
    3  A    between atoms: C_3  and  O_22
    4  A    between atoms: C_4  and  C_27
    5  A    between atoms: C_13  and  C_29
    6  A    between atoms: C_14  and  C_18
    7  A    between atoms: O_16  and  C_20
    8  A    between atoms: O_16  and  O_24
    9  A    between atoms: C_18  and  C_29
   10  A    between atoms: O_24  and  C_27
                            x       y       z     vdW  Elec       q    Type
                         _______ _______ _______ _____ _____    ______ ____

>  <TORSDO>
F 10

$$$$
=
 OpenBabel11062408313D

 32 35  0  0  1  0  0  0  0  0999 V2000
  161.0120  207.3930  151.1130 C   0  0  0  0  0  2  0  0  0  0  0  0
  161.5200  207.9910  152.3940 C   0  0  0  0  0  0  0  0  0  0  0  0
  161.2540  205.8770  151.0230 C   0  0  1  0  0  3  0  0  0  0  0  0
  161.0370  205.1770  152.3490 C   0  0  0  0  0  0  0  0  0  0  0  0
  161.2600  205.8270  153.4970 C   0  0  0  0  0  3  0  0  0  0  0  0
  161.5810  207.2630  153.5110 C   0  0  0  0  0  3  0  0  0  0  0  0
  160.3570  205.3020  149.9350 C   0  0  0  0  0  2  0  0  0  0  0  0
  160.9280  205.5760  148.5870 C   0  0  0  0  0  0  0  0  0  0  0  0
  162.1800  204.5980  144.5100 C   0  0  0  0  0  3  0  0  0  0  0  0
  161.9460  204.7800  147.9890 N   0  0  0  0  0  2  0  0  0  0  0  0
  160.4610  206.2040  145.2640 C   0  0  0  0  0  3  0  0  0  0  0  0
  161.2600  206.4480  146.5200 C   0  0  1  0  0  3  0  0  0  0  0  0
  160.4430  206.5000  147.7660 C   0  0  0  0  0  3  0  0  0  0  0  0
  162.1320  205.2730  146.8130 C   0  0  2  0  0  3  0  0  0  0  0  0
  160.9320  205.3840  144.3090 C   0  0  0  0  0  3  0  0  0  0  0  0
  162.7540  204.5180  145.7200 C   0  0  0  0  0  3  0  0  0  0  0  0
  160.8300  203.6970  152.3940 C   0  0  0  0  0  2  0  0  0  0  0  0
  161.7730  202.9970  151.4310 C   0  0  0  0  0  2  0  0  0  0  0  0
  161.1430  201.7040  150.9610 C   0  0  0  0  0  2  0  0  0  0  0  0
  160.8320  201.8030  149.4830 C   0  0  0  0  0  1  0  0  0  0  0  0
  161.8210  209.4500  152.4400 C   0  0  0  0  0  2  0  0  0  0  0  0
  161.6010  209.9470  153.7300 O   0  0  0  0  0  0  0  0  0  0  0  0
  160.8460  211.0150  153.5500 O   0  0  0  0  0  0  0  0  0  0  0  0
  159.0120  212.2020  154.7470 C   0  0  2  0  0  0  0  0  0  0  0  0
  158.4690  211.3380  157.0130 N   0  0  0  0  0  2  0  0  0  0  0  0
  159.2900  213.4080  154.1010 O   0  0  0  0  0  1  0  0  0  0  0  0
  160.3140  210.2420  155.8320 C   0  0  0  0  0  2  0  0  0  0  0  0
  158.5500  212.5370  156.1760 C   0  0  0  0  0  2  0  0  0  0  0  0
  160.3230  211.3820  154.8090 C   0  0  1  0  0  3  0  0  0  0  0  0
  159.8100  210.7770  157.1690 C   0  0  0  0  0  2  0  0  0  0  0  0
  157.9870  211.5510  154.0280 O   0  0  0  0  0  0  0  0  0  0  0  0
  157.4650  212.4090  153.1590 F   0  0  0  0  0  0  0  0  0  0  0  0
  1  2  1  0  0  0  0
  2 21  1  0  0  0  0
  2  6  2  0  0  0  0
  3  7  1  6  0  0  0
  3  1  1  0  0  0  0
  3  4  1  0  0  0  0
  4 17  1  0  0  0  0
  4  5  2  0  0  0  0
  5  6  1  0  0  0  0
  8  7  1  0  0  0  0
  9 16  2  0  0  0  0
 10  8  1  0  0  0  0
 12 11  1  6  0  0  0
 12 14  1  0  0  0  0
 12 13  1  0  0  0  0
 13  8  2  0  0  0  0
 14 16  1  6  0  0  0
 14 10  1  0  0  0  0
 15  9  1  0  0  0  0
 15 11  2  0  0  0  0
 18 17  1  0  0  0  0
 19 18  1  0  0  0  0
 20 19  1  0  0  0  0
 21 22  1  0  0  0  0
 23 22  1  0  0  0  0
 24 26  1  6  0  0  0
 24 29  1  0  0  0  0
 24 28  1  0  0  0  0
 25 30  1  0  0  0  0
 27 30  1  0  0  0  0
 28 25  1  0  0  0  0
 29 23  1  6  0  0  0
 29 27  1  0  0  0  0
 31 24  1  0  0  0  0
 32 31  1  0  0  0  0
M  END
>  <MODEL>
6

>  <REMARK>
 VINA RESULT:      -7.6      2.045      3.930
  Name = 
  10 active torsions:
  status: ('A' for Active; 'I' for Inactive)
    1  A    between atoms: C_2  and  C_5
    2  A    between atoms: C_2  and  C_6
    3  A    between atoms: C_3  and  O_22
    4  A    between atoms: C_4  and  C_27
    5  A    between atoms: C_13  and  C_29
    6  A    between atoms: C_14  and  C_18
    7  A    between atoms: O_16  and  C_20
    8  A    between atoms: O_16  and  O_24
    9  A    between atoms: C_18  and  C_29
   10  A    between atoms: O_24  and  C_27
                            x       y       z     vdW  Elec       q    Type
                         _______ _______ _______ _____ _____    ______ ____

>  <TORSDO>
F 10

$$$$
=
 OpenBabel11062408313D

 32 35  0  0  1  0  0  0  0  0999 V2000
  160.9160  206.9700  151.1750 C   0  0  0  0  0  2  0  0  0  0  0  0
  161.3690  207.5490  152.4860 C   0  0  0  0  0  0  0  0  0  0  0  0
  161.2190  205.4680  151.0490 C   0  0  1  0  0  3  0  0  0  0  0  0
  160.9980  204.7210  152.3490 C   0  0  0  0  0  0  0  0  0  0  0  0
  161.1670  205.3450  153.5200 C   0  0  0  0  0  3  0  0  0  0  0  0
  161.4310  206.7920  153.5830 C   0  0  0  0  0  3  0  0  0  0  0  0
  160.3720  204.8900  149.9230 C   0  0  0  0  0  2  0  0  0  0  0  0
  160.9360  205.2690  148.5970 C   0  0  0  0  0  0  0  0  0  0  0  0
  162.1280  204.6230  144.4370 C   0  0  0  0  0  3  0  0  0  0  0  0
  161.9310  204.5080  147.9220 N   0  0  0  0  0  2  0  0  0  0  0  0
  160.4510  206.1920  145.3470 C   0  0  0  0  0  3  0  0  0  0  0  0
  161.2660  206.3100  146.6100 C   0  0  1  0  0  3  0  0  0  0  0  0
  160.4630  206.2710  147.8650 C   0  0  0  0  0  3  0  0  0  0  0  0
  162.1170  205.0960  146.7900 C   0  0  2  0  0  3  0  0  0  0  0  0
  160.8950  205.4490  144.3190 C   0  0  0  0  0  3  0  0  0  0  0  0
  162.7120  204.4270  145.6290 C   0  0  0  0  0  3  0  0  0  0  0  0
  160.8480  203.2330  152.3460 C   0  0  0  0  0  2  0  0  0  0  0  0
  161.6000  202.6240  151.1780 C   0  0  0  0  0  2  0  0  0  0  0  0
  160.8550  201.4030  150.6820 C   0  0  0  0  0  2  0  0  0  0  0  0
  160.9670  201.3240  149.1740 C   0  0  0  0  0  1  0  0  0  0  0  0
  161.6120  209.0170  152.5810 C   0  0  0  0  0  2  0  0  0  0  0  0
  161.5270  209.4340  153.9140 O   0  0  0  0  0  0  0  0  0  0  0  0
  161.5470  210.7530  153.8510 O   0  0  0  0  0  0  0  0  0  0  0  0
  159.4360  211.5290  154.9220 C   0  0  2  0  0  0  0  0  0  0  0  0
  158.0360  213.0630  153.5580 N   0  0  0  0  0  2  0  0  0  0  0  0
  159.3190  210.3590  155.6760 O   0  0  0  0  0  1  0  0  0  0  0  0
  160.0850  212.2230  152.5120 C   0  0  0  0  0  2  0  0  0  0  0  0
  158.0160  211.9850  154.5510 C   0  0  0  0  0  2  0  0  0  0  0  0
  160.2220  211.1880  153.6340 C   0  0  1  0  0  3  0  0  0  0  0  0
  158.6080  212.5510  152.3140 C   0  0  0  0  0  2  0  0  0  0  0  0
  160.0810  212.4960  155.7220 O   0  0  0  0  0  0  0  0  0  0  0  0
  160.7900  211.8730  156.6570 F   0  0  0  0  0  0  0  0  0  0  0  0
  1  2  1  0  0  0  0
  2 21  1  0  0  0  0
  2  6  2  0  0  0  0
  3  7  1  6  0  0  0
  3  1  1  0  0  0  0
  3  4  1  0  0  0  0
  4  5  2  0  0  0  0
  5  6  1  0  0  0  0
  8  7  1  0  0  0  0
  9 16  2  0  0  0  0
 10  8  1  0  0  0  0
 12 11  1  6  0  0  0
 12 14  1  0  0  0  0
 12 13  1  0  0  0  0
 13  8  2  0  0  0  0
 14 16  1  6  0  0  0
 14 10  1  0  0  0  0
 15  9  1  0  0  0  0
 15 11  2  0  0  0  0
 17  4  1  0  0  0  0
 18 17  1  0  0  0  0
 19 18  1  0  0  0  0
 20 19  1  0  0  0  0
 21 22  1  0  0  0  0
 23 22  1  0  0  0  0
 24 26  1  1  0  0  0
 24 31  1  0  0  0  0
 25 28  1  0  0  0  0
 27 29  1  0  0  0  0
 28 24  1  0  0  0  0
 29 23  1  1  0  0  0
 29 24  1  0  0  0  0
 30 27  1  0  0  0  0
 30 25  1  0  0  0  0
 31 32  1  0  0  0  0
M  END
>  <MODEL>
7

>  <REMARK>
 VINA RESULT:      -7.6      1.943      3.877
  Name = 
  10 active torsions:
  status: ('A' for Active; 'I' for Inactive)
    1  A    between atoms: C_2  and  C_5
    2  A    between atoms: C_2  and  C_6
    3  A    between atoms: C_3  and  O_22
    4  A    between atoms: C_4  and  C_27
    5  A    between atoms: C_13  and  C_29
    6  A    between atoms: C_14  and  C_18
    7  A    between atoms: O_16  and  C_20
    8  A    between atoms: O_16  and  O_24
    9  A    between atoms: C_18  and  C_29
   10  A    between atoms: O_24  and  C_27
                            x       y       z     vdW  Elec       q    Type
                         _______ _______ _______ _____ _____    ______ ____

>  <TORSDO>
F 10

$$$$
=
 OpenBabel11062408313D

 32 35  0  0  1  0  0  0  0  0999 V2000
  161.3200  208.5960  149.2660 C   0  0  0  0  0  2  0  0  0  0  0  0
  162.0720  209.7780  149.8100 C   0  0  0  0  0  0  0  0  0  0  0  0
  161.5580  207.3120  150.0750 C   0  0  1  0  0  3  0  0  0  0  0  0
  161.6270  207.5710  151.5670 C   0  0  0  0  0  0  0  0  0  0  0  0
  162.0720  208.7470  152.0240 C   0  0  0  0  0  3  0  0  0  0  0  0
  162.3700  209.8590  151.1080 C   0  0  0  0  0  3  0  0  0  0  0  0
  160.4650  206.3080  149.7340 C   0  0  0  0  0  2  0  0  0  0  0  0
  161.0130  205.2010  148.9000 C   0  0  0  0  0  0  0  0  0  0  0  0
  160.8620  201.4540  146.6470 C   0  0  0  0  0  3  0  0  0  0  0  0
  160.8370  203.8240  149.2120 N   0  0  0  0  0  2  0  0  0  0  0  0
  161.3900  203.7290  145.8440 C   0  0  0  0  0  3  0  0  0  0  0  0
  161.9730  204.0560  147.1950 C   0  0  1  0  0  3  0  0  0  0  0  0
  161.5900  205.3980  147.7210 C   0  0  0  0  0  3  0  0  0  0  0  0
  161.3800  203.1720  148.2410 C   0  0  2  0  0  3  0  0  0  0  0  0
  160.9300  202.4940  145.5830 C   0  0  0  0  0  3  0  0  0  0  0  0
  161.0540  201.7750  147.9350 C   0  0  0  0  0  3  0  0  0  0  0  0
  161.4540  206.4460  152.5360 C   0  0  0  0  0  2  0  0  0  0  0  0
  160.4500  206.8190  153.6110 C   0  0  0  0  0  2  0  0  0  0  0  0
  161.1870  207.2010  154.8770 C   0  0  0  0  0  2  0  0  0  0  0  0
  160.2000  207.3090  156.0200 C   0  0  0  0  0  1  0  0  0  0  0  0
  162.3570  210.9300  148.9070 C   0  0  0  0  0  2  0  0  0  0  0  0
  161.3960  210.9960  147.8920 O   0  0  0  0  0  0  0  0  0  0  0  0
  161.0810  212.2760  147.8160 O   0  0  0  0  0  0  0  0  0  0  0  0
  159.8390  213.2800  145.9040 C   0  0  2  0  0  0  0  0  0  0  0  0
  161.2320  214.4510  144.2100 N   0  0  0  0  0  2  0  0  0  0  0  0
  158.8280  212.3200  145.9790 O   0  0  0  0  0  1  0  0  0  0  0  0
  162.4230  213.3890  146.0680 C   0  0  0  0  0  2  0  0  0  0  0  0
  160.0320  213.6360  144.4200 C   0  0  0  0  0  2  0  0  0  0  0  0
  161.1390  212.6470  146.4550 C   0  0  1  0  0  3  0  0  0  0  0  0
  162.4090  213.6610  144.5670 C   0  0  0  0  0  2  0  0  0  0  0  0
  159.4200  214.4090  146.6400 O   0  0  0  0  0  0  0  0  0  0  0  0
  158.1730  214.2110  147.0530 F   0  0  0  0  0  0  0  0  0  0  0  0
  1  2  1  0  0  0  0
  1  3  1  0  0  0  0
  2  6  2  0  0  0  0
  3  7  1  1  0  0  0
  3  4  1  0  0  0  0
  4  5  2  0  0  0  0
  4 17  1  0  0  0  0
  6  5  1  0  0  0  0
  8 10  1  0  0  0  0
  8  7  1  0  0  0  0
  9 16  2  0  0  0  0
 12 11  1  6  0  0  0
 12 13  1  0  0  0  0
 12 14  1  0  0  0  0
 13  8  2  0  0  0  0
 14 16  1  6  0  0  0
 14 10  1  0  0  0  0
 15 11  2  0  0  0  0
 15  9  1  0  0  0  0
 17 18  1  0  0  0  0
 18 19  1  0  0  0  0
 19 20  1  0  0  0  0
 21  2  1  0  0  0  0
 22 21  1  0  0  0  0
 23 22  1  0  0  0  0
 24 26  1  1  0  0  0
 24 29  1  0  0  0  0
 24 31  1  0  0  0  0
 25 28  1  0  0  0  0
 25 30  1  0  0  0  0
 27 29  1  0  0  0  0
 28 24  1  0  0  0  0
 29 23  1  1  0  0  0
 30 27  1  0  0  0  0
 31 32  1  0  0  0  0
M  END
>  <MODEL>
8

>  <REMARK>
 VINA RESULT:      -7.3      4.919      7.068
  Name = 
  10 active torsions:
  status: ('A' for Active; 'I' for Inactive)
    1  A    between atoms: C_2  and  C_5
    2  A    between atoms: C_2  and  C_6
    3  A    between atoms: C_3  and  O_22
    4  A    between atoms: C_4  and  C_27
    5  A    between atoms: C_13  and  C_29
    6  A    between atoms: C_14  and  C_18
    7  A    between atoms: O_16  and  C_20
    8  A    between atoms: O_16  and  O_24
    9  A    between atoms: C_18  and  C_29
   10  A    between atoms: O_24  and  C_27
                            x       y       z     vdW  Elec       q    Type
                         _______ _______ _______ _____ _____    ______ ____

>  <TORSDO>
F 10

$$$$
=
 OpenBabel11062408313D

 32 35  0  0  1  0  0  0  0  0999 V2000
  161.4160  207.9050  149.3540 C   0  0  0  0  0  2  0  0  0  0  0  0
  162.0250  209.2320  149.7050 C   0  0  0  0  0  0  0  0  0  0  0  0
  161.4890  206.8900  150.5050 C   0  0  1  0  0  3  0  0  0  0  0  0
  161.2390  207.5270  151.8570 C   0  0  0  0  0  0  0  0  0  0  0  0
  161.5660  208.8070  152.0660 C   0  0  0  0  0  3  0  0  0  0  0  0
  162.0420  209.6640  150.9680 C   0  0  0  0  0  3  0  0  0  0  0  0
  160.5020  205.7630  150.2290 C   0  0  0  0  0  2  0  0  0  0  0  0
  161.0280  204.8540  149.1730 C   0  0  0  0  0  0  0  0  0  0  0  0
  160.8170  201.6550  146.1960 C   0  0  0  0  0  3  0  0  0  0  0  0
  160.8530  203.4410  149.1960 N   0  0  0  0  0  2  0  0  0  0  0  0
  161.3390  204.0470  145.8710 C   0  0  0  0  0  3  0  0  0  0  0  0
  161.9500  204.0870  147.2490 C   0  0  1  0  0  3  0  0  0  0  0  0
  161.5830  205.2900  148.0480 C   0  0  0  0  0  3  0  0  0  0  0  0
  161.3740  203.0050  148.1010 C   0  0  2  0  0  3  0  0  0  0  0  0
  160.8680  202.8920  145.3700 C   0  0  0  0  0  3  0  0  0  0  0  0
  161.0360  201.7010  147.5190 C   0  0  0  0  0  3  0  0  0  0  0  0
  160.8740  206.6800  153.0340 C   0  0  0  0  0  2  0  0  0  0  0  0
  161.4630  207.2580  154.3080 C   0  0  0  0  0  2  0  0  0  0  0  0
  160.3500  207.8240  155.1640 C   0  0  0  0  0  2  0  0  0  0  0  0
  160.1820  206.9680  156.4010 C   0  0  0  0  0  1  0  0  0  0  0  0
  162.4840  210.1300  148.6070 C   0  0  0  0  0  2  0  0  0  0  0  0
  161.7050  211.2910  148.5760 O   0  0  0  0  0  0  0  0  0  0  0  0
  161.1240  211.2700  147.3900 O   0  0  0  0  0  0  0  0  0  0  0  0
  160.3500  212.9770  145.7490 C   0  0  2  0  0  0  0  0  0  0  0  0
  158.3370  214.2750  146.4130 N   0  0  0  0  0  2  0  0  0  0  0  0
  161.6430  213.1830  145.2630 O   0  0  0  0  0  1  0  0  0  0  0  0
  159.1700  212.6360  148.0300 C   0  0  0  0  0  2  0  0  0  0  0  0
  159.6160  214.3280  145.7000 C   0  0  0  0  0  2  0  0  0  0  0  0
  160.4630  212.5060  147.2180 C   0  0  1  0  0  3  0  0  0  0  0  0
  158.5950  214.0350  147.8320 C   0  0  0  0  0  2  0  0  0  0  0  0
  159.7190  212.0320  144.9130 O   0  0  0  0  0  0  0  0  0  0  0  0
  160.5170  211.7720  143.8840 F   0  0  0  0  0  0  0  0  0  0  0  0
  1  2  1  0  0  0  0
  1  3  1  0  0  0  0
  2  6  2  0  0  0  0
  3  7  1  6  0  0  0
  3  4  1  0  0  0  0
  4  5  2  0  0  0  0
  4 17  1  0  0  0  0
  6  5  1  0  0  0  0
  8 10  1  0  0  0  0
  8  7  1  0  0  0  0
  9 16  2  0  0  0  0
 12 11  1  6  0  0  0
 12 13  1  0  0  0  0
 12 14  1  0  0  0  0
 13  8  2  0  0  0  0
 14 16  1  6  0  0  0
 14 10  1  0  0  0  0
 15 11  2  0  0  0  0
 15  9  1  0  0  0  0
 17 18  1  0  0  0  0
 18 19  1  0  0  0  0
 19 20  1  0  0  0  0
 21  2  1  0  0  0  0
 22 21  1  0  0  0  0
 23 22  1  0  0  0  0
 24 26  1  6  0  0  0
 24 29  1  0  0  0  0
 25 30  1  0  0  0  0
 28 24  1  0  0  0  0
 28 25  1  0  0  0  0
 29 23  1  6  0  0  0
 29 27  1  0  0  0  0
 30 27  1  0  0  0  0
 31 24  1  0  0  0  0
 32 31  1  0  0  0  0
M  END
>  <MODEL>
9

>  <REMARK>
 VINA RESULT:      -7.2      4.927      6.732
  Name = 
  10 active torsions:
  status: ('A' for Active; 'I' for Inactive)
    1  A    between atoms: C_2  and  C_5
    2  A    between atoms: C_2  and  C_6
    3  A    between atoms: C_3  and  O_22
    4  A    between atoms: C_4  and  C_27
    5  A    between atoms: C_13  and  C_29
    6  A    between atoms: C_14  and  C_18
    7  A    between atoms: O_16  and  C_20
    8  A    between atoms: O_16  and  O_24
    9  A    between atoms: C_18  and  C_29
   10  A    between atoms: O_24  and  C_27
                            x       y       z     vdW  Elec       q    Type
                         _______ _______ _______ _____ _____    ______ ____

>  <TORSDO>
F 10

$$$$
