=
 OpenBabel11052423013D

 28 32  0  0  1  0  0  0  0  0999 V2000
  161.4510  204.8980  149.5240 N   0  0  0  0  0  0  0  0  0  0  0  0
  161.6940  210.0690  148.6200 C   0  0  0  0  0  2  0  0  0  0  0  0
  161.1570  206.8510  153.9520 C   0  0  0  0  0  2  0  0  0  0  0  0
  161.2840  210.9790  150.9320 C   0  0  0  0  0  0  0  0  0  0  0  0
  161.4060  208.5220  150.6140 C   0  0  1  0  0  3  0  0  0  0  0  0
  161.3120  212.5120  148.9590 C   0  0  1  0  0  3  0  0  0  0  0  0
  161.9230  209.8710  150.1180 C   0  0  1  0  0  3  0  0  0  0  0  0
  161.0530  209.5650  152.8550 C   0  0  0  0  0  3  0  0  0  0  0  0
  161.0770  212.1940  150.4120 C   0  0  0  0  0  3  0  0  0  0  0  0
  161.2280  205.8940  151.7150 C   0  0  0  0  0  0  0  0  0  0  0  0
  162.0810  207.3560  149.9010 C   0  0  0  0  0  2  0  0  0  0  0  0
  160.9150  210.7320  152.2970 N   0  0  0  0  0  0  0  0  0  0  0  0
  160.9960  203.4030  151.3910 C   0  0  0  0  0  2  0  0  0  0  0  0
  161.2500  207.0570  152.6400 C   0  0  0  0  0  0  0  0  0  0  0  0
  160.8270  204.6040  152.2010 N   0  0  0  0  0  2  0  0  0  0  0  0
  161.9430  213.8820  148.8220 C   0  0  0  0  0  1  0  0  0  0  0  0
  162.1670  211.4660  148.2420 C   0  0  0  0  0  2  0  0  0  0  0  0
  161.6810  208.4080  152.1180 C   0  0  1  0  0  3  0  0  0  0  0  0
  160.6790  203.7300  149.9410 C   0  0  0  0  0  2  0  0  0  0  0  0
  161.5480  206.0400  150.4090 C   0  0  0  0  0  0  0  0  0  0  0  0
  162.1010  204.8330  148.2170 C   0  0  1  0  0  3  0  0  0  0  0  0
  162.0020  203.4290  147.5970 C   0  0  0  0  0  2  0  0  0  0  0  0
  161.6200  204.2190  145.2090 C   0  0  1  0  0  3  0  0  0  0  0  0
  161.5890  206.2260  147.1340 S   0  0  0  0  0  0  0  0  0  0  0  0
  160.9280  202.0560  145.9680 O   0  0  0  0  0  1  0  0  0  0  0  0
  161.0870  203.3790  146.3750 C   0  0  1  0  0  3  0  0  0  0  0  0
  160.4810  204.5760  144.2750 C   0  0  0  0  0  1  0  0  0  0  0  0
  162.3480  205.4930  145.6480 C   0  0  0  0  0  2  0  0  0  0  0  0
  1 19  1  0  0  0  0
  1 20  1  0  0  0  0
  4 12  1  0  0  0  0
  5 11  1  6  0  0  0
  5 18  1  0  0  0  0
  6 16  1  1  0  0  0
  6  9  1  0  0  0  0
  7  2  1  6  0  0  0
  7  5  1  0  0  0  0
  7  4  1  0  0  0  0
  9  4  2  0  0  0  0
 10 15  1  0  0  0  0
 10 14  1  0  0  0  0
 11 20  1  0  0  0  0
 12  8  2  0  0  0  0
 13 15  1  0  0  0  0
 14  3  2  0  0  0  0
 17  2  1  0  0  0  0
 17  6  1  0  0  0  0
 18 14  1  0  0  0  0
 18  8  1  1  0  0  0
 19 13  1  0  0  0  0
 20 10  2  0  0  0  0
 21 22  1  6  0  0  0
 21  1  1  0  0  0  0
 23 27  1  6  0  0  0
 23 28  1  0  0  0  0
 23 26  1  0  0  0  0
 24 21  1  0  0  0  0
 26 25  1  6  0  0  0
 26 22  1  0  0  0  0
 28 24  1  0  0  0  0
M  END
>  <MODEL>
1

>  <REMARK>
 VINA RESULT:      -8.5      0.000      0.000
  Name = 
  1 active torsions:
  status: ('A' for Active; 'I' for Inactive)
    1  A    between atoms: N_1  and  C_2
                            x       y       z     vdW  Elec       q    Type
                         _______ _______ _______ _____ _____    ______ ____

>  <TORSDO>
F 1

$$$$
=
 OpenBabel11052423013D

 28 32  0  0  1  0  0  0  0  0999 V2000
  161.7240  209.8260  150.7380 N   0  0  0  0  0  0  0  0  0  0  0  0
  161.3920  205.9300  147.2270 C   0  0  0  0  0  2  0  0  0  0  0  0
  161.0730  205.8730  153.4700 C   0  0  0  0  0  2  0  0  0  0  0  0
  161.3090  203.9230  148.7460 C   0  0  0  0  0  0  0  0  0  0  0  0
  161.3760  206.1880  149.7540 C   0  0  1  0  0  3  0  0  0  0  0  0
  161.5770  203.6290  146.2780 C   0  0  1  0  0  3  0  0  0  0  0  0
  160.8930  205.3690  148.5580 C   0  0  1  0  0  3  0  0  0  0  0  0
  161.2430  204.1120  151.1360 C   0  0  0  0  0  3  0  0  0  0  0  0
  161.5480  203.1260  147.6990 C   0  0  0  0  0  3  0  0  0  0  0  0
  161.4760  207.8340  152.0850 C   0  0  0  0  0  0  0  0  0  0  0  0
  160.9090  207.6370  149.6770 C   0  0  0  0  0  2  0  0  0  0  0  0
  161.4250  203.3860  150.0710 N   0  0  0  0  0  0  0  0  0  0  0  0
  161.8920  210.0800  153.1540 C   0  0  0  0  0  2  0  0  0  0  0  0
  161.2200  206.3790  152.2470 C   0  0  0  0  0  0  0  0  0  0  0  0
  161.8430  208.6250  153.2250 N   0  0  0  0  0  2  0  0  0  0  0  0
  160.9140  202.6250  145.3580 C   0  0  0  0  0  1  0  0  0  0  0  0
  160.9280  205.0040  146.1110 C   0  0  0  0  0  2  0  0  0  0  0  0
  160.8260  205.5590  151.0400 C   0  0  1  0  0  3  0  0  0  0  0  0
  162.4610  210.4960  151.8070 C   0  0  0  0  0  2  0  0  0  0  0  0
  161.4030  208.4200  150.8680 C   0  0  0  0  0  0  0  0  0  0  0  0
  161.3370  210.6390  149.5870 C   0  0  1  0  0  3  0  0  0  0  0  0
  160.5100  211.8660  150.0040 C   0  0  0  0  0  2  0  0  0  0  0  0
  161.5600  213.4750  148.3370 C   0  0  1  0  0  3  0  0  0  0  0  0
  162.7670  210.9740  148.4820 S   0  0  0  0  0  0  0  0  0  0  0  0
  160.5070  214.2270  150.3520 O   0  0  0  0  0  1  0  0  0  0  0  0
  161.2570  213.1830  149.8110 C   0  0  1  0  0  3  0  0  0  0  0  0
  162.7200  214.4460  148.2370 C   0  0  0  0  0  1  0  0  0  0  0  0
  161.8620  212.2220  147.5100 C   0  0  0  0  0  2  0  0  0  0  0  0
  1 20  1  0  0  0  0
  1 19  1  0  0  0  0
  4 12  1  0  0  0  0
  5 11  1  6  0  0  0
  5 18  1  0  0  0  0
  6 16  1  6  0  0  0
  6  9  1  0  0  0  0
  7  2  1  6  0  0  0
  7  4  1  0  0  0  0
  7  5  1  0  0  0  0
  9  4  2  0  0  0  0
 10 14  1  0  0  0  0
 10 15  1  0  0  0  0
 11 20  1  0  0  0  0
 12  8  2  0  0  0  0
 13 15  1  0  0  0  0
 14  3  2  0  0  0  0
 17  6  1  0  0  0  0
 17  2  1  0  0  0  0
 18  8  1  1  0  0  0
 18 14  1  0  0  0  0
 19 13  1  0  0  0  0
 20 10  2  0  0  0  0
 21 22  1  1  0  0  0
 21  1  1  0  0  0  0
 23 27  1  1  0  0  0
 23 26  1  0  0  0  0
 24 21  1  0  0  0  0
 26 22  1  0  0  0  0
 26 25  1  6  0  0  0
 28 23  1  0  0  0  0
 28 24  1  0  0  0  0
M  END
>  <MODEL>
2

>  <REMARK>
 VINA RESULT:      -7.4      2.882      7.088
  Name = 
  1 active torsions:
  status: ('A' for Active; 'I' for Inactive)
    1  A    between atoms: N_1  and  C_2
                            x       y       z     vdW  Elec       q    Type
                         _______ _______ _______ _____ _____    ______ ____

>  <TORSDO>
F 1

$$$$
=
 OpenBabel11052423013D

 28 32  0  0  1  0  0  0  0  0999 V2000
  159.8750  211.5220  153.6220 N   0  0  0  0  0  0  0  0  0  0  0  0
  160.7360  206.3820  152.9500 C   0  0  0  0  0  2  0  0  0  0  0  0
  161.8640  211.2600  149.2070 C   0  0  0  0  0  2  0  0  0  0  0  0
  161.5260  206.3370  150.5600 C   0  0  0  0  0  0  0  0  0  0  0  0
  161.0130  208.5240  151.6120 C   0  0  1  0  0  3  0  0  0  0  0  0
  161.0250  204.2050  151.7640 C   0  0  1  0  0  3  0  0  0  0  0  0
  161.5300  207.1080  151.8650 C   0  0  1  0  0  3  0  0  0  0  0  0
  161.8490  208.3310  149.2670 C   0  0  0  0  0  3  0  0  0  0  0  0
  161.3650  205.0090  150.5360 C   0  0  0  0  0  3  0  0  0  0  0  0
  160.7970  211.3620  151.3920 C   0  0  0  0  0  0  0  0  0  0  0  0
  161.0790  209.3860  152.8670 C   0  0  0  0  0  2  0  0  0  0  0  0
  161.7230  207.0370  149.3230 N   0  0  0  0  0  0  0  0  0  0  0  0
  159.9620  213.5630  152.2970 C   0  0  0  0  0  2  0  0  0  0  0  0
  161.4350  210.6050  150.2840 C   0  0  0  0  0  0  0  0  0  0  0  0
  160.3900  212.7230  151.1850 N   0  0  0  0  0  2  0  0  0  0  0  0
  161.7980  202.9030  151.7630 C   0  0  0  0  0  1  0  0  0  0  0  0
  161.2730  204.9620  153.0700 C   0  0  0  0  0  2  0  0  0  0  0  0
  161.8660  209.1750  150.5180 C   0  0  1  0  0  3  0  0  0  0  0  0
  159.1360  212.7300  153.2640 C   0  0  0  0  0  2  0  0  0  0  0  0
  160.5600  210.7740  152.5880 C   0  0  0  0  0  0  0  0  0  0  0  0
  159.8890  211.1450  155.0330 C   0  0  1  0  0  3  0  0  0  0  0  0
  159.0560  209.8810  155.2970 C   0  0  0  0  0  2  0  0  0  0  0  0
  160.6410  208.8690  157.0100 C   0  0  1  0  0  3  0  0  0  0  0  0
  161.5940  211.1390  155.7170 S   0  0  0  0  0  0  0  0  0  0  0  0
  159.1010  207.5380  155.7480 O   0  0  0  0  0  1  0  0  0  0  0  0
  159.9080  208.6730  155.6780 C   0  0  1  0  0  3  0  0  0  0  0  0
  161.8380  207.9420  157.0740 C   0  0  0  0  0  1  0  0  0  0  0  0
  161.0890  210.3120  157.2610 C   0  0  0  0  0  2  0  0  0  0  0  0
  2 17  1  0  0  0  0
  3 14  2  0  0  0  0
  4  7  1  0  0  0  0
  5  7  1  0  0  0  0
  5 11  1  1  0  0  0
  6 16  1  1  0  0  0
  6 17  1  0  0  0  0
  7  2  1  1  0  0  0
  8 12  2  0  0  0  0
  9  4  2  0  0  0  0
  9  6  1  0  0  0  0
 10 20  2  0  0  0  0
 12  4  1  0  0  0  0
 13 19  1  0  0  0  0
 14 18  1  0  0  0  0
 14 10  1  0  0  0  0
 15 10  1  0  0  0  0
 15 13  1  0  0  0  0
 18  8  1  6  0  0  0
 18  5  1  0  0  0  0
 19  1  1  0  0  0  0
 20 11  1  0  0  0  0
 20  1  1  0  0  0  0
 21  1  1  6  0  0  0
 21 22  1  0  0  0  0
 21 24  1  0  0  0  0
 22 26  1  0  0  0  0
 23 27  1  6  0  0  0
 23 28  1  0  0  0  0
 24 28  1  0  0  0  0
 26 25  1  1  0  0  0
 26 23  1  0  0  0  0
M  END
>  <MODEL>
3

>  <REMARK>
 VINA RESULT:      -7.1      3.793      8.318
  Name = 
  1 active torsions:
  status: ('A' for Active; 'I' for Inactive)
    1  A    between atoms: N_1  and  C_2
                            x       y       z     vdW  Elec       q    Type
                         _______ _______ _______ _____ _____    ______ ____

>  <TORSDO>
F 1

$$$$
=
 OpenBabel11052423013D

 28 32  0  0  1  0  0  0  0  0999 V2000
  160.6410  210.0760  152.2600 N   0  0  0  0  0  0  0  0  0  0  0  0
  160.5600  204.8780  151.4920 C   0  0  0  0  0  2  0  0  0  0  0  0
  162.6250  209.5350  147.8690 C   0  0  0  0  0  2  0  0  0  0  0  0
  161.3700  204.7330  149.1120 C   0  0  0  0  0  0  0  0  0  0  0  0
  161.2470  206.9570  150.2030 C   0  0  1  0  0  3  0  0  0  0  0  0
  160.4680  202.7070  150.2630 C   0  0  1  0  0  3  0  0  0  0  0  0
  161.4920  205.4660  150.4330 C   0  0  1  0  0  3  0  0  0  0  0  0
  162.0750  206.6580  147.8670 C   0  0  0  0  0  3  0  0  0  0  0  0
  160.9700  203.4580  149.0580 C   0  0  0  0  0  3  0  0  0  0  0  0
  161.5570  209.7900  150.0410 C   0  0  0  0  0  0  0  0  0  0  0  0
  161.4470  207.7690  151.4770 C   0  0  0  0  0  2  0  0  0  0  0  0
  161.7150  205.4080  147.8930 N   0  0  0  0  0  0  0  0  0  0  0  0
  161.1220  212.0900  150.9800 C   0  0  0  0  0  2  0  0  0  0  0  0
  162.0660  208.9500  148.9260 C   0  0  0  0  0  0  0  0  0  0  0  0
  161.4090  211.2060  149.8570 N   0  0  0  0  0  2  0  0  0  0  0  0
  160.9900  201.2850  150.2450 C   0  0  0  0  0  1  0  0  0  0  0  0
  160.8270  203.3820  151.5880 C   0  0  0  0  0  2  0  0  0  0  0  0
  162.2240  207.4610  149.1350 C   0  0  1  0  0  3  0  0  0  0  0  0
  160.1410  211.4050  151.9170 C   0  0  0  0  0  2  0  0  0  0  0  0
  161.1950  209.2340  151.2200 C   0  0  0  0  0  0  0  0  0  0  0  0
  160.5600  209.6770  153.6630 C   0  0  1  0  0  3  0  0  0  0  0  0
  161.9410  209.6770  154.3390 C   0  0  0  0  0  2  0  0  0  0  0  0
  161.1460  210.6100  156.5690 C   0  0  1  0  0  3  0  0  0  0  0  0
  159.2330  210.5850  154.5510 S   0  0  0  0  0  0  0  0  0  0  0  0
  163.4150  210.8150  155.8310 O   0  0  0  0  0  1  0  0  0  0  0  0
  162.0970  210.7840  155.3790 C   0  0  1  0  0  3  0  0  0  0  0  0
  160.9460  211.9430  157.2610 C   0  0  0  0  0  1  0  0  0  0  0  0
  159.7870  210.0130  156.1900 C   0  0  0  0  0  2  0  0  0  0  0  0
  2 17  1  0  0  0  0
  3 14  2  0  0  0  0
  4  7  1  0  0  0  0
  5  7  1  0  0  0  0
  5 11  1  1  0  0  0
  6 16  1  1  0  0  0
  6 17  1  0  0  0  0
  7  2  1  1  0  0  0
  8 12  2  0  0  0  0
  9  4  2  0  0  0  0
  9  6  1  0  0  0  0
 10 20  2  0  0  0  0
 12  4  1  0  0  0  0
 13 19  1  0  0  0  0
 14 18  1  0  0  0  0
 14 10  1  0  0  0  0
 15 10  1  0  0  0  0
 15 13  1  0  0  0  0
 18  8  1  6  0  0  0
 18  5  1  0  0  0  0
 19  1  1  0  0  0  0
 20 11  1  0  0  0  0
 20  1  1  0  0  0  0
 21  1  1  6  0  0  0
 21 22  1  0  0  0  0
 21 24  1  0  0  0  0
 22 26  1  0  0  0  0
 23 27  1  6  0  0  0
 24 28  1  0  0  0  0
 26 25  1  1  0  0  0
 26 23  1  0  0  0  0
 28 23  1  0  0  0  0
M  END
>  <MODEL>
4

>  <REMARK>
 VINA RESULT:      -7.0      3.633      8.448
  Name = 
  1 active torsions:
  status: ('A' for Active; 'I' for Inactive)
    1  A    between atoms: N_1  and  C_2
                            x       y       z     vdW  Elec       q    Type
                         _______ _______ _______ _____ _____    ______ ____

>  <TORSDO>
F 1

$$$$
=
 OpenBabel11052423013D

 28 32  0  0  1  0  0  0  0  0999 V2000
  159.5020  211.8930  152.8570 N   0  0  0  0  0  0  0  0  0  0  0  0
  160.5600  206.7470  152.7180 C   0  0  0  0  0  2  0  0  0  0  0  0
  162.2550  211.3940  148.8970 C   0  0  0  0  0  2  0  0  0  0  0  0
  161.7660  206.5650  150.5150 C   0  0  0  0  0  0  0  0  0  0  0  0
  161.0340  208.8010  151.3010 C   0  0  1  0  0  3  0  0  0  0  0  0
  161.0950  204.5050  151.7600 C   0  0  1  0  0  3  0  0  0  0  0  0
  161.5230  207.4220  151.7420 C   0  0  1  0  0  3  0  0  0  0  0  0
  162.2810  208.4780  149.1620 C   0  0  0  0  0  3  0  0  0  0  0  0
  161.6360  205.2350  150.5580 C   0  0  0  0  0  3  0  0  0  0  0  0
  160.8120  211.6100  150.8440 C   0  0  0  0  0  0  0  0  0  0  0  0
  160.8590  209.7470  152.4830 C   0  0  0  0  0  2  0  0  0  0  0  0
  162.1710  207.1870  149.2860 N   0  0  0  0  0  0  0  0  0  0  0  0
  159.7890  213.8420  151.4260 C   0  0  0  0  0  2  0  0  0  0  0  0
  161.6520  210.8010  149.9240 C   0  0  0  0  0  0  0  0  0  0  0  0
  160.4250  212.9420  150.4710 N   0  0  0  0  0  2  0  0  0  0  0  0
  161.8790  203.2290  151.9890 C   0  0  0  0  0  1  0  0  0  0  0  0
  161.0920  205.3550  153.0320 C   0  0  0  0  0  2  0  0  0  0  0  0
  162.0590  209.4030  150.3320 C   0  0  1  0  0  3  0  0  0  0  0  0
  158.8180  213.0510  152.2880 C   0  0  0  0  0  2  0  0  0  0  0  0
  160.3740  211.0970  152.0170 C   0  0  0  0  0  0  0  0  0  0  0  0
  159.2690  211.6120  154.2720 C   0  0  1  0  0  3  0  0  0  0  0  0
  160.0970  212.5320  155.1830 C   0  0  0  0  0  2  0  0  0  0  0  0
  158.2910  212.8600  156.9440 C   0  0  1  0  0  3  0  0  0  0  0  0
  157.4750  211.5070  154.6550 S   0  0  0  0  0  0  0  0  0  0  0  0
  160.0720  214.4290  156.6300 O   0  0  0  0  0  1  0  0  0  0  0  0
  159.2430  213.5370  155.9520 C   0  0  1  0  0  3  0  0  0  0  0  0
  157.1380  213.7920  157.2610 C   0  0  0  0  0  1  0  0  0  0  0  0
  157.7490  211.5130  156.4570 C   0  0  0  0  0  2  0  0  0  0  0  0
  2 17  1  0  0  0  0
  3 14  2  0  0  0  0
  4  9  2  0  0  0  0
  4  7  1  0  0  0  0
  5  7  1  0  0  0  0
  5 11  1  1  0  0  0
  6 16  1  1  0  0  0
  6 17  1  0  0  0  0
  7  2  1  1  0  0  0
  8 12  2  0  0  0  0
  9  6  1  0  0  0  0
 10 20  2  0  0  0  0
 12  4  1  0  0  0  0
 13 19  1  0  0  0  0
 14 18  1  0  0  0  0
 14 10  1  0  0  0  0
 15 10  1  0  0  0  0
 15 13  1  0  0  0  0
 18  8  1  6  0  0  0
 18  5  1  0  0  0  0
 19  1  1  0  0  0  0
 20 11  1  0  0  0  0
 20  1  1  0  0  0  0
 21  1  1  6  0  0  0
 21 24  1  0  0  0  0
 21 22  1  0  0  0  0
 22 26  1  0  0  0  0
 23 27  1  6  0  0  0
 24 28  1  0  0  0  0
 26 25  1  1  0  0  0
 26 23  1  0  0  0  0
 28 23  1  0  0  0  0
M  END
>  <MODEL>
5

>  <REMARK>
 VINA RESULT:      -7.0      4.569      9.183
  Name = 
  1 active torsions:
  status: ('A' for Active; 'I' for Inactive)
    1  A    between atoms: N_1  and  C_2
                            x       y       z     vdW  Elec       q    Type
                         _______ _______ _______ _____ _____    ______ ____

>  <TORSDO>
F 1

$$$$
=
 OpenBabel11052423013D

 28 32  0  0  1  0  0  0  0  0999 V2000
  160.9430  208.2660  152.8380 N   0  0  0  0  0  0  0  0  0  0  0  0
  161.2060  207.0990  147.7210 C   0  0  0  0  0  2  0  0  0  0  0  0
  160.8400  203.4190  152.7610 C   0  0  0  0  0  2  0  0  0  0  0  0
  161.3980  204.5900  147.8110 C   0  0  0  0  0  0  0  0  0  0  0  0
  161.1300  205.8490  149.9310 C   0  0  1  0  0  3  0  0  0  0  0  0
  161.7280  205.8040  145.6520 C   0  0  1  0  0  3  0  0  0  0  0  0
  160.7810  205.8210  148.4430 C   0  0  1  0  0  3  0  0  0  0  0  0
  161.2830  203.3580  149.8660 C   0  0  0  0  0  3  0  0  0  0  0  0
  161.7590  204.5750  146.5240 C   0  0  0  0  0  3  0  0  0  0  0  0
  160.9710  205.8490  152.7820 C   0  0  0  0  0  0  0  0  0  0  0  0
  160.4600  207.0140  150.6510 C   0  0  0  0  0  2  0  0  0  0  0  0
  161.5770  203.4040  148.5990 N   0  0  0  0  0  0  0  0  0  0  0  0
  161.0500  207.0990  154.9720 C   0  0  0  0  0  2  0  0  0  0  0  0
  160.9250  204.5500  152.0630 C   0  0  0  0  0  0  0  0  0  0  0  0
  161.2100  205.8740  154.1970 N   0  0  0  0  0  2  0  0  0  0  0  0
  161.2250  205.4470  144.2690 C   0  0  0  0  0  1  0  0  0  0  0  0
  160.8910  206.9400  146.2400 C   0  0  0  0  0  2  0  0  0  0  0  0
  160.6640  204.5380  150.5740 C   0  0  1  0  0  3  0  0  0  0  0  0
  161.5660  208.2750  154.1590 C   0  0  0  0  0  2  0  0  0  0  0  0
  160.8260  207.0170  152.1140 C   0  0  0  0  0  0  0  0  0  0  0  0
  160.4540  209.5440  152.3250 C   0  0  1  0  0  3  0  0  0  0  0  0
  159.0060  209.8210  152.7610 C   0  0  0  0  0  2  0  0  0  0  0  0
  159.3210  212.3120  153.1690 C   0  0  1  0  0  3  0  0  0  0  0  0
  161.6560  210.9010  152.6300 S   0  0  0  0  0  0  0  0  0  0  0  0
  157.5790  211.0520  154.2240 O   0  0  0  0  0  1  0  0  0  0  0  0
  158.8920  210.9660  153.7640 C   0  0  1  0  0  3  0  0  0  0  0  0
  159.7060  213.2630  154.2850 C   0  0  0  0  0  1  0  0  0  0  0  0
  160.4700  212.2030  152.1620 C   0  0  0  0  0  2  0  0  0  0  0  0
  1 19  1  0  0  0  0
  4  7  1  0  0  0  0
  4 12  1  0  0  0  0
  5 18  1  0  0  0  0
  5 11  1  1  0  0  0
  6 16  1  6  0  0  0
  6 17  1  0  0  0  0
  6  9  1  0  0  0  0
  7  2  1  6  0  0  0
  7  5  1  0  0  0  0
  9  4  2  0  0  0  0
 10 15  1  0  0  0  0
 11 20  1  0  0  0  0
 12  8  2  0  0  0  0
 14  3  2  0  0  0  0
 14 10  1  0  0  0  0
 15 13  1  0  0  0  0
 17  2  1  0  0  0  0
 18  8  1  6  0  0  0
 18 14  1  0  0  0  0
 19 13  1  0  0  0  0
 20 10  2  0  0  0  0
 20  1  1  0  0  0  0
 21 24  1  0  0  0  0
 21 22  1  1  0  0  0
 21  1  1  0  0  0  0
 22 26  1  0  0  0  0
 23 26  1  0  0  0  0
 23 27  1  1  0  0  0
 26 25  1  6  0  0  0
 28 24  1  0  0  0  0
 28 23  1  0  0  0  0
M  END
>  <MODEL>
6

>  <REMARK>
 VINA RESULT:      -6.2      3.385      7.178
  Name = 
  1 active torsions:
  status: ('A' for Active; 'I' for Inactive)
    1  A    between atoms: N_1  and  C_2
                            x       y       z     vdW  Elec       q    Type
                         _______ _______ _______ _____ _____    ______ ____

>  <TORSDO>
F 1

$$$$
=
 OpenBabel11052423013D

 28 32  0  0  1  0  0  0  0  0999 V2000
  161.2070  205.8730  151.8030 N   0  0  0  0  0  0  0  0  0  0  0  0
  161.4930  206.2330  146.5680 C   0  0  0  0  0  2  0  0  0  0  0  0
  160.4500  201.3270  150.2980 C   0  0  0  0  0  2  0  0  0  0  0  0
  161.3390  203.8070  145.9120 C   0  0  0  0  0  0  0  0  0  0  0  0
  161.1680  204.4140  148.3110 C   0  0  1  0  0  3  0  0  0  0  0  0
  161.9090  205.5420  144.2050 C   0  0  1  0  0  3  0  0  0  0  0  0
  160.8730  204.8730  146.8830 C   0  0  1  0  0  3  0  0  0  0  0  0
  160.9840  202.0550  147.5120 C   0  0  0  0  0  3  0  0  0  0  0  0
  161.7410  204.1200  144.6750 C   0  0  0  0  0  3  0  0  0  0  0  0
  160.9080  203.6000  151.0350 C   0  0  0  0  0  0  0  0  0  0  0  0
  160.6380  205.3980  149.3460 C   0  0  0  0  0  2  0  0  0  0  0  0
  161.3270  202.4290  146.3130 N   0  0  0  0  0  0  0  0  0  0  0  0
  161.0780  204.1280  153.4960 C   0  0  0  0  0  2  0  0  0  0  0  0
  160.7120  202.5890  149.9640 C   0  0  0  0  0  0  0  0  0  0  0  0
  161.0970  203.1740  152.3930 N   0  0  0  0  0  2  0  0  0  0  0  0
  161.4120  205.6810  142.7820 C   0  0  0  0  0  1  0  0  0  0  0  0
  161.2130  206.5620  145.1080 C   0  0  0  0  0  2  0  0  0  0  0  0
  160.5060  203.0500  148.5400 C   0  0  1  0  0  3  0  0  0  0  0  0
  161.7780  205.4060  153.0640 C   0  0  0  0  0  2  0  0  0  0  0  0
  160.9480  204.9210  150.7430 C   0  0  0  0  0  0  0  0  0  0  0  0
  160.9160  207.3010  151.6940 C   0  0  1  0  0  3  0  0  0  0  0  0
  160.2810  207.8560  152.9790 C   0  0  0  0  0  2  0  0  0  0  0  0
  161.5140  210.0810  152.9460 C   0  0  1  0  0  3  0  0  0  0  0  0
  162.3540  208.2390  151.0400 S   0  0  0  0  0  0  0  0  0  0  0  0
  160.6220  209.1420  154.9600 O   0  0  0  0  0  1  0  0  0  0  0  0
  161.2040  208.8060  153.7380 C   0  0  1  0  0  3  0  0  0  0  0  0
  162.7980  210.7010  153.4600 C   0  0  0  0  0  1  0  0  0  0  0  0
  161.6170  209.8580  151.4340 C   0  0  0  0  0  2  0  0  0  0  0  0
  1 19  1  0  0  0  0
  4 12  1  0  0  0  0
  4  7  1  0  0  0  0
  5 18  1  0  0  0  0
  5 11  1  1  0  0  0
  6 16  1  6  0  0  0
  6  9  1  0  0  0  0
  6 17  1  0  0  0  0
  7  2  1  6  0  0  0
  7  5  1  0  0  0  0
  9  4  2  0  0  0  0
 10 15  1  0  0  0  0
 11 20  1  0  0  0  0
 12  8  2  0  0  0  0
 14  3  2  0  0  0  0
 14 10  1  0  0  0  0
 15 13  1  0  0  0  0
 17  2  1  0  0  0  0
 18  8  1  6  0  0  0
 18 14  1  0  0  0  0
 19 13  1  0  0  0  0
 20 10  2  0  0  0  0
 20  1  1  0  0  0  0
 21  1  1  1  0  0  0
 21 22  1  0  0  0  0
 22 26  1  0  0  0  0
 23 27  1  1  0  0  0
 23 26  1  0  0  0  0
 24 28  1  0  0  0  0
 24 21  1  0  0  0  0
 26 25  1  1  0  0  0
 28 23  1  0  0  0  0
M  END
>  <MODEL>
7

>  <REMARK>
 VINA RESULT:      -5.8      3.147      7.043
  Name = 
  1 active torsions:
  status: ('A' for Active; 'I' for Inactive)
    1  A    between atoms: N_1  and  C_2
                            x       y       z     vdW  Elec       q    Type
                         _______ _______ _______ _____ _____    ______ ____

>  <TORSDO>
F 1

$$$$
=
 OpenBabel11052423013D

 28 32  0  0  1  0  0  0  0  0999 V2000
  159.9870  210.1920  155.3680 N   0  0  0  0  0  0  0  0  0  0  0  0
  161.0210  212.2870  150.6610 C   0  0  0  0  0  2  0  0  0  0  0  0
  161.4870  206.4080  152.7340 C   0  0  0  0  0  2  0  0  0  0  0  0
  162.0180  210.3070  149.4640 C   0  0  0  0  0  0  0  0  0  0  0  0
  161.1850  210.0130  151.7820 C   0  0  1  0  0  3  0  0  0  0  0  0
  162.1010  212.5810  148.4300 C   0  0  1  0  0  3  0  0  0  0  0  0
  160.9830  210.7710  150.4700 C   0  0  1  0  0  3  0  0  0  0  0  0
  162.1530  208.1290  150.4600 C   0  0  0  0  0  3  0  0  0  0  0  0
  162.4640  211.1200  148.5010 C   0  0  0  0  0  3  0  0  0  0  0  0
  160.8110  208.3330  154.0600 C   0  0  0  0  0  0  0  0  0  0  0  0
  160.1160  210.3620  152.8110 C   0  0  0  0  0  2  0  0  0  0  0  0
  162.5140  208.9620  149.5270 N   0  0  0  0  0  0  0  0  0  0  0  0
  160.3030  208.0680  156.5160 C   0  0  0  0  0  2  0  0  0  0  0  0
  161.2510  207.7170  152.7810 C   0  0  0  0  0  0  0  0  0  0  0  0
  160.9160  207.5900  155.2830 N   0  0  0  0  0  2  0  0  0  0  0  0
  161.8530  212.9850  146.9910 C   0  0  0  0  0  1  0  0  0  0  0  0
  160.8930  212.9450  149.2940 C   0  0  0  0  0  2  0  0  0  0  0  0
  161.1270  208.5080  151.4990 C   0  0  1  0  0  3  0  0  0  0  0  0
  160.4670  209.5770  156.6030 C   0  0  0  0  0  2  0  0  0  0  0  0
  160.3430  209.6020  154.0940 C   0  0  0  0  0  0  0  0  0  0  0  0
  159.1480  211.3810  155.5000 C   0  0  1  0  0  3  0  0  0  0  0  0
  157.9380  211.3370  154.5520 C   0  0  0  0  0  2  0  0  0  0  0  0
  156.2790  212.3570  156.1880 C   0  0  1  0  0  3  0  0  0  0  0  0
  158.7740  211.7550  157.2590 S   0  0  0  0  0  0  0  0  0  0  0  0
  155.5880  210.9790  154.3560 O   0  0  0  0  0  1  0  0  0  0  0  0
  156.6110  211.1640  155.2850 C   0  0  1  0  0  3  0  0  0  0  0  0
  155.2970  211.9290  157.2600 C   0  0  0  0  0  1  0  0  0  0  0  0
  157.5090  212.9980  156.8400 C   0  0  0  0  0  2  0  0  0  0  0  0
  1 21  1  0  0  0  0
  1 19  1  0  0  0  0
  3 14  2  0  0  0  0
  4 12  1  0  0  0  0
  4  7  1  0  0  0  0
  5 11  1  1  0  0  0
  6 16  1  6  0  0  0
  6  9  1  0  0  0  0
  6 17  1  0  0  0  0
  7  2  1  1  0  0  0
  7  5  1  0  0  0  0
  9  4  2  0  0  0  0
 10 20  2  0  0  0  0
 10 15  1  0  0  0  0
 11 20  1  0  0  0  0
 12  8  2  0  0  0  0
 13 19  1  0  0  0  0
 14 10  1  0  0  0  0
 15 13  1  0  0  0  0
 17  2  1  0  0  0  0
 18  8  1  6  0  0  0
 18  5  1  0  0  0  0
 18 14  1  0  0  0  0
 20  1  1  0  0  0  0
 21 22  1  6  0  0  0
 21 24  1  0  0  0  0
 22 26  1  0  0  0  0
 23 28  1  0  0  0  0
 23 27  1  1  0  0  0
 26 25  1  6  0  0  0
 26 23  1  0  0  0  0
 28 24  1  0  0  0  0
M  END
>  <MODEL>
8

>  <REMARK>
 VINA RESULT:      -5.8      4.717      7.820
  Name = 
  1 active torsions:
  status: ('A' for Active; 'I' for Inactive)
    1  A    between atoms: N_1  and  C_2
                            x       y       z     vdW  Elec       q    Type
                         _______ _______ _______ _____ _____    ______ ____

>  <TORSDO>
F 1

$$$$
