=
 OpenBabel11062409563D

 43 48  0  0  1  0  0  0  0  0999 V2000
  160.4430  202.9110  150.0290 C   0  0  1  0  0  3  0  0  0  0  0  0
  161.5340  207.2980  152.3580 C   0  0  0  0  0  0  0  0  0  0  0  0
  161.8820  209.2100  150.2840 C   0  0  0  0  0  0  0  0  0  0  0  0
  161.2510  204.5850  151.7000 C   0  0  0  0  0  0  0  0  0  0  0  0
  160.8970  203.8690  148.9610 C   0  0  0  0  0  3  0  0  0  0  0  0
  160.6130  201.5990  149.5940 O   0  0  0  0  0  1  0  0  0  0  0  0
  161.3270  205.5510  150.6770 C   0  0  0  0  0  0  0  0  0  0  0  0
  161.1940  203.1250  151.3480 C   0  0  0  0  0  2  0  0  0  0  0  0
  161.2670  205.1150  149.2690 C   0  0  0  0  0  3  0  0  0  0  0  0
  161.6050  207.8680  150.0000 O   0  0  0  0  0  0  0  0  0  0  0  0
  161.4830  206.9060  151.0080 C   0  0  2  0  0  3  0  0  0  0  0  0
  161.4650  206.3270  153.3660 C   0  0  0  0  0  3  0  0  0  0  0  0
  161.6330  208.7540  152.7280 C   0  0  0  0  0  0  0  0  0  0  0  0
  161.9380  209.6440  151.5490 C   0  0  0  0  0  3  0  0  0  0  0  0
  161.3350  204.9750  153.0380 C   0  0  0  0  0  3  0  0  0  0  0  0
  162.1490  210.1420  149.1460 C   0  0  1  0  0  3  0  0  0  0  0  0
  161.6030  209.6420  147.9610 O   0  0  0  0  0  1  0  0  0  0  0  0
  161.5930  211.5280  149.4420 C   0  0  0  0  0  2  0  0  0  0  0  0
  161.8290  212.4650  148.2680 C   0  0  1  0  0  3  0  0  0  0  0  0
  163.2630  212.3220  147.8010 C   0  0  0  0  0  1  0  0  0  0  0  0
  160.9630  212.1390  147.2190 O   0  0  0  0  0  0  0  0  0  0  0  0
  160.3220  213.3390  146.8820 C   0  0  2  0  0  3  0  0  0  0  0  0
  158.1540  212.6410  146.0620 C   0  0  0  0  0  2  0  0  0  0  0  0
  159.3050  213.6700  147.9580 C   0  0  0  0  0  2  0  0  0  0  0  0
  159.4950  213.1890  145.6080 C   0  0  1  0  0  0  0  0  0  0  0  0
  159.3090  214.4430  145.0500 F   0  0  0  0  0  0  0  0  0  0  0  0
  157.9940  213.0390  147.5200 C   0  0  0  0  0  2  0  0  0  0  0  0
  160.1610  212.2690  144.5850 C   0  0  0  0  0  2  0  0  0  0  0  0
  160.4630  212.9870  143.3530 N   0  0  0  0  0  0  0  0  0  0  0  0
  162.1970  211.0560  140.7930 N   0  0  0  0  0  1  0  0  0  0  0  0
  160.0280  211.8610  141.3570 N   0  0  0  0  0  0  0  0  0  0  0  0
  161.2780  211.7600  141.6180 C   0  0  0  0  0  0  0  0  0  0  0  0
  159.4880  212.6110  142.4060 N   0  0  0  0  0  2  0  0  0  0  0  0
  161.6340  212.4140  142.8220 N   0  0  0  0  0  2  0  0  0  0  0  0
  160.3390  209.2100  153.3910 C   0  0  0  0  0  2  0  0  0  0  0  0
  159.8740  212.4710  155.3220 C   0  0  0  0  0  2  0  0  0  0  0  0
  158.3560  212.4770  155.0780 C   0  0  0  0  0  0  0  0  0  0  0  0
  157.6470  212.1330  156.3730 C   0  0  0  0  0  1  0  0  0  0  0  0
  158.9970  211.2710  152.9390 C   0  0  0  0  0  2  0  0  0  0  0  0
  160.4900  211.1080  155.0220 C   0  0  0  0  0  2  0  0  0  0  0  0
  160.2970  210.7230  153.5460 C   0  0  0  0  0  3  0  0  0  0  0  0
  157.9400  213.8720  154.6600 C   0  0  0  0  0  1  0  0  0  0  0  0
  157.9160  211.4750  154.0000 C   0  0  0  0  0  2  0  0  0  0  0  0
  1  6  1  6  0  0  0
  1  8  1  0  0  0  0
  2 13  2  0  0  0  0
  2 12  1  0  0  0  0
  3 14  2  0  0  0  0
  4 15  1  0  0  0  0
  5  9  2  0  0  0  0
  5  1  1  0  0  0  0
  7 11  1  0  0  0  0
  7  4  2  0  0  0  0
  8  4  1  0  0  0  0
  9  7  1  0  0  0  0
 10  3  1  0  0  0  0
 11 10  1  6  0  0  0
 11  2  1  0  0  0  0
 13 35  1  0  0  0  0
 14 13  1  0  0  0  0
 15 12  2  0  0  0  0
 16 17  1  6  0  0  0
 16 18  1  0  0  0  0
 16  3  1  0  0  0  0
 19 20  1  6  0  0  0
 19 18  1  0  0  0  0
 21 19  1  0  0  0  0
 22 21  1  1  0  0  0
 22 24  1  0  0  0  0
 23 27  1  0  0  0  0
 25 26  1  6  0  0  0
 25 23  1  0  0  0  0
 25 22  1  0  0  0  0
 27 24  1  0  0  0  0
 28 25  1  0  0  0  0
 29 28  1  0  0  0  0
 30 32  1  0  0  0  0
 31 32  2  0  0  0  0
 31 33  1  0  0  0  0
 32 34  1  0  0  0  0
 33 29  1  0  0  0  0
 34 29  1  0  0  0  0
 35 41  1  0  0  0  0
 37 36  1  0  0  0  0
 37 38  1  0  0  0  0
 39 41  1  0  0  0  0
 39 43  1  0  0  0  0
 40 36  1  0  0  0  0
 41 40  1  0  0  0  0
 42 37  1  0  0  0  0
 43 37  1  0  0  0  0
M  END
>  <MODEL>
1

>  <REMARK>
 VINA RESULT:      -9.4      0.000      0.000
  Name = 
  9 active torsions:
  status: ('A' for Active; 'I' for Inactive)
    1  A    between atoms: C_1  and  C_34
    2  A    between atoms: C_1  and  C_35
    3  A    between atoms: C_2  and  C_6
    4  A    between atoms: C_2  and  C_13
    5  A    between atoms: O_3  and  C_4
    6  A    between atoms: O_3  and  C_12
    7  A    between atoms: C_6  and  C_12
    8  A    between atoms: N_11  and  C_14
    9  A    between atoms: C_14  and  C_22
                            x       y       z     vdW  Elec       q    Type
                         _______ _______ _______ _____ _____    ______ ____

>  <TORSDO>
F 9

$$$$
=
 OpenBabel11062409563D

 43 48  0  0  1  0  0  0  0  0999 V2000
  160.5210  203.3510  149.9810 C   0  0  1  0  0  3  0  0  0  0  0  0
  161.4010  207.7520  152.3700 C   0  0  0  0  0  0  0  0  0  0  0  0
  161.8580  209.6680  150.3200 C   0  0  0  0  0  0  0  0  0  0  0  0
  161.1960  205.0360  151.6980 C   0  0  0  0  0  0  0  0  0  0  0  0
  161.0310  204.3140  148.9430 C   0  0  0  0  0  3  0  0  0  0  0  0
  160.7370  202.0410  149.5590 O   0  0  0  0  0  1  0  0  0  0  0  0
  161.3270  206.0030  150.6810 C   0  0  0  0  0  0  0  0  0  0  0  0
  161.1820  203.5750  151.3450 C   0  0  0  0  0  2  0  0  0  0  0  0
  161.3640  205.5660  149.2730 C   0  0  0  0  0  3  0  0  0  0  0  0
  161.6180  208.3230  150.0210 O   0  0  0  0  0  0  0  0  0  0  0  0
  161.4420  207.3590  151.0200 C   0  0  2  0  0  3  0  0  0  0  0  0
  161.2800  206.7810  153.3730 C   0  0  0  0  0  3  0  0  0  0  0  0
  161.4570  209.2100  152.7440 C   0  0  0  0  0  0  0  0  0  0  0  0
  161.8250  210.1040  151.5860 C   0  0  0  0  0  3  0  0  0  0  0  0
  161.1890  205.4280  153.0380 C   0  0  0  0  0  3  0  0  0  0  0  0
  162.1860  210.6030  149.2010 C   0  0  1  0  0  3  0  0  0  0  0  0
  162.1110  209.9450  147.9710 O   0  0  0  0  0  1  0  0  0  0  0  0
  161.2560  211.8080  149.2150 C   0  0  0  0  0  2  0  0  0  0  0  0
  161.9940  213.0640  148.7790 C   0  0  1  0  0  3  0  0  0  0  0  0
  163.2080  212.6660  147.9640 C   0  0  0  0  0  1  0  0  0  0  0  0
  161.1510  213.8630  147.9980 O   0  0  0  0  0  0  0  0  0  0  0  0
  160.4370  212.9670  147.1900 C   0  0  2  0  0  3  0  0  0  0  0  0
  159.1200  214.3940  145.7460 C   0  0  0  0  0  2  0  0  0  0  0  0
  161.0770  212.9300  145.8150 C   0  0  0  0  0  2  0  0  0  0  0  0
  159.0150  213.4590  146.9370 C   0  0  1  0  0  0  0  0  0  0  0  0
  158.2240  212.3750  146.5950 F   0  0  0  0  0  0  0  0  0  0  0  0
  160.3700  213.9860  144.9830 C   0  0  0  0  0  2  0  0  0  0  0  0
  158.4160  214.1640  148.1540 C   0  0  0  0  0  2  0  0  0  0  0  0
  157.4750  213.2960  148.8510 N   0  0  0  0  0  0  0  0  0  0  0  0
  156.4780  214.4110  152.1760 N   0  0  0  0  0  1  0  0  0  0  0  0
  155.6930  214.3450  149.9290 N   0  0  0  0  0  0  0  0  0  0  0  0
  156.5960  214.0830  150.7970 C   0  0  0  0  0  0  0  0  0  0  0  0
  156.1980  213.8750  148.7130 N   0  0  0  0  0  2  0  0  0  0  0  0
  157.7250  213.4470  150.2280 N   0  0  0  0  0  2  0  0  0  0  0  0
  160.1160  209.6490  153.3210 C   0  0  0  0  0  2  0  0  0  0  0  0
  159.8690  212.6070  155.7230 C   0  0  0  0  0  2  0  0  0  0  0  0
  158.3400  212.6760  155.5870 C   0  0  0  0  0  0  0  0  0  0  0  0
  157.7060  212.1630  156.8640 C   0  0  0  0  0  1  0  0  0  0  0  0
  158.8080  211.7790  153.2590 C   0  0  0  0  0  2  0  0  0  0  0  0
  160.4260  211.2890  155.1910 C   0  0  0  0  0  2  0  0  0  0  0  0
  160.1280  211.1250  153.6930 C   0  0  0  0  0  3  0  0  0  0  0  0
  157.9380  214.1250  155.4000 C   0  0  0  0  0  1  0  0  0  0  0  0
  157.8030  211.8490  154.4080 C   0  0  0  0  0  2  0  0  0  0  0  0
  1  6  1  6  0  0  0
  1  8  1  0  0  0  0
  2 13  2  0  0  0  0
  2 12  1  0  0  0  0
  3 14  2  0  0  0  0
  4 15  1  0  0  0  0
  5  9  2  0  0  0  0
  5  1  1  0  0  0  0
  7 11  1  0  0  0  0
  7  4  2  0  0  0  0
  8  4  1  0  0  0  0
  9  7  1  0  0  0  0
 10  3  1  0  0  0  0
 11 10  1  1  0  0  0
 11  2  1  0  0  0  0
 13 35  1  0  0  0  0
 14 13  1  0  0  0  0
 15 12  2  0  0  0  0
 16 17  1  6  0  0  0
 16 18  1  0  0  0  0
 16  3  1  0  0  0  0
 19 20  1  6  0  0  0
 19 18  1  0  0  0  0
 21 19  1  0  0  0  0
 22 21  1  1  0  0  0
 23 25  1  0  0  0  0
 24 22  1  0  0  0  0
 25 26  1  6  0  0  0
 25 22  1  0  0  0  0
 25 28  1  0  0  0  0
 27 23  1  0  0  0  0
 27 24  1  0  0  0  0
 28 29  1  0  0  0  0
 29 34  1  0  0  0  0
 31 32  2  0  0  0  0
 32 30  1  0  0  0  0
 33 29  1  0  0  0  0
 33 31  1  0  0  0  0
 34 32  1  0  0  0  0
 35 41  1  0  0  0  0
 37 36  1  0  0  0  0
 37 38  1  0  0  0  0
 39 41  1  0  0  0  0
 39 43  1  0  0  0  0
 40 36  1  0  0  0  0
 41 40  1  0  0  0  0
 42 37  1  0  0  0  0
 43 37  1  0  0  0  0
M  END
>  <MODEL>
2

>  <REMARK>
 VINA RESULT:      -8.8      2.836      3.773
  Name = 
  9 active torsions:
  status: ('A' for Active; 'I' for Inactive)
    1  A    between atoms: C_1  and  C_34
    2  A    between atoms: C_1  and  C_35
    3  A    between atoms: C_2  and  C_6
    4  A    between atoms: C_2  and  C_13
    5  A    between atoms: O_3  and  C_4
    6  A    between atoms: O_3  and  C_12
    7  A    between atoms: C_6  and  C_12
    8  A    between atoms: N_11  and  C_14
    9  A    between atoms: C_14  and  C_22
                            x       y       z     vdW  Elec       q    Type
                         _______ _______ _______ _____ _____    ______ ____

>  <TORSDO>
F 9

$$$$
=
 OpenBabel11062409563D

 43 48  0  0  1  0  0  0  0  0999 V2000
  161.8440  208.6240  155.2960 C   0  0  1  0  0  3  0  0  0  0  0  0
  161.3180  207.9520  150.2830 C   0  0  0  0  0  0  0  0  0  0  0  0
  162.0000  210.4410  149.0920 C   0  0  0  0  0  0  0  0  0  0  0  0
  161.0770  207.7780  153.0730 C   0  0  0  0  0  0  0  0  0  0  0  0
  161.9310  209.9870  154.6640 C   0  0  0  0  0  3  0  0  0  0  0  0
  161.4690  208.7450  156.6330 O   0  0  0  0  0  1  0  0  0  0  0  0
  161.5080  208.9810  152.4800 C   0  0  0  0  0  0  0  0  0  0  0  0
  160.8560  207.7130  154.5580 C   0  0  0  0  0  2  0  0  0  0  0  0
  161.8170  210.1380  153.3410 C   0  0  0  0  0  3  0  0  0  0  0  0
  161.9980  210.2730  150.4810 O   0  0  0  0  0  0  0  0  0  0  0  0
  161.6150  209.0710  151.0840 C   0  0  0  0  0  0  0  0  0  0  0  0
  160.8820  206.7640  150.8840 C   0  0  0  0  0  2  0  0  0  0  0  0
  161.4920  208.0140  148.7890 C   0  0  0  0  0  0  0  0  0  0  0  0
  161.7320  209.4120  148.2790 C   0  0  0  0  0  3  0  0  0  0  0  0
  160.7520  206.6810  152.2730 C   0  0  0  0  0  3  0  0  0  0  0  0
  162.2760  211.8010  148.5360 C   0  0  1  0  0  3  0  0  0  0  0  0
  163.5220  211.8330  147.9060 O   0  0  0  0  0  1  0  0  0  0  0  0
  161.1800  212.2200  147.5660 C   0  0  0  0  0  2  0  0  0  0  0  0
  161.2360  213.7160  147.3010 C   0  0  1  0  0  3  0  0  0  0  0  0
  162.1780  213.9780  146.1440 C   0  0  0  0  0  1  0  0  0  0  0  0
  159.9590  214.1880  146.9780 O   0  0  0  0  0  0  0  0  0  0  0  0
  159.1990  213.0430  146.7040 C   0  0  2  0  0  3  0  0  0  0  0  0
  157.0510  213.9120  146.0060 C   0  0  0  0  0  2  0  0  0  0  0  0
  159.1070  212.8630  145.2010 C   0  0  0  0  0  2  0  0  0  0  0  0
  157.7520  213.2140  147.1570 C   0  0  1  0  0  0  0  0  0  0  0  0
  157.1920  211.9600  147.3390 F   0  0  0  0  0  0  0  0  0  0  0  0
  157.8550  213.5990  144.7550 C   0  0  0  0  0  2  0  0  0  0  0  0
  157.6370  214.0160  148.4540 C   0  0  0  0  0  2  0  0  0  0  0  0
  157.0750  213.2030  149.5250 N   0  0  0  0  0  0  0  0  0  0  0  0
  157.9810  214.2150  152.9080 N   0  0  0  0  0  1  0  0  0  0  0  0
  156.1860  214.3530  151.3490 N   0  0  0  0  0  0  0  0  0  0  0  0
  157.3660  213.9570  151.6520 C   0  0  0  0  0  0  0  0  0  0  0  0
  155.9690  213.9090  150.0410 N   0  0  0  0  0  2  0  0  0  0  0  0
  157.9870  213.2490  150.5950 N   0  0  0  0  0  2  0  0  0  0  0  0
  162.6450  207.1110  148.3640 C   0  0  0  0  0  2  0  0  0  0  0  0
  162.3460  204.3500  145.7440 C   0  0  0  0  0  2  0  0  0  0  0  0
  161.1890  205.0630  145.0270 C   0  0  0  0  0  0  0  0  0  0  0  0
  161.6960  205.6330  143.7160 C   0  0  0  0  0  1  0  0  0  0  0  0
  160.6820  205.9370  147.3550 C   0  0  0  0  0  2  0  0  0  0  0  0
  163.0780  205.2830  146.7040 C   0  0  0  0  0  2  0  0  0  0  0  0
  162.1400  205.7860  147.8130 C   0  0  0  0  0  3  0  0  0  0  0  0
  160.1100  204.0450  144.7210 C   0  0  0  0  0  1  0  0  0  0  0  0
  160.5820  206.2070  145.8540 C   0  0  0  0  0  2  0  0  0  0  0  0
  1  6  1  1  0  0  0
  2 12  1  0  0  0  0
  2 11  1  0  0  0  0
  3 10  1  0  0  0  0
  4  8  1  0  0  0  0
  5  1  1  0  0  0  0
  7  4  1  0  0  0  0
  7  9  1  0  0  0  0
  8  1  1  0  0  0  0
  9  5  2  0  0  0  0
 10 11  1  0  0  0  0
 11  7  2  0  0  0  0
 12 15  1  0  0  0  0
 13  2  2  0  0  0  0
 14 13  1  0  0  0  0
 14  3  2  0  0  0  0
 15  4  2  0  0  0  0
 16 17  1  6  0  0  0
 16  3  1  0  0  0  0
 18 16  1  0  0  0  0
 19 20  1  6  0  0  0
 19 18  1  0  0  0  0
 21 19  1  0  0  0  0
 22 21  1  6  0  0  0
 22 25  1  0  0  0  0
 23 25  1  0  0  0  0
 24 22  1  0  0  0  0
 25 26  1  1  0  0  0
 25 28  1  0  0  0  0
 27 24  1  0  0  0  0
 27 23  1  0  0  0  0
 28 29  1  0  0  0  0
 29 33  1  0  0  0  0
 29 34  1  0  0  0  0
 31 32  2  0  0  0  0
 32 30  1  0  0  0  0
 33 31  1  0  0  0  0
 34 32  1  0  0  0  0
 35 13  1  0  0  0  0
 36 40  1  0  0  0  0
 37 36  1  0  0  0  0
 37 43  1  0  0  0  0
 38 37  1  0  0  0  0
 39 41  1  0  0  0  0
 40 41  1  0  0  0  0
 41 35  1  0  0  0  0
 42 37  1  0  0  0  0
 43 39  1  0  0  0  0
M  END
>  <MODEL>
3

>  <REMARK>
 VINA RESULT:      -8.6      3.871      7.180
  Name = 
  9 active torsions:
  status: ('A' for Active; 'I' for Inactive)
    1  A    between atoms: C_1  and  C_34
    2  A    between atoms: C_1  and  C_35
    3  A    between atoms: C_2  and  C_6
    4  A    between atoms: C_2  and  C_13
    5  A    between atoms: O_3  and  C_4
    6  A    between atoms: O_3  and  C_12
    7  A    between atoms: C_6  and  C_12
    8  A    between atoms: N_11  and  C_14
    9  A    between atoms: C_14  and  C_22
                            x       y       z     vdW  Elec       q    Type
                         _______ _______ _______ _____ _____    ______ ____

>  <TORSDO>
F 9

$$$$
=
 OpenBabel11062409563D

 43 48  0  0  1  0  0  0  0  0999 V2000
  162.2890  213.4660  147.9310 C   0  0  1  0  0  3  0  0  0  0  0  0
  160.2130  211.5720  152.1680 C   0  0  0  0  0  0  0  0  0  0  0  0
  161.3460  208.9860  152.4970 C   0  0  0  0  0  0  0  0  0  0  0  0
  160.7020  213.0020  149.8050 C   0  0  0  0  0  0  0  0  0  0  0  0
  162.6580  212.0070  147.9800 C   0  0  0  0  0  3  0  0  0  0  0  0
  162.3600  213.9280  146.6180 O   0  0  0  0  0  1  0  0  0  0  0  0
  161.3360  211.7620  150.0180 C   0  0  0  0  0  0  0  0  0  0  0  0
  160.8890  213.7230  148.4990 C   0  0  0  0  0  2  0  0  0  0  0  0
  162.2430  211.2290  148.9850 C   0  0  0  0  0  3  0  0  0  0  0  0
  161.6680  209.7890  151.3980 O   0  0  0  0  0  0  0  0  0  0  0  0
  161.0800  211.0420  151.1950 C   0  0  2  0  0  3  0  0  0  0  0  0
  159.5820  212.8020  151.9410 C   0  0  0  0  0  3  0  0  0  0  0  0
  159.9810  210.8420  153.4650 C   0  0  0  0  0  0  0  0  0  0  0  0
  160.5320  209.4380  153.4590 C   0  0  0  0  0  3  0  0  0  0  0  0
  159.8180  213.5090  150.7590 C   0  0  0  0  0  3  0  0  0  0  0  0
  161.9030  207.6000  152.5590 C   0  0  1  0  0  3  0  0  0  0  0  0
  160.9650  206.7160  153.0960 O   0  0  0  0  0  1  0  0  0  0  0  0
  162.3430  207.1330  151.1790 C   0  0  0  0  0  2  0  0  0  0  0  0
  161.2350  206.3470  150.4960 C   0  0  1  0  0  3  0  0  0  0  0  0
  160.8070  207.0830  149.2430 C   0  0  0  0  0  1  0  0  0  0  0  0
  161.7010  205.0730  150.1520 O   0  0  0  0  0  0  0  0  0  0  0  0
  160.5930  204.2250  150.2890 C   0  0  2  0  0  3  0  0  0  0  0  0
  161.5650  202.0380  150.6520 C   0  0  0  0  0  2  0  0  0  0  0  0
  160.4120  203.8890  151.7580 C   0  0  0  0  0  2  0  0  0  0  0  0
  160.8380  202.8770  149.6170 C   0  0  1  0  0  0  0  0  0  0  0  0
  159.6150  202.2930  149.3350 F   0  0  0  0  0  0  0  0  0  0  0  0
  161.2080  202.6190  152.0100 C   0  0  0  0  0  2  0  0  0  0  0  0
  161.6500  203.0060  148.3280 C   0  0  0  0  0  2  0  0  0  0  0  0
  160.8240  203.5060  147.2360 N   0  0  0  0  0  0  0  0  0  0  0  0
  162.4750  205.8110  144.9450 N   0  0  0  0  0  1  0  0  0  0  0  0
  161.8010  203.5340  145.1190 N   0  0  0  0  0  0  0  0  0  0  0  0
  161.8760  204.7110  145.6170 C   0  0  0  0  0  0  0  0  0  0  0  0
  161.1590  202.7590  146.0890 N   0  0  0  0  0  2  0  0  0  0  0  0
  161.3080  204.7870  146.9120 N   0  0  0  0  0  2  0  0  0  0  0  0
  160.5950  211.6260  154.6190 C   0  0  0  0  0  2  0  0  0  0  0  0
  157.0360  212.1230  155.9100 C   0  0  0  0  0  2  0  0  0  0  0  0
  156.9650  213.5560  155.3600 C   0  0  0  0  0  0  0  0  0  0  0  0
  156.0490  213.5760  154.1520 C   0  0  0  0  0  1  0  0  0  0  0  0
  159.4660  213.5250  155.7900 C   0  0  0  0  0  2  0  0  0  0  0  0
  158.2010  211.3420  155.3090 C   0  0  0  0  0  2  0  0  0  0  0  0
  159.5470  211.9970  155.6580 C   0  0  0  0  0  3  0  0  0  0  0  0
  156.3710  214.4530  156.4270 C   0  0  0  0  0  1  0  0  0  0  0  0
  158.3360  214.1090  154.9430 C   0  0  0  0  0  2  0  0  0  0  0  0
  1  6  1  6  0  0  0
  1  5  1  0  0  0  0
  1  8  1  0  0  0  0
  2 13  2  0  0  0  0
  3 16  1  0  0  0  0
  3 14  2  0  0  0  0
  4  7  2  0  0  0  0
  4 15  1  0  0  0  0
  5  9  2  0  0  0  0
  8  4  1  0  0  0  0
  9  7  1  0  0  0  0
 10  3  1  0  0  0  0
 11  7  1  6  0  0  0
 11 10  1  0  0  0  0
 11  2  1  0  0  0  0
 12  2  1  0  0  0  0
 13 35  1  0  0  0  0
 14 13  1  0  0  0  0
 15 12  2  0  0  0  0
 16 17  1  6  0  0  0
 18 16  1  0  0  0  0
 19 20  1  6  0  0  0
 19 18  1  0  0  0  0
 21 19  1  0  0  0  0
 22 21  1  1  0  0  0
 22 24  1  0  0  0  0
 23 27  1  0  0  0  0
 24 27  1  0  0  0  0
 25 26  1  6  0  0  0
 25 22  1  0  0  0  0
 25 23  1  0  0  0  0
 28 25  1  0  0  0  0
 29 28  1  0  0  0  0
 30 32  1  0  0  0  0
 31 32  2  0  0  0  0
 31 33  1  0  0  0  0
 32 34  1  0  0  0  0
 33 29  1  0  0  0  0
 34 29  1  0  0  0  0
 35 41  1  0  0  0  0
 37 36  1  0  0  0  0
 37 42  1  0  0  0  0
 38 37  1  0  0  0  0
 40 41  1  0  0  0  0
 40 36  1  0  0  0  0
 41 39  1  0  0  0  0
 43 37  1  0  0  0  0
 43 39  1  0  0  0  0
M  END
>  <MODEL>
4

>  <REMARK>
 VINA RESULT:      -8.6      3.908      7.580
  Name = 
  9 active torsions:
  status: ('A' for Active; 'I' for Inactive)
    1  A    between atoms: C_1  and  C_34
    2  A    between atoms: C_1  and  C_35
    3  A    between atoms: C_2  and  C_6
    4  A    between atoms: C_2  and  C_13
    5  A    between atoms: O_3  and  C_4
    6  A    between atoms: O_3  and  C_12
    7  A    between atoms: C_6  and  C_12
    8  A    between atoms: N_11  and  C_14
    9  A    between atoms: C_14  and  C_22
                            x       y       z     vdW  Elec       q    Type
                         _______ _______ _______ _____ _____    ______ ____

>  <TORSDO>
F 9

$$$$
=
 OpenBabel11062409563D

 43 48  0  0  1  0  0  0  0  0999 V2000
  160.9000  204.6900  146.8370 C   0  0  1  0  0  3  0  0  0  0  0  0
  161.7520  208.0190  150.5850 C   0  0  0  0  0  0  0  0  0  0  0  0
  162.1210  210.5360  149.3160 C   0  0  0  0  0  0  0  0  0  0  0  0
  161.5850  205.6970  149.0190 C   0  0  0  0  0  0  0  0  0  0  0  0
  161.3660  205.9650  146.1870 C   0  0  0  0  0  3  0  0  0  0  0  0
  161.1320  203.6120  145.9850 O   0  0  0  0  0  1  0  0  0  0  0  0
  161.6710  206.9580  148.3970 C   0  0  0  0  0  0  0  0  0  0  0  0
  161.5910  204.4480  148.1840 C   0  0  0  0  0  2  0  0  0  0  0  0
  161.6820  207.0350  146.9240 C   0  0  0  0  0  3  0  0  0  0  0  0
  161.9000  209.3700  148.5740 O   0  0  0  0  0  0  0  0  0  0  0  0
  161.7680  208.1170  149.1810 C   0  0  2  0  0  3  0  0  0  0  0  0
  161.6750  206.7590  151.1920 C   0  0  0  0  0  3  0  0  0  0  0  0
  161.7890  209.2600  151.4380 C   0  0  0  0  0  0  0  0  0  0  0  0
  162.1110  210.5070  150.6540 C   0  0  0  0  0  3  0  0  0  0  0  0
  161.6020  205.6020  150.4120 C   0  0  0  0  0  3  0  0  0  0  0  0
  162.4030  211.8080  148.5830 C   0  0  1  0  0  3  0  0  0  0  0  0
  163.6360  211.7380  147.9310 O   0  0  0  0  0  1  0  0  0  0  0  0
  161.2930  212.1150  147.5880 C   0  0  0  0  0  2  0  0  0  0  0  0
  160.9600  213.5990  147.5910 C   0  0  1  0  0  3  0  0  0  0  0  0
  161.8750  214.3080  148.5680 C   0  0  0  0  0  1  0  0  0  0  0  0
  161.1460  214.1290  146.3100 O   0  0  0  0  0  0  0  0  0  0  0  0
  160.7700  213.1070  145.4280 C   0  0  2  0  0  3  0  0  0  0  0  0
  160.1220  214.2770  143.4100 C   0  0  0  0  0  2  0  0  0  0  0  0
  161.8790  212.9030  144.4130 C   0  0  0  0  0  2  0  0  0  0  0  0
  159.5580  213.5110  144.5930 C   0  0  1  0  0  0  0  0  0  0  0  0
  158.9320  212.3630  144.1360 F   0  0  0  0  0  0  0  0  0  0  0  0
  161.5590  213.8100  143.2370 C   0  0  0  0  0  2  0  0  0  0  0  0
  158.5590  214.3550  145.3850 C   0  0  0  0  0  2  0  0  0  0  0  0
  157.4200  213.5550  145.8130 N   0  0  0  0  0  0  0  0  0  0  0  0
  156.9380  213.3090  149.4180 N   0  0  0  0  0  1  0  0  0  0  0  0
  156.0940  214.4530  147.5080 N   0  0  0  0  0  0  0  0  0  0  0  0
  156.9000  213.6050  148.0280 C   0  0  0  0  0  0  0  0  0  0  0  0
  156.3840  214.4530  146.1410 N   0  0  0  0  0  2  0  0  0  0  0  0
  157.7520  213.0100  147.0670 N   0  0  0  0  0  2  0  0  0  0  0  0
  160.4540  209.4370  152.1530 C   0  0  0  0  0  2  0  0  0  0  0  0
  159.5650  210.8800  155.5740 C   0  0  0  0  0  2  0  0  0  0  0  0
  158.3990  211.7000  155.0000 C   0  0  0  0  0  0  0  0  0  0  0  0
  157.0900  211.0640  155.4270 C   0  0  0  0  0  1  0  0  0  0  0  0
  159.8470  211.7390  152.9150 C   0  0  0  0  0  2  0  0  0  0  0  0
  160.0390  209.8080  154.5970 C   0  0  0  0  0  2  0  0  0  0  0  0
  160.5640  210.4350  153.2960 C   0  0  0  0  0  3  0  0  0  0  0  0
  158.4630  213.0990  155.5760 C   0  0  0  0  0  1  0  0  0  0  0  0
  158.4220  211.7860  153.4660 C   0  0  0  0  0  2  0  0  0  0  0  0
  1  6  1  6  0  0  0
  1  8  1  0  0  0  0
  2 12  1  0  0  0  0
  2 13  2  0  0  0  0
  3 14  2  0  0  0  0
  4 15  1  0  0  0  0
  5  1  1  0  0  0  0
  5  9  2  0  0  0  0
  7  4  2  0  0  0  0
  8  4  1  0  0  0  0
  9  7  1  0  0  0  0
 10 11  1  0  0  0  0
 10  3  1  0  0  0  0
 11  7  1  1  0  0  0
 11  2  1  0  0  0  0
 13 35  1  0  0  0  0
 14 13  1  0  0  0  0
 15 12  2  0  0  0  0
 16 17  1  6  0  0  0
 16  3  1  0  0  0  0
 18 19  1  0  0  0  0
 18 16  1  0  0  0  0
 19 20  1  1  0  0  0
 21 19  1  0  0  0  0
 22 21  1  1  0  0  0
 23 25  1  0  0  0  0
 24 22  1  0  0  0  0
 25 26  1  6  0  0  0
 25 28  1  0  0  0  0
 25 22  1  0  0  0  0
 27 23  1  0  0  0  0
 27 24  1  0  0  0  0
 28 29  1  0  0  0  0
 29 33  1  0  0  0  0
 29 34  1  0  0  0  0
 31 32  2  0  0  0  0
 32 30  1  0  0  0  0
 33 31  1  0  0  0  0
 34 32  1  0  0  0  0
 35 41  1  0  0  0  0
 37 38  1  0  0  0  0
 37 36  1  0  0  0  0
 37 42  1  0  0  0  0
 39 41  1  0  0  0  0
 39 43  1  0  0  0  0
 40 36  1  0  0  0  0
 41 40  1  0  0  0  0
 43 37  1  0  0  0  0
M  END
>  <MODEL>
5

>  <REMARK>
 VINA RESULT:      -8.1      2.469      3.551
  Name = 
  9 active torsions:
  status: ('A' for Active; 'I' for Inactive)
    1  A    between atoms: C_1  and  C_34
    2  A    between atoms: C_1  and  C_35
    3  A    between atoms: C_2  and  C_6
    4  A    between atoms: C_2  and  C_13
    5  A    between atoms: O_3  and  C_4
    6  A    between atoms: O_3  and  C_12
    7  A    between atoms: C_6  and  C_12
    8  A    between atoms: N_11  and  C_14
    9  A    between atoms: C_14  and  C_22
                            x       y       z     vdW  Elec       q    Type
                         _______ _______ _______ _____ _____    ______ ____

>  <TORSDO>
F 9

$$$$
=
 OpenBabel11062409563D

 43 48  0  0  1  0  0  0  0  0999 V2000
  160.4150  213.0520  150.1080 C   0  0  1  0  0  3  0  0  0  0  0  0
  161.8290  208.1690  150.2040 C   0  0  0  0  0  0  0  0  0  0  0  0
  161.0590  207.1890  152.7590 C   0  0  0  0  0  0  0  0  0  0  0  0
  161.6300  210.9140  149.6620 C   0  0  0  0  0  0  0  0  0  0  0  0
  160.2700  212.5860  151.5310 C   0  0  0  0  0  3  0  0  0  0  0  0
  160.5490  214.4380  150.0740 O   0  0  0  0  0  1  0  0  0  0  0  0
  161.1620  210.4050  150.8890 C   0  0  0  0  0  0  0  0  0  0  0  0
  161.6110  212.3950  149.4090 C   0  0  0  0  0  2  0  0  0  0  0  0
  160.5810  211.3330  151.8780 C   0  0  0  0  0  3  0  0  0  0  0  0
  160.8550  208.5250  152.3970 O   0  0  0  0  0  0  0  0  0  0  0  0
  161.2740  209.0340  151.1640 C   0  0  0  0  0  0  0  0  0  0  0  0
  162.3000  208.6870  148.9900 C   0  0  0  0  0  2  0  0  0  0  0  0
  161.8950  206.6860  150.4580 C   0  0  0  0  0  0  0  0  0  0  0  0
  161.5770  206.3160  151.8850 C   0  0  0  0  0  3  0  0  0  0  0  0
  162.2100  210.0560  148.7250 C   0  0  0  0  0  3  0  0  0  0  0  0
  160.7190  206.7640  154.1500 C   0  0  1  0  0  3  0  0  0  0  0  0
  161.1670  205.4630  154.3910 O   0  0  0  0  0  1  0  0  0  0  0  0
  161.3120  207.7260  155.1700 C   0  0  0  0  0  2  0  0  0  0  0  0
  160.2380  208.2400  156.1160 C   0  0  1  0  0  3  0  0  0  0  0  0
  159.7950  207.1080  157.0210 C   0  0  0  0  0  1  0  0  0  0  0  0
  160.7510  209.2840  156.8940 O   0  0  0  0  0  0  0  0  0  0  0  0
  161.2470  210.2200  155.9760 C   0  0  2  0  0  3  0  0  0  0  0  0
  161.4430  212.2610  157.2610 C   0  0  0  0  0  2  0  0  0  0  0  0
  162.7230  210.4400  156.2500 C   0  0  0  0  0  2  0  0  0  0  0  0
  160.6120  211.5910  156.1810 C   0  0  1  0  0  0  0  0  0  0  0  0
  160.7250  212.3140  155.0060 F   0  0  0  0  0  0  0  0  0  0  0  0
  162.8110  211.5990  157.2280 C   0  0  0  0  0  2  0  0  0  0  0  0
  159.1390  211.4980  156.5830 C   0  0  0  0  0  2  0  0  0  0  0  0
  158.2730  211.9680  155.5090 N   0  0  0  0  0  0  0  0  0  0  0  0
  155.1920  210.0770  155.0360 N   0  0  0  0  0  1  0  0  0  0  0  0
  155.9960  212.1040  155.9920 N   0  0  0  0  0  0  0  0  0  0  0  0
  156.2120  211.0140  155.3570 C   0  0  0  0  0  0  0  0  0  0  0  0
  157.2440  212.7220  156.1080 N   0  0  0  0  0  2  0  0  0  0  0  0
  157.5780  210.8440  155.0240 N   0  0  0  0  0  2  0  0  0  0  0  0
  160.9440  205.9550  149.5180 C   0  0  0  0  0  2  0  0  0  0  0  0
  160.9490  202.6440  147.6170 C   0  0  0  0  0  2  0  0  0  0  0  0
  160.5450  201.8480  148.8680 C   0  0  0  0  0  0  0  0  0  0  0  0
  159.1000  201.4100  148.7280 C   0  0  0  0  0  1  0  0  0  0  0  0
  161.8170  203.6810  150.0790 C   0  0  0  0  0  2  0  0  0  0  0  0
  160.7240  204.1420  147.8010 C   0  0  0  0  0  2  0  0  0  0  0  0
  161.5810  204.6960  148.9510 C   0  0  0  0  0  3  0  0  0  0  0  0
  161.4140  200.6110  148.9550 C   0  0  0  0  0  1  0  0  0  0  0  0
  160.6860  202.6560  150.1670 C   0  0  0  0  0  2  0  0  0  0  0  0
  1  6  1  1  0  0  0
  1  5  1  0  0  0  0
  2 13  2  0  0  0  0
  2 11  1  0  0  0  0
  3 16  1  0  0  0  0
  4  7  1  0  0  0  0
  5  9  2  0  0  0  0
  7 11  2  0  0  0  0
  7  9  1  0  0  0  0
  8  4  1  0  0  0  0
  8  1  1  0  0  0  0
 10  3  1  0  0  0  0
 11 10  1  0  0  0  0
 12  2  1  0  0  0  0
 13 14  1  0  0  0  0
 14  3  2  0  0  0  0
 15 12  1  0  0  0  0
 15  4  2  0  0  0  0
 16 17  1  1  0  0  0
 16 18  1  0  0  0  0
 18 19  1  0  0  0  0
 19 21  1  0  0  0  0
 19 20  1  1  0  0  0
 22 25  1  0  0  0  0
 22 24  1  0  0  0  0
 22 21  1  1  0  0  0
 24 27  1  0  0  0  0
 25 26  1  6  0  0  0
 25 28  1  0  0  0  0
 25 23  1  0  0  0  0
 27 23  1  0  0  0  0
 29 33  1  0  0  0  0
 29 28  1  0  0  0  0
 30 32  1  0  0  0  0
 31 33  1  0  0  0  0
 32 31  2  0  0  0  0
 34 32  1  0  0  0  0
 34 29  1  0  0  0  0
 35 13  1  0  0  0  0
 36 40  1  0  0  0  0
 36 37  1  0  0  0  0
 37 42  1  0  0  0  0
 37 43  1  0  0  0  0
 38 37  1  0  0  0  0
 39 43  1  0  0  0  0
 40 41  1  0  0  0  0
 41 35  1  0  0  0  0
 41 39  1  0  0  0  0
M  END
>  <MODEL>
6

>  <REMARK>
 VINA RESULT:      -7.4      5.495      9.901
  Name = 
  9 active torsions:
  status: ('A' for Active; 'I' for Inactive)
    1  A    between atoms: C_1  and  C_34
    2  A    between atoms: C_1  and  C_35
    3  A    between atoms: C_2  and  C_6
    4  A    between atoms: C_2  and  C_13
    5  A    between atoms: O_3  and  C_4
    6  A    between atoms: O_3  and  C_12
    7  A    between atoms: C_6  and  C_12
    8  A    between atoms: N_11  and  C_14
    9  A    between atoms: C_14  and  C_22
                            x       y       z     vdW  Elec       q    Type
                         _______ _______ _______ _____ _____    ______ ____

>  <TORSDO>
F 9

$$$$
=
 OpenBabel11062409563D

 43 48  0  0  1  0  0  0  0  0999 V2000
  160.4710  203.2130  148.2760 C   0  0  1  0  0  3  0  0  0  0  0  0
  161.3510  206.1990  152.2970 C   0  0  0  0  0  0  0  0  0  0  0  0
  161.6110  208.8330  151.2630 C   0  0  0  0  0  0  0  0  0  0  0  0
  161.1970  204.0300  150.5240 C   0  0  0  0  0  0  0  0  0  0  0  0
  160.8810  204.5570  147.7370 C   0  0  0  0  0  3  0  0  0  0  0  0
  160.7040  202.2270  147.3190 O   0  0  0  0  0  1  0  0  0  0  0  0
  161.2290  205.3460  150.0220 C   0  0  0  0  0  0  0  0  0  0  0  0
  161.2100  202.8660  149.5730 C   0  0  0  0  0  2  0  0  0  0  0  0
  161.1910  205.5610  148.5630 C   0  0  0  0  0  3  0  0  0  0  0  0
  161.3990  207.7370  150.4210 O   0  0  0  0  0  0  0  0  0  0  0  0
  161.3200  206.4290  150.9090 C   0  0  2  0  0  3  0  0  0  0  0  0
  161.3270  204.8850  152.7840 C   0  0  0  0  0  3  0  0  0  0  0  0
  161.3810  207.3530  153.2630 C   0  0  0  0  0  0  0  0  0  0  0  0
  161.6450  208.6780  152.5920 C   0  0  0  0  0  3  0  0  0  0  0  0
  161.2610  203.8050  151.9000 C   0  0  0  0  0  3  0  0  0  0  0  0
  161.8350  210.1770  150.6470 C   0  0  1  0  0  3  0  0  0  0  0  0
  163.0450  210.7230  151.0800 O   0  0  0  0  0  1  0  0  0  0  0  0
  161.8080  210.0860  149.1280 C   0  0  0  0  0  2  0  0  0  0  0  0
  161.7180  211.4690  148.5050 C   0  0  1  0  0  3  0  0  0  0  0  0
  163.0660  211.8370  147.9190 C   0  0  0  0  0  1  0  0  0  0  0  0
  160.7540  211.4710  147.4910 O   0  0  0  0  0  0  0  0  0  0  0  0
  160.4300  212.8200  147.2900 C   0  0  2  0  0  3  0  0  0  0  0  0
  158.3400  212.7520  146.0730 C   0  0  0  0  0  2  0  0  0  0  0  0
  159.3310  213.2100  148.2600 C   0  0  0  0  0  2  0  0  0  0  0  0
  159.8200  213.0470  145.9110 C   0  0  1  0  0  0  0  0  0  0  0  0
  159.9840  214.3780  145.5660 F   0  0  0  0  0  0  0  0  0  0  0  0
  158.0150  212.9590  147.5430 C   0  0  0  0  0  2  0  0  0  0  0  0
  160.4550  212.1610  144.8380 C   0  0  0  0  0  2  0  0  0  0  0  0
  160.9540  212.9600  143.7270 N   0  0  0  0  0  0  0  0  0  0  0  0
  162.1900  211.0710  140.8640 N   0  0  0  0  0  1  0  0  0  0  0  0
  160.2860  212.3040  141.5900 N   0  0  0  0  0  0  0  0  0  0  0  0
  161.4630  211.8490  141.8070 C   0  0  0  0  0  0  0  0  0  0  0  0
  159.9350  212.9960  142.7530 N   0  0  0  0  0  2  0  0  0  0  0  0
  161.9500  212.1970  143.0900 N   0  0  0  0  0  2  0  0  0  0  0  0
  160.0660  207.4220  154.0300 C   0  0  0  0  0  2  0  0  0  0  0  0
  159.6420  210.2520  156.5580 C   0  0  0  0  0  2  0  0  0  0  0  0
  160.8960  210.9820  156.0530 C   0  0  0  0  0  0  0  0  0  0  0  0
  160.4710  212.2140  155.2780 C   0  0  0  0  0  1  0  0  0  0  0  0
  161.6800  208.6300  155.5080 C   0  0  0  0  0  2  0  0  0  0  0  0
  159.1730  209.1830  155.5750 C   0  0  0  0  0  2  0  0  0  0  0  0
  160.2450  208.0990  155.3810 C   0  0  0  0  0  3  0  0  0  0  0  0
  161.7120  211.4260  157.2490 C   0  0  0  0  0  1  0  0  0  0  0  0
  161.7730  210.1110  155.1400 C   0  0  0  0  0  2  0  0  0  0  0  0
  1  6  1  6  0  0  0
  1  8  1  0  0  0  0
  2 12  1  0  0  0  0
  2 13  2  0  0  0  0
  3 14  2  0  0  0  0
  4 15  1  0  0  0  0
  5  1  1  0  0  0  0
  5  9  2  0  0  0  0
  7  4  2  0  0  0  0
  8  4  1  0  0  0  0
  9  7  1  0  0  0  0
 10 11  1  0  0  0  0
 10  3  1  0  0  0  0
 11  7  1  6  0  0  0
 11  2  1  0  0  0  0
 13 35  1  0  0  0  0
 14 13  1  0  0  0  0
 15 12  2  0  0  0  0
 16 17  1  6  0  0  0
 16  3  1  0  0  0  0
 18 16  1  0  0  0  0
 19 20  1  6  0  0  0
 19 18  1  0  0  0  0
 21 19  1  0  0  0  0
 22 21  1  6  0  0  0
 22 24  1  0  0  0  0
 23 27  1  0  0  0  0
 25 26  1  6  0  0  0
 25 23  1  0  0  0  0
 25 22  1  0  0  0  0
 27 24  1  0  0  0  0
 28 25  1  0  0  0  0
 29 28  1  0  0  0  0
 30 32  1  0  0  0  0
 31 32  2  0  0  0  0
 31 33  1  0  0  0  0
 32 34  1  0  0  0  0
 33 29  1  0  0  0  0
 34 29  1  0  0  0  0
 35 41  1  0  0  0  0
 37 36  1  0  0  0  0
 37 42  1  0  0  0  0
 38 37  1  0  0  0  0
 40 36  1  0  0  0  0
 41 39  1  0  0  0  0
 41 40  1  0  0  0  0
 43 39  1  0  0  0  0
 43 37  1  0  0  0  0
M  END
>  <MODEL>
7

>  <REMARK>
 VINA RESULT:      -7.0      1.306      1.946
  Name = 
  9 active torsions:
  status: ('A' for Active; 'I' for Inactive)
    1  A    between atoms: C_1  and  C_34
    2  A    between atoms: C_1  and  C_35
    3  A    between atoms: C_2  and  C_6
    4  A    between atoms: C_2  and  C_13
    5  A    between atoms: O_3  and  C_4
    6  A    between atoms: O_3  and  C_12
    7  A    between atoms: C_6  and  C_12
    8  A    between atoms: N_11  and  C_14
    9  A    between atoms: C_14  and  C_22
                            x       y       z     vdW  Elec       q    Type
                         _______ _______ _______ _____ _____    ______ ____

>  <TORSDO>
F 9

$$$$
=
 OpenBabel11062409563D

 43 48  0  0  1  0  0  0  0  0999 V2000
  155.5780  212.7380  155.8660 C   0  0  1  0  0  3  0  0  0  0  0  0
  159.6590  212.4410  152.8470 C   0  0  0  0  0  0  0  0  0  0  0  0
  160.7060  209.8240  153.2150 C   0  0  0  0  0  0  0  0  0  0  0  0
  157.5880  213.3440  154.5100 C   0  0  0  0  0  0  0  0  0  0  0  0
  156.3050  211.4740  156.2410 C   0  0  0  0  0  3  0  0  0  0  0  0
  154.7810  213.1590  156.9290 O   0  0  0  0  0  1  0  0  0  0  0  0
  158.0480  212.0170  154.6210 C   0  0  0  0  0  0  0  0  0  0  0  0
  156.5450  213.8570  155.4640 C   0  0  0  0  0  2  0  0  0  0  0  0
  157.4360  211.1240  155.6220 C   0  0  0  0  0  3  0  0  0  0  0  0
  159.5880  210.2700  153.9290 O   0  0  0  0  0  0  0  0  0  0  0  0
  159.0930  211.5710  153.7970 C   0  0  0  0  0  0  0  0  0  0  0  0
  159.1990  213.7610  152.7530 C   0  0  0  0  0  2  0  0  0  0  0  0
  160.7350  211.9560  151.9120 C   0  0  0  0  0  0  0  0  0  0  0  0
  161.2840  210.6040  152.2930 C   0  0  0  0  0  3  0  0  0  0  0  0
  158.1750  214.2140  153.5880 C   0  0  0  0  0  3  0  0  0  0  0  0
  161.2620  208.4720  153.5270 C   0  0  1  0  0  3  0  0  0  0  0  0
  161.2620  208.2450  154.9050 O   0  0  0  0  0  1  0  0  0  0  0  0
  160.4720  207.3850  152.8120 C   0  0  0  0  0  2  0  0  0  0  0  0
  161.3950  206.4940  151.9970 C   0  0  1  0  0  3  0  0  0  0  0  0
  161.3560  205.0900  152.5650 C   0  0  0  0  0  1  0  0  0  0  0  0
  160.9740  206.4680  150.6620 O   0  0  0  0  0  0  0  0  0  0  0  0
  162.1190  206.7570  149.9070 C   0  0  2  0  0  3  0  0  0  0  0  0
  161.2480  207.5570  147.7960 C   0  0  0  0  0  2  0  0  0  0  0  0
  162.3200  208.2600  149.8770 C   0  0  0  0  0  2  0  0  0  0  0  0
  161.9320  206.3670  148.4440 C   0  0  1  0  0  0  0  0  0  0  0  0
  163.1800  206.1910  147.8690 F   0  0  0  0  0  0  0  0  0  0  0  0
  161.5840  208.7690  148.6500 C   0  0  0  0  0  2  0  0  0  0  0  0
  161.1110  205.0880  148.2800 C   0  0  0  0  0  2  0  0  0  0  0  0
  161.8840  204.0510  147.6100 N   0  0  0  0  0  0  0  0  0  0  0  0
  161.0380  200.6240  148.5230 N   0  0  0  0  0  1  0  0  0  0  0  0
  160.6870  202.2230  146.7930 N   0  0  0  0  0  0  0  0  0  0  0  0
  161.2060  201.9000  147.9180 C   0  0  0  0  0  0  0  0  0  0  0  0
  161.0810  203.5450  146.5670 N   0  0  0  0  0  2  0  0  0  0  0  0
  161.9520  202.9570  148.4930 N   0  0  0  0  0  2  0  0  0  0  0  0
  160.1990  211.9050  150.4860 C   0  0  0  0  0  2  0  0  0  0  0  0
  160.2590  214.3750  147.5750 C   0  0  0  0  0  2  0  0  0  0  0  0
  160.8320  213.3270  146.6100 C   0  0  0  0  0  0  0  0  0  0  0  0
  159.7470  212.9020  145.6400 C   0  0  0  0  0  1  0  0  0  0  0  0
  161.8970  212.4020  148.7210 C   0  0  0  0  0  2  0  0  0  0  0  0
  159.7050  213.7330  148.8440 C   0  0  0  0  0  2  0  0  0  0  0  0
  160.8080  213.0000  149.6230 C   0  0  0  0  0  3  0  0  0  0  0  0
  161.9590  213.9620  145.8200 C   0  0  0  0  0  1  0  0  0  0  0  0
  161.3630  212.0750  147.3260 C   0  0  0  0  0  2  0  0  0  0  0  0
  1  5  1  0  0  0  0
  1  6  1  1  0  0  0
  2 11  1  0  0  0  0
  3 16  1  0  0  0  0
  3 10  1  0  0  0  0
  4  7  1  0  0  0  0
  4  8  1  0  0  0  0
  7  9  1  0  0  0  0
  8  1  1  0  0  0  0
  9  5  2  0  0  0  0
 11 10  1  0  0  0  0
 11  7  2  0  0  0  0
 12  2  1  0  0  0  0
 12 15  1  0  0  0  0
 13 14  1  0  0  0  0
 13  2  2  0  0  0  0
 14  3  2  0  0  0  0
 15  4  2  0  0  0  0
 16 17  1  1  0  0  0
 18 16  1  0  0  0  0
 19 20  1  1  0  0  0
 19 18  1  0  0  0  0
 21 19  1  0  0  0  0
 22 21  1  1  0  0  0
 23 25  1  0  0  0  0
 23 27  1  0  0  0  0
 24 22  1  0  0  0  0
 25 26  1  6  0  0  0
 25 22  1  0  0  0  0
 27 24  1  0  0  0  0
 28 25  1  0  0  0  0
 29 28  1  0  0  0  0
 29 34  1  0  0  0  0
 31 32  2  0  0  0  0
 32 34  1  0  0  0  0
 32 30  1  0  0  0  0
 33 31  1  0  0  0  0
 33 29  1  0  0  0  0
 35 13  1  0  0  0  0
 36 40  1  0  0  0  0
 37 43  1  0  0  0  0
 37 36  1  0  0  0  0
 38 37  1  0  0  0  0
 39 41  1  0  0  0  0
 40 41  1  0  0  0  0
 41 35  1  0  0  0  0
 42 37  1  0  0  0  0
 43 39  1  0  0  0  0
M  END
>  <MODEL>
8

>  <REMARK>
 VINA RESULT:      -6.9      4.641      8.529
  Name = 
  9 active torsions:
  status: ('A' for Active; 'I' for Inactive)
    1  A    between atoms: C_1  and  C_34
    2  A    between atoms: C_1  and  C_35
    3  A    between atoms: C_2  and  C_6
    4  A    between atoms: C_2  and  C_13
    5  A    between atoms: O_3  and  C_4
    6  A    between atoms: O_3  and  C_12
    7  A    between atoms: C_6  and  C_12
    8  A    between atoms: N_11  and  C_14
    9  A    between atoms: C_14  and  C_22
                            x       y       z     vdW  Elec       q    Type
                         _______ _______ _______ _____ _____    ______ ____

>  <TORSDO>
F 9

$$$$
=
 OpenBabel11062409563D

 43 48  0  0  1  0  0  0  0  0999 V2000
  160.4390  213.0610  149.9550 C   0  0  1  0  0  3  0  0  0  0  0  0
  161.9190  208.1970  150.0500 C   0  0  0  0  0  0  0  0  0  0  0  0
  161.0490  207.1720  152.5550 C   0  0  0  0  0  0  0  0  0  0  0  0
  161.7040  210.9470  149.5360 C   0  0  0  0  0  0  0  0  0  0  0  0
  160.2370  212.5730  151.3640 C   0  0  0  0  0  3  0  0  0  0  0  0
  160.5530  214.4500  149.9460 O   0  0  0  0  0  1  0  0  0  0  0  0
  161.1880  210.4150  150.7340 C   0  0  0  0  0  0  0  0  0  0  0  0
  161.6740  212.4310  149.3020 C   0  0  0  0  0  2  0  0  0  0  0  0
  160.5500  211.3200  151.7080 C   0  0  0  0  0  3  0  0  0  0  0  0
  160.8420  208.5100  152.2020 O   0  0  0  0  0  0  0  0  0  0  0  0
  161.3090  209.0420  150.9960 C   0  0  0  0  0  0  0  0  0  0  0  0
  162.4350  208.7390  148.8660 C   0  0  0  0  0  2  0  0  0  0  0  0
  161.9950  206.7120  150.2880 C   0  0  0  0  0  0  0  0  0  0  0  0
  161.6190  206.3190  151.6940 C   0  0  0  0  0  3  0  0  0  0  0  0
  162.3370  210.1100  148.6150 C   0  0  0  0  0  3  0  0  0  0  0  0
  160.6530  206.7230  153.9240 C   0  0  1  0  0  3  0  0  0  0  0  0
  161.1310  205.4350  154.1780 O   0  0  0  0  0  1  0  0  0  0  0  0
  161.1620  207.6940  154.9800 C   0  0  0  0  0  2  0  0  0  0  0  0
  160.1350  207.8760  156.0860 C   0  0  1  0  0  3  0  0  0  0  0  0
  160.3250  206.7860  157.1210 C   0  0  0  0  0  1  0  0  0  0  0  0
  160.3060  209.1270  156.6910 O   0  0  0  0  0  0  0  0  0  0  0  0
  161.1180  209.8550  155.8110 C   0  0  2  0  0  3  0  0  0  0  0  0
  161.4350  211.9810  156.9230 C   0  0  0  0  0  2  0  0  0  0  0  0
  162.5350  209.8740  156.3530 C   0  0  0  0  0  2  0  0  0  0  0  0
  160.7080  211.3240  155.7630 C   0  0  1  0  0  0  0  0  0  0  0  0
  161.1590  211.8730  154.5740 F   0  0  0  0  0  0  0  0  0  0  0  0
  162.6470  211.1150  157.2220 C   0  0  0  0  0  2  0  0  0  0  0  0
  159.1950  211.5120  155.8700 C   0  0  0  0  0  2  0  0  0  0  0  0
  158.6310  211.9540  154.6010 N   0  0  0  0  0  0  0  0  0  0  0  0
  155.1900  213.1500  154.7420 N   0  0  0  0  0  1  0  0  0  0  0  0
  157.4300  213.9520  154.6340 N   0  0  0  0  0  0  0  0  0  0  0  0
  156.6000  212.9780  154.6770 C   0  0  0  0  0  0  0  0  0  0  0  0
  158.6960  213.3620  154.5870 N   0  0  0  0  0  2  0  0  0  0  0  0
  157.2450  211.7180  154.6660 N   0  0  0  0  0  2  0  0  0  0  0  0
  161.0970  205.9810  149.2970 C   0  0  0  0  0  2  0  0  0  0  0  0
  160.3560  206.1900  145.5570 C   0  0  0  0  0  2  0  0  0  0  0  0
  161.2280  204.9630  145.2470 C   0  0  0  0  0  0  0  0  0  0  0  0
  160.3300  203.7920  144.9030 C   0  0  0  0  0  1  0  0  0  0  0  0
  162.5410  205.7620  147.2680 C   0  0  0  0  0  2  0  0  0  0  0  0
  160.0400  206.2990  147.0460 C   0  0  0  0  0  2  0  0  0  0  0  0
  161.3230  206.4730  147.8740 C   0  0  0  0  0  3  0  0  0  0  0  0
  162.0900  205.2760  144.0420 C   0  0  0  0  0  1  0  0  0  0  0  0
  162.1330  204.5570  146.4210 C   0  0  0  0  0  2  0  0  0  0  0  0
  1  6  1  1  0  0  0
  1  5  1  0  0  0  0
  2 13  2  0  0  0  0
  2 11  1  0  0  0  0
  3 16  1  0  0  0  0
  4  7  1  0  0  0  0
  5  9  2  0  0  0  0
  7 11  2  0  0  0  0
  7  9  1  0  0  0  0
  8  4  1  0  0  0  0
  8  1  1  0  0  0  0
 10  3  1  0  0  0  0
 11 10  1  0  0  0  0
 12  2  1  0  0  0  0
 13 14  1  0  0  0  0
 14  3  2  0  0  0  0
 15 12  1  0  0  0  0
 15  4  2  0  0  0  0
 16 17  1  1  0  0  0
 16 18  1  0  0  0  0
 18 19  1  0  0  0  0
 19 21  1  0  0  0  0
 19 20  1  1  0  0  0
 22 24  1  0  0  0  0
 22 21  1  1  0  0  0
 23 27  1  0  0  0  0
 24 27  1  0  0  0  0
 25 26  1  6  0  0  0
 25 22  1  0  0  0  0
 25 28  1  0  0  0  0
 25 23  1  0  0  0  0
 29 34  1  0  0  0  0
 29 28  1  0  0  0  0
 31 32  2  0  0  0  0
 32 30  1  0  0  0  0
 33 29  1  0  0  0  0
 33 31  1  0  0  0  0
 34 32  1  0  0  0  0
 35 13  1  0  0  0  0
 36 40  1  0  0  0  0
 37 36  1  0  0  0  0
 37 43  1  0  0  0  0
 38 37  1  0  0  0  0
 39 41  1  0  0  0  0
 40 41  1  0  0  0  0
 41 35  1  0  0  0  0
 42 37  1  0  0  0  0
 43 39  1  0  0  0  0
M  END
>  <MODEL>
9

>  <REMARK>
 VINA RESULT:      -6.5      5.277      9.697
  Name = 
  9 active torsions:
  status: ('A' for Active; 'I' for Inactive)
    1  A    between atoms: C_1  and  C_34
    2  A    between atoms: C_1  and  C_35
    3  A    between atoms: C_2  and  C_6
    4  A    between atoms: C_2  and  C_13
    5  A    between atoms: O_3  and  C_4
    6  A    between atoms: O_3  and  C_12
    7  A    between atoms: C_6  and  C_12
    8  A    between atoms: N_11  and  C_14
    9  A    between atoms: C_14  and  C_22
                            x       y       z     vdW  Elec       q    Type
                         _______ _______ _______ _____ _____    ______ ____

>  <TORSDO>
F 9

$$$$
