=
 OpenBabel11062407553D

 34 40  0  0  1  0  0  0  0  0999 V2000
  161.1450  205.9240  152.5580 C   0  0  0  0  0  0  0  0  0  0  0  0
  161.3110  208.3140  153.0140 C   0  0  0  0  0  0  0  0  0  0  0  0
  161.7880  207.4570  150.7950 C   0  0  0  0  0  0  0  0  0  0  0  0
  162.0230  209.1180  149.0560 N   0  0  0  0  0  0  0  0  0  0  0  0
  160.7490  206.8160  154.7690 C   0  0  0  0  0  3  0  0  0  0  0  0
  160.9570  208.0840  154.3040 N   0  0  0  0  0  0  0  0  0  0  0  0
  161.7320  209.8810  151.1980 C   0  0  2  0  0  3  0  0  0  0  0  0
  161.4520  207.2250  152.1300 C   0  0  0  0  0  0  0  0  0  0  0  0
  160.4990  212.0370  150.4390 N   0  0  0  0  0  2  0  0  0  0  0  0
  161.3730  210.3570  149.0030 N   0  0  0  0  0  0  0  0  0  0  0  0
  160.8230  205.7150  153.9000 C   0  0  0  0  0  3  0  0  0  0  0  0
  161.6410  206.4600  149.8290 C   0  0  0  0  0  0  0  0  0  0  0  0
  161.0910  204.8840  151.6140 C   0  0  0  0  0  3  0  0  0  0  0  0
  161.2690  209.6890  152.4420 C   0  0  0  0  0  2  0  0  0  0  0  0
  161.8360  208.1220  148.0720 N   0  0  0  0  0  0  0  0  0  0  0  0
  161.7100  206.8590  148.3940 C   0  0  0  0  0  0  0  0  0  0  0  0
  161.2470  210.8400  150.1980 C   0  0  0  0  0  0  0  0  0  0  0  0
  162.3650  208.7820  150.4200 C   0  0  1  0  0  3  0  0  0  0  0  0
  161.3090  205.1590  150.2500 C   0  0  0  0  0  3  0  0  0  0  0  0
  162.7390  204.4850  145.6970 C   0  0  0  0  0  0  0  0  0  0  0  0
  161.4200  204.2150  145.0320 C   0  0  0  0  0  2  0  0  0  0  0  0
  161.4830  205.8280  147.3180 C   0  0  2  0  0  3  0  0  0  0  0  0
  160.6550  205.5310  144.8790 C   0  0  0  0  0  2  0  0  0  0  0  0
  162.7770  205.2850  146.7730 C   0  0  0  0  0  3  0  0  0  0  0  0
  160.5190  206.3010  146.2090 C   0  0  0  0  0  2  0  0  0  0  0  0
  163.8860  203.9860  145.1660 F   0  0  0  0  0  0  0  0  0  0  0  0
  160.4620  212.7910  151.6850 C   0  0  1  0  0  3  0  0  0  0  0  0
  159.5680  213.9900  151.4690 C   0  0  0  0  0  2  0  0  0  0  0  0
  159.0650  212.8160  152.2900 C   0  0  2  0  0  3  0  0  0  0  0  0
  159.0730  213.2210  153.7430 C   0  0  0  0  0  0  0  0  0  0  0  0
  159.3660  212.7210  156.1820 C   0  0  0  0  0  1  0  0  0  0  0  0
  159.1330  212.2650  154.8210 N   0  0  0  0  0  0  0  0  0  0  0  0
  158.9290  210.8400  154.6160 C   0  0  0  0  0  1  0  0  0  0  0  0
  159.0330  214.4530  154.0110 O   0  0  0  0  0  0  0  0  0  0  0  0
  1 11  2  0  0  0  0
  2  6  1  0  0  0  0
  3  8  1  0  0  0  0
  4 18  1  0  0  0  0
  6  5  2  0  0  0  0
  7 14  1  6  0  0  0
  8  1  1  0  0  0  0
  8  2  2  0  0  0  0
 10  4  1  0  0  0  0
 10 17  2  0  0  0  0
 11  5  1  0  0  0  0
 12 19  1  0  0  0  0
 12  3  2  0  0  0  0
 13  1  1  0  0  0  0
 14  2  1  0  0  0  0
 15 16  2  0  0  0  0
 15  4  1  0  0  0  0
 16 12  1  0  0  0  0
 17  9  1  0  0  0  0
 17  7  1  0  0  0  0
 18  3  1  1  0  0  0
 18  7  1  0  0  0  0
 19 13  2  0  0  0  0
 20 24  2  0  0  0  0
 21 20  1  0  0  0  0
 22 16  1  1  0  0  0
 23 21  1  0  0  0  0
 23 25  1  0  0  0  0
 24 22  1  0  0  0  0
 25 22  1  0  0  0  0
 26 20  1  0  0  0  0
 27  9  1  6  0  0  0
 27 29  1  0  0  0  0
 28 27  1  0  0  0  0
 28 29  1  0  0  0  0
 29 30  1  1  0  0  0
 30 34  2  0  0  0  0
 30 32  1  0  0  0  0
 32 31  1  0  0  0  0
 33 32  1  0  0  0  0
M  END
>  <MODEL>
1

>  <REMARK>
 VINA RESULT:      -8.6      0.000      0.000
  Name = 
  3 active torsions:
  status: ('A' for Active; 'I' for Inactive)
    1  A    between atoms: C_3  and  N_17
    2  A    between atoms: C_12  and  C_28
    3  A    between atoms: C_13  and  C_14
                            x       y       z     vdW  Elec       q    Type
                         _______ _______ _______ _____ _____    ______ ____

>  <TORSDO>
F 3

$$$$
=
 OpenBabel11062407553D

 34 40  0  0  1  0  0  0  0  0999 V2000
  161.2480  210.9450  151.0630 C   0  0  0  0  0  0  0  0  0  0  0  0
  162.0140  208.6850  150.5590 C   0  0  0  0  0  0  0  0  0  0  0  0
  161.3780  209.2840  152.8230 C   0  0  0  0  0  0  0  0  0  0  0  0
  161.1750  207.4460  154.3780 N   0  0  0  0  0  0  0  0  0  0  0  0
  161.9600  210.3220  148.8390 C   0  0  0  0  0  3  0  0  0  0  0  0
  162.1840  209.0420  149.2600 N   0  0  0  0  0  0  0  0  0  0  0  0
  161.9290  206.9540  152.2690 C   0  0  2  0  0  3  0  0  0  0  0  0
  161.5820  209.6510  151.4910 C   0  0  0  0  0  0  0  0  0  0  0  0
  160.9040  204.5680  152.2810 N   0  0  0  0  0  2  0  0  0  0  0  0
  160.7960  206.1350  154.0640 N   0  0  0  0  0  0  0  0  0  0  0  0
  161.4720  211.2920  149.7290 C   0  0  0  0  0  3  0  0  0  0  0  0
  160.6720  210.1090  153.6990 C   0  0  0  0  0  0  0  0  0  0  0  0
  160.6270  211.8280  151.9620 C   0  0  0  0  0  3  0  0  0  0  0  0
  161.9900  207.2510  150.9630 C   0  0  0  0  0  2  0  0  0  0  0  0
  160.4270  208.2630  155.2530 N   0  0  0  0  0  0  0  0  0  0  0  0
  160.2180  209.5290  154.9960 C   0  0  0  0  0  0  0  0  0  0  0  0
  161.2590  205.8100  152.8990 C   0  0  0  0  0  0  0  0  0  0  0  0
  161.9790  208.0100  153.3160 C   0  0  1  0  0  3  0  0  0  0  0  0
  160.3130  211.4000  153.2670 C   0  0  0  0  0  3  0  0  0  0  0  0
  157.2890  211.6260  155.9930 C   0  0  0  0  0  0  0  0  0  0  0  0
  157.7980  212.2480  157.2610 C   0  0  0  0  0  2  0  0  0  0  0  0
  159.3890  210.3620  155.9400 C   0  0  2  0  0  3  0  0  0  0  0  0
  159.2460  212.6990  157.0540 C   0  0  0  0  0  2  0  0  0  0  0  0
  158.0630  210.7460  155.3390 C   0  0  0  0  0  3  0  0  0  0  0  0
  160.1530  211.5700  156.5240 C   0  0  0  0  0  2  0  0  0  0  0  0
  156.0920  212.0080  155.4770 F   0  0  0  0  0  0  0  0  0  0  0  0
  161.5160  203.9940  151.0900 C   0  0  1  0  0  3  0  0  0  0  0  0
  160.8600  202.6580  150.8340 C   0  0  0  0  0  2  0  0  0  0  0  0
  160.5140  203.8450  149.9540 C   0  0  2  0  0  3  0  0  0  0  0  0
  161.1830  203.6490  148.6160 C   0  0  0  0  0  0  0  0  0  0  0  0
  162.2470  204.5220  146.5210 C   0  0  0  0  0  1  0  0  0  0  0  0
  161.4000  204.7280  147.6850 N   0  0  0  0  0  0  0  0  0  0  0  0
  160.7720  206.0310  147.8350 C   0  0  0  0  0  1  0  0  0  0  0  0
  161.5690  202.4860  148.3160 O   0  0  0  0  0  0  0  0  0  0  0  0
  1  8  2  0  0  0  0
  1 13  1  0  0  0  0
  2 14  1  0  0  0  0
  2  8  1  0  0  0  0
  3 12  2  0  0  0  0
  4 15  1  0  0  0  0
  5  6  1  0  0  0  0
  5 11  2  0  0  0  0
  6  2  2  0  0  0  0
  7 14  1  6  0  0  0
  7 17  1  0  0  0  0
  7 18  1  0  0  0  0
  8  3  1  0  0  0  0
  9 17  1  0  0  0  0
 10  4  1  0  0  0  0
 11  1  1  0  0  0  0
 12 16  1  0  0  0  0
 13 19  2  0  0  0  0
 16 15  2  0  0  0  0
 17 10  2  0  0  0  0
 18  3  1  6  0  0  0
 18  4  1  0  0  0  0
 19 12  1  0  0  0  0
 20 21  1  0  0  0  0
 22 16  1  6  0  0  0
 22 25  1  0  0  0  0
 23 21  1  0  0  0  0
 24 22  1  0  0  0  0
 24 20  2  0  0  0  0
 25 23  1  0  0  0  0
 26 20  1  0  0  0  0
 27  9  1  1  0  0  0
 28 27  1  0  0  0  0
 29 30  1  6  0  0  0
 29 28  1  0  0  0  0
 29 27  1  0  0  0  0
 31 32  1  0  0  0  0
 32 33  1  0  0  0  0
 32 30  1  0  0  0  0
 34 30  2  0  0  0  0
M  END
>  <MODEL>
2

>  <REMARK>
 VINA RESULT:      -8.4      3.827      9.017
  Name = 
  3 active torsions:
  status: ('A' for Active; 'I' for Inactive)
    1  A    between atoms: C_3  and  N_17
    2  A    between atoms: C_12  and  C_28
    3  A    between atoms: C_13  and  C_14
                            x       y       z     vdW  Elec       q    Type
                         _______ _______ _______ _____ _____    ______ ____

>  <TORSDO>
F 3

$$$$
=
 OpenBabel11062407553D

 34 40  0  0  1  0  0  0  0  0999 V2000
  160.8210  207.0700  154.3660 C   0  0  0  0  0  0  0  0  0  0  0  0
  160.5440  209.4900  154.5040 C   0  0  0  0  0  0  0  0  0  0  0  0
  161.5670  208.4860  152.5450 C   0  0  0  0  0  0  0  0  0  0  0  0
  161.8930  209.9590  150.6590 N   0  0  0  0  0  0  0  0  0  0  0  0
  159.8740  208.1220  156.3250 C   0  0  0  0  0  3  0  0  0  0  0  0
  159.9820  209.3470  155.7310 N   0  0  0  0  0  0  0  0  0  0  0  0
  161.0800  210.8950  152.5880 C   0  0  2  0  0  3  0  0  0  0  0  0
  161.0130  208.3490  153.8200 C   0  0  0  0  0  0  0  0  0  0  0  0
  159.7200  212.7130  151.3290 N   0  0  0  0  0  2  0  0  0  0  0  0
  161.0930  211.0570  150.3190 N   0  0  0  0  0  0  0  0  0  0  0  0
  160.2760  206.9600  155.6460 C   0  0  0  0  0  3  0  0  0  0  0  0
  161.7590  207.3770  151.7190 C   0  0  0  0  0  0  0  0  0  0  0  0
  161.1050  205.9390  153.5830 C   0  0  0  0  0  3  0  0  0  0  0  0
  160.4150  210.7660  153.7460 C   0  0  0  0  0  2  0  0  0  0  0  0
  162.0500  208.8440  149.8080 N   0  0  0  0  0  0  0  0  0  0  0  0
  162.0490  207.6210  150.2760 C   0  0  0  0  0  0  0  0  0  0  0  0
  160.6660  211.6410  151.3940 C   0  0  0  0  0  0  0  0  0  0  0  0
  162.0070  209.8390  152.0960 C   0  0  1  0  0  3  0  0  0  0  0  0
  161.5440  206.0940  152.2540 C   0  0  0  0  0  3  0  0  0  0  0  0
  162.3250  205.9720  146.9340 C   0  0  0  0  0  0  0  0  0  0  0  0
  162.0560  204.5400  147.2950 C   0  0  0  0  0  2  0  0  0  0  0  0
  162.1900  206.4540  149.3330 C   0  0  2  0  0  3  0  0  0  0  0  0
  160.8820  204.4810  148.2750 C   0  0  0  0  0  2  0  0  0  0  0  0
  162.3570  206.8980  147.9040 C   0  0  0  0  0  3  0  0  0  0  0  0
  161.0830  205.3910  149.5040 C   0  0  0  0  0  2  0  0  0  0  0  0
  162.4580  206.3340  145.6310 F   0  0  0  0  0  0  0  0  0  0  0  0
  159.3290  213.5830  152.4300 C   0  0  1  0  0  3  0  0  0  0  0  0
  158.1920  214.4530  151.9470 C   0  0  0  0  0  2  0  0  0  0  0  0
  157.9080  213.3030  152.8960 C   0  0  2  0  0  3  0  0  0  0  0  0
  157.6240  213.8800  154.2610 C   0  0  0  0  0  0  0  0  0  0  0  0
  156.0770  214.4390  156.1540 C   0  0  0  0  0  1  0  0  0  0  0  0
  156.2870  214.0980  154.7550 N   0  0  0  0  0  0  0  0  0  0  0  0
  155.1150  214.0290  153.8990 C   0  0  0  0  0  1  0  0  0  0  0  0
  158.6090  214.1720  154.9930 O   0  0  0  0  0  0  0  0  0  0  0  0
  1 11  2  0  0  0  0
  2  6  1  0  0  0  0
  3  8  1  0  0  0  0
  4 18  1  0  0  0  0
  6  5  2  0  0  0  0
  7 14  1  6  0  0  0
  8  1  1  0  0  0  0
  8  2  2  0  0  0  0
  9 17  1  0  0  0  0
 10  4  1  0  0  0  0
 10 17  2  0  0  0  0
 11  5  1  0  0  0  0
 12 19  1  0  0  0  0
 12  3  2  0  0  0  0
 13  1  1  0  0  0  0
 14  2  1  0  0  0  0
 15 16  2  0  0  0  0
 15  4  1  0  0  0  0
 16 12  1  0  0  0  0
 17  7  1  0  0  0  0
 18  3  1  1  0  0  0
 18  7  1  0  0  0  0
 19 13  2  0  0  0  0
 20 21  1  0  0  0  0
 20 24  2  0  0  0  0
 21 23  1  0  0  0  0
 22 25  1  0  0  0  0
 22 16  1  1  0  0  0
 23 25  1  0  0  0  0
 24 22  1  0  0  0  0
 26 20  1  0  0  0  0
 27  9  1  6  0  0  0
 27 29  1  0  0  0  0
 28 27  1  0  0  0  0
 28 29  1  0  0  0  0
 29 30  1  1  0  0  0
 30 32  1  0  0  0  0
 30 34  2  0  0  0  0
 32 31  1  0  0  0  0
 33 32  1  0  0  0  0
M  END
>  <MODEL>
3

>  <REMARK>
 VINA RESULT:      -8.3      1.681      2.345
  Name = 
  3 active torsions:
  status: ('A' for Active; 'I' for Inactive)
    1  A    between atoms: C_3  and  N_17
    2  A    between atoms: C_12  and  C_28
    3  A    between atoms: C_13  and  C_14
                            x       y       z     vdW  Elec       q    Type
                         _______ _______ _______ _____ _____    ______ ____

>  <TORSDO>
F 3

$$$$
=
 OpenBabel11062407553D

 34 40  0  0  1  0  0  0  0  0999 V2000
  161.7460  209.8690  150.7530 C   0  0  0  0  0  0  0  0  0  0  0  0
  162.2550  207.5750  150.0980 C   0  0  0  0  0  0  0  0  0  0  0  0
  161.7720  208.1060  152.4160 C   0  0  0  0  0  0  0  0  0  0  0  0
  161.4410  206.2130  153.8800 N   0  0  0  0  0  0  0  0  0  0  0  0
  162.3040  209.3040  148.4700 C   0  0  0  0  0  3  0  0  0  0  0  0
  162.4110  207.9860  148.8140 N   0  0  0  0  0  0  0  0  0  0  0  0
  162.0590  205.7670  151.7180 C   0  0  2  0  0  3  0  0  0  0  0  0
  161.9610  208.5260  151.0980 C   0  0  0  0  0  0  0  0  0  0  0  0
  160.7950  203.5000  151.6500 N   0  0  0  0  0  2  0  0  0  0  0  0
  160.9170  204.9670  153.5150 N   0  0  0  0  0  0  0  0  0  0  0  0
  161.9530  210.2660  149.4310 C   0  0  0  0  0  3  0  0  0  0  0  0
  161.1880  208.9480  153.3650 C   0  0  0  0  0  0  0  0  0  0  0  0
  161.2540  210.7580  151.7240 C   0  0  0  0  0  3  0  0  0  0  0  0
  162.1000  206.1300  150.4270 C   0  0  0  0  0  2  0  0  0  0  0  0
  160.8150  207.0500  154.8290 N   0  0  0  0  0  0  0  0  0  0  0  0
  160.7270  208.3440  154.6480 C   0  0  0  0  0  0  0  0  0  0  0  0
  161.2990  204.6630  152.3160 C   0  0  0  0  0  0  0  0  0  0  0  0
  162.2570  206.7530  152.8150 C   0  0  1  0  0  3  0  0  0  0  0  0
  160.9480  210.2900  153.0170 C   0  0  0  0  0  3  0  0  0  0  0  0
  158.3550  210.9900  155.8040 C   0  0  0  0  0  0  0  0  0  0  0  0
  158.8250  211.2040  157.2130 C   0  0  0  0  0  2  0  0  0  0  0  0
  160.0260  209.2010  155.6700 C   0  0  2  0  0  3  0  0  0  0  0  0
  160.3550  211.2440  157.2320 C   0  0  0  0  0  2  0  0  0  0  0  0
  158.9500  210.0540  155.0500 C   0  0  0  0  0  3  0  0  0  0  0  0
  160.9930  210.0120  156.5580 C   0  0  0  0  0  2  0  0  0  0  0  0
  157.3900  211.7890  155.2770 F   0  0  0  0  0  0  0  0  0  0  0  0
  161.2980  202.9360  150.4050 C   0  0  1  0  0  3  0  0  0  0  0  0
  160.5040  201.6850  150.1120 C   0  0  0  0  0  2  0  0  0  0  0  0
  160.2410  202.9460  149.3100 C   0  0  2  0  0  3  0  0  0  0  0  0
  160.8330  202.7600  147.9340 C   0  0  0  0  0  0  0  0  0  0  0  0
  161.9870  203.6220  145.8820 C   0  0  0  0  0  1  0  0  0  0  0  0
  161.2180  203.8660  147.0920 N   0  0  0  0  0  0  0  0  0  0  0  0
  160.8360  205.2390  147.3800 C   0  0  0  0  0  1  0  0  0  0  0  0
  160.9980  201.5800  147.5190 O   0  0  0  0  0  0  0  0  0  0  0  0
  1  8  2  0  0  0  0
  1 13  1  0  0  0  0
  2 14  1  0  0  0  0
  2  8  1  0  0  0  0
  3 12  2  0  0  0  0
  4 15  1  0  0  0  0
  5  6  1  0  0  0  0
  5 11  2  0  0  0  0
  6  2  2  0  0  0  0
  7 14  1  6  0  0  0
  7 17  1  0  0  0  0
  7 18  1  0  0  0  0
  8  3  1  0  0  0  0
  9 17  1  0  0  0  0
 10  4  1  0  0  0  0
 11  1  1  0  0  0  0
 12 16  1  0  0  0  0
 13 19  2  0  0  0  0
 16 15  2  0  0  0  0
 17 10  2  0  0  0  0
 18  3  1  6  0  0  0
 18  4  1  0  0  0  0
 19 12  1  0  0  0  0
 20 21  1  0  0  0  0
 21 23  1  0  0  0  0
 22 16  1  6  0  0  0
 22 25  1  0  0  0  0
 24 22  1  0  0  0  0
 24 20  2  0  0  0  0
 25 23  1  0  0  0  0
 26 20  1  0  0  0  0
 27  9  1  1  0  0  0
 28 27  1  0  0  0  0
 29 30  1  6  0  0  0
 29 28  1  0  0  0  0
 29 27  1  0  0  0  0
 31 32  1  0  0  0  0
 32 33  1  0  0  0  0
 32 30  1  0  0  0  0
 34 30  2  0  0  0  0
M  END
>  <MODEL>
4

>  <REMARK>
 VINA RESULT:      -8.0      4.055      9.049
  Name = 
  3 active torsions:
  status: ('A' for Active; 'I' for Inactive)
    1  A    between atoms: C_3  and  N_17
    2  A    between atoms: C_12  and  C_28
    3  A    between atoms: C_13  and  C_14
                            x       y       z     vdW  Elec       q    Type
                         _______ _______ _______ _____ _____    ______ ____

>  <TORSDO>
F 3

$$$$
=
 OpenBabel11062407553D

 34 40  0  0  1  0  0  0  0  0999 V2000
  161.2280  205.0270  151.7480 C   0  0  0  0  0  0  0  0  0  0  0  0
  161.3100  207.1530  152.9390 C   0  0  0  0  0  0  0  0  0  0  0  0
  161.9460  207.0380  150.6000 C   0  0  0  0  0  0  0  0  0  0  0  0
  162.2510  209.1610  149.4880 N   0  0  0  0  0  0  0  0  0  0  0  0
  160.6740  205.1790  154.0950 C   0  0  0  0  0  3  0  0  0  0  0  0
  160.8820  206.5290  154.0650 N   0  0  0  0  0  0  0  0  0  0  0  0
  161.8080  209.2120  151.7380 C   0  0  2  0  0  3  0  0  0  0  0  0
  161.5320  206.3970  151.7700 C   0  0  0  0  0  0  0  0  0  0  0  0
  160.5760  211.4950  151.6110 N   0  0  0  0  0  2  0  0  0  0  0  0
  161.5770  210.3530  149.7830 N   0  0  0  0  0  0  0  0  0  0  0  0
  160.8280  204.4070  152.9320 C   0  0  0  0  0  3  0  0  0  0  0  0
  161.8830  206.3940  149.3630 C   0  0  0  0  0  0  0  0  0  0  0  0
  161.2580  204.3360  150.5240 C   0  0  0  0  0  3  0  0  0  0  0  0
  161.2730  208.6380  152.8250 C   0  0  0  0  0  2  0  0  0  0  0  0
  162.1500  208.5240  148.2320 N   0  0  0  0  0  0  0  0  0  0  0  0
  162.0330  207.2240  148.1330 C   0  0  0  0  0  0  0  0  0  0  0  0
  161.3650  210.4350  151.0580 C   0  0  0  0  0  0  0  0  0  0  0  0
  162.5140  208.4140  150.6990 C   0  0  1  0  0  3  0  0  0  0  0  0
  161.5550  205.0250  149.3320 C   0  0  0  0  0  3  0  0  0  0  0  0
  160.1780  205.6900  145.2730 C   0  0  0  0  0  0  0  0  0  0  0  0
  161.3010  205.0460  144.5130 C   0  0  0  0  0  2  0  0  0  0  0  0
  161.8980  206.5820  146.7760 C   0  0  2  0  0  3  0  0  0  0  0  0
  162.2420  204.3510  145.5000 C   0  0  0  0  0  2  0  0  0  0  0  0
  160.4570  206.3990  146.3770 C   0  0  0  0  0  3  0  0  0  0  0  0
  162.7280  205.2890  146.6240 C   0  0  0  0  0  2  0  0  0  0  0  0
  158.8910  205.4920  144.8880 F   0  0  0  0  0  0  0  0  0  0  0  0
  160.4430  211.8200  153.0240 C   0  0  1  0  0  3  0  0  0  0  0  0
  159.4540  212.9560  153.1440 C   0  0  0  0  0  2  0  0  0  0  0  0
  159.0350  211.5510  153.5370 C   0  0  2  0  0  3  0  0  0  0  0  0
  158.9720  211.4840  155.0430 C   0  0  0  0  0  0  0  0  0  0  0  0
  157.7180  211.5260  157.2140 C   0  0  0  0  0  1  0  0  0  0  0  0
  157.7890  211.8280  155.7920 N   0  0  0  0  0  0  0  0  0  0  0  0
  156.6540  212.5090  155.1930 C   0  0  0  0  0  1  0  0  0  0  0  0
  160.0050  211.1020  155.6590 O   0  0  0  0  0  0  0  0  0  0  0  0
  1  8  1  0  0  0  0
  1 11  2  0  0  0  0
  2  6  1  0  0  0  0
  3  8  1  0  0  0  0
  4 10  1  0  0  0  0
  4 18  1  0  0  0  0
  6  5  2  0  0  0  0
  7 14  1  6  0  0  0
  8  2  2  0  0  0  0
 10 17  2  0  0  0  0
 11  5  1  0  0  0  0
 12  3  2  0  0  0  0
 13  1  1  0  0  0  0
 14  2  1  0  0  0  0
 15  4  1  0  0  0  0
 16 15  2  0  0  0  0
 16 12  1  0  0  0  0
 17  9  1  0  0  0  0
 17  7  1  0  0  0  0
 18  3  1  6  0  0  0
 18  7  1  0  0  0  0
 19 12  1  0  0  0  0
 19 13  2  0  0  0  0
 20 24  2  0  0  0  0
 21 20  1  0  0  0  0
 21 23  1  0  0  0  0
 22 16  1  1  0  0  0
 23 25  1  0  0  0  0
 24 22  1  0  0  0  0
 25 22  1  0  0  0  0
 26 20  1  0  0  0  0
 27  9  1  6  0  0  0
 27 28  1  0  0  0  0
 27 29  1  0  0  0  0
 28 29  1  0  0  0  0
 29 30  1  1  0  0  0
 30 34  2  0  0  0  0
 30 32  1  0  0  0  0
 32 31  1  0  0  0  0
 33 32  1  0  0  0  0
M  END
>  <MODEL>
5

>  <REMARK>
 VINA RESULT:      -7.7      1.536      1.892
  Name = 
  3 active torsions:
  status: ('A' for Active; 'I' for Inactive)
    1  A    between atoms: C_3  and  N_17
    2  A    between atoms: C_12  and  C_28
    3  A    between atoms: C_13  and  C_14
                            x       y       z     vdW  Elec       q    Type
                         _______ _______ _______ _____ _____    ______ ____

>  <TORSDO>
F 3

$$$$
=
 OpenBabel11062407553D

 34 40  0  0  1  0  0  0  0  0999 V2000
  160.9280  203.7600  152.1920 C   0  0  0  0  0  0  0  0  0  0  0  0
  160.7670  203.8450  149.7600 C   0  0  0  0  0  0  0  0  0  0  0  0
  160.7890  205.8970  151.0550 C   0  0  0  0  0  0  0  0  0  0  0  0
  161.0470  207.9370  149.7870 N   0  0  0  0  0  0  0  0  0  0  0  0
  160.8310  201.7440  150.8650 C   0  0  0  0  0  3  0  0  0  0  0  0
  160.7960  202.4880  149.7200 N   0  0  0  0  0  0  0  0  0  0  0  0
  160.8580  205.9840  148.6000 C   0  0  2  0  0  3  0  0  0  0  0  0
  160.7900  204.5010  151.0080 C   0  0  0  0  0  0  0  0  0  0  0  0
  162.3310  206.8400  146.6400 N   0  0  0  0  0  2  0  0  0  0  0  0
  161.7460  208.0780  148.5820 N   0  0  0  0  0  0  0  0  0  0  0  0
  160.9140  202.3670  152.1200 C   0  0  0  0  0  3  0  0  0  0  0  0
  161.1150  206.5790  152.2290 C   0  0  0  0  0  0  0  0  0  0  0  0
  161.1560  204.4360  153.4030 C   0  0  0  0  0  3  0  0  0  0  0  0
  161.0050  204.6530  148.5310 C   0  0  0  0  0  2  0  0  0  0  0  0
  161.4150  208.6270  150.9630 N   0  0  0  0  0  0  0  0  0  0  0  0
  161.4040  208.0390  152.1320 C   0  0  0  0  0  0  0  0  0  0  0  0
  161.6080  207.0090  147.8650 C   0  0  0  0  0  0  0  0  0  0  0  0
  160.3770  206.6550  149.8380 C   0  0  1  0  0  3  0  0  0  0  0  0
  161.2780  205.8390  153.4150 C   0  0  0  0  0  3  0  0  0  0  0  0
  161.3590  208.9240  155.7630 C   0  0  0  0  0  0  0  0  0  0  0  0
  162.0850  210.2380  155.7490 C   0  0  0  0  0  2  0  0  0  0  0  0
  161.8320  208.8000  153.3610 C   0  0  2  0  0  3  0  0  0  0  0  0
  161.5820  211.0780  154.5740 C   0  0  0  0  0  2  0  0  0  0  0  0
  161.2060  208.2480  154.6150 C   0  0  0  0  0  3  0  0  0  0  0  0
  161.6550  210.3280  153.2280 C   0  0  0  0  0  2  0  0  0  0  0  0
  160.7980  208.4660  156.9130 F   0  0  0  0  0  0  0  0  0  0  0  0
  162.1080  205.7980  145.6470 C   0  0  1  0  0  3  0  0  0  0  0  0
  163.1600  204.7340  145.8520 C   0  0  0  0  0  2  0  0  0  0  0  0
  161.7310  204.4720  146.2910 C   0  0  2  0  0  3  0  0  0  0  0  0
  161.1070  203.5100  145.3100 C   0  0  0  0  0  0  0  0  0  0  0  0
  160.0060  201.3320  144.7360 C   0  0  0  0  0  1  0  0  0  0  0  0
  160.8100  202.1390  145.6410 N   0  0  0  0  0  0  0  0  0  0  0  0
  161.3170  201.4960  146.8430 C   0  0  0  0  0  1  0  0  0  0  0  0
  160.8310  203.9410  144.1570 O   0  0  0  0  0  0  0  0  0  0  0  0
  1 13  1  0  0  0  0
  2  8  1  0  0  0  0
  3 12  2  0  0  0  0
  4 18  1  0  0  0  0
  4 15  1  0  0  0  0
  5 11  2  0  0  0  0
  6  2  2  0  0  0  0
  6  5  1  0  0  0  0
  7 14  1  1  0  0  0
  7 18  1  0  0  0  0
  8  3  1  0  0  0  0
  8  1  2  0  0  0  0
  9 17  1  0  0  0  0
 10  4  1  0  0  0  0
 11  1  1  0  0  0  0
 12 19  1  0  0  0  0
 13 19  2  0  0  0  0
 14  2  1  0  0  0  0
 15 16  2  0  0  0  0
 16 12  1  0  0  0  0
 17 10  2  0  0  0  0
 17  7  1  0  0  0  0
 18  3  1  1  0  0  0
 20 26  1  0  0  0  0
 21 20  1  0  0  0  0
 22 16  1  6  0  0  0
 22 24  1  0  0  0  0
 23 21  1  0  0  0  0
 24 20  2  0  0  0  0
 25 22  1  0  0  0  0
 25 23  1  0  0  0  0
 27 28  1  0  0  0  0
 27 29  1  0  0  0  0
 27  9  1  1  0  0  0
 28 29  1  0  0  0  0
 29 30  1  6  0  0  0
 30 32  1  0  0  0  0
 31 32  1  0  0  0  0
 32 33  1  0  0  0  0
 34 30  2  0  0  0  0
M  END
>  <MODEL>
6

>  <REMARK>
 VINA RESULT:      -6.6      4.046      8.426
  Name = 
  3 active torsions:
  status: ('A' for Active; 'I' for Inactive)
    1  A    between atoms: C_3  and  N_17
    2  A    between atoms: C_12  and  C_28
    3  A    between atoms: C_13  and  C_14
                            x       y       z     vdW  Elec       q    Type
                         _______ _______ _______ _____ _____    ______ ____

>  <TORSDO>
F 3

$$$$
=
 OpenBabel11062407553D

 34 40  0  0  1  0  0  0  0  0999 V2000
  161.1910  211.7420  150.4530 C   0  0  0  0  0  0  0  0  0  0  0  0
  162.0760  209.6410  149.5850 C   0  0  0  0  0  0  0  0  0  0  0  0
  161.3660  209.8040  151.9000 C   0  0  0  0  0  0  0  0  0  0  0  0
  161.2220  207.7150  153.1040 N   0  0  0  0  0  0  0  0  0  0  0  0
  161.9760  211.5500  148.1760 C   0  0  0  0  0  3  0  0  0  0  0  0
  162.2540  210.2280  148.3740 N   0  0  0  0  0  0  0  0  0  0  0  0
  162.0420  207.6350  150.9640 C   0  0  2  0  0  3  0  0  0  0  0  0
  161.5790  210.4090  150.6580 C   0  0  0  0  0  0  0  0  0  0  0  0
  161.1350  205.2400  150.5300 N   0  0  0  0  0  2  0  0  0  0  0  0
  160.9140  206.4640  152.5550 N   0  0  0  0  0  0  0  0  0  0  0  0
  161.4240  212.3270  149.2080 C   0  0  0  0  0  3  0  0  0  0  0  0
  160.6030  210.4310  152.8860 C   0  0  0  0  0  0  0  0  0  0  0  0
  160.5090  212.4240  151.4750 C   0  0  0  0  0  3  0  0  0  0  0  0
  162.1140  208.1590  149.7310 C   0  0  0  0  0  2  0  0  0  0  0  0
  160.4170  208.3310  154.0870 N   0  0  0  0  0  0  0  0  0  0  0  0
  160.1520  209.6120  154.0480 C   0  0  0  0  0  0  0  0  0  0  0  0
  161.4150  206.3690  151.3650 C   0  0  0  0  0  0  0  0  0  0  0  0
  162.0190  208.4920  152.1790 C   0  0  1  0  0  3  0  0  0  0  0  0
  160.1900  211.7600  152.6750 C   0  0  0  0  0  3  0  0  0  0  0  0
  157.3270  211.7170  155.2960 C   0  0  0  0  0  0  0  0  0  0  0  0
  157.6740  211.8330  156.7510 C   0  0  0  0  0  2  0  0  0  0  0  0
  159.2650  210.2290  155.0990 C   0  0  2  0  0  3  0  0  0  0  0  0
  159.1740  212.1010  156.8910 C   0  0  0  0  0  2  0  0  0  0  0  0
  158.1060  210.9760  154.4940 C   0  0  0  0  0  3  0  0  0  0  0  0
  160.0380  211.0670  156.1400 C   0  0  0  0  0  2  0  0  0  0  0  0
  156.2800  212.4180  154.7850 F   0  0  0  0  0  0  0  0  0  0  0  0
  161.7970  204.9130  149.2750 C   0  0  1  0  0  3  0  0  0  0  0  0
  161.1170  203.6920  148.7000 C   0  0  0  0  0  2  0  0  0  0  0  0
  160.8590  205.0550  148.0850 C   0  0  2  0  0  3  0  0  0  0  0  0
  161.5990  205.1250  146.7720 C   0  0  0  0  0  0  0  0  0  0  0  0
  161.7970  205.8280  144.3730 C   0  0  0  0  0  1  0  0  0  0  0  0
  160.9790  205.5670  145.5470 N   0  0  0  0  0  0  0  0  0  0  0  0
  159.5410  205.7320  145.4140 C   0  0  0  0  0  1  0  0  0  0  0  0
  162.8140  204.7860  146.7620 O   0  0  0  0  0  0  0  0  0  0  0  0
  1  8  2  0  0  0  0
  1 13  1  0  0  0  0
  2 14  1  0  0  0  0
  2  8  1  0  0  0  0
  3 12  2  0  0  0  0
  4 15  1  0  0  0  0
  5  6  1  0  0  0  0
  5 11  2  0  0  0  0
  6  2  2  0  0  0  0
  7 14  1  6  0  0  0
  7 17  1  0  0  0  0
  7 18  1  0  0  0  0
  8  3  1  0  0  0  0
  9 17  1  0  0  0  0
 10  4  1  0  0  0  0
 11  1  1  0  0  0  0
 12 16  1  0  0  0  0
 13 19  2  0  0  0  0
 16 15  2  0  0  0  0
 17 10  2  0  0  0  0
 18  3  1  6  0  0  0
 18  4  1  0  0  0  0
 19 12  1  0  0  0  0
 20 21  1  0  0  0  0
 21 23  1  0  0  0  0
 22 16  1  6  0  0  0
 22 25  1  0  0  0  0
 24 22  1  0  0  0  0
 24 20  2  0  0  0  0
 25 23  1  0  0  0  0
 26 20  1  0  0  0  0
 27  9  1  1  0  0  0
 28 27  1  0  0  0  0
 29 30  1  6  0  0  0
 29 28  1  0  0  0  0
 29 27  1  0  0  0  0
 31 32  1  0  0  0  0
 32 30  1  0  0  0  0
 33 32  1  0  0  0  0
 34 30  2  0  0  0  0
M  END
>  <MODEL>
7

>  <REMARK>
 VINA RESULT:      -6.1      3.735      8.903
  Name = 
  3 active torsions:
  status: ('A' for Active; 'I' for Inactive)
    1  A    between atoms: C_3  and  N_17
    2  A    between atoms: C_12  and  C_28
    3  A    between atoms: C_13  and  C_14
                            x       y       z     vdW  Elec       q    Type
                         _______ _______ _______ _____ _____    ______ ____

>  <TORSDO>
F 3

$$$$
