=
 OpenBabel11062408323D

 32 34  0  0  1  0  0  0  0  0999 V2000
  162.1110  208.0590  150.7330 C   0  0  1  0  0  3  0  0  0  0  0  0
  161.6680  209.2190  148.4710 C   0  0  1  0  0  3  0  0  0  0  0  0
  162.3490  207.8860  148.2340 C   0  0  0  0  0  2  0  0  0  0  0  0
  161.3720  208.0210  149.3890 C   0  0  1  0  0  3  0  0  0  0  0  0
  162.6330  210.1500  149.0390 N   0  0  0  0  0  2  0  0  0  0  0  0
  162.8490  212.2180  147.8010 C   0  0  0  0  0  1  0  0  0  0  0  0
  162.0800  211.4810  148.8760 C   0  0  0  0  0  2  0  0  0  0  0  0
  161.5380  209.1470  151.6420 C   0  0  2  0  0  3  0  0  0  0  0  0
  162.5510  210.0030  152.0790 O   0  0  0  0  0  1  0  0  0  0  0  0
  160.8550  208.5280  152.8530 C   0  0  0  0  0  2  0  0  0  0  0  0
  161.0520  209.3780  154.0300 N   0  0  0  0  0  0  0  0  0  0  0  0
  161.3300  208.5550  155.2230 C   0  0  1  0  0  3  0  0  0  0  0  0
  160.9320  209.2660  156.5160 C   0  0  0  0  0  1  0  0  0  0  0  0
  160.6230  207.1960  155.1480 C   0  0  0  0  0  2  0  0  0  0  0  0
  159.7460  206.9330  156.3640 C   0  0  0  0  0  1  0  0  0  0  0  0
  159.8420  210.1990  154.2210 C   0  0  0  0  0  2  0  0  0  0  0  0
  160.2580  212.1760  152.9350 O   0  0  0  0  0  0  0  0  0  0  0  0
  160.1150  212.5140  155.2260 N   0  0  0  0  0  1  0  0  0  0  0  0
  160.0820  211.6770  154.0750 C   0  0  0  0  0  0  0  0  0  0  0  0
  162.0060  206.7010  151.4080 C   0  0  0  0  0  2  0  0  0  0  0  0
  160.8320  204.5190  151.3430 C   0  0  0  0  0  2  0  0  0  0  0  0
  161.7240  204.6170  150.1270 C   0  0  2  0  0  3  0  0  0  0  0  0
  161.0110  205.8510  150.6460 C   0  0  2  0  0  3  0  0  0  0  0  0
  160.9820  204.1210  148.9060 C   0  0  0  0  0  2  0  0  0  0  0  0
  161.9160  203.9600  147.8050 N   0  0  0  0  0  2  0  0  0  0  0  0
  161.1570  203.6520  146.6640 N   0  0  0  0  0  0  0  0  0  0  0  0
  160.3920  205.7980  145.3740 O   0  0  0  0  0  1  0  0  0  0  0  0
  162.6890  205.2890  145.6970 C   0  0  0  0  0  2  0  0  0  0  0  0
  161.9820  203.9620  145.4980 C   0  0  2  0  0  3  0  0  0  0  0  0
  161.5040  205.2160  144.7590 C   0  0  1  0  0  3  0  0  0  0  0  0
  160.8970  202.2130  146.6810 C   0  0  0  0  0  2  0  0  0  0  0  0
  160.5100  201.7500  145.4320 F   0  0  0  0  0  0  0  0  0  0  0  0
  1 20  1  1  0  0  0
  1  8  1  0  0  0  0
  2  5  1  1  0  0  0
  2  4  1  0  0  0  0
  3  2  1  0  0  0  0
  3  4  1  0  0  0  0
  4  1  1  1  0  0  0
  6  7  1  0  0  0  0
  7  5  1  0  0  0  0
  8  9  1  1  0  0  0
  8 10  1  0  0  0  0
 10 11  1  0  0  0  0
 11 16  1  0  0  0  0
 11 12  1  0  0  0  0
 12 13  1  1  0  0  0
 14 12  1  0  0  0  0
 14 15  1  0  0  0  0
 17 19  2  0  0  0  0
 19 16  1  0  0  0  0
 19 18  1  0  0  0  0
 22 24  1  6  0  0  0
 22 23  1  0  0  0  0
 22 21  1  0  0  0  0
 23 21  1  0  0  0  0
 23 20  1  1  0  0  0
 25 24  1  0  0  0  0
 26 31  1  0  0  0  0
 26 25  1  0  0  0  0
 29 28  1  0  0  0  0
 29 26  1  1  0  0  0
 30 27  1  1  0  0  0
 30 29  1  0  0  0  0
 30 28  1  0  0  0  0
 32 31  1  0  0  0  0
M  END
>  <MODEL>
1

>  <REMARK>
 VINA RESULT:      -6.3      0.000      0.000
  Name = 
  17 active torsions:
  status: ('A' for Active; 'I' for Inactive)
    1  A    between atoms: C_2  and  C_6
    2  A    between atoms: C_3  and  N_20
    3  A    between atoms: C_3  and  C_22
    4  A    between atoms: C_4  and  C_14
    5  A    between atoms: C_4  and  C_24
    6  A    between atoms: C_4  and  C_30
    7  A    between atoms: C_5  and  C_14
    8  A    between atoms: C_6  and  N_17
    9  A    between atoms: C_11  and  N_12
   10  A    between atoms: N_12  and  N_17
   11  A    between atoms: N_12  and  C_28
   12  A    between atoms: N_13  and  C_18
   13  A    between atoms: N_13  and  C_29
   14  A    between atoms: C_15  and  N_20
   15  A    between atoms: C_15  and  C_26
   16  A    between atoms: C_16  and  N_20
   17  A    between atoms: C_16  and  C_24
                            x       y       z     vdW  Elec       q    Type
                         _______ _______ _______ _____ _____    ______ ____

>  <TORSDO>
F 17

$$$$
=
 OpenBabel11062408323D

 32 34  0  0  1  0  0  0  0  0999 V2000
  161.6730  205.5810  151.0350 C   0  0  1  0  0  3  0  0  0  0  0  0
  160.8500  207.4440  149.4510 C   0  0  1  0  0  3  0  0  0  0  0  0
  160.5990  206.0900  148.8170 C   0  0  0  0  0  2  0  0  0  0  0  0
  160.4810  206.2340  150.3240 C   0  0  1  0  0  3  0  0  0  0  0  0
  162.2800  207.7190  149.4310 N   0  0  0  0  0  2  0  0  0  0  0  0
  161.9740  209.9540  148.5550 C   0  0  0  0  0  1  0  0  0  0  0  0
  162.5280  208.5720  148.2840 C   0  0  0  0  0  2  0  0  0  0  0  0
  162.0980  206.3990  152.2540 C   0  0  2  0  0  3  0  0  0  0  0  0
  162.7850  205.5970  153.1670 O   0  0  0  0  0  1  0  0  0  0  0  0
  160.8830  207.0050  152.9430 C   0  0  0  0  0  2  0  0  0  0  0  0
  161.2230  208.3170  153.4990 N   0  0  0  0  0  0  0  0  0  0  0  0
  160.9890  208.3380  154.9560 C   0  0  1  0  0  3  0  0  0  0  0  0
  160.0970  209.5050  155.3760 C   0  0  0  0  0  1  0  0  0  0  0  0
  160.3760  207.0220  155.4480 C   0  0  0  0  0  2  0  0  0  0  0  0
  160.0400  207.0610  156.9320 C   0  0  0  0  0  1  0  0  0  0  0  0
  160.4090  209.3390  152.8150 C   0  0  0  0  0  2  0  0  0  0  0  0
  162.4330  210.1890  151.8560 O   0  0  0  0  0  0  0  0  0  0  0  0
  160.6250  211.6430  151.7710 N   0  0  0  0  0  1  0  0  0  0  0  0
  161.2210  210.3990  152.1220 C   0  0  0  0  0  0  0  0  0  0  0  0
  161.3020  204.1670  151.4540 C   0  0  0  0  0  2  0  0  0  0  0  0
  160.5600  202.0000  150.5080 C   0  0  0  0  0  2  0  0  0  0  0  0
  161.5170  202.6430  149.5320 C   0  0  2  0  0  3  0  0  0  0  0  0
  160.5480  203.5020  150.3210 C   0  0  2  0  0  3  0  0  0  0  0  0
  160.9840  202.5030  148.1230 C   0  0  0  0  0  2  0  0  0  0  0  0
  161.8380  203.2390  147.2070 N   0  0  0  0  0  2  0  0  0  0  0  0
  161.0840  203.4820  146.0480 N   0  0  0  0  0  0  0  0  0  0  0  0
  160.1960  205.7990  145.2140 O   0  0  0  0  0  1  0  0  0  0  0  0
  162.4980  205.4350  145.6640 C   0  0  0  0  0  2  0  0  0  0  0  0
  161.9670  204.1380  145.0850 C   0  0  2  0  0  3  0  0  0  0  0  0
  161.4160  205.4860  144.6090 C   0  0  1  0  0  3  0  0  0  0  0  0
  160.6820  202.1860  145.5010 C   0  0  0  0  0  2  0  0  0  0  0  0
  159.6670  202.3190  144.5660 F   0  0  0  0  0  0  0  0  0  0  0  0
  1 20  1  1  0  0  0
  1  8  1  0  0  0  0
  2  5  1  1  0  0  0
  2  4  1  0  0  0  0
  3  2  1  0  0  0  0
  3  4  1  0  0  0  0
  4  1  1  1  0  0  0
  7  6  1  0  0  0  0
  7  5  1  0  0  0  0
  8 10  1  0  0  0  0
  8  9  1  1  0  0  0
 10 11  1  0  0  0  0
 11 12  1  0  0  0  0
 12 13  1  6  0  0  0
 12 14  1  0  0  0  0
 14 15  1  0  0  0  0
 16 11  1  0  0  0  0
 17 19  2  0  0  0  0
 18 19  1  0  0  0  0
 19 16  1  0  0  0  0
 22 24  1  6  0  0  0
 22 23  1  0  0  0  0
 22 21  1  0  0  0  0
 23 21  1  0  0  0  0
 23 20  1  1  0  0  0
 25 24  1  0  0  0  0
 26 25  1  0  0  0  0
 29 28  1  0  0  0  0
 29 26  1  1  0  0  0
 30 29  1  0  0  0  0
 30 27  1  1  0  0  0
 30 28  1  0  0  0  0
 31 26  1  0  0  0  0
 32 31  1  0  0  0  0
M  END
>  <MODEL>
2

>  <REMARK>
 VINA RESULT:      -6.2      1.516      2.127
  Name = 
  17 active torsions:
  status: ('A' for Active; 'I' for Inactive)
    1  A    between atoms: C_2  and  C_6
    2  A    between atoms: C_3  and  N_20
    3  A    between atoms: C_3  and  C_22
    4  A    between atoms: C_4  and  C_14
    5  A    between atoms: C_4  and  C_24
    6  A    between atoms: C_4  and  C_30
    7  A    between atoms: C_5  and  C_14
    8  A    between atoms: C_6  and  N_17
    9  A    between atoms: C_11  and  N_12
   10  A    between atoms: N_12  and  N_17
   11  A    between atoms: N_12  and  C_28
   12  A    between atoms: N_13  and  C_18
   13  A    between atoms: N_13  and  C_29
   14  A    between atoms: C_15  and  N_20
   15  A    between atoms: C_15  and  C_26
   16  A    between atoms: C_16  and  N_20
   17  A    between atoms: C_16  and  C_24
                            x       y       z     vdW  Elec       q    Type
                         _______ _______ _______ _____ _____    ______ ____

>  <TORSDO>
F 17

$$$$
=
 OpenBabel11062408323D

 32 34  0  0  1  0  0  0  0  0999 V2000
  161.2490  207.5510  151.4400 C   0  0  1  0  0  3  0  0  0  0  0  0
  161.4110  205.4950  152.9910 C   0  0  1  0  0  3  0  0  0  0  0  0
  162.7710  205.7870  152.3890 C   0  0  0  0  0  2  0  0  0  0  0  0
  161.8450  206.9450  152.7170 C   0  0  1  0  0  3  0  0  0  0  0  0
  160.5410  204.9550  151.9560 N   0  0  0  0  0  2  0  0  0  0  0  0
  160.8070  203.1200  150.4010 C   0  0  0  0  0  1  0  0  0  0  0  0
  160.8370  203.5390  151.8550 C   0  0  0  0  0  2  0  0  0  0  0  0
  160.9350  209.0350  151.6340 C   0  0  2  0  0  3  0  0  0  0  0  0
  162.0900  209.8040  151.4800 O   0  0  0  0  0  1  0  0  0  0  0  0
  160.3570  209.2830  153.0210 C   0  0  0  0  0  2  0  0  0  0  0  0
  160.3980  210.7130  153.3330 N   0  0  0  0  0  0  0  0  0  0  0  0
  160.5750  210.9220  154.7840 C   0  0  1  0  0  3  0  0  0  0  0  0
  159.6620  210.0150  155.6090 C   0  0  0  0  0  1  0  0  0  0  0  0
  162.0320  210.7060  155.2110 C   0  0  0  0  0  2  0  0  0  0  0  0
  162.1540  209.7350  156.3770 C   0  0  0  0  0  1  0  0  0  0  0  0
  159.1490  211.3330  152.8560 C   0  0  0  0  0  2  0  0  0  0  0  0
  158.9600  213.7050  153.1320 O   0  0  0  0  0  0  0  0  0  0  0  0
  159.8670  213.0260  151.1070 N   0  0  0  0  0  1  0  0  0  0  0  0
  159.3140  212.7540  152.3900 C   0  0  0  0  0  0  0  0  0  0  0  0
  162.2240  207.3670  150.2880 C   0  0  0  0  0  2  0  0  0  0  0  0
  160.3280  206.4740  148.9650 C   0  0  0  0  0  2  0  0  0  0  0  0
  161.6110  206.1660  148.2280 C   0  0  2  0  0  3  0  0  0  0  0  0
  161.4650  207.4730  148.9820 C   0  0  2  0  0  3  0  0  0  0  0  0
  161.4340  206.4500  146.7530 C   0  0  0  0  0  2  0  0  0  0  0  0
  160.8500  205.2890  146.1030 N   0  0  0  0  0  2  0  0  0  0  0  0
  161.8310  204.2840  146.0970 N   0  0  0  0  0  0  0  0  0  0  0  0
  160.9050  202.0710  147.1430 O   0  0  0  0  0  1  0  0  0  0  0  0
  159.9360  203.0330  145.2010 C   0  0  0  0  0  2  0  0  0  0  0  0
  161.4270  203.2900  145.1040 C   0  0  2  0  0  3  0  0  0  0  0  0
  160.9000  202.0030  145.7470 C   0  0  1  0  0  3  0  0  0  0  0  0
  163.0860  204.8950  145.6590 C   0  0  0  0  0  2  0  0  0  0  0  0
  164.1360  204.5650  146.5030 F   0  0  0  0  0  0  0  0  0  0  0  0
  1 20  1  6  0  0  0
  1  8  1  0  0  0  0
  2  5  1  6  0  0  0
  3  4  1  0  0  0  0
  3  2  1  0  0  0  0
  4  1  1  6  0  0  0
  4  2  1  0  0  0  0
  6  7  1  0  0  0  0
  7  5  1  0  0  0  0
  8  9  1  1  0  0  0
  8 10  1  0  0  0  0
 10 11  1  0  0  0  0
 11 12  1  0  0  0  0
 12 14  1  0  0  0  0
 12 13  1  1  0  0  0
 14 15  1  0  0  0  0
 16 11  1  0  0  0  0
 18 19  1  0  0  0  0
 19 16  1  0  0  0  0
 19 17  2  0  0  0  0
 21 23  1  0  0  0  0
 22 24  1  6  0  0  0
 22 21  1  0  0  0  0
 22 23  1  0  0  0  0
 23 20  1  1  0  0  0
 25 24  1  0  0  0  0
 26 25  1  0  0  0  0
 28 30  1  0  0  0  0
 29 28  1  0  0  0  0
 29 30  1  0  0  0  0
 29 26  1  1  0  0  0
 30 27  1  1  0  0  0
 31 26  1  0  0  0  0
 31 32  1  0  0  0  0
M  END
>  <MODEL>
3

>  <REMARK>
 VINA RESULT:      -6.0      2.302      3.820
  Name = 
  17 active torsions:
  status: ('A' for Active; 'I' for Inactive)
    1  A    between atoms: C_2  and  C_6
    2  A    between atoms: C_3  and  N_20
    3  A    between atoms: C_3  and  C_22
    4  A    between atoms: C_4  and  C_14
    5  A    between atoms: C_4  and  C_24
    6  A    between atoms: C_4  and  C_30
    7  A    between atoms: C_5  and  C_14
    8  A    between atoms: C_6  and  N_17
    9  A    between atoms: C_11  and  N_12
   10  A    between atoms: N_12  and  N_17
   11  A    between atoms: N_12  and  C_28
   12  A    between atoms: N_13  and  C_18
   13  A    between atoms: N_13  and  C_29
   14  A    between atoms: C_15  and  N_20
   15  A    between atoms: C_15  and  C_26
   16  A    between atoms: C_16  and  N_20
   17  A    between atoms: C_16  and  C_24
                            x       y       z     vdW  Elec       q    Type
                         _______ _______ _______ _____ _____    ______ ____

>  <TORSDO>
F 17

$$$$
=
 OpenBabel11062408323D

 32 34  0  0  1  0  0  0  0  0999 V2000
  161.3960  207.9660  150.4660 C   0  0  1  0  0  3  0  0  0  0  0  0
  162.4570  210.3180  150.5060 C   0  0  1  0  0  3  0  0  0  0  0  0
  161.7120  210.0740  151.8030 C   0  0  0  0  0  2  0  0  0  0  0  0
  162.4110  208.9100  151.1230 C   0  0  1  0  0  3  0  0  0  0  0  0
  161.4920  210.5020  149.4310 N   0  0  0  0  0  2  0  0  0  0  0  0
  161.5500  212.8100  148.7060 C   0  0  0  0  0  1  0  0  0  0  0  0
  162.0920  211.4160  148.4780 C   0  0  0  0  0  2  0  0  0  0  0  0
  162.0790  207.0490  149.4510 C   0  0  2  0  0  3  0  0  0  0  0  0
  162.7780  207.8000  148.5050 O   0  0  0  0  0  1  0  0  0  0  0  0
  161.0510  206.1830  148.7350 C   0  0  0  0  0  2  0  0  0  0  0  0
  161.5840  204.8330  148.5350 N   0  0  0  0  0  0  0  0  0  0  0  0
  161.8610  204.5920  147.1050 C   0  0  1  0  0  3  0  0  0  0  0  0
  161.4230  203.1960  146.6640 C   0  0  0  0  0  1  0  0  0  0  0  0
  161.1870  205.6450  146.2160 C   0  0  0  0  0  2  0  0  0  0  0  0
  160.9240  205.1290  144.8080 C   0  0  0  0  0  1  0  0  0  0  0  0
  160.6060  203.8620  149.0570 C   0  0  0  0  0  2  0  0  0  0  0  0
  161.6760  203.7310  151.1970 O   0  0  0  0  0  0  0  0  0  0  0  0
  160.8630  201.7140  150.3860 N   0  0  0  0  0  1  0  0  0  0  0  0
  161.0810  203.1170  150.2750 C   0  0  0  0  0  0  0  0  0  0  0  0
  160.7040  207.1400  151.5390 C   0  0  0  0  0  2  0  0  0  0  0  0
  161.2640  205.9470  153.6370 C   0  0  0  0  0  2  0  0  0  0  0  0
  160.6070  207.2600  153.9960 C   0  0  2  0  0  3  0  0  0  0  0  0
  161.5380  207.1790  152.8020 C   0  0  2  0  0  3  0  0  0  0  0  0
  161.3570  207.9130  155.1350 C   0  0  0  0  0  2  0  0  0  0  0  0
  160.4880  208.8680  155.8010 N   0  0  0  0  0  2  0  0  0  0  0  0
  161.0150  210.1460  155.5510 N   0  0  0  0  0  0  0  0  0  0  0  0
  160.1210  212.1430  154.1160 O   0  0  0  0  0  1  0  0  0  0  0  0
  158.7880  211.1170  155.7900 C   0  0  0  0  0  2  0  0  0  0  0  0
  160.2120  211.1030  156.3120 C   0  0  2  0  0  3  0  0  0  0  0  0
  159.7120  212.2640  155.4470 C   0  0  1  0  0  3  0  0  0  0  0  0
  162.3820  210.1700  156.0720 C   0  0  0  0  0  2  0  0  0  0  0  0
  163.2380  210.8580  155.2250 F   0  0  0  0  0  0  0  0  0  0  0  0
  1 20  1  1  0  0  0
  2  5  1  6  0  0  0
  2  4  1  0  0  0  0
  2  3  1  0  0  0  0
  4  1  1  6  0  0  0
  4  3  1  0  0  0  0
  7  6  1  0  0  0  0
  7  5  1  0  0  0  0
  8  9  1  6  0  0  0
  8  1  1  0  0  0  0
 10  8  1  0  0  0  0
 11 10  1  0  0  0  0
 11 16  1  0  0  0  0
 12 13  1  6  0  0  0
 12 11  1  0  0  0  0
 14 12  1  0  0  0  0
 15 14  1  0  0  0  0
 16 19  1  0  0  0  0
 19 18  1  0  0  0  0
 19 17  2  0  0  0  0
 21 22  1  0  0  0  0
 22 24  1  1  0  0  0
 23 20  1  6  0  0  0
 23 21  1  0  0  0  0
 23 22  1  0  0  0  0
 24 25  1  0  0  0  0
 26 25  1  0  0  0  0
 26 31  1  0  0  0  0
 28 29  1  0  0  0  0
 29 26  1  6  0  0  0
 30 27  1  6  0  0  0
 30 28  1  0  0  0  0
 30 29  1  0  0  0  0
 32 31  1  0  0  0  0
M  END
>  <MODEL>
4

>  <REMARK>
 VINA RESULT:      -6.0      3.137      8.281
  Name = 
  17 active torsions:
  status: ('A' for Active; 'I' for Inactive)
    1  A    between atoms: C_2  and  C_6
    2  A    between atoms: C_3  and  N_20
    3  A    between atoms: C_3  and  C_22
    4  A    between atoms: C_4  and  C_14
    5  A    between atoms: C_4  and  C_24
    6  A    between atoms: C_4  and  C_30
    7  A    between atoms: C_5  and  C_14
    8  A    between atoms: C_6  and  N_17
    9  A    between atoms: C_11  and  N_12
   10  A    between atoms: N_12  and  N_17
   11  A    between atoms: N_12  and  C_28
   12  A    between atoms: N_13  and  C_18
   13  A    between atoms: N_13  and  C_29
   14  A    between atoms: C_15  and  N_20
   15  A    between atoms: C_15  and  C_26
   16  A    between atoms: C_16  and  N_20
   17  A    between atoms: C_16  and  C_24
                            x       y       z     vdW  Elec       q    Type
                         _______ _______ _______ _____ _____    ______ ____

>  <TORSDO>
F 17

$$$$
=
 OpenBabel11062408323D

 32 34  0  0  1  0  0  0  0  0999 V2000
  160.8200  207.9320  152.0200 C   0  0  1  0  0  3  0  0  0  0  0  0
  161.5710  206.5290  154.0510 C   0  0  1  0  0  3  0  0  0  0  0  0
  161.2350  205.6090  152.8940 C   0  0  0  0  0  2  0  0  0  0  0  0
  161.8570  206.9640  152.6040 C   0  0  1  0  0  3  0  0  0  0  0  0
  160.3370  207.0910  154.5830 N   0  0  0  0  0  2  0  0  0  0  0  0
  161.6450  208.0070  156.4010 C   0  0  0  0  0  1  0  0  0  0  0  0
  160.4770  207.1210  156.0270 C   0  0  0  0  0  2  0  0  0  0  0  0
  161.3690  209.3580  151.9700 C   0  0  2  0  0  3  0  0  0  0  0  0
  162.5910  209.3890  151.2950 O   0  0  0  0  0  1  0  0  0  0  0  0
  161.5670  209.9050  153.3770 C   0  0  0  0  0  2  0  0  0  0  0  0
  160.7080  211.0730  153.5870 N   0  0  0  0  0  0  0  0  0  0  0  0
  160.2330  211.1220  154.9840 C   0  0  1  0  0  3  0  0  0  0  0  0
  160.1370  212.5550  155.5060 C   0  0  0  0  0  1  0  0  0  0  0  0
  158.8760  210.4280  155.1430 C   0  0  0  0  0  2  0  0  0  0  0  0
  157.9120  211.2330  156.0020 C   0  0  0  0  0  1  0  0  0  0  0  0
  159.5780  210.9970  152.6440 C   0  0  0  0  0  2  0  0  0  0  0  0
  158.0740  212.8590  152.5270 O   0  0  0  0  0  0  0  0  0  0  0  0
  159.9250  213.0080  151.1340 N   0  0  0  0  0  1  0  0  0  0  0  0
  159.1400  212.3350  152.1120 C   0  0  0  0  0  0  0  0  0  0  0  0
  160.4260  207.4710  150.6250 C   0  0  0  0  0  2  0  0  0  0  0  0
  161.9820  206.7600  148.8330 C   0  0  0  0  0  2  0  0  0  0  0  0
  160.8510  205.7610  148.9060 C   0  0  2  0  0  3  0  0  0  0  0  0
  161.3880  206.3920  150.1750 C   0  0  2  0  0  3  0  0  0  0  0  0
  161.4010  204.3560  148.8070 C   0  0  0  0  0  2  0  0  0  0  0  0
  162.1470  204.2150  147.5680 N   0  0  0  0  0  2  0  0  0  0  0  0
  161.2170  203.9090  146.5610 N   0  0  0  0  0  0  0  0  0  0  0  0
  160.0850  205.9830  145.4370 O   0  0  0  0  0  1  0  0  0  0  0  0
  162.4370  205.6690  145.3890 C   0  0  0  0  0  2  0  0  0  0  0  0
  161.8210  204.2870  145.2840 C   0  0  2  0  0  3  0  0  0  0  0  0
  161.1300  205.4970  144.6470 C   0  0  1  0  0  3  0  0  0  0  0  0
  161.0180  202.4600  146.5690 C   0  0  0  0  0  2  0  0  0  0  0  0
  160.7300  201.9780  145.3010 F   0  0  0  0  0  0  0  0  0  0  0  0
  1 20  1  6  0  0  0
  2  5  1  6  0  0  0
  3  2  1  0  0  0  0
  4  1  1  6  0  0  0
  4  3  1  0  0  0  0
  4  2  1  0  0  0  0
  5  7  1  0  0  0  0
  7  6  1  0  0  0  0
  8  9  1  1  0  0  0
  8  1  1  0  0  0  0
  8 10  1  0  0  0  0
 10 11  1  0  0  0  0
 11 12  1  0  0  0  0
 12 14  1  0  0  0  0
 12 13  1  6  0  0  0
 14 15  1  0  0  0  0
 16 11  1  0  0  0  0
 18 19  1  0  0  0  0
 19 17  2  0  0  0  0
 19 16  1  0  0  0  0
 21 22  1  0  0  0  0
 21 23  1  0  0  0  0
 22 24  1  1  0  0  0
 22 23  1  0  0  0  0
 23 20  1  6  0  0  0
 25 24  1  0  0  0  0
 26 31  1  0  0  0  0
 26 25  1  0  0  0  0
 29 28  1  0  0  0  0
 29 26  1  1  0  0  0
 30 29  1  0  0  0  0
 30 28  1  0  0  0  0
 30 27  1  1  0  0  0
 32 31  1  0  0  0  0
M  END
>  <MODEL>
5

>  <REMARK>
 VINA RESULT:      -5.9      1.847      3.573
  Name = 
  17 active torsions:
  status: ('A' for Active; 'I' for Inactive)
    1  A    between atoms: C_2  and  C_6
    2  A    between atoms: C_3  and  N_20
    3  A    between atoms: C_3  and  C_22
    4  A    between atoms: C_4  and  C_14
    5  A    between atoms: C_4  and  C_24
    6  A    between atoms: C_4  and  C_30
    7  A    between atoms: C_5  and  C_14
    8  A    between atoms: C_6  and  N_17
    9  A    between atoms: C_11  and  N_12
   10  A    between atoms: N_12  and  N_17
   11  A    between atoms: N_12  and  C_28
   12  A    between atoms: N_13  and  C_18
   13  A    between atoms: N_13  and  C_29
   14  A    between atoms: C_15  and  N_20
   15  A    between atoms: C_15  and  C_26
   16  A    between atoms: C_16  and  N_20
   17  A    between atoms: C_16  and  C_24
                            x       y       z     vdW  Elec       q    Type
                         _______ _______ _______ _____ _____    ______ ____

>  <TORSDO>
F 17

$$$$
=
 OpenBabel11062408323D

 32 34  0  0  1  0  0  0  0  0999 V2000
  161.8050  206.8380  151.8960 C   0  0  1  0  0  3  0  0  0  0  0  0
  161.2180  208.4840  149.9970 C   0  0  1  0  0  3  0  0  0  0  0  0
  161.4660  207.1050  149.4170 C   0  0  0  0  0  2  0  0  0  0  0  0
  160.8200  207.2250  150.7860 C   0  0  1  0  0  3  0  0  0  0  0  0
  162.4880  209.0510  150.4300 N   0  0  0  0  0  2  0  0  0  0  0  0
  162.0090  210.8330  148.8650 C   0  0  0  0  0  1  0  0  0  0  0  0
  162.3740  210.4900  150.2930 C   0  0  0  0  0  2  0  0  0  0  0  0
  161.3810  207.4340  153.2380 C   0  0  2  0  0  3  0  0  0  0  0  0
  160.6270  206.5130  153.9660 O   0  0  0  0  0  1  0  0  0  0  0  0
  160.5530  208.6940  153.0260 C   0  0  0  0  0  2  0  0  0  0  0  0
  160.4270  209.4300  154.2860 N   0  0  0  0  0  0  0  0  0  0  0  0
  159.4950  210.5640  154.1340 C   0  0  1  0  0  3  0  0  0  0  0  0
  158.6880  210.8190  155.4060 C   0  0  0  0  0  1  0  0  0  0  0  0
  160.2300  211.8480  153.7290 C   0  0  0  0  0  2  0  0  0  0  0  0
  159.8340  212.3270  152.3400 C   0  0  0  0  0  1  0  0  0  0  0  0
  161.7660  209.8940  154.6930 C   0  0  0  0  0  2  0  0  0  0  0  0
  162.0690  208.5160  156.6290 O   0  0  0  0  0  0  0  0  0  0  0  0
  162.3450  210.7910  156.9960 N   0  0  0  0  0  1  0  0  0  0  0  0
  162.0670  209.6800  156.1510 C   0  0  0  0  0  0  0  0  0  0  0  0
  161.8870  205.3230  151.9960 C   0  0  0  0  0  2  0  0  0  0  0  0
  160.6230  203.2740  151.4030 C   0  0  0  0  0  2  0  0  0  0  0  0
  161.5830  203.5850  150.2780 C   0  0  2  0  0  3  0  0  0  0  0  0
  160.8980  204.7140  151.0240 C   0  0  2  0  0  3  0  0  0  0  0  0
  160.8860  203.4080  148.9470 C   0  0  0  0  0  2  0  0  0  0  0  0
  161.8270  203.6620  147.8700 N   0  0  0  0  0  2  0  0  0  0  0  0
  161.1150  203.5410  146.6660 N   0  0  0  0  0  0  0  0  0  0  0  0
  160.4730  205.9040  145.7410 O   0  0  0  0  0  1  0  0  0  0  0  0
  162.7370  205.2550  146.0390 C   0  0  0  0  0  2  0  0  0  0  0  0
  161.9930  204.0110  145.5940 C   0  0  2  0  0  3  0  0  0  0  0  0
  161.5850  205.3910  145.0680 C   0  0  1  0  0  3  0  0  0  0  0  0
  160.8430  202.1190  146.4530 C   0  0  0  0  0  2  0  0  0  0  0  0
  160.6050  201.8400  145.1160 F   0  0  0  0  0  0  0  0  0  0  0  0
  1 20  1  1  0  0  0
  1  8  1  0  0  0  0
  2  5  1  1  0  0  0
  2  4  1  0  0  0  0
  3  2  1  0  0  0  0
  3  4  1  0  0  0  0
  4  1  1  1  0  0  0
  6  7  1  0  0  0  0
  7  5  1  0  0  0  0
  8  9  1  6  0  0  0
 10  8  1  0  0  0  0
 10 11  1  0  0  0  0
 11 16  1  0  0  0  0
 12 11  1  0  0  0  0
 12 13  1  1  0  0  0
 14 12  1  0  0  0  0
 15 14  1  0  0  0  0
 16 19  1  0  0  0  0
 19 17  2  0  0  0  0
 19 18  1  0  0  0  0
 22 24  1  6  0  0  0
 22 23  1  0  0  0  0
 22 21  1  0  0  0  0
 23 21  1  0  0  0  0
 23 20  1  1  0  0  0
 25 24  1  0  0  0  0
 26 25  1  0  0  0  0
 29 28  1  0  0  0  0
 29 26  1  1  0  0  0
 30 29  1  0  0  0  0
 30 27  1  1  0  0  0
 30 28  1  0  0  0  0
 31 26  1  0  0  0  0
 32 31  1  0  0  0  0
M  END
>  <MODEL>
6

>  <REMARK>
 VINA RESULT:      -5.9      1.808      2.493
  Name = 
  17 active torsions:
  status: ('A' for Active; 'I' for Inactive)
    1  A    between atoms: C_2  and  C_6
    2  A    between atoms: C_3  and  N_20
    3  A    between atoms: C_3  and  C_22
    4  A    between atoms: C_4  and  C_14
    5  A    between atoms: C_4  and  C_24
    6  A    between atoms: C_4  and  C_30
    7  A    between atoms: C_5  and  C_14
    8  A    between atoms: C_6  and  N_17
    9  A    between atoms: C_11  and  N_12
   10  A    between atoms: N_12  and  N_17
   11  A    between atoms: N_12  and  C_28
   12  A    between atoms: N_13  and  C_18
   13  A    between atoms: N_13  and  C_29
   14  A    between atoms: C_15  and  N_20
   15  A    between atoms: C_15  and  C_26
   16  A    between atoms: C_16  and  N_20
   17  A    between atoms: C_16  and  C_24
                            x       y       z     vdW  Elec       q    Type
                         _______ _______ _______ _____ _____    ______ ____

>  <TORSDO>
F 17

$$$$
=
 OpenBabel11062408323D

 32 34  0  0  1  0  0  0  0  0999 V2000
  161.1900  207.4890  150.1400 C   0  0  1  0  0  3  0  0  0  0  0  0
  162.5920  209.6480  149.9660 C   0  0  1  0  0  3  0  0  0  0  0  0
  161.9370  209.5760  151.3300 C   0  0  0  0  0  2  0  0  0  0  0  0
  162.3900  208.2910  150.6600 C   0  0  1  0  0  3  0  0  0  0  0  0
  161.5740  209.9350  148.9650 N   0  0  0  0  0  2  0  0  0  0  0  0
  161.4630  212.3520  148.9620 C   0  0  0  0  0  1  0  0  0  0  0  0
  162.0020  211.1260  148.2580 C   0  0  0  0  0  2  0  0  0  0  0  0
  161.5510  206.7320  148.8620 C   0  0  2  0  0  3  0  0  0  0  0  0
  160.5190  206.8300  147.9270 O   0  0  0  0  0  1  0  0  0  0  0  0
  161.8060  205.2610  149.1650 C   0  0  0  0  0  2  0  0  0  0  0  0
  161.2030  204.4230  148.1270 N   0  0  0  0  0  0  0  0  0  0  0  0
  160.6090  203.2090  148.7210 C   0  0  1  0  0  3  0  0  0  0  0  0
  161.1580  201.9320  148.0840 C   0  0  0  0  0  1  0  0  0  0  0  0
  160.8280  203.1590  150.2380 C   0  0  0  0  0  2  0  0  0  0  0  0
  161.2180  201.7690  150.7200 C   0  0  0  0  0  1  0  0  0  0  0  0
  162.2440  204.0770  147.1410 C   0  0  0  0  0  2  0  0  0  0  0  0
  162.6300  205.6500  145.3760 O   0  0  0  0  0  0  0  0  0  0  0  0
  161.0280  204.0370  144.9130 N   0  0  0  0  0  1  0  0  0  0  0  0
  161.9920  204.6400  145.7690 C   0  0  0  0  0  0  0  0  0  0  0  0
  160.7260  206.5170  151.2140 C   0  0  0  0  0  2  0  0  0  0  0  0
  161.3540  205.5450  153.4060 C   0  0  0  0  0  2  0  0  0  0  0  0
  160.7240  206.8980  153.6470 C   0  0  2  0  0  3  0  0  0  0  0  0
  161.6080  206.6780  152.4350 C   0  0  2  0  0  3  0  0  0  0  0  0
  161.5240  207.6580  154.6820 C   0  0  0  0  0  2  0  0  0  0  0  0
  160.6360  208.5250  155.4380 N   0  0  0  0  0  2  0  0  0  0  0  0
  161.2980  209.7540  155.5940 N   0  0  0  0  0  0  0  0  0  0  0  0
  160.7580  211.6650  153.8890 O   0  0  0  0  0  1  0  0  0  0  0  0
  159.0650  210.6700  155.2230 C   0  0  0  0  0  2  0  0  0  0  0  0
  160.3130  210.7170  156.0840 C   0  0  2  0  0  3  0  0  0  0  0  0
  160.0260  211.8280  155.0690 C   0  0  1  0  0  3  0  0  0  0  0  0
  162.3240  209.5760  156.6210 C   0  0  0  0  0  2  0  0  0  0  0  0
  162.8090  210.7940  157.0740 F   0  0  0  0  0  0  0  0  0  0  0  0
  1 20  1  1  0  0  0
  2  5  1  6  0  0  0
  2  4  1  0  0  0  0
  2  3  1  0  0  0  0
  4  1  1  6  0  0  0
  4  3  1  0  0  0  0
  7  6  1  0  0  0  0
  7  5  1  0  0  0  0
  8  9  1  6  0  0  0
  8 10  1  0  0  0  0
  8  1  1  0  0  0  0
 11 12  1  0  0  0  0
 11 10  1  0  0  0  0
 12 13  1  6  0  0  0
 12 14  1  0  0  0  0
 14 15  1  0  0  0  0
 16 11  1  0  0  0  0
 17 19  2  0  0  0  0
 18 19  1  0  0  0  0
 19 16  1  0  0  0  0
 21 22  1  0  0  0  0
 22 24  1  1  0  0  0
 23 20  1  6  0  0  0
 23 21  1  0  0  0  0
 23 22  1  0  0  0  0
 24 25  1  0  0  0  0
 25 26  1  0  0  0  0
 26 31  1  0  0  0  0
 28 29  1  0  0  0  0
 29 26  1  6  0  0  0
 30 27  1  6  0  0  0
 30 28  1  0  0  0  0
 30 29  1  0  0  0  0
 31 32  1  0  0  0  0
M  END
>  <MODEL>
7

>  <REMARK>
 VINA RESULT:      -5.8      3.033      8.209
  Name = 
  17 active torsions:
  status: ('A' for Active; 'I' for Inactive)
    1  A    between atoms: C_2  and  C_6
    2  A    between atoms: C_3  and  N_20
    3  A    between atoms: C_3  and  C_22
    4  A    between atoms: C_4  and  C_14
    5  A    between atoms: C_4  and  C_24
    6  A    between atoms: C_4  and  C_30
    7  A    between atoms: C_5  and  C_14
    8  A    between atoms: C_6  and  N_17
    9  A    between atoms: C_11  and  N_12
   10  A    between atoms: N_12  and  N_17
   11  A    between atoms: N_12  and  C_28
   12  A    between atoms: N_13  and  C_18
   13  A    between atoms: N_13  and  C_29
   14  A    between atoms: C_15  and  N_20
   15  A    between atoms: C_15  and  C_26
   16  A    between atoms: C_16  and  N_20
   17  A    between atoms: C_16  and  C_24
                            x       y       z     vdW  Elec       q    Type
                         _______ _______ _______ _____ _____    ______ ____

>  <TORSDO>
F 17

$$$$
=
 OpenBabel11062408323D

 32 34  0  0  1  0  0  0  0  0999 V2000
  161.2290  208.8190  153.3060 C   0  0  1  0  0  3  0  0  0  0  0  0
  161.5170  207.9660  155.7240 C   0  0  1  0  0  3  0  0  0  0  0  0
  160.0460  207.9720  155.3590 C   0  0  0  0  0  2  0  0  0  0  0  0
  161.0720  207.6500  154.2870 C   0  0  1  0  0  3  0  0  0  0  0  0
  161.9690  209.3390  155.8930 N   0  0  0  0  0  2  0  0  0  0  0  0
  161.1780  211.2920  157.0840 C   0  0  0  0  0  1  0  0  0  0  0  0
  161.4400  209.8030  157.1620 C   0  0  0  0  0  2  0  0  0  0  0  0
  161.7870  208.3390  151.9670 C   0  0  2  0  0  3  0  0  0  0  0  0
  162.4000  209.3920  151.2860 O   0  0  0  0  0  1  0  0  0  0  0  0
  160.6750  207.7680  151.0970 C   0  0  0  0  0  2  0  0  0  0  0  0
  161.2220  206.7720  150.1720 N   0  0  0  0  0  0  0  0  0  0  0  0
  161.1590  207.2660  148.7830 C   0  0  1  0  0  3  0  0  0  0  0  0
  162.5380  207.6550  148.2500 C   0  0  0  0  0  1  0  0  0  0  0  0
  160.5220  206.2330  147.8450 C   0  0  0  0  0  2  0  0  0  0  0  0
  161.4100  205.9090  146.6530 C   0  0  0  0  0  1  0  0  0  0  0  0
  160.4570  205.5220  150.3260 C   0  0  0  0  0  2  0  0  0  0  0  0
  162.1920  204.6750  151.7440 O   0  0  0  0  0  0  0  0  0  0  0  0
  160.8980  203.0510  150.7080 N   0  0  0  0  0  1  0  0  0  0  0  0
  161.2360  204.4080  150.9720 C   0  0  0  0  0  0  0  0  0  0  0  0
  159.8810  209.4950  153.1030 C   0  0  0  0  0  2  0  0  0  0  0  0
  158.9110  211.5450  154.1010 C   0  0  0  0  0  2  0  0  0  0  0  0
  158.8920  211.6920  152.5970 C   0  0  2  0  0  3  0  0  0  0  0  0
  160.0520  210.9890  153.2760 C   0  0  2  0  0  3  0  0  0  0  0  0
  159.3420  213.0830  152.2130 C   0  0  0  0  0  2  0  0  0  0  0  0
  158.2590  213.7720  151.5330 N   0  0  0  0  0  2  0  0  0  0  0  0
  158.5060  213.6650  150.1540 N   0  0  0  0  0  0  0  0  0  0  0  0
  157.5930  212.5050  147.9930 O   0  0  0  0  0  1  0  0  0  0  0  0
  156.1590  213.6750  149.4810 C   0  0  0  0  0  2  0  0  0  0  0  0
  157.4710  214.4360  149.4670 C   0  0  2  0  0  3  0  0  0  0  0  0
  156.9650  213.7360  148.2010 C   0  0  1  0  0  3  0  0  0  0  0  0
  159.8030  214.2870  149.8880 C   0  0  0  0  0  2  0  0  0  0  0  0
  160.6210  213.4580  149.1350 F   0  0  0  0  0  0  0  0  0  0  0  0
  1 20  1  6  0  0  0
  2  5  1  6  0  0  0
  3  2  1  0  0  0  0
  4  1  1  6  0  0  0
  4  3  1  0  0  0  0
  4  2  1  0  0  0  0
  5  7  1  0  0  0  0
  6  7  1  0  0  0  0
  8  9  1  6  0  0  0
  8  1  1  0  0  0  0
 10  8  1  0  0  0  0
 11 16  1  0  0  0  0
 11 10  1  0  0  0  0
 12 13  1  6  0  0  0
 12 11  1  0  0  0  0
 14 12  1  0  0  0  0
 15 14  1  0  0  0  0
 16 19  1  0  0  0  0
 18 19  1  0  0  0  0
 19 17  2  0  0  0  0
 22 24  1  1  0  0  0
 22 23  1  0  0  0  0
 22 21  1  0  0  0  0
 23 20  1  6  0  0  0
 23 21  1  0  0  0  0
 25 24  1  0  0  0  0
 26 25  1  0  0  0  0
 29 28  1  0  0  0  0
 29 26  1  1  0  0  0
 30 27  1  1  0  0  0
 30 29  1  0  0  0  0
 30 28  1  0  0  0  0
 31 26  1  0  0  0  0
 32 31  1  0  0  0  0
M  END
>  <MODEL>
8

>  <REMARK>
 VINA RESULT:      -5.4      3.715      8.252
  Name = 
  17 active torsions:
  status: ('A' for Active; 'I' for Inactive)
    1  A    between atoms: C_2  and  C_6
    2  A    between atoms: C_3  and  N_20
    3  A    between atoms: C_3  and  C_22
    4  A    between atoms: C_4  and  C_14
    5  A    between atoms: C_4  and  C_24
    6  A    between atoms: C_4  and  C_30
    7  A    between atoms: C_5  and  C_14
    8  A    between atoms: C_6  and  N_17
    9  A    between atoms: C_11  and  N_12
   10  A    between atoms: N_12  and  N_17
   11  A    between atoms: N_12  and  C_28
   12  A    between atoms: N_13  and  C_18
   13  A    between atoms: N_13  and  C_29
   14  A    between atoms: C_15  and  N_20
   15  A    between atoms: C_15  and  C_26
   16  A    between atoms: C_16  and  N_20
   17  A    between atoms: C_16  and  C_24
                            x       y       z     vdW  Elec       q    Type
                         _______ _______ _______ _____ _____    ______ ____

>  <TORSDO>
F 17

$$$$
=
 OpenBabel11062408323D

 32 34  0  0  1  0  0  0  0  0999 V2000
  162.0690  208.2740  151.0980 C   0  0  1  0  0  3  0  0  0  0  0  0
  161.6260  208.9060  148.6360 C   0  0  1  0  0  3  0  0  0  0  0  0
  162.2660  207.5340  148.7010 C   0  0  0  0  0  2  0  0  0  0  0  0
  161.3100  207.9560  149.8030 C   0  0  1  0  0  3  0  0  0  0  0  0
  162.6240  209.9110  148.9720 N   0  0  0  0  0  2  0  0  0  0  0  0
  162.6150  212.0780  147.8940 C   0  0  0  0  0  1  0  0  0  0  0  0
  161.9550  211.1980  148.9330 C   0  0  0  0  0  2  0  0  0  0  0  0
  161.2580  209.2150  151.9900 C   0  0  2  0  0  3  0  0  0  0  0  0
  161.9820  210.3770  152.2610 O   0  0  0  0  0  1  0  0  0  0  0  0
  160.9050  208.5330  153.3050 C   0  0  0  0  0  2  0  0  0  0  0  0
  160.9190  209.5100  154.3960 N   0  0  0  0  0  0  0  0  0  0  0  0
  161.4010  208.8870  155.6440 C   0  0  1  0  0  3  0  0  0  0  0  0
  162.3390  209.8090  156.4210 C   0  0  0  0  0  1  0  0  0  0  0  0
  160.2370  208.4620  156.5480 C   0  0  0  0  0  2  0  0  0  0  0  0
  160.0750  206.9500  156.6100 C   0  0  0  0  0  1  0  0  0  0  0  0
  159.5560  210.0460  154.5620 C   0  0  0  0  0  2  0  0  0  0  0  0
  160.1080  212.3010  155.1540 O   0  0  0  0  0  0  0  0  0  0  0  0
  158.6440  212.0910  153.3660 N   0  0  0  0  0  1  0  0  0  0  0  0
  159.4640  211.5380  154.3900 C   0  0  0  0  0  0  0  0  0  0  0  0
  162.3740  206.9810  151.8380 C   0  0  0  0  0  2  0  0  0  0  0  0
  161.2110  205.0110  152.7910 C   0  0  0  0  0  2  0  0  0  0  0  0
  161.7340  204.6400  151.4220 C   0  0  2  0  0  3  0  0  0  0  0  0
  161.2010  206.0360  151.6770 C   0  0  2  0  0  3  0  0  0  0  0  0
  160.6800  203.8640  150.6650 C   0  0  0  0  0  2  0  0  0  0  0  0
  160.6690  204.2910  149.2760 N   0  0  0  0  0  2  0  0  0  0  0  0
  161.3940  203.3360  148.5460 N   0  0  0  0  0  0  0  0  0  0  0  0
  161.9590  200.8300  149.0490 O   0  0  0  0  0  1  0  0  0  0  0  0
  159.7280  201.6400  149.1030 C   0  0  0  0  0  2  0  0  0  0  0  0
  160.4270  202.3920  147.9870 C   0  0  2  0  0  3  0  0  0  0  0  0
  160.7900  200.9350  148.2890 C   0  0  1  0  0  3  0  0  0  0  0  0
  162.0560  204.0310  147.4420 C   0  0  0  0  0  2  0  0  0  0  0  0
  161.2500  205.0260  146.9100 F   0  0  0  0  0  0  0  0  0  0  0  0
  1 20  1  1  0  0  0
  1  8  1  0  0  0  0
  2  3  1  0  0  0  0
  2  5  1  1  0  0  0
  2  4  1  0  0  0  0
  3  4  1  0  0  0  0
  4  1  1  1  0  0  0
  6  7  1  0  0  0  0
  7  5  1  0  0  0  0
  8  9  1  1  0  0  0
  8 10  1  0  0  0  0
 10 11  1  0  0  0  0
 11 16  1  0  0  0  0
 11 12  1  0  0  0  0
 12 13  1  1  0  0  0
 12 14  1  0  0  0  0
 14 15  1  0  0  0  0
 18 19  1  0  0  0  0
 19 16  1  0  0  0  0
 19 17  2  0  0  0  0
 22 24  1  6  0  0  0
 22 23  1  0  0  0  0
 22 21  1  0  0  0  0
 23 20  1  1  0  0  0
 23 21  1  0  0  0  0
 25 24  1  0  0  0  0
 26 25  1  0  0  0  0
 29 30  1  0  0  0  0
 29 26  1  1  0  0  0
 29 28  1  0  0  0  0
 30 27  1  1  0  0  0
 30 28  1  0  0  0  0
 31 26  1  0  0  0  0
 32 31  1  0  0  0  0
M  END
>  <MODEL>
9

>  <REMARK>
 VINA RESULT:      -5.4      1.800      2.318
  Name = 
  17 active torsions:
  status: ('A' for Active; 'I' for Inactive)
    1  A    between atoms: C_2  and  C_6
    2  A    between atoms: C_3  and  N_20
    3  A    between atoms: C_3  and  C_22
    4  A    between atoms: C_4  and  C_14
    5  A    between atoms: C_4  and  C_24
    6  A    between atoms: C_4  and  C_30
    7  A    between atoms: C_5  and  C_14
    8  A    between atoms: C_6  and  N_17
    9  A    between atoms: C_11  and  N_12
   10  A    between atoms: N_12  and  N_17
   11  A    between atoms: N_12  and  C_28
   12  A    between atoms: N_13  and  C_18
   13  A    between atoms: N_13  and  C_29
   14  A    between atoms: C_15  and  N_20
   15  A    between atoms: C_15  and  C_26
   16  A    between atoms: C_16  and  N_20
   17  A    between atoms: C_16  and  C_24
                            x       y       z     vdW  Elec       q    Type
                         _______ _______ _______ _____ _____    ______ ____

>  <TORSDO>
F 17

$$$$
