=
 OpenBabel11062408143D

 32 39  0  0  1  0  0  0  0  0999 V2000
  161.3920  208.3110  151.0240 C   0  0  0  0  0  0  0  0  0  0  0  0
  161.0400  206.3290  149.5560 C   0  0  1  0  0  3  0  0  0  0  0  0
  161.6820  209.6700  151.1970 C   0  0  0  0  0  3  0  0  0  0  0  0
  161.4360  207.7610  149.7350 C   0  0  0  0  0  0  0  0  0  0  0  0
  161.8630  205.6640  148.4690 C   0  0  1  0  0  3  0  0  0  0  0  0
  160.9690  201.7340  151.5420 C   0  0  0  0  0  2  0  0  0  0  0  0
  161.1980  205.5650  150.8650 C   0  0  1  0  0  3  0  0  0  0  0  0
  160.7420  202.0930  149.0680 C   0  0  0  0  0  2  0  0  0  0  0  0
  161.0370  203.5450  149.3150 C   0  0  0  0  0  0  0  0  0  0  0  0
  161.8140  208.5380  148.6290 C   0  0  0  0  0  0  0  0  0  0  0  0
  161.4930  204.2640  148.3400 N   0  0  0  0  0  0  0  0  0  0  0  0
  162.0700  207.9070  147.2810 C   0  0  0  0  0  2  0  0  0  0  0  0
  162.1050  209.8930  148.8190 C   0  0  0  0  0  3  0  0  0  0  0  0
  160.4600  206.2450  151.8550 O   0  0  0  0  0  0  0  0  0  0  0  0
  161.1480  207.3940  152.1240 N   0  0  0  0  0  0  0  0  0  0  0  0
  160.6710  204.1460  150.6700 C   0  0  1  0  0  3  0  0  0  0  0  0
  161.6310  206.4330  147.1600 C   0  0  1  0  0  3  0  0  0  0  0  0
  162.0230  210.4610  150.0950 C   0  0  0  0  0  3  0  0  0  0  0  0
  160.1240  201.4370  150.3030 C   0  0  0  0  0  2  0  0  0  0  0  0
  161.1170  203.2400  151.8250 C   0  0  0  0  0  2  0  0  0  0  0  0
  160.7760  209.8530  154.6290 C   0  0  2  0  0  0  0  0  0  0  0  0
  161.4290  207.3320  156.5900 C   0  0  0  0  0  2  0  0  0  0  0  0
  161.6220  210.7550  153.7530 C   0  0  0  0  0  1  0  0  0  0  0  0
  160.6210  207.1870  155.3050 C   0  0  0  0  0  0  0  0  0  0  0  0
  161.7240  207.5110  153.4770 C   0  0  2  0  0  3  0  0  0  0  0  0
  160.4480  210.2830  155.9150 O   0  0  0  0  0  1  0  0  0  0  0  0
  161.4280  206.2760  154.3860 C   0  0  0  0  0  2  0  0  0  0  0  0
  160.9120  208.3620  154.4530 C   0  0  2  0  0  0  0  0  0  0  0  0
  159.6700  209.0820  153.9280 C   0  0  0  0  0  2  0  0  0  0  0  0
  159.9700  206.9900  156.6670 C   0  0  0  0  0  2  0  0  0  0  0  0
  162.3800  205.7790  146.0090 C   0  0  0  0  0  2  0  0  0  0  0  0
  161.5290  205.6160  144.9170 O   0  0  0  0  0  1  0  0  0  0  0  0
  1  3  1  0  0  0  0
  1 15  1  0  0  0  0
  2  4  1  1  0  0  0
  2  7  1  0  0  0  0
  4  1  2  0  0  0  0
  5 11  1  6  0  0  0
  5  2  1  0  0  0  0
  6 20  1  0  0  0  0
  7 14  1  1  0  0  0
  8  9  1  0  0  0  0
  8 19  1  0  0  0  0
  9 16  1  0  0  0  0
 10 13  2  0  0  0  0
 10  4  1  0  0  0  0
 11  9  2  0  0  0  0
 12 10  1  0  0  0  0
 13 18  1  0  0  0  0
 14 15  1  0  0  0  0
 16  7  1  0  0  0  0
 16 20  1  1  0  0  0
 17 31  1  6  0  0  0
 17 12  1  0  0  0  0
 17  5  1  0  0  0  0
 18  3  2  0  0  0  0
 19  6  1  0  0  0  0
 21 23  1  6  0  0  0
 21 26  1  0  0  0  0
 22 30  1  0  0  0  0
 24 22  1  0  0  0  0
 24 30  1  0  0  0  0
 25 15  1  6  0  0  0
 25 27  1  0  0  0  0
 25 28  1  0  0  0  0
 27 24  1  0  0  0  0
 28 29  1  6  0  0  0
 28 21  1  0  0  0  0
 28 24  1  0  0  0  0
 29 21  1  0  0  0  0
 32 31  1  0  0  0  0
M  END
>  <MODEL>
1

>  <REMARK>
 VINA RESULT:      -8.9      0.000      0.000
  Name = 
  2 active torsions:
  status: ('A' for Active; 'I' for Inactive)
    1  A    between atoms: C_13  and  C_29
    2  A    between atoms: C_16  and  N_27
                            x       y       z     vdW  Elec       q    Type
                         _______ _______ _______ _____ _____    ______ ____

>  <TORSDO>
F 2

$$$$
=
 OpenBabel11062408143D

 32 39  0  0  1  0  0  0  0  0999 V2000
  161.3830  207.4930  152.7090 C   0  0  0  0  0  0  0  0  0  0  0  0
  162.0160  208.3710  150.4660 C   0  0  1  0  0  3  0  0  0  0  0  0
  161.1490  206.4240  153.5850 C   0  0  0  0  0  3  0  0  0  0  0  0
  161.6850  207.2240  151.3670 C   0  0  0  0  0  0  0  0  0  0  0  0
  161.5070  208.1260  149.0580 C   0  0  1  0  0  3  0  0  0  0  0  0
  161.1760  213.1760  149.3390 C   0  0  0  0  0  2  0  0  0  0  0  0
  161.4240  209.6640  151.0110 C   0  0  1  0  0  3  0  0  0  0  0  0
  162.1500  211.5890  147.6560 C   0  0  0  0  0  2  0  0  0  0  0  0
  161.8960  210.4850  148.6430 C   0  0  0  0  0  0  0  0  0  0  0  0
  161.7070  205.9070  150.8800 C   0  0  0  0  0  0  0  0  0  0  0  0
  161.8010  209.2690  148.2080 N   0  0  0  0  0  0  0  0  0  0  0  0
  161.8190  205.6220  149.4020 C   0  0  0  0  0  2  0  0  0  0  0  0
  161.4670  204.8510  151.7660 C   0  0  0  0  0  3  0  0  0  0  0  0
  161.8800  209.8250  152.3360 O   0  0  0  0  0  0  0  0  0  0  0  0
  161.2250  208.8880  153.0820 N   0  0  0  0  0  0  0  0  0  0  0  0
  161.8850  210.8240  150.1310 C   0  0  1  0  0  3  0  0  0  0  0  0
  162.1710  206.8460  148.5290 C   0  0  1  0  0  3  0  0  0  0  0  0
  161.2060  205.1080  153.1170 C   0  0  0  0  0  3  0  0  0  0  0  0
  162.3280  212.9330  148.3630 C   0  0  0  0  0  2  0  0  0  0  0  0
  161.0550  212.0820  150.4150 C   0  0  0  0  0  2  0  0  0  0  0  0
  161.7490  210.2500  156.2970 C   0  0  2  0  0  0  0  0  0  0  0  0
  158.9560  211.7900  155.6230 C   0  0  0  0  0  2  0  0  0  0  0  0
  162.0970  208.8450  156.7450 C   0  0  0  0  0  1  0  0  0  0  0  0
  160.0070  211.4910  154.5600 C   0  0  0  0  0  0  0  0  0  0  0  0
  160.2840  209.4000  154.0960 C   0  0  2  0  0  3  0  0  0  0  0  0
  161.6300  211.2520  157.2610 O   0  0  0  0  0  1  0  0  0  0  0  0
  159.3560  210.5380  153.5630 C   0  0  0  0  0  2  0  0  0  0  0  0
  160.8780  210.4110  155.0770 C   0  0  2  0  0  0  0  0  0  0  0  0
  162.3730  210.7120  154.9910 C   0  0  0  0  0  2  0  0  0  0  0  0
  159.7110  212.9210  154.9880 C   0  0  0  0  0  2  0  0  0  0  0  0
  161.7520  206.5740  147.0920 C   0  0  0  0  0  2  0  0  0  0  0  0
  160.4000  206.2390  147.0440 O   0  0  0  0  0  1  0  0  0  0  0  0
  1 15  1  0  0  0  0
  1  3  1  0  0  0  0
  2  7  1  0  0  0  0
  2  4  1  1  0  0  0
  4  1  2  0  0  0  0
  5 11  1  6  0  0  0
  5  2  1  0  0  0  0
  6 20  1  0  0  0  0
  7 14  1  1  0  0  0
  8 19  1  0  0  0  0
  8  9  1  0  0  0  0
  9 16  1  0  0  0  0
 10  4  1  0  0  0  0
 10 13  2  0  0  0  0
 11  9  2  0  0  0  0
 12 10  1  0  0  0  0
 13 18  1  0  0  0  0
 14 15  1  0  0  0  0
 16 20  1  6  0  0  0
 16  7  1  0  0  0  0
 17 31  1  6  0  0  0
 17  5  1  0  0  0  0
 17 12  1  0  0  0  0
 18  3  2  0  0  0  0
 19  6  1  0  0  0  0
 21 23  1  1  0  0  0
 21 26  1  0  0  0  0
 24 30  1  0  0  0  0
 24 28  1  0  0  0  0
 24 22  1  0  0  0  0
 25 15  1  6  0  0  0
 25 28  1  0  0  0  0
 27 25  1  0  0  0  0
 27 24  1  0  0  0  0
 28 29  1  6  0  0  0
 28 21  1  0  0  0  0
 29 21  1  0  0  0  0
 30 22  1  0  0  0  0
 32 31  1  0  0  0  0
M  END
>  <MODEL>
2

>  <REMARK>
 VINA RESULT:      -8.6      2.037      5.298
  Name = 
  2 active torsions:
  status: ('A' for Active; 'I' for Inactive)
    1  A    between atoms: C_13  and  C_29
    2  A    between atoms: C_16  and  N_27
                            x       y       z     vdW  Elec       q    Type
                         _______ _______ _______ _____ _____    ______ ____

>  <TORSDO>
F 2

$$$$
=
 OpenBabel11062408143D

 32 39  0  0  1  0  0  0  0  0999 V2000
  161.1820  204.4930  150.1040 C   0  0  0  0  0  0  0  0  0  0  0  0
  160.9740  206.7440  151.1510 C   0  0  1  0  0  3  0  0  0  0  0  0
  161.1780  203.0950  150.1940 C   0  0  0  0  0  3  0  0  0  0  0  0
  161.0540  205.2550  151.2730 C   0  0  0  0  0  0  0  0  0  0  0  0
  161.6550  207.4280  152.3210 C   0  0  1  0  0  3  0  0  0  0  0  0
  162.4460  210.8130  148.6320 C   0  0  0  0  0  2  0  0  0  0  0  0
  161.6070  207.2050  149.8430 C   0  0  1  0  0  3  0  0  0  0  0  0
  161.5730  210.9730  150.9800 C   0  0  0  0  0  2  0  0  0  0  0  0
  161.5690  209.4710  151.0140 C   0  0  0  0  0  0  0  0  0  0  0  0
  160.9710  204.6390  152.5330 C   0  0  0  0  0  0  0  0  0  0  0  0
  161.6040  208.8720  152.1620 N   0  0  0  0  0  0  0  0  0  0  0  0
  161.0480  205.4490  153.8050 C   0  0  0  0  0  2  0  0  0  0  0  0
  160.9720  203.2430  152.6070 C   0  0  0  0  0  3  0  0  0  0  0  0
  160.9810  206.5080  148.7900 O   0  0  0  0  0  0  0  0  0  0  0  0
  161.4230  205.2180  148.8680 N   0  0  0  0  0  0  0  0  0  0  0  0
  161.3970  208.7100  149.7020 C   0  0  1  0  0  3  0  0  0  0  0  0
  160.9510  206.9770  153.6090 C   0  0  1  0  0  3  0  0  0  0  0  0
  161.0580  202.4730  151.4410 C   0  0  0  0  0  3  0  0  0  0  0  0
  161.4300  211.4940  149.5510 C   0  0  0  0  0  2  0  0  0  0  0  0
  162.2990  209.2810  148.6000 C   0  0  0  0  0  2  0  0  0  0  0  0
  160.9630  202.5860  146.5600 C   0  0  2  0  0  0  0  0  0  0  0  0
  162.8050  204.5030  144.6720 C   0  0  0  0  0  2  0  0  0  0  0  0
  161.2560  201.6410  147.7060 C   0  0  0  0  0  1  0  0  0  0  0  0
  161.7860  205.0580  145.6610 C   0  0  0  0  0  0  0  0  0  0  0  0
  162.2530  204.7420  147.7460 C   0  0  2  0  0  3  0  0  0  0  0  0
  160.8510  202.0650  145.2710 O   0  0  0  0  0  1  0  0  0  0  0  0
  162.5740  205.8530  146.6960 C   0  0  0  0  0  2  0  0  0  0  0  0
  161.4910  203.9960  146.6500 C   0  0  2  0  0  0  0  0  0  0  0  0
  160.0020  203.7250  146.8580 C   0  0  0  0  0  2  0  0  0  0  0  0
  161.5810  205.2050  144.1600 C   0  0  0  0  0  2  0  0  0  0  0  0
  161.5450  207.6770  154.8220 C   0  0  0  0  0  2  0  0  0  0  0  0
  160.5710  208.4530  155.4500 O   0  0  0  0  0  1  0  0  0  0  0  0
  1  3  2  0  0  0  0
  1  4  1  0  0  0  0
  2  4  1  1  0  0  0
  2  5  1  0  0  0  0
  3 18  1  0  0  0  0
  4 10  2  0  0  0  0
  5 11  1  6  0  0  0
  5 17  1  0  0  0  0
  6 19  1  0  0  0  0
  7 14  1  6  0  0  0
  7  2  1  0  0  0  0
  8  9  1  0  0  0  0
  9 11  2  0  0  0  0
 10 13  1  0  0  0  0
 10 12  1  0  0  0  0
 14 15  1  0  0  0  0
 15  1  1  0  0  0  0
 16 20  1  6  0  0  0
 16  7  1  0  0  0  0
 16  9  1  0  0  0  0
 17 12  1  0  0  0  0
 17 31  1  1  0  0  0
 18 13  2  0  0  0  0
 19  8  1  0  0  0  0
 20  6  1  0  0  0  0
 21 28  1  0  0  0  0
 21 29  1  0  0  0  0
 21 23  1  1  0  0  0
 22 24  1  0  0  0  0
 24 28  1  0  0  0  0
 24 27  1  0  0  0  0
 25 27  1  6  0  0  0
 25 15  1  0  0  0  0
 26 21  1  0  0  0  0
 28 29  1  1  0  0  0
 28 25  1  0  0  0  0
 30 22  1  0  0  0  0
 30 24  1  0  0  0  0
 31 32  1  0  0  0  0
M  END
>  <MODEL>
3

>  <REMARK>
 VINA RESULT:      -7.6      1.628      8.075
  Name = 
  2 active torsions:
  status: ('A' for Active; 'I' for Inactive)
    1  A    between atoms: C_13  and  C_29
    2  A    between atoms: C_16  and  N_27
                            x       y       z     vdW  Elec       q    Type
                         _______ _______ _______ _____ _____    ______ ____

>  <TORSDO>
F 2

$$$$
=
 OpenBabel11062408143D

 32 39  0  0  1  0  0  0  0  0999 V2000
  160.8550  209.5860  155.3060 C   0  0  0  0  0  0  0  0  0  0  0  0
  161.5320  208.7800  153.0490 C   0  0  1  0  0  3  0  0  0  0  0  0
  160.4830  209.3390  156.6350 C   0  0  0  0  0  3  0  0  0  0  0  0
  161.0510  208.5030  154.4380 C   0  0  0  0  0  0  0  0  0  0  0  0
  160.9300  207.8030  152.0560 C   0  0  1  0  0  3  0  0  0  0  0  0
  161.4630  211.9240  149.1530 C   0  0  0  0  0  2  0  0  0  0  0  0
  161.1890  210.2070  152.6410 C   0  0  1  0  0  3  0  0  0  0  0  0
  162.0860  209.5090  148.8730 C   0  0  0  0  0  2  0  0  0  0  0  0
  161.6920  209.3050  150.3090 C   0  0  0  0  0  0  0  0  0  0  0  0
  160.8310  207.1840  154.8660 C   0  0  0  0  0  0  0  0  0  0  0  0
  161.3760  208.1150  150.7070 N   0  0  0  0  0  0  0  0  0  0  0  0
  160.8310  206.0350  153.8860 C   0  0  0  0  0  2  0  0  0  0  0  0
  160.4550  206.9530  156.1930 C   0  0  0  0  0  3  0  0  0  0  0  0
  161.7210  211.0760  153.6160 O   0  0  0  0  0  0  0  0  0  0  0  0
  160.9490  210.9160  154.7320 N   0  0  0  0  0  0  0  0  0  0  0  0
  161.8010  210.4860  151.2710 C   0  0  1  0  0  3  0  0  0  0  0  0
  161.3460  206.3850  152.4740 C   0  0  1  0  0  3  0  0  0  0  0  0
  160.2980  208.0250  157.0780 C   0  0  0  0  0  3  0  0  0  0  0  0
  162.5160  210.9530  148.6170 C   0  0  0  0  0  2  0  0  0  0  0  0
  161.2060  211.7620  150.6620 C   0  0  0  0  0  2  0  0  0  0  0  0
  157.8000  212.1070  153.6710 C   0  0  2  0  0  0  0  0  0  0  0  0
  157.7240  213.3190  156.6960 C   0  0  0  0  0  2  0  0  0  0  0  0
  158.4840  212.5240  152.3850 C   0  0  0  0  0  1  0  0  0  0  0  0
  158.3700  211.9780  156.3640 C   0  0  0  0  0  0  0  0  0  0  0  0
  160.1510  212.0850  155.1480 C   0  0  2  0  0  3  0  0  0  0  0  0
  156.4780  212.4990  153.8860 O   0  0  0  0  0  1  0  0  0  0  0  0
  159.8540  212.1210  156.6810 C   0  0  0  0  0  2  0  0  0  0  0  0
  158.6470  211.9590  154.9090 C   0  0  2  0  0  0  0  0  0  0  0  0
  158.1290  210.7160  154.1860 C   0  0  0  0  0  2  0  0  0  0  0  0
  157.1060  212.0520  157.2080 C   0  0  0  0  0  2  0  0  0  0  0  0
  160.8290  205.3560  151.4810 C   0  0  0  0  0  2  0  0  0  0  0  0
  160.8360  204.0870  152.0610 O   0  0  0  0  0  1  0  0  0  0  0  0
  1  3  1  0  0  0  0
  2  4  1  1  0  0  0
  3 18  2  0  0  0  0
  4 10  1  0  0  0  0
  4  1  2  0  0  0  0
  5 11  1  6  0  0  0
  5 17  1  0  0  0  0
  5  2  1  0  0  0  0
  6 20  1  0  0  0  0
  7  2  1  0  0  0  0
  7 14  1  1  0  0  0
  8  9  1  0  0  0  0
  9 11  2  0  0  0  0
  9 16  1  0  0  0  0
 10 13  2  0  0  0  0
 12 10  1  0  0  0  0
 13 18  1  0  0  0  0
 14 15  1  0  0  0  0
 15  1  1  0  0  0  0
 16 20  1  6  0  0  0
 16  7  1  0  0  0  0
 17 31  1  6  0  0  0
 17 12  1  0  0  0  0
 19  8  1  0  0  0  0
 19  6  1  0  0  0  0
 21 23  1  6  0  0  0
 21 26  1  0  0  0  0
 21 29  1  0  0  0  0
 21 28  1  0  0  0  0
 22 30  1  0  0  0  0
 24 27  1  0  0  0  0
 24 22  1  0  0  0  0
 24 30  1  0  0  0  0
 25 15  1  1  0  0  0
 25 27  1  0  0  0  0
 28 29  1  6  0  0  0
 28 25  1  0  0  0  0
 28 24  1  0  0  0  0
 31 32  1  0  0  0  0
M  END
>  <MODEL>
4

>  <REMARK>
 VINA RESULT:      -6.9      2.641      6.141
  Name = 
  2 active torsions:
  status: ('A' for Active; 'I' for Inactive)
    1  A    between atoms: C_13  and  C_29
    2  A    between atoms: C_16  and  N_27
                            x       y       z     vdW  Elec       q    Type
                         _______ _______ _______ _____ _____    ______ ____

>  <TORSDO>
F 2

$$$$
=
 OpenBabel11062408143D

 32 39  0  0  1  0  0  0  0  0999 V2000
  160.7520  208.3050  153.9360 C   0  0  0  0  0  0  0  0  0  0  0  0
  159.6680  210.5410  154.1040 C   0  0  1  0  0  3  0  0  0  0  0  0
  161.2090  207.1180  154.5240 C   0  0  0  0  0  3  0  0  0  0  0  0
  160.2300  209.3170  154.7540 C   0  0  0  0  0  0  0  0  0  0  0  0
  159.9280  211.7770  154.9450 C   0  0  1  0  0  3  0  0  0  0  0  0
  159.9770  213.7570  150.2790 C   0  0  0  0  0  2  0  0  0  0  0  0
  160.2640  210.7280  152.7140 C   0  0  1  0  0  3  0  0  0  0  0  0
  158.8190  214.3770  152.4190 C   0  0  0  0  0  2  0  0  0  0  0  0
  159.3180  213.0800  152.9910 C   0  0  0  0  0  0  0  0  0  0  0  0
  160.2060  209.1770  156.1510 C   0  0  0  0  0  0  0  0  0  0  0  0
  159.4120  212.9610  154.2770 N   0  0  0  0  0  0  0  0  0  0  0  0
  159.8470  210.3390  157.0450 C   0  0  0  0  0  2  0  0  0  0  0  0
  160.6700  207.9880  156.7230 C   0  0  0  0  0  3  0  0  0  0  0  0
  160.0450  209.5400  151.9860 O   0  0  0  0  0  0  0  0  0  0  0  0
  160.8840  208.6040  152.5210 N   0  0  0  0  0  0  0  0  0  0  0  0
  159.5770  211.9130  152.0410 C   0  0  1  0  0  3  0  0  0  0  0  0
  159.2650  211.5670  156.3140 C   0  0  1  0  0  3  0  0  0  0  0  0
  161.1530  206.9560  155.9120 C   0  0  0  0  0  3  0  0  0  0  0  0
  158.6860  214.2950  150.8980 C   0  0  0  0  0  2  0  0  0  0  0  0
  160.3610  212.3610  150.8020 C   0  0  0  0  0  2  0  0  0  0  0  0
  161.3160  205.5240  150.8490 C   0  0  2  0  0  0  0  0  0  0  0  0
  163.0260  207.3810  148.7850 C   0  0  0  0  0  2  0  0  0  0  0  0
  161.6020  204.9210  152.2090 C   0  0  0  0  0  1  0  0  0  0  0  0
  161.7750  207.8820  149.4990 C   0  0  0  0  0  0  0  0  0  0  0  0
  161.9580  208.1080  151.6390 C   0  0  2  0  0  3  0  0  0  0  0  0
  161.5130  204.7400  149.7120 O   0  0  0  0  0  1  0  0  0  0  0  0
  162.2200  209.0270  150.4030 C   0  0  0  0  0  2  0  0  0  0  0  0
  161.5390  207.0040  150.6680 C   0  0  2  0  0  0  0  0  0  0  0  0
  160.1170  206.4540  150.7660 C   0  0  0  0  0  2  0  0  0  0  0  0
  161.7860  207.6720  147.9920 C   0  0  0  0  0  2  0  0  0  0  0  0
  159.4330  212.8000  157.1900 C   0  0  0  0  0  2  0  0  0  0  0  0
  160.7780  213.1590  157.2550 O   0  0  0  0  0  1  0  0  0  0  0  0
  1  3  2  0  0  0  0
  1  4  1  0  0  0  0
  2  4  1  1  0  0  0
  2  5  1  0  0  0  0
  3 18  1  0  0  0  0
  4 10  2  0  0  0  0
  5 11  1  6  0  0  0
  5 17  1  0  0  0  0
  6 20  1  0  0  0  0
  6 19  1  0  0  0  0
  7 14  1  6  0  0  0
  7  2  1  0  0  0  0
  8  9  1  0  0  0  0
  9 11  2  0  0  0  0
 10 13  1  0  0  0  0
 10 12  1  0  0  0  0
 14 15  1  0  0  0  0
 15  1  1  0  0  0  0
 16 20  1  6  0  0  0
 16  7  1  0  0  0  0
 16  9  1  0  0  0  0
 17 12  1  0  0  0  0
 17 31  1  1  0  0  0
 18 13  2  0  0  0  0
 19  8  1  0  0  0  0
 21 23  1  1  0  0  0
 22 24  1  0  0  0  0
 24 27  1  0  0  0  0
 24 28  1  0  0  0  0
 25 27  1  6  0  0  0
 25 15  1  0  0  0  0
 26 21  1  0  0  0  0
 28 29  1  1  0  0  0
 28 21  1  0  0  0  0
 28 25  1  0  0  0  0
 29 21  1  0  0  0  0
 30 22  1  0  0  0  0
 30 24  1  0  0  0  0
 31 32  1  0  0  0  0
M  END
>  <MODEL>
5

>  <REMARK>
 VINA RESULT:      -6.9      2.622      8.373
  Name = 
  2 active torsions:
  status: ('A' for Active; 'I' for Inactive)
    1  A    between atoms: C_13  and  C_29
    2  A    between atoms: C_16  and  N_27
                            x       y       z     vdW  Elec       q    Type
                         _______ _______ _______ _____ _____    ______ ____

>  <TORSDO>
F 2

$$$$
=
 OpenBabel11062408143D

 32 39  0  0  1  0  0  0  0  0999 V2000
  161.9560  210.6440  150.1660 C   0  0  0  0  0  0  0  0  0  0  0  0
  160.8320  211.0490  152.3520 C   0  0  1  0  0  3  0  0  0  0  0  0
  162.2570  211.0300  148.8530 C   0  0  0  0  0  3  0  0  0  0  0  0
  161.0760  211.4270  150.9250 C   0  0  0  0  0  0  0  0  0  0  0  0
  159.4010  211.3460  152.7610 C   0  0  1  0  0  3  0  0  0  0  0  0
  160.4250  207.3280  155.6770 C   0  0  0  0  0  2  0  0  0  0  0  0
  161.1360  209.5720  152.5700 C   0  0  1  0  0  3  0  0  0  0  0  0
  159.4410  209.5940  156.1230 C   0  0  0  0  0  2  0  0  0  0  0  0
  159.8060  209.9610  154.7120 C   0  0  0  0  0  0  0  0  0  0  0  0
  160.4560  212.5600  150.3730 C   0  0  0  0  0  0  0  0  0  0  0  0
  159.1730  210.9330  154.1360 N   0  0  0  0  0  0  0  0  0  0  0  0
  159.3510  213.2810  151.1060 C   0  0  0  0  0  2  0  0  0  0  0  0
  160.7640  212.9300  149.0600 C   0  0  0  0  0  3  0  0  0  0  0  0
  162.4540  209.3310  152.1300 O   0  0  0  0  0  0  0  0  0  0  0  0
  162.4210  209.4050  150.7670 N   0  0  0  0  0  0  0  0  0  0  0  0
  160.9920  209.2580  154.0580 C   0  0  1  0  0  3  0  0  0  0  0  0
  159.1570  212.8500  152.5760 C   0  0  1  0  0  3  0  0  0  0  0  0
  161.6740  212.1780  148.3090 C   0  0  0  0  0  3  0  0  0  0  0  0
  160.3560  208.4950  156.6630 C   0  0  0  0  0  2  0  0  0  0  0  0
  160.9420  207.7420  154.2870 C   0  0  0  0  0  2  0  0  0  0  0  0
  161.3210  206.0890  151.2740 C   0  0  2  0  0  0  0  0  0  0  0  0
  161.8220  205.8920  148.0590 C   0  0  0  0  0  2  0  0  0  0  0  0
  162.2280  206.0620  152.4870 C   0  0  0  0  0  1  0  0  0  0  0  0
  161.3010  207.1560  148.7340 C   0  0  0  0  0  0  0  0  0  0  0  0
  162.7040  208.1550  150.0370 C   0  0  2  0  0  3  0  0  0  0  0  0
  160.7050  204.9050  150.8690 O   0  0  0  0  0  1  0  0  0  0  0  0
  162.3590  208.2330  148.5150 C   0  0  0  0  0  2  0  0  0  0  0  0
  161.6350  207.0710  150.1740 C   0  0  2  0  0  0  0  0  0  0  0  0
  160.4560  207.3280  151.1100 C   0  0  0  0  0  2  0  0  0  0  0  0
  160.4180  206.3490  147.7930 C   0  0  0  0  0  2  0  0  0  0  0  0
  157.7560  213.2300  153.0300 C   0  0  0  0  0  2  0  0  0  0  0  0
  157.1190  213.9780  152.0390 O   0  0  0  0  0  1  0  0  0  0  0  0
  1 15  1  0  0  0  0
  1  4  1  0  0  0  0
  2  4  1  6  0  0  0
  2  7  1  0  0  0  0
  2  5  1  0  0  0  0
  3  1  2  0  0  0  0
  5 11  1  1  0  0  0
  6 19  1  0  0  0  0
  7 14  1  1  0  0  0
  7 16  1  0  0  0  0
  8 19  1  0  0  0  0
  9  8  1  0  0  0  0
 10  4  2  0  0  0  0
 10 12  1  0  0  0  0
 11  9  2  0  0  0  0
 12 17  1  0  0  0  0
 13 10  1  0  0  0  0
 15 14  1  0  0  0  0
 16 20  1  6  0  0  0
 16  9  1  0  0  0  0
 17  5  1  0  0  0  0
 17 31  1  6  0  0  0
 18  3  1  0  0  0  0
 18 13  2  0  0  0  0
 20  6  1  0  0  0  0
 21 23  1  1  0  0  0
 22 24  1  0  0  0  0
 24 28  1  0  0  0  0
 25 27  1  6  0  0  0
 25 28  1  0  0  0  0
 25 15  1  0  0  0  0
 26 21  1  0  0  0  0
 27 24  1  0  0  0  0
 28 29  1  1  0  0  0
 28 21  1  0  0  0  0
 29 21  1  0  0  0  0
 30 22  1  0  0  0  0
 30 24  1  0  0  0  0
 32 31  1  0  0  0  0
M  END
>  <MODEL>
6

>  <REMARK>
 VINA RESULT:      -6.5      2.549      6.711
  Name = 
  2 active torsions:
  status: ('A' for Active; 'I' for Inactive)
    1  A    between atoms: C_13  and  C_29
    2  A    between atoms: C_16  and  N_27
                            x       y       z     vdW  Elec       q    Type
                         _______ _______ _______ _____ _____    ______ ____

>  <TORSDO>
F 2

$$$$
