=
 OpenBabel11062407503D

 34 37  0  0  1  0  0  0  0  0999 V2000
  161.3280  208.8410  155.7270 C   0  0  1  0  0  3  0  0  0  0  0  0
  158.8850  209.7120  155.4110 C   0  0  2  0  0  3  0  0  0  0  0  0
  157.5920  213.7550  154.1570 N   0  0  0  0  0  2  0  0  0  0  0  0
  160.6490  210.0040  153.6050 C   0  0  1  0  0  3  0  0  0  0  0  0
  160.2970  212.9010  154.4070 O   0  0  0  0  0  1  0  0  0  0  0  0
  161.9890  206.4090  155.6930 C   0  0  0  0  0  1  0  0  0  0  0  0
  158.5950  209.8470  156.8990 C   0  0  0  0  0  1  0  0  0  0  0  0
  158.3250  210.7360  153.2690 O   0  0  0  0  0  0  0  0  0  0  0  0
  155.7800  213.0780  152.8390 O   0  0  0  0  0  0  0  0  0  0  0  0
  156.3970  213.0070  153.9350 C   0  0  0  0  0  0  0  0  0  0  0  0
  160.3940  209.9090  155.1240 C   0  0  2  0  0  3  0  0  0  0  0  0
  158.3280  214.4530  153.1140 C   0  0  0  0  0  2  0  0  0  0  0  0
  160.0900  212.5000  153.0840 C   0  0  2  0  0  3  0  0  0  0  0  0
  161.3230  208.8270  157.2500 C   0  0  0  0  0  1  0  0  0  0  0  0
  156.5940  210.6940  154.8890 C   0  0  0  0  0  2  0  0  0  0  0  0
  160.5070  208.6190  152.9200 C   0  0  2  0  0  3  0  0  0  0  0  0
  161.0730  207.4670  155.1000 C   0  0  2  0  0  3  0  0  0  0  0  0
  158.1020  210.7970  154.6580 C   0  0  1  0  0  3  0  0  0  0  0  0
  159.2140  213.5040  152.2870 C   0  0  1  0  0  3  0  0  0  0  0  0
  159.6770  211.0170  152.9820 C   0  0  1  0  0  3  0  0  0  0  0  0
  161.3590  207.5520  153.6090 C   0  0  0  0  0  2  0  0  0  0  0  0
  155.9340  212.0700  155.0030 C   0  0  0  0  0  2  0  0  0  0  0  0
  158.5070  212.9300  151.0530 C   0  0  2  0  0  3  0  0  0  0  0  0
  159.4160  213.0180  149.8410 C   0  0  0  0  0  1  0  0  0  0  0  0
  157.3480  213.6340  150.7810 F   0  0  0  0  0  0  0  0  0  0  0  0
  162.0760  209.4330  151.0830 C   0  0  0  0  0  1  0  0  0  0  0  0
  160.8410  208.6110  151.4180 C   0  0  1  0  0  3  0  0  0  0  0  0
  160.8820  204.8370  151.0410 C   0  0  0  0  0  0  0  0  0  0  0  0
  160.9110  204.6850  149.6520 C   0  0  0  0  0  3  0  0  0  0  0  0
  160.8480  207.2490  150.7820 C   0  0  0  0  0  0  0  0  0  0  0  0
  160.9100  205.8120  148.8250 C   0  0  0  0  0  3  0  0  0  0  0  0
  160.8530  206.1160  151.6050 C   0  0  0  0  0  3  0  0  0  0  0  0
  160.8810  207.0900  149.3890 C   0  0  0  0  0  3  0  0  0  0  0  0
  160.8880  203.4260  152.0760 Cl  0  0  0  0  0  0  0  0  0  0  0  0
  1 14  1  1  0  0  0
  2  7  1  1  0  0  0
  4 11  1  0  0  0  0
  8 18  1  0  0  0  0
  9 10  2  0  0  0  0
 10  3  1  0  0  0  0
 10 22  1  0  0  0  0
 11  2  1  0  0  0  0
 11  1  1  0  0  0  0
 12  3  1  0  0  0  0
 13  5  1  0  0  0  0
 15 22  1  0  0  0  0
 16  4  1  0  0  0  0
 16 21  1  0  0  0  0
 17  6  1  0  0  0  0
 17  1  1  0  0  0  0
 18 15  1  0  0  0  0
 18  2  1  0  0  0  0
 19 13  1  0  0  0  0
 19 12  1  0  0  0  0
 20 13  1  0  0  0  0
 20  8  1  0  0  0  0
 20  4  1  0  0  0  0
 21 17  1  0  0  0  0
 23 19  1  0  0  0  0
 24 23  1  0  0  0  0
 25 23  1  0  0  0  0
 26 27  1  0  0  0  0
 27 16  1  0  0  0  0
 28 32  1  0  0  0  0
 28 34  1  0  0  0  0
 29 28  2  0  0  0  0
 30 27  1  0  0  0  0
 30 32  2  0  0  0  0
 31 33  2  0  0  0  0
 31 29  1  0  0  0  0
 33 30  1  0  0  0  0
M  END
>  <MODEL>
1

>  <REMARK>
 VINA RESULT:      -3.8      0.000      0.000
  Name = 
  3 active torsions:
  status: ('A' for Active; 'I' for Inactive)
    1  A    between atoms: C_12  and  C_28
    2  A    between atoms: C_13  and  C_29
    3  A    between atoms: C_21  and  C_28
                            x       y       z     vdW  Elec       q    Type
                         _______ _______ _______ _____ _____    ______ ____

>  <TORSDO>
F 3

$$$$
=
 OpenBabel11062407503D

 34 37  0  0  1  0  0  0  0  0999 V2000
  161.5500  209.0850  155.7400 C   0  0  1  0  0  3  0  0  0  0  0  0
  159.0450  209.8020  155.5460 C   0  0  2  0  0  3  0  0  0  0  0  0
  157.4410  213.7350  154.2970 N   0  0  0  0  0  2  0  0  0  0  0  0
  160.6860  210.1620  153.6400 C   0  0  1  0  0  3  0  0  0  0  0  0
  160.2040  213.0480  154.4100 O   0  0  0  0  0  1  0  0  0  0  0  0
  162.3540  206.6960  155.7120 C   0  0  0  0  0  1  0  0  0  0  0  0
  158.8300  209.9510  157.0460 C   0  0  0  0  0  1  0  0  0  0  0  0
  158.3070  210.7470  153.4210 O   0  0  0  0  0  0  0  0  0  0  0  0
  155.6050  212.9230  153.0950 O   0  0  0  0  0  0  0  0  0  0  0  0
  156.2840  212.9120  154.1560 C   0  0  0  0  0  0  0  0  0  0  0  0
  160.5210  210.0830  155.1720 C   0  0  2  0  0  3  0  0  0  0  0  0
  158.0750  214.4530  153.2030 C   0  0  0  0  0  2  0  0  0  0  0  0
  159.9490  212.6080  153.1080 C   0  0  2  0  0  3  0  0  0  0  0  0
  161.6300  209.1030  157.2610 C   0  0  0  0  0  1  0  0  0  0  0  0
  156.6730  210.6350  155.1370 C   0  0  0  0  0  2  0  0  0  0  0  0
  160.5900  208.7570  152.9880 C   0  0  2  0  0  3  0  0  0  0  0  0
  161.3440  207.6860  155.1530 C   0  0  2  0  0  3  0  0  0  0  0  0
  158.1570  210.8230  154.8200 C   0  0  1  0  0  3  0  0  0  0  0  0
  158.9710  213.5420  152.3440 C   0  0  1  0  0  3  0  0  0  0  0  0
  159.6220  211.1010  153.0540 C   0  0  1  0  0  3  0  0  0  0  0  0
  161.5420  207.7570  153.6460 C   0  0  0  0  0  2  0  0  0  0  0  0
  155.9380  211.9710  155.2640 C   0  0  0  0  0  2  0  0  0  0  0  0
  158.2340  212.9010  151.1610 C   0  0  2  0  0  3  0  0  0  0  0  0
  159.1010  212.9450  149.9180 C   0  0  0  0  0  1  0  0  0  0  0  0
  157.0550  213.5760  150.8950 F   0  0  0  0  0  0  0  0  0  0  0  0
  161.9980  209.6320  151.0510 C   0  0  0  0  0  1  0  0  0  0  0  0
  160.8420  208.7380  151.4700 C   0  0  1  0  0  3  0  0  0  0  0  0
  160.9850  205.9800  148.8700 C   0  0  0  0  0  0  0  0  0  0  0  0
  160.9740  204.8300  149.6650 C   0  0  0  0  0  3  0  0  0  0  0  0
  160.9050  207.3650  150.8600 C   0  0  0  0  0  0  0  0  0  0  0  0
  160.9270  204.9450  151.0570 C   0  0  0  0  0  3  0  0  0  0  0  0
  160.9490  207.2440  149.4650 C   0  0  0  0  0  3  0  0  0  0  0  0
  160.8900  206.2080  151.6530 C   0  0  0  0  0  3  0  0  0  0  0  0
  161.0400  205.8380  147.1270 Cl  0  0  0  0  0  0  0  0  0  0  0  0
  1 14  1  1  0  0  0
  2  7  1  1  0  0  0
  4 11  1  0  0  0  0
  8 18  1  0  0  0  0
  9 10  2  0  0  0  0
 10  3  1  0  0  0  0
 10 22  1  0  0  0  0
 11  2  1  0  0  0  0
 11  1  1  0  0  0  0
 12  3  1  0  0  0  0
 13  5  1  0  0  0  0
 15 22  1  0  0  0  0
 16  4  1  0  0  0  0
 16 21  1  0  0  0  0
 17  6  1  0  0  0  0
 17  1  1  0  0  0  0
 18 15  1  0  0  0  0
 18  2  1  0  0  0  0
 19 13  1  0  0  0  0
 19 12  1  0  0  0  0
 20 13  1  0  0  0  0
 20  8  1  0  0  0  0
 20  4  1  0  0  0  0
 21 17  1  0  0  0  0
 23 19  1  0  0  0  0
 24 23  1  0  0  0  0
 25 23  1  0  0  0  0
 26 27  1  0  0  0  0
 27 16  1  0  0  0  0
 28 32  2  0  0  0  0
 28 29  1  0  0  0  0
 29 31  2  0  0  0  0
 30 27  1  0  0  0  0
 30 33  2  0  0  0  0
 31 33  1  0  0  0  0
 32 30  1  0  0  0  0
 34 28  1  0  0  0  0
M  END
>  <MODEL>
2

>  <REMARK>
 VINA RESULT:      -3.8      0.977      1.282
  Name = 
  3 active torsions:
  status: ('A' for Active; 'I' for Inactive)
    1  A    between atoms: C_12  and  C_28
    2  A    between atoms: C_13  and  C_29
    3  A    between atoms: C_21  and  C_28
                            x       y       z     vdW  Elec       q    Type
                         _______ _______ _______ _____ _____    ______ ____

>  <TORSDO>
F 3

$$$$
=
 OpenBabel11062407503D

 34 37  0  0  1  0  0  0  0  0999 V2000
  162.0780  211.7620  149.4570 C   0  0  1  0  0  3  0  0  0  0  0  0
  161.2720  209.5220  150.5350 C   0  0  2  0  0  3  0  0  0  0  0  0
  161.9050  208.1340  154.6910 N   0  0  0  0  0  2  0  0  0  0  0  0
  160.8220  211.7690  151.6340 C   0  0  1  0  0  3  0  0  0  0  0  0
  162.7800  210.6340  153.6440 O   0  0  0  0  0  1  0  0  0  0  0  0
  161.0630  212.7970  147.3950 C   0  0  0  0  0  1  0  0  0  0  0  0
  162.3270  208.6580  149.8590 C   0  0  0  0  0  1  0  0  0  0  0  0
  159.9790  209.6690  152.5980 O   0  0  0  0  0  0  0  0  0  0  0  0
  159.8120  207.1250  154.9740 O   0  0  0  0  0  0  0  0  0  0  0  0
  160.8490  207.2690  154.2730 C   0  0  0  0  0  0  0  0  0  0  0  0
  161.7950  210.9650  150.7460 C   0  0  2  0  0  3  0  0  0  0  0  0
  161.8020  209.0830  155.7880 C   0  0  0  0  0  2  0  0  0  0  0  0
  161.5010  211.0300  154.0440 C   0  0  2  0  0  3  0  0  0  0  0  0
  163.2010  211.1680  148.6170 C   0  0  0  0  0  1  0  0  0  0  0  0
  160.4360  207.4800  151.8070 C   0  0  0  0  0  2  0  0  0  0  0  0
  159.5320  212.1470  150.8610 C   0  0  2  0  0  3  0  0  0  0  0  0
  160.7890  212.0140  148.6690 C   0  0  2  0  0  3  0  0  0  0  0  0
  160.9500  208.9170  151.9090 C   0  0  1  0  0  3  0  0  0  0  0  0
  161.0640  210.3720  155.3810 C   0  0  1  0  0  3  0  0  0  0  0  0
  160.4790  210.9550  152.8910 C   0  0  1  0  0  3  0  0  0  0  0  0
  159.8450  212.8370  149.5320 C   0  0  0  0  0  2  0  0  0  0  0  0
  160.9600  206.5990  152.9430 C   0  0  0  0  0  2  0  0  0  0  0  0
  159.5510  210.3120  155.6250 C   0  0  2  0  0  3  0  0  0  0  0  0
  159.0060  211.7050  155.8780 C   0  0  0  0  0  1  0  0  0  0  0  0
  159.2630  209.5240  156.7250 F   0  0  0  0  0  0  0  0  0  0  0  0
  159.2470  214.1470  152.4160 C   0  0  0  0  0  1  0  0  0  0  0  0
  158.5520  213.0350  151.6470 C   0  0  1  0  0  3  0  0  0  0  0  0
  156.4000  214.1090  148.7140 C   0  0  0  0  0  0  0  0  0  0  0  0
  155.2010  214.4520  149.3440 C   0  0  0  0  0  3  0  0  0  0  0  0
  157.3650  213.5150  150.8590 C   0  0  0  0  0  0  0  0  0  0  0  0
  155.0810  214.3290  150.7310 C   0  0  0  0  0  3  0  0  0  0  0  0
  157.4800  213.6440  149.4690 C   0  0  0  0  0  3  0  0  0  0  0  0
  156.1590  213.8640  151.4860 C   0  0  0  0  0  3  0  0  0  0  0  0
  156.5530  214.2660  146.9780 Cl  0  0  0  0  0  0  0  0  0  0  0  0
  1 14  1  6  0  0  0
  1 11  1  0  0  0  0
  2  7  1  1  0  0  0
  2 11  1  0  0  0  0
  2 18  1  0  0  0  0
  3 12  1  0  0  0  0
  4 20  1  0  0  0  0
  5 13  1  0  0  0  0
  6 17  1  0  0  0  0
  8 20  1  0  0  0  0
 10  3  1  0  0  0  0
 10  9  2  0  0  0  0
 11  4  1  0  0  0  0
 13 19  1  0  0  0  0
 15 18  1  0  0  0  0
 15 22  1  0  0  0  0
 16  4  1  0  0  0  0
 16 27  1  0  0  0  0
 17  1  1  0  0  0  0
 17 21  1  0  0  0  0
 18  8  1  0  0  0  0
 19 23  1  0  0  0  0
 19 12  1  0  0  0  0
 20 13  1  0  0  0  0
 21 16  1  0  0  0  0
 22 10  1  0  0  0  0
 23 24  1  0  0  0  0
 23 25  1  0  0  0  0
 27 26  1  0  0  0  0
 28 29  2  0  0  0  0
 28 32  1  0  0  0  0
 29 31  1  0  0  0  0
 30 33  1  0  0  0  0
 30 27  1  0  0  0  0
 31 33  2  0  0  0  0
 32 30  2  0  0  0  0
 34 28  1  0  0  0  0
M  END
>  <MODEL>
3

>  <REMARK>
 VINA RESULT:      -2.2      3.478      7.168
  Name = 
  3 active torsions:
  status: ('A' for Active; 'I' for Inactive)
    1  A    between atoms: C_12  and  C_28
    2  A    between atoms: C_13  and  C_29
    3  A    between atoms: C_21  and  C_28
                            x       y       z     vdW  Elec       q    Type
                         _______ _______ _______ _____ _____    ______ ____

>  <TORSDO>
F 3

$$$$
=
 OpenBabel11062407503D

 34 37  0  0  1  0  0  0  0  0999 V2000
  161.9820  211.5890  149.9150 C   0  0  1  0  0  3  0  0  0  0  0  0
  161.0390  209.5180  151.1970 C   0  0  2  0  0  3  0  0  0  0  0  0
  162.0180  208.2000  155.3080 N   0  0  0  0  0  2  0  0  0  0  0  0
  161.0300  211.8410  152.2270 C   0  0  1  0  0  3  0  0  0  0  0  0
  163.0680  210.5210  154.0340 O   0  0  0  0  0  1  0  0  0  0  0  0
  160.8520  212.6800  147.9430 C   0  0  0  0  0  1  0  0  0  0  0  0
  161.8770  208.4960  150.4410 C   0  0  0  0  0  1  0  0  0  0  0  0
  160.0530  209.9090  153.3940 O   0  0  0  0  0  0  0  0  0  0  0  0
  159.8670  207.4940  155.9000 O   0  0  0  0  0  0  0  0  0  0  0  0
  160.8130  207.4720  155.0690 C   0  0  0  0  0  0  0  0  0  0  0  0
  161.7670  210.8820  151.2680 C   0  0  2  0  0  3  0  0  0  0  0  0
  162.1820  209.1920  156.3600 C   0  0  0  0  0  2  0  0  0  0  0  0
  161.9140  211.1010  154.5680 C   0  0  2  0  0  3  0  0  0  0  0  0
  162.9010  210.8200  148.9730 C   0  0  0  0  0  1  0  0  0  0  0  0
  160.1160  207.6530  152.6660 C   0  0  0  0  0  2  0  0  0  0  0  0
  159.7110  212.3640  151.6000 C   0  0  2  0  0  3  0  0  0  0  0  0
  160.6470  211.9860  149.2800 C   0  0  2  0  0  3  0  0  0  0  0  0
  160.8210  209.0090  152.6300 C   0  0  1  0  0  3  0  0  0  0  0  0
  161.5720  210.5540  155.9820 C   0  0  1  0  0  3  0  0  0  0  0  0
  160.7500  211.1250  153.5560 C   0  0  1  0  0  3  0  0  0  0  0  0
  159.9370  212.9580  150.2100 C   0  0  0  0  0  2  0  0  0  0  0  0
  160.6630  206.7480  153.7720 C   0  0  0  0  0  2  0  0  0  0  0  0
  160.1080  210.7080  156.4130 C   0  0  2  0  0  3  0  0  0  0  0  0
  159.9410  211.9550  157.2600 C   0  0  0  0  0  1  0  0  0  0  0  0
  159.7010  209.6160  157.1590 F   0  0  0  0  0  0  0  0  0  0  0  0
  158.2440  214.4480  151.6200 C   0  0  0  0  0  1  0  0  0  0  0  0
  158.9650  213.4020  152.4550 C   0  0  1  0  0  3  0  0  0  0  0  0
  157.0720  213.0650  155.7250 C   0  0  0  0  0  0  0  0  0  0  0  0
  156.5530  211.7710  155.6280 C   0  0  0  0  0  3  0  0  0  0  0  0
  158.1060  212.8220  153.5440 C   0  0  0  0  0  0  0  0  0  0  0  0
  156.8090  210.9990  154.4910 C   0  0  0  0  0  3  0  0  0  0  0  0
  157.8480  213.5880  154.6870 C   0  0  0  0  0  3  0  0  0  0  0  0
  157.5850  211.5220  153.4540 C   0  0  0  0  0  3  0  0  0  0  0  0
  156.7550  214.0300  157.1500 Cl  0  0  0  0  0  0  0  0  0  0  0  0
  1 14  1  6  0  0  0
  1 11  1  0  0  0  0
  2  7  1  6  0  0  0
  2 11  1  0  0  0  0
  2 18  1  0  0  0  0
  3 12  1  0  0  0  0
  4 20  1  0  0  0  0
  5 13  1  0  0  0  0
  6 17  1  0  0  0  0
  8 20  1  0  0  0  0
 10  3  1  0  0  0  0
 10  9  2  0  0  0  0
 11  4  1  0  0  0  0
 13 19  1  0  0  0  0
 15 22  1  0  0  0  0
 16  4  1  0  0  0  0
 16 27  1  0  0  0  0
 17  1  1  0  0  0  0
 17 21  1  0  0  0  0
 18 15  1  0  0  0  0
 18  8  1  0  0  0  0
 19 12  1  0  0  0  0
 19 23  1  0  0  0  0
 20 13  1  0  0  0  0
 21 16  1  0  0  0  0
 22 10  1  0  0  0  0
 23 25  1  0  0  0  0
 23 24  1  0  0  0  0
 26 27  1  0  0  0  0
 27 30  1  0  0  0  0
 28 34  1  0  0  0  0
 29 28  1  0  0  0  0
 30 32  1  0  0  0  0
 31 29  2  0  0  0  0
 32 28  2  0  0  0  0
 33 30  2  0  0  0  0
 33 31  1  0  0  0  0
M  END
>  <MODEL>
4

>  <REMARK>
 VINA RESULT:      -1.7      3.406      6.908
  Name = 
  3 active torsions:
  status: ('A' for Active; 'I' for Inactive)
    1  A    between atoms: C_12  and  C_28
    2  A    between atoms: C_13  and  C_29
    3  A    between atoms: C_21  and  C_28
                            x       y       z     vdW  Elec       q    Type
                         _______ _______ _______ _____ _____    ______ ____

>  <TORSDO>
F 3

$$$$
=
 OpenBabel11062407503D

 34 37  0  0  1  0  0  0  0  0999 V2000
  162.0350  209.6620  152.8160 C   0  0  1  0  0  3  0  0  0  0  0  0
  160.3780  211.3430  151.6940 C   0  0  2  0  0  3  0  0  0  0  0  0
  161.3010  214.4530  148.6820 N   0  0  0  0  0  2  0  0  0  0  0  0
  161.9640  209.9130  150.3160 C   0  0  1  0  0  3  0  0  0  0  0  0
  163.1880  212.6300  149.7910 O   0  0  0  0  0  1  0  0  0  0  0  0
  161.3460  207.4940  153.9010 C   0  0  0  0  0  1  0  0  0  0  0  0
  160.2620  212.2510  152.9090 C   0  0  0  0  0  1  0  0  0  0  0  0
  160.3370  211.4220  149.2560 O   0  0  0  0  0  0  0  0  0  0  0  0
  159.3460  214.2130  147.4180 O   0  0  0  0  0  0  0  0  0  0  0  0
  159.8830  214.3570  148.5480 C   0  0  0  0  0  0  0  0  0  0  0  0
  161.7600  210.6440  151.6590 C   0  0  2  0  0  3  0  0  0  0  0  0
  162.2470  214.1620  147.6160 C   0  0  0  0  0  2  0  0  0  0  0  0
  162.7490  211.8320  148.7310 C   0  0  2  0  0  3  0  0  0  0  0  0
  162.0870  210.3380  154.1800 C   0  0  0  0  0  1  0  0  0  0  0  0
  158.9010  212.9430  150.3740 C   0  0  0  0  0  2  0  0  0  0  0  0
  161.1000  208.6260  150.2360 C   0  0  2  0  0  3  0  0  0  0  0  0
  161.0820  208.4640  152.7610 C   0  0  2  0  0  3  0  0  0  0  0  0
  160.2350  212.1980  150.4270 C   0  0  1  0  0  3  0  0  0  0  0  0
  162.4820  212.6510  147.4380 C   0  0  1  0  0  3  0  0  0  0  0  0
  161.6270  210.8610  149.1560 C   0  0  1  0  0  3  0  0  0  0  0  0
  161.3090  207.7230  151.4520 C   0  0  0  0  0  2  0  0  0  0  0  0
  159.0480  214.3490  149.7870 C   0  0  0  0  0  2  0  0  0  0  0  0
  161.5300  211.9990  146.4280 C   0  0  2  0  0  3  0  0  0  0  0  0
  161.4140  212.8630  145.1860 C   0  0  0  0  0  1  0  0  0  0  0  0
  160.2680  211.8470  146.9730 F   0  0  0  0  0  0  0  0  0  0  0  0
  162.5990  208.1520  148.2290 C   0  0  0  0  0  1  0  0  0  0  0  0
  161.3200  207.7870  148.9660 C   0  0  1  0  0  3  0  0  0  0  0  0
  161.1720  204.0750  148.1970 C   0  0  0  0  0  0  0  0  0  0  0  0
  160.7960  203.5380  149.4310 C   0  0  0  0  0  3  0  0  0  0  0  0
  161.1490  206.3050  149.1530 C   0  0  0  0  0  0  0  0  0  0  0  0
  160.5940  204.3810  150.5280 C   0  0  0  0  0  3  0  0  0  0  0  0
  161.3470  205.4550  148.0580 C   0  0  0  0  0  3  0  0  0  0  0  0
  160.7670  205.7600  150.3880 C   0  0  0  0  0  3  0  0  0  0  0  0
  161.4220  203.0200  146.8230 Cl  0  0  0  0  0  0  0  0  0  0  0  0
  1 14  1  1  0  0  0
  2  7  1  1  0  0  0
  4 11  1  0  0  0  0
  8 18  1  0  0  0  0
  9 10  2  0  0  0  0
 10  3  1  0  0  0  0
 10 22  1  0  0  0  0
 11  2  1  0  0  0  0
 11  1  1  0  0  0  0
 12  3  1  0  0  0  0
 13 20  1  0  0  0  0
 13  5  1  0  0  0  0
 15 18  1  0  0  0  0
 16  4  1  0  0  0  0
 16 21  1  0  0  0  0
 17  1  1  0  0  0  0
 17  6  1  0  0  0  0
 18  2  1  0  0  0  0
 19 12  1  0  0  0  0
 19 13  1  0  0  0  0
 20  8  1  0  0  0  0
 20  4  1  0  0  0  0
 21 17  1  0  0  0  0
 22 15  1  0  0  0  0
 23 25  1  0  0  0  0
 23 19  1  0  0  0  0
 24 23  1  0  0  0  0
 26 27  1  0  0  0  0
 27 30  1  0  0  0  0
 27 16  1  0  0  0  0
 28 29  1  0  0  0  0
 29 31  2  0  0  0  0
 30 33  2  0  0  0  0
 32 28  2  0  0  0  0
 32 30  1  0  0  0  0
 33 31  1  0  0  0  0
 34 28  1  0  0  0  0
M  END
>  <MODEL>
5

>  <REMARK>
 VINA RESULT:      -1.1      3.153      4.480
  Name = 
  3 active torsions:
  status: ('A' for Active; 'I' for Inactive)
    1  A    between atoms: C_12  and  C_28
    2  A    between atoms: C_13  and  C_29
    3  A    between atoms: C_21  and  C_28
                            x       y       z     vdW  Elec       q    Type
                         _______ _______ _______ _____ _____    ______ ____

>  <TORSDO>
F 3

$$$$
=
 OpenBabel11062407503D

 34 37  0  0  1  0  0  0  0  0999 V2000
  162.4460  211.0870  149.5510 C   0  0  1  0  0  3  0  0  0  0  0  0
  161.2780  208.8080  149.0330 C   0  0  2  0  0  3  0  0  0  0  0  0
  162.2410  204.8270  150.7120 N   0  0  0  0  0  2  0  0  0  0  0  0
  161.6400  209.6090  151.4170 C   0  0  1  0  0  3  0  0  0  0  0  0
  163.5500  207.2610  151.4030 O   0  0  0  0  0  1  0  0  0  0  0  0
  161.3950  213.3460  149.1670 C   0  0  0  0  0  1  0  0  0  0  0  0
  161.9300  208.6270  147.6690 C   0  0  0  0  0  1  0  0  0  0  0  0
  160.4540  207.5110  150.9280 O   0  0  0  0  0  0  0  0  0  0  0  0
  160.0400  204.0510  150.8830 O   0  0  0  0  0  0  0  0  0  0  0  0
  160.9370  204.5900  150.1820 C   0  0  0  0  0  0  0  0  0  0  0  0
  162.1930  209.6270  149.9760 C   0  0  2  0  0  3  0  0  0  0  0  0
  162.5890  204.7070  152.1200 C   0  0  0  0  0  2  0  0  0  0  0  0
  162.5130  207.3280  152.3380 C   0  0  2  0  0  3  0  0  0  0  0  0
  163.2050  211.2080  148.2360 C   0  0  0  0  0  1  0  0  0  0  0  0
  160.1680  206.5290  148.7880 C   0  0  0  0  0  2  0  0  0  0  0  0
  160.3810  210.5050  151.5510 C   0  0  2  0  0  3  0  0  0  0  0  0
  161.1520  211.9060  149.5890 C   0  0  2  0  0  3  0  0  0  0  0  0
  161.0540  207.4230  149.6570 C   0  0  1  0  0  3  0  0  0  0  0  0
  162.1600  205.9390  152.9370 C   0  0  1  0  0  3  0  0  0  0  0  0
  161.3210  208.1650  151.8280 C   0  0  1  0  0  3  0  0  0  0  0  0
  160.6270  211.9170  151.0170 C   0  0  0  0  0  2  0  0  0  0  0  0
  160.6300  205.0710  148.8020 C   0  0  0  0  0  2  0  0  0  0  0  0
  160.7520  205.8160  153.5340 C   0  0  2  0  0  3  0  0  0  0  0  0
  160.6280  206.6920  154.7660 C   0  0  0  0  0  1  0  0  0  0  0  0
  160.4890  204.5080  153.9000 F   0  0  0  0  0  0  0  0  0  0  0  0
  160.9180  210.7520  154.0300 C   0  0  0  0  0  1  0  0  0  0  0  0
  159.8260  210.6190  152.9810 C   0  0  1  0  0  3  0  0  0  0  0  0
  156.8230  212.4260  154.4310 C   0  0  0  0  0  0  0  0  0  0  0  0
  156.6090  213.4360  153.4890 C   0  0  0  0  0  3  0  0  0  0  0  0
  158.7200  211.6230  153.1490 C   0  0  0  0  0  0  0  0  0  0  0  0
  157.4480  213.5410  152.3750 C   0  0  0  0  0  3  0  0  0  0  0  0
  157.8740  211.5210  154.2610 C   0  0  0  0  0  3  0  0  0  0  0  0
  158.4980  212.6360  152.2050 C   0  0  0  0  0  3  0  0  0  0  0  0
  155.7710  212.2920  155.8230 Cl  0  0  0  0  0  0  0  0  0  0  0  0
  1 14  1  6  0  0  0
  1 17  1  0  0  0  0
  1 11  1  0  0  0  0
  2  7  1  6  0  0  0
  2 18  1  0  0  0  0
  2 11  1  0  0  0  0
  3 12  1  0  0  0  0
  4 16  1  0  0  0  0
  4 20  1  0  0  0  0
  5 13  1  0  0  0  0
  6 17  1  0  0  0  0
  8 20  1  0  0  0  0
 10  3  1  0  0  0  0
 10  9  2  0  0  0  0
 11  4  1  0  0  0  0
 12 19  1  0  0  0  0
 13 19  1  0  0  0  0
 15 22  1  0  0  0  0
 15 18  1  0  0  0  0
 16 27  1  0  0  0  0
 17 21  1  0  0  0  0
 18  8  1  0  0  0  0
 19 23  1  0  0  0  0
 20 13  1  0  0  0  0
 21 16  1  0  0  0  0
 22 10  1  0  0  0  0
 23 25  1  0  0  0  0
 23 24  1  0  0  0  0
 27 30  1  0  0  0  0
 27 26  1  0  0  0  0
 28 34  1  0  0  0  0
 29 28  2  0  0  0  0
 30 32  2  0  0  0  0
 31 29  1  0  0  0  0
 32 28  1  0  0  0  0
 33 31  2  0  0  0  0
 33 30  1  0  0  0  0
M  END
>  <MODEL>
6

>  <REMARK>
 VINA RESULT:      -1.0      3.918      7.854
  Name = 
  3 active torsions:
  status: ('A' for Active; 'I' for Inactive)
    1  A    between atoms: C_12  and  C_28
    2  A    between atoms: C_13  and  C_29
    3  A    between atoms: C_21  and  C_28
                            x       y       z     vdW  Elec       q    Type
                         _______ _______ _______ _____ _____    ______ ____

>  <TORSDO>
F 3

$$$$
