=
 OpenBabel11052423083D

 27 31  0  0  1  0  0  0  0  0999 V2000
  160.6490  206.6440  149.6520 C   0  0  0  0  0  2  0  0  0  0  0  0
  161.0640  206.5160  152.0950 C   0  0  0  0  0  0  0  0  0  0  0  0
  162.3000  208.5420  151.5430 N   0  0  0  0  0  2  0  0  0  0  0  0
  160.0610  208.1490  155.7150 O   0  0  0  0  0  0  0  0  0  0  0  0
  159.3120  210.4320  155.7620 C   0  0  0  0  0  1  0  0  0  0  0  0
  160.5230  205.7630  153.0170 N   0  0  0  0  0  0  0  0  0  0  0  0
  161.1930  209.6640  154.2990 C   0  0  1  0  0  3  0  0  0  0  0  0
  162.1760  211.6580  149.5330 C   0  0  0  0  0  3  0  0  0  0  0  0
  162.4820  210.4460  154.4580 C   0  0  0  0  0  1  0  0  0  0  0  0
  161.8610  211.1720  148.2650 C   0  0  0  0  0  3  0  0  0  0  0  0
  161.4960  208.2470  153.8240 C   0  0  1  0  0  3  0  0  0  0  0  0
  161.4400  205.9530  150.7510 C   0  0  1  0  0  3  0  0  0  0  0  0
  160.5020  209.4980  155.6660 C   0  0  2  0  0  3  0  0  0  0  0  0
  160.5490  207.4600  154.6320 C   0  0  0  0  0  0  0  0  0  0  0  0
  161.5090  207.5220  148.8730 N   0  0  0  0  0  2  0  0  0  0  0  0
  161.2100  208.0060  152.3420 C   0  0  2  0  0  3  0  0  0  0  0  0
  162.2840  210.7770  150.6100 C   0  0  0  0  0  3  0  0  0  0  0  0
  160.1380  206.2850  154.2700 N   0  0  0  0  0  0  0  0  0  0  0  0
  161.6460  209.8060  148.0760 C   0  0  0  0  0  3  0  0  0  0  0  0
  161.7230  208.9120  149.1510 C   0  0  0  0  0  0  0  0  0  0  0  0
  162.0560  209.4060  150.4360 C   0  0  0  0  0  0  0  0  0  0  0  0
  161.1680  201.6710  150.4090 C   0  0  0  0  0  3  0  0  0  0  0  0
  161.3390  204.4570  150.6540 C   0  0  0  0  0  0  0  0  0  0  0  0
  160.9130  203.8810  149.4520 C   0  0  0  0  0  3  0  0  0  0  0  0
  160.8260  202.4910  149.3300 C   0  0  0  0  0  3  0  0  0  0  0  0
  161.6000  202.2400  151.6100 C   0  0  0  0  0  3  0  0  0  0  0  0
  161.6870  203.6300  151.7340 C   0  0  0  0  0  3  0  0  0  0  0  0
  1 12  1  0  0  0  0
  2 16  1  0  0  0  0
  2  6  2  0  0  0  0
  6 18  1  0  0  0  0
  7  9  1  1  0  0  0
  7 13  1  0  0  0  0
  8 17  1  0  0  0  0
 10  8  2  0  0  0  0
 11  7  1  0  0  0  0
 11 14  1  1  0  0  0
 12 23  1  1  0  0  0
 12  2  1  0  0  0  0
 13  4  1  0  0  0  0
 13  5  1  6  0  0  0
 14  4  1  0  0  0  0
 15 20  1  0  0  0  0
 15  1  1  0  0  0  0
 16  3  1  6  0  0  0
 16 11  1  0  0  0  0
 18 14  2  0  0  0  0
 19 10  1  0  0  0  0
 19 20  2  0  0  0  0
 20 21  1  0  0  0  0
 21 17  2  0  0  0  0
 21  3  1  0  0  0  0
 22 26  1  0  0  0  0
 23 27  1  0  0  0  0
 24 23  2  0  0  0  0
 25 24  1  0  0  0  0
 25 22  2  0  0  0  0
 26 27  2  0  0  0  0
M  END
>  <MODEL>
1

>  <REMARK>
 VINA RESULT:      -7.5      0.000      0.000
  Name = 
  1 active torsions:
  status: ('A' for Active; 'I' for Inactive)
    1  A    between atoms: C_9  and  C_15
                            x       y       z     vdW  Elec       q    Type
                         _______ _______ _______ _____ _____    ______ ____

>  <TORSDO>
F 1

$$$$
=
 OpenBabel11052423083D

 27 31  0  0  1  0  0  0  0  0999 V2000
  160.4550  207.1680  152.3150 C   0  0  0  0  0  2  0  0  0  0  0  0
  161.0250  209.5830  152.3420 C   0  0  0  0  0  0  0  0  0  0  0  0
  162.3010  208.8500  150.4000 N   0  0  0  0  0  2  0  0  0  0  0  0
  160.3290  213.1720  150.4940 O   0  0  0  0  0  0  0  0  0  0  0  0
  159.6760  213.1500  148.1810 C   0  0  0  0  0  1  0  0  0  0  0  0
  160.5160  210.5750  153.0260 N   0  0  0  0  0  0  0  0  0  0  0  0
  161.4250  211.6110  149.1000 C   0  0  1  0  0  3  0  0  0  0  0  0
  162.1710  206.6970  147.3830 C   0  0  0  0  0  3  0  0  0  0  0  0
  162.7520  211.6470  148.3680 C   0  0  0  0  0  1  0  0  0  0  0  0
  161.7540  205.4770  147.9160 C   0  0  0  0  0  3  0  0  0  0  0  0
  161.6390  211.1900  150.5500 C   0  0  1  0  0  3  0  0  0  0  0  0
  161.2880  208.2480  152.9850 C   0  0  1  0  0  3  0  0  0  0  0  0
  160.8200  213.0260  149.1690 C   0  0  2  0  0  3  0  0  0  0  0  0
  160.7170  212.0960  151.2560 C   0  0  0  0  0  0  0  0  0  0  0  0
  161.2970  206.2920  151.5130 N   0  0  0  0  0  2  0  0  0  0  0  0
  161.2470  209.7440  150.8500 C   0  0  2  0  0  3  0  0  0  0  0  0
  162.3140  207.8080  148.2140 C   0  0  0  0  0  3  0  0  0  0  0  0
  160.2350  211.8210  152.4280 N   0  0  0  0  0  0  0  0  0  0  0  0
  161.4720  205.3720  149.2780 C   0  0  0  0  0  3  0  0  0  0  0  0
  161.5840  206.4840  150.1220 C   0  0  0  0  0  0  0  0  0  0  0  0
  162.0200  207.7180  149.5810 C   0  0  0  0  0  0  0  0  0  0  0  0
  160.8030  208.1410  157.2600 C   0  0  0  0  0  3  0  0  0  0  0  0
  161.1210  208.2340  154.4780 C   0  0  0  0  0  0  0  0  0  0  0  0
  160.2870  207.2730  155.0600 C   0  0  0  0  0  3  0  0  0  0  0  0
  160.1270  207.2280  156.4480 C   0  0  0  0  0  3  0  0  0  0  0  0
  161.6420  209.1000  156.6860 C   0  0  0  0  0  3  0  0  0  0  0  0
  161.8030  209.1470  155.2980 C   0  0  0  0  0  3  0  0  0  0  0  0
  1 12  1  0  0  0  0
  2 12  1  0  0  0  0
  2  6  2  0  0  0  0
  4 14  1  0  0  0  0
  7  9  1  6  0  0  0
  7 13  1  0  0  0  0
  7 11  1  0  0  0  0
  8 10  2  0  0  0  0
  8 17  1  0  0  0  0
 10 19  1  0  0  0  0
 11 16  1  0  0  0  0
 11 14  1  1  0  0  0
 12 23  1  1  0  0  0
 13  5  1  6  0  0  0
 13  4  1  0  0  0  0
 14 18  2  0  0  0  0
 15  1  1  0  0  0  0
 16  3  1  1  0  0  0
 16  2  1  0  0  0  0
 17 21  2  0  0  0  0
 18  6  1  0  0  0  0
 19 20  2  0  0  0  0
 20 15  1  0  0  0  0
 21 20  1  0  0  0  0
 21  3  1  0  0  0  0
 23 24  2  0  0  0  0
 23 27  1  0  0  0  0
 24 25  1  0  0  0  0
 25 22  2  0  0  0  0
 26 22  1  0  0  0  0
 27 26  2  0  0  0  0
M  END
>  <MODEL>
2

>  <REMARK>
 VINA RESULT:      -6.8      2.374      5.619
  Name = 
  1 active torsions:
  status: ('A' for Active; 'I' for Inactive)
    1  A    between atoms: C_9  and  C_15
                            x       y       z     vdW  Elec       q    Type
                         _______ _______ _______ _____ _____    ______ ____

>  <TORSDO>
F 1

$$$$
=
 OpenBabel11052423083D

 27 31  0  0  1  0  0  0  0  0999 V2000
  162.0340  206.6900  152.9210 C   0  0  0  0  0  2  0  0  0  0  0  0
  161.5630  207.5820  150.6550 C   0  0  0  0  0  0  0  0  0  0  0  0
  160.5880  209.3400  152.0310 N   0  0  0  0  0  2  0  0  0  0  0  0
  162.6890  210.4000  147.9030 O   0  0  0  0  0  0  0  0  0  0  0  0
  163.7040  212.4250  148.7030 C   0  0  0  0  0  1  0  0  0  0  0  0
  161.9930  207.2030  149.4790 N   0  0  0  0  0  0  0  0  0  0  0  0
  161.7710  211.3400  149.8670 C   0  0  1  0  0  3  0  0  0  0  0  0
  161.1190  211.3780  155.0850 C   0  0  0  0  0  3  0  0  0  0  0  0
  160.5820  212.2480  150.1080 C   0  0  0  0  0  1  0  0  0  0  0  0
  161.3960  210.4000  156.0400 C   0  0  0  0  0  3  0  0  0  0  0  0
  161.3100  209.8890  149.7690 C   0  0  1  0  0  3  0  0  0  0  0  0
  161.1470  206.5750  151.6930 C   0  0  1  0  0  3  0  0  0  0  0  0
  162.4130  211.6570  148.5020 C   0  0  2  0  0  3  0  0  0  0  0  0
  162.1410  209.3920  148.6600 C   0  0  0  0  0  0  0  0  0  0  0  0
  161.2990  207.2730  154.0350 N   0  0  0  0  0  2  0  0  0  0  0  0
  161.5910  209.0540  151.0180 C   0  0  2  0  0  3  0  0  0  0  0  0
  160.8870  211.0100  153.7590 C   0  0  0  0  0  3  0  0  0  0  0  0
  162.4160  208.1350  148.5080 N   0  0  0  0  0  0  0  0  0  0  0  0
  161.4500  209.0570  155.6670 C   0  0  0  0  0  3  0  0  0  0  0  0
  161.2480  208.6730  154.3360 C   0  0  0  0  0  0  0  0  0  0  0  0
  160.9530  209.6670  153.3700 C   0  0  0  0  0  0  0  0  0  0  0  0
  160.9010  202.5050  150.3160 C   0  0  0  0  0  3  0  0  0  0  0  0
  161.0700  205.1610  151.1920 C   0  0  0  0  0  0  0  0  0  0  0  0
  161.2640  204.1090  152.0940 C   0  0  0  0  0  3  0  0  0  0  0  0
  161.1810  202.7830  151.6560 C   0  0  0  0  0  3  0  0  0  0  0  0
  160.7010  203.5510  149.4120 C   0  0  0  0  0  3  0  0  0  0  0  0
  160.7840  204.8770  149.8470 C   0  0  0  0  0  3  0  0  0  0  0  0
  1 15  1  0  0  0  0
  2 12  1  0  0  0  0
  3 21  1  0  0  0  0
  4 13  1  0  0  0  0
  4 14  1  0  0  0  0
  6  2  2  0  0  0  0
  7  9  1  6  0  0  0
  8 10  1  0  0  0  0
 11 14  1  6  0  0  0
 11  7  1  0  0  0  0
 11 16  1  0  0  0  0
 12 23  1  6  0  0  0
 12  1  1  0  0  0  0
 13  5  1  1  0  0  0
 13  7  1  0  0  0  0
 15 20  1  0  0  0  0
 16  2  1  6  0  0  0
 16  3  1  0  0  0  0
 17  8  2  0  0  0  0
 18 14  2  0  0  0  0
 18  6  1  0  0  0  0
 19 10  2  0  0  0  0
 20 19  1  0  0  0  0
 21 17  1  0  0  0  0
 21 20  2  0  0  0  0
 22 25  1  0  0  0  0
 23 24  1  0  0  0  0
 25 24  2  0  0  0  0
 26 27  1  0  0  0  0
 26 22  2  0  0  0  0
 27 23  2  0  0  0  0
M  END
>  <MODEL>
3

>  <REMARK>
 VINA RESULT:      -6.8      2.020      4.918
  Name = 
  1 active torsions:
  status: ('A' for Active; 'I' for Inactive)
    1  A    between atoms: C_9  and  C_15
                            x       y       z     vdW  Elec       q    Type
                         _______ _______ _______ _____ _____    ______ ____

>  <TORSDO>
F 1

$$$$
=
 OpenBabel11052423083D

 27 31  0  0  1  0  0  0  0  0999 V2000
  160.4550  208.3520  152.6390 C   0  0  0  0  0  2  0  0  0  0  0  0
  160.9260  210.7420  152.1690 C   0  0  0  0  0  0  0  0  0  0  0  0
  162.1850  209.6830  150.3720 N   0  0  0  0  0  2  0  0  0  0  0  0
  160.0400  213.8640  149.6680 O   0  0  0  0  0  0  0  0  0  0  0  0
  159.3350  213.3580  147.4270 C   0  0  0  0  0  1  0  0  0  0  0  0
  160.3940  211.8330  152.6580 N   0  0  0  0  0  0  0  0  0  0  0  0
  161.1660  212.0960  148.5780 C   0  0  1  0  0  3  0  0  0  0  0  0
  162.0720  206.9670  147.8480 C   0  0  0  0  0  3  0  0  0  0  0  0
  162.4730  212.0320  147.8120 C   0  0  0  0  0  1  0  0  0  0  0  0
  161.7180  205.8650  148.6250 C   0  0  0  0  0  3  0  0  0  0  0  0
  161.4310  211.9810  150.0760 C   0  0  1  0  0  3  0  0  0  0  0  0
  161.2600  209.5730  153.0560 C   0  0  1  0  0  3  0  0  0  0  0  0
  160.5050  213.4740  148.3840 C   0  0  2  0  0  3  0  0  0  0  0  0
  160.4900  212.9760  150.6160 C   0  0  0  0  0  0  0  0  0  0  0  0
  161.3130  207.3640  152.0010 N   0  0  0  0  0  2  0  0  0  0  0  0
  161.1060  210.6110  150.6680 C   0  0  2  0  0  3  0  0  0  0  0  0
  162.1890  208.2270  148.4370 C   0  0  0  0  0  3  0  0  0  0  0  0
  160.0480  212.9240  151.8330 N   0  0  0  0  0  0  0  0  0  0  0  0
  161.4730  206.0240  149.9890 C   0  0  0  0  0  3  0  0  0  0  0  0
  161.5590  207.2850  150.5920 C   0  0  0  0  0  0  0  0  0  0  0  0
  161.9320  208.4010  149.8030 C   0  0  0  0  0  0  0  0  0  0  0  0
  160.9230  210.4270  157.2610 C   0  0  0  0  0  3  0  0  0  0  0  0
  161.1290  209.8510  154.5260 C   0  0  0  0  0  0  0  0  0  0  0  0
  162.2000  210.4440  155.2030 C   0  0  0  0  0  3  0  0  0  0  0  0
  162.0990  210.7300  156.5680 C   0  0  0  0  0  3  0  0  0  0  0  0
  159.8470  209.8400  156.5890 C   0  0  0  0  0  3  0  0  0  0  0  0
  159.9470  209.5540  155.2240 C   0  0  0  0  0  3  0  0  0  0  0  0
  1 12  1  0  0  0  0
  2  6  2  0  0  0  0
  2 12  1  0  0  0  0
  4 14  1  0  0  0  0
  7  9  1  6  0  0  0
  7 11  1  0  0  0  0
  8 17  2  0  0  0  0
  8 10  1  0  0  0  0
 10 19  2  0  0  0  0
 11 14  1  1  0  0  0
 11 16  1  0  0  0  0
 12 23  1  1  0  0  0
 13  5  1  6  0  0  0
 13  7  1  0  0  0  0
 13  4  1  0  0  0  0
 14 18  2  0  0  0  0
 15  1  1  0  0  0  0
 16  3  1  1  0  0  0
 16  2  1  0  0  0  0
 17 21  1  0  0  0  0
 18  6  1  0  0  0  0
 19 20  1  0  0  0  0
 20 15  1  0  0  0  0
 21  3  1  0  0  0  0
 21 20  2  0  0  0  0
 23 24  2  0  0  0  0
 23 27  1  0  0  0  0
 24 25  1  0  0  0  0
 25 22  2  0  0  0  0
 26 22  1  0  0  0  0
 27 26  2  0  0  0  0
M  END
>  <MODEL>
4

>  <REMARK>
 VINA RESULT:      -6.6      2.589      6.456
  Name = 
  1 active torsions:
  status: ('A' for Active; 'I' for Inactive)
    1  A    between atoms: C_9  and  C_15
                            x       y       z     vdW  Elec       q    Type
                         _______ _______ _______ _____ _____    ______ ____

>  <TORSDO>
F 1

$$$$
=
 OpenBabel11052423083D

 27 31  0  0  1  0  0  0  0  0999 V2000
  161.2450  209.6800  153.5580 C   0  0  0  0  0  2  0  0  0  0  0  0
  161.2220  209.8720  151.0840 C   0  0  0  0  0  0  0  0  0  0  0  0
  159.6650  211.6500  151.6780 N   0  0  0  0  0  2  0  0  0  0  0  0
  162.5380  212.1220  147.9240 O   0  0  0  0  0  0  0  0  0  0  0  0
  162.9830  214.4530  148.2970 C   0  0  0  0  0  1  0  0  0  0  0  0
  161.9880  209.3260  150.1760 N   0  0  0  0  0  0  0  0  0  0  0  0
  161.0190  213.2800  149.3140 C   0  0  1  0  0  3  0  0  0  0  0  0
  159.0790  214.4290  154.0650 C   0  0  0  0  0  3  0  0  0  0  0  0
  159.6780  213.9330  149.0440 C   0  0  0  0  0  1  0  0  0  0  0  0
  159.2600  213.7970  155.2950 C   0  0  0  0  0  3  0  0  0  0  0  0
  160.8340  211.7830  149.5450 C   0  0  1  0  0  3  0  0  0  0  0  0
  160.7240  209.0790  152.2630 C   0  0  1  0  0  3  0  0  0  0  0  0
  161.9230  213.3930  148.0710 C   0  0  2  0  0  3  0  0  0  0  0  0
  161.9860  211.2300  148.8120 C   0  0  0  0  0  0  0  0  0  0  0  0
  160.1700  210.3360  154.2890 N   0  0  0  0  0  2  0  0  0  0  0  0
  160.9230  211.3570  151.0100 C   0  0  2  0  0  3  0  0  0  0  0  0
  159.2500  213.7100  152.8810 C   0  0  0  0  0  3  0  0  0  0  0  0
  162.4870  210.0660  149.0830 N   0  0  0  0  0  0  0  0  0  0  0  0
  159.6200  212.4490  155.3400 C   0  0  0  0  0  3  0  0  0  0  0  0
  159.8220  211.7210  154.1610 C   0  0  0  0  0  0  0  0  0  0  0  0
  159.6250  212.3620  152.9130 C   0  0  0  0  0  0  0  0  0  0  0  0
  161.4950  204.8480  152.0910 C   0  0  0  0  0  3  0  0  0  0  0  0
  161.0030  207.6050  152.1810 C   0  0  0  0  0  0  0  0  0  0  0  0
  161.3160  206.9070  153.3530 C   0  0  0  0  0  3  0  0  0  0  0  0
  161.5630  205.5310  153.3080 C   0  0  0  0  0  3  0  0  0  0  0  0
  161.1770  205.5390  150.9180 C   0  0  0  0  0  3  0  0  0  0  0  0
  160.9300  206.9140  150.9610 C   0  0  0  0  0  3  0  0  0  0  0  0
  1 15  1  0  0  0  0
  2 12  1  0  0  0  0
  3 21  1  0  0  0  0
  4 13  1  0  0  0  0
  4 14  1  0  0  0  0
  6  2  2  0  0  0  0
  7  9  1  6  0  0  0
  7 11  1  0  0  0  0
  8 10  1  0  0  0  0
 10 19  2  0  0  0  0
 11 14  1  6  0  0  0
 11 16  1  0  0  0  0
 12 23  1  6  0  0  0
 12  1  1  0  0  0  0
 13  5  1  1  0  0  0
 13  7  1  0  0  0  0
 14 18  2  0  0  0  0
 16  2  1  6  0  0  0
 16  3  1  0  0  0  0
 17 21  1  0  0  0  0
 17  8  2  0  0  0  0
 18  6  1  0  0  0  0
 20 15  1  0  0  0  0
 20 19  1  0  0  0  0
 21 20  2  0  0  0  0
 22 25  1  0  0  0  0
 23 24  1  0  0  0  0
 25 24  2  0  0  0  0
 26 27  1  0  0  0  0
 26 22  2  0  0  0  0
 27 23  2  0  0  0  0
M  END
>  <MODEL>
5

>  <REMARK>
 VINA RESULT:      -5.7      2.987      5.912
  Name = 
  1 active torsions:
  status: ('A' for Active; 'I' for Inactive)
    1  A    between atoms: C_9  and  C_15
                            x       y       z     vdW  Elec       q    Type
                         _______ _______ _______ _____ _____    ______ ____

>  <TORSDO>
F 1

$$$$
=
 OpenBabel11052423083D

 27 31  0  0  1  0  0  0  0  0999 V2000
  162.5450  207.4940  148.9650 C   0  0  0  0  0  2  0  0  0  0  0  0
  161.2920  206.1210  150.6080 C   0  0  0  0  0  0  0  0  0  0  0  0
  160.5980  205.0610  148.5270 N   0  0  0  0  0  2  0  0  0  0  0  0
  161.1710  202.4750  152.4720 O   0  0  0  0  0  0  0  0  0  0  0  0
  162.1440  200.5900  151.3420 C   0  0  0  0  0  1  0  0  0  0  0  0
  161.3760  206.0570  151.9120 N   0  0  0  0  0  0  0  0  0  0  0  0
  160.8090  202.3350  150.1410 C   0  0  1  0  0  3  0  0  0  0  0  0
  161.8130  203.8970  145.2210 C   0  0  0  0  0  3  0  0  0  0  0  0
  159.6570  201.7980  149.3150 C   0  0  0  0  0  1  0  0  0  0  0  0
  162.4850  205.0240  144.7470 C   0  0  0  0  0  3  0  0  0  0  0  0
  160.5110  203.7630  150.5870 C   0  0  1  0  0  3  0  0  0  0  0  0
  161.3390  207.4420  149.8880 C   0  0  1  0  0  3  0  0  0  0  0  0
  160.9520  201.5220  151.4420 C   0  0  2  0  0  3  0  0  0  0  0  0
  161.0070  203.7450  151.9740 C   0  0  0  0  0  0  0  0  0  0  0  0
  162.1310  207.4130  147.5720 N   0  0  0  0  0  2  0  0  0  0  0  0
  161.2610  204.8370  149.8010 C   0  0  2  0  0  3  0  0  0  0  0  0
  161.2250  203.9180  146.4860 C   0  0  0  0  0  3  0  0  0  0  0  0
  161.3640  204.8240  152.5970 N   0  0  0  0  0  0  0  0  0  0  0  0
  162.5750  206.1670  145.5420 C   0  0  0  0  0  3  0  0  0  0  0  0
  162.0150  206.1950  146.8250 C   0  0  0  0  0  0  0  0  0  0  0  0
  161.3210  205.0550  147.2990 C   0  0  0  0  0  0  0  0  0  0  0  0
  161.1530  210.9220  152.4150 C   0  0  0  0  0  3  0  0  0  0  0  0
  161.2740  208.6420  150.7890 C   0  0  0  0  0  0  0  0  0  0  0  0
  161.9110  209.8240  150.3930 C   0  0  0  0  0  3  0  0  0  0  0  0
  161.8520  210.9610  151.2050 C   0  0  0  0  0  3  0  0  0  0  0  0
  160.5100  209.7460  152.8130 C   0  0  0  0  0  3  0  0  0  0  0  0
  160.5690  208.6080  152.0030 C   0  0  0  0  0  3  0  0  0  0  0  0
  1 12  1  0  0  0  0
  2  6  2  0  0  0  0
  6 18  1  0  0  0  0
  7  9  1  6  0  0  0
  7 11  1  0  0  0  0
  7 13  1  0  0  0  0
  8 17  1  0  0  0  0
 10  8  2  0  0  0  0
 10 19  1  0  0  0  0
 11 14  1  1  0  0  0
 12  2  1  0  0  0  0
 12 23  1  1  0  0  0
 13  5  1  6  0  0  0
 13  4  1  0  0  0  0
 14  4  1  0  0  0  0
 14 18  2  0  0  0  0
 15  1  1  0  0  0  0
 16  3  1  6  0  0  0
 16 11  1  0  0  0  0
 16  2  1  0  0  0  0
 17 21  2  0  0  0  0
 19 20  2  0  0  0  0
 20 21  1  0  0  0  0
 20 15  1  0  0  0  0
 21  3  1  0  0  0  0
 22 26  1  0  0  0  0
 23 27  1  0  0  0  0
 24 23  2  0  0  0  0
 24 25  1  0  0  0  0
 25 22  2  0  0  0  0
 27 26  2  0  0  0  0
M  END
>  <MODEL>
6

>  <REMARK>
 VINA RESULT:      -5.3      2.512      6.405
  Name = 
  1 active torsions:
  status: ('A' for Active; 'I' for Inactive)
    1  A    between atoms: C_9  and  C_15
                            x       y       z     vdW  Elec       q    Type
                         _______ _______ _______ _____ _____    ______ ____

>  <TORSDO>
F 1

$$$$
=
 OpenBabel11052423083D

 27 31  0  0  1  0  0  0  0  0999 V2000
  162.5240  208.5790  149.9610 C   0  0  0  0  0  2  0  0  0  0  0  0
  161.5540  209.7810  151.9020 C   0  0  0  0  0  0  0  0  0  0  0  0
  160.4430  207.6240  152.1200 N   0  0  0  0  0  2  0  0  0  0  0  0
  161.6560  210.1090  155.9840 O   0  0  0  0  0  0  0  0  0  0  0  0
  162.3310  208.1880  157.2610 C   0  0  0  0  0  1  0  0  0  0  0  0
  161.8790  210.9230  152.4520 N   0  0  0  0  0  0  0  0  0  0  0  0
  160.8570  208.0120  155.2450 C   0  0  1  0  0  3  0  0  0  0  0  0
  160.9730  203.9590  151.8960 C   0  0  0  0  0  3  0  0  0  0  0  0
  159.5520  207.2760  155.4730 C   0  0  0  0  0  1  0  0  0  0  0  0
  161.5830  203.8310  150.6480 C   0  0  0  0  0  3  0  0  0  0  0  0
  160.6990  209.0140  154.1050 C   0  0  1  0  0  3  0  0  0  0  0  0
  161.5120  209.6220  150.4060 C   0  0  1  0  0  3  0  0  0  0  0  0
  161.2130  208.8550  156.4840 C   0  0  2  0  0  3  0  0  0  0  0  0
  161.4460  210.1700  154.6280 C   0  0  0  0  0  0  0  0  0  0  0  0
  161.8520  207.3630  149.5240 N   0  0  0  0  0  2  0  0  0  0  0  0
  161.3260  208.5690  152.7850 C   0  0  2  0  0  3  0  0  0  0  0  0
  160.6340  205.2240  152.3790 C   0  0  0  0  0  3  0  0  0  0  0  0
  161.9530  211.0770  153.8520 N   0  0  0  0  0  0  0  0  0  0  0  0
  161.8620  204.9680  149.8890 C   0  0  0  0  0  3  0  0  0  0  0  0
  161.5540  206.2470  150.3710 C   0  0  0  0  0  0  0  0  0  0  0  0
  160.9220  206.3730  151.6330 C   0  0  0  0  0  0  0  0  0  0  0  0
  161.9550  213.2640  148.1570 C   0  0  0  0  0  3  0  0  0  0  0  0
  161.6610  210.9050  149.6410 C   0  0  0  0  0  0  0  0  0  0  0  0
  162.6310  210.9880  148.6350 C   0  0  0  0  0  3  0  0  0  0  0  0
  162.7790  212.1660  147.8960 C   0  0  0  0  0  3  0  0  0  0  0  0
  160.9810  213.1860  149.1560 C   0  0  0  0  0  3  0  0  0  0  0  0
  160.8320  212.0090  149.8960 C   0  0  0  0  0  3  0  0  0  0  0  0
  1 12  1  0  0  0  0
  2  6  2  0  0  0  0
  3 16  1  0  0  0  0
  4 13  1  0  0  0  0
  6 18  1  0  0  0  0
  7  9  1  1  0  0  0
  7 13  1  0  0  0  0
  8 17  1  0  0  0  0
 10  8  2  0  0  0  0
 11 14  1  1  0  0  0
 11  7  1  0  0  0  0
 12 23  1  6  0  0  0
 12  2  1  0  0  0  0
 13  5  1  6  0  0  0
 14  4  1  0  0  0  0
 15  1  1  0  0  0  0
 15 20  1  0  0  0  0
 16  2  1  6  0  0  0
 16 11  1  0  0  0  0
 18 14  2  0  0  0  0
 19 20  2  0  0  0  0
 19 10  1  0  0  0  0
 20 21  1  0  0  0  0
 21  3  1  0  0  0  0
 21 17  2  0  0  0  0
 22 26  1  0  0  0  0
 23 27  1  0  0  0  0
 24 23  2  0  0  0  0
 25 22  2  0  0  0  0
 25 24  1  0  0  0  0
 26 27  2  0  0  0  0
M  END
>  <MODEL>
7

>  <REMARK>
 VINA RESULT:      -4.8      1.561      5.764
  Name = 
  1 active torsions:
  status: ('A' for Active; 'I' for Inactive)
    1  A    between atoms: C_9  and  C_15
                            x       y       z     vdW  Elec       q    Type
                         _______ _______ _______ _____ _____    ______ ____

>  <TORSDO>
F 1

$$$$
=
 OpenBabel11052423083D

 27 31  0  0  1  0  0  0  0  0999 V2000
  160.7280  208.2360  152.2760 C   0  0  0  0  0  2  0  0  0  0  0  0
  160.0290  210.3720  153.3270 C   0  0  0  0  0  0  0  0  0  0  0  0
  161.4120  211.2090  151.5040 N   0  0  0  0  0  2  0  0  0  0  0  0
  157.5660  213.6190  152.9090 O   0  0  0  0  0  0  0  0  0  0  0  0
  156.9070  214.2660  150.6910 C   0  0  0  0  0  1  0  0  0  0  0  0
  159.1270  210.6230  154.2410 N   0  0  0  0  0  0  0  0  0  0  0  0
  159.2270  213.4970  151.2340 C   0  0  1  0  0  3  0  0  0  0  0  0
  162.2300  210.7330  147.9170 C   0  0  0  0  0  3  0  0  0  0  0  0
  160.3280  214.4500  150.8130 C   0  0  0  0  0  1  0  0  0  0  0  0
  162.4950  209.3650  147.8600 C   0  0  0  0  0  3  0  0  0  0  0  0
  159.6860  212.6610  152.4250 C   0  0  1  0  0  3  0  0  0  0  0  0
  160.9470  209.1860  153.4430 C   0  0  1  0  0  3  0  0  0  0  0  0
  158.0040  214.2890  151.7360 C   0  0  2  0  0  3  0  0  0  0  0  0
  158.4690  212.6420  153.2540 C   0  0  0  0  0  0  0  0  0  0  0  0
  161.8570  208.2810  151.3570 N   0  0  0  0  0  2  0  0  0  0  0  0
  160.0750  211.2260  152.0730 C   0  0  2  0  0  3  0  0  0  0  0  0
  161.8410  211.3180  149.1230 C   0  0  0  0  0  3  0  0  0  0  0  0
  158.2400  211.7140  154.1280 N   0  0  0  0  0  0  0  0  0  0  0  0
  162.3640  208.5810  149.0070 C   0  0  0  0  0  3  0  0  0  0  0  0
  161.9480  209.1470  150.2190 C   0  0  0  0  0  0  0  0  0  0  0  0
  161.6920  210.5390  150.2770 C   0  0  0  0  0  0  0  0  0  0  0  0
  160.7470  207.2020  157.2570 C   0  0  0  0  0  3  0  0  0  0  0  0
  160.8760  208.4720  154.7630 C   0  0  0  0  0  0  0  0  0  0  0  0
  161.5800  208.9920  155.8550 C   0  0  0  0  0  3  0  0  0  0  0  0
  161.5170  208.3570  157.0990 C   0  0  0  0  0  3  0  0  0  0  0  0
  160.0370  206.6810  156.1720 C   0  0  0  0  0  3  0  0  0  0  0  0
  160.0990  207.3140  154.9270 C   0  0  0  0  0  3  0  0  0  0  0  0
  1 12  1  0  0  0  0
  2 12  1  0  0  0  0
  2  6  2  0  0  0  0
  4 14  1  0  0  0  0
  7  9  1  1  0  0  0
  7 13  1  0  0  0  0
  7 11  1  0  0  0  0
  8 17  1  0  0  0  0
 10  8  2  0  0  0  0
 10 19  1  0  0  0  0
 11 14  1  1  0  0  0
 12 23  1  1  0  0  0
 13  5  1  6  0  0  0
 13  4  1  0  0  0  0
 14 18  2  0  0  0  0
 15  1  1  0  0  0  0
 16  3  1  1  0  0  0
 16 11  1  0  0  0  0
 16  2  1  0  0  0  0
 17 21  2  0  0  0  0
 18  6  1  0  0  0  0
 19 20  2  0  0  0  0
 20 21  1  0  0  0  0
 20 15  1  0  0  0  0
 21  3  1  0  0  0  0
 23 27  2  0  0  0  0
 23 24  1  0  0  0  0
 24 25  2  0  0  0  0
 25 22  1  0  0  0  0
 26 22  2  0  0  0  0
 27 26  1  0  0  0  0
M  END
>  <MODEL>
8

>  <REMARK>
 VINA RESULT:      -4.6      3.345      5.252
  Name = 
  1 active torsions:
  status: ('A' for Active; 'I' for Inactive)
    1  A    between atoms: C_9  and  C_15
                            x       y       z     vdW  Elec       q    Type
                         _______ _______ _______ _____ _____    ______ ____

>  <TORSDO>
F 1

$$$$
=
 OpenBabel11052423083D

 27 31  0  0  1  0  0  0  0  0999 V2000
  160.3170  205.4550  151.3210 C   0  0  0  0  0  2  0  0  0  0  0  0
  161.2420  206.4170  149.2300 C   0  0  0  0  0  0  0  0  0  0  0  0
  162.0110  204.1140  149.0330 N   0  0  0  0  0  2  0  0  0  0  0  0
  160.7690  206.5760  145.1640 O   0  0  0  0  0  0  0  0  0  0  0  0
  159.7040  204.7190  144.0710 C   0  0  0  0  0  1  0  0  0  0  0  0
  161.0250  207.5690  148.6480 N   0  0  0  0  0  0  0  0  0  0  0  0
  161.3390  204.4200  145.9450 C   0  0  1  0  0  3  0  0  0  0  0  0
  161.0000  200.5780  149.5200 C   0  0  0  0  0  3  0  0  0  0  0  0
  162.4970  203.4930  145.6370 C   0  0  0  0  0  1  0  0  0  0  0  0
  160.5090  200.5950  150.8250 C   0  0  0  0  0  3  0  0  0  0  0  0
  161.7510  205.4380  147.0040 C   0  0  1  0  0  3  0  0  0  0  0  0
  161.4140  206.3190  150.7220 C   0  0  1  0  0  3  0  0  0  0  0  0
  160.9780  205.2510  144.6980 C   0  0  2  0  0  3  0  0  0  0  0  0
  161.1230  206.6660  146.4880 C   0  0  0  0  0  0  0  0  0  0  0  0
  160.8530  204.1750  151.7620 N   0  0  0  0  0  2  0  0  0  0  0  0
  161.2060  205.1470  148.4020 C   0  0  2  0  0  3  0  0  0  0  0  0
  161.4610  201.7580  148.9340 C   0  0  0  0  0  3  0  0  0  0  0  0
  160.8310  207.6700  147.2540 N   0  0  0  0  0  0  0  0  0  0  0  0
  160.4710  201.7930  151.5400 C   0  0  0  0  0  3  0  0  0  0  0  0
  160.9040  202.9900  150.9570 C   0  0  0  0  0  0  0  0  0  0  0  0
  161.4150  202.9680  149.6360 C   0  0  0  0  0  0  0  0  0  0  0  0
  161.7290  210.0810  152.7890 C   0  0  0  0  0  3  0  0  0  0  0  0
  161.5260  207.6430  151.4220 C   0  0  0  0  0  0  0  0  0  0  0  0
  160.8320  207.8380  152.6210 C   0  0  0  0  0  3  0  0  0  0  0  0
  160.9320  209.0550  153.3030 C   0  0  0  0  0  3  0  0  0  0  0  0
  162.4300  209.8900  151.5950 C   0  0  0  0  0  3  0  0  0  0  0  0
  162.3310  208.6740  150.9120 C   0  0  0  0  0  3  0  0  0  0  0  0
  1 15  1  0  0  0  0
  2 12  1  0  0  0  0
  3 21  1  0  0  0  0
  4 14  1  0  0  0  0
  6  2  2  0  0  0  0
  7  9  1  6  0  0  0
  7 11  1  0  0  0  0
  8 10  1  0  0  0  0
 10 19  2  0  0  0  0
 11 14  1  6  0  0  0
 11 16  1  0  0  0  0
 12  1  1  0  0  0  0
 12 23  1  1  0  0  0
 13  5  1  1  0  0  0
 13  4  1  0  0  0  0
 13  7  1  0  0  0  0
 14 18  2  0  0  0  0
 16  3  1  1  0  0  0
 16  2  1  0  0  0  0
 17  8  2  0  0  0  0
 17 21  1  0  0  0  0
 18  6  1  0  0  0  0
 20 19  1  0  0  0  0
 20 15  1  0  0  0  0
 21 20  2  0  0  0  0
 22 25  1  0  0  0  0
 23 24  1  0  0  0  0
 24 25  2  0  0  0  0
 26 22  2  0  0  0  0
 27 23  2  0  0  0  0
 27 26  1  0  0  0  0
M  END
>  <MODEL>
9

>  <REMARK>
 VINA RESULT:      -4.5      3.106      7.865
  Name = 
  1 active torsions:
  status: ('A' for Active; 'I' for Inactive)
    1  A    between atoms: C_9  and  C_15
                            x       y       z     vdW  Elec       q    Type
                         _______ _______ _______ _____ _____    ______ ____

>  <TORSDO>
F 1

$$$$
