=
 OpenBabel11062408333D

 32 33  0  0  1  0  0  0  0  0999 V2000
  161.3450  206.6730  151.9770 C   0  0  1  0  0  3  0  0  0  0  0  0
  161.2720  205.2570  151.4940 C   0  0  0  0  0  0  0  0  0  0  0  0
  161.1020  204.2210  152.4250 C   0  0  0  0  0  3  0  0  0  0  0  0
  161.0120  202.0340  147.8800 C   0  0  0  0  0  3  0  0  0  0  0  0
  161.2810  204.9670  150.1210 C   0  0  0  0  0  3  0  0  0  0  0  0
  160.8210  201.2870  150.1830 C   0  0  0  0  0  3  0  0  0  0  0  0
  160.9710  202.6060  150.6250 C   0  0  0  0  0  0  0  0  0  0  0  0
  160.9550  202.8990  151.9920 C   0  0  0  0  0  3  0  0  0  0  0  0
  161.1420  203.6490  149.6820 C   0  0  0  0  0  0  0  0  0  0  0  0
  160.8430  201.0020  148.8130 C   0  0  0  0  0  3  0  0  0  0  0  0
  161.1610  203.3560  148.3150 C   0  0  0  0  0  3  0  0  0  0  0  0
  161.7290  206.7060  153.3240 O   0  0  0  0  0  0  0  0  0  0  0  0
  160.6360  207.2480  154.0130 C   0  0  0  0  0  2  0  0  0  0  0  0
  161.0770  208.4050  154.8490 C   0  0  0  0  0  0  0  0  0  0  0  0
  161.0530  208.3030  156.1040 O   0  0  0  0  0  0  0  0  0  0  0  0
  161.5580  209.5620  154.2330 O   0  0  0  0  0  0  0  0  0  0  0  0
  160.9240  210.8270  154.3860 C   0  0  0  0  0  2  0  0  0  0  0  0
  159.4270  210.7460  154.0660 C   0  0  1  0  0  3  0  0  0  0  0  0
  158.5990  211.3260  155.1670 C   0  0  0  0  0  0  0  0  0  0  0  0
  159.1900  211.7170  156.3640 O   0  0  0  0  0  1  0  0  0  0  0  0
  157.3140  211.4820  155.0000 C   0  0  0  0  0  0  0  0  0  0  0  0
  156.0930  211.6320  154.8470 O   0  0  0  0  0  0  0  0  0  0  0  0
  159.0800  211.4050  152.7330 C   0  0  0  0  0  2  0  0  0  0  0  0
  160.0350  212.7410  151.1820 O   0  0  0  0  0  1  0  0  0  0  0  0
  159.8950  212.5910  152.5210 N   0  0  0  0  0  2  0  0  0  0  0  0
  162.3100  207.4190  151.1760 N   0  0  0  0  0  2  0  0  0  0  0  0
  161.9520  209.6000  151.1160 O   0  0  0  0  0  1  0  0  0  0  0  0
  161.6130  208.4370  150.5120 N   0  0  0  0  0  0  0  0  0  0  0  0
  162.1540  208.5030  149.1640 C   0  0  0  0  0  2  0  0  0  0  0  0
  161.2710  207.7240  148.1980 C   0  0  0  0  0  2  0  0  0  0  0  0
  161.2180  206.1460  146.2720 C   0  0  0  0  0  1  0  0  0  0  0  0
  162.0930  206.7940  147.3250 C   0  0  0  0  0  2  0  0  0  0  0  0
  1 26  1  6  0  0  0
  1 12  1  0  0  0  0
  2  1  1  0  0  0  0
  2  3  1  0  0  0  0
  4 11  2  0  0  0  0
  4 10  1  0  0  0  0
  5  2  2  0  0  0  0
  6  7  1  0  0  0  0
  7  8  1  0  0  0  0
  8  3  2  0  0  0  0
  9  5  1  0  0  0  0
  9  7  2  0  0  0  0
 10  6  2  0  0  0  0
 11  9  1  0  0  0  0
 12 13  1  0  0  0  0
 13 14  1  0  0  0  0
 14 15  2  0  0  0  0
 16 17  1  0  0  0  0
 16 14  1  0  0  0  0
 18 23  1  6  0  0  0
 18 17  1  0  0  0  0
 18 19  1  0  0  0  0
 19 20  1  0  0  0  0
 21 19  2  0  0  0  0
 22 21  2  0  0  0  0
 24 25  1  0  0  0  0
 25 23  1  0  0  0  0
 28 27  1  0  0  0  0
 28 26  1  0  0  0  0
 29 28  1  0  0  0  0
 30 29  1  0  0  0  0
 31 32  1  0  0  0  0
 32 30  1  0  0  0  0
M  END
>  <MODEL>
1

>  <REMARK>
 VINA RESULT:      -7.5      0.000      0.000
  Name = 
  15 active torsions:
  status: ('A' for Active; 'I' for Inactive)
    1  A    between atoms: O_1  and  C_4
    2  A    between atoms: O_1  and  C_5
    3  A    between atoms: C_2  and  C_5
    4  A    between atoms: C_3  and  C_20
    5  A    between atoms: C_4  and  C_24
    6  A    between atoms: C_5  and  N_14
    7  A    between atoms: C_13  and  C_18
    8  A    between atoms: C_13  and  C_29
    9  A    between atoms: N_14  and  N_30
   10  A    between atoms: C_15  and  O_16
   11  A    between atoms: C_15  and  C_20
   12  A    between atoms: O_16  and  C_24
   13  A    between atoms: C_18  and  N_30
   14  A    between atoms: N_19  and  C_26
   15  A    between atoms: C_20  and  C_26
                            x       y       z     vdW  Elec       q    Type
                         _______ _______ _______ _____ _____    ______ ____

>  <TORSDO>
F 15

$$$$
=
 OpenBabel11062408333D

 32 33  0  0  1  0  0  0  0  0999 V2000
  161.4060  207.3490  150.5740 C   0  0  1  0  0  3  0  0  0  0  0  0
  161.2770  206.0400  149.8570 C   0  0  0  0  0  0  0  0  0  0  0  0
  161.4260  206.0020  148.4630 C   0  0  0  0  0  3  0  0  0  0  0  0
  160.8210  201.2130  149.9260 C   0  0  0  0  0  3  0  0  0  0  0  0
  161.0980  204.8470  150.5730 C   0  0  0  0  0  3  0  0  0  0  0  0
  161.1610  202.3660  147.8160 C   0  0  0  0  0  3  0  0  0  0  0  0
  161.2000  203.5910  148.4900 C   0  0  0  0  0  0  0  0  0  0  0  0
  161.3840  204.7820  147.7800 C   0  0  0  0  0  3  0  0  0  0  0  0
  161.0490  203.6250  149.8970 C   0  0  0  0  0  0  0  0  0  0  0  0
  160.9710  201.1790  148.5340 C   0  0  0  0  0  3  0  0  0  0  0  0
  160.8600  202.4350  150.6080 C   0  0  0  0  0  3  0  0  0  0  0  0
  161.9180  207.1460  151.8630 O   0  0  0  0  0  0  0  0  0  0  0  0
  160.9370  207.6290  152.7380 C   0  0  0  0  0  2  0  0  0  0  0  0
  160.8830  206.7860  153.9680 C   0  0  0  0  0  0  0  0  0  0  0  0
  161.3290  205.6080  153.9290 O   0  0  0  0  0  0  0  0  0  0  0  0
  160.3900  207.3250  155.1580 O   0  0  0  0  0  0  0  0  0  0  0  0
  161.2360  207.9390  156.1240 C   0  0  0  0  0  2  0  0  0  0  0  0
  160.9420  209.4370  156.2570 C   0  0  1  0  0  3  0  0  0  0  0  0
  162.0210  210.2650  155.6380 C   0  0  0  0  0  0  0  0  0  0  0  0
  161.9600  210.6130  154.2920 O   0  0  0  0  0  1  0  0  0  0  0  0
  163.0210  210.6790  156.3680 C   0  0  0  0  0  0  0  0  0  0  0  0
  163.9740  211.0750  157.0550 O   0  0  0  0  0  0  0  0  0  0  0  0
  159.5790  209.8170  155.6810 C   0  0  0  0  0  2  0  0  0  0  0  0
  158.3690  211.7230  155.6070 O   0  0  0  0  0  1  0  0  0  0  0  0
  158.9640  210.8700  156.4750 N   0  0  0  0  0  2  0  0  0  0  0  0
  162.2940  208.2360  149.8290 N   0  0  0  0  0  2  0  0  0  0  0  0
  162.3950  210.1800  150.8780 O   0  0  0  0  0  1  0  0  0  0  0  0
  161.7490  209.5250  149.8840 N   0  0  0  0  0  0  0  0  0  0  0  0
  162.1230  210.1900  148.6470 C   0  0  0  0  0  2  0  0  0  0  0  0
  162.1210  211.7020  148.8340 C   0  0  0  0  0  2  0  0  0  0  0  0
  162.2950  213.0000  146.7160 C   0  0  0  0  0  1  0  0  0  0  0  0
  163.0690  212.3790  147.8610 C   0  0  0  0  0  2  0  0  0  0  0  0
  1 26  1  6  0  0  0
  1 12  1  0  0  0  0
  2  5  1  0  0  0  0
  2  1  1  0  0  0  0
  3  2  2  0  0  0  0
  4 11  2  0  0  0  0
  6  7  1  0  0  0  0
  6 10  2  0  0  0  0
  7  9  1  0  0  0  0
  8  3  1  0  0  0  0
  8  7  2  0  0  0  0
  9  5  2  0  0  0  0
  9 11  1  0  0  0  0
 10  4  1  0  0  0  0
 12 13  1  0  0  0  0
 13 14  1  0  0  0  0
 14 16  1  0  0  0  0
 15 14  2  0  0  0  0
 16 17  1  0  0  0  0
 17 18  1  0  0  0  0
 18 23  1  6  0  0  0
 19 18  1  0  0  0  0
 19 21  2  0  0  0  0
 20 19  1  0  0  0  0
 21 22  2  0  0  0  0
 23 25  1  0  0  0  0
 24 25  1  0  0  0  0
 26 28  1  0  0  0  0
 28 27  1  0  0  0  0
 29 30  1  0  0  0  0
 29 28  1  0  0  0  0
 31 32  1  0  0  0  0
 32 30  1  0  0  0  0
M  END
>  <MODEL>
2

>  <REMARK>
 VINA RESULT:      -7.4      2.060      3.561
  Name = 
  15 active torsions:
  status: ('A' for Active; 'I' for Inactive)
    1  A    between atoms: O_1  and  C_4
    2  A    between atoms: O_1  and  C_5
    3  A    between atoms: C_2  and  C_5
    4  A    between atoms: C_3  and  C_20
    5  A    between atoms: C_4  and  C_24
    6  A    between atoms: C_5  and  N_14
    7  A    between atoms: C_13  and  C_18
    8  A    between atoms: C_13  and  C_29
    9  A    between atoms: N_14  and  N_30
   10  A    between atoms: C_15  and  O_16
   11  A    between atoms: C_15  and  C_20
   12  A    between atoms: O_16  and  C_24
   13  A    between atoms: C_18  and  N_30
   14  A    between atoms: N_19  and  C_26
   15  A    between atoms: C_20  and  C_26
                            x       y       z     vdW  Elec       q    Type
                         _______ _______ _______ _____ _____    ______ ____

>  <TORSDO>
F 15

$$$$
=
 OpenBabel11062408333D

 32 33  0  0  1  0  0  0  0  0999 V2000
  161.4680  207.1070  151.2370 C   0  0  1  0  0  3  0  0  0  0  0  0
  161.3630  205.6350  150.9790 C   0  0  0  0  0  0  0  0  0  0  0  0
  161.2370  204.7540  152.0630 C   0  0  0  0  0  3  0  0  0  0  0  0
  160.9040  201.9070  147.9120 C   0  0  0  0  0  3  0  0  0  0  0  0
  161.3000  205.1410  149.6670 C   0  0  0  0  0  3  0  0  0  0  0  0
  160.8280  201.5190  150.3090 C   0  0  0  0  0  3  0  0  0  0  0  0
  161.0070  202.8870  150.5370 C   0  0  0  0  0  0  0  0  0  0  0  0
  161.0620  203.3840  151.8430 C   0  0  0  0  0  3  0  0  0  0  0  0
  161.1330  203.7730  149.4400 C   0  0  0  0  0  0  0  0  0  0  0  0
  160.7780  201.0300  148.9980 C   0  0  0  0  0  3  0  0  0  0  0  0
  161.0810  203.2770  148.1330 C   0  0  0  0  0  3  0  0  0  0  0  0
  161.0510  207.8270  150.1090 O   0  0  0  0  0  0  0  0  0  0  0  0
  162.2090  208.4290  149.5990 C   0  0  0  0  0  2  0  0  0  0  0  0
  162.0480  209.9130  149.5720 C   0  0  0  0  0  0  0  0  0  0  0  0
  161.9850  210.5470  150.6590 O   0  0  0  0  0  0  0  0  0  0  0  0
  162.0240  210.5860  148.3480 O   0  0  0  0  0  0  0  0  0  0  0  0
  162.4210  211.9470  148.2200 C   0  0  0  0  0  2  0  0  0  0  0  0
  161.5650  212.6860  147.1850 C   0  0  1  0  0  3  0  0  0  0  0  0
  160.3740  213.3300  147.8170 C   0  0  0  0  0  0  0  0  0  0  0  0
  159.3440  213.8360  147.0300 O   0  0  0  0  0  1  0  0  0  0  0  0
  160.2900  213.4040  149.1180 C   0  0  0  0  0  0  0  0  0  0  0  0
  160.2050  213.4790  150.3520 O   0  0  0  0  0  0  0  0  0  0  0  0
  162.3690  213.7140  146.3910 C   0  0  0  0  0  2  0  0  0  0  0  0
  163.3500  213.0810  144.4580 O   0  0  0  0  0  1  0  0  0  0  0  0
  162.1740  213.5230  144.9620 N   0  0  0  0  0  2  0  0  0  0  0  0
  160.6370  207.4690  152.3810 N   0  0  0  0  0  2  0  0  0  0  0  0
  160.5190  209.4760  153.3010 O   0  0  0  0  0  1  0  0  0  0  0  0
  161.3430  208.4150  153.1350 N   0  0  0  0  0  0  0  0  0  0  0  0
  161.5360  207.8370  154.4550 C   0  0  0  0  0  2  0  0  0  0  0  0
  160.4070  206.8680  154.7810 C   0  0  0  0  0  2  0  0  0  0  0  0
  160.3640  207.1470  157.2560 C   0  0  0  0  0  1  0  0  0  0  0  0
  159.5920  207.3500  155.9670 C   0  0  0  0  0  2  0  0  0  0  0  0
  1 12  1  6  0  0  0
  1 26  1  0  0  0  0
  2  1  1  0  0  0  0
  2  3  1  0  0  0  0
  4 11  2  0  0  0  0
  4 10  1  0  0  0  0
  5  2  2  0  0  0  0
  6  7  1  0  0  0  0
  7  8  1  0  0  0  0
  8  3  2  0  0  0  0
  9  5  1  0  0  0  0
  9  7  2  0  0  0  0
 10  6  2  0  0  0  0
 11  9  1  0  0  0  0
 13 12  1  0  0  0  0
 14 13  1  0  0  0  0
 14 15  2  0  0  0  0
 16 14  1  0  0  0  0
 17 16  1  0  0  0  0
 18 23  1  1  0  0  0
 18 19  1  0  0  0  0
 18 17  1  0  0  0  0
 19 21  2  0  0  0  0
 20 19  1  0  0  0  0
 21 22  2  0  0  0  0
 24 25  1  0  0  0  0
 25 23  1  0  0  0  0
 26 28  1  0  0  0  0
 28 27  1  0  0  0  0
 28 29  1  0  0  0  0
 29 30  1  0  0  0  0
 30 32  1  0  0  0  0
 32 31  1  0  0  0  0
M  END
>  <MODEL>
3

>  <REMARK>
 VINA RESULT:      -7.4      3.037      5.447
  Name = 
  15 active torsions:
  status: ('A' for Active; 'I' for Inactive)
    1  A    between atoms: O_1  and  C_4
    2  A    between atoms: O_1  and  C_5
    3  A    between atoms: C_2  and  C_5
    4  A    between atoms: C_3  and  C_20
    5  A    between atoms: C_4  and  C_24
    6  A    between atoms: C_5  and  N_14
    7  A    between atoms: C_13  and  C_18
    8  A    between atoms: C_13  and  C_29
    9  A    between atoms: N_14  and  N_30
   10  A    between atoms: C_15  and  O_16
   11  A    between atoms: C_15  and  C_20
   12  A    between atoms: O_16  and  C_24
   13  A    between atoms: C_18  and  N_30
   14  A    between atoms: N_19  and  C_26
   15  A    between atoms: C_20  and  C_26
                            x       y       z     vdW  Elec       q    Type
                         _______ _______ _______ _____ _____    ______ ____

>  <TORSDO>
F 15

$$$$
=
 OpenBabel11062408333D

 32 33  0  0  1  0  0  0  0  0999 V2000
  161.2630  207.1810  150.8620 C   0  0  1  0  0  3  0  0  0  0  0  0
  161.2450  205.6840  150.8350 C   0  0  0  0  0  0  0  0  0  0  0  0
  161.2350  204.9740  152.0450 C   0  0  0  0  0  3  0  0  0  0  0  0
  160.8810  201.5070  148.3990 C   0  0  0  0  0  3  0  0  0  0  0  0
  161.1480  204.9910  149.6190 C   0  0  0  0  0  3  0  0  0  0  0  0
  160.9560  201.4890  150.8260 C   0  0  0  0  0  3  0  0  0  0  0  0
  161.0530  202.8840  150.8340 C   0  0  0  0  0  0  0  0  0  0  0  0
  161.1420  203.5780  152.0450 C   0  0  0  0  0  3  0  0  0  0  0  0
  161.0620  203.5970  149.6110 C   0  0  0  0  0  0  0  0  0  0  0  0
  160.8710  200.8020  149.6090 C   0  0  0  0  0  3  0  0  0  0  0  0
  160.9760  202.9030  148.4000 C   0  0  0  0  0  3  0  0  0  0  0  0
  161.4450  207.6390  152.1740 O   0  0  0  0  0  0  0  0  0  0  0  0
  160.7620  208.8610  152.2430 C   0  0  0  0  0  2  0  0  0  0  0  0
  161.6970  209.9510  152.6530 C   0  0  0  0  0  0  0  0  0  0  0  0
  162.7360  210.1600  151.9740 O   0  0  0  0  0  0  0  0  0  0  0  0
  161.3830  210.7580  153.7490 O   0  0  0  0  0  0  0  0  0  0  0  0
  161.9370  210.5370  155.0410 C   0  0  0  0  0  2  0  0  0  0  0  0
  160.8460  210.4710  156.1160 C   0  0  1  0  0  3  0  0  0  0  0  0
  159.7930  211.5070  155.8920 C   0  0  0  0  0  0  0  0  0  0  0  0
  160.1210  212.8590  155.8880 O   0  0  0  0  0  1  0  0  0  0  0  0
  158.5570  211.1410  155.6830 C   0  0  0  0  0  0  0  0  0  0  0  0
  157.3820  210.8000  155.4850 O   0  0  0  0  0  0  0  0  0  0  0  0
  160.2180  209.0830  156.2230 C   0  0  0  0  0  2  0  0  0  0  0  0
  160.4530  206.9750  155.4480 O   0  0  0  0  0  1  0  0  0  0  0  0
  161.1720  208.0580  155.8310 N   0  0  0  0  0  2  0  0  0  0  0  0
  162.3430  207.6780  150.0160 N   0  0  0  0  0  2  0  0  0  0  0  0
  162.0820  209.4310  148.6940 O   0  0  0  0  0  1  0  0  0  0  0  0
  161.7730  208.1190  148.8140 N   0  0  0  0  0  0  0  0  0  0  0  0
  162.4740  207.4320  147.7430 C   0  0  0  0  0  2  0  0  0  0  0  0
  161.4870  206.6930  146.8480 C   0  0  0  0  0  2  0  0  0  0  0  0
  161.2200  204.8070  145.2450 C   0  0  0  0  0  1  0  0  0  0  0  0
  162.2030  205.7690  145.8820 C   0  0  0  0  0  2  0  0  0  0  0  0
  1 26  1  6  0  0  0
  1 12  1  0  0  0  0
  2  1  1  0  0  0  0
  2  3  1  0  0  0  0
  3  8  2  0  0  0  0
  4 11  2  0  0  0  0
  4 10  1  0  0  0  0
  5  2  2  0  0  0  0
  6  7  1  0  0  0  0
  7  8  1  0  0  0  0
  9  5  1  0  0  0  0
  9  7  2  0  0  0  0
 10  6  2  0  0  0  0
 11  9  1  0  0  0  0
 12 13  1  0  0  0  0
 13 14  1  0  0  0  0
 14 16  1  0  0  0  0
 15 14  2  0  0  0  0
 16 17  1  0  0  0  0
 18 17  1  6  0  0  0
 18 23  1  0  0  0  0
 19 18  1  0  0  0  0
 20 19  1  0  0  0  0
 21 19  2  0  0  0  0
 22 21  2  0  0  0  0
 24 25  1  0  0  0  0
 25 23  1  0  0  0  0
 27 28  1  0  0  0  0
 28 26  1  0  0  0  0
 29 28  1  0  0  0  0
 30 29  1  0  0  0  0
 31 32  1  0  0  0  0
 32 30  1  0  0  0  0
M  END
>  <MODEL>
4

>  <REMARK>
 VINA RESULT:      -7.4      1.753      2.434
  Name = 
  15 active torsions:
  status: ('A' for Active; 'I' for Inactive)
    1  A    between atoms: O_1  and  C_4
    2  A    between atoms: O_1  and  C_5
    3  A    between atoms: C_2  and  C_5
    4  A    between atoms: C_3  and  C_20
    5  A    between atoms: C_4  and  C_24
    6  A    between atoms: C_5  and  N_14
    7  A    between atoms: C_13  and  C_18
    8  A    between atoms: C_13  and  C_29
    9  A    between atoms: N_14  and  N_30
   10  A    between atoms: C_15  and  O_16
   11  A    between atoms: C_15  and  C_20
   12  A    between atoms: O_16  and  C_24
   13  A    between atoms: C_18  and  N_30
   14  A    between atoms: N_19  and  C_26
   15  A    between atoms: C_20  and  C_26
                            x       y       z     vdW  Elec       q    Type
                         _______ _______ _______ _____ _____    ______ ____

>  <TORSDO>
F 15

$$$$
=
 OpenBabel11062408333D

 32 33  0  0  1  0  0  0  0  0999 V2000
  161.1880  206.6970  151.6630 C   0  0  1  0  0  3  0  0  0  0  0  0
  161.1830  205.2530  151.2680 C   0  0  0  0  0  0  0  0  0  0  0  0
  161.1230  204.2680  152.2650 C   0  0  0  0  0  3  0  0  0  0  0  0
  160.9640  201.8040  147.8660 C   0  0  0  0  0  3  0  0  0  0  0  0
  161.1470  204.8800  149.9160 C   0  0  0  0  0  3  0  0  0  0  0  0
  160.9270  201.1890  150.2160 C   0  0  0  0  0  3  0  0  0  0  0  0
  161.0130  202.5400  150.5710 C   0  0  0  0  0  0  0  0  0  0  0  0
  161.0410  202.9150  151.9180 C   0  0  0  0  0  3  0  0  0  0  0  0
  161.0730  203.5310  149.5620 C   0  0  0  0  0  0  0  0  0  0  0  0
  160.9040  200.8220  148.8650 C   0  0  0  0  0  3  0  0  0  0  0  0
  161.0480  203.1560  148.2150 C   0  0  0  0  0  3  0  0  0  0  0  0
  161.3870  206.8210  153.0440 O   0  0  0  0  0  0  0  0  0  0  0  0
  160.8150  208.0500  153.3980 C   0  0  0  0  0  2  0  0  0  0  0  0
  160.8310  208.2180  154.8810 C   0  0  0  0  0  0  0  0  0  0  0  0
  160.6990  207.2060  155.6180 O   0  0  0  0  0  0  0  0  0  0  0  0
  161.0430  209.4830  155.4340 O   0  0  0  0  0  0  0  0  0  0  0  0
  161.5690  210.5670  154.6760 C   0  0  0  0  0  2  0  0  0  0  0  0
  160.6340  211.7810  154.7080 C   0  0  1  0  0  3  0  0  0  0  0  0
  159.6060  211.7100  153.6250 C   0  0  0  0  0  0  0  0  0  0  0  0
  158.3340  211.2110  153.8890 O   0  0  0  0  0  1  0  0  0  0  0  0
  159.8980  212.1340  152.4250 C   0  0  0  0  0  0  0  0  0  0  0  0
  160.1680  212.5330  151.2830 O   0  0  0  0  0  0  0  0  0  0  0  0
  159.9650  211.9650  156.0680 C   0  0  0  0  0  2  0  0  0  0  0  0
  158.6550  213.6610  156.7840 O   0  0  0  0  0  1  0  0  0  0  0  0
  159.9320  213.3720  156.4350 N   0  0  0  0  0  2  0  0  0  0  0  0
  162.2510  207.4010  150.9510 N   0  0  0  0  0  2  0  0  0  0  0  0
  162.0450  209.5510  150.4790 O   0  0  0  0  0  1  0  0  0  0  0  0
  161.6440  208.3190  150.0840 N   0  0  0  0  0  0  0  0  0  0  0  0
  162.2270  208.1010  148.7710 C   0  0  0  0  0  2  0  0  0  0  0  0
  161.2450  207.3620  147.8700 C   0  0  0  0  0  2  0  0  0  0  0  0
  161.0040  205.9660  145.8220 C   0  0  0  0  0  1  0  0  0  0  0  0
  161.9700  206.4800  146.8700 C   0  0  0  0  0  2  0  0  0  0  0  0
  1 26  1  6  0  0  0
  1 12  1  0  0  0  0
  2  1  1  0  0  0  0
  2  3  1  0  0  0  0
  4 11  2  0  0  0  0
  4 10  1  0  0  0  0
  5  2  2  0  0  0  0
  6  7  1  0  0  0  0
  7  8  1  0  0  0  0
  8  3  2  0  0  0  0
  9  5  1  0  0  0  0
  9  7  2  0  0  0  0
 10  6  2  0  0  0  0
 11  9  1  0  0  0  0
 12 13  1  0  0  0  0
 13 14  1  0  0  0  0
 14 16  1  0  0  0  0
 14 15  2  0  0  0  0
 17 16  1  0  0  0  0
 18 17  1  1  0  0  0
 18 23  1  0  0  0  0
 19 20  1  0  0  0  0
 19 18  1  0  0  0  0
 21 19  2  0  0  0  0
 22 21  2  0  0  0  0
 23 25  1  0  0  0  0
 25 24  1  0  0  0  0
 28 27  1  0  0  0  0
 28 26  1  0  0  0  0
 29 28  1  0  0  0  0
 30 29  1  0  0  0  0
 31 32  1  0  0  0  0
 32 30  1  0  0  0  0
M  END
>  <MODEL>
5

>  <REMARK>
 VINA RESULT:      -7.4      1.206      1.995
  Name = 
  15 active torsions:
  status: ('A' for Active; 'I' for Inactive)
    1  A    between atoms: O_1  and  C_4
    2  A    between atoms: O_1  and  C_5
    3  A    between atoms: C_2  and  C_5
    4  A    between atoms: C_3  and  C_20
    5  A    between atoms: C_4  and  C_24
    6  A    between atoms: C_5  and  N_14
    7  A    between atoms: C_13  and  C_18
    8  A    between atoms: C_13  and  C_29
    9  A    between atoms: N_14  and  N_30
   10  A    between atoms: C_15  and  O_16
   11  A    between atoms: C_15  and  C_20
   12  A    between atoms: O_16  and  C_24
   13  A    between atoms: C_18  and  N_30
   14  A    between atoms: N_19  and  C_26
   15  A    between atoms: C_20  and  C_26
                            x       y       z     vdW  Elec       q    Type
                         _______ _______ _______ _____ _____    ______ ____

>  <TORSDO>
F 15

$$$$
=
 OpenBabel11062408333D

 32 33  0  0  1  0  0  0  0  0999 V2000
  161.4300  207.2100  151.7940 C   0  0  1  0  0  3  0  0  0  0  0  0
  161.3330  205.7680  151.4020 C   0  0  0  0  0  0  0  0  0  0  0  0
  161.1570  204.7960  152.3980 C   0  0  0  0  0  3  0  0  0  0  0  0
  161.0010  202.3280  148.0010 C   0  0  0  0  0  3  0  0  0  0  0  0
  161.3270  205.3920  150.0500 C   0  0  0  0  0  3  0  0  0  0  0  0
  160.8180  201.7300  150.3480 C   0  0  0  0  0  3  0  0  0  0  0  0
  160.9890  203.0720  150.7040 C   0  0  0  0  0  0  0  0  0  0  0  0
  160.9880  203.4510  152.0500 C   0  0  0  0  0  3  0  0  0  0  0  0
  161.1670  204.0510  149.6960 C   0  0  0  0  0  0  0  0  0  0  0  0
  160.8240  201.3590  148.9980 C   0  0  0  0  0  3  0  0  0  0  0  0
  161.1710  203.6720  148.3500 C   0  0  0  0  0  3  0  0  0  0  0  0
  160.9770  208.0270  150.7490 O   0  0  0  0  0  0  0  0  0  0  0  0
  162.0300  208.9110  150.4790 C   0  0  0  0  0  2  0  0  0  0  0  0
  162.1710  209.1110  149.0060 C   0  0  0  0  0  0  0  0  0  0  0  0
  162.2750  208.1060  148.2540 O   0  0  0  0  0  0  0  0  0  0  0  0
  162.1310  210.4020  148.4740 O   0  0  0  0  0  0  0  0  0  0  0  0
  161.7200  211.5280  149.2410 C   0  0  0  0  0  2  0  0  0  0  0  0
  161.8680  212.8310  148.4470 C   0  0  1  0  0  3  0  0  0  0  0  0
  161.3810  212.6760  147.0420 C   0  0  0  0  0  0  0  0  0  0  0  0
  160.1280  212.1280  146.7860 O   0  0  0  0  0  1  0  0  0  0  0  0
  162.1290  213.0720  146.0480 C   0  0  0  0  0  0  0  0  0  0  0  0
  162.8350  213.4450  145.1000 O   0  0  0  0  0  0  0  0  0  0  0  0
  161.1740  214.0100  149.1260 C   0  0  0  0  0  2  0  0  0  0  0  0
  158.9630  213.7880  149.5320 O   0  0  0  0  0  1  0  0  0  0  0  0
  160.1780  213.5380  150.0760 N   0  0  0  0  0  2  0  0  0  0  0  0
  160.6260  207.4540  152.9880 N   0  0  0  0  0  2  0  0  0  0  0  0
  160.5490  209.5210  153.7680 O   0  0  0  0  0  1  0  0  0  0  0  0
  161.3050  208.3980  153.7700 N   0  0  0  0  0  0  0  0  0  0  0  0
  161.2910  207.8970  155.1340 C   0  0  0  0  0  2  0  0  0  0  0  0
  160.8140  208.9810  156.0930 C   0  0  0  0  0  2  0  0  0  0  0  0
  162.8050  210.4380  156.4290 C   0  0  0  0  0  1  0  0  0  0  0  0
  161.9120  209.3870  157.0580 C   0  0  0  0  0  2  0  0  0  0  0  0
  1 12  1  6  0  0  0
  1 26  1  0  0  0  0
  2  1  1  0  0  0  0
  2  3  1  0  0  0  0
  4 11  2  0  0  0  0
  4 10  1  0  0  0  0
  5  2  2  0  0  0  0
  6  7  1  0  0  0  0
  7  8  1  0  0  0  0
  8  3  2  0  0  0  0
  9  5  1  0  0  0  0
  9  7  2  0  0  0  0
 10  6  2  0  0  0  0
 11  9  1  0  0  0  0
 13 12  1  0  0  0  0
 14 13  1  0  0  0  0
 15 14  2  0  0  0  0
 16 14  1  0  0  0  0
 16 17  1  0  0  0  0
 18 23  1  1  0  0  0
 18 17  1  0  0  0  0
 19 18  1  0  0  0  0
 20 19  1  0  0  0  0
 21 19  2  0  0  0  0
 22 21  2  0  0  0  0
 23 25  1  0  0  0  0
 24 25  1  0  0  0  0
 26 28  1  0  0  0  0
 27 28  1  0  0  0  0
 28 29  1  0  0  0  0
 29 30  1  0  0  0  0
 30 32  1  0  0  0  0
 31 32  1  0  0  0  0
M  END
>  <MODEL>
6

>  <REMARK>
 VINA RESULT:      -7.2      2.751      5.694
  Name = 
  15 active torsions:
  status: ('A' for Active; 'I' for Inactive)
    1  A    between atoms: O_1  and  C_4
    2  A    between atoms: O_1  and  C_5
    3  A    between atoms: C_2  and  C_5
    4  A    between atoms: C_3  and  C_20
    5  A    between atoms: C_4  and  C_24
    6  A    between atoms: C_5  and  N_14
    7  A    between atoms: C_13  and  C_18
    8  A    between atoms: C_13  and  C_29
    9  A    between atoms: N_14  and  N_30
   10  A    between atoms: C_15  and  O_16
   11  A    between atoms: C_15  and  C_20
   12  A    between atoms: O_16  and  C_24
   13  A    between atoms: C_18  and  N_30
   14  A    between atoms: N_19  and  C_26
   15  A    between atoms: C_20  and  C_26
                            x       y       z     vdW  Elec       q    Type
                         _______ _______ _______ _____ _____    ______ ____

>  <TORSDO>
F 15

$$$$
=
 OpenBabel11062408333D

 32 33  0  0  1  0  0  0  0  0999 V2000
  161.5160  208.6930  152.3000 C   0  0  1  0  0  3  0  0  0  0  0  0
  161.4180  207.2120  152.1010 C   0  0  0  0  0  0  0  0  0  0  0  0
  161.3630  206.3700  153.2220 C   0  0  0  0  0  3  0  0  0  0  0  0
  160.8450  203.3680  149.2010 C   0  0  0  0  0  3  0  0  0  0  0  0
  161.2910  206.6690  150.8130 C   0  0  0  0  0  3  0  0  0  0  0  0
  160.9050  203.0680  151.6110 C   0  0  0  0  0  3  0  0  0  0  0  0
  161.0760  204.4460  151.7790 C   0  0  0  0  0  0  0  0  0  0  0  0
  161.1950  204.9900  153.0620 C   0  0  0  0  0  3  0  0  0  0  0  0
  161.1310  205.2920  150.6460 C   0  0  0  0  0  0  0  0  0  0  0  0
  160.7900  202.5300  150.3230 C   0  0  0  0  0  3  0  0  0  0  0  0
  161.0150  204.7480  149.3630 C   0  0  0  0  0  3  0  0  0  0  0  0
  161.1420  209.3640  151.1280 O   0  0  0  0  0  0  0  0  0  0  0  0
  162.2750  210.0870  150.7300 C   0  0  0  0  0  2  0  0  0  0  0  0
  162.3020  210.2260  149.2440 C   0  0  0  0  0  0  0  0  0  0  0  0
  161.9730  209.2450  148.5260 O   0  0  0  0  0  0  0  0  0  0  0  0
  162.6370  211.4540  148.6680 O   0  0  0  0  0  0  0  0  0  0  0  0
  161.7310  212.5500  148.6310 C   0  0  0  0  0  2  0  0  0  0  0  0
  161.1240  212.7300  147.2350 C   0  0  1  0  0  3  0  0  0  0  0  0
  159.6440  212.9250  147.3010 C   0  0  0  0  0  0  0  0  0  0  0  0
  159.0380  213.3360  148.4850 O   0  0  0  0  0  1  0  0  0  0  0  0
  158.9130  212.7230  146.2380 C   0  0  0  0  0  0  0  0  0  0  0  0
  158.2150  212.5320  145.2320 O   0  0  0  0  0  0  0  0  0  0  0  0
  161.7780  213.8690  146.4560 C   0  0  0  0  0  2  0  0  0  0  0  0
  161.9660  212.9650  144.3950 O   0  0  0  0  0  1  0  0  0  0  0  0
  162.7050  213.3440  145.4650 N   0  0  0  0  0  2  0  0  0  0  0  0
  160.6460  209.1040  153.3970 N   0  0  0  0  0  2  0  0  0  0  0  0
  160.8430  211.2720  153.7850 O   0  0  0  0  0  1  0  0  0  0  0  0
  161.3360  210.0650  154.1490 N   0  0  0  0  0  0  0  0  0  0  0  0
  160.9500  209.8660  155.5350 C   0  0  0  0  0  2  0  0  0  0  0  0
  161.7150  208.6940  156.1380 C   0  0  0  0  0  2  0  0  0  0  0  0
  159.6760  207.2680  156.2360 C   0  0  0  0  0  1  0  0  0  0  0  0
  160.8240  207.8540  157.0330 C   0  0  0  0  0  2  0  0  0  0  0  0
  1 12  1  6  0  0  0
  1 26  1  0  0  0  0
  2  1  1  0  0  0  0
  2  3  1  0  0  0  0
  4 11  2  0  0  0  0
  4 10  1  0  0  0  0
  5  2  2  0  0  0  0
  6  7  1  0  0  0  0
  7  8  1  0  0  0  0
  8  3  2  0  0  0  0
  9  5  1  0  0  0  0
  9  7  2  0  0  0  0
 10  6  2  0  0  0  0
 11  9  1  0  0  0  0
 13 12  1  0  0  0  0
 14 13  1  0  0  0  0
 15 14  2  0  0  0  0
 16 14  1  0  0  0  0
 17 16  1  0  0  0  0
 18 23  1  1  0  0  0
 18 19  1  0  0  0  0
 18 17  1  0  0  0  0
 19 20  1  0  0  0  0
 21 19  2  0  0  0  0
 22 21  2  0  0  0  0
 24 25  1  0  0  0  0
 25 23  1  0  0  0  0
 26 28  1  0  0  0  0
 27 28  1  0  0  0  0
 28 29  1  0  0  0  0
 29 30  1  0  0  0  0
 30 32  1  0  0  0  0
 31 32  1  0  0  0  0
M  END
>  <MODEL>
7

>  <REMARK>
 VINA RESULT:      -6.9      3.367      5.911
  Name = 
  15 active torsions:
  status: ('A' for Active; 'I' for Inactive)
    1  A    between atoms: O_1  and  C_4
    2  A    between atoms: O_1  and  C_5
    3  A    between atoms: C_2  and  C_5
    4  A    between atoms: C_3  and  C_20
    5  A    between atoms: C_4  and  C_24
    6  A    between atoms: C_5  and  N_14
    7  A    between atoms: C_13  and  C_18
    8  A    between atoms: C_13  and  C_29
    9  A    between atoms: N_14  and  N_30
   10  A    between atoms: C_15  and  O_16
   11  A    between atoms: C_15  and  C_20
   12  A    between atoms: O_16  and  C_24
   13  A    between atoms: C_18  and  N_30
   14  A    between atoms: N_19  and  C_26
   15  A    between atoms: C_20  and  C_26
                            x       y       z     vdW  Elec       q    Type
                         _______ _______ _______ _____ _____    ______ ____

>  <TORSDO>
F 15

$$$$
=
 OpenBabel11062408333D

 32 33  0  0  1  0  0  0  0  0999 V2000
  162.1500  208.5150  149.6830 C   0  0  1  0  0  3  0  0  0  0  0  0
  161.8490  207.1380  149.1780 C   0  0  0  0  0  0  0  0  0  0  0  0
  162.0800  206.8340  147.8280 C   0  0  0  0  0  3  0  0  0  0  0  0
  160.5820  202.5270  149.9850 C   0  0  0  0  0  3  0  0  0  0  0  0
  161.4250  206.1300  150.0580 C   0  0  0  0  0  3  0  0  0  0  0  0
  161.2480  203.2270  147.7560 C   0  0  0  0  0  3  0  0  0  0  0  0
  161.4490  204.5290  148.2240 C   0  0  0  0  0  0  0  0  0  0  0  0
  161.8780  205.5350  147.3510 C   0  0  0  0  0  3  0  0  0  0  0  0
  161.2150  204.8320  149.5870 C   0  0  0  0  0  0  0  0  0  0  0  0
  160.8140  202.2270  148.6360 C   0  0  0  0  0  3  0  0  0  0  0  0
  160.7830  203.8280  150.4600 C   0  0  0  0  0  3  0  0  0  0  0  0
  162.0540  209.4450  148.6380 O   0  0  0  0  0  0  0  0  0  0  0  0
  161.9500  210.6980  149.2580 C   0  0  0  0  0  2  0  0  0  0  0  0
  162.1700  211.7860  148.2600 C   0  0  0  0  0  0  0  0  0  0  0  0
  163.3430  212.0550  147.8890 O   0  0  0  0  0  0  0  0  0  0  0  0
  161.0740  212.4560  147.7110 O   0  0  0  0  0  0  0  0  0  0  0  0
  161.2180  213.6310  146.9210 C   0  0  0  0  0  2  0  0  0  0  0  0
  160.6420  213.4360  145.5140 C   0  0  1  0  0  3  0  0  0  0  0  0
  161.7130  213.1090  144.5240 C   0  0  0  0  0  0  0  0  0  0  0  0
  163.0500  213.3500  144.8240 O   0  0  0  0  0  1  0  0  0  0  0  0
  161.3940  212.5770  143.3750 C   0  0  0  0  0  0  0  0  0  0  0  0
  161.0980  212.0730  142.2820 O   0  0  0  0  0  0  0  0  0  0  0  0
  159.5390  212.3800  145.4770 C   0  0  0  0  0  2  0  0  0  0  0  0
  157.3520  212.2030  146.0110 O   0  0  0  0  0  1  0  0  0  0  0  0
  158.2320  213.0100  145.3720 N   0  0  0  0  0  2  0  0  0  0  0  0
  161.2090  208.8710  150.7410 N   0  0  0  0  0  2  0  0  0  0  0  0
  162.3470  209.8530  152.3620 O   0  0  0  0  0  1  0  0  0  0  0  0
  161.8500  208.6570  151.9680 N   0  0  0  0  0  0  0  0  0  0  0  0
  160.8140  208.3080  152.9250 C   0  0  0  0  0  2  0  0  0  0  0  0
  161.1250  206.9680  153.5800 C   0  0  0  0  0  2  0  0  0  0  0  0
  160.1120  208.1860  155.5020 C   0  0  0  0  0  1  0  0  0  0  0  0
  161.0400  207.0600  155.0930 C   0  0  0  0  0  2  0  0  0  0  0  0
  1 12  1  6  0  0  0
  1 26  1  0  0  0  0
  2  1  1  0  0  0  0
  2  5  1  0  0  0  0
  3  2  2  0  0  0  0
  4 11  2  0  0  0  0
  6  7  1  0  0  0  0
  6 10  2  0  0  0  0
  7  9  1  0  0  0  0
  8  3  1  0  0  0  0
  8  7  2  0  0  0  0
  9  5  2  0  0  0  0
  9 11  1  0  0  0  0
 10  4  1  0  0  0  0
 12 13  1  0  0  0  0
 14 13  1  0  0  0  0
 15 14  2  0  0  0  0
 16 14  1  0  0  0  0
 17 16  1  0  0  0  0
 18 23  1  1  0  0  0
 18 17  1  0  0  0  0
 19 20  1  0  0  0  0
 19 18  1  0  0  0  0
 21 19  2  0  0  0  0
 22 21  2  0  0  0  0
 25 23  1  0  0  0  0
 25 24  1  0  0  0  0
 26 28  1  0  0  0  0
 28 27  1  0  0  0  0
 28 29  1  0  0  0  0
 29 30  1  0  0  0  0
 30 32  1  0  0  0  0
 32 31  1  0  0  0  0
M  END
>  <MODEL>
8

>  <REMARK>
 VINA RESULT:      -6.9      3.898      6.792
  Name = 
  15 active torsions:
  status: ('A' for Active; 'I' for Inactive)
    1  A    between atoms: O_1  and  C_4
    2  A    between atoms: O_1  and  C_5
    3  A    between atoms: C_2  and  C_5
    4  A    between atoms: C_3  and  C_20
    5  A    between atoms: C_4  and  C_24
    6  A    between atoms: C_5  and  N_14
    7  A    between atoms: C_13  and  C_18
    8  A    between atoms: C_13  and  C_29
    9  A    between atoms: N_14  and  N_30
   10  A    between atoms: C_15  and  O_16
   11  A    between atoms: C_15  and  C_20
   12  A    between atoms: O_16  and  C_24
   13  A    between atoms: C_18  and  N_30
   14  A    between atoms: N_19  and  C_26
   15  A    between atoms: C_20  and  C_26
                            x       y       z     vdW  Elec       q    Type
                         _______ _______ _______ _____ _____    ______ ____

>  <TORSDO>
F 15

$$$$
=
 OpenBabel11062408333D

 32 33  0  0  1  0  0  0  0  0999 V2000
  161.3520  207.4430  150.2280 C   0  0  1  0  0  3  0  0  0  0  0  0
  161.1210  207.4070  151.7070 C   0  0  0  0  0  0  0  0  0  0  0  0
  161.3120  206.2050  152.4030 C   0  0  0  0  0  3  0  0  0  0  0  0
  160.2000  209.6720  155.8940 C   0  0  0  0  0  3  0  0  0  0  0  0
  160.8050  208.5790  152.4110 C   0  0  0  0  0  3  0  0  0  0  0  0
  160.7190  207.2990  155.8910 C   0  0  0  0  0  3  0  0  0  0  0  0
  160.8530  207.3300  154.4990 C   0  0  0  0  0  0  0  0  0  0  0  0
  161.1750  206.1650  153.7950 C   0  0  0  0  0  3  0  0  0  0  0  0
  160.6600  208.5450  153.7990 C   0  0  0  0  0  0  0  0  0  0  0  0
  160.3920  208.4690  156.5870 C   0  0  0  0  0  3  0  0  0  0  0  0
  160.3340  209.7100  154.5020 C   0  0  0  0  0  3  0  0  0  0  0  0
  162.3820  208.3430  149.9200 O   0  0  0  0  0  0  0  0  0  0  0  0
  161.9700  209.0030  148.7550 C   0  0  0  0  0  2  0  0  0  0  0  0
  161.9720  210.4800  148.9720 C   0  0  0  0  0  0  0  0  0  0  0  0
  162.0060  210.9310  150.1470 O   0  0  0  0  0  0  0  0  0  0  0  0
  161.9900  211.3420  147.8740 O   0  0  0  0  0  0  0  0  0  0  0  0
  162.6900  212.5810  147.8900 C   0  0  0  0  0  2  0  0  0  0  0  0
  161.8570  213.7050  147.2610 C   0  0  1  0  0  3  0  0  0  0  0  0
  161.5760  213.4370  145.8180 C   0  0  0  0  0  0  0  0  0  0  0  0
  160.2690  213.2630  145.3740 O   0  0  0  0  0  1  0  0  0  0  0  0
  162.5610  213.3810  144.9640 C   0  0  0  0  0  0  0  0  0  0  0  0
  163.4930  213.3260  144.1480 O   0  0  0  0  0  0  0  0  0  0  0  0
  160.5580  213.9620  148.0210 C   0  0  0  0  0  2  0  0  0  0  0  0
  159.7200  213.8970  150.1170 O   0  0  0  0  0  1  0  0  0  0  0  0
  160.8310  214.2410  149.4220 N   0  0  0  0  0  2  0  0  0  0  0  0
  161.7080  206.1110  149.7490 N   0  0  0  0  0  2  0  0  0  0  0  0
  160.4610  206.1040  147.9230 O   0  0  0  0  0  1  0  0  0  0  0  0
  160.5670  205.5550  149.1560 N   0  0  0  0  0  0  0  0  0  0  0  0
  160.8480  204.1440  148.9520 C   0  0  0  0  0  2  0  0  0  0  0  0
  160.8220  203.3990  150.2820 C   0  0  0  0  0  2  0  0  0  0  0  0
  160.6100  201.5670  148.6090 C   0  0  0  0  0  1  0  0  0  0  0  0
  160.8220  201.8960  150.0730 C   0  0  0  0  0  2  0  0  0  0  0  0
  1 26  1  1  0  0  0
  1  2  1  0  0  0  0
  2  3  2  0  0  0  0
  2  5  1  0  0  0  0
  3  8  1  0  0  0  0
  4 10  1  0  0  0  0
  5  9  2  0  0  0  0
  6 10  2  0  0  0  0
  7  6  1  0  0  0  0
  8  7  2  0  0  0  0
  9  7  1  0  0  0  0
  9 11  1  0  0  0  0
 11  4  2  0  0  0  0
 12  1  1  0  0  0  0
 13 14  1  0  0  0  0
 13 12  1  0  0  0  0
 14 15  2  0  0  0  0
 16 17  1  0  0  0  0
 16 14  1  0  0  0  0
 18 17  1  1  0  0  0
 18 23  1  0  0  0  0
 19 18  1  0  0  0  0
 20 19  1  0  0  0  0
 21 19  2  0  0  0  0
 22 21  2  0  0  0  0
 23 25  1  0  0  0  0
 25 24  1  0  0  0  0
 27 28  1  0  0  0  0
 28 26  1  0  0  0  0
 29 28  1  0  0  0  0
 29 30  1  0  0  0  0
 31 32  1  0  0  0  0
 32 30  1  0  0  0  0
M  END
>  <MODEL>
9

>  <REMARK>
 VINA RESULT:      -6.9      3.340      6.878
  Name = 
  15 active torsions:
  status: ('A' for Active; 'I' for Inactive)
    1  A    between atoms: O_1  and  C_4
    2  A    between atoms: O_1  and  C_5
    3  A    between atoms: C_2  and  C_5
    4  A    between atoms: C_3  and  C_20
    5  A    between atoms: C_4  and  C_24
    6  A    between atoms: C_5  and  N_14
    7  A    between atoms: C_13  and  C_18
    8  A    between atoms: C_13  and  C_29
    9  A    between atoms: N_14  and  N_30
   10  A    between atoms: C_15  and  O_16
   11  A    between atoms: C_15  and  C_20
   12  A    between atoms: O_16  and  C_24
   13  A    between atoms: C_18  and  N_30
   14  A    between atoms: N_19  and  C_26
   15  A    between atoms: C_20  and  C_26
                            x       y       z     vdW  Elec       q    Type
                         _______ _______ _______ _____ _____    ______ ____

>  <TORSDO>
F 15

$$$$
