=
 OpenBabel11052422113D

 25 28  0  0  1  0  0  0  0  0999 V2000
  161.4260  205.0610  148.7660 C   0  0  0  0  0  0  0  0  0  0  0  0
  161.3580  206.0080  149.8070 C   0  0  0  0  0  0  0  0  0  0  0  0
  162.1800  206.7890  147.2370 C   0  0  0  0  0  3  0  0  0  0  0  0
  161.1110  203.6880  148.7910 C   0  0  0  0  0  0  0  0  0  0  0  0
  160.5840  200.9620  148.4460 C   0  0  0  0  0  3  0  0  0  0  0  0
  162.1400  207.6870  148.2590 N   0  0  0  0  0  0  0  0  0  0  0  0
  161.2790  203.0740  147.5500 C   0  0  0  0  0  0  0  0  0  0  0  0
  161.0230  201.7200  147.3510 C   0  0  0  0  0  3  0  0  0  0  0  0
  161.8460  208.3350  150.6160 C   0  0  0  0  0  0  0  0  0  0  0  0
  161.8440  209.7900  150.2950 C   0  0  0  0  0  1  0  0  0  0  0  0
  160.7250  205.6040  151.4470 S   0  0  0  0  0  0  0  0  0  0  0  0
  160.4120  201.5630  149.7050 C   0  0  0  0  0  3  0  0  0  0  0  0
  161.8330  205.4710  147.4970 C   0  0  0  0  0  0  0  0  0  0  0  0
  161.8130  204.1870  146.4050 S   0  0  0  0  0  0  0  0  0  0  0  0
  161.9510  207.9680  151.8590 N   0  0  0  0  0  0  0  0  0  0  0  0
  160.6750  202.9300  149.8830 C   0  0  0  0  0  3  0  0  0  0  0  0
  162.0340  206.5670  152.2680 C   0  0  1  0  0  3  0  0  0  0  0  0
  161.7570  207.3380  149.5250 C   0  0  0  0  0  0  0  0  0  0  0  0
  161.9230  206.4490  153.7820 C   0  0  0  0  0  2  0  0  0  0  0  0
  160.6840  206.9180  154.2260 O   0  0  0  0  0  0  0  0  0  0  0  0
  160.9780  207.6520  155.3760 C   0  0  0  0  0  2  0  0  0  0  0  0
  160.5590  209.1160  155.1970 C   0  0  0  0  0  2  0  0  0  0  0  0
  161.6000  209.9810  154.6230 N   0  0  0  0  0  0  0  0  0  0  0  0
  160.9930  210.9960  153.7740 C   0  0  0  0  0  1  0  0  0  0  0  0
  162.3460  210.6530  155.6790 C   0  0  0  0  0  1  0  0  0  0  0  0
  1  4  1  0  0  0  0
  1  2  2  0  0  0  0
  2 11  1  0  0  0  0
  3 13  2  0  0  0  0
  3  6  1  0  0  0  0
  4 16  1  0  0  0  0
  5 12  1  0  0  0  0
  6 18  2  0  0  0  0
  7  4  2  0  0  0  0
  8  7  1  0  0  0  0
  8  5  2  0  0  0  0
  9 15  2  0  0  0  0
 10  9  1  0  0  0  0
 11 17  1  0  0  0  0
 12 16  2  0  0  0  0
 13  1  1  0  0  0  0
 14 13  1  0  0  0  0
 14  7  1  0  0  0  0
 15 17  1  0  0  0  0
 17 19  1  1  0  0  0
 18  2  1  0  0  0  0
 18  9  1  0  0  0  0
 19 20  1  0  0  0  0
 20 21  1  0  0  0  0
 22 21  1  0  0  0  0
 23 22  1  0  0  0  0
 23 25  1  0  0  0  0
 24 23  1  0  0  0  0
M  END
>  <MODEL>
1

>  <REMARK>
 VINA RESULT:      -8.1      0.000      0.000
  Name = 
  5 active torsions:
  status: ('A' for Active; 'I' for Inactive)
    1  A    between atoms: N_2  and  C_21
    2  A    between atoms: C_6  and  O_15
    3  A    between atoms: C_6  and  C_23
    4  A    between atoms: O_15  and  C_25
    5  A    between atoms: C_21  and  C_25
                            x       y       z     vdW  Elec       q    Type
                         _______ _______ _______ _____ _____    ______ ____

>  <TORSDO>
F 5

$$$$
=
 OpenBabel11052422113D

 25 28  0  0  1  0  0  0  0  0999 V2000
  161.4250  204.7910  149.3650 C   0  0  0  0  0  0  0  0  0  0  0  0
  161.6540  205.8230  150.2970 C   0  0  0  0  0  0  0  0  0  0  0  0
  160.6470  203.3430  151.1500 C   0  0  0  0  0  3  0  0  0  0  0  0
  161.6500  204.7840  147.9740 C   0  0  0  0  0  0  0  0  0  0  0  0
  161.9610  204.3870  145.2220 C   0  0  0  0  0  3  0  0  0  0  0  0
  160.8420  204.3580  152.0360 N   0  0  0  0  0  0  0  0  0  0  0  0
  161.3260  203.5640  147.3820 C   0  0  0  0  0  0  0  0  0  0  0  0
  161.4730  203.3400  146.0160 C   0  0  0  0  0  3  0  0  0  0  0  0
  161.3990  206.6770  152.6460 C   0  0  0  0  0  0  0  0  0  0  0  0
  161.4670  206.3600  154.0990 C   0  0  0  0  0  1  0  0  0  0  0  0
  162.4100  207.3950  149.8400 S   0  0  0  0  0  0  0  0  0  0  0  0
  162.2910  205.6260  145.8010 C   0  0  0  0  0  3  0  0  0  0  0  0
  160.9300  203.5680  149.8110 C   0  0  0  0  0  0  0  0  0  0  0  0
  160.7620  202.4760  148.5360 S   0  0  0  0  0  0  0  0  0  0  0  0
  161.3880  207.9240  152.2760 N   0  0  0  0  0  0  0  0  0  0  0  0
  162.1360  205.8300  147.1810 C   0  0  0  0  0  3  0  0  0  0  0  0
  161.2510  208.3370  150.8800 C   0  0  1  0  0  3  0  0  0  0  0  0
  161.3190  205.5820  151.6520 C   0  0  0  0  0  0  0  0  0  0  0  0
  161.4960  209.8340  150.7440 C   0  0  0  0  0  2  0  0  0  0  0  0
  162.0620  210.1320  149.5020 O   0  0  0  0  0  0  0  0  0  0  0  0
  161.9400  211.5170  149.3840 C   0  0  0  0  0  2  0  0  0  0  0  0
  162.5340  211.9950  148.0540 C   0  0  0  0  0  2  0  0  0  0  0  0
  161.6710  212.9120  147.2950 N   0  0  0  0  0  0  0  0  0  0  0  0
  162.3510  213.3490  146.0850 C   0  0  0  0  0  1  0  0  0  0  0  0
  160.4330  212.2470  146.9110 C   0  0  0  0  0  1  0  0  0  0  0  0
  1 13  1  0  0  0  0
  1  2  2  0  0  0  0
  2 18  1  0  0  0  0
  3  6  1  0  0  0  0
  4  1  1  0  0  0  0
  5 12  2  0  0  0  0
  5  8  1  0  0  0  0
  7  4  1  0  0  0  0
  7 14  1  0  0  0  0
  8  7  2  0  0  0  0
  9 10  1  0  0  0  0
 11  2  1  0  0  0  0
 11 17  1  0  0  0  0
 12 16  1  0  0  0  0
 13  3  2  0  0  0  0
 14 13  1  0  0  0  0
 15  9  2  0  0  0  0
 16  4  2  0  0  0  0
 17 19  1  1  0  0  0
 17 15  1  0  0  0  0
 18  6  2  0  0  0  0
 18  9  1  0  0  0  0
 20 19  1  0  0  0  0
 21 20  1  0  0  0  0
 22 21  1  0  0  0  0
 23 22  1  0  0  0  0
 24 23  1  0  0  0  0
 25 23  1  0  0  0  0
M  END
>  <MODEL>
2

>  <REMARK>
 VINA RESULT:      -7.7      2.676      4.892
  Name = 
  5 active torsions:
  status: ('A' for Active; 'I' for Inactive)
    1  A    between atoms: N_2  and  C_21
    2  A    between atoms: C_6  and  O_15
    3  A    between atoms: C_6  and  C_23
    4  A    between atoms: O_15  and  C_25
    5  A    between atoms: C_21  and  C_25
                            x       y       z     vdW  Elec       q    Type
                         _______ _______ _______ _____ _____    ______ ____

>  <TORSDO>
F 5

$$$$
=
 OpenBabel11052422113D

 25 28  0  0  1  0  0  0  0  0999 V2000
  161.3990  204.8130  149.5270 C   0  0  0  0  0  0  0  0  0  0  0  0
  161.5830  205.8130  150.5020 C   0  0  0  0  0  0  0  0  0  0  0  0
  160.6710  203.2620  151.2460 C   0  0  0  0  0  3  0  0  0  0  0  0
  161.6290  204.8730  148.1380 C   0  0  0  0  0  0  0  0  0  0  0  0
  161.9680  204.6030  145.3740 C   0  0  0  0  0  3  0  0  0  0  0  0
  160.8230  204.2460  152.1740 N   0  0  0  0  0  0  0  0  0  0  0  0
  161.3560  203.6670  147.4940 C   0  0  0  0  0  0  0  0  0  0  0  0
  161.5170  203.5050  146.1200 C   0  0  0  0  0  3  0  0  0  0  0  0
  161.2850  206.5580  152.8830 C   0  0  0  0  0  0  0  0  0  0  0  0
  161.3590  206.1830  154.3220 C   0  0  0  0  0  1  0  0  0  0  0  0
  162.2780  207.4320  150.1150 S   0  0  0  0  0  0  0  0  0  0  0  0
  162.2450  205.8290  146.0060 C   0  0  0  0  0  3  0  0  0  0  0  0
  160.9500  203.5530  149.9190 C   0  0  0  0  0  0  0  0  0  0  0  0
  160.8310  202.5100  148.5990 S   0  0  0  0  0  0  0  0  0  0  0  0
  161.2260  207.8180  152.5650 N   0  0  0  0  0  0  0  0  0  0  0  0
  162.0770  205.9690  147.3920 C   0  0  0  0  0  3  0  0  0  0  0  0
  161.0790  208.2830  151.1870 C   0  0  1  0  0  3  0  0  0  0  0  0
  161.2520  205.5030  151.8450 C   0  0  0  0  0  0  0  0  0  0  0  0
  161.2650  209.7930  151.1140 C   0  0  0  0  0  2  0  0  0  0  0  0
  161.6360  210.3060  152.3600 O   0  0  0  0  0  0  0  0  0  0  0  0
  160.6000  211.1760  152.7030 C   0  0  0  0  0  2  0  0  0  0  0  0
  160.5320  211.3530  154.2240 C   0  0  0  0  0  2  0  0  0  0  0  0
  161.0730  210.2220  154.9930 N   0  0  0  0  0  0  0  0  0  0  0  0
  162.0150  210.7050  155.9930 C   0  0  0  0  0  1  0  0  0  0  0  0
  160.0020  209.5100  155.6780 C   0  0  0  0  0  1  0  0  0  0  0  0
  1 13  1  0  0  0  0
  1  2  2  0  0  0  0
  2 18  1  0  0  0  0
  3  6  1  0  0  0  0
  4  1  1  0  0  0  0
  5 12  2  0  0  0  0
  5  8  1  0  0  0  0
  7  4  1  0  0  0  0
  7 14  1  0  0  0  0
  8  7  2  0  0  0  0
  9 10  1  0  0  0  0
 11  2  1  0  0  0  0
 11 17  1  0  0  0  0
 12 16  1  0  0  0  0
 13  3  2  0  0  0  0
 14 13  1  0  0  0  0
 15  9  2  0  0  0  0
 16  4  2  0  0  0  0
 17 19  1  1  0  0  0
 17 15  1  0  0  0  0
 18  6  2  0  0  0  0
 18  9  1  0  0  0  0
 19 20  1  0  0  0  0
 20 21  1  0  0  0  0
 21 22  1  0  0  0  0
 22 23  1  0  0  0  0
 23 25  1  0  0  0  0
 23 24  1  0  0  0  0
M  END
>  <MODEL>
3

>  <REMARK>
 VINA RESULT:      -7.6      1.853      3.457
  Name = 
  5 active torsions:
  status: ('A' for Active; 'I' for Inactive)
    1  A    between atoms: N_2  and  C_21
    2  A    between atoms: C_6  and  O_15
    3  A    between atoms: C_6  and  C_23
    4  A    between atoms: O_15  and  C_25
    5  A    between atoms: C_21  and  C_25
                            x       y       z     vdW  Elec       q    Type
                         _______ _______ _______ _____ _____    ______ ____

>  <TORSDO>
F 5

$$$$
=
 OpenBabel11052422113D

 25 28  0  0  1  0  0  0  0  0999 V2000
  161.4550  207.6510  151.4030 C   0  0  0  0  0  0  0  0  0  0  0  0
  161.6450  206.5430  150.5530 C   0  0  0  0  0  0  0  0  0  0  0  0
  161.7380  209.1520  149.5170 C   0  0  0  0  0  3  0  0  0  0  0  0
  161.2280  207.6760  152.7930 C   0  0  0  0  0  0  0  0  0  0  0  0
  160.7720  208.1310  155.5160 C   0  0  0  0  0  3  0  0  0  0  0  0
  161.8880  208.0730  148.7020 N   0  0  0  0  0  0  0  0  0  0  0  0
  161.1150  208.9710  153.2970 C   0  0  0  0  0  0  0  0  0  0  0  0
  160.8890  209.2250  154.6470 C   0  0  0  0  0  3  0  0  0  0  0  0
  161.8900  205.6600  148.2140 C   0  0  0  0  0  0  0  0  0  0  0  0
  162.4970  205.8540  146.8680 C   0  0  0  0  0  1  0  0  0  0  0  0
  161.7170  204.8490  151.1670 S   0  0  0  0  0  0  0  0  0  0  0  0
  160.8810  206.8170  155.0250 C   0  0  0  0  0  3  0  0  0  0  0  0
  161.5100  208.9370  150.8680 C   0  0  0  0  0  0  0  0  0  0  0  0
  161.2880  210.1040  152.0640 S   0  0  0  0  0  0  0  0  0  0  0  0
  161.3930  204.4960  148.5160 N   0  0  0  0  0  0  0  0  0  0  0  0
  161.1090  206.5840  153.6600 C   0  0  0  0  0  3  0  0  0  0  0  0
  160.7140  204.2270  149.7810 C   0  0  1  0  0  3  0  0  0  0  0  0
  161.8350  206.7890  149.1700 C   0  0  0  0  0  0  0  0  0  0  0  0
  160.4470  202.7360  149.9330 C   0  0  0  0  0  2  0  0  0  0  0  0
  160.0670  202.1740  148.7120 O   0  0  0  0  0  0  0  0  0  0  0  0
  160.9270  201.0880  148.5420 C   0  0  0  0  0  2  0  0  0  0  0  0
  161.2740  200.9070  147.0600 C   0  0  0  0  0  2  0  0  0  0  0  0
  160.4310  201.6810  146.1380 N   0  0  0  0  0  0  0  0  0  0  0  0
  161.1810  202.8070  145.6030 C   0  0  0  0  0  1  0  0  0  0  0  0
  159.9940  200.8490  145.0250 C   0  0  0  0  0  1  0  0  0  0  0  0
  1  4  1  0  0  0  0
  2 11  1  0  0  0  0
  2  1  1  0  0  0  0
  3 13  1  0  0  0  0
  4  7  2  0  0  0  0
  4 16  1  0  0  0  0
  6 18  1  0  0  0  0
  6  3  2  0  0  0  0
  7  8  1  0  0  0  0
  8  5  2  0  0  0  0
  9 15  2  0  0  0  0
  9 18  1  0  0  0  0
 10  9  1  0  0  0  0
 12  5  1  0  0  0  0
 13  1  2  0  0  0  0
 13 14  1  0  0  0  0
 14  7  1  0  0  0  0
 15 17  1  0  0  0  0
 16 12  2  0  0  0  0
 17 19  1  1  0  0  0
 17 11  1  0  0  0  0
 18  2  2  0  0  0  0
 20 19  1  0  0  0  0
 21 20  1  0  0  0  0
 22 21  1  0  0  0  0
 23 22  1  0  0  0  0
 24 23  1  0  0  0  0
 25 23  1  0  0  0  0
M  END
>  <MODEL>
4

>  <REMARK>
 VINA RESULT:      -7.5      2.515      7.457
  Name = 
  5 active torsions:
  status: ('A' for Active; 'I' for Inactive)
    1  A    between atoms: N_2  and  C_21
    2  A    between atoms: C_6  and  O_15
    3  A    between atoms: C_6  and  C_23
    4  A    between atoms: O_15  and  C_25
    5  A    between atoms: C_21  and  C_25
                            x       y       z     vdW  Elec       q    Type
                         _______ _______ _______ _____ _____    ______ ____

>  <TORSDO>
F 5

$$$$
=
 OpenBabel11052422113D

 25 28  0  0  1  0  0  0  0  0999 V2000
  161.2850  205.4750  150.4440 C   0  0  0  0  0  0  0  0  0  0  0  0
  161.4390  206.5100  151.3880 C   0  0  0  0  0  0  0  0  0  0  0  0
  160.7760  203.9130  152.2310 C   0  0  0  0  0  3  0  0  0  0  0  0
  161.4360  205.5200  149.0440 C   0  0  0  0  0  0  0  0  0  0  0  0
  161.6500  205.2120  146.2710 C   0  0  0  0  0  3  0  0  0  0  0  0
  160.8960  204.9280  153.1290 N   0  0  0  0  0  0  0  0  0  0  0  0
  161.2280  204.2810  148.4390 C   0  0  0  0  0  0  0  0  0  0  0  0
  161.3300  204.1000  147.0630 C   0  0  0  0  0  3  0  0  0  0  0  0
  161.2070  207.2850  153.7660 C   0  0  0  0  0  0  0  0  0  0  0  0
  161.3860  206.9530  155.2070 C   0  0  0  0  0  1  0  0  0  0  0  0
  161.9790  208.1690  150.9320 S   0  0  0  0  0  0  0  0  0  0  0  0
  161.8600  206.4710  146.8630 C   0  0  0  0  0  3  0  0  0  0  0  0
  160.9610  204.1930  150.8840 C   0  0  0  0  0  0  0  0  0  0  0  0
  160.8570  203.1130  149.5940 S   0  0  0  0  0  0  0  0  0  0  0  0
  161.0290  208.5290  153.4270 N   0  0  0  0  0  0  0  0  0  0  0  0
  161.7540  206.6300  148.2530 C   0  0  0  0  0  3  0  0  0  0  0  0
  160.7730  208.9470  152.0510 C   0  0  1  0  0  3  0  0  0  0  0  0
  161.2040  206.2060  152.7520 C   0  0  0  0  0  0  0  0  0  0  0  0
  160.8320  210.4650  151.9380 C   0  0  0  0  0  2  0  0  0  0  0  0
  159.6400  211.0410  152.3850 O   0  0  0  0  0  0  0  0  0  0  0  0
  160.0400  212.1910  153.0670 C   0  0  0  0  0  2  0  0  0  0  0  0
  159.3900  212.2440  154.4540 C   0  0  0  0  0  2  0  0  0  0  0  0
  158.8840  210.9510  154.9380 N   0  0  0  0  0  0  0  0  0  0  0  0
  159.6920  210.4880  156.0570 C   0  0  0  0  0  1  0  0  0  0  0  0
  157.5050  211.0790  155.3890 C   0  0  0  0  0  1  0  0  0  0  0  0
  1 13  1  0  0  0  0
  1  2  2  0  0  0  0
  2 18  1  0  0  0  0
  3  6  1  0  0  0  0
  4  1  1  0  0  0  0
  5 12  2  0  0  0  0
  5  8  1  0  0  0  0
  7  4  1  0  0  0  0
  7 14  1  0  0  0  0
  8  7  2  0  0  0  0
  9 10  1  0  0  0  0
 11  2  1  0  0  0  0
 11 17  1  0  0  0  0
 12 16  1  0  0  0  0
 13  3  2  0  0  0  0
 14 13  1  0  0  0  0
 15  9  2  0  0  0  0
 16  4  2  0  0  0  0
 17 19  1  1  0  0  0
 17 15  1  0  0  0  0
 18  6  2  0  0  0  0
 18  9  1  0  0  0  0
 19 20  1  0  0  0  0
 20 21  1  0  0  0  0
 21 22  1  0  0  0  0
 22 23  1  0  0  0  0
 23 25  1  0  0  0  0
 23 24  1  0  0  0  0
M  END
>  <MODEL>
5

>  <REMARK>
 VINA RESULT:      -7.4      2.346      3.911
  Name = 
  5 active torsions:
  status: ('A' for Active; 'I' for Inactive)
    1  A    between atoms: N_2  and  C_21
    2  A    between atoms: C_6  and  O_15
    3  A    between atoms: C_6  and  C_23
    4  A    between atoms: O_15  and  C_25
    5  A    between atoms: C_21  and  C_25
                            x       y       z     vdW  Elec       q    Type
                         _______ _______ _______ _____ _____    ______ ____

>  <TORSDO>
F 5

$$$$
=
 OpenBabel11052422113D

 25 28  0  0  1  0  0  0  0  0999 V2000
  161.4120  204.8970  149.6920 C   0  0  0  0  0  0  0  0  0  0  0  0
  161.6020  205.9180  150.6450 C   0  0  0  0  0  0  0  0  0  0  0  0
  160.6710  203.3910  151.4440 C   0  0  0  0  0  3  0  0  0  0  0  0
  161.6460  204.9250  148.3030 C   0  0  0  0  0  0  0  0  0  0  0  0
  161.9870  204.5910  145.5460 C   0  0  0  0  0  3  0  0  0  0  0  0
  160.8270  204.3940  152.3500 N   0  0  0  0  0  0  0  0  0  0  0  0
  161.3650  203.7060  147.6850 C   0  0  0  0  0  0  0  0  0  0  0  0
  161.5280  203.5130  146.3160 C   0  0  0  0  0  3  0  0  0  0  0  0
  161.3040  206.7180  153.0080 C   0  0  0  0  0  0  0  0  0  0  0  0
  161.3730  206.3750  154.4550 C   0  0  0  0  0  1  0  0  0  0  0  0
  162.3090  207.5230  150.2230 S   0  0  0  0  0  0  0  0  0  0  0  0
  162.2720  205.8280  146.1510 C   0  0  0  0  0  3  0  0  0  0  0  0
  160.9540  203.6500  150.1110 C   0  0  0  0  0  0  0  0  0  0  0  0
  160.8300  202.5790  148.8150 S   0  0  0  0  0  0  0  0  0  0  0  0
  161.2540  207.9710  152.6620 N   0  0  0  0  0  0  0  0  0  0  0  0
  162.1020  206.0010  147.5330 C   0  0  0  0  0  3  0  0  0  0  0  0
  161.1130  208.4060  151.2730 C   0  0  1  0  0  3  0  0  0  0  0  0
  161.2660  205.6400  151.9930 C   0  0  0  0  0  0  0  0  0  0  0  0
  161.3090  209.9120  151.1670 C   0  0  0  0  0  2  0  0  0  0  0  0
  161.4540  210.4830  152.4340 O   0  0  0  0  0  0  0  0  0  0  0  0
  160.4550  211.4550  152.4980 C   0  0  0  0  0  2  0  0  0  0  0  0
  159.3160  210.9920  153.4140 C   0  0  0  0  0  2  0  0  0  0  0  0
  158.1810  211.9230  153.4930 N   0  0  0  0  0  0  0  0  0  0  0  0
  157.3330  211.5780  154.6250 C   0  0  0  0  0  1  0  0  0  0  0  0
  158.6530  213.2890  153.6720 C   0  0  0  0  0  1  0  0  0  0  0  0
  1 13  1  0  0  0  0
  1  2  2  0  0  0  0
  2 18  1  0  0  0  0
  3  6  1  0  0  0  0
  4  1  1  0  0  0  0
  5 12  2  0  0  0  0
  5  8  1  0  0  0  0
  7  4  1  0  0  0  0
  7 14  1  0  0  0  0
  8  7  2  0  0  0  0
  9 10  1  0  0  0  0
 11  2  1  0  0  0  0
 11 17  1  0  0  0  0
 12 16  1  0  0  0  0
 13  3  2  0  0  0  0
 14 13  1  0  0  0  0
 15  9  2  0  0  0  0
 16  4  2  0  0  0  0
 17 19  1  1  0  0  0
 17 15  1  0  0  0  0
 18  6  2  0  0  0  0
 18  9  1  0  0  0  0
 19 20  1  0  0  0  0
 20 21  1  0  0  0  0
 21 22  1  0  0  0  0
 22 23  1  0  0  0  0
 23 25  1  0  0  0  0
 23 24  1  0  0  0  0
M  END
>  <MODEL>
6

>  <REMARK>
 VINA RESULT:      -7.3      2.188      3.733
  Name = 
  5 active torsions:
  status: ('A' for Active; 'I' for Inactive)
    1  A    between atoms: N_2  and  C_21
    2  A    between atoms: C_6  and  O_15
    3  A    between atoms: C_6  and  C_23
    4  A    between atoms: O_15  and  C_25
    5  A    between atoms: C_21  and  C_25
                            x       y       z     vdW  Elec       q    Type
                         _______ _______ _______ _____ _____    ______ ____

>  <TORSDO>
F 5

$$$$
=
 OpenBabel11052422113D

 25 28  0  0  1  0  0  0  0  0999 V2000
  161.1940  208.6520  152.9820 C   0  0  0  0  0  0  0  0  0  0  0  0
  161.4930  207.7550  151.9370 C   0  0  0  0  0  0  0  0  0  0  0  0
  161.5850  210.5280  151.4920 C   0  0  0  0  0  3  0  0  0  0  0  0
  160.8470  208.3750  154.3200 C   0  0  0  0  0  0  0  0  0  0  0  0
  160.1440  208.2270  157.0240 C   0  0  0  0  0  3  0  0  0  0  0  0
  161.8410  209.6520  150.4840 N   0  0  0  0  0  0  0  0  0  0  0  0
  160.6460  209.5290  155.0750 C   0  0  0  0  0  0  0  0  0  0  0  0
  160.2970  209.4840  156.4220 C   0  0  0  0  0  3  0  0  0  0  0  0
  161.9680  207.4000  149.4970 C   0  0  0  0  0  0  0  0  0  0  0  0
  162.6810  207.8880  148.2840 C   0  0  0  0  0  1  0  0  0  0  0  0
  161.5710  205.9700  152.1810 S   0  0  0  0  0  0  0  0  0  0  0  0
  160.3400  207.0510  156.2770 C   0  0  0  0  0  3  0  0  0  0  0  0
  161.2500  210.0230  152.7410 C   0  0  0  0  0  0  0  0  0  0  0  0
  160.8850  210.9030  154.1320 S   0  0  0  0  0  0  0  0  0  0  0  0
  161.4880  206.1910  149.4970 N   0  0  0  0  0  0  0  0  0  0  0  0
  160.6920  207.1200  154.9200 C   0  0  0  0  0  3  0  0  0  0  0  0
  160.7120  205.6460  150.6100 C   0  0  1  0  0  3  0  0  0  0  0  0
  161.7920  208.2960  150.6620 C   0  0  0  0  0  0  0  0  0  0  0  0
  160.4850  204.1520  150.4160 C   0  0  0  0  0  2  0  0  0  0  0  0
  161.4680  203.6060  149.5870 O   0  0  0  0  0  0  0  0  0  0  0  0
  160.7560  202.8640  148.6420 C   0  0  0  0  0  2  0  0  0  0  0  0
  161.5230  202.8130  147.3150 C   0  0  0  0  0  2  0  0  0  0  0  0
  161.4760  204.0600  146.5370 N   0  0  0  0  0  0  0  0  0  0  0  0
  162.8030  204.6550  146.4700 C   0  0  0  0  0  1  0  0  0  0  0  0
  161.0220  203.7960  145.1780 C   0  0  0  0  0  1  0  0  0  0  0  0
  1  4  1  0  0  0  0
  2 11  1  0  0  0  0
  2  1  1  0  0  0  0
  3 13  1  0  0  0  0
  4 16  2  0  0  0  0
  4  7  1  0  0  0  0
  6 18  1  0  0  0  0
  6  3  2  0  0  0  0
  7  8  2  0  0  0  0
  8  5  1  0  0  0  0
  9 15  2  0  0  0  0
  9 18  1  0  0  0  0
 10  9  1  0  0  0  0
 12  5  2  0  0  0  0
 13  1  2  0  0  0  0
 13 14  1  0  0  0  0
 14  7  1  0  0  0  0
 15 17  1  0  0  0  0
 16 12  1  0  0  0  0
 17 19  1  6  0  0  0
 17 11  1  0  0  0  0
 18  2  2  0  0  0  0
 20 19  1  0  0  0  0
 21 20  1  0  0  0  0
 22 21  1  0  0  0  0
 23 22  1  0  0  0  0
 24 23  1  0  0  0  0
 25 23  1  0  0  0  0
M  END
>  <MODEL>
7

>  <REMARK>
 VINA RESULT:      -7.3      2.308      7.426
  Name = 
  5 active torsions:
  status: ('A' for Active; 'I' for Inactive)
    1  A    between atoms: N_2  and  C_21
    2  A    between atoms: C_6  and  O_15
    3  A    between atoms: C_6  and  C_23
    4  A    between atoms: O_15  and  C_25
    5  A    between atoms: C_21  and  C_25
                            x       y       z     vdW  Elec       q    Type
                         _______ _______ _______ _____ _____    ______ ____

>  <TORSDO>
F 5

$$$$
=
 OpenBabel11052422113D

 25 28  0  0  1  0  0  0  0  0999 V2000
  161.4080  204.9650  148.4800 C   0  0  0  0  0  0  0  0  0  0  0  0
  161.3500  206.1850  149.1840 C   0  0  0  0  0  0  0  0  0  0  0  0
  162.1380  206.1440  146.4880 C   0  0  0  0  0  3  0  0  0  0  0  0
  161.0960  203.6650  148.9260 C   0  0  0  0  0  0  0  0  0  0  0  0
  160.5710  200.9650  149.4350 C   0  0  0  0  0  3  0  0  0  0  0  0
  162.1090  207.3110  147.1880 N   0  0  0  0  0  0  0  0  0  0  0  0
  161.2500  202.7020  147.9290 C   0  0  0  0  0  0  0  0  0  0  0  0
  160.9940  201.3530  148.1560 C   0  0  0  0  0  3  0  0  0  0  0  0
  161.8430  208.6470  149.2390 C   0  0  0  0  0  0  0  0  0  0  0  0
  161.8340  209.9340  148.4900 C   0  0  0  0  0  1  0  0  0  0  0  0
  160.7400  206.3000  150.8770 S   0  0  0  0  0  0  0  0  0  0  0  0
  160.4130  201.9220  150.4540 C   0  0  0  0  0  3  0  0  0  0  0  0
  161.7970  204.9690  147.1420 C   0  0  0  0  0  0  0  0  0  0  0  0
  161.7660  203.4130  146.4930 S   0  0  0  0  0  0  0  0  0  0  0  0
  161.9650  208.6750  150.5340 N   0  0  0  0  0  0  0  0  0  0  0  0
  160.6760  203.2770  150.2030 C   0  0  0  0  0  3  0  0  0  0  0  0
  162.0560  207.4650  151.3490 C   0  0  1  0  0  3  0  0  0  0  0  0
  161.7430  207.3640  148.5060 C   0  0  0  0  0  0  0  0  0  0  0  0
  161.9650  207.8150  152.8280 C   0  0  0  0  0  2  0  0  0  0  0  0
  161.9000  209.1990  153.0070 O   0  0  0  0  0  0  0  0  0  0  0  0
  160.7600  209.3990  153.7870 C   0  0  0  0  0  2  0  0  0  0  0  0
  160.3590  210.8780  153.7780 C   0  0  0  0  0  2  0  0  0  0  0  0
  159.0530  211.1510  153.1590 N   0  0  0  0  0  0  0  0  0  0  0  0
  158.0860  211.5230  154.1810 C   0  0  0  0  0  1  0  0  0  0  0  0
  159.1590  212.2470  152.2050 C   0  0  0  0  0  1  0  0  0  0  0  0
  1  4  1  0  0  0  0
  1  2  2  0  0  0  0
  2 11  1  0  0  0  0
  3 13  2  0  0  0  0
  3  6  1  0  0  0  0
  4 16  1  0  0  0  0
  5 12  1  0  0  0  0
  6 18  2  0  0  0  0
  7  8  1  0  0  0  0
  7  4  2  0  0  0  0
  8  5  2  0  0  0  0
  9 15  2  0  0  0  0
 10  9  1  0  0  0  0
 11 17  1  0  0  0  0
 13  1  1  0  0  0  0
 14 13  1  0  0  0  0
 14  7  1  0  0  0  0
 15 17  1  0  0  0  0
 16 12  2  0  0  0  0
 17 19  1  1  0  0  0
 18  2  1  0  0  0  0
 18  9  1  0  0  0  0
 19 20  1  0  0  0  0
 20 21  1  0  0  0  0
 22 21  1  0  0  0  0
 23 22  1  0  0  0  0
 23 24  1  0  0  0  0
 25 23  1  0  0  0  0
M  END
>  <MODEL>
8

>  <REMARK>
 VINA RESULT:      -7.2      1.486      1.824
  Name = 
  5 active torsions:
  status: ('A' for Active; 'I' for Inactive)
    1  A    between atoms: N_2  and  C_21
    2  A    between atoms: C_6  and  O_15
    3  A    between atoms: C_6  and  C_23
    4  A    between atoms: O_15  and  C_25
    5  A    between atoms: C_21  and  C_25
                            x       y       z     vdW  Elec       q    Type
                         _______ _______ _______ _____ _____    ______ ____

>  <TORSDO>
F 5

$$$$
=
 OpenBabel11052422113D

 25 28  0  0  1  0  0  0  0  0999 V2000
  161.4820  205.6620  150.6130 C   0  0  0  0  0  0  0  0  0  0  0  0
  161.8860  207.0110  150.5490 C   0  0  0  0  0  0  0  0  0  0  0  0
  161.1140  205.8800  153.0020 C   0  0  0  0  0  3  0  0  0  0  0  0
  161.4120  204.7050  149.5810 C   0  0  0  0  0  0  0  0  0  0  0  0
  161.1480  202.5470  147.8200 C   0  0  0  0  0  3  0  0  0  0  0  0
  161.4750  207.1890  152.9210 N   0  0  0  0  0  0  0  0  0  0  0  0
  160.9890  203.4550  150.0320 C   0  0  0  0  0  0  0  0  0  0  0  0
  160.8510  202.3650  149.1780 C   0  0  0  0  0  3  0  0  0  0  0  0
  162.1140  209.2310  151.7020 C   0  0  0  0  0  0  0  0  0  0  0  0
  162.4880  209.9520  152.9500 C   0  0  0  0  0  1  0  0  0  0  0  0
  162.5070  207.7680  149.0340 S   0  0  0  0  0  0  0  0  0  0  0  0
  161.5730  203.8010  147.3450 C   0  0  0  0  0  3  0  0  0  0  0  0
  161.1080  205.1200  151.8410 C   0  0  0  0  0  0  0  0  0  0  0  0
  160.6940  203.4930  151.6900 S   0  0  0  0  0  0  0  0  0  0  0  0
  162.0070  209.9060  150.5960 N   0  0  0  0  0  0  0  0  0  0  0  0
  161.7070  204.8870  148.2250 C   0  0  0  0  0  3  0  0  0  0  0  0
  161.5770  209.3030  149.3360 C   0  0  1  0  0  3  0  0  0  0  0  0
  161.8440  207.7750  151.7410 C   0  0  0  0  0  0  0  0  0  0  0  0
  161.7660  210.2840  148.1860 C   0  0  0  0  0  2  0  0  0  0  0  0
  162.3390  211.4750  148.6410 O   0  0  0  0  0  0  0  0  0  0  0  0
  161.4900  212.4760  148.1670 C   0  0  0  0  0  2  0  0  0  0  0  0
  162.3030  213.6890  147.6990 C   0  0  0  0  0  2  0  0  0  0  0  0
  161.9060  214.2170  146.3860 N   0  0  0  0  0  0  0  0  0  0  0  0
  162.3780  213.3330  145.3300 C   0  0  0  0  0  1  0  0  0  0  0  0
  160.4560  214.3130  146.2900 C   0  0  0  0  0  1  0  0  0  0  0  0
  1 13  1  0  0  0  0
  2  1  2  0  0  0  0
  2 18  1  0  0  0  0
  4  7  1  0  0  0  0
  4  1  1  0  0  0  0
  5  8  1  0  0  0  0
  6  3  1  0  0  0  0
  7 14  1  0  0  0  0
  8  7  2  0  0  0  0
  9 18  1  0  0  0  0
  9 10  1  0  0  0  0
 11 17  1  0  0  0  0
 11  2  1  0  0  0  0
 12  5  2  0  0  0  0
 12 16  1  0  0  0  0
 13  3  2  0  0  0  0
 14 13  1  0  0  0  0
 15  9  2  0  0  0  0
 16  4  2  0  0  0  0
 17 19  1  6  0  0  0
 17 15  1  0  0  0  0
 18  6  2  0  0  0  0
 19 20  1  0  0  0  0
 21 20  1  0  0  0  0
 22 21  1  0  0  0  0
 23 22  1  0  0  0  0
 24 23  1  0  0  0  0
 25 23  1  0  0  0  0
M  END
>  <MODEL>
9

>  <REMARK>
 VINA RESULT:      -7.0      3.225      5.379
  Name = 
  5 active torsions:
  status: ('A' for Active; 'I' for Inactive)
    1  A    between atoms: N_2  and  C_21
    2  A    between atoms: C_6  and  O_15
    3  A    between atoms: C_6  and  C_23
    4  A    between atoms: O_15  and  C_25
    5  A    between atoms: C_21  and  C_25
                            x       y       z     vdW  Elec       q    Type
                         _______ _______ _______ _____ _____    ______ ____

>  <TORSDO>
F 5

$$$$
