=
 OpenBabel11062410403D

 32 38  0  0  1  0  0  0  0  0999 V2000
  160.8920  212.7590  149.2160 S   0  0  0  0  0  0  0  0  0  0  0  0
  161.3290  207.9520  150.7700 C   0  0  0  0  0  0  0  0  0  0  0  0
  160.6250  208.4130  155.5690 C   0  0  0  0  0  3  0  0  0  0  0  0
  160.5350  207.0220  155.6840 C   0  0  0  0  0  3  0  0  0  0  0  0
  161.2200  205.6530  150.0430 C   0  0  0  0  0  0  0  0  0  0  0  0
  161.3240  205.7960  148.6840 C   0  0  0  0  0  0  0  0  0  0  0  0
  161.5660  209.9380  149.3090 C   0  0  1  0  0  3  0  0  0  0  0  0
  161.2740  210.2820  151.6760 C   0  0  0  0  0  2  0  0  0  0  0  0
  161.1410  203.2700  150.0060 C   0  0  0  0  0  0  0  0  0  0  0  0
  162.1260  212.0870  150.3940 C   0  0  0  0  0  2  0  0  0  0  0  0
  160.8450  209.0080  154.3220 C   0  0  0  0  0  3  0  0  0  0  0  0
  161.2220  208.7910  151.8950 C   0  0  0  0  0  0  0  0  0  0  0  0
  160.9750  208.2140  153.1750 C   0  0  0  0  0  0  0  0  0  0  0  0
  160.9860  206.0390  152.1720 N   0  0  0  0  0  0  0  0  0  0  0  0
  161.2820  203.3460  148.5960 C   0  0  0  0  0  3  0  0  0  0  0  0
  162.0970  210.6200  150.5090 N   0  0  2  0  0  0  0  0  0  0  0  0
  161.3580  204.6050  147.9330 C   0  0  0  0  0  3  0  0  0  0  0  0
  162.1870  210.5130  148.0390 C   0  0  0  0  0  2  0  0  0  0  0  0
  161.6450  211.9220  147.7610 C   0  0  1  0  0  3  0  0  0  0  0  0
  160.6610  206.2100  154.5530 C   0  0  0  0  0  3  0  0  0  0  0  0
  160.8780  206.7930  153.2990 C   0  0  0  0  0  0  0  0  0  0  0  0
  160.9480  204.7090  152.0460 N   0  0  0  0  0  0  0  0  0  0  0  0
  161.8280  208.4370  149.4240 C   0  0  2  0  0  3  0  0  0  0  0  0
  161.1620  207.4610  147.9770 S   0  0  0  0  0  0  0  0  0  0  0  0
  161.0350  201.9550  150.6920 C   0  0  0  0  0  1  0  0  0  0  0  0
  161.1680  206.6050  150.9740 C   0  0  0  0  0  0  0  0  0  0  0  0
  161.1020  204.4740  150.7120 C   0  0  0  0  0  0  0  0  0  0  0  0
  160.7500  211.9400  146.6030 N   0  0  0  0  0  2  0  0  0  0  0  0
  159.8070  213.0520  146.7070 C   0  0  0  0  0  2  0  0  0  0  0  0
  158.8020  213.0340  145.5610 C   0  0  0  0  0  3  0  0  0  0  0  0
  159.2960  212.1750  144.4120 C   0  0  0  0  0  1  0  0  0  0  0  0
  157.4440  212.5520  146.0340 C   0  0  0  0  0  1  0  0  0  0  0  0
  1 10  1  0  0  0  0
  2 26  1  0  0  0  0
  2 12  2  0  0  0  0
  3  4  1  0  0  0  0
  5 27  1  0  0  0  0
  5 26  2  0  0  0  0
  6  5  1  0  0  0  0
  7 18  1  6  0  0  0
  7 23  1  0  0  0  0
  7 16  1  0  0  0  0
  8 12  1  0  0  0  0
  9 25  1  0  0  0  0
  9 27  1  0  0  0  0
 11  3  2  0  0  0  0
 12 13  1  0  0  0  0
 13 21  2  0  0  0  0
 13 11  1  0  0  0  0
 14 21  1  0  0  0  0
 15  9  2  0  0  0  0
 16 10  1  6  0  0  0
 16  8  1  0  0  0  0
 17 15  1  0  0  0  0
 17  6  2  0  0  0  0
 19 28  1  6  0  0  0
 19 18  1  0  0  0  0
 19  1  1  0  0  0  0
 20  4  2  0  0  0  0
 21 20  1  0  0  0  0
 22 14  1  0  0  0  0
 23 24  1  6  0  0  0
 23  2  1  0  0  0  0
 24  6  1  0  0  0  0
 26 14  1  0  0  0  0
 27 22  2  0  0  0  0
 28 29  1  0  0  0  0
 30 32  1  0  0  0  0
 30 29  1  0  0  0  0
 31 30  1  0  0  0  0
M  END
>  <MODEL>
1

>  <REMARK>
 VINA RESULT:      -7.6      0.000      0.000
  Name = 
  3 active torsions:
  status: ('A' for Active; 'I' for Inactive)
    1  A    between atoms: C_1  and  C_10
    2  A    between atoms: C_10  and  N_19
    3  A    between atoms: N_19  and  C_24
                            x       y       z     vdW  Elec       q    Type
                         _______ _______ _______ _____ _____    ______ ____

>  <TORSDO>
F 3

$$$$
=
 OpenBabel11062410403D

 32 38  0  0  1  0  0  0  0  0999 V2000
  160.9440  204.6290  145.0060 S   0  0  0  0  0  0  0  0  0  0  0  0
  161.6090  206.8810  149.5010 C   0  0  0  0  0  0  0  0  0  0  0  0
  161.9740  211.5620  148.1980 C   0  0  0  0  0  3  0  0  0  0  0  0
  161.8820  211.9370  149.5430 C   0  0  0  0  0  3  0  0  0  0  0  0
  161.2970  206.6120  151.8780 C   0  0  0  0  0  0  0  0  0  0  0  0
  161.1060  205.2570  151.9720 C   0  0  0  0  0  0  0  0  0  0  0  0
  161.5640  205.0750  147.8050 C   0  0  1  0  0  3  0  0  0  0  0  0
  161.8000  207.3520  147.0520 C   0  0  0  0  0  2  0  0  0  0  0  0
  161.1630  207.0130  154.2250 C   0  0  0  0  0  0  0  0  0  0  0  0
  162.3900  205.6210  145.5400 C   0  0  0  0  0  2  0  0  0  0  0  0
  161.9300  210.2120  147.8360 C   0  0  0  0  0  3  0  0  0  0  0  0
  161.7660  207.8370  148.4800 C   0  0  0  0  0  0  0  0  0  0  0  0
  161.7920  209.2220  148.8170 C   0  0  0  0  0  0  0  0  0  0  0  0
  161.5400  208.6390  151.1270 N   0  0  0  0  0  0  0  0  0  0  0  0
  160.9960  205.6150  154.3960 C   0  0  0  0  0  3  0  0  0  0  0  0
  162.3570  205.9970  146.9630 N   0  0  2  0  0  0  0  0  0  0  0  0
  160.9530  204.7390  153.2730 C   0  0  0  0  0  3  0  0  0  0  0  0
  161.9060  203.6230  147.4890 C   0  0  0  0  0  2  0  0  0  0  0  0
  161.3460  203.2200  146.1180 C   0  0  1  0  0  3  0  0  0  0  0  0
  161.7430  210.9670  150.5390 C   0  0  0  0  0  3  0  0  0  0  0  0
  161.6950  209.6130  150.1890 C   0  0  0  0  0  0  0  0  0  0  0  0
  161.4480  208.7610  152.4540 N   0  0  0  0  0  0  0  0  0  0  0  0
  161.8140  205.3970  149.2780 C   0  0  2  0  0  3  0  0  0  0  0  0
  160.8290  204.3180  150.4430 S   0  0  0  0  0  0  0  0  0  0  0  0
  161.1820  207.9280  155.3980 C   0  0  0  0  0  1  0  0  0  0  0  0
  161.4680  207.3490  150.7820 C   0  0  0  0  0  0  0  0  0  0  0  0
  161.3040  207.4880  152.9190 C   0  0  0  0  0  0  0  0  0  0  0  0
  160.2210  202.2910  146.2430 N   0  0  0  0  0  2  0  0  0  0  0  0
  160.4660  201.0870  145.4500 C   0  0  0  0  0  2  0  0  0  0  0  0
  161.4200  200.1380  146.1670 C   0  0  0  0  0  3  0  0  0  0  0  0
  161.2080  200.1790  147.6690 C   0  0  0  0  0  1  0  0  0  0  0  0
  161.2680  198.7200  145.6520 C   0  0  0  0  0  1  0  0  0  0  0  0
  1 10  1  0  0  0  0
  1 19  1  0  0  0  0
  2 26  1  0  0  0  0
  3  4  1  0  0  0  0
  4 20  2  0  0  0  0
  5  6  1  0  0  0  0
  5 27  1  0  0  0  0
  6 17  2  0  0  0  0
  7 18  1  1  0  0  0
  7 23  1  0  0  0  0
  8 12  1  0  0  0  0
  9 15  2  0  0  0  0
  9 25  1  0  0  0  0
 11  3  2  0  0  0  0
 11 13  1  0  0  0  0
 12 13  1  0  0  0  0
 12  2  2  0  0  0  0
 13 21  2  0  0  0  0
 14 22  1  0  0  0  0
 16 10  1  6  0  0  0
 16  8  1  0  0  0  0
 16  7  1  0  0  0  0
 17 15  1  0  0  0  0
 19 28  1  1  0  0  0
 19 18  1  0  0  0  0
 21 20  1  0  0  0  0
 21 14  1  0  0  0  0
 22 27  2  0  0  0  0
 23  2  1  6  0  0  0
 23 24  1  0  0  0  0
 24  6  1  0  0  0  0
 26 14  1  0  0  0  0
 26  5  2  0  0  0  0
 27  9  1  0  0  0  0
 29 30  1  0  0  0  0
 29 28  1  0  0  0  0
 30 31  1  0  0  0  0
 32 30  1  0  0  0  0
M  END
>  <MODEL>
2

>  <REMARK>
 VINA RESULT:      -7.2      2.879      7.178
  Name = 
  3 active torsions:
  status: ('A' for Active; 'I' for Inactive)
    1  A    between atoms: C_1  and  C_10
    2  A    between atoms: C_10  and  N_19
    3  A    between atoms: N_19  and  C_24
                            x       y       z     vdW  Elec       q    Type
                         _______ _______ _______ _____ _____    ______ ____

>  <TORSDO>
F 3

$$$$
=
 OpenBabel11062410403D

 32 38  0  0  1  0  0  0  0  0999 V2000
  161.2240  211.2150  151.0200 S   0  0  0  0  0  0  0  0  0  0  0  0
  161.4670  206.4790  149.2240 C   0  0  0  0  0  0  0  0  0  0  0  0
  160.9220  203.8650  153.2990 C   0  0  0  0  0  3  0  0  0  0  0  0
  160.7670  202.7070  152.5280 C   0  0  0  0  0  3  0  0  0  0  0  0
  161.2240  205.1370  147.2330 C   0  0  0  0  0  0  0  0  0  0  0  0
  161.2970  206.0940  146.2540 C   0  0  0  0  0  0  0  0  0  0  0  0
  161.7600  208.9380  149.3040 C   0  0  1  0  0  3  0  0  0  0  0  0
  161.5520  207.7380  151.3830 C   0  0  0  0  0  2  0  0  0  0  0  0
  161.0270  203.2990  145.7270 C   0  0  0  0  0  0  0  0  0  0  0  0
  162.4550  209.9300  151.4580 C   0  0  0  0  0  2  0  0  0  0  0  0
  161.1360  205.1010  152.6820 C   0  0  0  0  0  3  0  0  0  0  0  0
  161.4330  206.4360  150.6300 C   0  0  0  0  0  0  0  0  0  0  0  0
  161.1950  205.1930  151.2850 C   0  0  0  0  0  0  0  0  0  0  0  0
  161.0700  204.1170  149.1490 N   0  0  0  0  0  0  0  0  0  0  0  0
  161.1320  204.2340  144.6640 C   0  0  0  0  0  3  0  0  0  0  0  0
  162.3580  208.7110  150.6380 N   0  0  2  0  0  0  0  0  0  0  0  0
  161.2520  205.6300  144.9250 C   0  0  0  0  0  3  0  0  0  0  0  0
  162.3730  210.1650  148.6360 C   0  0  0  0  0  2  0  0  0  0  0  0
  161.8930  211.4510  149.3230 C   0  0  1  0  0  3  0  0  0  0  0  0
  160.8200  202.7740  151.1340 C   0  0  0  0  0  3  0  0  0  0  0  0
  161.0310  204.0060  150.5040 C   0  0  0  0  0  0  0  0  0  0  0  0
  160.9630  203.1570  148.2260 N   0  0  0  0  0  0  0  0  0  0  0  0
  161.9510  207.6860  148.4470 C   0  0  2  0  0  3  0  0  0  0  0  0
  161.1970  207.8390  146.7450 S   0  0  0  0  0  0  0  0  0  0  0  0
  160.8760  201.8450  145.4510 C   0  0  0  0  0  1  0  0  0  0  0  0
  161.2450  205.3030  148.5550 C   0  0  0  0  0  0  0  0  0  0  0  0
  161.0680  203.8010  147.0290 C   0  0  0  0  0  0  0  0  0  0  0  0
  160.9680  212.2060  148.4760 N   0  0  0  0  0  2  0  0  0  0  0  0
  161.6770  213.2810  147.7830 C   0  0  0  0  0  2  0  0  0  0  0  0
  161.2000  213.4180  146.3410 C   0  0  0  0  0  3  0  0  0  0  0  0
  162.3600  213.3160  145.3680 C   0  0  0  0  0  1  0  0  0  0  0  0
  160.1450  212.3790  146.0140 C   0  0  0  0  0  1  0  0  0  0  0  0
  1 10  1  0  0  0  0
  2 12  2  0  0  0  0
  4  3  2  0  0  0  0
  5 26  2  0  0  0  0
  6 24  1  0  0  0  0
  6  5  1  0  0  0  0
  7 18  1  6  0  0  0
  7 16  1  0  0  0  0
  9 27  1  0  0  0  0
 11  3  1  0  0  0  0
 12 13  1  0  0  0  0
 12  8  1  0  0  0  0
 13 11  2  0  0  0  0
 14 21  1  0  0  0  0
 15 17  1  0  0  0  0
 15  9  2  0  0  0  0
 16  8  1  1  0  0  0
 16 10  1  0  0  0  0
 17  6  2  0  0  0  0
 18 19  1  0  0  0  0
 19 28  1  6  0  0  0
 19  1  1  0  0  0  0
 20  4  1  0  0  0  0
 21 20  2  0  0  0  0
 21 13  1  0  0  0  0
 22 14  1  0  0  0  0
 23 24  1  6  0  0  0
 23  2  1  0  0  0  0
 23  7  1  0  0  0  0
 25  9  1  0  0  0  0
 26 14  1  0  0  0  0
 26  2  1  0  0  0  0
 27  5  1  0  0  0  0
 27 22  2  0  0  0  0
 29 28  1  0  0  0  0
 30 29  1  0  0  0  0
 31 30  1  0  0  0  0
 32 30  1  0  0  0  0
M  END
>  <MODEL>
3

>  <REMARK>
 VINA RESULT:      -6.9      1.975      3.246
  Name = 
  3 active torsions:
  status: ('A' for Active; 'I' for Inactive)
    1  A    between atoms: C_1  and  C_10
    2  A    between atoms: C_10  and  N_19
    3  A    between atoms: N_19  and  C_24
                            x       y       z     vdW  Elec       q    Type
                         _______ _______ _______ _____ _____    ______ ____

>  <TORSDO>
F 3

$$$$
=
 OpenBabel11062410403D

 32 38  0  0  1  0  0  0  0  0999 V2000
  161.0500  204.7170  145.2640 S   0  0  0  0  0  0  0  0  0  0  0  0
  161.6130  207.2230  149.6360 C   0  0  0  0  0  0  0  0  0  0  0  0
  161.8240  211.8390  148.0900 C   0  0  0  0  0  3  0  0  0  0  0  0
  161.7120  212.2810  149.4130 C   0  0  0  0  0  3  0  0  0  0  0  0
  161.2980  207.0690  152.0240 C   0  0  0  0  0  0  0  0  0  0  0  0
  161.1540  205.7150  152.1880 C   0  0  0  0  0  0  0  0  0  0  0  0
  161.6390  205.3300  148.0380 C   0  0  1  0  0  3  0  0  0  0  0  0
  161.8010  207.5710  147.1670 C   0  0  0  0  0  2  0  0  0  0  0  0
  161.1380  207.5880  154.3450 C   0  0  0  0  0  0  0  0  0  0  0  0
  162.4580  205.7850  145.7510 C   0  0  0  0  0  2  0  0  0  0  0  0
  161.8280  210.4720  147.8000 C   0  0  0  0  0  3  0  0  0  0  0  0
  161.7430  208.1300  148.5670 C   0  0  0  0  0  0  0  0  0  0  0  0
  161.7190  209.5300  148.8310 C   0  0  0  0  0  0  0  0  0  0  0  0
  161.4750  209.0610  151.1670 N   0  0  0  0  0  0  0  0  0  0  0  0
  161.0180  206.1950  154.5890 C   0  0  0  0  0  3  0  0  0  0  0  0
  162.4040  206.2340  147.1520 N   0  0  2  0  0  0  0  0  0  0  0  0
  161.0110  205.2610  153.5130 C   0  0  0  0  0  3  0  0  0  0  0  0
  162.0330  203.8760  147.8000 C   0  0  0  0  0  2  0  0  0  0  0  0
  161.4940  203.3830  146.4500 C   0  0  1  0  0  3  0  0  0  0  0  0
  161.6010  211.3600  150.4580 C   0  0  0  0  0  3  0  0  0  0  0  0
  161.6010  209.9890  150.1800 C   0  0  0  0  0  0  0  0  0  0  0  0
  161.3720  209.2500  152.4860 N   0  0  0  0  0  0  0  0  0  0  0  0
  161.8700  205.7380  149.4930 C   0  0  2  0  0  3  0  0  0  0  0  0
  160.9170  204.6880  150.7100 S   0  0  0  0  0  0  0  0  0  0  0  0
  161.1190  208.5630  155.4680 C   0  0  0  0  0  1  0  0  0  0  0  0
  161.4500  207.7530  150.8910 C   0  0  0  0  0  0  0  0  0  0  0  0
  161.2690  207.9980  153.0170 C   0  0  0  0  0  0  0  0  0  0  0  0
  160.4010  202.4240  146.6200 N   0  0  0  0  0  2  0  0  0  0  0  0
  160.7960  201.3640  147.5480 C   0  0  0  0  0  2  0  0  0  0  0  0
  160.2690  201.6350  148.9520 C   0  0  0  0  0  3  0  0  0  0  0  0
  158.8290  201.1790  149.0960 C   0  0  0  0  0  1  0  0  0  0  0  0
  161.1400  200.9670  150.0000 C   0  0  0  0  0  1  0  0  0  0  0  0
  1 10  1  0  0  0  0
  1 19  1  0  0  0  0
  2 26  1  0  0  0  0
  3  4  1  0  0  0  0
  4 20  2  0  0  0  0
  5  6  1  0  0  0  0
  5 27  1  0  0  0  0
  6 17  2  0  0  0  0
  7 18  1  1  0  0  0
  7 23  1  0  0  0  0
  8 12  1  0  0  0  0
  9 15  2  0  0  0  0
  9 25  1  0  0  0  0
 11  3  2  0  0  0  0
 11 13  1  0  0  0  0
 12 13  1  0  0  0  0
 12  2  2  0  0  0  0
 13 21  2  0  0  0  0
 14 22  1  0  0  0  0
 16 10  1  6  0  0  0
 16  8  1  0  0  0  0
 16  7  1  0  0  0  0
 17 15  1  0  0  0  0
 19 28  1  1  0  0  0
 19 18  1  0  0  0  0
 21 20  1  0  0  0  0
 21 14  1  0  0  0  0
 22 27  2  0  0  0  0
 23  2  1  6  0  0  0
 23 24  1  0  0  0  0
 24  6  1  0  0  0  0
 26 14  1  0  0  0  0
 26  5  2  0  0  0  0
 27  9  1  0  0  0  0
 28 29  1  0  0  0  0
 29 30  1  0  0  0  0
 30 31  1  0  0  0  0
 30 32  1  0  0  0  0
M  END
>  <MODEL>
4

>  <REMARK>
 VINA RESULT:      -6.8      2.746      7.015
  Name = 
  3 active torsions:
  status: ('A' for Active; 'I' for Inactive)
    1  A    between atoms: C_1  and  C_10
    2  A    between atoms: C_10  and  N_19
    3  A    between atoms: N_19  and  C_24
                            x       y       z     vdW  Elec       q    Type
                         _______ _______ _______ _____ _____    ______ ____

>  <TORSDO>
F 3

$$$$
=
 OpenBabel11062410403D

 32 38  0  0  1  0  0  0  0  0999 V2000
  159.5920  207.7910  156.0050 S   0  0  0  0  0  0  0  0  0  0  0  0
  161.2380  209.2160  151.4260 C   0  0  0  0  0  0  0  0  0  0  0  0
  161.6020  204.9260  149.1450 C   0  0  0  0  0  3  0  0  0  0  0  0
  161.7930  205.5940  147.9300 C   0  0  0  0  0  3  0  0  0  0  0  0
  161.3770  211.0810  149.9000 C   0  0  0  0  0  0  0  0  0  0  0  0
  161.1340  212.1350  150.7420 C   0  0  0  0  0  0  0  0  0  0  0  0
  160.7650  209.3440  153.8540 C   0  0  1  0  0  3  0  0  0  0  0  0
  160.9770  207.1690  152.8390 C   0  0  0  0  0  2  0  0  0  0  0  0
  161.7220  212.4260  147.9620 C   0  0  0  0  0  0  0  0  0  0  0  0
  161.1660  207.3100  155.1990 C   0  0  0  0  0  2  0  0  0  0  0  0
  161.4140  205.6470  150.3270 C   0  0  0  0  0  3  0  0  0  0  0  0
  161.2470  207.8100  151.5000 C   0  0  0  0  0  0  0  0  0  0  0  0
  161.4140  207.0490  150.3070 C   0  0  0  0  0  0  0  0  0  0  0  0
  161.5810  209.0850  149.0580 N   0  0  0  0  0  0  0  0  0  0  0  0
  161.5150  213.5630  148.7860 C   0  0  0  0  0  3  0  0  0  0  0  0
  161.4300  208.0260  153.9400 N   0  0  2  0  0  0  0  0  0  0  0  0
  161.2060  213.4190  150.1690 C   0  0  0  0  0  3  0  0  0  0  0  0
  160.9590  210.1350  155.1440 C   0  0  0  0  0  2  0  0  0  0  0  0
  160.1220  209.5310  156.2810 C   0  0  1  0  0  3  0  0  0  0  0  0
  161.7950  206.9910  147.8860 C   0  0  0  0  0  3  0  0  0  0  0  0
  161.6050  207.7250  149.0620 C   0  0  0  0  0  0  0  0  0  0  0  0
  161.7550  209.9230  148.0310 N   0  0  0  0  0  0  0  0  0  0  0  0
  161.3130  210.1070  152.6480 C   0  0  2  0  0  3  0  0  0  0  0  0
  160.5140  211.7790  152.4120 S   0  0  0  0  0  0  0  0  0  0  0  0
  162.0180  212.5780  146.5120 C   0  0  0  0  0  1  0  0  0  0  0  0
  161.3730  209.7790  150.1820 C   0  0  0  0  0  0  0  0  0  0  0  0
  161.6340  211.1710  148.5670 C   0  0  0  0  0  0  0  0  0  0  0  0
  158.9940  210.3910  156.6400 N   0  0  0  0  0  2  0  0  0  0  0  0
  159.2450  211.7650  156.2070 C   0  0  0  0  0  2  0  0  0  0  0  0
  157.9910  212.3940  155.6100 C   0  0  0  0  0  3  0  0  0  0  0  0
  158.3070  213.7190  154.9420 C   0  0  0  0  0  1  0  0  0  0  0  0
  157.3230  211.4530  154.6260 C   0  0  0  0  0  1  0  0  0  0  0  0
  1 19  1  0  0  0  0
  2 12  2  0  0  0  0
  3 11  1  0  0  0  0
  4  3  2  0  0  0  0
  5 26  2  0  0  0  0
  5  6  1  0  0  0  0
  6 24  1  0  0  0  0
  7 16  1  0  0  0  0
  7 18  1  1  0  0  0
  9 27  1  0  0  0  0
  9 15  2  0  0  0  0
 10  1  1  0  0  0  0
 12  8  1  0  0  0  0
 13 11  2  0  0  0  0
 13 12  1  0  0  0  0
 14 21  1  0  0  0  0
 14 26  1  0  0  0  0
 15 17  1  0  0  0  0
 16  8  1  6  0  0  0
 16 10  1  0  0  0  0
 17  6  2  0  0  0  0
 18 19  1  0  0  0  0
 19 28  1  6  0  0  0
 20  4  1  0  0  0  0
 20 21  2  0  0  0  0
 21 13  1  0  0  0  0
 22 27  2  0  0  0  0
 22 14  1  0  0  0  0
 23  2  1  6  0  0  0
 23  7  1  0  0  0  0
 24 23  1  0  0  0  0
 25  9  1  0  0  0  0
 26  2  1  0  0  0  0
 27  5  1  0  0  0  0
 29 28  1  0  0  0  0
 30 29  1  0  0  0  0
 31 30  1  0  0  0  0
 32 30  1  0  0  0  0
M  END
>  <MODEL>
5

>  <REMARK>
 VINA RESULT:      -5.1      2.788      7.234
  Name = 
  3 active torsions:
  status: ('A' for Active; 'I' for Inactive)
    1  A    between atoms: C_1  and  C_10
    2  A    between atoms: C_10  and  N_19
    3  A    between atoms: N_19  and  C_24
                            x       y       z     vdW  Elec       q    Type
                         _______ _______ _______ _____ _____    ______ ____

>  <TORSDO>
F 3

$$$$
=
 OpenBabel11062410403D

 32 38  0  0  1  0  0  0  0  0999 V2000
  161.4260  201.8650  151.2320 S   0  0  0  0  0  0  0  0  0  0  0  0
  161.2050  206.9260  151.4450 C   0  0  0  0  0  0  0  0  0  0  0  0
  161.3250  207.7030  156.2530 C   0  0  0  0  0  3  0  0  0  0  0  0
  161.5130  209.0700  156.0220 C   0  0  0  0  0  3  0  0  0  0  0  0
  161.5800  208.9460  150.1800 C   0  0  0  0  0  0  0  0  0  0  0  0
  161.6190  208.4580  148.8990 C   0  0  0  0  0  0  0  0  0  0  0  0
  160.9750  204.6400  150.5180 C   0  0  1  0  0  3  0  0  0  0  0  0
  160.9700  204.9150  152.9120 C   0  0  0  0  0  2  0  0  0  0  0  0
  161.8540  211.2290  149.5490 C   0  0  0  0  0  0  0  0  0  0  0  0
  160.1260  202.8800  152.0310 C   0  0  0  0  0  2  0  0  0  0  0  0
  161.2000  206.8150  155.1810 C   0  0  0  0  0  3  0  0  0  0  0  0
  161.1170  206.4070  152.7510 C   0  0  0  0  0  0  0  0  0  0  0  0
  161.2630  207.2860  153.8630 C   0  0  0  0  0  0  0  0  0  0  0  0
  161.5410  209.1200  152.3480 N   0  0  0  0  0  0  0  0  0  0  0  0
  161.8670  210.7940  148.1990 C   0  0  0  0  0  3  0  0  0  0  0  0
  160.2590  204.3230  151.7730 N   0  0  2  0  0  0  0  0  0  0  0  0
  161.7640  209.4110  147.8730 C   0  0  0  0  0  3  0  0  0  0  0  0
  160.4560  203.7850  149.3670 C   0  0  0  0  0  2  0  0  0  0  0  0
  160.9110  202.3270  149.5280 C   0  0  1  0  0  3  0  0  0  0  0  0
  161.5810  209.5630  154.7160 C   0  0  0  0  0  3  0  0  0  0  0  0
  161.4600  208.6840  153.6340 C   0  0  0  0  0  0  0  0  0  0  0  0
  161.6990  210.3670  151.8950 N   0  0  0  0  0  0  0  0  0  0  0  0
  160.8230  206.1310  150.2140 C   0  0  2  0  0  3  0  0  0  0  0  0
  161.7240  206.6600  148.6660 S   0  0  0  0  0  0  0  0  0  0  0  0
  161.9880  212.6720  149.8870 C   0  0  0  0  0  1  0  0  0  0  0  0
  161.4500  208.2700  151.3200 C   0  0  0  0  0  0  0  0  0  0  0  0
  161.7160  210.2520  150.5370 C   0  0  0  0  0  0  0  0  0  0  0  0
  161.9260  201.9630  148.5380 N   0  0  0  0  0  2  0  0  0  0  0  0
  161.3210  201.1980  147.4480 C   0  0  0  0  0  2  0  0  0  0  0  0
  160.6380  202.1160  146.4410 C   0  0  0  0  0  3  0  0  0  0  0  0
  161.5810  203.2030  145.9620 C   0  0  0  0  0  1  0  0  0  0  0  0
  160.0990  201.3280  145.2630 C   0  0  0  0  0  1  0  0  0  0  0  0
  1 10  1  0  0  0  0
  2 12  2  0  0  0  0
  4  3  1  0  0  0  0
  5 27  1  0  0  0  0
  5 26  2  0  0  0  0
  6  5  1  0  0  0  0
  7 18  1  6  0  0  0
  7 16  1  0  0  0  0
  9 25  1  0  0  0  0
  9 27  1  0  0  0  0
 11  3  2  0  0  0  0
 12  8  1  0  0  0  0
 12 13  1  0  0  0  0
 13 11  1  0  0  0  0
 14 21  1  0  0  0  0
 15  9  2  0  0  0  0
 16 10  1  1  0  0  0
 16  8  1  0  0  0  0
 17 15  1  0  0  0  0
 17  6  2  0  0  0  0
 18 19  1  0  0  0  0
 19 28  1  6  0  0  0
 19  1  1  0  0  0  0
 20  4  2  0  0  0  0
 21 13  2  0  0  0  0
 21 20  1  0  0  0  0
 22 14  1  0  0  0  0
 23 24  1  6  0  0  0
 23  7  1  0  0  0  0
 23  2  1  0  0  0  0
 24  6  1  0  0  0  0
 26  2  1  0  0  0  0
 26 14  1  0  0  0  0
 27 22  2  0  0  0  0
 29 28  1  0  0  0  0
 30 29  1  0  0  0  0
 31 30  1  0  0  0  0
 32 30  1  0  0  0  0
M  END
>  <MODEL>
6

>  <REMARK>
 VINA RESULT:      -4.9      2.398      6.759
  Name = 
  3 active torsions:
  status: ('A' for Active; 'I' for Inactive)
    1  A    between atoms: C_1  and  C_10
    2  A    between atoms: C_10  and  N_19
    3  A    between atoms: N_19  and  C_24
                            x       y       z     vdW  Elec       q    Type
                         _______ _______ _______ _____ _____    ______ ____

>  <TORSDO>
F 3

$$$$
