=
 OpenBabel11062407433D

 34 39  0  0  1  0  0  0  0  0999 V2000
  161.0120  207.6390  154.1430 C   0  0  0  0  0  0  0  0  0  0  0  0
  161.8550  209.7090  153.0670 C   0  0  0  0  0  3  0  0  0  0  0  0
  161.4860  207.5220  151.7410 C   0  0  0  0  0  0  0  0  0  0  0  0
  161.5990  207.3730  149.3310 C   0  0  0  0  0  0  0  0  0  0  0  0
  159.9990  209.4480  155.4920 C   0  0  0  0  0  3  0  0  0  0  0  0
  160.2070  210.5390  154.7580 C   0  0  0  0  0  3  0  0  0  0  0  0
  161.7200  209.5160  150.2040 C   0  0  0  0  0  3  0  0  0  0  0  0
  161.4330  208.2840  153.0330 C   0  0  0  0  0  0  0  0  0  0  0  0
  161.7330  208.3230  147.9560 S   0  0  0  0  0  0  0  0  0  0  0  0
  160.9440  208.2950  155.4850 C   0  0  0  0  0  2  0  0  0  0  0  0
  161.3380  206.1070  151.7610 C   0  0  0  0  0  0  0  0  0  0  0  0
  160.6510  206.2920  154.0730 O   0  0  0  0  0  0  0  0  0  0  0  0
  161.3190  210.6910  153.8040 C   0  0  0  0  0  3  0  0  0  0  0  0
  161.4790  206.0280  149.3580 N   0  0  0  0  0  0  0  0  0  0  0  0
  161.3620  205.3630  150.5430 C   0  0  0  0  0  0  0  0  0  0  0  0
  161.8030  209.7640  148.8380 C   0  0  0  0  0  0  0  0  0  0  0  0
  161.6090  208.1440  150.4800 C   0  0  0  0  0  0  0  0  0  0  0  0
  161.1940  205.4190  153.0880 C   0  0  0  0  0  2  0  0  0  0  0  0
  160.6570  201.8250  149.3310 C   0  0  0  0  0  0  0  0  0  0  0  0
  160.9770  201.0840  150.4700 C   0  0  0  0  0  3  0  0  0  0  0  0
  161.2510  203.8830  150.4880 C   0  0  0  0  0  0  0  0  0  0  0  0
  161.4260  201.7360  151.6220 C   0  0  0  0  0  3  0  0  0  0  0  0
  160.7870  203.2170  149.3430 C   0  0  0  0  0  3  0  0  0  0  0  0
  161.5570  203.1270  151.6320 C   0  0  0  0  0  3  0  0  0  0  0  0
  160.2150  201.1960  148.2160 F   0  0  0  0  0  0  0  0  0  0  0  0
  160.9660  211.5930  147.6220 N   0  0  0  0  0  0  0  0  0  0  0  0
  161.9220  211.0690  148.2740 N   0  0  0  0  0  0  0  0  0  0  0  0
  163.4340  213.3130  147.8610 C   0  0  0  0  0  1  0  0  0  0  0  0
  161.1010  212.9230  147.0520 C   0  0  1  0  0  3  0  0  0  0  0  0
  162.5540  213.1690  146.6350 C   0  0  1  0  0  3  0  0  0  0  0  0
  161.8190  214.3440  144.6660 O   0  0  0  0  0  0  0  0  0  0  0  0
  160.4870  214.3720  145.1170 C   0  0  0  0  0  2  0  0  0  0  0  0
  160.1630  213.0730  145.8520 C   0  0  0  0  0  2  0  0  0  0  0  0
  162.6340  214.4530  145.8080 C   0  0  0  0  0  2  0  0  0  0  0  0
  1 10  1  0  0  0  0
  2 13  2  0  0  0  0
  3 11  1  0  0  0  0
  3  8  1  0  0  0  0
  4 14  2  0  0  0  0
  4 17  1  0  0  0  0
  6  5  2  0  0  0  0
  7 17  1  0  0  0  0
  8  2  1  0  0  0  0
  8  1  2  0  0  0  0
  9 16  1  0  0  0  0
  9  4  1  0  0  0  0
 10  5  1  0  0  0  0
 11 18  1  0  0  0  0
 12  1  1  0  0  0  0
 13  6  1  0  0  0  0
 14 15  1  0  0  0  0
 15 11  2  0  0  0  0
 16  7  2  0  0  0  0
 17  3  2  0  0  0  0
 18 12  1  0  0  0  0
 19 23  2  0  0  0  0
 19 20  1  0  0  0  0
 20 22  2  0  0  0  0
 21 15  1  0  0  0  0
 21 24  2  0  0  0  0
 22 24  1  0  0  0  0
 23 21  1  0  0  0  0
 25 19  1  0  0  0  0
 26 27  2  0  0  0  0
 27 16  1  0  0  0  0
 29 26  1  6  0  0  0
 30 29  1  0  0  0  0
 30 28  1  1  0  0  0
 31 32  1  0  0  0  0
 31 34  1  0  0  0  0
 32 33  1  0  0  0  0
 33 29  1  0  0  0  0
 34 30  1  0  0  0  0
M  END
>  <MODEL>
1

>  <REMARK>
 VINA RESULT:      -9.8      0.000      0.000
  Name = 
  3 active torsions:
  status: ('A' for Active; 'I' for Inactive)
    1  A    between atoms: N_3  and  C_13
    2  A    between atoms: C_12  and  C_28
    3  A    between atoms: N_17  and  C_29
                            x       y       z     vdW  Elec       q    Type
                         _______ _______ _______ _____ _____    ______ ____

>  <TORSDO>
F 3

$$$$
=
 OpenBabel11062407433D

 34 39  0  0  1  0  0  0  0  0999 V2000
  161.0610  205.1990  150.2080 C   0  0  0  0  0  0  0  0  0  0  0  0
  160.7280  206.7110  148.2700 C   0  0  0  0  0  3  0  0  0  0  0  0
  161.1400  207.6070  150.6590 C   0  0  0  0  0  0  0  0  0  0  0  0
  161.5650  209.9310  151.1710 C   0  0  0  0  0  0  0  0  0  0  0  0
  161.9370  203.8950  148.2980 C   0  0  0  0  0  3  0  0  0  0  0  0
  162.0290  204.7950  147.3210 C   0  0  0  0  0  3  0  0  0  0  0  0
  161.4930  209.4040  148.9150 C   0  0  0  0  0  3  0  0  0  0  0  0
  160.9810  206.4530  149.7120 C   0  0  0  0  0  0  0  0  0  0  0  0
  161.8590  211.4100  150.4380 S   0  0  0  0  0  0  0  0  0  0  0  0
  160.8930  203.9800  149.3600 C   0  0  0  0  0  2  0  0  0  0  0  0
  161.1160  207.3650  152.0600 C   0  0  0  0  0  0  0  0  0  0  0  0
  161.2720  205.0010  151.5740 O   0  0  0  0  0  0  0  0  0  0  0  0
  161.1890  206.0030  147.2320 C   0  0  0  0  0  3  0  0  0  0  0  0
  161.5220  209.6980  152.5000 N   0  0  0  0  0  0  0  0  0  0  0  0
  161.2870  208.4440  152.9800 C   0  0  0  0  0  0  0  0  0  0  0  0
  161.7540  210.7690  148.8770 C   0  0  0  0  0  0  0  0  0  0  0  0
  161.3800  208.9310  150.2320 C   0  0  0  0  0  0  0  0  0  0  0  0
  160.8730  205.9640  152.5440 C   0  0  0  0  0  2  0  0  0  0  0  0
  160.2790  207.2870  156.4630 C   0  0  0  0  0  0  0  0  0  0  0  0
  161.1300  208.0590  157.2570 C   0  0  0  0  0  3  0  0  0  0  0  0
  161.2380  208.2740  154.4550 C   0  0  0  0  0  0  0  0  0  0  0  0
  162.0290  208.9440  156.6580 C   0  0  0  0  0  3  0  0  0  0  0  0
  160.3290  207.4000  155.0710 C   0  0  0  0  0  3  0  0  0  0  0  0
  162.0790  209.0540  155.2660 C   0  0  0  0  0  3  0  0  0  0  0  0
  159.4010  206.4330  157.0420 F   0  0  0  0  0  0  0  0  0  0  0  0
  160.9810  212.2420  147.2160 N   0  0  0  0  0  0  0  0  0  0  0  0
  161.9170  211.5130  147.6700 N   0  0  0  0  0  0  0  0  0  0  0  0
  163.0030  214.4510  146.8410 C   0  0  0  0  0  1  0  0  0  0  0  0
  161.1600  212.9950  145.9860 C   0  0  1  0  0  3  0  0  0  0  0  0
  162.6310  213.3900  145.8230 C   0  0  1  0  0  3  0  0  0  0  0  0
  162.5090  212.9800  143.4540 O   0  0  0  0  0  0  0  0  0  0  0  0
  161.1090  212.8510  143.4960 C   0  0  0  0  0  2  0  0  0  0  0  0
  160.6930  212.1580  144.7920 C   0  0  0  0  0  2  0  0  0  0  0  0
  162.8540  213.9470  144.4160 C   0  0  0  0  0  2  0  0  0  0  0  0
  1 12  1  0  0  0  0
  2  8  1  0  0  0  0
  3 11  1  0  0  0  0
  4 14  2  0  0  0  0
  5 10  1  0  0  0  0
  6  5  2  0  0  0  0
  7 17  1  0  0  0  0
  8  1  2  0  0  0  0
  8  3  1  0  0  0  0
  9  4  1  0  0  0  0
 10  1  1  0  0  0  0
 11 18  1  0  0  0  0
 11 15  2  0  0  0  0
 12 18  1  0  0  0  0
 13  6  1  0  0  0  0
 13  2  2  0  0  0  0
 14 15  1  0  0  0  0
 15 21  1  0  0  0  0
 16  7  2  0  0  0  0
 16  9  1  0  0  0  0
 17  3  2  0  0  0  0
 17  4  1  0  0  0  0
 19 25  1  0  0  0  0
 19 20  1  0  0  0  0
 21 23  1  0  0  0  0
 21 24  2  0  0  0  0
 22 20  2  0  0  0  0
 23 19  2  0  0  0  0
 24 22  1  0  0  0  0
 26 27  2  0  0  0  0
 27 16  1  0  0  0  0
 29 26  1  1  0  0  0
 30 29  1  0  0  0  0
 30 28  1  1  0  0  0
 31 32  1  0  0  0  0
 31 34  1  0  0  0  0
 32 33  1  0  0  0  0
 33 29  1  0  0  0  0
 34 30  1  0  0  0  0
M  END
>  <MODEL>
2

>  <REMARK>
 VINA RESULT:      -8.6      2.571      5.317
  Name = 
  3 active torsions:
  status: ('A' for Active; 'I' for Inactive)
    1  A    between atoms: N_3  and  C_13
    2  A    between atoms: C_12  and  C_28
    3  A    between atoms: N_17  and  C_29
                            x       y       z     vdW  Elec       q    Type
                         _______ _______ _______ _____ _____    ______ ____

>  <TORSDO>
F 3

$$$$
=
 OpenBabel11062407433D

 34 39  0  0  1  0  0  0  0  0999 V2000
  160.3600  213.3530  150.1240 C   0  0  0  0  0  0  0  0  0  0  0  0
  161.7020  211.3920  149.4160 C   0  0  0  0  0  3  0  0  0  0  0  0
  160.5540  211.5100  151.7290 C   0  0  0  0  0  0  0  0  0  0  0  0
  160.3980  209.6400  153.2510 C   0  0  0  0  0  0  0  0  0  0  0  0
  160.0850  213.3190  147.6660 C   0  0  0  0  0  3  0  0  0  0  0  0
  160.5530  212.1230  147.3160 C   0  0  0  0  0  3  0  0  0  0  0  0
  161.2560  209.1490  151.1550 C   0  0  0  0  0  3  0  0  0  0  0  0
  160.8580  212.1270  150.3940 C   0  0  0  0  0  0  0  0  0  0  0  0
  160.6950  207.9930  153.3510 S   0  0  0  0  0  0  0  0  0  0  0  0
  160.6210  214.0700  148.8380 C   0  0  0  0  0  2  0  0  0  0  0  0
  159.9780  212.3130  152.7510 C   0  0  0  0  0  0  0  0  0  0  0  0
  159.5940  214.0220  151.0820 O   0  0  0  0  0  0  0  0  0  0  0  0
  161.5670  211.3780  148.0840 C   0  0  0  0  0  3  0  0  0  0  0  0
  159.8690  210.4110  154.2250 N   0  0  0  0  0  0  0  0  0  0  0  0
  159.6600  211.7430  154.0200 C   0  0  0  0  0  0  0  0  0  0  0  0
  161.2880  207.9030  151.7700 C   0  0  0  0  0  0  0  0  0  0  0  0
  160.7500  210.1410  152.0100 C   0  0  0  0  0  0  0  0  0  0  0  0
  159.7470  213.7710  152.4750 C   0  0  0  0  0  2  0  0  0  0  0  0
  157.1990  213.4730  156.3520 C   0  0  0  0  0  0  0  0  0  0  0  0
  158.0710  214.0930  157.2490 C   0  0  0  0  0  3  0  0  0  0  0  0
  159.0900  212.5260  155.1470 C   0  0  0  0  0  0  0  0  0  0  0  0
  159.4510  213.9390  157.0960 C   0  0  0  0  0  3  0  0  0  0  0  0
  157.7060  212.7010  155.3030 C   0  0  0  0  0  3  0  0  0  0  0  0
  159.9570  213.1650  156.0490 C   0  0  0  0  0  3  0  0  0  0  0  0
  155.8600  213.6260  156.4940 F   0  0  0  0  0  0  0  0  0  0  0  0
  160.9450  205.8920  150.6020 N   0  0  0  0  0  0  0  0  0  0  0  0
  161.7550  206.7140  151.1330 N   0  0  0  0  0  0  0  0  0  0  0  0
  161.0720  203.1780  151.9180 C   0  0  0  0  0  1  0  0  0  0  0  0
  161.4350  204.6850  149.9570 C   0  0  1  0  0  3  0  0  0  0  0  0
  160.6750  203.4640  150.4830 C   0  0  1  0  0  3  0  0  0  0  0  0
  160.6530  202.4920  148.2810 O   0  0  0  0  0  0  0  0  0  0  0  0
  161.5590  203.4520  147.7920 C   0  0  0  0  0  2  0  0  0  0  0  0
  161.2740  204.8060  148.4390 C   0  0  0  0  0  2  0  0  0  0  0  0
  161.0100  202.2480  149.6200 C   0  0  0  0  0  2  0  0  0  0  0  0
  1  8  2  0  0  0  0
  1 12  1  0  0  0  0
  2  8  1  0  0  0  0
  3 17  2  0  0  0  0
  3 11  1  0  0  0  0
  4  9  1  0  0  0  0
  4 14  2  0  0  0  0
  5 10  1  0  0  0  0
  6  5  2  0  0  0  0
  6 13  1  0  0  0  0
  7 16  2  0  0  0  0
  7 17  1  0  0  0  0
  8  3  1  0  0  0  0
 10  1  1  0  0  0  0
 11 15  2  0  0  0  0
 12 18  1  0  0  0  0
 13  2  2  0  0  0  0
 15 14  1  0  0  0  0
 15 21  1  0  0  0  0
 16  9  1  0  0  0  0
 17  4  1  0  0  0  0
 18 11  1  0  0  0  0
 19 25  1  0  0  0  0
 19 20  1  0  0  0  0
 21 23  1  0  0  0  0
 21 24  2  0  0  0  0
 22 20  2  0  0  0  0
 23 19  2  0  0  0  0
 24 22  1  0  0  0  0
 26 27  2  0  0  0  0
 27 16  1  0  0  0  0
 29 30  1  0  0  0  0
 29 26  1  1  0  0  0
 30 28  1  1  0  0  0
 31 34  1  0  0  0  0
 32 31  1  0  0  0  0
 32 33  1  0  0  0  0
 33 29  1  0  0  0  0
 34 30  1  0  0  0  0
M  END
>  <MODEL>
3

>  <REMARK>
 VINA RESULT:      -8.6      4.101      9.104
  Name = 
  3 active torsions:
  status: ('A' for Active; 'I' for Inactive)
    1  A    between atoms: N_3  and  C_13
    2  A    between atoms: C_12  and  C_28
    3  A    between atoms: N_17  and  C_29
                            x       y       z     vdW  Elec       q    Type
                         _______ _______ _______ _____ _____    ______ ____

>  <TORSDO>
F 3

$$$$
=
 OpenBabel11062407433D

 34 39  0  0  1  0  0  0  0  0999 V2000
  161.1650  205.1780  149.8120 C   0  0  0  0  0  0  0  0  0  0  0  0
  160.8590  206.7340  147.9040 C   0  0  0  0  0  3  0  0  0  0  0  0
  161.1920  207.5750  150.3240 C   0  0  0  0  0  0  0  0  0  0  0  0
  161.5660  209.8920  150.9040 C   0  0  0  0  0  0  0  0  0  0  0  0
  162.1120  203.9360  147.8940 C   0  0  0  0  0  3  0  0  0  0  0  0
  162.2160  204.8620  146.9430 C   0  0  0  0  0  3  0  0  0  0  0  0
  161.5630  209.4210  148.6350 C   0  0  0  0  0  3  0  0  0  0  0  0
  161.0780  206.4430  149.3450 C   0  0  0  0  0  0  0  0  0  0  0  0
  161.8550  211.3930  150.2160 S   0  0  0  0  0  0  0  0  0  0  0  0
  161.0390  203.9780  148.9290 C   0  0  0  0  0  2  0  0  0  0  0  0
  161.1360  207.2980  151.7180 C   0  0  0  0  0  0  0  0  0  0  0  0
  161.3420  204.9490  151.1780 O   0  0  0  0  0  0  0  0  0  0  0  0
  161.3600  206.0580  146.8600 C   0  0  0  0  0  3  0  0  0  0  0  0
  161.4910  209.6250  152.2260 N   0  0  0  0  0  0  0  0  0  0  0  0
  161.2650  208.3550  152.6680 C   0  0  0  0  0  0  0  0  0  0  0  0
  161.8030  210.7910  148.6370 C   0  0  0  0  0  0  0  0  0  0  0  0
  161.4230  208.9130  149.9370 C   0  0  0  0  0  0  0  0  0  0  0  0
  160.9030  205.8820  152.1600 C   0  0  0  0  0  2  0  0  0  0  0  0
  161.9270  208.6060  156.4070 C   0  0  0  0  0  0  0  0  0  0  0  0
  161.0360  207.6510  156.9010 C   0  0  0  0  0  3  0  0  0  0  0  0
  161.1790  208.1480  154.1370 C   0  0  0  0  0  0  0  0  0  0  0  0
  160.2210  206.9370  156.0190 C   0  0  0  0  0  3  0  0  0  0  0  0
  162.0030  208.8480  155.0330 C   0  0  0  0  0  3  0  0  0  0  0  0
  160.2970  207.1810  154.6450 C   0  0  0  0  0  3  0  0  0  0  0  0
  162.7230  209.2950  157.2610 F   0  0  0  0  0  0  0  0  0  0  0  0
  161.0260  212.2260  146.9460 N   0  0  0  0  0  0  0  0  0  0  0  0
  161.9850  211.5670  147.4540 N   0  0  0  0  0  0  0  0  0  0  0  0
  163.0440  214.4530  146.6720 C   0  0  0  0  0  1  0  0  0  0  0  0
  161.2260  213.0120  145.7400 C   0  0  1  0  0  3  0  0  0  0  0  0
  162.6970  213.4190  145.6180 C   0  0  1  0  0  3  0  0  0  0  0  0
  162.6250  213.0730  143.2370 O   0  0  0  0  0  0  0  0  0  0  0  0
  161.2250  212.9370  143.2470 C   0  0  0  0  0  2  0  0  0  0  0  0
  160.7870  212.2060  144.5150 C   0  0  0  0  0  2  0  0  0  0  0  0
  162.9460  214.0150  144.2320 C   0  0  0  0  0  2  0  0  0  0  0  0
  1 12  1  0  0  0  0
  2  8  1  0  0  0  0
  3 11  1  0  0  0  0
  4 14  2  0  0  0  0
  5 10  1  0  0  0  0
  6  5  2  0  0  0  0
  7 16  2  0  0  0  0
  7 17  1  0  0  0  0
  8  1  2  0  0  0  0
  8  3  1  0  0  0  0
  9  4  1  0  0  0  0
 10  1  1  0  0  0  0
 11 18  1  0  0  0  0
 11 15  2  0  0  0  0
 12 18  1  0  0  0  0
 13  6  1  0  0  0  0
 13  2  2  0  0  0  0
 14 15  1  0  0  0  0
 15 21  1  0  0  0  0
 16  9  1  0  0  0  0
 17  3  2  0  0  0  0
 17  4  1  0  0  0  0
 19 20  1  0  0  0  0
 19 25  1  0  0  0  0
 21 24  2  0  0  0  0
 21 23  1  0  0  0  0
 22 20  2  0  0  0  0
 23 19  2  0  0  0  0
 24 22  1  0  0  0  0
 26 27  2  0  0  0  0
 27 16  1  0  0  0  0
 29 26  1  1  0  0  0
 30 29  1  0  0  0  0
 30 28  1  1  0  0  0
 31 32  1  0  0  0  0
 31 34  1  0  0  0  0
 32 33  1  0  0  0  0
 33 29  1  0  0  0  0
 34 30  1  0  0  0  0
M  END
>  <MODEL>
4

>  <REMARK>
 VINA RESULT:      -8.5      2.874      5.448
  Name = 
  3 active torsions:
  status: ('A' for Active; 'I' for Inactive)
    1  A    between atoms: N_3  and  C_13
    2  A    between atoms: C_12  and  C_28
    3  A    between atoms: N_17  and  C_29
                            x       y       z     vdW  Elec       q    Type
                         _______ _______ _______ _____ _____    ______ ____

>  <TORSDO>
F 3

$$$$
=
 OpenBabel11062407433D

 34 39  0  0  1  0  0  0  0  0999 V2000
  161.2440  209.1320  153.1600 C   0  0  0  0  0  0  0  0  0  0  0  0
  160.4530  206.8410  152.6330 C   0  0  0  0  0  3  0  0  0  0  0  0
  161.3050  208.4560  150.8040 C   0  0  0  0  0  0  0  0  0  0  0  0
  161.7210  207.7980  148.5160 C   0  0  0  0  0  0  0  0  0  0  0  0
  161.7680  207.8530  155.2110 C   0  0  0  0  0  3  0  0  0  0  0  0
  161.6160  206.5840  154.8340 C   0  0  0  0  0  3  0  0  0  0  0  0
  161.2110  206.0700  149.9720 C   0  0  0  0  0  3  0  0  0  0  0  0
  161.0080  208.1650  152.2470 C   0  0  0  0  0  0  0  0  0  0  0  0
  161.7910  206.4490  147.5230 S   0  0  0  0  0  0  0  0  0  0  0  0
  160.9610  208.9580  154.6170 C   0  0  0  0  0  2  0  0  0  0  0  0
  161.5810  209.7930  150.4070 C   0  0  0  0  0  0  0  0  0  0  0  0
  161.7400  210.3720  152.7500 O   0  0  0  0  0  0  0  0  0  0  0  0
  160.7230  206.1480  153.7470 C   0  0  0  0  0  3  0  0  0  0  0  0
  161.9620  209.0730  148.1410 N   0  0  0  0  0  0  0  0  0  0  0  0
  161.8880  210.0910  149.0450 C   0  0  0  0  0  0  0  0  0  0  0  0
  161.3970  205.3840  148.7770 C   0  0  0  0  0  0  0  0  0  0  0  0
  161.3930  207.4530  149.8150 C   0  0  0  0  0  0  0  0  0  0  0  0
  161.5060  210.8800  151.4410 C   0  0  0  0  0  2  0  0  0  0  0  0
  161.3850  213.6170  147.7050 C   0  0  0  0  0  0  0  0  0  0  0  0
  162.7080  214.0280  147.5320 C   0  0  0  0  0  3  0  0  0  0  0  0
  162.1510  211.4660  148.5490 C   0  0  0  0  0  0  0  0  0  0  0  0
  163.7550  213.1620  147.8580 C   0  0  0  0  0  3  0  0  0  0  0  0
  161.1090  212.3410  148.2030 C   0  0  0  0  0  3  0  0  0  0  0  0
  163.4780  211.8870  148.3580 C   0  0  0  0  0  3  0  0  0  0  0  0
  160.3690  214.4530  147.3830 F   0  0  0  0  0  0  0  0  0  0  0  0
  160.6680  203.4500  147.6570 N   0  0  0  0  0  0  0  0  0  0  0  0
  161.2740  203.9690  148.6460 N   0  0  0  0  0  0  0  0  0  0  0  0
  159.6960  202.0140  145.1870 C   0  0  0  0  0  1  0  0  0  0  0  0
  160.5510  202.0070  147.5360 C   0  0  1  0  0  3  0  0  0  0  0  0
  160.8310  201.5780  146.0930 C   0  0  1  0  0  3  0  0  0  0  0  0
  162.0060  199.6260  146.8710 O   0  0  0  0  0  0  0  0  0  0  0  0
  161.5700  199.8270  148.1930 C   0  0  0  0  0  2  0  0  0  0  0  0
  161.5240  201.3230  148.4990 C   0  0  0  0  0  2  0  0  0  0  0  0
  160.9610  200.0550  146.0320 C   0  0  0  0  0  2  0  0  0  0  0  0
  1 10  1  0  0  0  0
  2 13  2  0  0  0  0
  3  8  1  0  0  0  0
  4 17  1  0  0  0  0
  6  5  2  0  0  0  0
  8  2  1  0  0  0  0
  8  1  2  0  0  0  0
  9  4  1  0  0  0  0
  9 16  1  0  0  0  0
 10  5  1  0  0  0  0
 11  3  1  0  0  0  0
 11 18  1  0  0  0  0
 12  1  1  0  0  0  0
 13  6  1  0  0  0  0
 14  4  2  0  0  0  0
 14 15  1  0  0  0  0
 15 11  2  0  0  0  0
 16  7  2  0  0  0  0
 17  7  1  0  0  0  0
 17  3  2  0  0  0  0
 18 12  1  0  0  0  0
 19 23  1  0  0  0  0
 20 19  2  0  0  0  0
 20 22  1  0  0  0  0
 21 15  1  0  0  0  0
 22 24  2  0  0  0  0
 23 21  2  0  0  0  0
 24 21  1  0  0  0  0
 25 19  1  0  0  0  0
 26 27  2  0  0  0  0
 27 16  1  0  0  0  0
 29 26  1  6  0  0  0
 29 33  1  0  0  0  0
 30 28  1  6  0  0  0
 30 29  1  0  0  0  0
 31 32  1  0  0  0  0
 32 33  1  0  0  0  0
 34 30  1  0  0  0  0
 34 31  1  0  0  0  0
M  END
>  <MODEL>
5

>  <REMARK>
 VINA RESULT:      -7.6      3.422      8.424
  Name = 
  3 active torsions:
  status: ('A' for Active; 'I' for Inactive)
    1  A    between atoms: N_3  and  C_13
    2  A    between atoms: C_12  and  C_28
    3  A    between atoms: N_17  and  C_29
                            x       y       z     vdW  Elec       q    Type
                         _______ _______ _______ _____ _____    ______ ____

>  <TORSDO>
F 3

$$$$
=
 OpenBabel11062407433D

 34 39  0  0  1  0  0  0  0  0999 V2000
  161.2250  205.0030  152.4760 C   0  0  0  0  0  0  0  0  0  0  0  0
  161.9530  207.3330  152.0320 C   0  0  0  0  0  3  0  0  0  0  0  0
  161.5220  205.6400  150.1270 C   0  0  0  0  0  0  0  0  0  0  0  0
  161.4590  206.2370  147.7860 C   0  0  0  0  0  0  0  0  0  0  0  0
  160.2870  206.2760  154.3770 C   0  0  0  0  0  3  0  0  0  0  0  0
  160.4220  207.5460  154.0000 C   0  0  0  0  0  3  0  0  0  0  0  0
  161.6100  208.0150  149.2630 C   0  0  0  0  0  3  0  0  0  0  0  0
  161.5530  205.9710  151.5910 C   0  0  0  0  0  0  0  0  0  0  0  0
  161.4750  207.5640  146.7620 S   0  0  0  0  0  0  0  0  0  0  0  0
  161.2470  205.2160  153.9550 C   0  0  0  0  0  2  0  0  0  0  0  0
  161.3980  204.2830  149.7230 C   0  0  0  0  0  0  0  0  0  0  0  0
  160.8820  203.7290  152.0200 O   0  0  0  0  0  0  0  0  0  0  0  0
  161.4580  208.0230  153.0680 C   0  0  0  0  0  3  0  0  0  0  0  0
  161.3620  204.9440  147.4070 N   0  0  0  0  0  0  0  0  0  0  0  0
  161.3440  203.9460  148.3370 C   0  0  0  0  0  0  0  0  0  0  0  0
  161.5870  208.6700  148.0370 C   0  0  0  0  0  0  0  0  0  0  0  0
  161.5410  206.6210  149.1120 C   0  0  0  0  0  0  0  0  0  0  0  0
  161.3640  203.2180  150.7820 C   0  0  0  0  0  2  0  0  0  0  0  0
  160.6610  200.9260  146.1240 C   0  0  0  0  0  0  0  0  0  0  0  0
  161.0180  199.8820  146.9800 C   0  0  0  0  0  3  0  0  0  0  0  0
  161.2530  202.5500  147.8380 C   0  0  0  0  0  0  0  0  0  0  0  0
  161.4850  200.1640  148.2660 C   0  0  0  0  0  3  0  0  0  0  0  0
  160.7710  202.2510  146.5540 C   0  0  0  0  0  3  0  0  0  0  0  0
  161.5960  201.4900  148.6940 C   0  0  0  0  0  3  0  0  0  0  0  0
  160.2020  200.6540  144.8780 F   0  0  0  0  0  0  0  0  0  0  0  0
  161.6380  210.8530  148.9070 N   0  0  0  0  0  0  0  0  0  0  0  0
  161.6440  210.0890  147.8930 N   0  0  0  0  0  0  0  0  0  0  0  0
  163.9280  212.3400  147.6220 C   0  0  0  0  0  1  0  0  0  0  0  0
  161.6960  212.2960  148.7460 C   0  0  1  0  0  3  0  0  0  0  0  0
  162.4520  212.6500  147.4620 C   0  0  1  0  0  3  0  0  0  0  0  0
  160.9190  214.4530  147.0220 O   0  0  0  0  0  0  0  0  0  0  0  0
  160.3410  214.3420  148.2990 C   0  0  0  0  0  2  0  0  0  0  0  0
  160.2780  212.8730  148.7120 C   0  0  0  0  0  2  0  0  0  0  0  0
  162.2830  214.1410  147.1690 C   0  0  0  0  0  2  0  0  0  0  0  0
  1 10  1  0  0  0  0
  2 13  2  0  0  0  0
  3  8  1  0  0  0  0
  4 17  1  0  0  0  0
  6  5  2  0  0  0  0
  8  2  1  0  0  0  0
  8  1  2  0  0  0  0
  9  4  1  0  0  0  0
  9 16  1  0  0  0  0
 10  5  1  0  0  0  0
 11  3  1  0  0  0  0
 11 18  1  0  0  0  0
 12  1  1  0  0  0  0
 13  6  1  0  0  0  0
 14  4  2  0  0  0  0
 14 15  1  0  0  0  0
 15 11  2  0  0  0  0
 16  7  2  0  0  0  0
 17  7  1  0  0  0  0
 17  3  2  0  0  0  0
 18 12  1  0  0  0  0
 19 23  2  0  0  0  0
 19 20  1  0  0  0  0
 20 22  2  0  0  0  0
 21 15  1  0  0  0  0
 21 24  2  0  0  0  0
 22 24  1  0  0  0  0
 23 21  1  0  0  0  0
 25 19  1  0  0  0  0
 27 16  1  0  0  0  0
 27 26  2  0  0  0  0
 29 26  1  6  0  0  0
 30 28  1  1  0  0  0
 30 29  1  0  0  0  0
 31 34  1  0  0  0  0
 31 32  1  0  0  0  0
 32 33  1  0  0  0  0
 33 29  1  0  0  0  0
 34 30  1  0  0  0  0
M  END
>  <MODEL>
6

>  <REMARK>
 VINA RESULT:      -7.4      1.791      2.664
  Name = 
  3 active torsions:
  status: ('A' for Active; 'I' for Inactive)
    1  A    between atoms: N_3  and  C_13
    2  A    between atoms: C_12  and  C_28
    3  A    between atoms: N_17  and  C_29
                            x       y       z     vdW  Elec       q    Type
                         _______ _______ _______ _____ _____    ______ ____

>  <TORSDO>
F 3

$$$$
