=
 OpenBabel11052423083D

 27 31  0  0  1  0  0  0  0  0999 V2000
  160.6260  207.5620  153.0420 C   0  0  0  0  0  2  0  0  0  0  0  0
  160.8190  210.0020  152.6010 C   0  0  0  0  0  0  0  0  0  0  0  0
  162.2080  209.2380  150.7420 N   0  0  0  0  0  2  0  0  0  0  0  0
  159.7210  213.5020  150.6570 C   0  0  0  0  0  3  0  0  0  0  0  0
  160.2440  213.8510  149.4150 C   0  0  0  0  0  3  0  0  0  0  0  0
  159.9780  210.9120  153.1520 N   0  0  0  0  0  0  0  0  0  0  0  0
  161.5810  211.8240  149.3930 C   0  0  0  0  0  0  0  0  0  0  0  0
  161.2500  206.9440  147.9690 C   0  0  0  0  0  3  0  0  0  0  0  0
  162.6430  211.0590  148.6810 C   0  0  0  0  0  1  0  0  0  0  0  0
  160.9970  205.7580  148.6590 C   0  0  0  0  0  3  0  0  0  0  0  0
  161.0280  211.4330  150.6460 C   0  0  0  0  0  0  0  0  0  0  0  0
  161.2090  208.8580  153.3610 N   0  0  0  0  0  0  0  0  0  0  0  0
  161.1750  213.0200  148.7950 C   0  0  0  0  0  3  0  0  0  0  0  0
  160.1130  212.3140  151.2770 C   0  0  0  0  0  0  0  0  0  0  0  0
  161.5180  206.7980  152.1880 N   0  0  0  0  0  2  0  0  0  0  0  0
  161.3380  210.2200  151.3160 C   0  0  0  0  0  0  0  0  0  0  0  0
  161.6150  208.0930  148.6730 C   0  0  0  0  0  3  0  0  0  0  0  0
  159.6230  212.0200  152.5060 N   0  0  0  0  0  0  0  0  0  0  0  0
  161.0990  205.7250  150.0510 C   0  0  0  0  0  3  0  0  0  0  0  0
  161.4430  206.8780  150.7660 C   0  0  0  0  0  0  0  0  0  0  0  0
  161.7110  208.0760  150.0700 C   0  0  0  0  0  0  0  0  0  0  0  0
  162.6070  209.8760  157.2600 C   0  0  0  0  0  3  0  0  0  0  0  0
  161.9430  209.0600  154.6070 C   0  0  2  0  0  3  0  0  0  0  0  0
  161.2040  208.4210  155.7860 C   0  0  0  0  0  2  0  0  0  0  0  0
  161.7980  208.8140  157.1140 C   0  0  0  0  0  3  0  0  0  0  0  0
  163.0760  210.7040  156.0910 C   0  0  0  0  0  2  0  0  0  0  0  0
  162.1690  210.5460  154.8730 C   0  0  0  0  0  2  0  0  0  0  0  0
  1 12  1  0  0  0  0
  2  6  1  0  0  0  0
  2 12  1  0  0  0  0
  3 16  1  0  0  0  0
  4 14  1  0  0  0  0
  5  4  2  0  0  0  0
  7 11  1  0  0  0  0
  8 10  2  0  0  0  0
  8 17  1  0  0  0  0
  9  7  1  0  0  0  0
 10 19  1  0  0  0  0
 11 14  2  0  0  0  0
 11 16  1  0  0  0  0
 13  7  2  0  0  0  0
 13  5  1  0  0  0  0
 14 18  1  0  0  0  0
 15  1  1  0  0  0  0
 16  2  2  0  0  0  0
 17 21  2  0  0  0  0
 18  6  2  0  0  0  0
 19 20  2  0  0  0  0
 20 15  1  0  0  0  0
 21  3  1  0  0  0  0
 21 20  1  0  0  0  0
 23 12  1  6  0  0  0
 23 27  1  0  0  0  0
 23 24  1  0  0  0  0
 24 25  1  0  0  0  0
 25 22  2  0  0  0  0
 26 22  1  0  0  0  0
 27 26  1  0  0  0  0
M  END
>  <MODEL>
1

>  <REMARK>
 VINA RESULT:      -6.9      0.000      0.000
  Name = 
  1 active torsions:
  status: ('A' for Active; 'I' for Inactive)
    1  A    between atoms: C_9  and  N_15
                            x       y       z     vdW  Elec       q    Type
                         _______ _______ _______ _____ _____    ______ ____

>  <TORSDO>
F 1

$$$$
=
 OpenBabel11052423083D

 27 31  0  0  1  0  0  0  0  0999 V2000
  162.2280  206.7380  153.2720 C   0  0  0  0  0  2  0  0  0  0  0  0
  161.4990  208.3570  151.5300 C   0  0  0  0  0  0  0  0  0  0  0  0
  159.9990  209.1110  153.3050 N   0  0  0  0  0  2  0  0  0  0  0  0
  161.5690  212.0710  149.6790 C   0  0  0  0  0  3  0  0  0  0  0  0
  160.7930  213.1350  150.1300 C   0  0  0  0  0  3  0  0  0  0  0  0
  162.2280  208.6040  150.4130 N   0  0  0  0  0  0  0  0  0  0  0  0
  159.8860  211.7400  151.8990 C   0  0  0  0  0  0  0  0  0  0  0  0
  160.9150  210.3560  156.6930 C   0  0  0  0  0  3  0  0  0  0  0  0
  158.8900  211.6470  153.0030 C   0  0  0  0  0  1  0  0  0  0  0  0
  161.5010  209.2240  157.2600 C   0  0  0  0  0  3  0  0  0  0  0  0
  160.7010  210.6530  151.4750 C   0  0  0  0  0  0  0  0  0  0  0  0
  161.4660  207.0340  152.0660 N   0  0  0  0  0  0  0  0  0  0  0  0
  159.9510  212.9640  151.2270 C   0  0  0  0  0  3  0  0  0  0  0  0
  161.5200  210.8380  150.3310 C   0  0  0  0  0  0  0  0  0  0  0  0
  161.3730  206.8020  154.4450 N   0  0  0  0  0  2  0  0  0  0  0  0
  160.7440  209.3860  152.1140 C   0  0  0  0  0  0  0  0  0  0  0  0
  160.4550  210.3140  155.3750 C   0  0  0  0  0  3  0  0  0  0  0  0
  162.2510  209.8060  149.8440 N   0  0  0  0  0  0  0  0  0  0  0  0
  161.6360  208.0560  156.5070 C   0  0  0  0  0  3  0  0  0  0  0  0
  161.1980  208.0130  155.1780 C   0  0  0  0  0  0  0  0  0  0  0  0
  160.5940  209.1520  154.6050 C   0  0  0  0  0  0  0  0  0  0  0  0
  160.7320  203.6200  149.6170 C   0  0  0  0  0  3  0  0  0  0  0  0
  160.9210  205.9560  151.2460 C   0  0  2  0  0  3  0  0  0  0  0  0
  161.2180  204.5900  151.8710 C   0  0  0  0  0  2  0  0  0  0  0  0
  160.8900  203.4510  150.9390 C   0  0  0  0  0  3  0  0  0  0  0  0
  160.7630  204.9790  148.9640 C   0  0  0  0  0  2  0  0  0  0  0  0
  161.4790  206.0160  149.8260 C   0  0  0  0  0  2  0  0  0  0  0  0
  1 15  1  0  0  0  0
  2 12  1  0  0  0  0
  2 16  1  0  0  0  0
  3 21  1  0  0  0  0
  4  5  2  0  0  0  0
  4 14  1  0  0  0  0
  5 13  1  0  0  0  0
  6  2  2  0  0  0  0
  7  9  1  0  0  0  0
  8 10  1  0  0  0  0
 11  7  1  0  0  0  0
 11 16  2  0  0  0  0
 12  1  1  0  0  0  0
 13  7  2  0  0  0  0
 14 11  1  0  0  0  0
 15 20  1  0  0  0  0
 16  3  1  0  0  0  0
 17  8  2  0  0  0  0
 18 14  2  0  0  0  0
 18  6  1  0  0  0  0
 19 10  2  0  0  0  0
 20 19  1  0  0  0  0
 21 20  2  0  0  0  0
 21 17  1  0  0  0  0
 22 25  2  0  0  0  0
 23 27  1  6  0  0  0
 23 24  1  0  0  0  0
 23 12  1  0  0  0  0
 25 24  1  0  0  0  0
 26 22  1  0  0  0  0
 26 27  1  0  0  0  0
M  END
>  <MODEL>
2

>  <REMARK>
 VINA RESULT:      -6.8      1.425      5.458
  Name = 
  1 active torsions:
  status: ('A' for Active; 'I' for Inactive)
    1  A    between atoms: C_9  and  N_15
                            x       y       z     vdW  Elec       q    Type
                         _______ _______ _______ _____ _____    ______ ____

>  <TORSDO>
F 1

$$$$
=
 OpenBabel11052423083D

 27 31  0  0  1  0  0  0  0  0999 V2000
  160.2380  209.1430  153.1900 C   0  0  0  0  0  2  0  0  0  0  0  0
  160.3820  211.4340  152.2320 C   0  0  0  0  0  0  0  0  0  0  0  0
  162.0950  210.4010  150.8300 N   0  0  0  0  0  2  0  0  0  0  0  0
  159.4520  214.3140  149.3910 C   0  0  0  0  0  3  0  0  0  0  0  0
  160.1550  214.4250  148.1950 C   0  0  0  0  0  3  0  0  0  0  0  0
  159.4170  212.3670  152.4250 N   0  0  0  0  0  0  0  0  0  0  0  0
  161.5750  212.5640  148.8430 C   0  0  0  0  0  0  0  0  0  0  0  0
  161.7240  207.4800  148.5490 C   0  0  0  0  0  3  0  0  0  0  0  0
  162.7770  211.7550  148.4940 C   0  0  0  0  0  1  0  0  0  0  0  0
  161.4180  206.4580  149.4480 C   0  0  0  0  0  3  0  0  0  0  0  0
  160.8420  212.4120  150.0540 C   0  0  0  0  0  0  0  0  0  0  0  0
  160.6960  210.5230  153.2850 N   0  0  0  0  0  0  0  0  0  0  0  0
  161.2150  213.5610  147.9310 C   0  0  0  0  0  3  0  0  0  0  0  0
  159.7930  213.3290  150.3200 C   0  0  0  0  0  0  0  0  0  0  0  0
  161.2950  208.2880  152.6790 N   0  0  0  0  0  2  0  0  0  0  0  0
  161.0960  211.4070  151.0240 C   0  0  0  0  0  0  0  0  0  0  0  0
  161.9110  208.7830  149.0160 C   0  0  0  0  0  3  0  0  0  0  0  0
  159.1210  213.2720  151.4950 N   0  0  0  0  0  0  0  0  0  0  0  0
  161.2890  206.7410  150.8090 C   0  0  0  0  0  3  0  0  0  0  0  0
  161.4530  208.0480  151.2820 C   0  0  0  0  0  0  0  0  0  0  0  0
  161.7740  209.0820  150.3770 C   0  0  0  0  0  0  0  0  0  0  0  0
  162.0830  211.2280  157.2570 C   0  0  0  0  0  3  0  0  0  0  0  0
  161.2030  211.0550  154.5470 C   0  0  2  0  0  3  0  0  0  0  0  0
  162.5060  210.3600  154.9490 C   0  0  0  0  0  2  0  0  0  0  0  0
  162.9280  210.7040  156.3550 C   0  0  0  0  0  3  0  0  0  0  0  0
  160.6690  211.6180  156.9110 C   0  0  0  0  0  2  0  0  0  0  0  0
  160.1650  210.9060  155.6570 C   0  0  0  0  0  2  0  0  0  0  0  0
  1 12  1  0  0  0  0
  2  6  1  0  0  0  0
  2 12  1  0  0  0  0
  3 16  1  0  0  0  0
  4 14  1  0  0  0  0
  5  4  2  0  0  0  0
  7 11  1  0  0  0  0
  8 17  2  0  0  0  0
  8 10  1  0  0  0  0
  9  7  1  0  0  0  0
 10 19  2  0  0  0  0
 11 14  2  0  0  0  0
 11 16  1  0  0  0  0
 13  5  1  0  0  0  0
 13  7  2  0  0  0  0
 14 18  1  0  0  0  0
 15  1  1  0  0  0  0
 16  2  2  0  0  0  0
 17 21  1  0  0  0  0
 18  6  2  0  0  0  0
 19 20  1  0  0  0  0
 20 15  1  0  0  0  0
 21  3  1  0  0  0  0
 21 20  2  0  0  0  0
 23 12  1  6  0  0  0
 23 24  1  0  0  0  0
 23 27  1  0  0  0  0
 24 25  1  0  0  0  0
 25 22  2  0  0  0  0
 26 22  1  0  0  0  0
 27 26  1  0  0  0  0
M  END
>  <MODEL>
3

>  <REMARK>
 VINA RESULT:      -6.6      1.156      1.573
  Name = 
  1 active torsions:
  status: ('A' for Active; 'I' for Inactive)
    1  A    between atoms: C_9  and  N_15
                            x       y       z     vdW  Elec       q    Type
                         _______ _______ _______ _____ _____    ______ ____

>  <TORSDO>
F 1

$$$$
=
 OpenBabel11052423083D

 27 31  0  0  1  0  0  0  0  0999 V2000
  161.8030  208.7480  154.1460 C   0  0  0  0  0  2  0  0  0  0  0  0
  161.2420  209.7740  151.9510 C   0  0  0  0  0  0  0  0  0  0  0  0
  159.4860  210.8570  153.2590 N   0  0  0  0  0  2  0  0  0  0  0  0
  161.3950  212.8460  149.1640 C   0  0  0  0  0  3  0  0  0  0  0  0
  160.5200  213.9280  149.2090 C   0  0  0  0  0  3  0  0  0  0  0  0
  162.1030  209.7690  150.9020 N   0  0  0  0  0  0  0  0  0  0  0  0
  159.4460  212.9930  151.1770 C   0  0  0  0  0  0  0  0  0  0  0  0
  159.8830  213.0370  156.2520 C   0  0  0  0  0  3  0  0  0  0  0  0
  158.3160  213.1220  152.1390 C   0  0  0  0  0  1  0  0  0  0  0  0
  160.4380  212.1500  157.1750 C   0  0  0  0  0  3  0  0  0  0  0  0
  160.3590  211.9000  151.1680 C   0  0  0  0  0  0  0  0  0  0  0  0
  161.1970  208.6470  152.8250 N   0  0  0  0  0  0  0  0  0  0  0  0
  159.5470  213.9920  150.2040 C   0  0  0  0  0  3  0  0  0  0  0  0
  161.3140  211.8350  150.1220 C   0  0  0  0  0  0  0  0  0  0  0  0
  160.7960  209.0570  155.1470 N   0  0  0  0  0  2  0  0  0  0  0  0
  160.3720  210.8590  152.1340 C   0  0  0  0  0  0  0  0  0  0  0  0
  159.6060  212.6060  154.9530 C   0  0  0  0  0  3  0  0  0  0  0  0
  162.1490  210.7720  150.0290 N   0  0  0  0  0  0  0  0  0  0  0  0
  160.7240  210.8370  156.7960 C   0  0  0  0  0  3  0  0  0  0  0  0
  160.4710  210.4030  155.4900 C   0  0  0  0  0  0  0  0  0  0  0  0
  159.8990  211.2940  154.5570 C   0  0  0  0  0  0  0  0  0  0  0  0
  160.9690  204.7320  151.1470 C   0  0  0  0  0  3  0  0  0  0  0  0
  160.8140  207.3480  152.2780 C   0  0  2  0  0  3  0  0  0  0  0  0
  161.3920  206.2080  153.1220 C   0  0  0  0  0  2  0  0  0  0  0  0
  161.2270  204.8650  152.4580 C   0  0  0  0  0  3  0  0  0  0  0  0
  160.7140  205.9140  150.2470 C   0  0  0  0  0  2  0  0  0  0  0  0
  161.2730  207.2110  150.8280 C   0  0  0  0  0  2  0  0  0  0  0  0
  1 15  1  0  0  0  0
  2 16  1  0  0  0  0
  2 12  1  0  0  0  0
  3 21  1  0  0  0  0
  4  5  2  0  0  0  0
  4 14  1  0  0  0  0
  5 13  1  0  0  0  0
  6  2  2  0  0  0  0
  7  9  1  0  0  0  0
  8 10  1  0  0  0  0
 11  7  1  0  0  0  0
 11 16  2  0  0  0  0
 12  1  1  0  0  0  0
 13  7  2  0  0  0  0
 14 11  1  0  0  0  0
 15 20  1  0  0  0  0
 16  3  1  0  0  0  0
 17  8  2  0  0  0  0
 18 14  2  0  0  0  0
 18  6  1  0  0  0  0
 19 10  2  0  0  0  0
 20 19  1  0  0  0  0
 21 17  1  0  0  0  0
 21 20  2  0  0  0  0
 22 25  2  0  0  0  0
 23 27  1  6  0  0  0
 23 12  1  0  0  0  0
 23 24  1  0  0  0  0
 25 24  1  0  0  0  0
 26 27  1  0  0  0  0
 26 22  1  0  0  0  0
M  END
>  <MODEL>
4

>  <REMARK>
 VINA RESULT:      -6.3      1.675      5.323
  Name = 
  1 active torsions:
  status: ('A' for Active; 'I' for Inactive)
    1  A    between atoms: C_9  and  N_15
                            x       y       z     vdW  Elec       q    Type
                         _______ _______ _______ _____ _____    ______ ____

>  <TORSDO>
F 1

$$$$
=
 OpenBabel11052423083D

 27 31  0  0  1  0  0  0  0  0999 V2000
  162.3180  207.1040  151.7820 C   0  0  0  0  0  2  0  0  0  0  0  0
  161.5840  209.0410  150.4050 C   0  0  0  0  0  0  0  0  0  0  0  0
  160.0660  209.4010  152.2840 N   0  0  0  0  0  2  0  0  0  0  0  0
  161.6310  213.0570  149.3600 C   0  0  0  0  0  3  0  0  0  0  0  0
  160.8430  213.9990  150.0140 C   0  0  0  0  0  3  0  0  0  0  0  0
  162.3180  209.5190  149.3690 N   0  0  0  0  0  0  0  0  0  0  0  0
  159.9370  212.2630  151.4500 C   0  0  0  0  0  0  0  0  0  0  0  0
  160.9470  209.9280  155.8640 C   0  0  0  0  0  3  0  0  0  0  0  0
  158.9340  211.9360  152.5020 C   0  0  0  0  0  1  0  0  0  0  0  0
  161.5400  208.7080  156.1900 C   0  0  0  0  0  3  0  0  0  0  0  0
  160.7650  211.2930  150.8170 C   0  0  0  0  0  0  0  0  0  0  0  0
  161.5610  207.6360  150.6570 N   0  0  0  0  0  0  0  0  0  0  0  0
  159.9950  213.5990  151.0450 C   0  0  0  0  0  3  0  0  0  0  0  0
  161.5900  211.7160  149.7430 C   0  0  0  0  0  0  0  0  0  0  0  0
  161.4540  206.9180  152.9350 N   0  0  0  0  0  2  0  0  0  0  0  0
  160.8160  209.9210  151.1820 C   0  0  0  0  0  0  0  0  0  0  0  0
  160.4960  210.1550  154.5620 C   0  0  0  0  0  3  0  0  0  0  0  0
  162.3350  210.8130  149.0600 N   0  0  0  0  0  0  0  0  0  0  0  0
  161.6910  207.7220  155.2130 C   0  0  0  0  0  3  0  0  0  0  0  0
  161.2620  207.9500  153.9010 C   0  0  0  0  0  0  0  0  0  0  0  0
  160.6520  209.1780  153.5700 C   0  0  0  0  0  0  0  0  0  0  0  0
  160.8780  204.8160  147.5300 C   0  0  0  0  0  3  0  0  0  0  0  0
  161.0310  206.7460  149.6270 C   0  0  2  0  0  3  0  0  0  0  0  0
  161.3770  205.2870  149.9360 C   0  0  0  0  0  2  0  0  0  0  0  0
  161.0640  204.3680  148.7820 C   0  0  0  0  0  3  0  0  0  0  0  0
  160.8610  206.2840  147.1890 C   0  0  0  0  0  2  0  0  0  0  0  0
  161.5620  207.1300  148.2480 C   0  0  0  0  0  2  0  0  0  0  0  0
  1 15  1  0  0  0  0
  2 12  1  0  0  0  0
  2 16  1  0  0  0  0
  3 21  1  0  0  0  0
  4 14  1  0  0  0  0
  4  5  2  0  0  0  0
  5 13  1  0  0  0  0
  6  2  2  0  0  0  0
  7  9  1  0  0  0  0
  8 10  1  0  0  0  0
 11 16  2  0  0  0  0
 11  7  1  0  0  0  0
 12  1  1  0  0  0  0
 13  7  2  0  0  0  0
 14 11  1  0  0  0  0
 15 20  1  0  0  0  0
 16  3  1  0  0  0  0
 17  8  2  0  0  0  0
 18  6  1  0  0  0  0
 18 14  2  0  0  0  0
 19 10  2  0  0  0  0
 20 19  1  0  0  0  0
 21 20  2  0  0  0  0
 21 17  1  0  0  0  0
 22 25  2  0  0  0  0
 23 27  1  6  0  0  0
 23 24  1  0  0  0  0
 23 12  1  0  0  0  0
 25 24  1  0  0  0  0
 26 22  1  0  0  0  0
 26 27  1  0  0  0  0
M  END
>  <MODEL>
5

>  <REMARK>
 VINA RESULT:      -5.0      1.284      5.464
  Name = 
  1 active torsions:
  status: ('A' for Active; 'I' for Inactive)
    1  A    between atoms: C_9  and  N_15
                            x       y       z     vdW  Elec       q    Type
                         _______ _______ _______ _____ _____    ______ ____

>  <TORSDO>
F 1

$$$$
=
 OpenBabel11052423083D

 27 31  0  0  1  0  0  0  0  0999 V2000
  162.3320  208.6050  150.0310 C   0  0  0  0  0  2  0  0  0  0  0  0
  161.9830  209.6810  152.2460 C   0  0  0  0  0  0  0  0  0  0  0  0
  160.4350  207.8180  152.5570 N   0  0  0  0  0  2  0  0  0  0  0  0
  162.7050  210.0750  156.3150 C   0  0  0  0  0  3  0  0  0  0  0  0
  162.0340  209.3050  157.2610 C   0  0  0  0  0  3  0  0  0  0  0  0
  162.8390  210.6040  152.7510 N   0  0  0  0  0  0  0  0  0  0  0  0
  160.7930  208.1920  155.4950 C   0  0  0  0  0  0  0  0  0  0  0  0
  161.1830  204.1740  152.3880 C   0  0  0  0  0  3  0  0  0  0  0  0
  159.6940  207.2370  155.1780 C   0  0  0  0  0  1  0  0  0  0  0  0
  161.5620  204.0250  151.0530 C   0  0  0  0  0  3  0  0  0  0  0  0
  161.4970  208.9440  154.5110 C   0  0  0  0  0  0  0  0  0  0  0  0
  161.7310  209.6550  150.8410 N   0  0  0  0  0  0  0  0  0  0  0  0
  161.0780  208.3780  156.8500 C   0  0  0  0  0  3  0  0  0  0  0  0
  162.4370  209.9100  154.9550 C   0  0  0  0  0  0  0  0  0  0  0  0
  161.3870  207.5240  149.8130 N   0  0  0  0  0  2  0  0  0  0  0  0
  161.3170  208.7990  153.1100 C   0  0  0  0  0  0  0  0  0  0  0  0
  160.8460  205.4370  152.8780 C   0  0  0  0  0  3  0  0  0  0  0  0
  163.0710  210.7030  154.0580 N   0  0  0  0  0  0  0  0  0  0  0  0
  161.6160  205.1410  150.2150 C   0  0  0  0  0  3  0  0  0  0  0  0
  161.3010  206.4140  150.7050 C   0  0  0  0  0  0  0  0  0  0  0  0
  160.9060  206.5650  152.0510 C   0  0  0  0  0  0  0  0  0  0  0  0
  160.7080  213.5060  149.3180 C   0  0  0  0  0  3  0  0  0  0  0  0
  161.1300  210.8290  150.2140 C   0  0  2  0  0  3  0  0  0  0  0  0
  162.0510  211.4030  149.1340 C   0  0  0  0  0  2  0  0  0  0  0  0
  161.5810  212.7470  148.6370 C   0  0  0  0  0  3  0  0  0  0  0  0
  160.0390  213.0340  150.5840 C   0  0  0  0  0  2  0  0  0  0  0  0
  160.8100  211.9000  151.2540 C   0  0  0  0  0  2  0  0  0  0  0  0
  1 12  1  0  0  0  0
  2  6  2  0  0  0  0
  2 16  1  0  0  0  0
  3 16  1  0  0  0  0
  4  5  2  0  0  0  0
  6 18  1  0  0  0  0
  7 13  2  0  0  0  0
  8 17  1  0  0  0  0
  9  7  1  0  0  0  0
 10  8  2  0  0  0  0
 11 14  1  0  0  0  0
 11  7  1  0  0  0  0
 12  2  1  0  0  0  0
 13  5  1  0  0  0  0
 14  4  1  0  0  0  0
 15  1  1  0  0  0  0
 15 20  1  0  0  0  0
 16 11  2  0  0  0  0
 18 14  2  0  0  0  0
 19 20  2  0  0  0  0
 19 10  1  0  0  0  0
 20 21  1  0  0  0  0
 21  3  1  0  0  0  0
 21 17  2  0  0  0  0
 22 26  1  0  0  0  0
 23 24  1  6  0  0  0
 23 12  1  0  0  0  0
 23 27  1  0  0  0  0
 25 24  1  0  0  0  0
 25 22  2  0  0  0  0
 26 27  1  0  0  0  0
M  END
>  <MODEL>
6

>  <REMARK>
 VINA RESULT:      -4.6      1.410      5.540
  Name = 
  1 active torsions:
  status: ('A' for Active; 'I' for Inactive)
    1  A    between atoms: C_9  and  N_15
                            x       y       z     vdW  Elec       q    Type
                         _______ _______ _______ _____ _____    ______ ____

>  <TORSDO>
F 1

$$$$
=
 OpenBabel11052423083D

 27 31  0  0  1  0  0  0  0  0999 V2000
  158.4120  212.6200  151.3200 C   0  0  0  0  0  2  0  0  0  0  0  0
  160.1020  211.1560  152.4100 C   0  0  0  0  0  0  0  0  0  0  0  0
  159.6870  212.6260  154.3160 N   0  0  0  0  0  2  0  0  0  0  0  0
  161.2200  207.9590  154.8100 C   0  0  0  0  0  3  0  0  0  0  0  0
  161.3160  208.0740  156.1930 C   0  0  0  0  0  3  0  0  0  0  0  0
  160.4560  209.9490  151.9020 N   0  0  0  0  0  0  0  0  0  0  0  0
  160.6570  210.4070  156.0590 C   0  0  0  0  0  0  0  0  0  0  0  0
  156.4490  213.2790  156.0340 C   0  0  0  0  0  3  0  0  0  0  0  0
  160.4760  211.6800  156.8130 C   0  0  0  0  0  1  0  0  0  0  0  0
  155.7100  213.8910  155.0210 C   0  0  0  0  0  3  0  0  0  0  0  0
  160.5160  210.2980  154.6460 C   0  0  0  0  0  0  0  0  0  0  0  0
  159.8010  212.2290  151.5180 N   0  0  0  0  0  0  0  0  0  0  0  0
  161.0450  209.2940  156.8090 C   0  0  0  0  0  3  0  0  0  0  0  0
  160.8370  209.0570  154.0370 C   0  0  0  0  0  0  0  0  0  0  0  0
  158.0770  213.7570  152.1600 N   0  0  0  0  0  2  0  0  0  0  0  0
  160.0860  211.3520  153.7990 C   0  0  0  0  0  0  0  0  0  0  0  0
  157.7480  212.8360  155.7770 C   0  0  0  0  0  3  0  0  0  0  0  0
  160.7950  208.9300  152.6890 N   0  0  0  0  0  0  0  0  0  0  0  0
  156.2670  214.0490  153.7500 C   0  0  0  0  0  3  0  0  0  0  0  0
  157.5600  213.5870  153.4780 C   0  0  0  0  0  0  0  0  0  0  0  0
  158.3140  212.9790  154.5040 C   0  0  0  0  0  0  0  0  0  0  0  0
  162.2010  213.5810  148.2610 C   0  0  0  0  0  3  0  0  0  0  0  0
  160.8450  212.7070  150.6150 C   0  0  2  0  0  3  0  0  0  0  0  0
  160.4560  214.0490  149.9910 C   0  0  0  0  0  2  0  0  0  0  0  0
  161.3870  214.4530  148.8760 C   0  0  0  0  0  3  0  0  0  0  0  0
  162.3320  212.1450  148.7020 C   0  0  0  0  0  2  0  0  0  0  0  0
  161.1300  211.6820  149.5200 C   0  0  0  0  0  2  0  0  0  0  0  0
  1 12  1  0  0  0  0
  1 15  1  0  0  0  0
  2 16  1  0  0  0  0
  3 21  1  0  0  0  0
  4  5  2  0  0  0  0
  5 13  1  0  0  0  0
  6  2  2  0  0  0  0
  6 18  1  0  0  0  0
  7 13  2  0  0  0  0
  7  9  1  0  0  0  0
 10  8  2  0  0  0  0
 11  7  1  0  0  0  0
 12  2  1  0  0  0  0
 14 11  1  0  0  0  0
 14  4  1  0  0  0  0
 15 20  1  0  0  0  0
 16  3  1  0  0  0  0
 16 11  2  0  0  0  0
 17  8  1  0  0  0  0
 18 14  2  0  0  0  0
 19 10  1  0  0  0  0
 20 19  2  0  0  0  0
 20 21  1  0  0  0  0
 21 17  2  0  0  0  0
 22 26  1  0  0  0  0
 22 25  2  0  0  0  0
 23 27  1  6  0  0  0
 23 12  1  0  0  0  0
 24 23  1  0  0  0  0
 25 24  1  0  0  0  0
 26 27  1  0  0  0  0
M  END
>  <MODEL>
7

>  <REMARK>
 VINA RESULT:      -4.5      2.677      7.424
  Name = 
  1 active torsions:
  status: ('A' for Active; 'I' for Inactive)
    1  A    between atoms: C_9  and  N_15
                            x       y       z     vdW  Elec       q    Type
                         _______ _______ _______ _____ _____    ______ ____

>  <TORSDO>
F 1

$$$$
