=
 OpenBabel11062408323D

 32 34  0  0  1  0  0  0  0  0999 V2000
  161.9740  208.9510  150.7030 N   0  0  0  0  0  0  0  0  0  0  0  0
  161.3090  208.2920  151.6110 C   0  0  0  0  0  0  0  0  0  0  0  0
  160.5550  208.9640  152.6330 N   0  0  0  0  0  2  0  0  0  0  0  0
  162.2810  210.2930  153.4820 O   0  0  0  0  0  0  0  0  0  0  0  0
  161.0530  210.0140  153.4730 C   0  0  0  0  0  0  0  0  0  0  0  0
  161.2410  206.8200  151.5270 C   0  0  0  0  0  0  0  0  0  0  0  0
  161.2700  206.0460  152.6970 C   0  0  0  0  0  3  0  0  0  0  0  0
  160.8730  202.7570  148.9020 C   0  0  0  0  0  3  0  0  0  0  0  0
  161.1370  206.1780  150.2820 C   0  0  0  0  0  3  0  0  0  0  0  0
  161.0080  202.6230  151.3190 C   0  0  0  0  0  3  0  0  0  0  0  0
  161.0880  204.0160  151.3930 C   0  0  0  0  0  0  0  0  0  0  0  0
  161.1940  204.6510  152.6310 C   0  0  0  0  0  3  0  0  0  0  0  0
  161.0600  204.7860  150.2090 C   0  0  0  0  0  0  0  0  0  0  0  0
  160.9010  201.9940  150.0740 C   0  0  0  0  0  3  0  0  0  0  0  0
  160.9520  204.1520  148.9680 C   0  0  0  0  0  3  0  0  0  0  0  0
  162.0270  210.4040  150.5720 C   0  0  0  0  0  2  0  0  0  0  0  0
  162.0280  210.8110  149.1330 C   0  0  0  0  0  0  0  0  0  0  0  0
  161.9060  209.9600  148.2670 O   0  0  0  0  0  0  0  0  0  0  0  0
  162.1370  212.2540  148.7520 C   0  0  0  0  0  2  0  0  0  0  0  0
  160.9030  212.7010  148.1200 N   0  0  0  0  0  0  0  0  0  0  0  0
  161.2710  213.6800  147.1050 C   0  0  1  0  0  3  0  0  0  0  0  0
  162.4740  213.1900  146.3210 C   0  0  0  0  0  2  0  0  0  0  0  0
  161.0890  213.0710  145.7260 C   0  0  2  0  0  3  0  0  0  0  0  0
  160.8970  214.0940  144.7990 O   0  0  0  0  0  1  0  0  0  0  0  0
  160.1440  213.4110  149.1400 C   0  0  0  0  0  2  0  0  0  0  0  0
  158.9450  214.0910  148.5050 C   0  0  0  0  0  2  0  0  0  0  0  0
  158.1930  213.4470  150.6180 C   0  0  0  0  0  1  0  0  0  0  0  0
  157.9420  214.3610  149.5180 N   0  0  0  0  0  2  0  0  0  0  0  0
  160.1910  210.7070  154.3240 O   0  0  0  0  0  0  0  0  0  0  0  0
  159.4400  210.0590  155.3450 C   0  0  0  0  0  2  0  0  0  0  0  0
  159.8470  207.6970  156.0190 C   0  0  0  0  0  1  0  0  0  0  0  0
  160.3250  209.1280  156.1580 C   0  0  0  0  0  2  0  0  0  0  0  0
  1  2  2  0  0  0  0
  2  3  1  0  0  0  0
  3  5  1  0  0  0  0
  5  4  2  0  0  0  0
  5 29  1  0  0  0  0
  6  2  1  0  0  0  0
  6  7  1  0  0  0  0
  8 15  2  0  0  0  0
  8 14  1  0  0  0  0
  9  6  2  0  0  0  0
 10 11  1  0  0  0  0
 11 12  1  0  0  0  0
 12  7  2  0  0  0  0
 13  9  1  0  0  0  0
 13 11  2  0  0  0  0
 14 10  2  0  0  0  0
 15 13  1  0  0  0  0
 16  1  1  0  0  0  0
 17 16  1  0  0  0  0
 18 17  2  0  0  0  0
 19 17  1  0  0  0  0
 20 19  1  0  0  0  0
 20 25  1  0  0  0  0
 21 20  1  1  0  0  0
 22 21  1  0  0  0  0
 23 24  1  6  0  0  0
 23 22  1  0  0  0  0
 23 21  1  0  0  0  0
 26 25  1  0  0  0  0
 26 28  1  0  0  0  0
 28 27  1  0  0  0  0
 29 30  1  0  0  0  0
 30 32  1  0  0  0  0
 31 32  1  0  0  0  0
M  END
>  <MODEL>
1

>  <REMARK>
 VINA RESULT:      -7.6      0.000      0.000
  Name = 
  12 active torsions:
  status: ('A' for Active; 'I' for Inactive)
    1  A    between atoms: N_1  and  C_4
    2  A    between atoms: C_2  and  C_5
    3  A    between atoms: C_3  and  N_20
    4  A    between atoms: C_4  and  C_24
    5  A    between atoms: C_13  and  O_18
    6  A    between atoms: C_13  and  C_29
    7  A    between atoms: C_15  and  N_20
    8  A    between atoms: C_15  and  C_26
    9  A    between atoms: C_16  and  N_20
   10  A    between atoms: C_16  and  C_24
   11  A    between atoms: O_18  and  C_30
   12  A    between atoms: N_19  and  C_26
                            x       y       z     vdW  Elec       q    Type
                         _______ _______ _______ _____ _____    ______ ____

>  <TORSDO>
F 12

$$$$
=
 OpenBabel11062408323D

 32 34  0  0  1  0  0  0  0  0999 V2000
  161.0530  207.1260  153.6030 N   0  0  0  0  0  0  0  0  0  0  0  0
  161.3920  206.9070  152.3620 C   0  0  0  0  0  0  0  0  0  0  0  0
  161.9960  207.9290  151.5520 N   0  0  0  0  0  2  0  0  0  0  0  0
  160.3510  209.5680  151.8240 O   0  0  0  0  0  0  0  0  0  0  0  0
  161.4930  209.2620  151.3900 C   0  0  0  0  0  0  0  0  0  0  0  0
  161.2490  205.5480  151.8050 C   0  0  0  0  0  0  0  0  0  0  0  0
  161.0300  204.4560  152.6580 C   0  0  0  0  0  3  0  0  0  0  0  0
  161.0900  202.5460  147.9970 C   0  0  0  0  0  3  0  0  0  0  0  0
  161.3220  205.3320  150.4190 C   0  0  0  0  0  3  0  0  0  0  0  0
  160.8000  201.6670  150.2380 C   0  0  0  0  0  3  0  0  0  0  0  0
  160.9510  202.9540  150.7630 C   0  0  0  0  0  0  0  0  0  0  0  0
  160.8820  203.1650  152.1410 C   0  0  0  0  0  3  0  0  0  0  0  0
  161.1730  204.0470  149.8950 C   0  0  0  0  0  0  0  0  0  0  0  0
  160.8700  201.4640  148.8560 C   0  0  0  0  0  3  0  0  0  0  0  0
  161.2410  203.8370  148.5150 C   0  0  0  0  0  3  0  0  0  0  0  0
  161.2540  208.3730  154.3340 C   0  0  0  0  0  2  0  0  0  0  0  0
  160.1870  208.5640  155.3640 C   0  0  0  0  0  0  0  0  0  0  0  0
  159.5600  207.5980  155.7690 O   0  0  0  0  0  0  0  0  0  0  0  0
  159.9120  209.9220  155.9290 C   0  0  0  0  0  2  0  0  0  0  0  0
  158.8520  210.5750  155.1730 N   0  0  0  0  0  0  0  0  0  0  0  0
  159.2710  211.9520  154.9460 C   0  0  1  0  0  3  0  0  0  0  0  0
  160.4590  211.9870  154.0040 C   0  0  0  0  0  2  0  0  0  0  0  0
  159.0770  212.3050  153.4820 C   0  0  2  0  0  3  0  0  0  0  0  0
  158.9380  213.6870  153.3620 O   0  0  0  0  0  1  0  0  0  0  0  0
  157.6860  210.6250  156.0450 C   0  0  0  0  0  2  0  0  0  0  0  0
  156.4600  211.0130  155.2390 C   0  0  0  0  0  2  0  0  0  0  0  0
  155.7240  213.2120  154.9720 C   0  0  0  0  0  1  0  0  0  0  0  0
  155.7610  212.0990  155.9040 N   0  0  0  0  0  2  0  0  0  0  0  0
  162.2410  210.2230  150.7090 O   0  0  0  0  0  0  0  0  0  0  0  0
  162.1420  210.4120  149.3020 C   0  0  0  0  0  2  0  0  0  0  0  0
  162.9960  212.4040  148.0740 C   0  0  0  0  0  1  0  0  0  0  0  0
  161.8930  211.8750  148.9700 C   0  0  0  0  0  2  0  0  0  0  0  0
  1 16  1  0  0  0  0
  2  1  2  0  0  0  0
  3  2  1  0  0  0  0
  5  3  1  0  0  0  0
  5  4  2  0  0  0  0
  6  2  1  0  0  0  0
  6  7  1  0  0  0  0
  8 15  2  0  0  0  0
  8 14  1  0  0  0  0
  9  6  2  0  0  0  0
 10 11  1  0  0  0  0
 11 12  1  0  0  0  0
 12  7  2  0  0  0  0
 13  9  1  0  0  0  0
 13 11  2  0  0  0  0
 14 10  2  0  0  0  0
 15 13  1  0  0  0  0
 16 17  1  0  0  0  0
 17 18  2  0  0  0  0
 17 19  1  0  0  0  0
 20 19  1  0  0  0  0
 20 25  1  0  0  0  0
 21 20  1  6  0  0  0
 22 21  1  0  0  0  0
 23 24  1  1  0  0  0
 23 22  1  0  0  0  0
 23 21  1  0  0  0  0
 26 28  1  0  0  0  0
 26 25  1  0  0  0  0
 27 28  1  0  0  0  0
 29  5  1  0  0  0  0
 30 29  1  0  0  0  0
 31 32  1  0  0  0  0
 32 30  1  0  0  0  0
M  END
>  <MODEL>
2

>  <REMARK>
 VINA RESULT:      -7.3      2.654      5.568
  Name = 
  12 active torsions:
  status: ('A' for Active; 'I' for Inactive)
    1  A    between atoms: N_1  and  C_4
    2  A    between atoms: C_2  and  C_5
    3  A    between atoms: C_3  and  N_20
    4  A    between atoms: C_4  and  C_24
    5  A    between atoms: C_13  and  O_18
    6  A    between atoms: C_13  and  C_29
    7  A    between atoms: C_15  and  N_20
    8  A    between atoms: C_15  and  C_26
    9  A    between atoms: C_16  and  N_20
   10  A    between atoms: C_16  and  C_24
   11  A    between atoms: O_18  and  C_30
   12  A    between atoms: N_19  and  C_26
                            x       y       z     vdW  Elec       q    Type
                         _______ _______ _______ _____ _____    ______ ____

>  <TORSDO>
F 12

$$$$
=
 OpenBabel11062408323D

 32 34  0  0  1  0  0  0  0  0999 V2000
  161.9850  209.7070  148.9530 N   0  0  0  0  0  0  0  0  0  0  0  0
  161.6270  208.6920  149.6900 C   0  0  0  0  0  0  0  0  0  0  0  0
  161.1520  208.8640  151.0350 N   0  0  0  0  0  2  0  0  0  0  0  0
  162.9800  210.0600  151.8690 O   0  0  0  0  0  0  0  0  0  0  0  0
  161.8120  209.6280  152.0540 C   0  0  0  0  0  0  0  0  0  0  0  0
  161.6090  207.3410  149.0960 C   0  0  0  0  0  0  0  0  0  0  0  0
  162.0680  207.1410  147.7850 C   0  0  0  0  0  3  0  0  0  0  0  0
  160.6790  202.5920  149.4460 C   0  0  0  0  0  3  0  0  0  0  0  0
  161.1420  206.2410  149.8350 C   0  0  0  0  0  3  0  0  0  0  0  0
  161.6040  203.4920  147.3930 C   0  0  0  0  0  3  0  0  0  0  0  0
  161.6050  204.7720  147.9530 C   0  0  0  0  0  0  0  0  0  0  0  0
  162.0660  205.8630  147.2160 C   0  0  0  0  0  3  0  0  0  0  0  0
  161.1390  204.9630  149.2740 C   0  0  0  0  0  0  0  0  0  0  0  0
  161.1400  202.4030  148.1390 C   0  0  0  0  0  3  0  0  0  0  0  0
  160.6780  203.8700  150.0140 C   0  0  0  0  0  3  0  0  0  0  0  0
  161.9320  211.1100  149.3510 C   0  0  0  0  0  2  0  0  0  0  0  0
  162.4730  211.9910  148.2710 C   0  0  0  0  0  0  0  0  0  0  0  0
  163.5910  211.7850  147.8280 O   0  0  0  0  0  0  0  0  0  0  0  0
  161.6380  213.0960  147.7040 C   0  0  0  0  0  2  0  0  0  0  0  0
  160.9080  212.6250  146.5350 N   0  0  0  0  0  0  0  0  0  0  0  0
  161.0380  213.6490  145.5060 C   0  0  1  0  0  3  0  0  0  0  0  0
  162.5030  213.9490  145.2510 C   0  0  0  0  0  2  0  0  0  0  0  0
  161.7400  213.0610  144.2940 C   0  0  2  0  0  3  0  0  0  0  0  0
  161.3900  213.7990  143.1640 O   0  0  0  0  0  1  0  0  0  0  0  0
  159.5010  212.5780  146.9110 C   0  0  0  0  0  2  0  0  0  0  0  0
  158.7410  213.6710  146.1830 C   0  0  0  0  0  2  0  0  0  0  0  0
  157.9470  213.7020  148.3780 C   0  0  0  0  0  1  0  0  0  0  0  0
  157.6760  214.1750  147.0330 N   0  0  0  0  0  2  0  0  0  0  0  0
  161.1860  209.8630  153.2790 O   0  0  0  0  0  0  0  0  0  0  0  0
  161.3350  208.9910  154.3930 C   0  0  0  0  0  2  0  0  0  0  0  0
  161.3610  206.5540  153.8800 C   0  0  0  0  0  1  0  0  0  0  0  0
  160.4840  207.7430  154.2200 C   0  0  0  0  0  2  0  0  0  0  0  0
  1 16  1  0  0  0  0
  1  2  2  0  0  0  0
  2  3  1  0  0  0  0
  3  5  1  0  0  0  0
  4  5  2  0  0  0  0
  5 29  1  0  0  0  0
  6  2  1  0  0  0  0
  6  9  1  0  0  0  0
  7  6  2  0  0  0  0
  8 15  2  0  0  0  0
 10 11  1  0  0  0  0
 10 14  2  0  0  0  0
 11 13  1  0  0  0  0
 12  7  1  0  0  0  0
 12 11  2  0  0  0  0
 13  9  2  0  0  0  0
 13 15  1  0  0  0  0
 14  8  1  0  0  0  0
 17 16  1  0  0  0  0
 18 17  2  0  0  0  0
 19 17  1  0  0  0  0
 20 25  1  0  0  0  0
 20 19  1  0  0  0  0
 21 20  1  1  0  0  0
 22 21  1  0  0  0  0
 23 24  1  6  0  0  0
 23 22  1  0  0  0  0
 23 21  1  0  0  0  0
 26 25  1  0  0  0  0
 26 28  1  0  0  0  0
 28 27  1  0  0  0  0
 29 30  1  0  0  0  0
 31 32  1  0  0  0  0
 32 30  1  0  0  0  0
M  END
>  <MODEL>
3

>  <REMARK>
 VINA RESULT:      -7.1      1.621      2.415
  Name = 
  12 active torsions:
  status: ('A' for Active; 'I' for Inactive)
    1  A    between atoms: N_1  and  C_4
    2  A    between atoms: C_2  and  C_5
    3  A    between atoms: C_3  and  N_20
    4  A    between atoms: C_4  and  C_24
    5  A    between atoms: C_13  and  O_18
    6  A    between atoms: C_13  and  C_29
    7  A    between atoms: C_15  and  N_20
    8  A    between atoms: C_15  and  C_26
    9  A    between atoms: C_16  and  N_20
   10  A    between atoms: C_16  and  C_24
   11  A    between atoms: O_18  and  C_30
   12  A    between atoms: N_19  and  C_26
                            x       y       z     vdW  Elec       q    Type
                         _______ _______ _______ _____ _____    ______ ____

>  <TORSDO>
F 12

$$$$
=
 OpenBabel11062408323D

 32 34  0  0  1  0  0  0  0  0999 V2000
  161.2840  209.3770  151.7290 N   0  0  0  0  0  0  0  0  0  0  0  0
  161.6660  208.9120  150.5720 C   0  0  0  0  0  0  0  0  0  0  0  0
  162.4250  209.7110  149.6490 N   0  0  0  0  0  2  0  0  0  0  0  0
  160.9590  211.5270  149.5170 O   0  0  0  0  0  0  0  0  0  0  0  0
  162.0820  211.0370  149.2270 C   0  0  0  0  0  0  0  0  0  0  0  0
  161.4060  207.4970  150.2430 C   0  0  0  0  0  0  0  0  0  0  0  0
  161.0640  207.1300  148.9320 C   0  0  0  0  0  3  0  0  0  0  0  0
  161.1440  202.8370  151.5680 C   0  0  0  0  0  3  0  0  0  0  0  0
  161.5070  206.5030  151.2300 C   0  0  0  0  0  3  0  0  0  0  0  0
  160.6990  203.4640  149.2680 C   0  0  0  0  0  3  0  0  0  0  0  0
  160.9300  204.8050  149.5880 C   0  0  0  0  0  0  0  0  0  0  0  0
  160.8270  205.7910  148.6060 C   0  0  0  0  0  3  0  0  0  0  0  0
  161.2730  205.1640  150.9110 C   0  0  0  0  0  0  0  0  0  0  0  0
  160.8050  202.4810  150.2590 C   0  0  0  0  0  3  0  0  0  0  0  0
  161.3780  204.1770  151.8950 C   0  0  0  0  0  3  0  0  0  0  0  0
  161.5800  210.7070  152.2530 C   0  0  0  0  0  2  0  0  0  0  0  0
  160.3950  211.2750  152.9660 C   0  0  0  0  0  0  0  0  0  0  0  0
  160.0540  212.4260  152.7470 O   0  0  0  0  0  0  0  0  0  0  0  0
  159.6040  210.4300  153.9140 C   0  0  0  0  0  2  0  0  0  0  0  0
  160.2030  210.4700  155.2420 N   0  0  0  0  0  0  0  0  0  0  0  0
  160.0510  209.1420  155.8210 C   0  0  1  0  0  3  0  0  0  0  0  0
  160.6840  208.1030  154.9140 C   0  0  0  0  0  2  0  0  0  0  0  0
  161.4220  208.5740  156.1470 C   0  0  2  0  0  3  0  0  0  0  0  0
  161.2900  207.6190  157.1540 O   0  0  0  0  0  1  0  0  0  0  0  0
  159.3890  211.3770  156.0400 C   0  0  0  0  0  2  0  0  0  0  0  0
  157.9180  211.1220  155.7640 C   0  0  0  0  0  2  0  0  0  0  0  0
  158.0630  213.4440  155.5800 C   0  0  0  0  0  1  0  0  0  0  0  0
  157.1680  212.3540  155.9280 N   0  0  0  0  0  2  0  0  0  0  0  0
  162.9700  211.7850  148.4520 O   0  0  0  0  0  0  0  0  0  0  0  0
  162.6600  213.0910  147.9810 C   0  0  0  0  0  2  0  0  0  0  0  0
  160.8230  213.6090  146.3800 C   0  0  0  0  0  1  0  0  0  0  0  0
  162.2260  213.0510  146.5240 C   0  0  0  0  0  2  0  0  0  0  0  0
  1 16  1  0  0  0  0
  2  1  2  0  0  0  0
  3  2  1  0  0  0  0
  5  4  2  0  0  0  0
  5  3  1  0  0  0  0
  6  2  1  0  0  0  0
  6  9  1  0  0  0  0
  7  6  2  0  0  0  0
  8 15  2  0  0  0  0
 10 11  1  0  0  0  0
 10 14  2  0  0  0  0
 11 13  1  0  0  0  0
 12  7  1  0  0  0  0
 12 11  2  0  0  0  0
 13  9  2  0  0  0  0
 13 15  1  0  0  0  0
 14  8  1  0  0  0  0
 16 17  1  0  0  0  0
 17 19  1  0  0  0  0
 18 17  2  0  0  0  0
 19 20  1  0  0  0  0
 20 25  1  0  0  0  0
 21 20  1  6  0  0  0
 21 23  1  0  0  0  0
 22 21  1  0  0  0  0
 22 23  1  0  0  0  0
 23 24  1  1  0  0  0
 26 28  1  0  0  0  0
 26 25  1  0  0  0  0
 27 28  1  0  0  0  0
 29  5  1  0  0  0  0
 30 29  1  0  0  0  0
 31 32  1  0  0  0  0
 32 30  1  0  0  0  0
M  END
>  <MODEL>
4

>  <REMARK>
 VINA RESULT:      -6.8      2.179      6.442
  Name = 
  12 active torsions:
  status: ('A' for Active; 'I' for Inactive)
    1  A    between atoms: N_1  and  C_4
    2  A    between atoms: C_2  and  C_5
    3  A    between atoms: C_3  and  N_20
    4  A    between atoms: C_4  and  C_24
    5  A    between atoms: C_13  and  O_18
    6  A    between atoms: C_13  and  C_29
    7  A    between atoms: C_15  and  N_20
    8  A    between atoms: C_15  and  C_26
    9  A    between atoms: C_16  and  N_20
   10  A    between atoms: C_16  and  C_24
   11  A    between atoms: O_18  and  C_30
   12  A    between atoms: N_19  and  C_26
                            x       y       z     vdW  Elec       q    Type
                         _______ _______ _______ _____ _____    ______ ____

>  <TORSDO>
F 12

$$$$
=
 OpenBabel11062408323D

 32 34  0  0  1  0  0  0  0  0999 V2000
  161.8470  208.8360  150.9100 N   0  0  0  0  0  0  0  0  0  0  0  0
  162.0030  208.6190  149.6330 C   0  0  0  0  0  0  0  0  0  0  0  0
  162.4820  209.6420  148.7450 N   0  0  0  0  0  2  0  0  0  0  0  0
  160.8900  211.2780  149.2540 O   0  0  0  0  0  0  0  0  0  0  0  0
  161.9570  210.9740  148.6580 C   0  0  0  0  0  0  0  0  0  0  0  0
  161.7840  207.2600  149.1010 C   0  0  0  0  0  0  0  0  0  0  0  0
  161.9630  207.0010  147.7330 C   0  0  0  0  0  3  0  0  0  0  0  0
  160.6490  202.5930  149.7890 C   0  0  0  0  0  3  0  0  0  0  0  0
  161.4050  206.2100  149.9540 C   0  0  0  0  0  3  0  0  0  0  0  0
  161.2050  203.3840  147.5650 C   0  0  0  0  0  3  0  0  0  0  0  0
  161.3960  204.6730  148.0700 C   0  0  0  0  0  0  0  0  0  0  0  0
  161.7700  205.7140  147.2200 C   0  0  0  0  0  3  0  0  0  0  0  0
  161.2120  204.9230  149.4490 C   0  0  0  0  0  0  0  0  0  0  0  0
  160.8310  202.3450  148.4240 C   0  0  0  0  0  3  0  0  0  0  0  0
  160.8390  203.8810  150.3020 C   0  0  0  0  0  3  0  0  0  0  0  0
  162.1500  210.0830  151.6050 C   0  0  0  0  0  2  0  0  0  0  0  0
  161.1360  210.3590  152.6690 C   0  0  0  0  0  0  0  0  0  0  0  0
  159.9470  210.3250  152.3930 O   0  0  0  0  0  0  0  0  0  0  0  0
  161.5670  210.6370  154.0750 C   0  0  0  0  0  2  0  0  0  0  0  0
  160.7330  209.8970  155.0120 N   0  0  0  0  0  0  0  0  0  0  0  0
  160.3660  210.8180  156.0800 C   0  0  1  0  0  3  0  0  0  0  0  0
  159.8780  212.1300  155.4930 C   0  0  0  0  0  2  0  0  0  0  0  0
  158.8790  211.1160  156.0020 C   0  0  2  0  0  3  0  0  0  0  0  0
  158.4270  211.5080  157.2610 O   0  0  0  0  0  1  0  0  0  0  0  0
  161.5810  208.8730  155.6080 C   0  0  0  0  0  2  0  0  0  0  0  0
  160.8480  207.5450  155.6160 C   0  0  0  0  0  2  0  0  0  0  0  0
  161.5780  206.5130  153.6540 C   0  0  0  0  0  1  0  0  0  0  0  0
  160.4510  207.1960  154.2640 N   0  0  0  0  0  2  0  0  0  0  0  0
  162.5980  211.9370  147.8770 O   0  0  0  0  0  0  0  0  0  0  0  0
  161.8850  212.9520  147.1800 C   0  0  0  0  0  2  0  0  0  0  0  0
  160.5710  212.6270  145.0890 C   0  0  0  0  0  1  0  0  0  0  0  0
  160.5980  212.4000  146.5880 C   0  0  0  0  0  2  0  0  0  0  0  0
  1 16  1  0  0  0  0
  2  1  2  0  0  0  0
  3  2  1  0  0  0  0
  5  3  1  0  0  0  0
  5  4  2  0  0  0  0
  6  2  1  0  0  0  0
  6  9  1  0  0  0  0
  7  6  2  0  0  0  0
  8 15  2  0  0  0  0
 10 11  1  0  0  0  0
 10 14  2  0  0  0  0
 11 13  1  0  0  0  0
 12  7  1  0  0  0  0
 12 11  2  0  0  0  0
 13  9  2  0  0  0  0
 13 15  1  0  0  0  0
 14  8  1  0  0  0  0
 16 17  1  0  0  0  0
 17 19  1  0  0  0  0
 18 17  2  0  0  0  0
 19 20  1  0  0  0  0
 20 25  1  0  0  0  0
 21 20  1  6  0  0  0
 22 23  1  0  0  0  0
 22 21  1  0  0  0  0
 23 21  1  0  0  0  0
 23 24  1  1  0  0  0
 25 26  1  0  0  0  0
 27 28  1  0  0  0  0
 28 26  1  0  0  0  0
 29  5  1  0  0  0  0
 30 29  1  0  0  0  0
 31 32  1  0  0  0  0
 32 30  1  0  0  0  0
M  END
>  <MODEL>
5

>  <REMARK>
 VINA RESULT:      -6.8      2.246      6.705
  Name = 
  12 active torsions:
  status: ('A' for Active; 'I' for Inactive)
    1  A    between atoms: N_1  and  C_4
    2  A    between atoms: C_2  and  C_5
    3  A    between atoms: C_3  and  N_20
    4  A    between atoms: C_4  and  C_24
    5  A    between atoms: C_13  and  O_18
    6  A    between atoms: C_13  and  C_29
    7  A    between atoms: C_15  and  N_20
    8  A    between atoms: C_15  and  C_26
    9  A    between atoms: C_16  and  N_20
   10  A    between atoms: C_16  and  C_24
   11  A    between atoms: O_18  and  C_30
   12  A    between atoms: N_19  and  C_26
                            x       y       z     vdW  Elec       q    Type
                         _______ _______ _______ _____ _____    ______ ____

>  <TORSDO>
F 12

$$$$
=
 OpenBabel11062408323D

 32 34  0  0  1  0  0  0  0  0999 V2000
  160.7550  210.1520  152.3560 N   0  0  0  0  0  0  0  0  0  0  0  0
  160.8730  209.0730  153.0790 C   0  0  0  0  0  0  0  0  0  0  0  0
  160.8080  209.1140  154.5140 N   0  0  0  0  0  2  0  0  0  0  0  0
  162.4940  210.6950  154.8660 O   0  0  0  0  0  0  0  0  0  0  0  0
  161.5630  209.9990  155.3520 C   0  0  0  0  0  0  0  0  0  0  0  0
  160.9700  207.7620  152.4080 C   0  0  0  0  0  0  0  0  0  0  0  0
  161.1370  206.5930  153.1660 C   0  0  0  0  0  3  0  0  0  0  0  0
  160.9540  205.0830  148.3630 C   0  0  0  0  0  3  0  0  0  0  0  0
  160.8860  207.6670  151.0090 C   0  0  0  0  0  3  0  0  0  0  0  0
  161.2080  204.0070  150.5210 C   0  0  0  0  0  3  0  0  0  0  0  0
  161.1320  205.2520  151.1520 C   0  0  0  0  0  0  0  0  0  0  0  0
  161.2180  205.3440  152.5410 C   0  0  0  0  0  3  0  0  0  0  0  0
  160.9650  206.4240  150.3790 C   0  0  0  0  0  0  0  0  0  0  0  0
  161.1200  203.9240  149.1270 C   0  0  0  0  0  3  0  0  0  0  0  0
  160.8770  206.3330  148.9870 C   0  0  0  0  0  3  0  0  0  0  0  0
  160.5190  211.4990  152.8660 C   0  0  0  0  0  2  0  0  0  0  0  0
  159.5740  212.2470  151.9810 C   0  0  0  0  0  0  0  0  0  0  0  0
  158.3810  211.9920  152.0230 O   0  0  0  0  0  0  0  0  0  0  0  0
  160.0760  213.3290  151.0780 C   0  0  0  0  0  2  0  0  0  0  0  0
  159.8830  212.9490  149.6850 N   0  0  0  0  0  0  0  0  0  0  0  0
  161.1630  213.1230  149.0110 C   0  0  1  0  0  3  0  0  0  0  0  0
  161.9420  211.8220  149.0270 C   0  0  0  0  0  2  0  0  0  0  0  0
  161.2080  212.2430  147.7740 C   0  0  2  0  0  3  0  0  0  0  0  0
  162.1190  212.7800  146.8660 O   0  0  0  0  0  1  0  0  0  0  0  0
  158.9650  213.9230  149.1090 C   0  0  0  0  0  2  0  0  0  0  0  0
  157.5790  213.3150  148.9980 C   0  0  0  0  0  2  0  0  0  0  0  0
  157.9060  214.2990  146.9080 C   0  0  0  0  0  1  0  0  0  0  0  0
  157.1840  213.2480  147.6030 N   0  0  0  0  0  2  0  0  0  0  0  0
  161.3080  210.0660  156.7220 O   0  0  0  0  0  0  0  0  0  0  0  0
  160.0510  210.4820  157.2450 C   0  0  0  0  0  2  0  0  0  0  0  0
  158.0650  211.5540  156.1930 C   0  0  0  0  0  1  0  0  0  0  0  0
  159.5390  211.7100  156.5100 C   0  0  0  0  0  2  0  0  0  0  0  0
  1 16  1  0  0  0  0
  1  2  2  0  0  0  0
  2  3  1  0  0  0  0
  3  5  1  0  0  0  0
  4  5  2  0  0  0  0
  5 29  1  0  0  0  0
  6  2  1  0  0  0  0
  6  7  1  0  0  0  0
  8 15  2  0  0  0  0
  8 14  1  0  0  0  0
  9  6  2  0  0  0  0
 10 11  1  0  0  0  0
 11 12  1  0  0  0  0
 12  7  2  0  0  0  0
 13  9  1  0  0  0  0
 13 11  2  0  0  0  0
 14 10  2  0  0  0  0
 15 13  1  0  0  0  0
 17 18  2  0  0  0  0
 17 16  1  0  0  0  0
 19 17  1  0  0  0  0
 20 19  1  0  0  0  0
 21 22  1  0  0  0  0
 21 20  1  1  0  0  0
 23 24  1  6  0  0  0
 23 21  1  0  0  0  0
 23 22  1  0  0  0  0
 25 20  1  0  0  0  0
 26 25  1  0  0  0  0
 27 28  1  0  0  0  0
 28 26  1  0  0  0  0
 29 30  1  0  0  0  0
 31 32  1  0  0  0  0
 32 30  1  0  0  0  0
M  END
>  <MODEL>
6

>  <REMARK>
 VINA RESULT:      -6.7      1.711      2.519
  Name = 
  12 active torsions:
  status: ('A' for Active; 'I' for Inactive)
    1  A    between atoms: N_1  and  C_4
    2  A    between atoms: C_2  and  C_5
    3  A    between atoms: C_3  and  N_20
    4  A    between atoms: C_4  and  C_24
    5  A    between atoms: C_13  and  O_18
    6  A    between atoms: C_13  and  C_29
    7  A    between atoms: C_15  and  N_20
    8  A    between atoms: C_15  and  C_26
    9  A    between atoms: C_16  and  N_20
   10  A    between atoms: C_16  and  C_24
   11  A    between atoms: O_18  and  C_30
   12  A    between atoms: N_19  and  C_26
                            x       y       z     vdW  Elec       q    Type
                         _______ _______ _______ _____ _____    ______ ____

>  <TORSDO>
F 12

$$$$
=
 OpenBabel11062408323D

 32 34  0  0  1  0  0  0  0  0999 V2000
  161.8670  208.9120  151.1090 N   0  0  0  0  0  0  0  0  0  0  0  0
  162.0120  208.6780  149.8340 C   0  0  0  0  0  0  0  0  0  0  0  0
  162.4830  209.6890  148.9280 N   0  0  0  0  0  2  0  0  0  0  0  0
  160.8960  211.3310  149.4280 O   0  0  0  0  0  0  0  0  0  0  0  0
  161.9580  211.0200  148.8280 C   0  0  0  0  0  0  0  0  0  0  0  0
  161.7890  207.3120  149.3220 C   0  0  0  0  0  0  0  0  0  0  0  0
  161.9700  207.0320  147.9590 C   0  0  0  0  0  3  0  0  0  0  0  0
  160.6330  202.6610  150.0770 C   0  0  0  0  0  3  0  0  0  0  0  0
  161.4040  206.2770  150.1900 C   0  0  0  0  0  3  0  0  0  0  0  0
  161.1990  203.4150  147.8430 C   0  0  0  0  0  3  0  0  0  0  0  0
  161.3930  204.7110  148.3290 C   0  0  0  0  0  0  0  0  0  0  0  0
  161.7740  205.7380  147.4640 C   0  0  0  0  0  3  0  0  0  0  0  0
  161.2070  204.9830  149.7040 C   0  0  0  0  0  0  0  0  0  0  0  0
  160.8180  202.3910  148.7170 C   0  0  0  0  0  3  0  0  0  0  0  0
  160.8270  203.9550  150.5710 C   0  0  0  0  0  3  0  0  0  0  0  0
  162.1740  210.1680  151.7850 C   0  0  0  0  0  2  0  0  0  0  0  0
  161.2800  210.3700  152.9670 C   0  0  0  0  0  0  0  0  0  0  0  0
  161.7370  210.2650  154.0930 O   0  0  0  0  0  0  0  0  0  0  0  0
  159.8430  210.7390  152.7760 C   0  0  0  0  0  2  0  0  0  0  0  0
  159.5810  212.0540  153.3460 N   0  0  0  0  0  0  0  0  0  0  0  0
  158.2170  212.0360  153.8570 C   0  0  1  0  0  3  0  0  0  0  0  0
  158.1110  211.0790  155.0290 C   0  0  0  0  0  2  0  0  0  0  0  0
  158.2030  212.5670  155.2800 C   0  0  2  0  0  3  0  0  0  0  0  0
  156.9330  213.0640  155.5680 O   0  0  0  0  0  1  0  0  0  0  0  0
  159.6080  213.0020  152.2400 C   0  0  0  0  0  2  0  0  0  0  0  0
  158.3040  212.9240  151.4680 C   0  0  0  0  0  2  0  0  0  0  0  0
  157.2550  213.3640  149.4300 C   0  0  0  0  0  1  0  0  0  0  0  0
  158.4170  213.6880  150.2390 N   0  0  0  0  0  2  0  0  0  0  0  0
  162.5920  211.9720  148.0290 O   0  0  0  0  0  0  0  0  0  0  0  0
  161.9570  213.1820  147.6320 C   0  0  0  0  0  2  0  0  0  0  0  0
  159.7550  213.6120  146.5510 C   0  0  0  0  0  1  0  0  0  0  0  0
  161.1170  212.9670  146.3840 C   0  0  0  0  0  2  0  0  0  0  0  0
  1 16  1  0  0  0  0
  2  1  2  0  0  0  0
  3  2  1  0  0  0  0
  5  3  1  0  0  0  0
  5  4  2  0  0  0  0
  6  2  1  0  0  0  0
  6  9  1  0  0  0  0
  7  6  2  0  0  0  0
  8 15  2  0  0  0  0
 10 11  1  0  0  0  0
 10 14  2  0  0  0  0
 11 13  1  0  0  0  0
 12  7  1  0  0  0  0
 12 11  2  0  0  0  0
 13  9  2  0  0  0  0
 13 15  1  0  0  0  0
 14  8  1  0  0  0  0
 16 17  1  0  0  0  0
 17 18  2  0  0  0  0
 19 17  1  0  0  0  0
 19 20  1  0  0  0  0
 21 20  1  1  0  0  0
 21 22  1  0  0  0  0
 21 23  1  0  0  0  0
 22 23  1  0  0  0  0
 23 24  1  6  0  0  0
 25 20  1  0  0  0  0
 26 25  1  0  0  0  0
 27 28  1  0  0  0  0
 28 26  1  0  0  0  0
 29  5  1  0  0  0  0
 30 29  1  0  0  0  0
 32 31  1  0  0  0  0
 32 30  1  0  0  0  0
M  END
>  <MODEL>
7

>  <REMARK>
 VINA RESULT:      -6.6      1.856      5.667
  Name = 
  12 active torsions:
  status: ('A' for Active; 'I' for Inactive)
    1  A    between atoms: N_1  and  C_4
    2  A    between atoms: C_2  and  C_5
    3  A    between atoms: C_3  and  N_20
    4  A    between atoms: C_4  and  C_24
    5  A    between atoms: C_13  and  O_18
    6  A    between atoms: C_13  and  C_29
    7  A    between atoms: C_15  and  N_20
    8  A    between atoms: C_15  and  C_26
    9  A    between atoms: C_16  and  N_20
   10  A    between atoms: C_16  and  C_24
   11  A    between atoms: O_18  and  C_30
   12  A    between atoms: N_19  and  C_26
                            x       y       z     vdW  Elec       q    Type
                         _______ _______ _______ _____ _____    ______ ____

>  <TORSDO>
F 12

$$$$
=
 OpenBabel11062408323D

 32 34  0  0  1  0  0  0  0  0999 V2000
  161.7340  207.5580  152.2090 N   0  0  0  0  0  0  0  0  0  0  0  0
  161.0660  206.5670  152.7320 C   0  0  0  0  0  0  0  0  0  0  0  0
  160.2760  206.7310  153.9210 N   0  0  0  0  0  2  0  0  0  0  0  0
  161.9530  207.5950  155.3030 O   0  0  0  0  0  0  0  0  0  0  0  0
  160.7320  207.3300  155.1420 C   0  0  0  0  0  0  0  0  0  0  0  0
  161.0350  205.2690  152.0300 C   0  0  0  0  0  0  0  0  0  0  0  0
  160.8840  204.0780  152.7560 C   0  0  0  0  0  3  0  0  0  0  0  0
  161.1580  202.6940  147.9200 C   0  0  0  0  0  3  0  0  0  0  0  0
  161.1440  205.2110  150.6310 C   0  0  0  0  0  3  0  0  0  0  0  0
  160.9000  201.5590  150.0480 C   0  0  0  0  0  3  0  0  0  0  0  0
  160.9460  202.7880  150.7100 C   0  0  0  0  0  0  0  0  0  0  0  0
  160.8400  202.8440  152.1010 C   0  0  0  0  0  3  0  0  0  0  0  0
  161.1000  203.9820  149.9690 C   0  0  0  0  0  0  0  0  0  0  0  0
  161.0060  201.5120  148.6530 C   0  0  0  0  0  3  0  0  0  0  0  0
  161.2050  203.9280  148.5770 C   0  0  0  0  0  3  0  0  0  0  0  0
  161.7560  208.9290  152.7100 C   0  0  0  0  0  2  0  0  0  0  0  0
  161.6600  209.9090  151.5840 C   0  0  0  0  0  0  0  0  0  0  0  0
  160.8380  210.8090  151.6370 O   0  0  0  0  0  0  0  0  0  0  0  0
  162.5910  209.8160  150.4160 C   0  0  0  0  0  2  0  0  0  0  0  0
  161.8540  209.9900  149.1720 N   0  0  0  0  0  0  0  0  0  0  0  0
  162.2940  208.9400  148.2620 C   0  0  1  0  0  3  0  0  0  0  0  0
  162.6980  207.7060  149.0470 C   0  0  0  0  0  2  0  0  0  0  0  0
  161.3500  207.7540  148.3650 C   0  0  2  0  0  3  0  0  0  0  0  0
  161.4080  207.0230  147.1800 O   0  0  0  0  0  1  0  0  0  0  0  0
  162.2910  211.2570  148.6010 C   0  0  0  0  0  2  0  0  0  0  0  0
  161.1050  212.1930  148.4650 C   0  0  0  0  0  2  0  0  0  0  0  0
  162.8940  213.5700  147.8720 C   0  0  0  0  0  1  0  0  0  0  0  0
  161.5660  213.5700  148.4610 N   0  0  0  0  0  2  0  0  0  0  0  0
  159.8380  207.5860  156.1820 O   0  0  0  0  0  0  0  0  0  0  0  0
  159.7030  208.8720  156.7750 C   0  0  0  0  0  2  0  0  0  0  0  0
  160.6250  210.9270  155.7130 C   0  0  0  0  0  1  0  0  0  0  0  0
  159.4770  209.9360  155.7140 C   0  0  0  0  0  2  0  0  0  0  0  0
  1 16  1  0  0  0  0
  1  2  2  0  0  0  0
  2  3  1  0  0  0  0
  3  5  1  0  0  0  0
  5  4  2  0  0  0  0
  5 29  1  0  0  0  0
  6  2  1  0  0  0  0
  6  7  1  0  0  0  0
  8 15  2  0  0  0  0
  8 14  1  0  0  0  0
  9  6  2  0  0  0  0
 10 11  1  0  0  0  0
 11 12  1  0  0  0  0
 12  7  2  0  0  0  0
 13  9  1  0  0  0  0
 13 11  2  0  0  0  0
 14 10  2  0  0  0  0
 15 13  1  0  0  0  0
 17 18  2  0  0  0  0
 17 16  1  0  0  0  0
 19 17  1  0  0  0  0
 20 19  1  0  0  0  0
 21 23  1  0  0  0  0
 21 22  1  0  0  0  0
 21 20  1  1  0  0  0
 23 24  1  6  0  0  0
 23 22  1  0  0  0  0
 25 20  1  0  0  0  0
 26 25  1  0  0  0  0
 27 28  1  0  0  0  0
 28 26  1  0  0  0  0
 29 30  1  0  0  0  0
 31 32  1  0  0  0  0
 32 30  1  0  0  0  0
M  END
>  <MODEL>
8

>  <REMARK>
 VINA RESULT:      -6.6      2.229      3.295
  Name = 
  12 active torsions:
  status: ('A' for Active; 'I' for Inactive)
    1  A    between atoms: N_1  and  C_4
    2  A    between atoms: C_2  and  C_5
    3  A    between atoms: C_3  and  N_20
    4  A    between atoms: C_4  and  C_24
    5  A    between atoms: C_13  and  O_18
    6  A    between atoms: C_13  and  C_29
    7  A    between atoms: C_15  and  N_20
    8  A    between atoms: C_15  and  C_26
    9  A    between atoms: C_16  and  N_20
   10  A    between atoms: C_16  and  C_24
   11  A    between atoms: O_18  and  C_30
   12  A    between atoms: N_19  and  C_26
                            x       y       z     vdW  Elec       q    Type
                         _______ _______ _______ _____ _____    ______ ____

>  <TORSDO>
F 12

$$$$
=
 OpenBabel11062408323D

 32 34  0  0  1  0  0  0  0  0999 V2000
  161.9050  208.9970  150.5620 N   0  0  0  0  0  0  0  0  0  0  0  0
  161.2550  208.3220  151.4700 C   0  0  0  0  0  0  0  0  0  0  0  0
  160.5060  208.9770  152.5070 N   0  0  0  0  0  2  0  0  0  0  0  0
  162.2290  210.3110  153.3530 O   0  0  0  0  0  0  0  0  0  0  0  0
  161.0030  210.0220  153.3540 C   0  0  0  0  0  0  0  0  0  0  0  0
  161.1990  206.8510  151.3710 C   0  0  0  0  0  0  0  0  0  0  0  0
  161.2390  206.0650  152.5320 C   0  0  0  0  0  3  0  0  0  0  0  0
  160.8500  202.8130  148.7040 C   0  0  0  0  0  3  0  0  0  0  0  0
  161.0940  206.2220  150.1200 C   0  0  0  0  0  3  0  0  0  0  0  0
  160.9980  202.6540  151.1190 C   0  0  0  0  0  3  0  0  0  0  0  0
  161.0670  204.0470  151.2070 C   0  0  0  0  0  0  0  0  0  0  0  0
  161.1740  204.6700  152.4520 C   0  0  0  0  0  3  0  0  0  0  0  0
  161.0270  204.8300  150.0310 C   0  0  0  0  0  0  0  0  0  0  0  0
  160.8900  202.0380  149.8670 C   0  0  0  0  0  3  0  0  0  0  0  0
  160.9180  204.2080  148.7840 C   0  0  0  0  0  3  0  0  0  0  0  0
  161.9450  210.4520  150.4480 C   0  0  0  0  0  2  0  0  0  0  0  0
  161.9910  210.8720  149.0130 C   0  0  0  0  0  0  0  0  0  0  0  0
  161.6570  210.0840  148.1440 O   0  0  0  0  0  0  0  0  0  0  0  0
  162.4050  212.2620  148.6430 C   0  0  0  0  0  2  0  0  0  0  0  0
  161.2660  213.0020  148.1170 N   0  0  0  0  0  0  0  0  0  0  0  0
  160.2140  212.9430  149.1230 C   0  0  1  0  0  3  0  0  0  0  0  0
  160.4660  213.9810  150.2010 C   0  0  0  0  0  2  0  0  0  0  0  0
  159.4410  214.2510  149.1230 C   0  0  2  0  0  3  0  0  0  0  0  0
  158.1650  214.0250  149.6350 O   0  0  0  0  0  1  0  0  0  0  0  0
  160.7860  212.2610  146.9580 C   0  0  0  0  0  2  0  0  0  0  0  0
  160.4020  213.2300  145.8550 C   0  0  0  0  0  2  0  0  0  0  0  0
  162.5290  213.3800  144.9050 C   0  0  0  0  0  1  0  0  0  0  0  0
  161.1690  212.9370  144.6570 N   0  0  0  0  0  2  0  0  0  0  0  0
  160.1450  210.6990  154.2210 O   0  0  0  0  0  0  0  0  0  0  0  0
  159.6800  210.1250  155.4380 C   0  0  0  0  0  2  0  0  0  0  0  0
  159.8990  207.6940  155.9280 C   0  0  0  0  0  1  0  0  0  0  0  0
  160.6190  209.0280  155.9110 C   0  0  0  0  0  2  0  0  0  0  0  0
  1  2  2  0  0  0  0
  2  3  1  0  0  0  0
  3  5  1  0  0  0  0
  4  5  2  0  0  0  0
  5 29  1  0  0  0  0
  6  2  1  0  0  0  0
  6  7  1  0  0  0  0
  8 15  2  0  0  0  0
  8 14  1  0  0  0  0
  9  6  2  0  0  0  0
 10 11  1  0  0  0  0
 11 12  1  0  0  0  0
 12  7  2  0  0  0  0
 13  9  1  0  0  0  0
 13 11  2  0  0  0  0
 14 10  2  0  0  0  0
 15 13  1  0  0  0  0
 16  1  1  0  0  0  0
 17 16  1  0  0  0  0
 18 17  2  0  0  0  0
 19 17  1  0  0  0  0
 20 19  1  0  0  0  0
 21 20  1  6  0  0  0
 21 22  1  0  0  0  0
 23 21  1  0  0  0  0
 23 24  1  1  0  0  0
 23 22  1  0  0  0  0
 25 20  1  0  0  0  0
 26 25  1  0  0  0  0
 28 27  1  0  0  0  0
 28 26  1  0  0  0  0
 29 30  1  0  0  0  0
 30 32  1  0  0  0  0
 32 31  1  0  0  0  0
M  END
>  <MODEL>
9

>  <REMARK>
 VINA RESULT:      -6.6      1.299      2.352
  Name = 
  12 active torsions:
  status: ('A' for Active; 'I' for Inactive)
    1  A    between atoms: N_1  and  C_4
    2  A    between atoms: C_2  and  C_5
    3  A    between atoms: C_3  and  N_20
    4  A    between atoms: C_4  and  C_24
    5  A    between atoms: C_13  and  O_18
    6  A    between atoms: C_13  and  C_29
    7  A    between atoms: C_15  and  N_20
    8  A    between atoms: C_15  and  C_26
    9  A    between atoms: C_16  and  N_20
   10  A    between atoms: C_16  and  C_24
   11  A    between atoms: O_18  and  C_30
   12  A    between atoms: N_19  and  C_26
                            x       y       z     vdW  Elec       q    Type
                         _______ _______ _______ _____ _____    ______ ____

>  <TORSDO>
F 12

$$$$
