=
 OpenBabel11062409073D

 37 43  0  0  1  0  0  0  0  0999 V2000
  158.4690  212.9460  153.1550 C   0  0  1  0  0  0  0  0  0  0  0  0
  157.7380  211.9600  155.8960 C   0  0  1  0  0  0  0  0  0  0  0  0
  160.0790  210.0480  154.4720 C   0  0  0  0  0  0  0  0  0  0  0  0
  157.3170  213.8740  152.6710 C   0  0  1  0  0  3  0  0  0  0  0  0
  159.5820  210.7980  157.2610 C   0  0  0  0  0  2  0  0  0  0  0  0
  160.2440  209.7660  153.0020 C   0  0  2  0  0  3  0  0  0  0  0  0
  157.6230  213.7660  150.1600 C   0  0  0  0  0  0  0  0  0  0  0  0
  155.7960  212.9300  154.4270 C   0  0  0  0  0  2  0  0  0  0  0  0
  158.7800  209.6790  155.1300 C   0  0  0  0  0  2  0  0  0  0  0  0
  161.6880  209.2770  152.7760 C   0  0  2  0  0  3  0  0  0  0  0  0
  161.8130  211.6290  157.1860 O   0  0  0  0  0  0  0  0  0  0  0  0
  157.4560  214.4530  151.3700 O   0  0  0  0  0  0  0  0  0  0  0  0
  158.2290  212.7510  154.6710 C   0  0  2  0  0  3  0  0  0  0  0  0
  162.4010  210.7930  154.5080 C   0  0  0  0  0  3  0  0  0  0  0  0
  155.8980  213.3620  152.9620 C   0  0  0  0  0  2  0  0  0  0  0  0
  160.8810  211.0610  156.5590 C   0  0  0  0  0  0  0  0  0  0  0  0
  156.9050  211.9160  154.6680 C   0  0  1  0  0  3  0  0  0  0  0  0
  158.2440  212.4110  150.0580 C   0  0  0  0  0  2  0  0  0  0  0  0
  159.9790  211.0400  152.1990 C   0  0  0  0  0  2  0  0  0  0  0  0
  161.0870  210.6140  155.1680 C   0  0  0  0  0  0  0  0  0  0  0  0
  158.5590  211.5760  152.4000 C   0  0  2  0  0  3  0  0  0  0  0  0
  158.4170  210.6270  156.2800 C   0  0  2  0  0  3  0  0  0  0  0  0
  157.7330  211.4600  151.1220 C   0  0  0  0  0  2  0  0  0  0  0  0
  157.3450  214.3660  149.0880 O   0  0  0  0  0  0  0  0  0  0  0  0
  159.7610  213.7450  153.0180 C   0  0  0  0  0  1  0  0  0  0  0  0
  162.6580  210.1970  153.3810 N   0  0  0  0  0  0  0  0  0  0  0  0
  160.7850  206.7930  151.4930 C   0  0  0  0  0  2  0  0  0  0  0  0
  161.5610  207.7660  150.7220 N   0  0  0  0  0  0  0  0  0  0  0  0
  162.7600  209.7720  150.6960 O   0  0  0  0  0  0  0  0  0  0  0  0
  161.8250  207.5310  149.2990 C   0  0  0  0  0  2  0  0  0  0  0  0
  161.7720  205.8370  147.1520 S   0  0  0  0  0  1  0  0  0  0  0  0
  161.6250  205.0800  149.7770 C   0  0  0  0  0  2  0  0  0  0  0  0
  161.2140  206.2100  148.8360 C   0  0  1  0  0  3  0  0  0  0  0  0
  162.0320  208.9730  151.3440 C   0  0  0  0  0  0  0  0  0  0  0  0
  161.3190  205.3790  151.2530 C   0  0  0  0  0  2  0  0  0  0  0  0
  158.1710  214.3620  156.9910 C   0  0  0  0  0  1  0  0  0  0  0  0
  157.0430  212.9640  157.2610 S   0  0  0  0  0  0  0  0  0  0  0  0
  1 25  1  6  0  0  0
  1 13  1  0  0  0  0
  2 22  1  0  0  0  0
  2 37  1  1  0  0  0
  3  9  1  0  0  0  0
  3 20  2  0  0  0  0
  4 15  1  6  0  0  0
  4  1  1  0  0  0  0
  6 19  1  6  0  0  0
  6  3  1  0  0  0  0
  7 12  1  0  0  0  0
  8 17  1  0  0  0  0
  9 22  1  0  0  0  0
 10 34  1  6  0  0  0
 10  6  1  0  0  0  0
 10 26  1  0  0  0  0
 12  4  1  0  0  0  0
 13  2  1  0  0  0  0
 14 20  1  0  0  0  0
 15  8  1  0  0  0  0
 16 11  2  0  0  0  0
 16  5  1  0  0  0  0
 17 13  1  0  0  0  0
 17  2  1  0  0  0  0
 18  7  1  0  0  0  0
 18 23  1  0  0  0  0
 19 21  1  0  0  0  0
 20 16  1  0  0  0  0
 21  1  1  0  0  0  0
 22  5  1  0  0  0  0
 23 21  1  0  0  0  0
 24  7  2  0  0  0  0
 26 14  2  0  0  0  0
 28 34  1  0  0  0  0
 28 27  1  0  0  0  0
 29 34  2  0  0  0  0
 30 28  1  0  0  0  0
 31 33  1  0  0  0  0
 32 35  1  0  0  0  0
 33 30  1  0  0  0  0
 33 32  1  0  0  0  0
 35 27  1  0  0  0  0
 36 37  1  0  0  0  0
M  END
>  <MODEL>
1

>  <REMARK>
 VINA RESULT:      -1.5      0.000      0.000
  Name = 
  2 active torsions:
  status: ('A' for Active; 'I' for Inactive)
    1  A    between atoms: C_3  and  S_32
    2  A    between atoms: C_14  and  C_31
                            x       y       z     vdW  Elec       q    Type
                         _______ _______ _______ _____ _____    ______ ____

>  <TORSDO>
F 2

$$$$
=
 OpenBabel11062409073D

 37 43  0  0  1  0  0  0  0  0999 V2000
  161.0090  207.2630  150.5850 C   0  0  1  0  0  0  0  0  0  0  0  0
  161.2480  207.8800  153.5150 C   0  0  1  0  0  0  0  0  0  0  0  0
  161.7630  210.5900  151.6310 C   0  0  0  0  0  0  0  0  0  0  0  0
  161.1610  205.7230  150.4190 C   0  0  1  0  0  3  0  0  0  0  0  0
  160.5680  210.2370  154.2830 C   0  0  0  0  0  2  0  0  0  0  0  0
  162.3660  210.6310  150.2520 C   0  0  2  0  0  3  0  0  0  0  0  0
  161.9020  205.5630  148.0030 C   0  0  0  0  0  0  0  0  0  0  0  0
  162.1620  205.5580  152.7120 C   0  0  0  0  0  2  0  0  0  0  0  0
  162.5760  210.0060  152.7510 C   0  0  0  0  0  2  0  0  0  0  0  0
  161.9560  211.9640  149.5970 C   0  0  2  0  0  3  0  0  0  0  0  0
  158.6720  211.3000  153.3090 O   0  0  0  0  0  0  0  0  0  0  0  0
  161.0880  205.2070  149.0870 O   0  0  0  0  0  0  0  0  0  0  0  0
  160.7860  207.4920  152.0990 C   0  0  2  0  0  3  0  0  0  0  0  0
  159.8410  211.7950  150.7380 C   0  0  0  0  0  3  0  0  0  0  0  0
  162.2740  205.0810  151.2620 C   0  0  0  0  0  2  0  0  0  0  0  0
  159.8470  210.8830  153.1370 C   0  0  0  0  0  0  0  0  0  0  0  0
  162.1800  207.0790  152.6820 C   0  0  1  0  0  3  0  0  0  0  0  0
  162.5720  206.8930  147.8750 C   0  0  0  0  0  2  0  0  0  0  0  0
  161.8500  209.4500  149.4280 C   0  0  0  0  0  2  0  0  0  0  0  0
  160.5220  211.0760  151.8390 C   0  0  0  0  0  0  0  0  0  0  0  0
  162.2190  208.0980  150.0440 C   0  0  2  0  0  3  0  0  0  0  0  0
  161.7050  209.3240  153.8130 C   0  0  2  0  0  3  0  0  0  0  0  0
  163.2170  207.3410  149.1710 C   0  0  0  0  0  2  0  0  0  0  0  0
  161.9810  204.7700  147.0280 O   0  0  0  0  0  0  0  0  0  0  0  0
  159.7080  207.6520  149.8910 C   0  0  0  0  0  1  0  0  0  0  0  0
  160.5070  212.1720  149.6870 N   0  0  0  0  0  0  0  0  0  0  0  0
  160.1920  212.9820  147.4790 C   0  0  0  0  0  2  0  0  0  0  0  0
  161.5920  212.6800  147.1740 N   0  0  0  0  0  0  0  0  0  0  0  0
  163.6420  211.8300  147.9070 O   0  0  0  0  0  0  0  0  0  0  0  0
  162.1250  212.9490  145.8350 C   0  0  0  0  0  2  0  0  0  0  0  0
  161.6720  213.6090  143.2190 S   0  0  0  0  0  1  0  0  0  0  0  0
  159.7930  212.6570  144.9660 C   0  0  0  0  0  2  0  0  0  0  0  0
  161.0480  213.5270  144.9190 C   0  0  1  0  0  3  0  0  0  0  0  0
  162.4580  212.1560  148.1940 C   0  0  0  0  0  0  0  0  0  0  0  0
  159.2770  212.4130  146.3920 C   0  0  0  0  0  2  0  0  0  0  0  0
  161.5030  207.7000  156.1720 C   0  0  0  0  0  1  0  0  0  0  0  0
  160.4580  206.9570  154.8860 S   0  0  0  0  0  0  0  0  0  0  0  0
  1 25  1  6  0  0  0
  1 13  1  0  0  0  0
  2 22  1  0  0  0  0
  2 37  1  1  0  0  0
  3 20  2  0  0  0  0
  3  9  1  0  0  0  0
  4  1  1  0  0  0  0
  4 15  1  6  0  0  0
  6 19  1  6  0  0  0
  6  3  1  0  0  0  0
  7 12  1  0  0  0  0
  9 22  1  0  0  0  0
 10 34  1  6  0  0  0
 10 26  1  0  0  0  0
 10  6  1  0  0  0  0
 12  4  1  0  0  0  0
 13 17  1  0  0  0  0
 13  2  1  0  0  0  0
 14 20  1  0  0  0  0
 15  8  1  0  0  0  0
 16 11  2  0  0  0  0
 16  5  1  0  0  0  0
 17  8  1  0  0  0  0
 17  2  1  0  0  0  0
 18  7  1  0  0  0  0
 18 23  1  0  0  0  0
 19 21  1  0  0  0  0
 20 16  1  0  0  0  0
 21  1  1  0  0  0  0
 22  5  1  0  0  0  0
 23 21  1  0  0  0  0
 24  7  2  0  0  0  0
 26 14  2  0  0  0  0
 28 27  1  0  0  0  0
 28 34  1  0  0  0  0
 29 34  2  0  0  0  0
 30 28  1  0  0  0  0
 31 33  1  0  0  0  0
 32 35  1  0  0  0  0
 33 32  1  0  0  0  0
 33 30  1  0  0  0  0
 35 27  1  0  0  0  0
 37 36  1  0  0  0  0
M  END
>  <MODEL>
2

>  <REMARK>
 VINA RESULT:      -0.5      3.628      6.869
  Name = 
  2 active torsions:
  status: ('A' for Active; 'I' for Inactive)
    1  A    between atoms: C_3  and  S_32
    2  A    between atoms: C_14  and  C_31
                            x       y       z     vdW  Elec       q    Type
                         _______ _______ _______ _____ _____    ______ ____

>  <TORSDO>
F 2

$$$$
