=
 OpenBabel11052422023D

 30 33  0  0  1  0  0  0  0  0999 V2000
  162.1230  210.2390  150.8560 C   0  0  0  0  0  0  0  0  0  0  0  0
  161.3900  211.9610  149.4060 C   0  0  0  0  0  3  0  0  0  0  0  0
  158.6580  213.4210  152.4730 O   0  0  0  0  0  0  0  0  0  0  0  0
  160.7060  210.0570  153.4060 C   0  0  0  0  0  2  0  0  0  0  0  0
  161.8410  209.0300  150.2220 O   0  0  0  0  0  0  0  0  0  0  0  0
  161.0840  206.8520  153.1010 C   0  0  1  0  0  3  0  0  0  0  0  0
  161.9570  207.3680  151.9690 C   0  0  0  0  0  2  0  0  0  0  0  0
  160.6480  206.9740  149.8940 C   0  0  0  0  0  1  0  0  0  0  0  0
  157.7070  212.4050  152.7290 C   0  0  2  0  0  3  0  0  0  0  0  0
  161.1010  208.0200  150.8940 C   0  0  2  0  0  3  0  0  0  0  0  0
  160.1430  208.9040  154.2260 C   0  0  1  0  0  3  0  0  0  0  0  0
  160.5900  213.1190  148.9190 C   0  0  0  0  0  2  0  0  0  0  0  0
  158.6780  211.5260  154.9050 C   0  0  1  0  0  3  0  0  0  0  0  0
  161.5840  205.4820  153.5120 C   0  0  0  0  0  1  0  0  0  0  0  0
  163.1150  210.3280  151.6280 O   0  0  0  0  0  0  0  0  0  0  0  0
  159.8060  213.1280  151.7350 C   0  0  0  0  0  0  0  0  0  0  0  0
  160.8340  214.2890  149.8040 C   0  0  0  0  0  3  0  0  0  0  0  0
  161.1680  207.7820  154.3020 C   0  0  0  0  0  2  0  0  0  0  0  0
  161.2710  211.4060  150.6190 C   0  0  0  0  0  0  0  0  0  0  0  0
  159.6350  210.7730  152.5680 C   0  0  1  0  0  3  0  0  0  0  0  0
  156.5280  212.9530  153.5160 C   0  0  0  0  0  1  0  0  0  0  0  0
  158.4090  211.2380  153.4130 C   0  0  2  0  0  3  0  0  0  0  0  0
  159.8890  209.3980  155.6430 C   0  0  0  0  0  2  0  0  0  0  0  0
  160.4570  214.2780  151.0770 C   0  0  0  0  0  3  0  0  0  0  0  0
  160.2510  211.8410  151.6440 C   0  0  0  0  0  0  0  0  0  0  0  0
  158.6260  210.2480  155.7450 C   0  0  0  0  0  2  0  0  0  0  0  0
  159.8620  212.2500  155.1200 O   0  0  0  0  0  0  0  0  0  0  0  0
  159.6230  213.0180  156.2630 C   0  0  0  0  0  3  0  0  0  0  0  0
  159.3610  214.4530  155.8550 C   0  0  0  0  0  1  0  0  0  0  0  0
  160.8380  212.9750  157.1690 C   0  0  0  0  0  1  0  0  0  0  0  0
  1 15  2  0  0  0  0
  2 19  2  0  0  0  0
  3  9  1  0  0  0  0
  5  1  1  0  0  0  0
  5 10  1  0  0  0  0
  6 14  1  1  0  0  0
  6 18  1  0  0  0  0
  7  6  1  0  0  0  0
  9 22  1  0  0  0  0
  9 21  1  1  0  0  0
 10  8  1  6  0  0  0
 10  7  1  0  0  0  0
 11  4  1  6  0  0  0
 11 18  1  0  0  0  0
 11 23  1  0  0  0  0
 12  2  1  0  0  0  0
 12 17  1  0  0  0  0
 13 27  1  6  0  0  0
 13 26  1  0  0  0  0
 16  3  1  0  0  0  0
 17 24  2  0  0  0  0
 19  1  1  0  0  0  0
 19 25  1  0  0  0  0
 20  4  1  1  0  0  0
 20 22  1  0  0  0  0
 22 13  1  0  0  0  0
 23 26  1  0  0  0  0
 24 16  1  0  0  0  0
 25 16  2  0  0  0  0
 25 20  1  0  0  0  0
 27 28  1  0  0  0  0
 28 30  1  0  0  0  0
 29 28  1  0  0  0  0
M  END
>  <MODEL>
1

>  <REMARK>
 VINA RESULT:      -5.0      0.000      0.000
  Name = 
  2 active torsions:
  status: ('A' for Active; 'I' for Inactive)
    1  A    between atoms: C_7  and  O_10
    2  A    between atoms: O_10  and  C_15
                            x       y       z     vdW  Elec       q    Type
                         _______ _______ _______ _____ _____    ______ ____

>  <TORSDO>
F 2

$$$$
=
 OpenBabel11052422023D

 30 33  0  0  1  0  0  0  0  0999 V2000
  162.4610  207.6040  149.8580 C   0  0  0  0  0  0  0  0  0  0  0  0
  162.0190  209.5420  148.5710 C   0  0  0  0  0  3  0  0  0  0  0  0
  160.4370  211.5590  152.0970 O   0  0  0  0  0  0  0  0  0  0  0  0
  161.5360  207.7010  152.6290 C   0  0  0  0  0  2  0  0  0  0  0  0
  161.7260  206.5660  149.2890 O   0  0  0  0  0  0  0  0  0  0  0  0
  160.8920  204.5450  152.2600 C   0  0  1  0  0  3  0  0  0  0  0  0
  161.6600  204.8480  150.9840 C   0  0  0  0  0  2  0  0  0  0  0  0
  159.9420  204.9640  149.1930 C   0  0  0  0  0  1  0  0  0  0  0  0
  159.2910  210.8490  152.5280 C   0  0  2  0  0  3  0  0  0  0  0  0
  160.8550  205.7770  150.0890 C   0  0  2  0  0  3  0  0  0  0  0  0
  160.8160  206.7170  153.5420 C   0  0  1  0  0  3  0  0  0  0  0  0
  161.5210  210.9060  148.2430 C   0  0  0  0  0  2  0  0  0  0  0  0
  160.3360  209.6090  154.4830 C   0  0  1  0  0  3  0  0  0  0  0  0
  161.0320  203.0690  152.5710 C   0  0  0  0  0  1  0  0  0  0  0  0
  163.5580  207.3600  150.4290 O   0  0  0  0  0  0  0  0  0  0  0  0
  161.2960  210.9870  151.1560 C   0  0  0  0  0  0  0  0  0  0  0  0
  162.2550  211.9060  149.0650 C   0  0  0  0  0  3  0  0  0  0  0  0
  161.4620  205.3430  153.4240 C   0  0  0  0  0  2  0  0  0  0  0  0
  161.9620  208.9790  149.7850 C   0  0  0  0  0  0  0  0  0  0  0  0
  160.5910  208.7410  152.0080 C   0  0  1  0  0  3  0  0  0  0  0  0
  158.4880  211.6710  153.5220 C   0  0  0  0  0  1  0  0  0  0  0  0
  159.7290  209.4930  153.0680 C   0  0  2  0  0  3  0  0  0  0  0  0
  160.9790  207.1850  154.9800 C   0  0  0  0  0  2  0  0  0  0  0  0
  162.1270  211.9350  150.3870 C   0  0  0  0  0  3  0  0  0  0  0  0
  161.3180  209.6330  150.9840 C   0  0  0  0  0  0  0  0  0  0  0  0
  160.0620  208.3570  155.3180 C   0  0  0  0  0  2  0  0  0  0  0  0
  161.6980  209.9470  154.4700 O   0  0  0  0  0  0  0  0  0  0  0  0
  161.9690  210.4380  155.7500 C   0  0  0  0  0  3  0  0  0  0  0  0
  161.0830  211.6360  156.0240 C   0  0  0  0  0  1  0  0  0  0  0  0
  163.4210  210.8690  155.8350 C   0  0  0  0  0  1  0  0  0  0  0  0
  1 15  2  0  0  0  0
  2 19  2  0  0  0  0
  3  9  1  0  0  0  0
  5  1  1  0  0  0  0
  5 10  1  0  0  0  0
  6 14  1  1  0  0  0
  6 18  1  0  0  0  0
  7  6  1  0  0  0  0
  9 22  1  0  0  0  0
  9 21  1  1  0  0  0
 10  8  1  6  0  0  0
 10  7  1  0  0  0  0
 11  4  1  6  0  0  0
 11 23  1  0  0  0  0
 12  2  1  0  0  0  0
 12 17  1  0  0  0  0
 13 27  1  6  0  0  0
 13 26  1  0  0  0  0
 16  3  1  0  0  0  0
 17 24  2  0  0  0  0
 18 11  1  0  0  0  0
 19  1  1  0  0  0  0
 19 25  1  0  0  0  0
 20  4  1  1  0  0  0
 20 22  1  0  0  0  0
 22 13  1  0  0  0  0
 23 26  1  0  0  0  0
 24 16  1  0  0  0  0
 25 16  2  0  0  0  0
 25 20  1  0  0  0  0
 27 28  1  0  0  0  0
 28 30  1  0  0  0  0
 28 29  1  0  0  0  0
M  END
>  <MODEL>
2

>  <REMARK>
 VINA RESULT:      -3.8      1.853      2.700
  Name = 
  2 active torsions:
  status: ('A' for Active; 'I' for Inactive)
    1  A    between atoms: C_7  and  O_10
    2  A    between atoms: O_10  and  C_15
                            x       y       z     vdW  Elec       q    Type
                         _______ _______ _______ _____ _____    ______ ____

>  <TORSDO>
F 2

$$$$
