=
 OpenBabel11052423043D

 28 29  0  0  1  0  0  0  0  0999 V2000
  161.6530  207.3110  150.6780 C   0  0  0  0  0  2  0  0  0  0  0  0
  163.4040  207.1210  148.3810 C   0  0  0  0  0  1  0  0  0  0  0  0
  161.8930  207.1050  148.1390 C   0  0  1  0  0  0  0  0  0  0  0  0
  161.9520  205.9640  153.1420 C   0  0  0  0  0  2  0  0  0  0  0  0
  162.0870  204.7490  147.2850 C   0  0  0  0  0  2  0  0  0  0  0  0
  161.4350  204.2280  148.5380 C   0  0  0  0  0  0  0  0  0  0  0  0
  161.6430  206.1660  146.9380 C   0  0  1  0  0  3  0  0  0  0  0  0
  161.2650  203.9650  151.8240 C   0  0  0  0  0  2  0  0  0  0  0  0
  161.0940  205.0570  149.5670 C   0  0  0  0  0  0  0  0  0  0  0  0
  161.2010  207.1570  153.0690 O   0  0  0  0  0  0  0  0  0  0  0  0
  160.3330  204.5110  150.7510 C   0  0  0  0  0  2  0  0  0  0  0  0
  161.0740  204.7160  153.1330 C   0  0  0  0  0  2  0  0  0  0  0  0
  160.6110  207.2450  151.7920 C   0  0  0  0  0  2  0  0  0  0  0  0
  161.1660  206.5820  149.4190 C   0  0  1  0  0  3  0  0  0  0  0  0
  159.9940  206.2550  145.2430 O   0  0  0  0  0  0  0  0  0  0  0  0
  160.2280  206.1540  146.4370 C   0  0  0  0  0  3  0  0  0  0  0  0
  161.5330  208.4380  147.8210 O   0  0  0  0  0  0  0  0  0  0  0  0
  162.3160  209.2580  148.5000 O   0  0  0  0  0  1  0  0  0  0  0  0
  161.1950  202.7330  148.5500 C   0  0  1  0  0  3  0  0  0  0  0  0
  159.8520  201.3350  149.6260 C   0  0  0  0  0  1  0  0  0  0  0  0
  159.8450  202.4500  148.7850 O   0  0  0  0  0  0  0  0  0  0  0  0
  161.6980  202.0410  147.2770 C   0  0  2  0  0  3  0  0  0  0  0  0
  160.8460  202.3920  146.1330 C   0  0  0  0  0  0  0  0  0  0  0  0
  160.1480  202.6820  145.1960 C   0  0  0  0  0  0  0  0  0  0  0  0
  159.2990  203.0340  144.0570 C   0  0  0  0  0  1  0  0  0  0  0  0
  161.6870  200.6530  147.4470 O   0  0  0  0  0  0  0  0  0  0  0  0
  161.1290  200.1500  146.2690 C   0  0  0  0  0  2  0  0  0  0  0  0
  161.5350  198.8280  146.0910 O   0  0  0  0  0  1  0  0  0  0  0  0
  1 13  1  0  0  0  0
  3  2  1  1  0  0  0
  3 14  1  0  0  0  0
  5  6  1  0  0  0  0
  6 19  1  0  0  0  0
  6  9  2  0  0  0  0
  7 16  1  1  0  0  0
  7  5  1  0  0  0  0
  7  3  1  0  0  0  0
  8 12  1  0  0  0  0
  9 11  1  0  0  0  0
 10  4  1  0  0  0  0
 11  8  1  0  0  0  0
 12  4  1  0  0  0  0
 13 10  1  0  0  0  0
 14  9  1  0  0  0  0
 14  1  1  1  0  0  0
 15 16  2  0  0  0  0
 17  3  1  0  0  0  0
 17 18  1  0  0  0  0
 19 21  1  6  0  0  0
 21 20  1  0  0  0  0
 22 23  1  6  0  0  0
 22 26  1  0  0  0  0
 22 19  1  0  0  0  0
 24 23  3  0  0  0  0
 25 24  1  0  0  0  0
 27 26  1  0  0  0  0
 28 27  1  0  0  0  0
M  END
>  <MODEL>
1

>  <REMARK>
 VINA RESULT:      -5.9      0.000      0.000
  Name = 
  8 active torsions:
  status: ('A' for Active; 'I' for Inactive)
    1  A    between atoms: C_3  and  O_7
    2  A    between atoms: C_9  and  C_12
    3  A    between atoms: C_9  and  C_13
    4  A    between atoms: C_9  and  O_14
    5  A    between atoms: C_10  and  C_13
    6  A    between atoms: C_11  and  C_22
    7  A    between atoms: C_13  and  O_24
    8  A    between atoms: O_14  and  C_18
                            x       y       z     vdW  Elec       q    Type
                         _______ _______ _______ _____ _____    ______ ____

>  <TORSDO>
F 8

$$$$
=
 OpenBabel11052423043D

 28 29  0  0  1  0  0  0  0  0999 V2000
  162.1840  206.9340  147.6270 C   0  0  0  0  0  2  0  0  0  0  0  0
  163.4510  205.0470  145.8340 C   0  0  0  0  0  1  0  0  0  0  0  0
  161.9450  205.2790  145.6890 C   0  0  1  0  0  0  0  0  0  0  0  0
  162.6400  207.1880  150.4020 C   0  0  0  0  0  2  0  0  0  0  0  0
  161.5440  202.8960  146.3800 C   0  0  0  0  0  2  0  0  0  0  0  0
  161.0290  203.3560  147.7170 C   0  0  0  0  0  0  0  0  0  0  0  0
  161.3220  203.9260  145.2780 C   0  0  1  0  0  3  0  0  0  0  0  0
  161.3750  205.0450  150.5320 C   0  0  0  0  0  2  0  0  0  0  0  0
  161.0310  204.6740  148.0700 C   0  0  0  0  0  0  0  0  0  0  0  0
  162.1250  208.2740  149.6620 O   0  0  0  0  0  0  0  0  0  0  0  0
  160.3930  205.1050  149.3690 C   0  0  0  0  0  2  0  0  0  0  0  0
  161.5540  206.4220  151.1540 C   0  0  0  0  0  2  0  0  0  0  0  0
  161.3540  207.7720  148.5950 C   0  0  0  0  0  2  0  0  0  0  0  0
  161.3620  205.7720  147.0520 C   0  0  1  0  0  3  0  0  0  0  0  0
  159.3800  203.1700  144.1580 O   0  0  0  0  0  0  0  0  0  0  0  0
  159.8660  203.9910  144.9200 C   0  0  0  0  0  3  0  0  0  0  0  0
  161.7930  206.2390  144.6580 O   0  0  0  0  0  0  0  0  0  0  0  0
  161.6860  205.6020  143.5050 O   0  0  0  0  0  1  0  0  0  0  0  0
  160.5180  202.2480  148.6130 C   0  0  1  0  0  3  0  0  0  0  0  0
  158.5550  201.4310  149.2420 C   0  0  0  0  0  1  0  0  0  0  0  0
  159.3240  201.7160  148.1120 O   0  0  0  0  0  0  0  0  0  0  0  0
  161.5630  201.1510  148.8540 C   0  0  2  0  0  3  0  0  0  0  0  0
  161.5490  200.1810  147.7510 C   0  0  0  0  0  0  0  0  0  0  0  0
  161.5370  199.3870  146.8450 C   0  0  0  0  0  0  0  0  0  0  0  0
  161.5240  198.4230  145.7450 C   0  0  0  0  0  1  0  0  0  0  0  0
  161.2920  200.4840  150.0520 O   0  0  0  0  0  0  0  0  0  0  0  0
  161.1080  201.4970  150.9960 C   0  0  0  0  0  2  0  0  0  0  0  0
  162.3130  201.7470  151.6510 O   0  0  0  0  0  1  0  0  0  0  0  0
  1 13  1  0  0  0  0
  3  2  1  1  0  0  0
  3 14  1  0  0  0  0
  4 12  1  0  0  0  0
  5  6  1  0  0  0  0
  6  9  2  0  0  0  0
  6 19  1  0  0  0  0
  7 16  1  1  0  0  0
  7  3  1  0  0  0  0
  7  5  1  0  0  0  0
  8 12  1  0  0  0  0
  9 11  1  0  0  0  0
 10  4  1  0  0  0  0
 11  8  1  0  0  0  0
 13 10  1  0  0  0  0
 14  1  1  1  0  0  0
 14  9  1  0  0  0  0
 15 16  2  0  0  0  0
 17  3  1  0  0  0  0
 18 17  1  0  0  0  0
 19 21  1  6  0  0  0
 19 22  1  0  0  0  0
 21 20  1  0  0  0  0
 22 23  1  6  0  0  0
 22 26  1  0  0  0  0
 24 23  3  0  0  0  0
 25 24  1  0  0  0  0
 26 27  1  0  0  0  0
 27 28  1  0  0  0  0
M  END
>  <MODEL>
2

>  <REMARK>
 VINA RESULT:      -5.5      1.760      3.282
  Name = 
  8 active torsions:
  status: ('A' for Active; 'I' for Inactive)
    1  A    between atoms: C_3  and  O_7
    2  A    between atoms: C_9  and  C_12
    3  A    between atoms: C_9  and  C_13
    4  A    between atoms: C_9  and  O_14
    5  A    between atoms: C_10  and  C_13
    6  A    between atoms: C_11  and  C_22
    7  A    between atoms: C_13  and  O_24
    8  A    between atoms: O_14  and  C_18
                            x       y       z     vdW  Elec       q    Type
                         _______ _______ _______ _____ _____    ______ ____

>  <TORSDO>
F 8

$$$$
=
 OpenBabel11052423043D

 28 29  0  0  1  0  0  0  0  0999 V2000
  156.6300  213.1750  153.3300 C   0  0  0  0  0  2  0  0  0  0  0  0
  156.1240  210.7590  154.8420 C   0  0  0  0  0  1  0  0  0  0  0  0
  157.0080  211.8350  155.4770 C   0  0  1  0  0  0  0  0  0  0  0  0
  157.2380  213.3450  150.5780 C   0  0  0  0  0  2  0  0  0  0  0  0
  158.9500  210.2410  155.3970 C   0  0  0  0  0  2  0  0  0  0  0  0
  159.5710  211.0330  154.2780 C   0  0  0  0  0  0  0  0  0  0  0  0
  158.0790  211.0980  156.3110 C   0  0  1  0  0  3  0  0  0  0  0  0
  159.4380  212.4130  151.2830 C   0  0  0  0  0  2  0  0  0  0  0  0
  158.9400  212.1100  153.7270 C   0  0  0  0  0  0  0  0  0  0  0  0
  156.6850  214.4530  151.2550 O   0  0  0  0  0  0  0  0  0  0  0  0
  159.6510  212.9480  152.6920 C   0  0  0  0  0  2  0  0  0  0  0  0
  158.7510  213.4540  150.4110 C   0  0  0  0  0  2  0  0  0  0  0  0
  157.1110  214.4250  152.5970 C   0  0  0  0  0  2  0  0  0  0  0  0
  157.6680  212.6960  154.3530 C   0  0  1  0  0  3  0  0  0  0  0  0
  160.0640  212.2960  156.7820 O   0  0  0  0  0  0  0  0  0  0  0  0
  158.9410  211.9920  157.1530 C   0  0  0  0  0  3  0  0  0  0  0  0
  156.1560  212.5990  156.3120 O   0  0  0  0  0  0  0  0  0  0  0  0
  155.3010  211.7820  156.9000 O   0  0  0  0  0  1  0  0  0  0  0  0
  160.9290  210.5370  153.8310 C   0  0  1  0  0  3  0  0  0  0  0  0
  162.6450  210.7070  155.2260 C   0  0  0  0  0  1  0  0  0  0  0  0
  161.5820  209.8720  154.8750 O   0  0  0  0  0  0  0  0  0  0  0  0
  160.8570  209.6650  152.5710 C   0  0  2  0  0  3  0  0  0  0  0  0
  160.9960  208.2460  152.9220 C   0  0  0  0  0  0  0  0  0  0  0  0
  161.1090  207.0820  153.2110 C   0  0  0  0  0  0  0  0  0  0  0  0
  161.2460  205.6680  153.5600 C   0  0  0  0  0  1  0  0  0  0  0  0
  161.8770  210.0190  151.6830 O   0  0  0  0  0  0  0  0  0  0  0  0
  162.0250  208.9120  150.8420 C   0  0  0  0  0  2  0  0  0  0  0  0
  162.2050  209.3460  149.5300 O   0  0  0  0  0  1  0  0  0  0  0  0
  3  2  1  6  0  0  0
  3  7  1  0  0  0  0
  3 17  1  0  0  0  0
  4 10  1  0  0  0  0
  5  7  1  0  0  0  0
  6  5  1  0  0  0  0
  7 16  1  6  0  0  0
  8 11  1  0  0  0  0
  9  6  2  0  0  0  0
  9 14  1  0  0  0  0
 10 13  1  0  0  0  0
 11  9  1  0  0  0  0
 12  4  1  0  0  0  0
 12  8  1  0  0  0  0
 13  1  1  0  0  0  0
 14  1  1  6  0  0  0
 14  3  1  0  0  0  0
 15 16  2  0  0  0  0
 17 18  1  0  0  0  0
 19  6  1  0  0  0  0
 19 21  1  1  0  0  0
 21 20  1  0  0  0  0
 22 23  1  1  0  0  0
 22 19  1  0  0  0  0
 23 24  3  0  0  0  0
 24 25  1  0  0  0  0
 26 22  1  0  0  0  0
 27 26  1  0  0  0  0
 28 27  1  0  0  0  0
M  END
>  <MODEL>
3

>  <REMARK>
 VINA RESULT:      -5.3      5.731      9.917
  Name = 
  8 active torsions:
  status: ('A' for Active; 'I' for Inactive)
    1  A    between atoms: C_3  and  O_7
    2  A    between atoms: C_9  and  C_12
    3  A    between atoms: C_9  and  C_13
    4  A    between atoms: C_9  and  O_14
    5  A    between atoms: C_10  and  C_13
    6  A    between atoms: C_11  and  C_22
    7  A    between atoms: C_13  and  O_24
    8  A    between atoms: O_14  and  C_18
                            x       y       z     vdW  Elec       q    Type
                         _______ _______ _______ _____ _____    ______ ____

>  <TORSDO>
F 8

$$$$
=
 OpenBabel11052423043D

 28 29  0  0  1  0  0  0  0  0999 V2000
  161.0130  203.5520  147.2570 C   0  0  0  0  0  2  0  0  0  0  0  0
  159.8660  206.1910  146.9360 C   0  0  0  0  0  1  0  0  0  0  0  0
  161.3410  206.0890  147.3320 C   0  0  1  0  0  0  0  0  0  0  0  0
  159.8180  201.3400  148.5430 C   0  0  0  0  0  2  0  0  0  0  0  0
  160.7900  207.1590  149.5380 C   0  0  0  0  0  2  0  0  0  0  0  0
  160.9780  205.8410  150.2400 C   0  0  0  0  0  0  0  0  0  0  0  0
  161.6340  207.2780  148.2740 C   0  0  1  0  0  3  0  0  0  0  0  0
  160.2920  202.6350  150.6180 C   0  0  0  0  0  2  0  0  0  0  0  0
  161.2550  204.6960  149.5510 C   0  0  0  0  0  0  0  0  0  0  0  0
  160.8320  201.1430  147.5810 O   0  0  0  0  0  0  0  0  0  0  0  0
  161.5570  203.4220  150.3020 C   0  0  0  0  0  2  0  0  0  0  0  0
  160.3430  201.2570  149.9740 C   0  0  0  0  0  2  0  0  0  0  0  0
  161.7110  202.2430  147.6140 C   0  0  0  0  0  2  0  0  0  0  0  0
  161.5930  204.7280  148.0560 C   0  0  1  0  0  3  0  0  0  0  0  0
  163.4090  207.6570  149.7920 O   0  0  0  0  0  0  0  0  0  0  0  0
  163.0800  207.4490  148.6350 C   0  0  0  0  0  3  0  0  0  0  0  0
  162.0790  206.2050  146.1280 O   0  0  0  0  0  0  0  0  0  0  0  0
  161.2560  206.0200  145.1120 O   0  0  0  0  0  1  0  0  0  0  0  0
  160.8380  205.9010  151.7460 C   0  0  1  0  0  3  0  0  0  0  0  0
  162.8760  205.4530  152.4990 C   0  0  0  0  0  1  0  0  0  0  0  0
  161.6020  204.8990  152.3550 O   0  0  0  0  0  0  0  0  0  0  0  0
  161.1720  207.2850  152.3180 C   0  0  2  0  0  3  0  0  0  0  0  0
  160.8310  207.3440  153.7450 C   0  0  0  0  0  0  0  0  0  0  0  0
  160.5520  207.3910  154.9160 C   0  0  0  0  0  0  0  0  0  0  0  0
  160.2150  207.4480  156.3380 C   0  0  0  0  0  1  0  0  0  0  0  0
  160.4570  208.2740  151.6350 O   0  0  0  0  0  0  0  0  0  0  0  0
  160.9030  209.4820  152.1770 C   0  0  0  0  0  2  0  0  0  0  0  0
  162.0120  209.9300  151.4630 O   0  0  0  0  0  1  0  0  0  0  0  0
  1 13  1  0  0  0  0
  3  2  1  6  0  0  0
  3 14  1  0  0  0  0
  3  7  1  0  0  0  0
  4 12  1  0  0  0  0
  5  6  1  0  0  0  0
  6 19  1  0  0  0  0
  7 16  1  1  0  0  0
  7  5  1  0  0  0  0
  9  6  2  0  0  0  0
  9 11  1  0  0  0  0
 10 13  1  0  0  0  0
 10  4  1  0  0  0  0
 11  8  1  0  0  0  0
 12  8  1  0  0  0  0
 14  1  1  6  0  0  0
 14  9  1  0  0  0  0
 16 15  2  0  0  0  0
 17  3  1  0  0  0  0
 18 17  1  0  0  0  0
 19 22  1  0  0  0  0
 19 21  1  1  0  0  0
 21 20  1  0  0  0  0
 22 23  1  1  0  0  0
 23 24  3  0  0  0  0
 24 25  1  0  0  0  0
 26 27  1  0  0  0  0
 26 22  1  0  0  0  0
 28 27  1  0  0  0  0
M  END
>  <MODEL>
4

>  <REMARK>
 VINA RESULT:      -4.7      1.693      6.517
  Name = 
  8 active torsions:
  status: ('A' for Active; 'I' for Inactive)
    1  A    between atoms: C_3  and  O_7
    2  A    between atoms: C_9  and  C_12
    3  A    between atoms: C_9  and  C_13
    4  A    between atoms: C_9  and  O_14
    5  A    between atoms: C_10  and  C_13
    6  A    between atoms: C_11  and  C_22
    7  A    between atoms: C_13  and  O_24
    8  A    between atoms: O_14  and  C_18
                            x       y       z     vdW  Elec       q    Type
                         _______ _______ _______ _____ _____    ______ ____

>  <TORSDO>
F 8

$$$$
=
 OpenBabel11052423043D

 28 29  0  0  1  0  0  0  0  0999 V2000
  156.9070  213.3590  152.9510 C   0  0  0  0  0  2  0  0  0  0  0  0
  156.1650  211.3110  154.8580 C   0  0  0  0  0  1  0  0  0  0  0  0
  156.9510  212.5210  155.3680 C   0  0  1  0  0  0  0  0  0  0  0  0
  157.9200  212.9500  150.3480 C   0  0  0  0  0  2  0  0  0  0  0  0
  158.8720  210.9970  155.9220 C   0  0  0  0  0  2  0  0  0  0  0  0
  159.6590  211.5460  154.7620 C   0  0  0  0  0  0  0  0  0  0  0  0
  157.8810  212.0080  156.4910 C   0  0  1  0  0  3  0  0  0  0  0  0
  159.9840  212.2470  151.5530 C   0  0  0  0  0  2  0  0  0  0  0  0
  159.1250  212.4640  153.9050 C   0  0  0  0  0  0  0  0  0  0  0  0
  157.2800  214.1630  150.6810 O   0  0  0  0  0  0  0  0  0  0  0  0
  159.9880  213.0780  152.8290 C   0  0  0  0  0  2  0  0  0  0  0  0
  159.4420  213.0590  150.3860 C   0  0  0  0  0  2  0  0  0  0  0  0
  157.5010  214.4340  152.0450 C   0  0  0  0  0  2  0  0  0  0  0  0
  157.7780  213.1370  154.1960 C   0  0  1  0  0  3  0  0  0  0  0  0
  159.7570  213.3810  156.9300 O   0  0  0  0  0  0  0  0  0  0  0  0
  158.6140  213.0830  157.2370 C   0  0  0  0  0  3  0  0  0  0  0  0
  155.9890  213.4250  155.8840 O   0  0  0  0  0  0  0  0  0  0  0  0
  155.1360  212.7470  156.6330 O   0  0  0  0  0  1  0  0  0  0  0  0
  161.0650  211.0010  154.6390 C   0  0  1  0  0  3  0  0  0  0  0  0
  162.6900  210.3810  156.0150 C   0  0  0  0  0  1  0  0  0  0  0  0
  161.8700  211.4630  155.6860 O   0  0  0  0  0  0  0  0  0  0  0  0
  161.1010  209.4710  154.5370 C   0  0  2  0  0  3  0  0  0  0  0  0
  161.1770  209.0530  153.1310 C   0  0  0  0  0  0  0  0  0  0  0  0
  161.2380  208.7100  151.9780 C   0  0  0  0  0  0  0  0  0  0  0  0
  161.3110  208.2920  150.5780 C   0  0  0  0  0  1  0  0  0  0  0  0
  159.9530  208.9230  155.1170 O   0  0  0  0  0  0  0  0  0  0  0  0
  160.3520  207.6730  155.5980 C   0  0  0  0  0  2  0  0  0  0  0  0
  160.0370  207.5760  156.9520 O   0  0  0  0  0  1  0  0  0  0  0  0
  3  2  1  6  0  0  0
  3 17  1  0  0  0  0
  3  7  1  0  0  0  0
  4 12  1  0  0  0  0
  4 10  1  0  0  0  0
  5  7  1  0  0  0  0
  6  5  1  0  0  0  0
  7 16  1  6  0  0  0
  8 11  1  0  0  0  0
  9 14  1  0  0  0  0
  9  6  2  0  0  0  0
 10 13  1  0  0  0  0
 11  9  1  0  0  0  0
 12  8  1  0  0  0  0
 13  1  1  0  0  0  0
 14  1  1  6  0  0  0
 14  3  1  0  0  0  0
 15 16  2  0  0  0  0
 17 18  1  0  0  0  0
 19  6  1  0  0  0  0
 19 21  1  1  0  0  0
 21 20  1  0  0  0  0
 22 23  1  6  0  0  0
 22 19  1  0  0  0  0
 22 26  1  0  0  0  0
 24 23  3  0  0  0  0
 25 24  1  0  0  0  0
 26 27  1  0  0  0  0
 27 28  1  0  0  0  0
M  END
>  <MODEL>
5

>  <REMARK>
 VINA RESULT:      -4.1      6.568     10.408
  Name = 
  8 active torsions:
  status: ('A' for Active; 'I' for Inactive)
    1  A    between atoms: C_3  and  O_7
    2  A    between atoms: C_9  and  C_12
    3  A    between atoms: C_9  and  C_13
    4  A    between atoms: C_9  and  O_14
    5  A    between atoms: C_10  and  C_13
    6  A    between atoms: C_11  and  C_22
    7  A    between atoms: C_13  and  O_24
    8  A    between atoms: O_14  and  C_18
                            x       y       z     vdW  Elec       q    Type
                         _______ _______ _______ _____ _____    ______ ____

>  <TORSDO>
F 8

$$$$
=
 OpenBabel11052423043D

 28 29  0  0  1  0  0  0  0  0999 V2000
  161.3720  204.6470  149.8110 C   0  0  0  0  0  2  0  0  0  0  0  0
  162.9920  204.5750  152.2100 C   0  0  0  0  0  1  0  0  0  0  0  0
  161.5570  205.0940  152.3240 C   0  0  1  0  0  0  0  0  0  0  0  0
  162.1930  205.5030  147.2490 C   0  0  0  0  0  2  0  0  0  0  0  0
  162.4590  207.3600  152.9300 C   0  0  0  0  0  2  0  0  0  0  0  0
  162.0630  207.8930  151.5790 C   0  0  0  0  0  0  0  0  0  0  0  0
  161.5690  206.2100  153.3920 C   0  0  1  0  0  3  0  0  0  0  0  0
  162.1270  207.7690  148.2820 C   0  0  0  0  0  2  0  0  0  0  0  0
  161.5190  207.0870  150.6220 C   0  0  0  0  0  0  0  0  0  0  0  0
  161.0970  204.6250  147.3900 O   0  0  0  0  0  0  0  0  0  0  0  0
  161.0240  207.6850  149.3280 C   0  0  0  0  0  2  0  0  0  0  0  0
  161.7620  206.9530  147.0500 C   0  0  0  0  0  2  0  0  0  0  0  0
  160.4560  204.8910  148.6160 C   0  0  0  0  0  2  0  0  0  0  0  0
  161.0920  205.6490  150.9400 C   0  0  1  0  0  3  0  0  0  0  0  0
  159.9880  207.0950  154.9140 O   0  0  0  0  0  0  0  0  0  0  0  0
  160.2140  206.7290  153.7710 C   0  0  0  0  0  3  0  0  0  0  0  0
  160.7750  203.9930  152.7550 O   0  0  0  0  0  0  0  0  0  0  0  0
  161.2870  202.8880  152.2420 O   0  0  0  0  0  1  0  0  0  0  0  0
  162.3150  209.3730  151.3850 C   0  0  1  0  0  3  0  0  0  0  0  0
  162.1290  211.1030  150.0100 C   0  0  0  0  0  1  0  0  0  0  0  0
  162.2560  209.7120  150.0290 O   0  0  0  0  0  0  0  0  0  0  0  0
  161.3760  210.2500  152.2230 C   0  0  2  0  0  3  0  0  0  0  0  0
  161.8470  210.3220  153.6120 C   0  0  0  0  0  0  0  0  0  0  0  0
  162.2350  210.3810  154.7510 C   0  0  0  0  0  0  0  0  0  0  0  0
  162.7070  210.4530  156.1340 C   0  0  0  0  0  1  0  0  0  0  0  0
  160.0810  209.7210  152.2060 O   0  0  0  0  0  0  0  0  0  0  0  0
  159.2820  210.7030  152.7990 C   0  0  0  0  0  2  0  0  0  0  0  0
  159.2980  211.8520  152.0110 O   0  0  0  0  0  1  0  0  0  0  0  0
  3  2  1  6  0  0  0
  3 17  1  0  0  0  0
  3  7  1  0  0  0  0
  4 10  1  0  0  0  0
  5  7  1  0  0  0  0
  6  5  1  0  0  0  0
  7 16  1  6  0  0  0
  8 11  1  0  0  0  0
  9 14  1  0  0  0  0
  9  6  2  0  0  0  0
 10 13  1  0  0  0  0
 11  9  1  0  0  0  0
 12  4  1  0  0  0  0
 12  8  1  0  0  0  0
 13  1  1  0  0  0  0
 14  1  1  6  0  0  0
 14  3  1  0  0  0  0
 16 15  2  0  0  0  0
 18 17  1  0  0  0  0
 19 21  1  6  0  0  0
 19  6  1  0  0  0  0
 19 22  1  0  0  0  0
 20 21  1  0  0  0  0
 22 23  1  1  0  0  0
 23 24  3  0  0  0  0
 24 25  1  0  0  0  0
 26 22  1  0  0  0  0
 26 27  1  0  0  0  0
 28 27  1  0  0  0  0
M  END
>  <MODEL>
6

>  <REMARK>
 VINA RESULT:      -4.0      2.752      8.133
  Name = 
  8 active torsions:
  status: ('A' for Active; 'I' for Inactive)
    1  A    between atoms: C_3  and  O_7
    2  A    between atoms: C_9  and  C_12
    3  A    between atoms: C_9  and  C_13
    4  A    between atoms: C_9  and  O_14
    5  A    between atoms: C_10  and  C_13
    6  A    between atoms: C_11  and  C_22
    7  A    between atoms: C_13  and  O_24
    8  A    between atoms: O_14  and  C_18
                            x       y       z     vdW  Elec       q    Type
                         _______ _______ _______ _____ _____    ______ ____

>  <TORSDO>
F 8

$$$$
=
 OpenBabel11052423043D

 28 29  0  0  1  0  0  0  0  0999 V2000
  161.8070  207.2030  150.5070 C   0  0  0  0  0  2  0  0  0  0  0  0
  163.4380  206.3890  148.2580 C   0  0  0  0  0  1  0  0  0  0  0  0
  161.9360  206.5770  148.0290 C   0  0  1  0  0  0  0  0  0  0  0  0
  161.9640  206.2160  153.1480 C   0  0  0  0  0  2  0  0  0  0  0  0
  161.7330  204.1190  147.5490 C   0  0  0  0  0  2  0  0  0  0  0  0
  161.0450  203.9040  148.8700 C   0  0  0  0  0  0  0  0  0  0  0  0
  161.5070  205.5190  146.9890 C   0  0  1  0  0  3  0  0  0  0  0  0
  160.9340  204.1740  152.1580 C   0  0  0  0  0  2  0  0  0  0  0  0
  160.8700  204.9240  149.7600 C   0  0  0  0  0  0  0  0  0  0  0  0
  161.4070  207.4880  152.8940 O   0  0  0  0  0  0  0  0  0  0  0  0
  160.0670  204.6930  151.0180 C   0  0  0  0  0  2  0  0  0  0  0  0
  160.9010  205.1370  153.3370 C   0  0  0  0  0  2  0  0  0  0  0  0
  160.8010  207.4740  151.6230 C   0  0  0  0  0  2  0  0  0  0  0  0
  161.1750  206.3770  149.3780 C   0  0  1  0  0  3  0  0  0  0  0  0
  159.8630  206.0970  145.3880 O   0  0  0  0  0  0  0  0  0  0  0  0
  160.0940  205.6560  146.5030 C   0  0  0  0  0  3  0  0  0  0  0  0
  161.7800  207.8870  147.5100 O   0  0  0  0  0  0  0  0  0  0  0  0
  162.4700  208.7230  148.2650 O   0  0  0  0  0  1  0  0  0  0  0  0
  160.5740  202.4870  149.1150 C   0  0  1  0  0  3  0  0  0  0  0  0
  158.6760  201.3460  149.0020 C   0  0  0  0  0  1  0  0  0  0  0  0
  159.5280  202.1550  148.2470 O   0  0  0  0  0  0  0  0  0  0  0  0
  161.7130  201.4620  149.0370 C   0  0  2  0  0  3  0  0  0  0  0  0
  161.5620  200.6200  147.8420 C   0  0  0  0  0  0  0  0  0  0  0  0
  161.4370  199.9310  146.8630 C   0  0  0  0  0  0  0  0  0  0  0  0
  161.2840  199.0940  145.6720 C   0  0  0  0  0  1  0  0  0  0  0  0
  161.7070  200.6480  150.1730 O   0  0  0  0  0  0  0  0  0  0  0  0
  161.6880  201.5340  151.2530 C   0  0  0  0  0  2  0  0  0  0  0  0
  162.8320  201.3480  152.0270 O   0  0  0  0  0  1  0  0  0  0  0  0
  1 13  1  0  0  0  0
  3  2  1  1  0  0  0
  3 14  1  0  0  0  0
  4 12  1  0  0  0  0
  5  6  1  0  0  0  0
  6 19  1  0  0  0  0
  6  9  2  0  0  0  0
  7 16  1  1  0  0  0
  7  5  1  0  0  0  0
  7  3  1  0  0  0  0
  8 12  1  0  0  0  0
  9 11  1  0  0  0  0
 10  4  1  0  0  0  0
 11  8  1  0  0  0  0
 13 10  1  0  0  0  0
 14  9  1  0  0  0  0
 14  1  1  1  0  0  0
 15 16  2  0  0  0  0
 17  3  1  0  0  0  0
 17 18  1  0  0  0  0
 19 21  1  6  0  0  0
 21 20  1  0  0  0  0
 22 23  1  6  0  0  0
 22 19  1  0  0  0  0
 22 26  1  0  0  0  0
 24 23  3  0  0  0  0
 25 24  1  0  0  0  0
 26 27  1  0  0  0  0
 27 28  1  0  0  0  0
M  END
>  <MODEL>
7

>  <REMARK>
 VINA RESULT:      -4.0      1.548      2.151
  Name = 
  8 active torsions:
  status: ('A' for Active; 'I' for Inactive)
    1  A    between atoms: C_3  and  O_7
    2  A    between atoms: C_9  and  C_12
    3  A    between atoms: C_9  and  C_13
    4  A    between atoms: C_9  and  O_14
    5  A    between atoms: C_10  and  C_13
    6  A    between atoms: C_11  and  C_22
    7  A    between atoms: C_13  and  O_24
    8  A    between atoms: O_14  and  C_18
                            x       y       z     vdW  Elec       q    Type
                         _______ _______ _______ _____ _____    ______ ____

>  <TORSDO>
F 8

$$$$
=
 OpenBabel11052423043D

 28 29  0  0  1  0  0  0  0  0999 V2000
  161.3220  205.1210  151.5880 C   0  0  0  0  0  2  0  0  0  0  0  0
  163.5760  206.8680  151.0880 C   0  0  0  0  0  1  0  0  0  0  0  0
  162.1990  207.3050  150.5840 C   0  0  1  0  0  0  0  0  0  0  0  0
  161.2740  202.3110  151.3170 C   0  0  0  0  0  2  0  0  0  0  0  0
  163.0400  207.1180  148.2220 C   0  0  0  0  0  2  0  0  0  0  0  0
  162.2190  205.8730  148.0150 C   0  0  0  0  0  0  0  0  0  0  0  0
  162.4290  208.0600  149.2550 C   0  0  1  0  0  3  0  0  0  0  0  0
  161.3200  202.8170  148.8770 C   0  0  0  0  0  2  0  0  0  0  0  0
  161.4890  205.3190  149.0260 C   0  0  0  0  0  0  0  0  0  0  0  0
  160.3480  202.9610  152.1600 O   0  0  0  0  0  0  0  0  0  0  0  0
  160.5850  204.1440  148.7440 C   0  0  0  0  0  2  0  0  0  0  0  0
  160.6800  201.9560  149.9570 C   0  0  0  0  0  2  0  0  0  0  0  0
  160.0760  204.2410  151.6370 C   0  0  0  0  0  2  0  0  0  0  0  0
  161.3000  206.0470  150.3640 C   0  0  1  0  0  3  0  0  0  0  0  0
  161.2600  209.8600  148.2590 O   0  0  0  0  0  0  0  0  0  0  0  0
  161.2050  208.7190  148.6890 C   0  0  0  0  0  3  0  0  0  0  0  0
  161.6770  208.1750  151.5730 O   0  0  0  0  0  0  0  0  0  0  0  0
  162.4560  209.2390  151.6490 O   0  0  0  0  0  1  0  0  0  0  0  0
  162.2740  205.3070  146.6130 C   0  0  1  0  0  3  0  0  0  0  0  0
  164.1710  204.3280  146.0110 C   0  0  0  0  0  1  0  0  0  0  0  0
  162.9320  204.0720  146.6020 O   0  0  0  0  0  0  0  0  0  0  0  0
  160.8900  205.2090  145.9580 C   0  0  2  0  0  3  0  0  0  0  0  0
  160.6030  203.8200  145.5750 C   0  0  0  0  0  0  0  0  0  0  0  0
  160.3680  202.6810  145.2620 C   0  0  0  0  0  0  0  0  0  0  0  0
  160.0810  201.2970  144.8840 C   0  0  0  0  0  1  0  0  0  0  0  0
  160.8380  206.0170  144.8180 O   0  0  0  0  0  0  0  0  0  0  0  0
  161.4740  205.2750  143.8190 C   0  0  0  0  0  2  0  0  0  0  0  0
  161.5810  206.0480  142.6640 O   0  0  0  0  0  1  0  0  0  0  0  0
  1 13  1  0  0  0  0
  3  2  1  1  0  0  0
  3 17  1  0  0  0  0
  4 10  1  0  0  0  0
  5  7  1  0  0  0  0
  6  5  1  0  0  0  0
  6  9  2  0  0  0  0
  7 16  1  6  0  0  0
  7  3  1  0  0  0  0
  8 12  1  0  0  0  0
  9 14  1  0  0  0  0
 11  8  1  0  0  0  0
 11  9  1  0  0  0  0
 12  4  1  0  0  0  0
 13 10  1  0  0  0  0
 14  3  1  0  0  0  0
 14  1  1  1  0  0  0
 15 16  2  0  0  0  0
 17 18  1  0  0  0  0
 19 21  1  1  0  0  0
 19  6  1  0  0  0  0
 20 21  1  0  0  0  0
 22 23  1  6  0  0  0
 22 19  1  0  0  0  0
 24 23  3  0  0  0  0
 25 24  1  0  0  0  0
 26 22  1  0  0  0  0
 27 26  1  0  0  0  0
 28 27  1  0  0  0  0
M  END
>  <MODEL>
8

>  <REMARK>
 VINA RESULT:      -3.9      1.860      3.783
  Name = 
  8 active torsions:
  status: ('A' for Active; 'I' for Inactive)
    1  A    between atoms: C_3  and  O_7
    2  A    between atoms: C_9  and  C_12
    3  A    between atoms: C_9  and  C_13
    4  A    between atoms: C_9  and  O_14
    5  A    between atoms: C_10  and  C_13
    6  A    between atoms: C_11  and  C_22
    7  A    between atoms: C_13  and  O_24
    8  A    between atoms: O_14  and  C_18
                            x       y       z     vdW  Elec       q    Type
                         _______ _______ _______ _____ _____    ______ ____

>  <TORSDO>
F 8

$$$$
=
 OpenBabel11052423043D

 28 29  0  0  1  0  0  0  0  0999 V2000
  160.8470  203.3800  147.3900 C   0  0  0  0  0  2  0  0  0  0  0  0
  159.6890  205.9550  146.7510 C   0  0  0  0  0  1  0  0  0  0  0  0
  161.1960  205.8870  147.0090 C   0  0  1  0  0  0  0  0  0  0  0  0
  159.7770  201.4380  149.1370 C   0  0  0  0  0  2  0  0  0  0  0  0
  160.8780  207.3180  149.0510 C   0  0  0  0  0  2  0  0  0  0  0  0
  161.1290  206.1290  149.9400 C   0  0  0  0  0  0  0  0  0  0  0  0
  161.5910  207.2080  147.7070 C   0  0  1  0  0  3  0  0  0  0  0  0
  160.4660  203.0450  150.9110 C   0  0  0  0  0  2  0  0  0  0  0  0
  161.3280  204.8810  149.4260 C   0  0  0  0  0  0  0  0  0  0  0  0
  160.6860  201.0620  148.1250 O   0  0  0  0  0  0  0  0  0  0  0  0
  161.6970  203.7410  150.3450 C   0  0  0  0  0  2  0  0  0  0  0  0
  160.4430  201.5800  150.5020 C   0  0  0  0  0  2  0  0  0  0  0  0
  161.5710  202.1320  147.8880 C   0  0  0  0  0  2  0  0  0  0  0  0
  161.5130  204.6580  147.9200 C   0  0  1  0  0  3  0  0  0  0  0  0
  163.5370  207.5620  149.0050 O   0  0  0  0  0  0  0  0  0  0  0  0
  163.0670  207.4030  147.8900 C   0  0  0  0  0  3  0  0  0  0  0  0
  161.8090  205.7870  145.7360 O   0  0  0  0  0  0  0  0  0  0  0  0
  160.8660  205.8320  144.8120 O   0  0  0  0  0  1  0  0  0  0  0  0
  161.1430  206.4400  151.4210 C   0  0  1  0  0  3  0  0  0  0  0  0
  162.2830  205.8370  153.2250 C   0  0  0  0  0  1  0  0  0  0  0  0
  162.4420  206.3480  151.9350 O   0  0  0  0  0  0  0  0  0  0  0  0
  160.5060  207.7960  151.7490 C   0  0  2  0  0  3  0  0  0  0  0  0
  161.2770  208.8840  151.1340 C   0  0  0  0  0  0  0  0  0  0  0  0
  161.9100  209.7760  150.6290 C   0  0  0  0  0  0  0  0  0  0  0  0
  162.6790  210.8590  150.0160 C   0  0  0  0  0  1  0  0  0  0  0  0
  160.4680  207.9880  153.1330 O   0  0  0  0  0  0  0  0  0  0  0  0
  160.2480  209.3570  153.3020 C   0  0  0  0  0  2  0  0  0  0  0  0
  160.0160  209.6270  154.6490 O   0  0  0  0  0  1  0  0  0  0  0  0
  1 13  1  0  0  0  0
  3  2  1  6  0  0  0
  3  7  1  0  0  0  0
  3 14  1  0  0  0  0
  4 12  1  0  0  0  0
  5  6  1  0  0  0  0
  6 19  1  0  0  0  0
  7 16  1  1  0  0  0
  7  5  1  0  0  0  0
  9  6  2  0  0  0  0
  9 11  1  0  0  0  0
 10  4  1  0  0  0  0
 11  8  1  0  0  0  0
 12  8  1  0  0  0  0
 13 10  1  0  0  0  0
 14  1  1  6  0  0  0
 14  9  1  0  0  0  0
 16 15  2  0  0  0  0
 17  3  1  0  0  0  0
 18 17  1  0  0  0  0
 19 22  1  0  0  0  0
 19 21  1  6  0  0  0
 21 20  1  0  0  0  0
 22 23  1  6  0  0  0
 22 26  1  0  0  0  0
 24 23  3  0  0  0  0
 25 24  1  0  0  0  0
 26 27  1  0  0  0  0
 27 28  1  0  0  0  0
M  END
>  <MODEL>
9

>  <REMARK>
 VINA RESULT:      -3.7      1.588      6.381
  Name = 
  8 active torsions:
  status: ('A' for Active; 'I' for Inactive)
    1  A    between atoms: C_3  and  O_7
    2  A    between atoms: C_9  and  C_12
    3  A    between atoms: C_9  and  C_13
    4  A    between atoms: C_9  and  O_14
    5  A    between atoms: C_10  and  C_13
    6  A    between atoms: C_11  and  C_22
    7  A    between atoms: C_13  and  O_24
    8  A    between atoms: O_14  and  C_18
                            x       y       z     vdW  Elec       q    Type
                         _______ _______ _______ _____ _____    ______ ____

>  <TORSDO>
F 8

$$$$
