=
 OpenBabel11052421453D

 30 33  0  0  1  0  0  0  0  0999 V2000
  161.0350  212.9480  140.5980 C   0  0  0  0  0  0  0  0  0  0  0  0
  161.2860  210.7430  139.3340 C   0  0  1  0  0  3  0  0  0  0  0  0
  159.0960  212.3570  138.0790 C   0  0  1  0  0  3  0  0  0  0  0  0
  159.5850  213.3110  140.9820 C   0  0  2  0  0  3  0  0  0  0  0  0
  162.0840  213.0450  141.4470 C   0  0  0  0  0  3  0  0  0  0  0  0
  161.7530  212.5140  145.0320 O   0  0  0  0  0  0  0  0  0  0  0  0
  161.5130  212.2110  143.6900 C   0  0  2  0  0  3  0  0  0  0  0  0
  163.2140  213.7570  143.5820 C   0  0  0  0  0  2  0  0  0  0  0  0
  158.0860  213.4230  137.9800 N   0  0  0  0  0  0  0  0  0  0  0  0
  161.9430  213.4070  142.8880 C   0  0  1  0  0  3  0  0  0  0  0  0
  160.1040  211.6660  143.4090 C   0  0  0  0  0  2  0  0  0  0  0  0
  161.5040  210.1330  137.9540 C   0  0  0  0  0  2  0  0  0  0  0  0
  162.8250  214.4530  145.9420 C   0  0  0  0  0  1  0  0  0  0  0  0
  162.3390  210.1850  140.2750 C   0  0  0  0  0  1  0  0  0  0  0  0
  158.8820  211.2940  137.0150 C   0  0  0  0  0  2  0  0  0  0  0  0
  160.3300  209.2570  137.5160 C   0  0  0  0  0  2  0  0  0  0  0  0
  162.9510  213.2660  145.0050 C   0  0  1  0  0  3  0  0  0  0  0  0
  161.3430  212.2850  139.2670 C   0  0  1  0  0  3  0  0  0  0  0  0
  159.0590  214.4380  140.0890 C   0  0  0  0  0  2  0  0  0  0  0  0
  158.4510  214.4530  137.0110 C   0  0  0  0  0  1  0  0  0  0  0  0
  157.8070  214.0540  139.2790 C   0  0  2  0  0  3  0  0  0  0  0  0
  159.4620  213.7640  142.3080 O   0  0  0  0  0  0  0  0  0  0  0  0
  158.9570  209.9190  137.6640 C   0  0  0  0  0  2  0  0  0  0  0  0
  160.5450  212.8670  138.0930 C   0  0  0  0  0  2  0  0  0  0  0  0
  159.0080  212.7000  143.1050 C   0  0  0  0  0  2  0  0  0  0  0  0
  156.7830  213.2560  140.0850 C   0  0  0  0  0  2  0  0  0  0  0  0
  155.6200  212.7980  139.2160 C   0  0  1  0  0  3  0  0  0  0  0  0
  155.7410  211.3050  138.9920 C   0  0  0  0  0  1  0  0  0  0  0  0
  154.2910  213.0840  139.8970 C   0  0  0  0  0  2  0  0  0  0  0  0
  153.5160  211.7990  140.1200 C   0  0  0  0  0  1  0  0  0  0  0  0
  1  4  1  0  0  0  0
  1  5  2  0  0  0  0
  2 14  1  1  0  0  0
  3 15  1  6  0  0  0
  3 24  1  0  0  0  0
  4 19  1  6  0  0  0
  4 22  1  0  0  0  0
  7 11  1  1  0  0  0
  7  6  1  0  0  0  0
  8 17  1  0  0  0  0
  9  3  1  0  0  0  0
  9 21  1  0  0  0  0
 10  5  1  6  0  0  0
 10  8  1  0  0  0  0
 10  7  1  0  0  0  0
 12  2  1  0  0  0  0
 15 23  1  0  0  0  0
 16 23  1  0  0  0  0
 16 12  1  0  0  0  0
 17  6  1  0  0  0  0
 17 13  1  1  0  0  0
 18 24  1  6  0  0  0
 18  2  1  0  0  0  0
 18  1  1  0  0  0  0
 20  9  1  0  0  0  0
 21 26  1  1  0  0  0
 21 19  1  0  0  0  0
 22 25  1  0  0  0  0
 25 11  1  0  0  0  0
 27 28  1  1  0  0  0
 27 29  1  0  0  0  0
 27 26  1  0  0  0  0
 29 30  1  0  0  0  0
M  END
>  <MODEL>
1

>  <REMARK>
 VINA RESULT:      -3.4      0.000      0.000
  Name = 
  3 active torsions:
  status: ('A' for Active; 'I' for Inactive)
    1  A    between atoms: C_7  and  C_10
    2  A    between atoms: C_7  and  C_15
    3  A    between atoms: C_10  and  C_25
                            x       y       z     vdW  Elec       q    Type
                         _______ _______ _______ _____ _____    ______ ____

>  <TORSDO>
F 3

$$$$
=
 OpenBabel11052421453D

 30 33  0  0  1  0  0  0  0  0999 V2000
  161.0640  211.1690  152.4180 C   0  0  0  0  0  0  0  0  0  0  0  0
  161.2120  208.6780  151.8750 C   0  0  1  0  0  3  0  0  0  0  0  0
  161.8390  210.2650  149.4120 C   0  0  1  0  0  3  0  0  0  0  0  0
  160.2400  212.0020  151.4120 C   0  0  2  0  0  3  0  0  0  0  0  0
  160.9440  211.2800  153.7610 C   0  0  0  0  0  3  0  0  0  0  0  0
  157.7960  212.1220  155.3820 O   0  0  0  0  0  0  0  0  0  0  0  0
  158.5890  211.4470  154.4500 C   0  0  2  0  0  3  0  0  0  0  0  0
  160.1350  212.3700  155.8830 C   0  0  0  0  0  2  0  0  0  0  0  0
  161.8960  211.4520  148.5450 N   0  0  0  0  0  0  0  0  0  0  0  0
  159.9220  212.1400  154.4260 C   0  0  1  0  0  3  0  0  0  0  0  0
  157.9080  211.2190  153.0910 C   0  0  0  0  0  2  0  0  0  0  0  0
  162.1180  207.5960  151.2990 C   0  0  0  0  0  2  0  0  0  0  0  0
  158.4300  213.9110  156.8420 C   0  0  0  0  0  1  0  0  0  0  0  0
  160.7430  208.2280  153.2470 C   0  0  0  0  0  1  0  0  0  0  0  0
  162.1040  208.9930  148.6240 C   0  0  0  0  0  2  0  0  0  0  0  0
  161.5270  206.9550  150.0420 C   0  0  0  0  0  2  0  0  0  0  0  0
  158.7040  212.4850  156.4050 C   0  0  1  0  0  3  0  0  0  0  0  0
  161.9510  210.0330  151.9420 C   0  0  1  0  0  3  0  0  0  0  0  0
  161.1630  212.8470  150.5300 C   0  0  0  0  0  2  0  0  0  0  0  0
  163.2560  211.9550  148.3710 C   0  0  0  0  0  1  0  0  0  0  0  0
  161.0330  212.5420  149.0270 C   0  0  2  0  0  3  0  0  0  0  0  0
  159.3530  212.8990  152.0350 O   0  0  0  0  0  0  0  0  0  0  0  0
  161.0500  207.9560  148.9860 C   0  0  0  0  0  2  0  0  0  0  0  0
  162.7300  210.3590  150.6610 C   0  0  0  0  0  2  0  0  0  0  0  0
  158.0690  212.3290  152.0400 C   0  0  0  0  0  2  0  0  0  0  0  0
  159.5870  212.3620  148.5650 C   0  0  0  0  0  2  0  0  0  0  0  0
  158.9020  213.7010  148.3360 C   0  0  1  0  0  3  0  0  0  0  0  0
  159.6230  214.4310  147.2220 C   0  0  0  0  0  1  0  0  0  0  0  0
  157.4500  213.5020  147.9300 C   0  0  0  0  0  2  0  0  0  0  0  0
  157.3490  212.5470  146.7560 C   0  0  0  0  0  1  0  0  0  0  0  0
  1  5  2  0  0  0  0
  2 18  1  0  0  0  0
  2 14  1  1  0  0  0
  3 15  1  6  0  0  0
  3 24  1  0  0  0  0
  4 19  1  6  0  0  0
  4 22  1  0  0  0  0
  4  1  1  0  0  0  0
  6 17  1  0  0  0  0
  7 11  1  6  0  0  0
  7  6  1  0  0  0  0
  8 17  1  0  0  0  0
  9 21  1  0  0  0  0
  9  3  1  0  0  0  0
 10  5  1  1  0  0  0
 10  7  1  0  0  0  0
 10  8  1  0  0  0  0
 12  2  1  0  0  0  0
 15 23  1  0  0  0  0
 16 12  1  0  0  0  0
 17 13  1  6  0  0  0
 18 24  1  6  0  0  0
 18  1  1  0  0  0  0
 20  9  1  0  0  0  0
 21 26  1  1  0  0  0
 21 19  1  0  0  0  0
 22 25  1  0  0  0  0
 23 16  1  0  0  0  0
 25 11  1  0  0  0  0
 27 28  1  6  0  0  0
 27 26  1  0  0  0  0
 29 27  1  0  0  0  0
 30 29  1  0  0  0  0
M  END
>  <MODEL>
2

>  <REMARK>
 VINA RESULT:      -3.3      7.871     11.376
  Name = 
  3 active torsions:
  status: ('A' for Active; 'I' for Inactive)
    1  A    between atoms: C_7  and  C_10
    2  A    between atoms: C_7  and  C_15
    3  A    between atoms: C_10  and  C_25
                            x       y       z     vdW  Elec       q    Type
                         _______ _______ _______ _____ _____    ______ ____

>  <TORSDO>
F 3

$$$$
=
 OpenBabel11052421453D

 30 33  0  0  1  0  0  0  0  0999 V2000
  161.5510  210.4610  152.3280 C   0  0  0  0  0  0  0  0  0  0  0  0
  161.3840  208.0390  151.5350 C   0  0  1  0  0  3  0  0  0  0  0  0
  161.9180  209.8140  149.1810 C   0  0  1  0  0  3  0  0  0  0  0  0
  160.7190  211.4680  151.5050 C   0  0  2  0  0  3  0  0  0  0  0  0
  161.5810  210.4390  153.6800 C   0  0  0  0  0  3  0  0  0  0  0  0
  158.7180  211.3910  155.7160 O   0  0  0  0  0  0  0  0  0  0  0  0
  159.3380  210.7480  154.6410 C   0  0  2  0  0  3  0  0  0  0  0  0
  161.1100  211.3670  155.9740 C   0  0  0  0  0  2  0  0  0  0  0  0
  162.0090  211.0760  148.4310 N   0  0  0  0  0  0  0  0  0  0  0  0
  160.7260  211.3140  154.5350 C   0  0  1  0  0  3  0  0  0  0  0  0
  158.5020  210.7310  153.3510 C   0  0  0  0  0  2  0  0  0  0  0  0
  162.1100  206.9440  150.7600 C   0  0  0  0  0  2  0  0  0  0  0  0
  159.6800  212.9490  157.2610 C   0  0  0  0  0  1  0  0  0  0  0  0
  161.0140  207.4910  152.9020 C   0  0  0  0  0  1  0  0  0  0  0  0
  161.9680  208.6130  148.2500 C   0  0  0  0  0  2  0  0  0  0  0  0
  161.3310  206.4990  149.5220 C   0  0  0  0  0  2  0  0  0  0  0  0
  159.7580  211.5570  156.6610 C   0  0  1  0  0  3  0  0  0  0  0  0
  162.2620  209.3050  151.6490 C   0  0  1  0  0  3  0  0  0  0  0  0
  161.6300  212.3130  150.6100 C   0  0  0  0  0  2  0  0  0  0  0  0
  163.3890  211.4660  148.1550 C   0  0  0  0  0  1  0  0  0  0  0  0
  161.3170  212.1830  149.1080 C   0  0  2  0  0  3  0  0  0  0  0  0
  159.9980  212.3720  152.3060 O   0  0  0  0  0  0  0  0  0  0  0  0
  160.8550  207.6460  148.6270 C   0  0  0  0  0  2  0  0  0  0  0  0
  162.9360  209.6910  150.3250 C   0  0  0  0  0  2  0  0  0  0  0  0
  158.6690  211.9270  152.4000 C   0  0  0  0  0  2  0  0  0  0  0  0
  159.8210  212.1880  148.7970 C   0  0  0  0  0  2  0  0  0  0  0  0
  159.5410  212.7240  147.4000 C   0  0  1  0  0  3  0  0  0  0  0  0
  158.0570  212.6060  147.1230 C   0  0  0  0  0  1  0  0  0  0  0  0
  159.9440  214.1870  147.2930 C   0  0  0  0  0  2  0  0  0  0  0  0
  161.1320  214.3470  146.3640 C   0  0  0  0  0  1  0  0  0  0  0  0
  1  5  2  0  0  0  0
  2 18  1  0  0  0  0
  2 14  1  1  0  0  0
  3 15  1  6  0  0  0
  3 24  1  0  0  0  0
  4 19  1  6  0  0  0
  4 22  1  0  0  0  0
  4  1  1  0  0  0  0
  6 17  1  0  0  0  0
  7 11  1  6  0  0  0
  7  6  1  0  0  0  0
  8 17  1  0  0  0  0
  9 21  1  0  0  0  0
  9  3  1  0  0  0  0
 10  5  1  6  0  0  0
 10  7  1  0  0  0  0
 10  8  1  0  0  0  0
 12  2  1  0  0  0  0
 15 23  1  0  0  0  0
 16 12  1  0  0  0  0
 17 13  1  6  0  0  0
 18 24  1  6  0  0  0
 18  1  1  0  0  0  0
 20  9  1  0  0  0  0
 21 26  1  1  0  0  0
 21 19  1  0  0  0  0
 22 25  1  0  0  0  0
 23 16  1  0  0  0  0
 25 11  1  0  0  0  0
 27 28  1  1  0  0  0
 27 26  1  0  0  0  0
 29 27  1  0  0  0  0
 30 29  1  0  0  0  0
M  END
>  <MODEL>
3

>  <REMARK>
 VINA RESULT:      -1.8      7.886     11.400
  Name = 
  3 active torsions:
  status: ('A' for Active; 'I' for Inactive)
    1  A    between atoms: C_7  and  C_10
    2  A    between atoms: C_7  and  C_15
    3  A    between atoms: C_10  and  C_25
                            x       y       z     vdW  Elec       q    Type
                         _______ _______ _______ _____ _____    ______ ____

>  <TORSDO>
F 3

$$$$
=
 OpenBabel11052421453D

 30 33  0  0  1  0  0  0  0  0999 V2000
  160.5960  207.4070  153.3730 C   0  0  0  0  0  0  0  0  0  0  0  0
  161.6710  208.0170  155.6080 C   0  0  1  0  0  3  0  0  0  0  0  0
  161.0090  210.5280  154.1130 C   0  0  1  0  0  3  0  0  0  0  0  0
  161.1870  208.1420  152.1510 C   0  0  2  0  0  3  0  0  0  0  0  0
  160.3410  206.0790  153.4010 C   0  0  0  0  0  3  0  0  0  0  0  0
  162.3430  203.6640  151.5560 O   0  0  0  0  0  0  0  0  0  0  0  0
  162.1610  204.7850  152.3690 C   0  0  2  0  0  3  0  0  0  0  0  0
  160.0820  203.7980  152.3640 C   0  0  0  0  0  2  0  0  0  0  0  0
  160.6470  211.3560  152.9530 N   0  0  0  0  0  0  0  0  0  0  0  0
  160.7050  205.1500  152.2910 C   0  0  1  0  0  3  0  0  0  0  0  0
  163.1680  205.9180  152.1150 C   0  0  0  0  0  2  0  0  0  0  0  0
  161.4840  208.8340  156.8830 C   0  0  0  0  0  2  0  0  0  0  0  0
  160.6780  202.3910  150.3970 C   0  0  0  0  0  1  0  0  0  0  0  0
  161.9560  206.5780  156.0010 C   0  0  0  0  0  1  0  0  0  0  0  0
  161.5120  211.3820  155.2660 C   0  0  0  0  0  2  0  0  0  0  0  0
  162.5670  209.9000  157.0500 C   0  0  0  0  0  2  0  0  0  0  0  0
  161.1590  202.9120  151.7380 C   0  0  1  0  0  3  0  0  0  0  0  0
  160.4260  208.1230  154.7010 C   0  0  1  0  0  3  0  0  0  0  0  0
  160.2220  209.2210  151.6550 C   0  0  0  0  0  2  0  0  0  0  0  0
  159.2850  211.8760  153.0380 C   0  0  0  0  0  1  0  0  0  0  0  0
  160.8160  210.6420  151.6780 C   0  0  2  0  0  3  0  0  0  0  0  0
  161.4270  207.2890  151.0580 O   0  0  0  0  0  0  0  0  0  0  0  0
  162.7950  210.7720  155.8130 C   0  0  0  0  0  2  0  0  0  0  0  0
  159.9030  209.5600  154.5610 C   0  0  0  0  0  2  0  0  0  0  0  0
  162.7910  206.9530  151.0420 C   0  0  0  0  0  2  0  0  0  0  0  0
  162.2600  210.7050  151.1830 C   0  0  0  0  0  2  0  0  0  0  0  0
  162.3310  211.0800  149.7090 C   0  0  1  0  0  3  0  0  0  0  0  0
  161.9650  209.8670  148.8810 C   0  0  0  0  0  1  0  0  0  0  0  0
  161.3570  212.2030  149.3900 C   0  0  0  0  0  2  0  0  0  0  0  0
  161.7730  212.9300  148.1250 C   0  0  0  0  0  1  0  0  0  0  0  0
  1  5  2  0  0  0  0
  1 18  1  0  0  0  0
  2 14  1  1  0  0  0
  2 12  1  0  0  0  0
  3 24  1  1  0  0  0
  3 15  1  0  0  0  0
  4 19  1  6  0  0  0
  4  1  1  0  0  0  0
  6 17  1  0  0  0  0
  6  7  1  0  0  0  0
  7 11  1  6  0  0  0
  9 20  1  0  0  0  0
  9  3  1  0  0  0  0
 10  8  1  1  0  0  0
 10  7  1  0  0  0  0
 10  5  1  0  0  0  0
 12 16  1  0  0  0  0
 15 23  1  0  0  0  0
 17 13  1  6  0  0  0
 17  8  1  0  0  0  0
 18 24  1  6  0  0  0
 18  2  1  0  0  0  0
 19 21  1  0  0  0  0
 21 26  1  1  0  0  0
 21  9  1  0  0  0  0
 22  4  1  0  0  0  0
 23 16  1  0  0  0  0
 25 22  1  0  0  0  0
 25 11  1  0  0  0  0
 27 28  1  6  0  0  0
 27 26  1  0  0  0  0
 29 27  1  0  0  0  0
 30 29  1  0  0  0  0
M  END
>  <MODEL>
4

>  <REMARK>
 VINA RESULT:      -1.6     10.041     14.318
  Name = 
  3 active torsions:
  status: ('A' for Active; 'I' for Inactive)
    1  A    between atoms: C_7  and  C_10
    2  A    between atoms: C_7  and  C_15
    3  A    between atoms: C_10  and  C_25
                            x       y       z     vdW  Elec       q    Type
                         _______ _______ _______ _____ _____    ______ ____

>  <TORSDO>
F 3

$$$$
=
 OpenBabel11052421453D

 30 33  0  0  1  0  0  0  0  0999 V2000
  161.1970  212.7760  149.7850 C   0  0  0  0  0  0  0  0  0  0  0  0
  158.9360  213.4660  150.7520 C   0  0  1  0  0  3  0  0  0  0  0  0
  160.0950  211.2650  152.4220 C   0  0  1  0  0  3  0  0  0  0  0  0
  161.3870  211.2540  149.6110 C   0  0  2  0  0  3  0  0  0  0  0  0
  161.5230  213.6860  148.8390 C   0  0  0  0  0  3  0  0  0  0  0  0
  161.3030  212.9730  145.2770 O   0  0  0  0  0  0  0  0  0  0  0  0
  160.8400  212.9470  146.5950 C   0  0  2  0  0  3  0  0  0  0  0  0
  162.5930  214.4350  146.6860 C   0  0  0  0  0  2  0  0  0  0  0  0
  160.9920  210.1470  152.7550 N   0  0  0  0  0  0  0  0  0  0  0  0
  162.0000  213.3180  147.4740 C   0  0  1  0  0  3  0  0  0  0  0  0
  160.0760  211.6660  146.9690 C   0  0  0  0  0  2  0  0  0  0  0  0
  158.2310  213.9350  152.0200 C   0  0  0  0  0  2  0  0  0  0  0  0
  163.4540  213.6630  144.4800 C   0  0  0  0  0  1  0  0  0  0  0  0
  158.6270  214.4530  149.6410 C   0  0  0  0  0  1  0  0  0  0  0  0
  158.9130  211.3260  153.3760 C   0  0  0  0  0  2  0  0  0  0  0  0
  157.1600  212.9470  152.4850 C   0  0  0  0  0  2  0  0  0  0  0  0
  162.2110  214.0580  145.2540 C   0  0  1  0  0  3  0  0  0  0  0  0
  160.4570  213.3330  150.9880 C   0  0  1  0  0  3  0  0  0  0  0  0
  162.3360  210.7060  150.6800 C   0  0  0  0  0  2  0  0  0  0  0  0
  161.9640  210.4980  153.7880 C   0  0  0  0  0  1  0  0  0  0  0  0
  161.7020  209.6270  151.5770 C   0  0  2  0  0  3  0  0  0  0  0  0
  161.9450  210.9060  148.3670 O   0  0  0  0  0  0  0  0  0  0  0  0
  157.6320  211.4930  152.5700 C   0  0  0  0  0  2  0  0  0  0  0  0
  160.8030  212.6230  152.3040 C   0  0  0  0  0  2  0  0  0  0  0  0
  160.9110  210.4940  147.5110 C   0  0  0  0  0  2  0  0  0  0  0  0
  160.8500  208.6190  150.8060 C   0  0  0  0  0  2  0  0  0  0  0  0
  161.7030  207.5190  150.1890 C   0  0  1  0  0  3  0  0  0  0  0  0
  162.3150  206.6970  151.3040 C   0  0  0  0  0  1  0  0  0  0  0  0
  160.8580  206.6060  149.3150 C   0  0  0  0  0  2  0  0  0  0  0  0
  160.8340  205.1980  149.8780 C   0  0  0  0  0  1  0  0  0  0  0  0
  1 18  1  0  0  0  0
  2 14  1  6  0  0  0
  2 18  1  0  0  0  0
  2 12  1  0  0  0  0
  3 24  1  1  0  0  0
  3  9  1  0  0  0  0
  3 15  1  0  0  0  0
  4  1  1  0  0  0  0
  4 19  1  1  0  0  0
  5  1  2  0  0  0  0
  6  7  1  0  0  0  0
  7 11  1  1  0  0  0
  7 10  1  0  0  0  0
  9 20  1  0  0  0  0
 10  8  1  6  0  0  0
 10  5  1  0  0  0  0
 11 25  1  0  0  0  0
 12 16  1  0  0  0  0
 16 23  1  0  0  0  0
 17 13  1  6  0  0  0
 17  6  1  0  0  0  0
 17  8  1  0  0  0  0
 18 24  1  1  0  0  0
 19 21  1  0  0  0  0
 21 26  1  6  0  0  0
 21  9  1  0  0  0  0
 22  4  1  0  0  0  0
 23 15  1  0  0  0  0
 25 22  1  0  0  0  0
 27 26  1  0  0  0  0
 27 28  1  1  0  0  0
 29 30  1  0  0  0  0
 29 27  1  0  0  0  0
M  END
>  <MODEL>
5

>  <REMARK>
 VINA RESULT:      -1.1      6.917     11.441
  Name = 
  3 active torsions:
  status: ('A' for Active; 'I' for Inactive)
    1  A    between atoms: C_7  and  C_10
    2  A    between atoms: C_7  and  C_15
    3  A    between atoms: C_10  and  C_25
                            x       y       z     vdW  Elec       q    Type
                         _______ _______ _______ _____ _____    ______ ____

>  <TORSDO>
F 3

$$$$
=
 OpenBabel11052421453D

 30 33  0  0  1  0  0  0  0  0999 V2000
  161.6950  212.4240  141.4540 C   0  0  0  0  0  0  0  0  0  0  0  0
  161.2530  210.0900  140.5170 C   0  0  1  0  0  3  0  0  0  0  0  0
  160.9400  212.1100  138.3260 C   0  0  1  0  0  3  0  0  0  0  0  0
  160.6330  213.4810  141.0830 C   0  0  2  0  0  3  0  0  0  0  0  0
  162.1940  212.2670  142.7010 C   0  0  0  0  0  3  0  0  0  0  0  0
  160.2250  212.9130  145.6930 O   0  0  0  0  0  0  0  0  0  0  0  0
  160.4280  212.4030  144.4080 C   0  0  2  0  0  3  0  0  0  0  0  0
  162.5560  212.9420  145.1010 C   0  0  0  0  0  2  0  0  0  0  0  0
  160.7680  213.4430  137.7290 N   0  0  0  0  0  0  0  0  0  0  0  0
  161.6950  213.0220  143.8870 C   0  0  1  0  0  3  0  0  0  0  0  0
  159.1950  212.4870  143.4940 C   0  0  0  0  0  2  0  0  0  0  0  0
  161.6590  209.1040  139.4260 C   0  0  0  0  0  2  0  0  0  0  0  0
  161.6710  214.3370  146.9640 C   0  0  0  0  0  1  0  0  0  0  0  0
  161.3800  209.3950  141.8610 C   0  0  0  0  0  1  0  0  0  0  0  0
  160.6570  211.0120  137.3140 C   0  0  0  0  0  2  0  0  0  0  0  0
  160.4950  208.7600  138.4960 C   0  0  0  0  0  2  0  0  0  0  0  0
  161.5300  213.0170  146.2310 C   0  0  1  0  0  3  0  0  0  0  0  0
  162.1200  211.3660  140.4520 C   0  0  1  0  0  3  0  0  0  0  0  0
  161.1780  214.4410  140.0230 C   0  0  0  0  0  2  0  0  0  0  0  0
  161.9670  213.9050  137.0340 C   0  0  0  0  0  1  0  0  0  0  0  0
  160.3600  214.4530  138.7180 C   0  0  2  0  0  3  0  0  0  0  0  0
  160.2390  214.2750  142.1750 O   0  0  0  0  0  0  0  0  0  0  0  0
  159.7410  209.9750  137.9480 C   0  0  0  0  0  2  0  0  0  0  0  0
  162.2920  211.9060  139.0260 C   0  0  0  0  0  2  0  0  0  0  0  0
  159.0250  213.7780  142.6770 C   0  0  0  0  0  2  0  0  0  0  0  0
  158.8490  214.4390  138.9480 C   0  0  0  0  0  2  0  0  0  0  0  0
  158.2160  213.1530  138.4360 C   0  0  1  0  0  3  0  0  0  0  0  0
  157.4930  212.4790  139.5830 C   0  0  0  0  0  1  0  0  0  0  0  0
  157.2150  213.4460  137.3300 C   0  0  0  0  0  2  0  0  0  0  0  0
  155.7980  213.1960  137.8120 C   0  0  0  0  0  1  0  0  0  0  0  0
  1  5  2  0  0  0  0
  2 14  1  1  0  0  0
  3 15  1  6  0  0  0
  3 24  1  0  0  0  0
  4 19  1  6  0  0  0
  4  1  1  0  0  0  0
  4 22  1  0  0  0  0
  6 17  1  0  0  0  0
  7 11  1  6  0  0  0
  7  6  1  0  0  0  0
  8 17  1  0  0  0  0
  9  3  1  0  0  0  0
  9 21  1  0  0  0  0
 10  5  1  6  0  0  0
 10  7  1  0  0  0  0
 10  8  1  0  0  0  0
 12  2  1  0  0  0  0
 15 23  1  0  0  0  0
 16 12  1  0  0  0  0
 17 13  1  6  0  0  0
 18 24  1  6  0  0  0
 18  2  1  0  0  0  0
 18  1  1  0  0  0  0
 20  9  1  0  0  0  0
 21 26  1  1  0  0  0
 21 19  1  0  0  0  0
 22 25  1  0  0  0  0
 23 16  1  0  0  0  0
 25 11  1  0  0  0  0
 27 26  1  0  0  0  0
 27 28  1  1  0  0  0
 29 30  1  0  0  0  0
 29 27  1  0  0  0  0
M  END
>  <MODEL>
6

>  <REMARK>
 VINA RESULT:      -0.8      1.516      2.064
  Name = 
  3 active torsions:
  status: ('A' for Active; 'I' for Inactive)
    1  A    between atoms: C_7  and  C_10
    2  A    between atoms: C_7  and  C_15
    3  A    between atoms: C_10  and  C_25
                            x       y       z     vdW  Elec       q    Type
                         _______ _______ _______ _____ _____    ______ ____

>  <TORSDO>
F 3

$$$$
