=
 OpenBabel11062409063D

 37 42  0  0  1  0  0  0  0  0999 V2000
  159.9090  210.6780  153.6640 C   0  0  1  0  0  0  0  0  0  0  0  0
  159.1510  213.2910  156.0350 C   0  0  0  0  0  0  0  0  0  0  0  0
  157.9700  214.3630  152.5370 C   0  0  2  0  0  3  0  0  0  0  0  0
  161.3310  210.0440  153.7910 C   0  0  0  0  0  0  0  0  0  0  0  0
  156.7770  214.0250  155.1690 C   0  0  0  0  0  3  0  0  0  0  0  0
  158.2630  213.3800  151.4800 N   0  0  0  0  0  0  0  0  0  0  0  0
  161.6490  209.4210  151.3840 C   0  0  0  0  0  0  0  0  0  0  0  0
  162.4500  210.7690  154.5070 C   0  0  0  0  0  2  0  0  0  0  0  0
  158.7760  214.1240  153.7710 C   0  0  0  0  0  3  0  0  0  0  0  0
  157.4870  213.5830  150.2830 C   0  0  0  0  0  0  0  0  0  0  0  0
  154.5570  214.4470  154.4020 N   0  0  0  0  0  1  0  0  0  0  0  0
  161.7800  209.1700  152.7580 O   0  0  0  0  0  0  0  0  0  0  0  0
  159.3730  211.1330  154.9070 O   0  0  0  0  0  0  0  0  0  0  0  0
  158.3670  212.6600  157.1790 C   0  0  0  0  0  1  0  0  0  0  0  0
  155.6860  214.2410  151.7530 N   0  0  0  0  0  0  0  0  0  0  0  0
  161.7600  209.5760  155.1650 C   0  0  0  0  0  2  0  0  0  0  0  0
  155.9540  214.3130  154.1560 C   0  0  0  0  0  0  0  0  0  0  0  0
  160.0920  212.2320  155.4310 C   0  0  0  0  0  2  0  0  0  0  0  0
  161.1880  210.6410  150.8720 O   0  0  0  0  0  0  0  0  0  0  0  0
  158.5610  211.9790  151.8210 C   0  0  0  0  0  2  0  0  0  0  0  0
  156.4810  214.3580  152.7800 C   0  0  0  0  0  0  0  0  0  0  0  0
  159.8910  211.8080  152.5790 C   0  0  2  0  0  3  0  0  0  0  0  0
  158.2380  213.8490  154.9630 C   0  0  0  0  0  0  0  0  0  0  0  0
  159.9950  214.4130  156.6100 C   0  0  0  0  0  1  0  0  0  0  0  0
  161.0900  211.8360  151.6330 C   0  0  0  0  0  2  0  0  0  0  0  0
  161.9390  208.5020  150.5760 O   0  0  0  0  0  0  0  0  0  0  0  0
  158.9940  209.5380  153.2230 C   0  0  0  0  0  1  0  0  0  0  0  0
  156.2120  213.9930  150.4330 C   0  0  0  0  0  3  0  0  0  0  0  0
  157.3160  212.6980  148.1060 O   0  0  0  0  0  0  0  0  0  0  0  0
  158.0650  213.2550  148.9530 C   0  0  0  0  0  0  0  0  0  0  0  0
  160.3530  214.2210  149.4230 C   0  0  0  0  0  3  0  0  0  0  0  0
  159.4710  213.5400  148.5670 C   0  0  0  0  0  0  0  0  0  0  0  0
  159.9530  213.0820  147.3300 C   0  0  0  0  0  3  0  0  0  0  0  0
  161.7360  212.8610  145.7200 O   0  0  0  0  0  1  0  0  0  0  0  0
  162.1400  214.0010  147.8060 C   0  0  0  0  0  3  0  0  0  0  0  0
  161.2770  213.3140  146.9490 C   0  0  0  0  0  0  0  0  0  0  0  0
  161.6780  214.4530  149.0440 C   0  0  0  0  0  3  0  0  0  0  0  0
  1 27  1  6  0  0  0
  1  4  1  0  0  0  0
  1 13  1  0  0  0  0
  2 24  1  0  0  0  0
  2 14  1  0  0  0  0
  3 21  1  0  0  0  0
  3  9  1  1  0  0  0
  4  8  1  0  0  0  0
  4 16  1  0  0  0  0
  6 20  1  0  0  0  0
  6  3  1  0  0  0  0
  7 12  1  0  0  0  0
  8 16  1  0  0  0  0
  9 23  2  0  0  0  0
 10 28  2  0  0  0  0
 10  6  1  0  0  0  0
 12  4  1  0  0  0  0
 13 18  1  0  0  0  0
 15 21  2  0  0  0  0
 17 11  1  0  0  0  0
 17  5  2  0  0  0  0
 18  2  1  0  0  0  0
 19  7  1  0  0  0  0
 19 25  1  0  0  0  0
 20 22  1  0  0  0  0
 21 17  1  0  0  0  0
 22 25  1  6  0  0  0
 22  1  1  0  0  0  0
 23  5  1  0  0  0  0
 23  2  1  0  0  0  0
 26  7  2  0  0  0  0
 28 15  1  0  0  0  0
 29 30  2  0  0  0  0
 30 10  1  0  0  0  0
 32 30  1  0  0  0  0
 32 31  2  0  0  0  0
 33 32  1  0  0  0  0
 34 36  1  0  0  0  0
 35 37  2  0  0  0  0
 36 33  2  0  0  0  0
 36 35  1  0  0  0  0
 37 31  1  0  0  0  0
M  END
>  <MODEL>
1

>  <REMARK>
 VINA RESULT:      -3.6      0.000      0.000
  Name = 
  2 active torsions:
  status: ('A' for Active; 'I' for Inactive)
    1  A    between atoms: C_6  and  C_31
    2  A    between atoms: C_14  and  C_31
                            x       y       z     vdW  Elec       q    Type
                         _______ _______ _______ _____ _____    ______ ____

>  <TORSDO>
F 2

$$$$
=
 OpenBabel11062409063D

 37 42  0  0  1  0  0  0  0  0999 V2000
  159.7030  210.5520  154.0860 C   0  0  1  0  0  0  0  0  0  0  0  0
  158.4050  213.0010  156.3990 C   0  0  0  0  0  0  0  0  0  0  0  0
  158.1780  214.3830  152.8190 C   0  0  2  0  0  3  0  0  0  0  0  0
  161.0340  209.8570  154.5160 C   0  0  0  0  0  0  0  0  0  0  0  0
  156.3460  213.8880  155.0230 C   0  0  0  0  0  3  0  0  0  0  0  0
  158.7160  213.4740  151.7920 N   0  0  0  0  0  0  0  0  0  0  0  0
  161.9480  209.4100  152.2250 C   0  0  0  0  0  0  0  0  0  0  0  0
  161.9440  210.4820  155.5510 C   0  0  0  0  0  2  0  0  0  0  0  0
  158.6370  214.0190  154.1920 C   0  0  0  0  0  3  0  0  0  0  0  0
  158.2760  213.7990  150.4580 C   0  0  0  0  0  0  0  0  0  0  0  0
  154.4030  214.4510  153.7560 N   0  0  0  0  0  1  0  0  0  0  0  0
  161.7170  209.0490  153.5610 O   0  0  0  0  0  0  0  0  0  0  0  0
  158.8730  210.9290  155.1860 O   0  0  0  0  0  0  0  0  0  0  0  0
  157.3450  212.3120  157.2480 C   0  0  0  0  0  1  0  0  0  0  0  0
  156.1700  214.4080  151.4730 N   0  0  0  0  0  0  0  0  0  0  0  0
  161.0890  209.2690  155.9090 C   0  0  0  0  0  2  0  0  0  0  0  0
  155.8140  214.2840  153.8620 C   0  0  0  0  0  0  0  0  0  0  0  0
  159.4530  211.9570  155.9660 C   0  0  0  0  0  2  0  0  0  0  0  0
  161.6530  210.6830  151.7170 O   0  0  0  0  0  0  0  0  0  0  0  0
  158.8930  212.0410  152.0780 C   0  0  0  0  0  2  0  0  0  0  0  0
  156.6760  214.4150  152.6740 C   0  0  0  0  0  0  0  0  0  0  0  0
  159.9820  211.7620  153.1310 C   0  0  2  0  0  3  0  0  0  0  0  0
  157.8080  213.6740  155.1810 C   0  0  0  0  0  0  0  0  0  0  0  0
  159.0930  214.0420  157.2610 C   0  0  0  0  0  1  0  0  0  0  0  0
  161.3840  211.8180  152.5260 C   0  0  0  0  0  2  0  0  0  0  0  0
  162.4190  208.5470  151.4420 O   0  0  0  0  0  0  0  0  0  0  0  0
  158.9120  209.4850  153.3320 C   0  0  0  0  0  1  0  0  0  0  0  0
  157.0110  214.2430  150.3140 C   0  0  0  0  0  3  0  0  0  0  0  0
  160.4140  213.5370  149.5020 O   0  0  0  0  0  0  0  0  0  0  0  0
  159.1700  213.5530  149.2960 C   0  0  0  0  0  0  0  0  0  0  0  0
  157.5090  212.6140  147.6380 C   0  0  0  0  0  3  0  0  0  0  0  0
  158.6850  213.3320  147.9090 C   0  0  0  0  0  0  0  0  0  0  0  0
  159.3970  213.8890  146.8340 C   0  0  0  0  0  3  0  0  0  0  0  0
  159.6710  214.2700  144.4670 O   0  0  0  0  0  1  0  0  0  0  0  0
  157.7870  212.9940  145.2650 C   0  0  0  0  0  3  0  0  0  0  0  0
  158.9540  213.7190  145.5190 C   0  0  0  0  0  0  0  0  0  0  0  0
  157.0630  212.4430  146.3250 C   0  0  0  0  0  3  0  0  0  0  0  0
  1 27  1  6  0  0  0
  1  4  1  0  0  0  0
  1 13  1  0  0  0  0
  2 14  1  0  0  0  0
  2 24  1  0  0  0  0
  3  9  1  1  0  0  0
  4  8  1  0  0  0  0
  4 16  1  0  0  0  0
  5 23  1  0  0  0  0
  6 20  1  0  0  0  0
  6  3  1  0  0  0  0
  7 12  1  0  0  0  0
  8 16  1  0  0  0  0
  9 23  2  0  0  0  0
 10  6  1  0  0  0  0
 11 17  1  0  0  0  0
 12  4  1  0  0  0  0
 13 18  1  0  0  0  0
 15 21  2  0  0  0  0
 17  5  2  0  0  0  0
 18  2  1  0  0  0  0
 19  7  1  0  0  0  0
 19 25  1  0  0  0  0
 21  3  1  0  0  0  0
 21 17  1  0  0  0  0
 22 20  1  6  0  0  0
 22  1  1  0  0  0  0
 23  2  1  0  0  0  0
 25 22  1  0  0  0  0
 26  7  2  0  0  0  0
 28 10  2  0  0  0  0
 28 15  1  0  0  0  0
 30 29  2  0  0  0  0
 30 10  1  0  0  0  0
 31 32  1  0  0  0  0
 32 30  1  0  0  0  0
 33 32  2  0  0  0  0
 34 36  1  0  0  0  0
 35 36  2  0  0  0  0
 35 37  1  0  0  0  0
 36 33  1  0  0  0  0
 37 31  2  0  0  0  0
M  END
>  <MODEL>
2

>  <REMARK>
 VINA RESULT:      -2.7      1.293      1.805
  Name = 
  2 active torsions:
  status: ('A' for Active; 'I' for Inactive)
    1  A    between atoms: C_6  and  C_31
    2  A    between atoms: C_14  and  C_31
                            x       y       z     vdW  Elec       q    Type
                         _______ _______ _______ _____ _____    ______ ____

>  <TORSDO>
F 2

$$$$
=
 OpenBabel11062409063D

 37 42  0  0  1  0  0  0  0  0999 V2000
  160.6680  205.2710  148.5220 C   0  0  1  0  0  0  0  0  0  0  0  0
  161.6690  204.3260  151.8580 C   0  0  0  0  0  0  0  0  0  0  0  0
  162.4890  208.0380  151.2850 C   0  0  2  0  0  3  0  0  0  0  0  0
  161.0440  204.2590  147.3930 C   0  0  0  0  0  0  0  0  0  0  0  0
  160.9360  206.4760  153.1860 C   0  0  0  0  0  3  0  0  0  0  0  0
  162.1520  208.5230  149.9360 N   0  0  0  0  0  0  0  0  0  0  0  0
  161.2810  205.9040  145.5170 C   0  0  0  0  0  0  0  0  0  0  0  0
  162.1330  203.2290  147.5970 C   0  0  0  0  0  2  0  0  0  0  0  0
  162.5460  206.5470  151.3530 C   0  0  0  0  0  3  0  0  0  0  0  0
  162.0790  209.9610  149.8500 C   0  0  0  0  0  0  0  0  0  0  0  0
  160.0410  208.3950  154.2880 N   0  0  0  0  0  1  0  0  0  0  0  0
  160.8810  204.6640  146.0360 O   0  0  0  0  0  0  0  0  0  0  0  0
  160.4160  204.6520  149.7840 O   0  0  0  0  0  0  0  0  0  0  0  0
  160.4640  203.6860  152.5350 C   0  0  0  0  0  1  0  0  0  0  0  0
  161.1470  209.8870  152.0780 N   0  0  0  0  0  0  0  0  0  0  0  0
  160.6650  202.8100  147.6080 C   0  0  0  0  0  2  0  0  0  0  0  0
  160.8570  207.8080  153.2790 C   0  0  0  0  0  0  0  0  0  0  0  0
  161.5810  204.0760  150.3400 C   0  0  0  0  0  2  0  0  0  0  0  0
  162.0250  206.8360  146.2530 O   0  0  0  0  0  0  0  0  0  0  0  0
  161.2060  207.7810  149.0870 C   0  0  0  0  0  2  0  0  0  0  0  0
  161.5100  208.6480  152.2590 C   0  0  0  0  0  0  0  0  0  0  0  0
  161.7410  206.4070  148.6400 C   0  0  2  0  0  3  0  0  0  0  0  0
  161.7530  205.8120  152.1370 C   0  0  0  0  0  0  0  0  0  0  0  0
  162.9180  203.6460  152.3860 C   0  0  0  0  0  1  0  0  0  0  0  0
  162.7060  206.5300  147.4620 C   0  0  0  0  0  2  0  0  0  0  0  0
  160.9380  206.2040  144.3450 O   0  0  0  0  0  0  0  0  0  0  0  0
  159.3330  205.8780  148.0950 C   0  0  0  0  0  1  0  0  0  0  0  0
  161.5660  210.6190  150.9080 C   0  0  0  0  0  3  0  0  0  0  0  0
  163.3700  210.1250  147.8860 O   0  0  0  0  0  0  0  0  0  0  0  0
  162.4720  210.6540  148.5960 C   0  0  0  0  0  0  0  0  0  0  0  0
  162.5490  213.1580  148.2610 C   0  0  0  0  0  3  0  0  0  0  0  0
  161.8740  211.9330  148.1330 C   0  0  0  0  0  0  0  0  0  0  0  0
  160.6150  211.9200  147.5100 C   0  0  0  0  0  3  0  0  0  0  0  0
  158.7890  213.0760  146.4370 O   0  0  0  0  0  1  0  0  0  0  0  0
  160.7160  214.3160  147.1870 C   0  0  0  0  0  3  0  0  0  0  0  0
  160.0370  213.1040  147.0430 C   0  0  0  0  0  0  0  0  0  0  0  0
  161.9730  214.3430  147.7940 C   0  0  0  0  0  3  0  0  0  0  0  0
  1 27  1  6  0  0  0
  1 22  1  0  0  0  0
  1 13  1  0  0  0  0
  2 23  1  0  0  0  0
  2 24  1  0  0  0  0
  2 14  1  0  0  0  0
  3  9  1  6  0  0  0
  3 21  1  0  0  0  0
  4  8  1  0  0  0  0
  4 16  1  0  0  0  0
  4  1  1  0  0  0  0
  5 17  2  0  0  0  0
  6  3  1  0  0  0  0
  7 12  1  0  0  0  0
  7 19  1  0  0  0  0
  8 16  1  0  0  0  0
  9 23  2  0  0  0  0
 10  6  1  0  0  0  0
 10 28  2  0  0  0  0
 12  4  1  0  0  0  0
 13 18  1  0  0  0  0
 15 21  2  0  0  0  0
 17 11  1  0  0  0  0
 18  2  1  0  0  0  0
 19 25  1  0  0  0  0
 20  6  1  0  0  0  0
 21 17  1  0  0  0  0
 22 25  1  6  0  0  0
 22 20  1  0  0  0  0
 23  5  1  0  0  0  0
 26  7  2  0  0  0  0
 28 15  1  0  0  0  0
 29 30  2  0  0  0  0
 30 10  1  0  0  0  0
 32 31  1  0  0  0  0
 32 30  1  0  0  0  0
 33 32  2  0  0  0  0
 34 36  1  0  0  0  0
 35 37  1  0  0  0  0
 36 35  2  0  0  0  0
 36 33  1  0  0  0  0
 37 31  2  0  0  0  0
M  END
>  <MODEL>
3

>  <REMARK>
 VINA RESULT:      -2.4      4.646      7.317
  Name = 
  2 active torsions:
  status: ('A' for Active; 'I' for Inactive)
    1  A    between atoms: C_6  and  C_31
    2  A    between atoms: C_14  and  C_31
                            x       y       z     vdW  Elec       q    Type
                         _______ _______ _______ _____ _____    ______ ____

>  <TORSDO>
F 2

$$$$
=
 OpenBabel11062409063D

 37 42  0  0  1  0  0  0  0  0999 V2000
  160.9130  206.6370  151.0810 C   0  0  1  0  0  0  0  0  0  0  0  0
  160.9850  207.6930  154.5310 C   0  0  0  0  0  0  0  0  0  0  0  0
  161.5570  210.7380  152.2540 C   0  0  2  0  0  3  0  0  0  0  0  0
  161.7020  205.3280  150.7590 C   0  0  0  0  0  0  0  0  0  0  0  0
  159.6830  209.9720  154.3430 C   0  0  0  0  0  3  0  0  0  0  0  0
  161.5820  210.4130  150.8180 N   0  0  0  0  0  0  0  0  0  0  0  0
  162.3090  205.8620  148.3870 C   0  0  0  0  0  0  0  0  0  0  0  0
  162.7830  204.8180  151.6880 C   0  0  0  0  0  2  0  0  0  0  0  0
  161.7420  209.5280  153.1110 C   0  0  0  0  0  3  0  0  0  0  0  0
  161.3920  211.5650  149.9710 C   0  0  0  0  0  0  0  0  0  0  0  0
  158.3160  211.9070  154.0600 N   0  0  0  0  0  1  0  0  0  0  0  0
  161.9020  204.9740  149.3930 O   0  0  0  0  0  0  0  0  0  0  0  0
  160.3660  206.6660  152.4000 O   0  0  0  0  0  0  0  0  0  0  0  0
  159.7060  207.1940  155.1910 C   0  0  0  0  0  1  0  0  0  0  0  0
  159.8630  212.3580  151.6650 N   0  0  0  0  0  0  0  0  0  0  0  0
  161.4250  204.1210  151.6300 C   0  0  0  0  0  2  0  0  0  0  0  0
  159.4460  211.1190  153.7000 C   0  0  0  0  0  0  0  0  0  0  0  0
  161.3700  206.7270  153.3940 C   0  0  0  0  0  2  0  0  0  0  0  0
  162.7080  207.1800  148.6480 O   0  0  0  0  0  0  0  0  0  0  0  0
  161.0050  209.1520  150.3240 C   0  0  0  0  0  2  0  0  0  0  0  0
  160.2800  211.4890  152.5420 C   0  0  0  0  0  0  0  0  0  0  0  0
  161.7830  207.9060  150.7880 C   0  0  2  0  0  3  0  0  0  0  0  0
  160.8330  209.0990  153.9900 C   0  0  0  0  0  0  0  0  0  0  0  0
  162.0880  207.6730  155.5730 C   0  0  0  0  0  1  0  0  0  0  0  0
  163.0330  207.6700  149.9410 C   0  0  0  0  0  2  0  0  0  0  0  0
  162.2950  205.4660  147.1940 O   0  0  0  0  0  0  0  0  0  0  0  0
  159.7060  206.6240  150.1440 C   0  0  0  0  0  1  0  0  0  0  0  0
  160.5280  212.5090  150.3940 C   0  0  0  0  0  3  0  0  0  0  0  0
  163.0760  210.9100  148.4590 O   0  0  0  0  0  0  0  0  0  0  0  0
  162.0620  211.6360  148.6460 C   0  0  0  0  0  0  0  0  0  0  0  0
  162.3310  213.6580  147.1540 C   0  0  0  0  0  3  0  0  0  0  0  0
  161.6120  212.5130  147.5350 C   0  0  0  0  0  0  0  0  0  0  0  0
  160.4570  212.1720  146.8120 C   0  0  0  0  0  3  0  0  0  0  0  0
  158.8740  212.6180  145.0470 O   0  0  0  0  0  1  0  0  0  0  0  0
  160.7410  214.1050  145.3860 C   0  0  0  0  0  3  0  0  0  0  0  0
  160.0210  212.9650  145.7470 C   0  0  0  0  0  0  0  0  0  0  0  0
  161.8980  214.4510  146.0880 C   0  0  0  0  0  3  0  0  0  0  0  0
  1 27  1  6  0  0  0
  1 13  1  0  0  0  0
  2 14  1  0  0  0  0
  2 24  1  0  0  0  0
  3 21  1  0  0  0  0
  3  9  1  1  0  0  0
  4  1  1  0  0  0  0
  4 16  1  0  0  0  0
  4  8  1  0  0  0  0
  6  3  1  0  0  0  0
  7 19  1  0  0  0  0
  7 12  1  0  0  0  0
  9 23  2  0  0  0  0
 10 28  2  0  0  0  0
 10  6  1  0  0  0  0
 12  4  1  0  0  0  0
 13 18  1  0  0  0  0
 15 21  2  0  0  0  0
 16  8  1  0  0  0  0
 17 11  1  0  0  0  0
 17  5  2  0  0  0  0
 18  2  1  0  0  0  0
 19 25  1  0  0  0  0
 20 22  1  0  0  0  0
 20  6  1  0  0  0  0
 21 17  1  0  0  0  0
 22 25  1  6  0  0  0
 22  1  1  0  0  0  0
 23  5  1  0  0  0  0
 23  2  1  0  0  0  0
 26  7  2  0  0  0  0
 28 15  1  0  0  0  0
 29 30  2  0  0  0  0
 30 10  1  0  0  0  0
 31 32  1  0  0  0  0
 32 30  1  0  0  0  0
 33 32  2  0  0  0  0
 34 36  1  0  0  0  0
 35 36  2  0  0  0  0
 35 37  1  0  0  0  0
 36 33  1  0  0  0  0
 37 31  2  0  0  0  0
M  END
>  <MODEL>
4

>  <REMARK>
 VINA RESULT:      -2.3      2.995      4.823
  Name = 
  2 active torsions:
  status: ('A' for Active; 'I' for Inactive)
    1  A    between atoms: C_6  and  C_31
    2  A    between atoms: C_14  and  C_31
                            x       y       z     vdW  Elec       q    Type
                         _______ _______ _______ _____ _____    ______ ____

>  <TORSDO>
F 2

$$$$
=
 OpenBabel11062409063D

 37 42  0  0  1  0  0  0  0  0999 V2000
  160.9320  207.8940  152.0180 C   0  0  1  0  0  0  0  0  0  0  0  0
  160.9370  208.2720  155.6070 C   0  0  0  0  0  0  0  0  0  0  0  0
  160.2590  211.6820  153.9680 C   0  0  2  0  0  3  0  0  0  0  0  0
  162.0850  207.0190  151.4300 C   0  0  0  0  0  0  0  0  0  0  0  0
  158.9340  209.9530  155.8960 C   0  0  0  0  0  3  0  0  0  0  0  0
  160.2700  211.6510  152.4960 N   0  0  0  0  0  0  0  0  0  0  0  0
  162.2750  208.1480  149.2000 C   0  0  0  0  0  0  0  0  0  0  0  0
  163.3490  206.7570  152.2210 C   0  0  0  0  0  2  0  0  0  0  0  0
  160.9110  210.4790  154.5650 C   0  0  0  0  0  3  0  0  0  0  0  0
  159.6340  212.7980  151.8970 C   0  0  0  0  0  0  0  0  0  0  0  0
  156.9780  211.3140  156.0250 N   0  0  0  0  0  1  0  0  0  0  0  0
  162.2770  207.0080  150.0170 O   0  0  0  0  0  0  0  0  0  0  0  0
  160.5210  207.4950  153.3260 O   0  0  0  0  0  0  0  0  0  0  0  0
  159.9600  207.2510  156.1770 C   0  0  0  0  0  1  0  0  0  0  0  0
  158.0750  212.6950  153.7400 N   0  0  0  0  0  0  0  0  0  0  0  0
  162.3040  205.6560  152.0490 C   0  0  0  0  0  2  0  0  0  0  0  0
  158.2730  211.0440  155.4970 C   0  0  0  0  0  0  0  0  0  0  0  0
  161.5260  207.7200  154.2950 C   0  0  0  0  0  2  0  0  0  0  0  0
  162.2290  209.4530  149.7100 O   0  0  0  0  0  0  0  0  0  0  0  0
  160.1110  210.3790  151.7720 C   0  0  0  0  0  2  0  0  0  0  0  0
  158.8330  211.8810  154.4200 C   0  0  0  0  0  0  0  0  0  0  0  0
  161.2980  209.4170  151.9670 C   0  0  2  0  0  3  0  0  0  0  0  0
  160.2760  209.6110  155.3580 C   0  0  0  0  0  0  0  0  0  0  0  0
  162.0660  208.4470  156.6050 C   0  0  0  0  0  1  0  0  0  0  0  0
  162.4790  209.7840  151.0680 C   0  0  0  0  0  2  0  0  0  0  0  0
  162.2940  207.9930  147.9520 O   0  0  0  0  0  0  0  0  0  0  0  0
  159.7260  207.6340  151.1180 C   0  0  0  0  0  1  0  0  0  0  0  0
  158.5420  213.2920  152.5130 C   0  0  0  0  0  3  0  0  0  0  0  0
  161.2000  213.9950  150.6060 O   0  0  0  0  0  0  0  0  0  0  0  0
  160.1260  213.3330  150.6010 C   0  0  0  0  0  0  0  0  0  0  0  0
  158.0360  213.2800  149.1820 C   0  0  0  0  0  3  0  0  0  0  0  0
  159.4280  213.1390  149.3040 C   0  0  0  0  0  0  0  0  0  0  0  0
  160.1780  212.8470  148.1540 C   0  0  0  0  0  3  0  0  0  0  0  0
  160.3080  212.3870  145.7890 O   0  0  0  0  0  1  0  0  0  0  0  0
  158.1660  212.8160  146.8110 C   0  0  0  0  0  3  0  0  0  0  0  0
  159.5530  212.6820  146.9150 C   0  0  0  0  0  0  0  0  0  0  0  0
  157.4080  213.1170  147.9440 C   0  0  0  0  0  3  0  0  0  0  0  0
  1 27  1  6  0  0  0
  1 13  1  0  0  0  0
  2 14  1  0  0  0  0
  2 24  1  0  0  0  0
  3 21  1  0  0  0  0
  3  9  1  1  0  0  0
  4  1  1  0  0  0  0
  4 16  1  0  0  0  0
  4  8  1  0  0  0  0
  6  3  1  0  0  0  0
  7 19  1  0  0  0  0
  7 12  1  0  0  0  0
  9 23  2  0  0  0  0
 10  6  1  0  0  0  0
 10 28  2  0  0  0  0
 12  4  1  0  0  0  0
 13 18  1  0  0  0  0
 15 21  2  0  0  0  0
 16  8  1  0  0  0  0
 17  5  2  0  0  0  0
 17 11  1  0  0  0  0
 18  2  1  0  0  0  0
 19 25  1  0  0  0  0
 20 22  1  0  0  0  0
 20  6  1  0  0  0  0
 21 17  1  0  0  0  0
 22 25  1  6  0  0  0
 22  1  1  0  0  0  0
 23  2  1  0  0  0  0
 23  5  1  0  0  0  0
 26  7  2  0  0  0  0
 28 15  1  0  0  0  0
 30 29  2  0  0  0  0
 30 10  1  0  0  0  0
 31 32  1  0  0  0  0
 32 30  1  0  0  0  0
 33 32  2  0  0  0  0
 34 36  1  0  0  0  0
 35 36  2  0  0  0  0
 35 37  1  0  0  0  0
 36 33  1  0  0  0  0
 37 31  2  0  0  0  0
M  END
>  <MODEL>
5

>  <REMARK>
 VINA RESULT:      -2.0      2.193      3.761
  Name = 
  2 active torsions:
  status: ('A' for Active; 'I' for Inactive)
    1  A    between atoms: C_6  and  C_31
    2  A    between atoms: C_14  and  C_31
                            x       y       z     vdW  Elec       q    Type
                         _______ _______ _______ _____ _____    ______ ____

>  <TORSDO>
F 2

$$$$
