=
 OpenBabel11062410573D

 32 37  0  0  1  0  0  0  0  0999 V2000
  161.2220  204.5680  149.0040 C   0  0  0  0  0  0  0  0  0  0  0  0
  160.9840  208.6070  152.1410 N   0  0  0  0  0  0  0  0  0  0  0  0
  160.9680  206.3120  155.1910 C   0  0  0  0  0  2  0  0  0  0  0  0
  159.9580  207.6010  157.0570 C   0  0  0  0  0  2  0  0  0  0  0  0
  160.1130  210.8830  151.9230 N   0  0  0  0  0  0  0  0  0  0  0  0
  159.5920  212.0260  152.4370 C   0  0  0  0  0  0  0  0  0  0  0  0
  161.3040  207.1440  150.1230 C   0  0  0  0  0  0  0  0  0  0  0  0
  161.6590  206.1510  152.4180 C   0  0  0  0  0  2  0  0  0  0  0  0
  158.5100  214.4530  153.4560 C   0  0  0  0  0  3  0  0  0  0  0  0
  161.3680  204.7330  150.3890 C   0  0  0  0  0  3  0  0  0  0  0  0
  161.0880  206.6640  156.6680 C   0  0  0  0  0  2  0  0  0  0  0  0
  161.1330  207.4460  152.9910 C   0  0  0  0  0  0  0  0  0  0  0  0
  160.8710  207.5370  154.3100 C   0  0  0  0  0  0  0  0  0  0  0  0
  160.1310  209.8780  154.0850 C   0  0  0  0  0  0  0  0  0  0  0  0
  158.7630  214.3100  152.1530 C   0  0  0  0  0  3  0  0  0  0  0  0
  161.1250  205.6950  148.1820 C   0  0  0  0  0  3  0  0  0  0  0  0
  161.3960  206.0130  150.9510 C   0  0  0  0  0  0  0  0  0  0  0  0
  159.3250  213.0540  151.6280 C   0  0  0  0  0  3  0  0  0  0  0  0
  161.1660  206.9760  148.7370 C   0  0  0  0  0  3  0  0  0  0  0  0
  160.1580  208.9480  156.3720 C   0  0  0  0  0  2  0  0  0  0  0  0
  160.3520  208.8160  154.8800 C   0  0  0  0  0  0  0  0  0  0  0  0
  159.6210  211.0310  154.6000 N   0  0  0  0  0  0  0  0  0  0  0  0
  161.3080  208.4850  150.7350 C   0  0  0  0  0  0  0  0  0  0  0  0
  161.9200  209.7560  149.8860 S   0  0  0  0  0  0  0  0  0  0  0  0
  158.7810  213.3550  154.4510 C   0  0  0  0  0  3  0  0  0  0  0  0
  160.4090  209.8090  152.7060 C   0  0  1  0  0  3  0  0  0  0  0  0
  159.3470  212.1080  153.8200 C   0  0  0  0  0  0  0  0  0  0  0  0
  161.1810  203.2690  148.4130 N   0  0  0  0  0  2  0  0  0  0  0  0
  160.7800  202.0770  149.1470 C   0  0  0  0  0  2  0  0  0  0  0  0
  161.2740  200.8290  148.4350 C   0  0  0  0  0  2  0  0  0  0  0  0
  160.9040  200.8570  146.9610 C   0  0  0  0  0  2  0  0  0  0  0  0
  161.3680  199.7060  146.3240 O   0  0  0  0  0  1  0  0  0  0  0  0
  1 10  1  0  0  0  0
  2 26  1  0  0  0  0
  2 12  1  0  0  0  0
  3 11  1  0  0  0  0
  5  6  2  0  0  0  0
  6 27  1  0  0  0  0
  7 23  1  0  0  0  0
  7 17  1  0  0  0  0
  8 12  1  0  0  0  0
  9 25  2  0  0  0  0
 10 17  2  0  0  0  0
 11  4  1  0  0  0  0
 12 13  2  0  0  0  0
 13 21  1  0  0  0  0
 13  3  1  0  0  0  0
 14 22  1  0  0  0  0
 14 21  2  0  0  0  0
 15  9  1  0  0  0  0
 16 19  1  0  0  0  0
 16  1  2  0  0  0  0
 17  8  1  0  0  0  0
 18 15  2  0  0  0  0
 18  6  1  0  0  0  0
 19  7  2  0  0  0  0
 20  4  1  0  0  0  0
 21 20  1  0  0  0  0
 23  2  1  0  0  0  0
 24 23  2  0  0  0  0
 26  5  1  6  0  0  0
 26 14  1  0  0  0  0
 27 25  1  0  0  0  0
 27 22  2  0  0  0  0
 28  1  1  0  0  0  0
 28 29  1  0  0  0  0
 30 29  1  0  0  0  0
 31 30  1  0  0  0  0
 32 31  1  0  0  0  0
M  END
>  <MODEL>
1

>  <REMARK>
 VINA RESULT:      -8.5      0.000      0.000
  Name = 
  4 active torsions:
  status: ('A' for Active; 'I' for Inactive)
    1  A    between atoms: C_1  and  C_20
    2  A    between atoms: C_2  and  N_24
    3  A    between atoms: C_10  and  C_20
    4  A    between atoms: C_10  and  N_24
                            x       y       z     vdW  Elec       q    Type
                         _______ _______ _______ _____ _____    ______ ____

>  <TORSDO>
F 4

$$$$
=
 OpenBabel11062410573D

 32 37  0  0  1  0  0  0  0  0999 V2000
  161.1320  204.5370  149.1370 C   0  0  0  0  0  0  0  0  0  0  0  0
  160.9740  208.5790  152.2770 N   0  0  0  0  0  0  0  0  0  0  0  0
  160.9610  206.2840  155.3270 C   0  0  0  0  0  2  0  0  0  0  0  0
  159.9840  207.5840  157.2030 C   0  0  0  0  0  2  0  0  0  0  0  0
  160.1280  210.8650  152.0670 N   0  0  0  0  0  0  0  0  0  0  0  0
  159.6260  212.0140  152.5870 C   0  0  0  0  0  0  0  0  0  0  0  0
  161.2570  207.1110  150.2560 C   0  0  0  0  0  0  0  0  0  0  0  0
  161.6220  206.1140  152.5480 C   0  0  0  0  0  2  0  0  0  0  0  0
  158.5830  214.4530  153.6170 C   0  0  0  0  0  3  0  0  0  0  0  0
  161.2940  204.7010  150.5210 C   0  0  0  0  0  3  0  0  0  0  0  0
  161.0990  206.6340  156.8030 C   0  0  0  0  0  2  0  0  0  0  0  0
  161.1170  207.4150  153.1260 C   0  0  0  0  0  0  0  0  0  0  0  0
  160.8690  207.5100  154.4470 C   0  0  0  0  0  0  0  0  0  0  0  0
  160.1550  209.8590  154.2290 C   0  0  0  0  0  0  0  0  0  0  0  0
  158.8220  214.3070  152.3110 C   0  0  0  0  0  3  0  0  0  0  0  0
  161.0410  205.6650  148.3170 C   0  0  0  0  0  3  0  0  0  0  0  0
  161.3430  205.9790  151.0840 C   0  0  0  0  0  0  0  0  0  0  0  0
  159.3640  213.0450  151.7810 C   0  0  0  0  0  3  0  0  0  0  0  0
  161.1030  206.9460  148.8720 C   0  0  0  0  0  3  0  0  0  0  0  0
  160.1940  208.9280  156.5160 C   0  0  0  0  0  2  0  0  0  0  0  0
  160.3710  208.7940  155.0230 C   0  0  0  0  0  0  0  0  0  0  0  0
  159.6640  211.0180  154.7500 N   0  0  0  0  0  0  0  0  0  0  0  0
  161.2820  208.4530  150.8680 C   0  0  0  0  0  0  0  0  0  0  0  0
  161.9010  209.7160  150.0130 S   0  0  0  0  0  0  0  0  0  0  0  0
  158.8500  213.3520  154.6090 C   0  0  0  0  0  3  0  0  0  0  0  0
  160.4190  209.7870  152.8480 C   0  0  1  0  0  3  0  0  0  0  0  0
  159.3960  212.0980  153.9720 C   0  0  0  0  0  0  0  0  0  0  0  0
  161.0700  203.2380  148.5470 N   0  0  0  0  0  2  0  0  0  0  0  0
  161.7380  202.9040  147.2970 C   0  0  0  0  0  2  0  0  0  0  0  0
  160.9680  201.8190  146.5640 C   0  0  0  0  0  2  0  0  0  0  0  0
  160.4800  202.3120  145.2110 C   0  0  0  0  0  2  0  0  0  0  0  0
  160.7880  203.6630  145.0510 O   0  0  0  0  0  1  0  0  0  0  0  0
  1 10  1  0  0  0  0
  2 26  1  0  0  0  0
  2 12  1  0  0  0  0
  3 11  1  0  0  0  0
  5  6  2  0  0  0  0
  6 27  1  0  0  0  0
  7 23  1  0  0  0  0
  7 17  1  0  0  0  0
  8 12  1  0  0  0  0
  9 25  2  0  0  0  0
 10 17  2  0  0  0  0
 11  4  1  0  0  0  0
 12 13  2  0  0  0  0
 13 21  1  0  0  0  0
 13  3  1  0  0  0  0
 14 22  1  0  0  0  0
 14 21  2  0  0  0  0
 15  9  1  0  0  0  0
 16 19  1  0  0  0  0
 16  1  2  0  0  0  0
 17  8  1  0  0  0  0
 18 15  2  0  0  0  0
 18  6  1  0  0  0  0
 19  7  2  0  0  0  0
 20  4  1  0  0  0  0
 21 20  1  0  0  0  0
 23  2  1  0  0  0  0
 24 23  2  0  0  0  0
 26  5  1  6  0  0  0
 26 14  1  0  0  0  0
 27 25  1  0  0  0  0
 27 22  2  0  0  0  0
 28  1  1  0  0  0  0
 29 28  1  0  0  0  0
 30 29  1  0  0  0  0
 31 30  1  0  0  0  0
 32 31  1  0  0  0  0
M  END
>  <MODEL>
2

>  <REMARK>
 VINA RESULT:      -8.3      0.963      1.019
  Name = 
  4 active torsions:
  status: ('A' for Active; 'I' for Inactive)
    1  A    between atoms: C_1  and  C_20
    2  A    between atoms: C_2  and  N_24
    3  A    between atoms: C_10  and  C_20
    4  A    between atoms: C_10  and  N_24
                            x       y       z     vdW  Elec       q    Type
                         _______ _______ _______ _____ _____    ______ ____

>  <TORSDO>
F 4

$$$$
=
 OpenBabel11062410573D

 32 37  0  0  0  0  0  0  0  0999 V2000
  159.4590  210.5550  156.3160 C   0  0  0  0  0  0  0  0  0  0  0  0
  161.2910  207.8790  152.3540 N   0  0  0  0  0  0  0  0  0  0  0  0
  161.8610  211.0920  150.3720 C   0  0  0  0  0  2  0  0  0  0  0  0
  161.9140  210.4580  147.9720 C   0  0  0  0  0  2  0  0  0  0  0  0
  160.9380  205.6040  151.5270 N   0  0  0  0  0  0  0  0  0  0  0  0
  160.9110  204.6730  150.5390 C   0  0  0  0  0  0  0  0  0  0  0  0
  160.5200  208.5590  154.6470 C   0  0  0  0  0  0  0  0  0  0  0  0
  161.4470  210.3260  153.0980 C   0  0  0  0  0  2  0  0  0  0  0  0
  160.8490  202.6740  148.5150 C   0  0  0  0  0  3  0  0  0  0  0  0
  160.1290  210.9030  155.1340 C   0  0  0  0  0  3  0  0  0  0  0  0
  162.5830  211.2960  149.0470 C   0  0  0  0  0  2  0  0  0  0  0  0
  161.4700  209.2750  152.0140 C   0  0  0  0  0  0  0  0  0  0  0  0
  161.7310  209.6310  150.7410 C   0  0  0  0  0  0  0  0  0  0  0  0
  161.5090  207.3050  149.9570 C   0  0  0  0  0  0  0  0  0  0  0  0
  160.5740  202.3710  149.7860 C   0  0  0  0  0  3  0  0  0  0  0  0
  159.3280  209.2070  156.6620 C   0  0  0  0  0  3  0  0  0  0  0  0
  160.6470  209.9130  154.2940 C   0  0  0  0  0  0  0  0  0  0  0  0
  160.6090  203.4060  150.8320 C   0  0  0  0  0  3  0  0  0  0  0  0
  159.8560  208.2130  155.8330 C   0  0  0  0  0  3  0  0  0  0  0  0
  162.1510  208.9800  148.2610 C   0  0  0  0  0  2  0  0  0  0  0  0
  161.7570  208.5950  149.6670 C   0  0  0  0  0  0  0  0  0  0  0  0
  161.4940  206.3660  148.9690 N   0  0  0  0  0  0  0  0  0  0  0  0
  161.0480  207.5260  153.7360 C   0  0  0  0  0  0  0  0  0  0  0  0
  161.5810  206.0990  154.3600 S   0  0  0  0  0  0  0  0  0  0  0  0
  161.2050  204.0730  148.0830 C   0  0  0  0  0  2  0  0  0  0  0  0
  161.2460  206.9070  151.2820 C   0  0  0  0  0  0  0  0  0  0  0  0
  161.2080  205.0630  149.2210 C   0  0  0  0  0  0  0  0  0  0  0  0
  158.9150  211.5530  157.1810 N   0  0  0  0  0  2  0  0  0  0  0  0
  157.9320  212.5320  156.7410 C   0  0  0  0  0  2  0  0  0  0  0  0
  156.5950  211.8570  156.4870 C   0  0  0  0  0  2  0  0  0  0  0  0
  156.2440  211.8760  155.0080 C   0  0  0  0  0  2  0  0  0  0  0  0
  155.5710  210.7050  154.6570 O   0  0  0  0  0  1  0  0  0  0  0  0
  1 16  1  0  0  0  0
  1 28  1  0  0  0  0
  2 23  1  0  0  0  0
  3 13  1  0  0  0  0
  4 20  1  0  0  0  0
  4 11  1  0  0  0  0
  6 18  2  0  0  0  0
  6  5  1  0  0  0  0
  7 19  1  0  0  0  0
  8 17  1  0  0  0  0
  9 15  2  0  0  0  0
 10  1  2  0  0  0  0
 11  3  1  0  0  0  0
 12  2  1  0  0  0  0
 12  8  1  0  0  0  0
 13 12  2  0  0  0  0
 14 26  1  0  0  0  0
 15 18  1  0  0  0  0
 17  7  2  0  0  0  0
 17 10  1  0  0  0  0
 19 16  2  0  0  0  0
 20 21  1  0  0  0  0
 21 14  2  0  0  0  0
 21 13  1  0  0  0  0
 22 27  2  0  0  0  0
 22 14  1  0  0  0  0
 23 24  2  0  0  0  0
 23  7  1  0  0  0  0
 25  9  1  0  0  0  0
 25 27  1  0  0  0  0
 26  5  2  0  0  0  0
 26  2  1  0  0  0  0
 27  6  1  0  0  0  0
 29 28  1  0  0  0  0
 30 29  1  0  0  0  0
 31 30  1  0  0  0  0
 32 31  1  0  0  0  0
M  END
>  <MODEL>
3

>  <REMARK>
 VINA RESULT:      -7.5      3.454      8.878
  Name = 
  4 active torsions:
  status: ('A' for Active; 'I' for Inactive)
    1  A    between atoms: C_1  and  C_20
    2  A    between atoms: C_2  and  N_24
    3  A    between atoms: C_10  and  C_20
    4  A    between atoms: C_10  and  N_24
                            x       y       z     vdW  Elec       q    Type
                         _______ _______ _______ _____ _____    ______ ____

>  <TORSDO>
F 4

$$$$
=
 OpenBabel11062410573D

 32 37  0  0  1  0  0  0  0  0999 V2000
  160.9460  203.2060  149.1010 C   0  0  0  0  0  0  0  0  0  0  0  0
  161.4880  207.9500  150.9480 N   0  0  0  0  0  0  0  0  0  0  0  0
  160.5920  206.7490  154.4590 C   0  0  0  0  0  2  0  0  0  0  0  0
  159.7870  208.7340  155.7160 C   0  0  0  0  0  2  0  0  0  0  0  0
  161.2670  210.1880  149.9840 N   0  0  0  0  0  0  0  0  0  0  0  0
  161.0190  211.5190  150.0780 C   0  0  0  0  0  0  0  0  0  0  0  0
  161.5980  205.9120  149.4810 C   0  0  0  0  0  0  0  0  0  0  0  0
  161.4680  205.6070  151.9850 C   0  0  0  0  0  2  0  0  0  0  0  0
  160.5220  214.3180  150.2120 C   0  0  0  0  0  3  0  0  0  0  0  0
  161.0030  203.7450  150.3940 C   0  0  0  0  0  3  0  0  0  0  0  0
  160.6630  207.4950  155.7850 C   0  0  0  0  0  2  0  0  0  0  0  0
  161.2480  207.0980  152.0930 C   0  0  0  0  0  0  0  0  0  0  0  0
  160.9000  207.6400  153.2770 C   0  0  0  0  0  0  0  0  0  0  0  0
  160.8220  209.9060  152.3100 C   0  0  0  0  0  0  0  0  0  0  0  0
  160.8470  213.7340  149.0560 C   0  0  0  0  0  3  0  0  0  0  0  0
  161.2240  204.0230  148.0010 C   0  0  0  0  0  3  0  0  0  0  0  0
  161.3130  205.0940  150.5880 C   0  0  0  0  0  0  0  0  0  0  0  0
  161.1060  212.2870  148.9890 C   0  0  0  0  0  3  0  0  0  0  0  0
  161.5480  205.3690  148.1890 C   0  0  0  0  0  3  0  0  0  0  0  0
  160.3950  209.7300  154.7350 C   0  0  0  0  0  2  0  0  0  0  0  0
  160.6840  209.1130  153.3870 C   0  0  0  0  0  0  0  0  0  0  0  0
  160.5870  211.2450  152.4040 N   0  0  0  0  0  0  0  0  0  0  0  0
  161.8960  207.3400  149.7010 C   0  0  0  0  0  0  0  0  0  0  0  0
  162.8950  208.1240  148.6520 S   0  0  0  0  0  0  0  0  0  0  0  0
  160.4020  213.5400  151.4970 C   0  0  0  0  0  3  0  0  0  0  0  0
  161.1980  209.3640  151.0660 C   0  0  1  0  0  3  0  0  0  0  0  0
  160.6780  212.0670  151.3270 C   0  0  0  0  0  0  0  0  0  0  0  0
  160.6210  201.8320  148.8840 N   0  0  0  0  0  2  0  0  0  0  0  0
  161.5510  200.8820  148.2900 C   0  0  0  0  0  2  0  0  0  0  0  0
  160.9750  200.3170  147.0030 C   0  0  0  0  0  2  0  0  0  0  0  0
  160.5290  201.4300  146.0680 C   0  0  0  0  0  2  0  0  0  0  0  0
  160.0580  200.8930  144.8690 O   0  0  0  0  0  1  0  0  0  0  0  0
  1 10  1  0  0  0  0
  2 26  1  0  0  0  0
  2 12  1  0  0  0  0
  3 11  1  0  0  0  0
  4 11  1  0  0  0  0
  5  6  2  0  0  0  0
  6 27  1  0  0  0  0
  7 23  1  0  0  0  0
  7 17  1  0  0  0  0
  8 12  1  0  0  0  0
  9 25  2  0  0  0  0
 10 17  2  0  0  0  0
 12 13  2  0  0  0  0
 13 21  1  0  0  0  0
 13  3  1  0  0  0  0
 14 22  1  0  0  0  0
 14 21  2  0  0  0  0
 15  9  1  0  0  0  0
 16 19  1  0  0  0  0
 16  1  2  0  0  0  0
 17  8  1  0  0  0  0
 18 15  2  0  0  0  0
 18  6  1  0  0  0  0
 19  7  2  0  0  0  0
 20  4  1  0  0  0  0
 21 20  1  0  0  0  0
 23  2  1  0  0  0  0
 24 23  2  0  0  0  0
 26  5  1  6  0  0  0
 26 14  1  0  0  0  0
 27 25  1  0  0  0  0
 27 22  2  0  0  0  0
 28  1  1  0  0  0  0
 29 28  1  0  0  0  0
 30 29  1  0  0  0  0
 31 30  1  0  0  0  0
 32 31  1  0  0  0  0
M  END
>  <MODEL>
4

>  <REMARK>
 VINA RESULT:      -7.3      1.516      2.057
  Name = 
  4 active torsions:
  status: ('A' for Active; 'I' for Inactive)
    1  A    between atoms: C_1  and  C_20
    2  A    between atoms: C_2  and  N_24
    3  A    between atoms: C_10  and  C_20
    4  A    between atoms: C_10  and  N_24
                            x       y       z     vdW  Elec       q    Type
                         _______ _______ _______ _____ _____    ______ ____

>  <TORSDO>
F 4

$$$$
