=
 OpenBabel11062409133D

 37 40  0  0  1  0  0  0  0  0999 V2000
  160.8310  211.7440  154.7400 N   0  0  0  0  0  2  0  0  0  0  0  0
  160.1110  211.2090  151.0830 C   0  0  0  0  0  2  0  0  0  0  0  0
  157.5460  212.3560  156.5220 C   0  0  0  0  0  3  0  0  0  0  0  0
  160.3630  210.6010  153.9590 C   0  0  2  0  0  3  0  0  0  0  0  0
  158.4960  211.9290  155.5780 C   0  0  0  0  0  0  0  0  0  0  0  0
  161.4280  210.1420  152.9600 C   0  0  2  0  0  3  0  0  0  0  0  0
  160.3410  213.2900  156.5380 C   0  0  0  0  0  1  0  0  0  0  0  0
  158.0400  211.4080  154.3430 C   0  0  0  0  0  0  0  0  0  0  0  0
  155.7420  211.7970  155.0120 C   0  0  0  0  0  3  0  0  0  0  0  0
  159.9830  211.9390  155.9300 C   0  0  2  0  0  0  0  0  0  0  0  0
  156.6680  211.3510  154.0670 C   0  0  0  0  0  3  0  0  0  0  0  0
  161.4920  211.0310  151.7140 C   0  0  0  0  0  2  0  0  0  0  0  0
  159.0140  210.9330  153.3040 C   0  0  1  0  0  3  0  0  0  0  0  0
  156.1790  212.3030  156.2370 C   0  0  0  0  0  0  0  0  0  0  0  0
  159.1400  211.8670  152.0730 C   0  0  1  0  0  3  0  0  0  0  0  0
  155.1860  212.7550  157.2510 C   0  0  0  0  0  2  0  0  0  0  0  0
  154.4770  214.0050  156.7670 C   0  0  0  0  0  1  0  0  0  0  0  0
  161.7400  210.6580  157.2590 C   0  0  0  0  0  1  0  0  0  0  0  0
  160.2560  210.8340  156.9620 C   0  0  0  0  0  2  0  0  0  0  0  0
  159.5570  213.3230  152.4060 C   0  0  2  0  0  3  0  0  0  0  0  0
  158.4120  214.1550  152.9810 C   0  0  0  0  0  2  0  0  0  0  0  0
  156.1240  214.4510  152.6510 C   0  0  0  0  0  1  0  0  0  0  0  0
  157.3980  214.3660  151.9620 N   0  0  0  0  0  2  0  0  0  0  0  0
  160.2020  214.0100  151.2750 N   0  0  0  0  0  2  0  0  0  0  0  0
  159.4460  213.8310  150.0340 C   0  0  0  0  0  2  0  0  0  0  0  0
  160.2790  214.2270  148.8230 C   0  0  0  0  0  2  0  0  0  0  0  0
  160.4100  212.2200  147.0630 C   0  0  0  0  0  3  0  0  0  0  0  0
  160.3480  213.1240  147.8590 C   0  0  0  0  0  0  0  0  0  0  0  0
  161.2170  208.6780  152.5980 C   0  0  0  0  0  2  0  0  0  0  0  0
  162.1000  208.2530  151.0590 S   0  0  0  0  0  0  0  0  0  0  0  0
  161.5590  205.8580  152.3450 C   0  0  0  0  0  3  0  0  0  0  0  0
  161.6120  206.5310  151.1200 C   0  0  0  0  0  0  0  0  0  0  0  0
  161.2840  205.8570  149.9390 C   0  0  0  0  0  3  0  0  0  0  0  0
  160.6020  203.8590  148.8350 F   0  0  0  0  0  0  0  0  0  0  0  0
  160.8660  203.8360  151.2030 C   0  0  0  0  0  3  0  0  0  0  0  0
  160.9120  204.5100  149.9800 C   0  0  0  0  0  0  0  0  0  0  0  0
  161.1870  204.5100  152.3850 C   0  0  0  0  0  3  0  0  0  0  0  0
  1 10  1  0  0  0  0
  2 12  1  0  0  0  0
  2 15  1  0  0  0  0
  4  1  1  6  0  0  0
  5 10  1  0  0  0  0
  5  3  2  0  0  0  0
  6 29  1  6  0  0  0
  6  4  1  0  0  0  0
  8  5  1  0  0  0  0
  9 14  2  0  0  0  0
 10  7  1  1  0  0  0
 10 19  1  0  0  0  0
 11  8  2  0  0  0  0
 11  9  1  0  0  0  0
 12  6  1  0  0  0  0
 13  4  1  0  0  0  0
 13  8  1  1  0  0  0
 14  3  1  0  0  0  0
 14 16  1  0  0  0  0
 15 20  1  1  0  0  0
 15 13  1  0  0  0  0
 17 16  1  0  0  0  0
 19 18  1  0  0  0  0
 20 21  1  6  0  0  0
 23 22  1  0  0  0  0
 23 21  1  0  0  0  0
 24 20  1  0  0  0  0
 25 24  1  0  0  0  0
 26 25  1  0  0  0  0
 27 28  3  0  0  0  0
 28 26  1  0  0  0  0
 30 32  1  0  0  0  0
 30 29  1  0  0  0  0
 31 37  1  0  0  0  0
 32 31  2  0  0  0  0
 33 36  2  0  0  0  0
 33 32  1  0  0  0  0
 34 36  1  0  0  0  0
 35 37  2  0  0  0  0
 36 35  1  0  0  0  0
M  END
>  <MODEL>
1

>  <REMARK>
 VINA RESULT:      -4.7      0.000      0.000
  Name = 
  12 active torsions:
  status: ('A' for Active; 'I' for Inactive)
    1  A    between atoms: C_1  and  C_5
    2  A    between atoms: C_1  and  N_33
    3  A    between atoms: C_1  and  C_36
    4  A    between atoms: C_3  and  C_32
    5  A    between atoms: C_5  and  N_23
    6  A    between atoms: C_6  and  S_31
    7  A    between atoms: C_14  and  C_37
    8  A    between atoms: C_17  and  C_26
    9  A    between atoms: C_17  and  N_33
   10  A    between atoms: C_24  and  C_28
   11  A    between atoms: C_26  and  C_34
   12  A    between atoms: S_31  and  C_37
                            x       y       z     vdW  Elec       q    Type
                         _______ _______ _______ _____ _____    ______ ____

>  <TORSDO>
F 12

$$$$
=
 OpenBabel11062409133D

 37 40  0  0  1  0  0  0  0  0999 V2000
  159.9740  210.4430  151.3030 N   0  0  0  0  0  2  0  0  0  0  0  0
  162.6940  208.1090  150.1510 C   0  0  0  0  0  2  0  0  0  0  0  0
  160.6800  211.4120  154.8950 C   0  0  0  0  0  3  0  0  0  0  0  0
  161.3410  210.6420  150.8260 C   0  0  2  0  0  3  0  0  0  0  0  0
  160.8510  210.9830  153.5670 C   0  0  0  0  0  0  0  0  0  0  0  0
  161.4890  210.1910  149.3710 C   0  0  2  0  0  3  0  0  0  0  0  0
  158.4160  210.7460  153.1310 C   0  0  0  0  0  1  0  0  0  0  0  0
  162.0970  210.4260  153.1880 C   0  0  0  0  0  0  0  0  0  0  0  0
  162.9250  210.7030  155.4500 C   0  0  0  0  0  3  0  0  0  0  0  0
  159.7420  211.2090  152.5410 C   0  0  2  0  0  0  0  0  0  0  0  0
  163.1220  210.2860  154.1320 C   0  0  0  0  0  3  0  0  0  0  0  0
  161.6080  208.6700  149.2320 C   0  0  0  0  0  2  0  0  0  0  0  0
  162.3320  209.9590  151.7810 C   0  0  1  0  0  3  0  0  0  0  0  0
  161.7050  211.2620  155.8330 C   0  0  0  0  0  0  0  0  0  0  0  0
  162.3790  208.4180  151.6200 C   0  0  1  0  0  3  0  0  0  0  0  0
  161.5080  211.7270  157.2350 C   0  0  0  0  0  2  0  0  0  0  0  0
  160.5870  212.9320  157.2610 C   0  0  0  0  0  1  0  0  0  0  0  0
  158.6150  213.0320  151.1610 C   0  0  0  0  0  1  0  0  0  0  0  0
  159.6560  212.7110  152.2270 C   0  0  0  0  0  2  0  0  0  0  0  0
  161.1040  207.6780  152.1020 C   0  0  2  0  0  3  0  0  0  0  0  0
  161.2280  207.1420  153.5280 C   0  0  0  0  0  2  0  0  0  0  0  0
  160.2360  207.0810  155.6360 C   0  0  0  0  0  1  0  0  0  0  0  0
  160.2850  207.8290  154.3940 N   0  0  0  0  0  2  0  0  0  0  0  0
  160.6610  206.6270  151.1720 N   0  0  0  0  0  2  0  0  0  0  0  0
  161.2010  205.3170  151.5450 C   0  0  0  0  0  2  0  0  0  0  0  0
  160.7530  204.2410  150.5650 C   0  0  0  0  0  2  0  0  0  0  0  0
  161.3610  204.9310  148.0560 C   0  0  0  0  0  3  0  0  0  0  0  0
  161.0890  204.6230  149.1900 C   0  0  0  0  0  0  0  0  0  0  0  0
  162.6580  210.9110  148.7110 C   0  0  0  0  0  2  0  0  0  0  0  0
  162.3920  212.7150  148.7060 S   0  0  0  0  0  0  0  0  0  0  0  0
  162.5760  213.0650  145.9620 C   0  0  0  0  0  3  0  0  0  0  0  0
  161.7450  212.7300  147.0350 C   0  0  0  0  0  0  0  0  0  0  0  0
  160.4040  212.4050  146.8050 C   0  0  0  0  0  3  0  0  0  0  0  0
  158.5920  212.1160  145.2850 F   0  0  0  0  0  0  0  0  0  0  0  0
  160.7210  212.7660  144.4330 C   0  0  0  0  0  3  0  0  0  0  0  0
  159.8920  212.4240  145.5050 C   0  0  0  0  0  0  0  0  0  0  0  0
  162.0620  213.0850  144.6610 C   0  0  0  0  0  3  0  0  0  0  0  0
  1 10  1  0  0  0  0
  2 15  1  0  0  0  0
  3 14  1  0  0  0  0
  4  1  1  1  0  0  0
  4 13  1  0  0  0  0
  5  3  2  0  0  0  0
  6 29  1  1  0  0  0
  6  4  1  0  0  0  0
  8  5  1  0  0  0  0
  8 11  2  0  0  0  0
  9 14  2  0  0  0  0
 10  7  1  1  0  0  0
 10  5  1  0  0  0  0
 11  9  1  0  0  0  0
 12  6  1  0  0  0  0
 12  2  1  0  0  0  0
 13  8  1  1  0  0  0
 14 16  1  0  0  0  0
 15 13  1  0  0  0  0
 15 20  1  6  0  0  0
 16 17  1  0  0  0  0
 18 19  1  0  0  0  0
 19 10  1  0  0  0  0
 20 21  1  1  0  0  0
 21 23  1  0  0  0  0
 23 22  1  0  0  0  0
 24 25  1  0  0  0  0
 24 20  1  0  0  0  0
 26 25  1  0  0  0  0
 27 28  3  0  0  0  0
 28 26  1  0  0  0  0
 30 29  1  0  0  0  0
 31 32  1  0  0  0  0
 32 30  1  0  0  0  0
 33 32  2  0  0  0  0
 34 36  1  0  0  0  0
 35 37  1  0  0  0  0
 35 36  2  0  0  0  0
 36 33  1  0  0  0  0
 37 31  2  0  0  0  0
M  END
>  <MODEL>
2

>  <REMARK>
 VINA RESULT:      -4.5      2.967      6.855
  Name = 
  12 active torsions:
  status: ('A' for Active; 'I' for Inactive)
    1  A    between atoms: C_1  and  C_5
    2  A    between atoms: C_1  and  N_33
    3  A    between atoms: C_1  and  C_36
    4  A    between atoms: C_3  and  C_32
    5  A    between atoms: C_5  and  N_23
    6  A    between atoms: C_6  and  S_31
    7  A    between atoms: C_14  and  C_37
    8  A    between atoms: C_17  and  C_26
    9  A    between atoms: C_17  and  N_33
   10  A    between atoms: C_24  and  C_28
   11  A    between atoms: C_26  and  C_34
   12  A    between atoms: S_31  and  C_37
                            x       y       z     vdW  Elec       q    Type
                         _______ _______ _______ _____ _____    ______ ____

>  <TORSDO>
F 12

$$$$
=
 OpenBabel11062409133D

 37 40  0  0  1  0  0  0  0  0999 V2000
  162.0130  209.1360  154.0920 N   0  0  0  0  0  2  0  0  0  0  0  0
  161.0450  208.4670  150.5160 C   0  0  0  0  0  2  0  0  0  0  0  0
  159.6140  211.6980  155.5150 C   0  0  0  0  0  3  0  0  0  0  0  0
  160.9860  208.3090  153.4610 C   0  0  2  0  0  3  0  0  0  0  0  0
  160.1640  210.6780  154.7180 C   0  0  0  0  0  0  0  0  0  0  0  0
  161.6160  207.1920  152.6240 C   0  0  2  0  0  3  0  0  0  0  0  0
  162.4710  210.9780  155.5960 C   0  0  0  0  0  1  0  0  0  0  0  0
  159.4740  210.2850  153.5460 C   0  0  0  0  0  0  0  0  0  0  0  0
  157.7640  211.9480  153.9770 C   0  0  0  0  0  3  0  0  0  0  0  0
  161.4280  209.9500  155.1740 C   0  0  2  0  0  0  0  0  0  0  0  0
  158.2840  210.9250  153.1820 C   0  0  0  0  0  3  0  0  0  0  0  0
  162.1240  207.6860  151.2660 C   0  0  0  0  0  2  0  0  0  0  0  0
  160.0170  209.1960  152.6650 C   0  0  1  0  0  3  0  0  0  0  0  0
  158.4290  212.3370  155.1410 C   0  0  0  0  0  0  0  0  0  0  0  0
  160.6030  209.6970  151.3200 C   0  0  1  0  0  3  0  0  0  0  0  0
  157.8580  213.4120  155.9990 C   0  0  0  0  0  2  0  0  0  0  0  0
  156.4400  213.0580  156.4050 C   0  0  0  0  0  1  0  0  0  0  0  0
  162.2880  208.7660  157.2600 C   0  0  0  0  0  1  0  0  0  0  0  0
  161.0820  209.0600  156.3780 C   0  0  0  0  0  2  0  0  0  0  0  0
  161.7470  210.7350  151.4590 C   0  0  2  0  0  3  0  0  0  0  0  0
  161.2370  212.1550  151.7050 C   0  0  0  0  0  2  0  0  0  0  0  0
  159.7460  213.8200  151.0460 C   0  0  0  0  0  1  0  0  0  0  0  0
  160.1310  212.4410  150.8080 N   0  0  0  0  0  2  0  0  0  0  0  0
  162.7000  210.6950  150.3380 N   0  0  0  0  0  2  0  0  0  0  0  0
  162.0650  211.0870  149.0780 C   0  0  0  0  0  2  0  0  0  0  0  0
  162.8820  212.1540  148.3630 C   0  0  0  0  0  2  0  0  0  0  0  0
  161.2810  214.0360  147.3440 C   0  0  0  0  0  3  0  0  0  0  0  0
  162.0050  213.1890  147.8060 C   0  0  0  0  0  0  0  0  0  0  0  0
  160.6400  206.0320  152.4730 C   0  0  0  0  0  2  0  0  0  0  0  0
  161.4470  204.4460  152.8720 S   0  0  0  0  0  0  0  0  0  0  0  0
  161.1570  204.6460  150.1230 C   0  0  0  0  0  3  0  0  0  0  0  0
  161.2210  203.7850  151.2220 C   0  0  0  0  0  0  0  0  0  0  0  0
  161.1070  202.4040  151.0350 C   0  0  0  0  0  3  0  0  0  0  0  0
  160.8050  200.5460  149.5720 F   0  0  0  0  0  0  0  0  0  0  0  0
  160.8500  202.7450  148.6530 C   0  0  0  0  0  3  0  0  0  0  0  0
  160.9210  201.8840  149.7510 C   0  0  0  0  0  0  0  0  0  0  0  0
  160.9690  204.1250  148.8380 C   0  0  0  0  0  3  0  0  0  0  0  0
  1 10  1  0  0  0  0
  2 12  1  0  0  0  0
  2 15  1  0  0  0  0
  4  1  1  6  0  0  0
  5 10  1  0  0  0  0
  5  3  2  0  0  0  0
  6 29  1  6  0  0  0
  6  4  1  0  0  0  0
  8  5  1  0  0  0  0
  9 14  2  0  0  0  0
 10  7  1  1  0  0  0
 10 19  1  0  0  0  0
 11  8  2  0  0  0  0
 11  9  1  0  0  0  0
 12  6  1  0  0  0  0
 13  4  1  0  0  0  0
 13  8  1  1  0  0  0
 14  3  1  0  0  0  0
 14 16  1  0  0  0  0
 15 20  1  1  0  0  0
 15 13  1  0  0  0  0
 16 17  1  0  0  0  0
 19 18  1  0  0  0  0
 20 21  1  6  0  0  0
 23 22  1  0  0  0  0
 23 21  1  0  0  0  0
 24 20  1  0  0  0  0
 25 24  1  0  0  0  0
 26 25  1  0  0  0  0
 27 28  3  0  0  0  0
 28 26  1  0  0  0  0
 29 30  1  0  0  0  0
 31 32  1  0  0  0  0
 32 30  1  0  0  0  0
 33 32  2  0  0  0  0
 34 36  1  0  0  0  0
 35 37  1  0  0  0  0
 35 36  2  0  0  0  0
 36 33  1  0  0  0  0
 37 31  2  0  0  0  0
M  END
>  <MODEL>
3

>  <REMARK>
 VINA RESULT:      -3.9      1.870      2.955
  Name = 
  12 active torsions:
  status: ('A' for Active; 'I' for Inactive)
    1  A    between atoms: C_1  and  C_5
    2  A    between atoms: C_1  and  N_33
    3  A    between atoms: C_1  and  C_36
    4  A    between atoms: C_3  and  C_32
    5  A    between atoms: C_5  and  N_23
    6  A    between atoms: C_6  and  S_31
    7  A    between atoms: C_14  and  C_37
    8  A    between atoms: C_17  and  C_26
    9  A    between atoms: C_17  and  N_33
   10  A    between atoms: C_24  and  C_28
   11  A    between atoms: C_26  and  C_34
   12  A    between atoms: S_31  and  C_37
                            x       y       z     vdW  Elec       q    Type
                         _______ _______ _______ _____ _____    ______ ____

>  <TORSDO>
F 12

$$$$
=
 OpenBabel11062409133D

 37 40  0  0  1  0  0  0  0  0999 V2000
  161.4150  211.1360  153.1600 N   0  0  0  0  0  2  0  0  0  0  0  0
  159.4720  211.0360  156.3830 C   0  0  0  0  0  2  0  0  0  0  0  0
  162.0050  207.5750  152.0150 C   0  0  0  0  0  3  0  0  0  0  0  0
  160.0010  210.9540  153.4820 C   0  0  2  0  0  3  0  0  0  0  0  0
  161.4510  208.7030  152.6460 C   0  0  0  0  0  0  0  0  0  0  0  0
  159.4200  212.2070  154.1430 C   0  0  2  0  0  3  0  0  0  0  0  0
  163.3850  210.1770  152.1300 C   0  0  0  0  0  1  0  0  0  0  0  0
  160.4440  208.5090  153.6230 C   0  0  0  0  0  0  0  0  0  0  0  0
  160.6120  206.1060  153.3390 C   0  0  0  0  0  3  0  0  0  0  0  0
  161.8640  210.1060  152.2060 C   0  0  2  0  0  0  0  0  0  0  0  0
  160.0370  207.2140  153.9650 C   0  0  0  0  0  3  0  0  0  0  0  0
  159.7950  212.3230  155.6240 C   0  0  0  0  0  2  0  0  0  0  0  0
  159.8170  209.6800  154.3210 C   0  0  1  0  0  3  0  0  0  0  0  0
  161.5990  206.2860  152.3670 C   0  0  0  0  0  0  0  0  0  0  0  0
  160.2490  209.8480  155.8000 C   0  0  1  0  0  3  0  0  0  0  0  0
  162.1920  205.1020  151.6850 C   0  0  0  0  0  2  0  0  0  0  0  0
  161.0950  204.1740  151.1990 C   0  0  0  0  0  1  0  0  0  0  0  0
  162.3490  210.6610  149.7660 C   0  0  0  0  0  1  0  0  0  0  0  0
  161.2780  210.3830  150.8120 C   0  0  0  0  0  2  0  0  0  0  0  0
  161.7780  210.0010  156.0130 C   0  0  2  0  0  3  0  0  0  0  0  0
  162.3800  208.8700  156.8460 C   0  0  0  0  0  2  0  0  0  0  0  0
  160.7170  207.2900  157.2610 C   0  0  0  0  0  1  0  0  0  0  0  0
  161.8460  207.5950  156.4010 N   0  0  0  0  0  2  0  0  0  0  0  0
  162.1560  211.3190  156.5480 N   0  0  0  0  0  2  0  0  0  0  0  0
  163.4730  211.2820  157.1890 C   0  0  0  0  0  2  0  0  0  0  0  0
  164.5840  211.4920  156.1690 C   0  0  0  0  0  2  0  0  0  0  0  0
  166.6370  212.8090  157.2610 C   0  0  0  0  0  3  0  0  0  0  0  0
  165.7080  212.2160  156.7710 C   0  0  0  0  0  0  0  0  0  0  0  0
  157.9120  212.2610  153.9360 C   0  0  0  0  0  2  0  0  0  0  0  0
  157.3110  213.9830  153.9740 S   0  0  0  0  0  0  0  0  0  0  0  0
  155.4620  214.1470  151.9160 C   0  0  0  0  0  3  0  0  0  0  0  0
  156.8060  213.9650  152.2560 C   0  0  0  0  0  0  0  0  0  0  0  0
  157.7590  213.7660  151.2510 C   0  0  0  0  0  3  0  0  0  0  0  0
  158.2920  213.5430  148.9390 F   0  0  0  0  0  0  0  0  0  0  0  0
  156.0240  213.9170  149.5710 C   0  0  0  0  0  3  0  0  0  0  0  0
  157.3680  213.7420  149.9090 C   0  0  0  0  0  0  0  0  0  0  0  0
  155.0720  214.1220  150.5730 C   0  0  0  0  0  3  0  0  0  0  0  0
  3 14  2  0  0  0  0
  3  5  1  0  0  0  0
  4  1  1  1  0  0  0
  4  6  1  0  0  0  0
  4 13  1  0  0  0  0
  5  8  2  0  0  0  0
  6 29  1  1  0  0  0
  6 12  1  0  0  0  0
  8 11  1  0  0  0  0
  9 11  2  0  0  0  0
 10  7  1  6  0  0  0
 10  5  1  0  0  0  0
 10  1  1  0  0  0  0
 12  2  1  0  0  0  0
 13  8  1  6  0  0  0
 13 15  1  0  0  0  0
 14  9  1  0  0  0  0
 15 20  1  6  0  0  0
 15  2  1  0  0  0  0
 16 14  1  0  0  0  0
 17 16  1  0  0  0  0
 18 19  1  0  0  0  0
 19 10  1  0  0  0  0
 20 24  1  0  0  0  0
 20 21  1  1  0  0  0
 23 21  1  0  0  0  0
 23 22  1  0  0  0  0
 24 25  1  0  0  0  0
 26 28  1  0  0  0  0
 26 25  1  0  0  0  0
 28 27  3  0  0  0  0
 29 30  1  0  0  0  0
 31 32  1  0  0  0  0
 32 30  1  0  0  0  0
 33 32  2  0  0  0  0
 34 36  1  0  0  0  0
 35 36  2  0  0  0  0
 35 37  1  0  0  0  0
 36 33  1  0  0  0  0
 37 31  2  0  0  0  0
M  END
>  <MODEL>
4

>  <REMARK>
 VINA RESULT:      -3.3      3.067      7.959
  Name = 
  12 active torsions:
  status: ('A' for Active; 'I' for Inactive)
    1  A    between atoms: C_1  and  C_5
    2  A    between atoms: C_1  and  N_33
    3  A    between atoms: C_1  and  C_36
    4  A    between atoms: C_3  and  C_32
    5  A    between atoms: C_5  and  N_23
    6  A    between atoms: C_6  and  S_31
    7  A    between atoms: C_14  and  C_37
    8  A    between atoms: C_17  and  C_26
    9  A    between atoms: C_17  and  N_33
   10  A    between atoms: C_24  and  C_28
   11  A    between atoms: C_26  and  C_34
   12  A    between atoms: S_31  and  C_37
                            x       y       z     vdW  Elec       q    Type
                         _______ _______ _______ _____ _____    ______ ____

>  <TORSDO>
F 12

$$$$
=
 OpenBabel11062409133D

 37 40  0  0  1  0  0  0  0  0999 V2000
  160.3500  209.3750  155.7910 N   0  0  0  0  0  2  0  0  0  0  0  0
  160.3290  213.0990  155.2380 C   0  0  0  0  0  2  0  0  0  0  0  0
  161.4130  207.6990  152.5650 C   0  0  0  0  0  3  0  0  0  0  0  0
  161.3920  210.4000  155.7730 C   0  0  2  0  0  3  0  0  0  0  0  0
  161.2400  208.6540  153.5820 C   0  0  0  0  0  0  0  0  0  0  0  0
  161.1920  211.4080  156.9080 C   0  0  2  0  0  3  0  0  0  0  0  0
  159.5210  207.3290  154.7950 C   0  0  0  0  0  1  0  0  0  0  0  0
  161.6200  209.9950  153.3280 C   0  0  0  0  0  0  0  0  0  0  0  0
  162.2770  209.3950  151.0720 C   0  0  0  0  0  3  0  0  0  0  0  0
  160.7460  208.2220  154.9620 C   0  0  2  0  0  0  0  0  0  0  0  0
  162.1300  210.3560  152.0750 C   0  0  0  0  0  3  0  0  0  0  0  0
  160.1030  212.4400  156.5980 C   0  0  0  0  0  2  0  0  0  0  0  0
  161.4620  211.0510  154.3840 C   0  0  1  0  0  3  0  0  0  0  0  0
  161.9150  208.0690  151.3150 C   0  0  0  0  0  0  0  0  0  0  0  0
  160.3120  212.0540  154.1140 C   0  0  1  0  0  3  0  0  0  0  0  0
  162.0970  207.0430  150.2500 C   0  0  0  0  0  2  0  0  0  0  0  0
  160.7630  206.7190  149.6040 C   0  0  0  0  0  1  0  0  0  0  0  0
  161.6900  207.3790  157.1740 C   0  0  0  0  0  1  0  0  0  0  0  0
  161.8580  207.4240  155.6610 C   0  0  0  0  0  2  0  0  0  0  0  0
  158.9120  211.4060  153.9550 C   0  0  2  0  0  3  0  0  0  0  0  0
  158.1570  211.9120  152.7260 C   0  0  0  0  0  2  0  0  0  0  0  0
  157.9820  214.1750  152.1950 C   0  0  0  0  0  1  0  0  0  0  0  0
  158.8720  213.0300  152.1370 N   0  0  0  0  0  2  0  0  0  0  0  0
  158.0870  211.5090  155.1700 N   0  0  0  0  0  2  0  0  0  0  0  0
  156.7140  211.0590  154.9280 C   0  0  0  0  0  2  0  0  0  0  0  0
  155.7290  211.8050  155.8170 C   0  0  0  0  0  2  0  0  0  0  0  0
  155.0700  214.1510  154.7200 C   0  0  0  0  0  3  0  0  0  0  0  0
  155.3650  213.0930  155.2180 C   0  0  0  0  0  0  0  0  0  0  0  0
  162.5160  212.0740  157.2610 C   0  0  0  0  0  2  0  0  0  0  0  0
  163.8780  210.8610  157.2530 S   0  0  0  0  0  0  0  0  0  0  0  0
  164.8030  213.4740  157.2530 C   0  0  0  0  0  3  0  0  0  0  0  0
  165.1520  212.1210  157.2200 C   0  0  0  0  0  0  0  0  0  0  0  0
  166.4980  211.7480  157.1600 C   0  0  0  0  0  3  0  0  0  0  0  0
  168.7990  212.3640  157.0600 F   0  0  0  0  0  0  0  0  0  0  0  0
  167.1470  214.0790  157.1500 C   0  0  0  0  0  3  0  0  0  0  0  0
  167.4960  212.7270  157.1250 C   0  0  0  0  0  0  0  0  0  0  0  0
  165.8020  214.4530  157.2160 C   0  0  0  0  0  3  0  0  0  0  0  0
  2 12  1  0  0  0  0
  3  5  1  0  0  0  0
  4  1  1  6  0  0  0
  4  6  1  0  0  0  0
  5 10  1  0  0  0  0
  6 29  1  6  0  0  0
  8  5  2  0  0  0  0
  9 14  1  0  0  0  0
  9 11  2  0  0  0  0
 10  7  1  6  0  0  0
 10 19  1  0  0  0  0
 10  1  1  0  0  0  0
 11  8  1  0  0  0  0
 12  6  1  0  0  0  0
 13  8  1  6  0  0  0
 13  4  1  0  0  0  0
 14  3  2  0  0  0  0
 15 20  1  1  0  0  0
 15 13  1  0  0  0  0
 15  2  1  0  0  0  0
 16 14  1  0  0  0  0
 17 16  1  0  0  0  0
 19 18  1  0  0  0  0
 20 21  1  6  0  0  0
 20 24  1  0  0  0  0
 23 22  1  0  0  0  0
 23 21  1  0  0  0  0
 25 24  1  0  0  0  0
 25 26  1  0  0  0  0
 27 28  3  0  0  0  0
 28 26  1  0  0  0  0
 30 29  1  0  0  0  0
 32 30  1  0  0  0  0
 32 31  1  0  0  0  0
 33 32  2  0  0  0  0
 34 36  1  0  0  0  0
 35 37  1  0  0  0  0
 36 35  2  0  0  0  0
 36 33  1  0  0  0  0
 37 31  2  0  0  0  0
M  END
>  <MODEL>
5

>  <REMARK>
 VINA RESULT:      -2.6      3.713      7.537
  Name = 
  12 active torsions:
  status: ('A' for Active; 'I' for Inactive)
    1  A    between atoms: C_1  and  C_5
    2  A    between atoms: C_1  and  N_33
    3  A    between atoms: C_1  and  C_36
    4  A    between atoms: C_3  and  C_32
    5  A    between atoms: C_5  and  N_23
    6  A    between atoms: C_6  and  S_31
    7  A    between atoms: C_14  and  C_37
    8  A    between atoms: C_17  and  C_26
    9  A    between atoms: C_17  and  N_33
   10  A    between atoms: C_24  and  C_28
   11  A    between atoms: C_26  and  C_34
   12  A    between atoms: S_31  and  C_37
                            x       y       z     vdW  Elec       q    Type
                         _______ _______ _______ _____ _____    ______ ____

>  <TORSDO>
F 12

$$$$
=
 OpenBabel11062409133D

 37 40  0  0  1  0  0  0  0  0999 V2000
  161.0190  208.2170  154.6570 N   0  0  0  0  0  2  0  0  0  0  0  0
  161.1700  211.9500  155.1220 C   0  0  0  0  0  2  0  0  0  0  0  0
  161.2880  207.4680  150.9540 C   0  0  0  0  0  3  0  0  0  0  0  0
  162.1110  209.1870  154.6890 C   0  0  2  0  0  3  0  0  0  0  0  0
  161.3950  208.1110  152.2000 C   0  0  0  0  0  0  0  0  0  0  0  0
  162.2190  209.8510  156.0650 C   0  0  2  0  0  3  0  0  0  0  0  0
  159.8570  206.5370  153.3560 C   0  0  0  0  0  1  0  0  0  0  0  0
  161.8160  209.4630  152.2330 C   0  0  0  0  0  0  0  0  0  0  0  0
  161.9630  209.4910  149.8130 C   0  0  0  0  0  3  0  0  0  0  0  0
  161.1540  207.3270  153.4880 C   0  0  2  0  0  0  0  0  0  0  0  0
  162.0920  210.1430  151.0400 C   0  0  0  0  0  3  0  0  0  0  0  0
  161.1700  210.9470  156.2770 C   0  0  0  0  0  2  0  0  0  0  0  0
  161.9520  210.1920  153.5380 C   0  0  1  0  0  3  0  0  0  0  0  0
  161.5580  208.1560  149.7680 C   0  0  0  0  0  0  0  0  0  0  0  0
  160.8500  211.2520  153.7930 C   0  0  1  0  0  3  0  0  0  0  0  0
  161.4450  207.4570  148.4570 C   0  0  0  0  0  2  0  0  0  0  0  0
  160.8940  206.0590  148.6560 C   0  0  0  0  0  1  0  0  0  0  0  0
  162.7980  205.7110  152.4010 C   0  0  0  0  0  1  0  0  0  0  0  0
  162.3200  206.3480  153.7000 C   0  0  0  0  0  2  0  0  0  0  0  0
  159.4010  210.6980  153.7700 C   0  0  2  0  0  3  0  0  0  0  0  0
  158.5630  211.2690  152.6260 C   0  0  0  0  0  2  0  0  0  0  0  0
  158.0450  213.3510  151.7180 C   0  0  0  0  0  1  0  0  0  0  0  0
  159.1450  212.5180  152.1670 N   0  0  0  0  0  2  0  0  0  0  0  0
  158.7100  210.8380  155.0610 N   0  0  0  0  0  2  0  0  0  0  0  0
  158.0560  212.1430  155.1830 C   0  0  0  0  0  2  0  0  0  0  0  0
  156.7770  212.0400  156.0020 C   0  0  0  0  0  2  0  0  0  0  0  0
  155.2000  210.1020  155.0550 C   0  0  0  0  0  3  0  0  0  0  0  0
  155.9150  210.9740  155.4830 C   0  0  0  0  0  0  0  0  0  0  0  0
  163.6330  210.3710  156.2910 C   0  0  0  0  0  2  0  0  0  0  0  0
  163.6110  211.9150  157.2610 S   0  0  0  0  0  0  0  0  0  0  0  0
  165.8220  213.5860  157.1820 C   0  0  0  0  0  3  0  0  0  0  0  0
  165.1880  212.4740  156.6190 C   0  0  0  0  0  0  0  0  0  0  0  0
  165.7850  211.7960  155.5510 C   0  0  0  0  0  3  0  0  0  0  0  0
  167.5840  211.5790  154.0030 F   0  0  0  0  0  0  0  0  0  0  0  0
  167.6410  213.3480  155.5990 C   0  0  0  0  0  3  0  0  0  0  0  0
  167.0110  212.2330  155.0410 C   0  0  0  0  0  0  0  0  0  0  0  0
  167.0480  214.0230  156.6700 C   0  0  0  0  0  3  0  0  0  0  0  0
  2 12  1  0  0  0  0
  3  5  1  0  0  0  0
  4  1  1  1  0  0  0
  4  6  1  0  0  0  0
  5  8  2  0  0  0  0
  5 10  1  0  0  0  0
  6 12  1  0  0  0  0
  6 29  1  6  0  0  0
  9 11  2  0  0  0  0
 10  7  1  6  0  0  0
 10 19  1  0  0  0  0
 10  1  1  0  0  0  0
 11  8  1  0  0  0  0
 13  8  1  6  0  0  0
 13 15  1  0  0  0  0
 13  4  1  0  0  0  0
 14  9  1  0  0  0  0
 14  3  2  0  0  0  0
 15 20  1  1  0  0  0
 15  2  1  0  0  0  0
 16 17  1  0  0  0  0
 16 14  1  0  0  0  0
 18 19  1  0  0  0  0
 20 21  1  6  0  0  0
 20 24  1  0  0  0  0
 22 23  1  0  0  0  0
 23 21  1  0  0  0  0
 24 25  1  0  0  0  0
 25 26  1  0  0  0  0
 27 28  3  0  0  0  0
 28 26  1  0  0  0  0
 29 30  1  0  0  0  0
 32 31  2  0  0  0  0
 32 30  1  0  0  0  0
 33 32  1  0  0  0  0
 34 36  1  0  0  0  0
 35 37  2  0  0  0  0
 36 33  2  0  0  0  0
 36 35  1  0  0  0  0
 37 31  1  0  0  0  0
M  END
>  <MODEL>
6

>  <REMARK>
 VINA RESULT:      -2.1      3.486      7.578
  Name = 
  12 active torsions:
  status: ('A' for Active; 'I' for Inactive)
    1  A    between atoms: C_1  and  C_5
    2  A    between atoms: C_1  and  N_33
    3  A    between atoms: C_1  and  C_36
    4  A    between atoms: C_3  and  C_32
    5  A    between atoms: C_5  and  N_23
    6  A    between atoms: C_6  and  S_31
    7  A    between atoms: C_14  and  C_37
    8  A    between atoms: C_17  and  C_26
    9  A    between atoms: C_17  and  N_33
   10  A    between atoms: C_24  and  C_28
   11  A    between atoms: C_26  and  C_34
   12  A    between atoms: S_31  and  C_37
                            x       y       z     vdW  Elec       q    Type
                         _______ _______ _______ _____ _____    ______ ____

>  <TORSDO>
F 12

$$$$
=
 OpenBabel11062409133D

 37 40  0  0  1  0  0  0  0  0999 V2000
  161.6300  210.7120  152.5660 N   0  0  0  0  0  2  0  0  0  0  0  0
  159.5290  210.7440  155.6900 C   0  0  0  0  0  2  0  0  0  0  0  0
  162.1310  207.1110  151.5070 C   0  0  0  0  0  3  0  0  0  0  0  0
  160.1960  210.5910  152.8200 C   0  0  2  0  0  3  0  0  0  0  0  0
  161.5930  208.2700  152.0920 C   0  0  0  0  0  0  0  0  0  0  0  0
  159.6340  211.8770  153.4320 C   0  0  2  0  0  3  0  0  0  0  0  0
  163.6070  209.6570  151.6490 C   0  0  0  0  0  1  0  0  0  0  0  0
  160.5320  208.1330  153.0210 C   0  0  0  0  0  0  0  0  0  0  0  0
  160.6170  205.7210  152.7830 C   0  0  0  0  0  3  0  0  0  0  0  0
  162.0830  209.6480  151.6510 C   0  0  2  0  0  0  0  0  0  0  0  0
  160.0570  206.8610  153.3630 C   0  0  0  0  0  3  0  0  0  0  0  0
  159.9400  212.0040  154.9270 C   0  0  0  0  0  2  0  0  0  0  0  0
  159.9190  209.3400  153.6690 C   0  0  1  0  0  3  0  0  0  0  0  0
  161.6560  205.8440  151.8590 C   0  0  0  0  0  0  0  0  0  0  0  0
  160.2850  209.5170  155.1640 C   0  0  1  0  0  3  0  0  0  0  0  0
  162.2340  204.6270  151.2250 C   0  0  0  0  0  2  0  0  0  0  0  0
  161.6800  203.3800  151.8860 C   0  0  0  0  0  1  0  0  0  0  0  0
  162.2430  211.1350  149.5870 C   0  0  0  0  0  1  0  0  0  0  0  0
  161.5770  209.9230  150.2260 C   0  0  0  0  0  2  0  0  0  0  0  0
  161.8070  209.6130  155.4510 C   0  0  2  0  0  3  0  0  0  0  0  0
  162.3190  208.4810  156.3400 C   0  0  0  0  0  2  0  0  0  0  0  0
  161.0140  206.6280  156.8850 C   0  0  0  0  0  1  0  0  0  0  0  0
  161.2530  208.0210  157.2130 N   0  0  0  0  0  2  0  0  0  0  0  0
  162.2130  210.9280  155.9720 N   0  0  0  0  0  2  0  0  0  0  0  0
  163.4050  210.8270  156.8180 C   0  0  0  0  0  2  0  0  0  0  0  0
  163.8940  212.2050  157.2400 C   0  0  0  0  0  2  0  0  0  0  0  0
  166.5230  212.4450  156.8260 C   0  0  0  0  0  3  0  0  0  0  0  0
  165.3360  212.3360  157.0090 C   0  0  0  0  0  0  0  0  0  0  0  0
  158.1410  211.9880  153.1500 C   0  0  0  0  0  2  0  0  0  0  0  0
  157.4730  213.5620  153.7840 S   0  0  0  0  0  0  0  0  0  0  0  0
  156.2010  213.3940  156.2410 C   0  0  0  0  0  3  0  0  0  0  0  0
  156.4510  212.7620  155.0190 C   0  0  0  0  0  0  0  0  0  0  0  0
  155.9020  211.5020  154.7600 C   0  0  0  0  0  3  0  0  0  0  0  0
  154.5870  209.6470  155.4720 F   0  0  0  0  0  0  0  0  0  0  0  0
  154.8680  211.4980  156.9470 C   0  0  0  0  0  3  0  0  0  0  0  0
  155.1120  210.8700  155.7240 C   0  0  0  0  0  0  0  0  0  0  0  0
  155.4110  212.7600  157.2060 C   0  0  0  0  0  3  0  0  0  0  0  0
  3 14  2  0  0  0  0
  3  5  1  0  0  0  0
  4  1  1  1  0  0  0
  4  6  1  0  0  0  0
  4 13  1  0  0  0  0
  5  8  2  0  0  0  0
  6 29  1  1  0  0  0
  6 12  1  0  0  0  0
  8 11  1  0  0  0  0
  9 11  2  0  0  0  0
 10  7  1  6  0  0  0
 10  5  1  0  0  0  0
 10  1  1  0  0  0  0
 12  2  1  0  0  0  0
 13  8  1  6  0  0  0
 13 15  1  0  0  0  0
 14  9  1  0  0  0  0
 15 20  1  6  0  0  0
 15  2  1  0  0  0  0
 16 14  1  0  0  0  0
 16 17  1  0  0  0  0
 18 19  1  0  0  0  0
 19 10  1  0  0  0  0
 20 24  1  0  0  0  0
 20 21  1  1  0  0  0
 21 23  1  0  0  0  0
 22 23  1  0  0  0  0
 24 25  1  0  0  0  0
 25 26  1  0  0  0  0
 27 28  3  0  0  0  0
 28 26  1  0  0  0  0
 29 30  1  0  0  0  0
 30 32  1  0  0  0  0
 31 37  1  0  0  0  0
 32 31  2  0  0  0  0
 33 32  1  0  0  0  0
 33 36  2  0  0  0  0
 34 36  1  0  0  0  0
 35 37  2  0  0  0  0
 36 35  1  0  0  0  0
M  END
>  <MODEL>
7

>  <REMARK>
 VINA RESULT:      -2.0      3.007      8.112
  Name = 
  12 active torsions:
  status: ('A' for Active; 'I' for Inactive)
    1  A    between atoms: C_1  and  C_5
    2  A    between atoms: C_1  and  N_33
    3  A    between atoms: C_1  and  C_36
    4  A    between atoms: C_3  and  C_32
    5  A    between atoms: C_5  and  N_23
    6  A    between atoms: C_6  and  S_31
    7  A    between atoms: C_14  and  C_37
    8  A    between atoms: C_17  and  C_26
    9  A    between atoms: C_17  and  N_33
   10  A    between atoms: C_24  and  C_28
   11  A    between atoms: C_26  and  C_34
   12  A    between atoms: S_31  and  C_37
                            x       y       z     vdW  Elec       q    Type
                         _______ _______ _______ _____ _____    ______ ____

>  <TORSDO>
F 12

$$$$
