=
 OpenBabel11052422353D

 31 35  0  0  1  0  0  0  0  0999 V2000
  160.8300  207.8900  154.0960 C   0  0  0  0  0  0  0  0  0  0  0  0
  161.8920  207.1160  150.4850 C   0  0  2  0  0  3  0  0  0  0  0  0
  161.4120  205.6790  150.3220 C   0  0  0  0  0  0  0  0  0  0  0  0
  161.0440  203.5280  151.2860 C   0  0  0  0  0  0  0  0  0  0  0  0
  161.4460  207.8520  151.7420 C   0  0  0  0  0  0  0  0  0  0  0  0
  160.7790  209.2850  154.0680 C   0  0  0  0  0  3  0  0  0  0  0  0
  161.3740  204.8430  151.3970 N   0  0  0  0  0  0  0  0  0  0  0  0
  162.2270  209.3350  149.3910 C   0  0  1  0  0  3  0  0  0  0  0  0
  160.5550  207.2240  155.2440 F   0  0  0  0  0  0  0  0  0  0  0  0
  161.2270  205.9910  147.7930 C   0  0  0  0  0  2  0  0  0  0  0  0
  161.0010  202.7460  152.3910 F   0  0  0  0  0  0  0  0  0  0  0  0
  161.7270  209.9760  150.5650 O   0  0  0  0  0  0  0  0  0  0  0  0
  161.5810  207.9630  149.2390 C   0  0  1  0  0  3  0  0  0  0  0  0
  161.1730  207.1800  152.9430 C   0  0  0  0  0  3  0  0  0  0  0  0
  160.7570  202.9830  150.0350 C   0  0  0  0  0  3  0  0  0  0  0  0
  161.4240  209.2650  151.7330 C   0  0  0  0  0  0  0  0  0  0  0  0
  161.0770  209.9700  152.8890 C   0  0  0  0  0  3  0  0  0  0  0  0
  162.0730  207.2430  147.9940 C   0  0  0  0  0  2  0  0  0  0  0  0
  161.1770  205.1430  149.0330 C   0  0  0  0  0  0  0  0  0  0  0  0
  160.8260  203.7980  148.9060 C   0  0  0  0  0  3  0  0  0  0  0  0
  161.9410  210.1410  148.2530 O   0  0  0  0  0  0  0  0  0  0  0  0
  163.0720  212.1250  148.5610 O   0  0  0  0  0  0  0  0  0  0  0  0
  161.9880  211.5370  148.2930 C   0  0  0  0  0  0  0  0  0  0  0  0
  158.4290  213.7540  147.3960 C   0  0  0  0  0  0  0  0  0  0  0  0
  160.1830  212.2250  146.7380 C   0  0  0  0  0  3  0  0  0  0  0  0
  160.6730  213.2590  150.2310 F   0  0  0  0  0  0  0  0  0  0  0  0
  157.3050  214.4500  147.0990 F   0  0  0  0  0  0  0  0  0  0  0  0
  159.0230  212.9410  146.4300 C   0  0  0  0  0  3  0  0  0  0  0  0
  160.1550  213.1380  148.9840 C   0  0  0  0  0  0  0  0  0  0  0  0
  160.7620  212.3130  148.0130 C   0  0  0  0  0  0  0  0  0  0  0  0
  158.9940  213.8530  148.6700 C   0  0  0  0  0  3  0  0  0  0  0  0
  1  9  1  0  0  0  0
  2  3  1  6  0  0  0
  2  5  1  0  0  0  0
  3  7  1  0  0  0  0
  4  7  2  0  0  0  0
  4 11  1  0  0  0  0
  5 14  1  0  0  0  0
  6  1  1  0  0  0  0
  8 21  1  6  0  0  0
  8 12  1  0  0  0  0
 10 18  1  0  0  0  0
 10 19  1  0  0  0  0
 12 16  1  0  0  0  0
 13 18  1  6  0  0  0
 13  8  1  0  0  0  0
 13  2  1  0  0  0  0
 14  1  2  0  0  0  0
 15  4  1  0  0  0  0
 16  5  2  0  0  0  0
 16 17  1  0  0  0  0
 17  6  2  0  0  0  0
 19  3  2  0  0  0  0
 20 19  1  0  0  0  0
 20 15  2  0  0  0  0
 21 23  1  0  0  0  0
 23 22  2  0  0  0  0
 24 31  1  0  0  0  0
 25 30  2  0  0  0  0
 27 24  1  0  0  0  0
 28 25  1  0  0  0  0
 28 24  2  0  0  0  0
 29 26  1  0  0  0  0
 30 23  1  0  0  0  0
 30 29  1  0  0  0  0
 31 29  2  0  0  0  0
M  END
>  <MODEL>
1

>  <REMARK>
 VINA RESULT:     -10.2      0.000      0.000
  Name = 
  3 active torsions:
  status: ('A' for Active; 'I' for Inactive)
    1  A    between atoms: C_9  and  C_22
    2  A    between atoms: C_9  and  O_23
    3  A    between atoms: C_15  and  O_23
                            x       y       z     vdW  Elec       q    Type
                         _______ _______ _______ _____ _____    ______ ____

>  <TORSDO>
F 3

$$$$
=
 OpenBabel11052422353D

 31 35  0  0  1  0  0  0  0  0999 V2000
  161.7520  210.7830  149.7220 C   0  0  0  0  0  0  0  0  0  0  0  0
  161.8230  208.3230  152.6740 C   0  0  2  0  0  3  0  0  0  0  0  0
  161.0310  209.0840  153.7310 C   0  0  0  0  0  0  0  0  0  0  0  0
  160.4390  211.1670  154.7320 C   0  0  0  0  0  0  0  0  0  0  0  0
  161.8230  208.9020  151.2660 C   0  0  0  0  0  0  0  0  0  0  0  0
  161.9880  209.9210  148.6490 C   0  0  0  0  0  3  0  0  0  0  0  0
  161.0520  210.4470  153.7550 N   0  0  0  0  0  0  0  0  0  0  0  0
  162.3700  206.0970  151.6840 C   0  0  1  0  0  3  0  0  0  0  0  0
  161.5980  212.1110  149.5040 F   0  0  0  0  0  0  0  0  0  0  0  0
  160.3740  206.8910  154.8650 C   0  0  0  0  0  2  0  0  0  0  0  0
  160.4730  212.5200  154.6960 F   0  0  0  0  0  0  0  0  0  0  0  0
  162.2800  206.6700  150.3790 O   0  0  0  0  0  0  0  0  0  0  0  0
  161.4350  206.8360  152.6350 C   0  0  1  0  0  3  0  0  0  0  0  0
  161.6820  210.2770  151.0220 C   0  0  0  0  0  3  0  0  0  0  0  0
  159.7810  210.5130  155.7740 C   0  0  0  0  0  3  0  0  0  0  0  0
  162.0950  208.0430  150.1760 C   0  0  0  0  0  0  0  0  0  0  0  0
  162.1600  208.5550  148.8770 C   0  0  0  0  0  3  0  0  0  0  0  0
  161.4850  206.2560  154.0400 C   0  0  0  0  0  2  0  0  0  0  0  0
  160.4160  208.3930  154.8020 C   0  0  0  0  0  0  0  0  0  0  0  0
  159.7740  209.1200  155.8050 C   0  0  0  0  0  3  0  0  0  0  0  0
  162.0210  204.7200  151.6230 O   0  0  0  0  0  0  0  0  0  0  0  0
  159.7360  204.7180  151.3240 O   0  0  0  0  0  0  0  0  0  0  0  0
  160.8630  204.2680  150.9820 C   0  0  0  0  0  0  0  0  0  0  0  0
  161.1790  201.2980  147.9050 C   0  0  0  0  0  0  0  0  0  0  0  0
  160.8810  201.9060  150.2260 C   0  0  0  0  0  3  0  0  0  0  0  0
  161.2740  204.9360  148.1820 F   0  0  0  0  0  0  0  0  0  0  0  0
  161.2780  200.3490  146.9440 F   0  0  0  0  0  0  0  0  0  0  0  0
  160.9820  200.9260  149.2360 C   0  0  0  0  0  3  0  0  0  0  0  0
  161.1760  203.6350  148.5520 C   0  0  0  0  0  0  0  0  0  0  0  0
  160.9770  203.2670  149.9000 C   0  0  0  0  0  0  0  0  0  0  0  0
  161.2760  202.6500  147.5640 C   0  0  0  0  0  3  0  0  0  0  0  0
  1 14  1  0  0  0  0
  2  5  1  6  0  0  0
  2  3  1  0  0  0  0
  3  7  2  0  0  0  0
  3 19  1  0  0  0  0
  4 15  2  0  0  0  0
  6 17  1  0  0  0  0
  6  1  2  0  0  0  0
  7  4  1  0  0  0  0
  8 21  1  6  0  0  0
  8 13  1  0  0  0  0
  9  1  1  0  0  0  0
 11  4  1  0  0  0  0
 12  8  1  0  0  0  0
 13  2  1  0  0  0  0
 13 18  1  1  0  0  0
 14  5  2  0  0  0  0
 15 20  1  0  0  0  0
 16 12  1  0  0  0  0
 16  5  1  0  0  0  0
 17 16  2  0  0  0  0
 18 10  1  0  0  0  0
 19 10  1  0  0  0  0
 19 20  2  0  0  0  0
 23 22  2  0  0  0  0
 23 21  1  0  0  0  0
 24 28  1  0  0  0  0
 26 29  1  0  0  0  0
 27 24  1  0  0  0  0
 28 25  2  0  0  0  0
 29 30  2  0  0  0  0
 30 25  1  0  0  0  0
 30 23  1  0  0  0  0
 31 24  2  0  0  0  0
 31 29  1  0  0  0  0
M  END
>  <MODEL>
2

>  <REMARK>
 VINA RESULT:     -10.0      3.113      7.925
  Name = 
  3 active torsions:
  status: ('A' for Active; 'I' for Inactive)
    1  A    between atoms: C_9  and  C_22
    2  A    between atoms: C_9  and  O_23
    3  A    between atoms: C_15  and  O_23
                            x       y       z     vdW  Elec       q    Type
                         _______ _______ _______ _____ _____    ______ ____

>  <TORSDO>
F 3

$$$$
=
 OpenBabel11052422353D

 31 35  0  0  1  0  0  0  0  0999 V2000
  160.8380  202.0450  150.6590 C   0  0  0  0  0  0  0  0  0  0  0  0
  161.6310  205.3320  148.8320 C   0  0  2  0  0  3  0  0  0  0  0  0
  161.2770  204.9790  147.3920 C   0  0  0  0  0  0  0  0  0  0  0  0
  161.2060  203.3540  145.6470 C   0  0  0  0  0  0  0  0  0  0  0  0
  161.2350  204.3250  149.9040 C   0  0  0  0  0  0  0  0  0  0  0  0
  160.6520  202.5020  151.9650 C   0  0  0  0  0  3  0  0  0  0  0  0
  161.4180  203.6990  146.9450 N   0  0  0  0  0  0  0  0  0  0  0  0
  161.6510  207.0970  150.5980 C   0  0  1  0  0  3  0  0  0  0  0  0
  160.7340  200.7230  150.3820 F   0  0  0  0  0  0  0  0  0  0  0  0
  160.8320  207.4380  146.8630 C   0  0  0  0  0  2  0  0  0  0  0  0
  161.3400  202.0630  145.2610 F   0  0  0  0  0  0  0  0  0  0  0  0
  161.2020  206.1310  151.5500 O   0  0  0  0  0  0  0  0  0  0  0  0
  161.1280  206.7340  149.2120 C   0  0  1  0  0  3  0  0  0  0  0  0
  161.1390  202.9500  149.6380 C   0  0  0  0  0  3  0  0  0  0  0  0
  160.8580  204.3290  144.7120 C   0  0  0  0  0  3  0  0  0  0  0  0
  161.0780  204.7730  151.2350 C   0  0  0  0  0  0  0  0  0  0  0  0
  160.7730  203.8630  152.2520 C   0  0  0  0  0  3  0  0  0  0  0  0
  161.5690  207.7400  148.1620 C   0  0  0  0  0  2  0  0  0  0  0  0
  160.9760  205.9980  146.4570 C   0  0  0  0  0  0  0  0  0  0  0  0
  160.7450  205.6550  145.1240 C   0  0  0  0  0  3  0  0  0  0  0  0
  161.1870  208.3870  150.9760 O   0  0  0  0  0  0  0  0  0  0  0  0
  162.7060  209.8980  151.8240 O   0  0  0  0  0  0  0  0  0  0  0  0
  161.7480  209.1050  152.0360 C   0  0  0  0  0  0  0  0  0  0  0  0
  160.1940  208.5080  155.9870 C   0  0  0  0  0  0  0  0  0  0  0  0
  161.2060  207.6470  153.9670 C   0  0  0  0  0  3  0  0  0  0  0  0
  160.6660  211.2690  153.6480 F   0  0  0  0  0  0  0  0  0  0  0  0
  159.7060  208.3040  157.2340 F   0  0  0  0  0  0  0  0  0  0  0  0
  160.7040  207.4360  155.2530 C   0  0  0  0  0  3  0  0  0  0  0  0
  160.6890  210.0090  154.1480 C   0  0  0  0  0  0  0  0  0  0  0  0
  161.2060  208.9300  153.3990 C   0  0  0  0  0  0  0  0  0  0  0  0
  160.1870  209.7910  155.4360 C   0  0  0  0  0  3  0  0  0  0  0  0
  1  6  1  0  0  0  0
  2  3  1  6  0  0  0
  2 13  1  0  0  0  0
  2  5  1  0  0  0  0
  4  7  2  0  0  0  0
  5 16  2  0  0  0  0
  6 17  2  0  0  0  0
  7  3  1  0  0  0  0
  8 21  1  1  0  0  0
  8 12  1  0  0  0  0
  9  1  1  0  0  0  0
 10 18  1  0  0  0  0
 11  4  1  0  0  0  0
 13 18  1  6  0  0  0
 13  8  1  0  0  0  0
 14  5  1  0  0  0  0
 14  1  2  0  0  0  0
 15 20  2  0  0  0  0
 15  4  1  0  0  0  0
 16 12  1  0  0  0  0
 16 17  1  0  0  0  0
 19 10  1  0  0  0  0
 19  3  2  0  0  0  0
 20 19  1  0  0  0  0
 21 23  1  0  0  0  0
 22 23  2  0  0  0  0
 23 30  1  0  0  0  0
 24 27  1  0  0  0  0
 25 28  1  0  0  0  0
 26 29  1  0  0  0  0
 28 24  2  0  0  0  0
 29 31  2  0  0  0  0
 30 25  2  0  0  0  0
 30 29  1  0  0  0  0
 31 24  1  0  0  0  0
M  END
>  <MODEL>
3

>  <REMARK>
 VINA RESULT:      -9.8      3.459      5.978
  Name = 
  3 active torsions:
  status: ('A' for Active; 'I' for Inactive)
    1  A    between atoms: C_9  and  C_22
    2  A    between atoms: C_9  and  O_23
    3  A    between atoms: C_15  and  O_23
                            x       y       z     vdW  Elec       q    Type
                         _______ _______ _______ _____ _____    ______ ____

>  <TORSDO>
F 3

$$$$
=
 OpenBabel11052422353D

 31 35  0  0  1  0  0  0  0  0999 V2000
  161.9380  206.7170  146.9510 C   0  0  0  0  0  0  0  0  0  0  0  0
  160.8770  204.7580  150.0820 C   0  0  2  0  0  3  0  0  0  0  0  0
  161.0150  203.3160  149.6080 C   0  0  0  0  0  0  0  0  0  0  0  0
  160.8310  201.7220  147.8430 C   0  0  0  0  0  0  0  0  0  0  0  0
  161.4290  205.8400  149.1640 C   0  0  0  0  0  0  0  0  0  0  0  0
  162.3140  207.9380  147.5130 C   0  0  0  0  0  3  0  0  0  0  0  0
  160.8120  203.0030  148.2970 N   0  0  0  0  0  0  0  0  0  0  0  0
  161.1140  206.3540  151.9880 C   0  0  1  0  0  3  0  0  0  0  0  0
  162.0030  206.5390  145.6100 F   0  0  0  0  0  0  0  0  0  0  0  0
  161.3720  202.5240  152.0100 C   0  0  0  0  0  2  0  0  0  0  0  0
  160.6450  201.4690  146.5260 F   0  0  0  0  0  0  0  0  0  0  0  0
  161.7000  207.3070  151.1010 O   0  0  0  0  0  0  0  0  0  0  0  0
  161.4280  204.9420  151.5060 C   0  0  1  0  0  3  0  0  0  0  0  0
  161.4880  205.6790  147.7710 C   0  0  0  0  0  3  0  0  0  0  0  0
  161.0350  200.6680  148.7340 C   0  0  0  0  0  3  0  0  0  0  0  0
  161.7800  207.0920  149.7190 C   0  0  0  0  0  0  0  0  0  0  0  0
  162.2340  208.1250  148.8940 C   0  0  0  0  0  3  0  0  0  0  0  0
  160.8330  203.8870  152.4260 C   0  0  0  0  0  2  0  0  0  0  0  0
  161.1720  202.2660  150.5430 C   0  0  0  0  0  0  0  0  0  0  0  0
  161.2050  200.9460  150.0890 C   0  0  0  0  0  3  0  0  0  0  0  0
  161.6260  206.5500  153.3010 O   0  0  0  0  0  0  0  0  0  0  0  0
  160.1130  206.2040  155.0040 O   0  0  0  0  0  0  0  0  0  0  0  0
  160.8310  207.0120  154.3540 C   0  0  0  0  0  0  0  0  0  0  0  0
  160.8350  211.2000  155.2750 C   0  0  0  0  0  0  0  0  0  0  0  0
  160.3380  209.3720  153.7730 C   0  0  0  0  0  3  0  0  0  0  0  0
  161.8550  208.0740  156.8590 F   0  0  0  0  0  0  0  0  0  0  0  0
  160.8310  212.5260  155.5530 F   0  0  0  0  0  0  0  0  0  0  0  0
  160.3320  210.7390  154.0580 C   0  0  0  0  0  3  0  0  0  0  0  0
  161.3530  208.9220  155.9280 C   0  0  0  0  0  0  0  0  0  0  0  0
  160.8460  208.4490  154.6990 C   0  0  0  0  0  0  0  0  0  0  0  0
  161.3450  210.2930  156.2080 C   0  0  0  0  0  3  0  0  0  0  0  0
  1  6  2  0  0  0  0
  1 14  1  0  0  0  0
  2  5  1  6  0  0  0
  2 13  1  0  0  0  0
  3  2  1  0  0  0  0
  3 19  1  0  0  0  0
  4  7  1  0  0  0  0
  4 15  2  0  0  0  0
  5 16  1  0  0  0  0
  6 17  1  0  0  0  0
  7  3  2  0  0  0  0
  8 21  1  1  0  0  0
  9  1  1  0  0  0  0
 10 18  1  0  0  0  0
 11  4  1  0  0  0  0
 12  8  1  0  0  0  0
 13  8  1  0  0  0  0
 13 18  1  1  0  0  0
 14  5  2  0  0  0  0
 15 20  1  0  0  0  0
 16 12  1  0  0  0  0
 17 16  2  0  0  0  0
 19 10  1  0  0  0  0
 20 19  2  0  0  0  0
 21 23  1  0  0  0  0
 23 30  1  0  0  0  0
 23 22  2  0  0  0  0
 24 27  1  0  0  0  0
 24 31  1  0  0  0  0
 25 28  1  0  0  0  0
 25 30  2  0  0  0  0
 28 24  2  0  0  0  0
 29 31  2  0  0  0  0
 29 26  1  0  0  0  0
 30 29  1  0  0  0  0
M  END
>  <MODEL>
4

>  <REMARK>
 VINA RESULT:      -9.7      3.840      6.254
  Name = 
  3 active torsions:
  status: ('A' for Active; 'I' for Inactive)
    1  A    between atoms: C_9  and  C_22
    2  A    between atoms: C_9  and  O_23
    3  A    between atoms: C_15  and  O_23
                            x       y       z     vdW  Elec       q    Type
                         _______ _______ _______ _____ _____    ______ ____

>  <TORSDO>
F 3

$$$$
=
 OpenBabel11052422353D

 31 35  0  0  1  0  0  0  0  0999 V2000
  161.5930  203.9240  146.0880 C   0  0  0  0  0  0  0  0  0  0  0  0
  161.0960  206.0010  149.2830 C   0  0  2  0  0  3  0  0  0  0  0  0
  161.0830  204.9200  150.3570 C   0  0  0  0  0  0  0  0  0  0  0  0
  160.4960  202.7040  151.0160 C   0  0  0  0  0  0  0  0  0  0  0  0
  161.4960  205.5710  147.8780 C   0  0  0  0  0  0  0  0  0  0  0  0
  162.1180  204.8850  145.2220 C   0  0  0  0  0  3  0  0  0  0  0  0
  160.6150  203.6730  150.0690 N   0  0  0  0  0  0  0  0  0  0  0  0
  161.7630  208.3310  148.6830 C   0  0  1  0  0  3  0  0  0  0  0  0
  161.3860  202.6580  145.6520 F   0  0  0  0  0  0  0  0  0  0  0  0
  161.8760  206.6030  152.1080 C   0  0  0  0  0  2  0  0  0  0  0  0
  160.0440  201.4750  150.6710 F   0  0  0  0  0  0  0  0  0  0  0  0
  162.1990  207.8640  147.4050 O   0  0  0  0  0  0  0  0  0  0  0  0
  161.9230  207.2230  149.7180 C   0  0  1  0  0  3  0  0  0  0  0  0
  161.2740  204.2690  147.4040 C   0  0  0  0  0  3  0  0  0  0  0  0
  160.8310  202.9770  152.3420 C   0  0  0  0  0  3  0  0  0  0  0  0
  161.9970  206.5440  146.9840 C   0  0  0  0  0  0  0  0  0  0  0  0
  162.3180  206.1920  145.6690 C   0  0  0  0  0  3  0  0  0  0  0  0
  161.4820  207.6750  151.1000 C   0  0  0  0  0  2  0  0  0  0  0  0
  161.3820  205.2420  151.7020 C   0  0  0  0  0  0  0  0  0  0  0  0
  161.2750  204.2530  152.6820 C   0  0  0  0  0  3  0  0  0  0  0  0
  162.5310  209.4680  149.0590 O   0  0  0  0  0  0  0  0  0  0  0  0
  161.5650  211.0630  150.4140 O   0  0  0  0  0  0  0  0  0  0  0  0
  161.9560  210.7260  149.2630 C   0  0  0  0  0  0  0  0  0  0  0  0
  161.4660  213.3950  145.9420 C   0  0  0  0  0  0  0  0  0  0  0  0
  160.5780  211.7440  147.4690 C   0  0  0  0  0  3  0  0  0  0  0  0
  164.1060  212.4070  148.2600 F   0  0  0  0  0  0  0  0  0  0  0  0
  161.2970  214.2330  144.8920 F   0  0  0  0  0  0  0  0  0  0  0  0
  160.4020  212.6080  146.3860 C   0  0  0  0  0  3  0  0  0  0  0  0
  162.8880  212.4540  147.6660 C   0  0  0  0  0  0  0  0  0  0  0  0
  161.8170  211.6550  148.1210 C   0  0  0  0  0  0  0  0  0  0  0  0
  162.7060  213.3180  146.5810 C   0  0  0  0  0  3  0  0  0  0  0  0
  1 14  1  0  0  0  0
  2  5  1  6  0  0  0
  2 13  1  0  0  0  0
  2  3  1  0  0  0  0
  3 19  1  0  0  0  0
  4 15  2  0  0  0  0
  6 17  1  0  0  0  0
  6  1  2  0  0  0  0
  7  3  2  0  0  0  0
  7  4  1  0  0  0  0
  8 21  1  1  0  0  0
  8 13  1  0  0  0  0
  9  1  1  0  0  0  0
 11  4  1  0  0  0  0
 12  8  1  0  0  0  0
 13 18  1  1  0  0  0
 14  5  2  0  0  0  0
 15 20  1  0  0  0  0
 16 12  1  0  0  0  0
 16  5  1  0  0  0  0
 17 16  2  0  0  0  0
 18 10  1  0  0  0  0
 19 10  1  0  0  0  0
 19 20  2  0  0  0  0
 21 23  1  0  0  0  0
 23 22  2  0  0  0  0
 24 28  2  0  0  0  0
 24 31  1  0  0  0  0
 25 30  2  0  0  0  0
 27 24  1  0  0  0  0
 28 25  1  0  0  0  0
 29 30  1  0  0  0  0
 29 26  1  0  0  0  0
 30 23  1  0  0  0  0
 31 29  2  0  0  0  0
M  END
>  <MODEL>
5

>  <REMARK>
 VINA RESULT:      -9.6      2.378      4.510
  Name = 
  3 active torsions:
  status: ('A' for Active; 'I' for Inactive)
    1  A    between atoms: C_9  and  C_22
    2  A    between atoms: C_9  and  O_23
    3  A    between atoms: C_15  and  O_23
                            x       y       z     vdW  Elec       q    Type
                         _______ _______ _______ _____ _____    ______ ____

>  <TORSDO>
F 3

$$$$
=
 OpenBabel11052422353D

 31 35  0  0  1  0  0  0  0  0999 V2000
  161.6400  204.2750  145.7710 C   0  0  0  0  0  0  0  0  0  0  0  0
  161.0060  205.3250  149.4130 C   0  0  2  0  0  3  0  0  0  0  0  0
  160.9840  203.9780  150.1250 C   0  0  0  0  0  0  0  0  0  0  0  0
  160.4240  201.6590  150.0900 C   0  0  0  0  0  0  0  0  0  0  0  0
  161.4560  205.3270  147.9580 C   0  0  0  0  0  0  0  0  0  0  0  0
  162.1700  205.4520  145.2400 C   0  0  0  0  0  3  0  0  0  0  0  0
  160.5510  202.8630  149.4710 N   0  0  0  0  0  0  0  0  0  0  0  0
  161.6430  207.7360  149.5400 C   0  0  1  0  0  3  0  0  0  0  0  0
  161.4710  203.1890  144.9780 F   0  0  0  0  0  0  0  0  0  0  0  0
  161.6910  205.0860  152.3160 C   0  0  0  0  0  2  0  0  0  0  0  0
  160.0080  200.5790  149.3870 F   0  0  0  0  0  0  0  0  0  0  0  0
  162.1250  207.6670  148.1970 O   0  0  0  0  0  0  0  0  0  0  0  0
  161.7950  206.3760  150.2120 C   0  0  1  0  0  3  0  0  0  0  0  0
  161.2750  204.2180  147.1180 C   0  0  0  0  0  3  0  0  0  0  0  0
  160.7140  201.5380  151.4480 C   0  0  0  0  0  3  0  0  0  0  0  0
  161.9630  206.5240  147.4030 C   0  0  0  0  0  0  0  0  0  0  0  0
  162.3300  206.5750  146.0550 C   0  0  0  0  0  3  0  0  0  0  0  0
  161.3040  206.4010  151.6510 C   0  0  0  0  0  2  0  0  0  0  0  0
  161.2370  203.8970  151.5150 C   0  0  0  0  0  0  0  0  0  0  0  0
  161.1210  202.6650  152.1600 C   0  0  0  0  0  3  0  0  0  0  0  0
  162.3750  208.7230  150.2560 O   0  0  0  0  0  0  0  0  0  0  0  0
  161.9560  210.8960  149.6150 O   0  0  0  0  0  0  0  0  0  0  0  0
  161.8680  210.0020  150.5010 C   0  0  0  0  0  0  0  0  0  0  0  0
  160.0400  210.7680  154.3040 C   0  0  0  0  0  0  0  0  0  0  0  0
  161.3930  209.3830  152.8550 C   0  0  0  0  0  3  0  0  0  0  0  0
  160.2600  212.3660  151.0300 F   0  0  0  0  0  0  0  0  0  0  0  0
  159.4690  210.9970  155.5100 F   0  0  0  0  0  0  0  0  0  0  0  0
  160.8040  209.6180  154.1000 C   0  0  0  0  0  3  0  0  0  0  0  0
  160.4520  211.4540  152.0150 C   0  0  0  0  0  0  0  0  0  0  0  0
  161.2260  210.2930  151.8000 C   0  0  0  0  0  0  0  0  0  0  0  0
  159.8650  211.6840  153.2630 C   0  0  0  0  0  3  0  0  0  0  0  0
  1 14  1  0  0  0  0
  2  5  1  6  0  0  0
  2  3  1  0  0  0  0
  2 13  1  0  0  0  0
  3 19  1  0  0  0  0
  4 15  2  0  0  0  0
  6  1  2  0  0  0  0
  6 17  1  0  0  0  0
  7  4  1  0  0  0  0
  7  3  2  0  0  0  0
  8 13  1  0  0  0  0
  8 21  1  1  0  0  0
  9  1  1  0  0  0  0
 11  4  1  0  0  0  0
 12  8  1  0  0  0  0
 13 18  1  1  0  0  0
 14  5  2  0  0  0  0
 15 20  1  0  0  0  0
 16  5  1  0  0  0  0
 16 12  1  0  0  0  0
 17 16  2  0  0  0  0
 18 10  1  0  0  0  0
 19 20  2  0  0  0  0
 19 10  1  0  0  0  0
 21 23  1  0  0  0  0
 22 23  2  0  0  0  0
 23 30  1  0  0  0  0
 24 27  1  0  0  0  0
 25 28  2  0  0  0  0
 26 29  1  0  0  0  0
 28 24  1  0  0  0  0
 29 31  1  0  0  0  0
 30 29  2  0  0  0  0
 30 25  1  0  0  0  0
 31 24  2  0  0  0  0
M  END
>  <MODEL>
6

>  <REMARK>
 VINA RESULT:      -9.3      2.727      5.408
  Name = 
  3 active torsions:
  status: ('A' for Active; 'I' for Inactive)
    1  A    between atoms: C_9  and  C_22
    2  A    between atoms: C_9  and  O_23
    3  A    between atoms: C_15  and  O_23
                            x       y       z     vdW  Elec       q    Type
                         _______ _______ _______ _____ _____    ______ ____

>  <TORSDO>
F 3

$$$$
=
 OpenBabel11052422353D

 31 35  0  0  1  0  0  0  0  0999 V2000
  160.9400  201.8530  150.4950 C   0  0  0  0  0  0  0  0  0  0  0  0
  161.5570  205.3470  149.0180 C   0  0  2  0  0  3  0  0  0  0  0  0
  161.2780  205.1120  147.5380 C   0  0  0  0  0  0  0  0  0  0  0  0
  161.3830  203.6620  145.6470 C   0  0  0  0  0  0  0  0  0  0  0  0
  161.1980  204.2170  149.9740 C   0  0  0  0  0  0  0  0  0  0  0  0
  160.6780  202.1680  151.8290 C   0  0  0  0  0  3  0  0  0  0  0  0
  161.5260  203.8940  146.9790 N   0  0  0  0  0  0  0  0  0  0  0  0
  161.3900  206.9310  150.9410 C   0  0  1  0  0  3  0  0  0  0  0  0
  160.9410  200.5600  150.0900 F   0  0  0  0  0  0  0  0  0  0  0  0
  160.6750  207.5750  147.2250 C   0  0  0  0  0  2  0  0  0  0  0  0
  161.6220  202.4270  145.1460 F   0  0  0  0  0  0  0  0  0  0  0  0
  160.9800  205.8490  151.7800 O   0  0  0  0  0  0  0  0  0  0  0  0
  160.9410  206.6680  149.5080 C   0  0  1  0  0  3  0  0  0  0  0  0
  161.2100  202.8710  149.5760 C   0  0  0  0  0  3  0  0  0  0  0  0
  160.9980  204.6970  144.7950 C   0  0  0  0  0  3  0  0  0  0  0  0
  160.9640  204.5220  151.3340 C   0  0  0  0  0  0  0  0  0  0  0  0
  160.6910  203.5000  152.2470 C   0  0  0  0  0  3  0  0  0  0  0  0
  161.3450  207.7990  148.5750 C   0  0  0  0  0  2  0  0  0  0  0  0
  160.9360  206.1940  146.6920 C   0  0  0  0  0  0  0  0  0  0  0  0
  160.7760  205.9670  145.3240 C   0  0  0  0  0  3  0  0  0  0  0  0
  160.8220  208.1440  151.4200 O   0  0  0  0  0  0  0  0  0  0  0  0
  162.7340  209.4290  151.4830 O   0  0  0  0  0  0  0  0  0  0  0  0
  161.5980  209.1700  151.9670 C   0  0  0  0  0  0  0  0  0  0  0  0
  160.0910  211.3560  155.3340 C   0  0  0  0  0  0  0  0  0  0  0  0
  161.0310  209.3450  154.3750 C   0  0  0  0  0  3  0  0  0  0  0  0
  160.6330  211.9050  151.7670 F   0  0  0  0  0  0  0  0  0  0  0  0
  159.6160  212.0340  156.4060 F   0  0  0  0  0  0  0  0  0  0  0  0
  160.5430  210.0430  155.4810 C   0  0  0  0  0  3  0  0  0  0  0  0
  160.6140  211.2750  152.9680 C   0  0  0  0  0  0  0  0  0  0  0  0
  161.0730  209.9480  153.1090 C   0  0  0  0  0  0  0  0  0  0  0  0
  160.1260  211.9700  154.0800 C   0  0  0  0  0  3  0  0  0  0  0  0
  1  6  1  0  0  0  0
  2  3  1  6  0  0  0
  2 13  1  0  0  0  0
  2  5  1  0  0  0  0
  4  7  2  0  0  0  0
  5 16  2  0  0  0  0
  6 17  2  0  0  0  0
  7  3  1  0  0  0  0
  8 21  1  1  0  0  0
  8 12  1  0  0  0  0
  9  1  1  0  0  0  0
 10 18  1  0  0  0  0
 11  4  1  0  0  0  0
 13 18  1  6  0  0  0
 13  8  1  0  0  0  0
 14  5  1  0  0  0  0
 14  1  2  0  0  0  0
 15 20  2  0  0  0  0
 15  4  1  0  0  0  0
 16 12  1  0  0  0  0
 16 17  1  0  0  0  0
 19 10  1  0  0  0  0
 19  3  2  0  0  0  0
 20 19  1  0  0  0  0
 21 23  1  0  0  0  0
 22 23  2  0  0  0  0
 23 30  1  0  0  0  0
 24 28  1  0  0  0  0
 24 27  1  0  0  0  0
 25 28  2  0  0  0  0
 26 29  1  0  0  0  0
 29 30  2  0  0  0  0
 29 31  1  0  0  0  0
 30 25  1  0  0  0  0
 31 24  2  0  0  0  0
M  END
>  <MODEL>
7

>  <REMARK>
 VINA RESULT:      -9.2      3.252      5.579
  Name = 
  3 active torsions:
  status: ('A' for Active; 'I' for Inactive)
    1  A    between atoms: C_9  and  C_22
    2  A    between atoms: C_9  and  O_23
    3  A    between atoms: C_15  and  O_23
                            x       y       z     vdW  Elec       q    Type
                         _______ _______ _______ _____ _____    ______ ____

>  <TORSDO>
F 3

$$$$
=
 OpenBabel11052422353D

 31 35  0  0  1  0  0  0  0  0999 V2000
  160.8730  209.7290  155.0610 C   0  0  0  0  0  0  0  0  0  0  0  0
  160.9790  208.2870  151.5000 C   0  0  2  0  0  3  0  0  0  0  0  0
  161.3780  209.5090  150.6820 C   0  0  0  0  0  0  0  0  0  0  0  0
  161.2570  211.8670  150.3440 C   0  0  0  0  0  0  0  0  0  0  0  0
  161.0470  208.4200  153.0160 C   0  0  0  0  0  0  0  0  0  0  0  0
  161.0320  208.5710  155.8240 C   0  0  0  0  0  3  0  0  0  0  0  0
  161.0060  210.7560  151.0870 N   0  0  0  0  0  0  0  0  0  0  0  0
  161.1780  205.8130  151.7800 C   0  0  1  0  0  3  0  0  0  0  0  0
  160.7140  210.9270  155.6720 F   0  0  0  0  0  0  0  0  0  0  0  0
  162.3910  208.0120  148.8770 C   0  0  0  0  0  2  0  0  0  0  0  0
  160.8840  213.0850  150.8030 F   0  0  0  0  0  0  0  0  0  0  0  0
  161.3180  205.9970  153.1900 O   0  0  0  0  0  0  0  0  0  0  0  0
  161.7350  207.0280  151.0460 C   0  0  1  0  0  3  0  0  0  0  0  0
  160.8690  209.6510  153.6660 C   0  0  0  0  0  3  0  0  0  0  0  0
  161.8910  211.7520  149.1070 C   0  0  0  0  0  3  0  0  0  0  0  0
  161.1750  207.2500  153.7980 C   0  0  0  0  0  0  0  0  0  0  0  0
  161.1820  207.3340  155.1940 C   0  0  0  0  0  3  0  0  0  0  0  0
  161.6190  206.8760  149.5370 C   0  0  0  0  0  2  0  0  0  0  0  0
  161.9770  209.3550  149.4090 C   0  0  0  0  0  0  0  0  0  0  0  0
  162.2500  210.4890  148.6420 C   0  0  0  0  0  3  0  0  0  0  0  0
  161.8730  204.6370  151.3830 O   0  0  0  0  0  0  0  0  0  0  0  0
  160.7050  202.7960  152.1300 O   0  0  0  0  0  0  0  0  0  0  0  0
  161.2210  203.4200  151.1630 C   0  0  0  0  0  0  0  0  0  0  0  0
  160.9970  201.9320  147.1480 C   0  0  0  0  0  0  0  0  0  0  0  0
  161.2740  203.7600  148.7070 C   0  0  0  0  0  3  0  0  0  0  0  0
  160.7960  200.6120  150.5440 F   0  0  0  0  0  0  0  0  0  0  0  0
  160.9280  201.4760  145.8740 F   0  0  0  0  0  0  0  0  0  0  0  0
  161.2030  203.2910  147.3930 C   0  0  0  0  0  3  0  0  0  0  0  0
  160.9310  201.5060  149.5340 C   0  0  0  0  0  0  0  0  0  0  0  0
  161.1390  202.8780  149.7900 C   0  0  0  0  0  0  0  0  0  0  0  0
  160.8620  201.0420  148.2160 C   0  0  0  0  0  3  0  0  0  0  0  0
  1  9  1  0  0  0  0
  1  6  1  0  0  0  0
  2  3  1  6  0  0  0
  2  5  1  0  0  0  0
  3  7  1  0  0  0  0
  4 11  1  0  0  0  0
  4  7  2  0  0  0  0
  5 14  1  0  0  0  0
  5 16  2  0  0  0  0
  8 21  1  6  0  0  0
  8 12  1  0  0  0  0
 10 19  1  0  0  0  0
 10 18  1  0  0  0  0
 12 16  1  0  0  0  0
 13 18  1  6  0  0  0
 13  2  1  0  0  0  0
 13  8  1  0  0  0  0
 14  1  2  0  0  0  0
 15  4  1  0  0  0  0
 16 17  1  0  0  0  0
 17  6  2  0  0  0  0
 19  3  2  0  0  0  0
 20 15  2  0  0  0  0
 20 19  1  0  0  0  0
 23 21  1  0  0  0  0
 23 22  2  0  0  0  0
 24 28  2  0  0  0  0
 24 31  1  0  0  0  0
 25 30  2  0  0  0  0
 27 24  1  0  0  0  0
 28 25  1  0  0  0  0
 29 30  1  0  0  0  0
 29 26  1  0  0  0  0
 30 23  1  0  0  0  0
 31 29  2  0  0  0  0
M  END
>  <MODEL>
8

>  <REMARK>
 VINA RESULT:      -9.1      3.063      7.548
  Name = 
  3 active torsions:
  status: ('A' for Active; 'I' for Inactive)
    1  A    between atoms: C_9  and  C_22
    2  A    between atoms: C_9  and  O_23
    3  A    between atoms: C_15  and  O_23
                            x       y       z     vdW  Elec       q    Type
                         _______ _______ _______ _____ _____    ______ ____

>  <TORSDO>
F 3

$$$$
=
 OpenBabel11052422353D

 31 35  0  0  1  0  0  0  0  0999 V2000
  161.0710  212.4160  150.2270 C   0  0  0  0  0  0  0  0  0  0  0  0
  162.0890  208.8640  151.2830 C   0  0  2  0  0  3  0  0  0  0  0  0
  161.4360  208.7490  152.6560 C   0  0  0  0  0  0  0  0  0  0  0  0
  160.7870  209.7930  154.7000 C   0  0  0  0  0  0  0  0  0  0  0  0
  161.7170  210.0790  150.4440 C   0  0  0  0  0  0  0  0  0  0  0  0
  161.1940  212.3300  148.8400 C   0  0  0  0  0  3  0  0  0  0  0  0
  161.2760  209.8580  153.4330 N   0  0  0  0  0  0  0  0  0  0  0  0
  162.7160  207.6870  149.1720 C   0  0  1  0  0  3  0  0  0  0  0  0
  160.6950  213.5830  150.8030 F   0  0  0  0  0  0  0  0  0  0  0  0
  161.3350  206.2070  152.4330 C   0  0  0  0  0  2  0  0  0  0  0  0
  160.6280  210.9270  155.4220 F   0  0  0  0  0  0  0  0  0  0  0  0
  162.2800  208.8230  148.4240 O   0  0  0  0  0  0  0  0  0  0  0  0
  161.9070  207.5780  150.4600 C   0  0  1  0  0  3  0  0  0  0  0  0
  161.3420  211.3010  151.0240 C   0  0  0  0  0  3  0  0  0  0  0  0
  160.4560  208.5590  155.2600 C   0  0  0  0  0  3  0  0  0  0  0  0
  161.8710  210.0120  149.0410 C   0  0  0  0  0  0  0  0  0  0  0  0
  161.5950  211.1300  148.2480 C   0  0  0  0  0  3  0  0  0  0  0  0
  162.3270  206.3750  151.2890 C   0  0  0  0  0  2  0  0  0  0  0  0
  161.1580  207.4790  153.2140 C   0  0  0  0  0  0  0  0  0  0  0  0
  160.6450  207.4000  154.5090 C   0  0  0  0  0  3  0  0  0  0  0  0
  162.5530  206.5110  148.3880 O   0  0  0  0  0  0  0  0  0  0  0  0
  160.2880  206.6020  147.9710 O   0  0  0  0  0  0  0  0  0  0  0  0
  161.3090  205.8990  148.2060 C   0  0  0  0  0  0  0  0  0  0  0  0
  160.9860  201.6350  148.5240 C   0  0  0  0  0  0  0  0  0  0  0  0
  160.8600  203.8390  149.5110 C   0  0  0  0  0  3  0  0  0  0  0  0
  161.7770  204.1110  145.9620 F   0  0  0  0  0  0  0  0  0  0  0  0
  160.8810  200.2900  148.6390 F   0  0  0  0  0  0  0  0  0  0  0  0
  160.7510  202.4520  149.6310 C   0  0  0  0  0  3  0  0  0  0  0  0
  161.4410  203.5950  147.1700 C   0  0  0  0  0  0  0  0  0  0  0  0
  161.2060  204.4270  148.2850 C   0  0  0  0  0  0  0  0  0  0  0  0
  161.3300  202.2060  147.2960 C   0  0  0  0  0  3  0  0  0  0  0  0
  1  9  1  0  0  0  0
  1 14  1  0  0  0  0
  2  5  1  6  0  0  0
  2  3  1  0  0  0  0
  3 19  2  0  0  0  0
  3  7  1  0  0  0  0
  4 15  1  0  0  0  0
  4 11  1  0  0  0  0
  5 14  2  0  0  0  0
  6  1  2  0  0  0  0
  7  4  2  0  0  0  0
  8 21  1  6  0  0  0
  8 13  1  0  0  0  0
 10 19  1  0  0  0  0
 12 16  1  0  0  0  0
 12  8  1  0  0  0  0
 13  2  1  0  0  0  0
 13 18  1  1  0  0  0
 16  5  1  0  0  0  0
 17  6  1  0  0  0  0
 17 16  2  0  0  0  0
 18 10  1  0  0  0  0
 19 20  1  0  0  0  0
 20 15  2  0  0  0  0
 22 23  2  0  0  0  0
 23 30  1  0  0  0  0
 23 21  1  0  0  0  0
 24 27  1  0  0  0  0
 24 28  1  0  0  0  0
 25 28  2  0  0  0  0
 26 29  1  0  0  0  0
 29 31  1  0  0  0  0
 29 30  2  0  0  0  0
 30 25  1  0  0  0  0
 31 24  2  0  0  0  0
M  END
>  <MODEL>
9

>  <REMARK>
 VINA RESULT:      -9.0      2.368      7.178
  Name = 
  3 active torsions:
  status: ('A' for Active; 'I' for Inactive)
    1  A    between atoms: C_9  and  C_22
    2  A    between atoms: C_9  and  O_23
    3  A    between atoms: C_15  and  O_23
                            x       y       z     vdW  Elec       q    Type
                         _______ _______ _______ _____ _____    ______ ____

>  <TORSDO>
F 3

$$$$
