=
 OpenBabel11062407533D

 34 40  0  0  1  0  0  0  0  0999 V2000
  161.6910  210.6780  148.9640 C   0  0  0  0  0  0  0  0  0  0  0  0
  161.1790  212.5560  150.4150 C   0  0  0  0  0  3  0  0  0  0  0  0
  161.3580  210.2920  151.3620 C   0  0  0  0  0  0  0  0  0  0  0  0
  161.3050  209.7740  153.8860 C   0  0  1  0  0  3  0  0  0  0  0  0
  161.4890  212.9070  148.0410 C   0  0  0  0  0  3  0  0  0  0  0  0
  161.2200  213.4140  149.3130 C   0  0  0  0  0  3  0  0  0  0  0  0
  159.6660  211.2080  153.0090 C   0  0  0  0  0  0  0  0  0  0  0  0
  161.4010  211.1780  150.2580 C   0  0  0  0  0  0  0  0  0  0  0  0
  160.3300  210.1870  154.9930 C   0  0  0  0  0  2  0  0  0  0  0  0
  161.7270  211.5420  147.8670 C   0  0  0  0  0  3  0  0  0  0  0  0
  161.6510  208.9240  151.1600 C   0  0  0  0  0  0  0  0  0  0  0  0
  161.9690  209.3250  148.7840 C   0  0  0  0  0  3  0  0  0  0  0  0
  158.9180  211.7780  152.1700 O   0  0  0  0  0  0  0  0  0  0  0  0
  160.9130  208.4370  153.4420 N   0  0  0  0  0  2  0  0  0  0  0  0
  161.7850  208.0060  152.3560 C   0  0  1  0  0  3  0  0  0  0  0  0
  159.2480  210.8910  154.3220 N   0  0  0  0  0  0  0  0  0  0  0  0
  161.0750  210.8090  152.7620 C   0  0  2  0  0  3  0  0  0  0  0  0
  161.9670  208.4610  149.8740 C   0  0  0  0  0  3  0  0  0  0  0  0
  157.0870  211.8050  154.1930 O   0  0  0  0  0  0  0  0  0  0  0  0
  155.2560  210.6590  155.8850 O   0  0  0  0  0  1  0  0  0  0  0  0
  157.3640  211.8270  155.5710 C   0  0  1  0  0  0  0  0  0  0  0  0
  156.1010  211.6310  156.4280 C   0  0  1  0  0  3  0  0  0  0  0  0
  157.8490  210.7230  154.6960 C   0  0  2  0  0  3  0  0  0  0  0  0
  156.2370  213.7360  157.2540 C   0  0  0  0  0  2  0  0  0  0  0  0
  157.3800  214.2080  156.3490 C   0  0  0  0  0  2  0  0  0  0  0  0
  158.2480  213.0190  155.9380 C   0  0  0  0  0  2  0  0  0  0  0  0
  155.4040  212.8480  156.5460 O   0  0  0  0  0  0  0  0  0  0  0  0
  161.2430  204.7700  150.4210 C   0  0  0  0  0  0  0  0  0  0  0  0
  160.9970  203.8720  151.4630 C   0  0  0  0  0  3  0  0  0  0  0  0
  161.5050  206.5670  152.0310 C   0  0  0  0  0  0  0  0  0  0  0  0
  161.0050  204.3190  152.7880 C   0  0  0  0  0  3  0  0  0  0  0  0
  161.4980  206.1150  150.7020 C   0  0  0  0  0  3  0  0  0  0  0  0
  161.2590  205.6640  153.0720 C   0  0  0  0  0  3  0  0  0  0  0  0
  161.2350  204.2110  148.7630 Cl  0  0  0  0  0  0  0  0  0  0  0  0
  1  8  1  0  0  0  0
  4  9  1  1  0  0  0
  5  6  1  0  0  0  0
  6  2  2  0  0  0  0
  7 16  1  0  0  0  0
  8  2  1  0  0  0  0
  8  3  2  0  0  0  0
 10  5  2  0  0  0  0
 10  1  1  0  0  0  0
 11  3  1  0  0  0  0
 11 15  1  0  0  0  0
 12  1  2  0  0  0  0
 12 18  1  0  0  0  0
 13  7  2  0  0  0  0
 14  4  1  0  0  0  0
 15 30  1  6  0  0  0
 15 14  1  0  0  0  0
 16  9  1  0  0  0  0
 17  3  1  6  0  0  0
 17  7  1  0  0  0  0
 17  4  1  0  0  0  0
 18 11  2  0  0  0  0
 19 23  1  0  0  0  0
 19 21  1  0  0  0  0
 21 26  1  1  0  0  0
 21 22  1  0  0  0  0
 22 20  1  6  0  0  0
 22 27  1  0  0  0  0
 23 16  1  6  0  0  0
 23 21  1  0  0  0  0
 25 24  1  0  0  0  0
 26 25  1  0  0  0  0
 27 24  1  0  0  0  0
 28 32  2  0  0  0  0
 28 29  1  0  0  0  0
 29 31  2  0  0  0  0
 30 33  2  0  0  0  0
 31 33  1  0  0  0  0
 32 30  1  0  0  0  0
 34 28  1  0  0  0  0
M  END
>  <MODEL>
1

>  <REMARK>
 VINA RESULT:      -8.2      0.000      0.000
  Name = 
  2 active torsions:
  status: ('A' for Active; 'I' for Inactive)
    1  A    between atoms: C_12  and  C_28
    2  A    between atoms: C_17  and  N_29
                            x       y       z     vdW  Elec       q    Type
                         _______ _______ _______ _____ _____    ______ ____

>  <TORSDO>
F 2

$$$$
=
 OpenBabel11062407533D

 34 40  0  0  1  0  0  0  0  0999 V2000
  161.2230  205.8300  150.0190 C   0  0  0  0  0  0  0  0  0  0  0  0
  162.1870  206.7760  148.0010 C   0  0  0  0  0  3  0  0  0  0  0  0
  161.8380  208.2030  149.9740 C   0  0  0  0  0  0  0  0  0  0  0  0
  162.6820  210.6300  150.1690 C   0  0  1  0  0  3  0  0  0  0  0  0
  161.5500  204.4420  148.0620 C   0  0  0  0  0  3  0  0  0  0  0  0
  162.0850  205.5310  147.3740 C   0  0  0  0  0  3  0  0  0  0  0  0
  161.5490  209.9980  148.2120 C   0  0  0  0  0  0  0  0  0  0  0  0
  161.7480  206.9480  149.3240 C   0  0  0  0  0  0  0  0  0  0  0  0
  162.5380  211.8390  149.2380 C   0  0  0  0  0  2  0  0  0  0  0  0
  161.1220  204.5900  149.3830 C   0  0  0  0  0  3  0  0  0  0  0  0
  161.4430  208.3080  151.3270 C   0  0  0  0  0  0  0  0  0  0  0  0
  160.8310  205.9550  151.3490 C   0  0  0  0  0  3  0  0  0  0  0  0
  160.8090  209.3400  147.4330 O   0  0  0  0  0  0  0  0  0  0  0  0
  161.6400  210.7430  151.1880 N   0  0  0  0  0  2  0  0  0  0  0  0
  161.7020  209.5930  152.0830 C   0  0  1  0  0  3  0  0  0  0  0  0
  161.6530  211.4080  148.1670 N   0  0  0  0  0  0  0  0  0  0  0  0
  162.4220  209.4090  149.2590 C   0  0  2  0  0  3  0  0  0  0  0  0
  160.9560  207.1780  152.0020 C   0  0  0  0  0  3  0  0  0  0  0  0
  160.2770  211.8210  146.3070 O   0  0  0  0  0  0  0  0  0  0  0  0
  159.0100  214.2550  146.3390 O   0  0  0  0  0  1  0  0  0  0  0  0
  161.0770  212.9750  146.3790 C   0  0  1  0  0  0  0  0  0  0  0  0
  160.3350  214.2340  145.8960 C   0  0  1  0  0  3  0  0  0  0  0  0
  160.6170  212.2670  147.6070 C   0  0  2  0  0  3  0  0  0  0  0  0
  161.7090  214.4530  144.1080 C   0  0  0  0  0  2  0  0  0  0  0  0
  162.4550  213.1280  144.2940 C   0  0  0  0  0  2  0  0  0  0  0  0
  162.4560  212.7300  145.7700 C   0  0  0  0  0  2  0  0  0  0  0  0
  160.3630  214.3000  144.4900 O   0  0  0  0  0  0  0  0  0  0  0  0
  160.0610  209.3410  155.5100 C   0  0  0  0  0  0  0  0  0  0  0  0
  158.9960  210.2360  155.3650 C   0  0  0  0  0  3  0  0  0  0  0  0
  160.7610  209.8040  153.2330 C   0  0  0  0  0  0  0  0  0  0  0  0
  158.8140  210.9150  154.1560 C   0  0  0  0  0  3  0  0  0  0  0  0
  160.9430  209.1260  154.4480 C   0  0  0  0  0  3  0  0  0  0  0  0
  159.6950  210.7000  153.0920 C   0  0  0  0  0  3  0  0  0  0  0  0
  160.2900  208.4940  157.0230 Cl  0  0  0  0  0  0  0  0  0  0  0  0
  1 12  1  0  0  0  0
  2  8  1  0  0  0  0
  3 11  2  0  0  0  0
  4  9  1  6  0  0  0
  4 14  1  0  0  0  0
  5 10  2  0  0  0  0
  6  2  2  0  0  0  0
  6  5  1  0  0  0  0
  8  3  1  0  0  0  0
  8  1  2  0  0  0  0
 10  1  1  0  0  0  0
 11 18  1  0  0  0  0
 11 15  1  0  0  0  0
 12 18  2  0  0  0  0
 13  7  2  0  0  0  0
 14 15  1  0  0  0  0
 15 30  1  1  0  0  0
 16  7  1  0  0  0  0
 16  9  1  0  0  0  0
 17  7  1  6  0  0  0
 17  3  1  0  0  0  0
 17  4  1  0  0  0  0
 19 21  1  0  0  0  0
 19 23  1  0  0  0  0
 21 26  1  6  0  0  0
 21 23  1  0  0  0  0
 22 20  1  6  0  0  0
 22 21  1  0  0  0  0
 23 16  1  6  0  0  0
 24 25  1  0  0  0  0
 24 27  1  0  0  0  0
 25 26  1  0  0  0  0
 27 22  1  0  0  0  0
 28 34  1  0  0  0  0
 29 28  1  0  0  0  0
 30 32  1  0  0  0  0
 31 29  2  0  0  0  0
 32 28  2  0  0  0  0
 33 30  2  0  0  0  0
 33 31  1  0  0  0  0
M  END
>  <MODEL>
2

>  <REMARK>
 VINA RESULT:      -7.1      3.975      7.595
  Name = 
  2 active torsions:
  status: ('A' for Active; 'I' for Inactive)
    1  A    between atoms: C_12  and  C_28
    2  A    between atoms: C_17  and  N_29
                            x       y       z     vdW  Elec       q    Type
                         _______ _______ _______ _____ _____    ______ ____

>  <TORSDO>
F 2

$$$$
=
 OpenBabel11062407533D

 34 40  0  0  1  0  0  0  0  0999 V2000
  161.0530  204.5270  150.1910 C   0  0  0  0  0  0  0  0  0  0  0  0
  162.0310  205.6690  148.2850 C   0  0  0  0  0  3  0  0  0  0  0  0
  161.8590  206.8270  150.4480 C   0  0  0  0  0  0  0  0  0  0  0  0
  162.9050  209.1310  150.9410 C   0  0  1  0  0  3  0  0  0  0  0  0
  161.2060  203.4060  148.0500 C   0  0  0  0  0  3  0  0  0  0  0  0
  161.8090  204.5370  147.4970 C   0  0  0  0  0  3  0  0  0  0  0  0
  161.6680  208.8690  148.9630 C   0  0  0  0  0  0  0  0  0  0  0  0
  161.6480  205.6870  149.6360 C   0  0  0  0  0  0  0  0  0  0  0  0
  162.8340  210.4660  150.1920 C   0  0  0  0  0  2  0  0  0  0  0  0
  160.8310  203.4000  149.3950 C   0  0  0  0  0  3  0  0  0  0  0  0
  161.5140  206.7720  151.8180 C   0  0  0  0  0  0  0  0  0  0  0  0
  160.7110  204.4940  151.5400 C   0  0  0  0  0  3  0  0  0  0  0  0
  160.8530  208.3860  148.1320 O   0  0  0  0  0  0  0  0  0  0  0  0
  161.9070  209.1800  152.0070 N   0  0  0  0  0  2  0  0  0  0  0  0
  161.9000  207.9150  152.7320 C   0  0  1  0  0  3  0  0  0  0  0  0
  161.8860  210.2590  149.1080 N   0  0  0  0  0  0  0  0  0  0  0  0
  162.5190  208.0730  149.8820 C   0  0  2  0  0  3  0  0  0  0  0  0
  160.9560  205.5990  152.3490 C   0  0  0  0  0  3  0  0  0  0  0  0
  160.7660  211.2700  147.3060 O   0  0  0  0  0  0  0  0  0  0  0  0
  159.4250  213.5770  147.9400 O   0  0  0  0  0  1  0  0  0  0  0  0
  161.5090  212.3280  147.8580 C   0  0  1  0  0  0  0  0  0  0  0  0
  160.7990  213.6850  147.7060 C   0  0  1  0  0  3  0  0  0  0  0  0
  160.9090  211.2670  148.7140 C   0  0  2  0  0  3  0  0  0  0  0  0
  162.3980  214.4530  146.2970 C   0  0  0  0  0  2  0  0  0  0  0  0
  163.1550  213.1300  146.1500 C   0  0  0  0  0  2  0  0  0  0  0  0
  162.9670  212.2760  147.4030 C   0  0  0  0  0  2  0  0  0  0  0  0
  161.0170  214.2010  146.4150 O   0  0  0  0  0  0  0  0  0  0  0  0
  159.5320  209.3270  155.3590 C   0  0  0  0  0  0  0  0  0  0  0  0
  159.3510  208.2130  156.1840 C   0  0  0  0  0  3  0  0  0  0  0  0
  161.0140  208.0340  153.9370 C   0  0  0  0  0  0  0  0  0  0  0  0
  159.9990  207.0110  155.8870 C   0  0  0  0  0  3  0  0  0  0  0  0
  160.3610  209.2390  154.2370 C   0  0  0  0  0  3  0  0  0  0  0  0
  160.8280  206.9200  154.7650 C   0  0  0  0  0  3  0  0  0  0  0  0
  158.7200  210.8320  155.7300 Cl  0  0  0  0  0  0  0  0  0  0  0  0
  1 12  1  0  0  0  0
  2  8  1  0  0  0  0
  3 11  2  0  0  0  0
  4  9  1  6  0  0  0
  4 14  1  0  0  0  0
  5 10  2  0  0  0  0
  6  5  1  0  0  0  0
  6  2  2  0  0  0  0
  7 16  1  0  0  0  0
  8  1  2  0  0  0  0
  8  3  1  0  0  0  0
 10  1  1  0  0  0  0
 11 18  1  0  0  0  0
 11 15  1  0  0  0  0
 12 18  2  0  0  0  0
 13  7  2  0  0  0  0
 14 15  1  0  0  0  0
 15 30  1  1  0  0  0
 16  9  1  0  0  0  0
 17  7  1  6  0  0  0
 17  3  1  0  0  0  0
 17  4  1  0  0  0  0
 19 21  1  0  0  0  0
 19 23  1  0  0  0  0
 21 26  1  6  0  0  0
 21 23  1  0  0  0  0
 22 21  1  0  0  0  0
 22 20  1  6  0  0  0
 23 16  1  6  0  0  0
 24 27  1  0  0  0  0
 25 24  1  0  0  0  0
 25 26  1  0  0  0  0
 27 22  1  0  0  0  0
 28 34  1  0  0  0  0
 28 29  1  0  0  0  0
 30 32  1  0  0  0  0
 30 33  2  0  0  0  0
 31 29  2  0  0  0  0
 32 28  2  0  0  0  0
 33 31  1  0  0  0  0
M  END
>  <MODEL>
3

>  <REMARK>
 VINA RESULT:      -7.0      3.894      7.138
  Name = 
  2 active torsions:
  status: ('A' for Active; 'I' for Inactive)
    1  A    between atoms: C_12  and  C_28
    2  A    between atoms: C_17  and  N_29
                            x       y       z     vdW  Elec       q    Type
                         _______ _______ _______ _____ _____    ______ ____

>  <TORSDO>
F 2

$$$$
=
 OpenBabel11062407533D

 34 40  0  0  1  0  0  0  0  0999 V2000
  160.4730  208.9190  154.1690 C   0  0  0  0  0  0  0  0  0  0  0  0
  161.3920  206.8170  153.3740 C   0  0  0  0  0  3  0  0  0  0  0  0
  161.4630  208.8080  151.9290 C   0  0  0  0  0  0  0  0  0  0  0  0
  162.7080  208.9140  149.6760 C   0  0  1  0  0  3  0  0  0  0  0  0
  160.3880  206.9470  155.5720 C   0  0  0  0  0  3  0  0  0  0  0  0
  161.0300  206.2070  154.5770 C   0  0  0  0  0  3  0  0  0  0  0  0
  161.3140  207.0710  150.0930 C   0  0  0  0  0  0  0  0  0  0  0  0
  161.1090  208.1740  153.1450 C   0  0  0  0  0  0  0  0  0  0  0  0
  162.6810  207.9950  148.4490 C   0  0  0  0  0  2  0  0  0  0  0  0
  160.1120  208.3010  155.3700 C   0  0  0  0  0  3  0  0  0  0  0  0
  161.2140  210.1910  151.7750 C   0  0  0  0  0  0  0  0  0  0  0  0
  160.2280  210.2790  153.9960 C   0  0  0  0  0  3  0  0  0  0  0  0
  160.4080  206.3660  150.6120 O   0  0  0  0  0  0  0  0  0  0  0  0
  161.7960  210.0230  149.4040 N   0  0  0  0  0  2  0  0  0  0  0  0
  161.7490  210.9140  150.5580 C   0  0  1  0  0  3  0  0  0  0  0  0
  161.6440  207.0110  148.7190 N   0  0  0  0  0  0  0  0  0  0  0  0
  162.1690  208.0360  150.8280 C   0  0  2  0  0  3  0  0  0  0  0  0
  160.6120  210.9120  152.8170 C   0  0  0  0  0  3  0  0  0  0  0  0
  160.7070  205.1280  147.6680 O   0  0  0  0  0  0  0  0  0  0  0  0
  159.3340  205.6720  145.3560 O   0  0  0  0  0  1  0  0  0  0  0  0
  161.4040  205.7640  146.6270 C   0  0  1  0  0  0  0  0  0  0  0  0
  160.7250  205.5690  145.2600 C   0  0  1  0  0  3  0  0  0  0  0  0
  160.7170  206.5440  147.6950 C   0  0  2  0  0  3  0  0  0  0  0  0
  162.4560  204.3280  144.4870 C   0  0  0  0  0  2  0  0  0  0  0  0
  163.2120  204.2310  145.8170 C   0  0  0  0  0  2  0  0  0  0  0  0
  162.8980  205.4480  146.6880 C   0  0  0  0  0  2  0  0  0  0  0  0
  161.0680  204.3120  144.7260 O   0  0  0  0  0  0  0  0  0  0  0  0
  159.2840  213.8110  150.7480 C   0  0  0  0  0  0  0  0  0  0  0  0
  159.5300  214.4530  149.5310 C   0  0  0  0  0  3  0  0  0  0  0  0
  160.9630  212.1440  150.2080 C   0  0  0  0  0  0  0  0  0  0  0  0
  160.4910  213.9440  148.6530 C   0  0  0  0  0  3  0  0  0  0  0  0
  159.9990  212.6590  151.0880 C   0  0  0  0  0  3  0  0  0  0  0  0
  161.2080  212.7910  148.9910 C   0  0  0  0  0  3  0  0  0  0  0  0
  158.0820  214.4500  151.8470 Cl  0  0  0  0  0  0  0  0  0  0  0  0
  1 10  2  0  0  0  0
  2  6  1  0  0  0  0
  3  8  1  0  0  0  0
  4  9  1  6  0  0  0
  4 17  1  0  0  0  0
  6  5  2  0  0  0  0
  7 13  2  0  0  0  0
  8  2  2  0  0  0  0
  8  1  1  0  0  0  0
  9 16  1  0  0  0  0
 10  5  1  0  0  0  0
 11  3  2  0  0  0  0
 11 18  1  0  0  0  0
 12  1  1  0  0  0  0
 14  4  1  0  0  0  0
 14 15  1  0  0  0  0
 15 30  1  6  0  0  0
 15 11  1  0  0  0  0
 16  7  1  0  0  0  0
 17  7  1  6  0  0  0
 17  3  1  0  0  0  0
 18 12  2  0  0  0  0
 19 23  1  0  0  0  0
 21 26  1  1  0  0  0
 21 19  1  0  0  0  0
 21 23  1  0  0  0  0
 22 20  1  1  0  0  0
 22 21  1  0  0  0  0
 23 16  1  1  0  0  0
 24 27  1  0  0  0  0
 24 25  1  0  0  0  0
 25 26  1  0  0  0  0
 27 22  1  0  0  0  0
 28 32  1  0  0  0  0
 28 34  1  0  0  0  0
 29 28  2  0  0  0  0
 30 32  2  0  0  0  0
 31 33  2  0  0  0  0
 31 29  1  0  0  0  0
 33 30  1  0  0  0  0
M  END
>  <MODEL>
4

>  <REMARK>
 VINA RESULT:      -7.0      4.347      9.059
  Name = 
  2 active torsions:
  status: ('A' for Active; 'I' for Inactive)
    1  A    between atoms: C_12  and  C_28
    2  A    between atoms: C_17  and  N_29
                            x       y       z     vdW  Elec       q    Type
                         _______ _______ _______ _____ _____    ______ ____

>  <TORSDO>
F 2

$$$$
=
 OpenBabel11062407533D

 34 40  0  0  1  0  0  0  0  0999 V2000
  159.5180  212.2450  152.9590 C   0  0  0  0  0  0  0  0  0  0  0  0
  160.6260  210.2300  153.7390 C   0  0  0  0  0  3  0  0  0  0  0  0
  161.0270  211.0390  151.4500 C   0  0  0  0  0  0  0  0  0  0  0  0
  162.7850  210.0400  149.8530 C   0  0  1  0  0  3  0  0  0  0  0  0
  159.1120  211.4260  155.2010 C   0  0  0  0  0  3  0  0  0  0  0  0
  159.9860  210.3620  154.9750 C   0  0  0  0  0  3  0  0  0  0  0  0
  161.3520  208.5690  150.9920 C   0  0  0  0  0  0  0  0  0  0  0  0
  160.3930  211.1580  152.7110 C   0  0  0  0  0  0  0  0  0  0  0  0
  163.0690  208.5970  149.4200 C   0  0  0  0  0  2  0  0  0  0  0  0
  158.8800  212.3670  154.1970 C   0  0  0  0  0  3  0  0  0  0  0  0
  160.8090  212.0350  150.4720 C   0  0  0  0  0  0  0  0  0  0  0  0
  159.3080  213.2120  151.9790 C   0  0  0  0  0  3  0  0  0  0  0  0
  160.3540  208.1540  151.6390 O   0  0  0  0  0  0  0  0  0  0  0  0
  161.9550  210.6460  148.8140 N   0  0  0  0  0  2  0  0  0  0  0  0
  161.6180  212.0140  149.1920 C   0  0  1  0  0  3  0  0  0  0  0  0
  162.0090  207.7940  150.0090 N   0  0  0  0  0  0  0  0  0  0  0  0
  161.9900  209.8980  151.1710 C   0  0  2  0  0  3  0  0  0  0  0  0
  159.9620  213.1170  150.7540 C   0  0  0  0  0  3  0  0  0  0  0  0
  160.2280  206.2600  150.0180 O   0  0  0  0  0  0  0  0  0  0  0  0
  160.4550  204.2300  148.1860 O   0  0  0  0  0  1  0  0  0  0  0  0
  161.3630  205.4350  150.0920 C   0  0  1  0  0  0  0  0  0  0  0  0
  161.1540  204.0830  149.3870 C   0  0  1  0  0  3  0  0  0  0  0  0
  161.3660  206.6950  149.2970 C   0  0  2  0  0  3  0  0  0  0  0  0
  161.2810  202.9530  151.3460 C   0  0  0  0  0  2  0  0  0  0  0  0
  161.3060  204.1820  152.2600 C   0  0  0  0  0  2  0  0  0  0  0  0
  161.9100  205.3750  151.5180 C   0  0  0  0  0  2  0  0  0  0  0  0
  160.4550  203.2020  150.2330 O   0  0  0  0  0  0  0  0  0  0  0  0
  159.0130  212.9570  146.5790 C   0  0  0  0  0  0  0  0  0  0  0  0
  159.6650  213.9990  145.9140 C   0  0  0  0  0  3  0  0  0  0  0  0
  160.9280  212.6940  148.0450 C   0  0  0  0  0  0  0  0  0  0  0  0
  160.9470  214.3900  146.3130 C   0  0  0  0  0  3  0  0  0  0  0  0
  159.6420  212.3050  147.6430 C   0  0  0  0  0  3  0  0  0  0  0  0
  161.5770  213.7390  147.3780 C   0  0  0  0  0  3  0  0  0  0  0  0
  157.4090  212.4690  146.0800 Cl  0  0  0  0  0  0  0  0  0  0  0  0
  1 10  2  0  0  0  0
  2  6  1  0  0  0  0
  3  8  1  0  0  0  0
  4  9  1  6  0  0  0
  4 17  1  0  0  0  0
  6  5  2  0  0  0  0
  7 13  2  0  0  0  0
  8  1  1  0  0  0  0
  8  2  2  0  0  0  0
  9 16  1  0  0  0  0
 10  5  1  0  0  0  0
 11 18  1  0  0  0  0
 11  3  2  0  0  0  0
 12  1  1  0  0  0  0
 14 15  1  0  0  0  0
 14  4  1  0  0  0  0
 15 30  1  6  0  0  0
 15 11  1  0  0  0  0
 16  7  1  0  0  0  0
 17  7  1  6  0  0  0
 17  3  1  0  0  0  0
 18 12  2  0  0  0  0
 19 21  1  0  0  0  0
 21 26  1  1  0  0  0
 22 20  1  6  0  0  0
 22 21  1  0  0  0  0
 22 27  1  0  0  0  0
 23 16  1  1  0  0  0
 23 19  1  0  0  0  0
 23 21  1  0  0  0  0
 24 25  1  0  0  0  0
 26 25  1  0  0  0  0
 27 24  1  0  0  0  0
 28 32  1  0  0  0  0
 29 31  1  0  0  0  0
 29 28  2  0  0  0  0
 31 33  2  0  0  0  0
 32 30  2  0  0  0  0
 33 30  1  0  0  0  0
 34 28  1  0  0  0  0
M  END
>  <MODEL>
5

>  <REMARK>
 VINA RESULT:      -5.7      3.414      7.915
  Name = 
  2 active torsions:
  status: ('A' for Active; 'I' for Inactive)
    1  A    between atoms: C_12  and  C_28
    2  A    between atoms: C_17  and  N_29
                            x       y       z     vdW  Elec       q    Type
                         _______ _______ _______ _____ _____    ______ ____

>  <TORSDO>
F 2

$$$$
=
 OpenBabel11062407533D

 34 40  0  0  1  0  0  0  0  0999 V2000
  160.7100  208.5970  153.3940 C   0  0  0  0  0  0  0  0  0  0  0  0
  161.6240  206.5380  152.4890 C   0  0  0  0  0  3  0  0  0  0  0  0
  161.7200  208.6070  151.1600 C   0  0  0  0  0  0  0  0  0  0  0  0
  162.9860  208.8330  148.9280 C   0  0  1  0  0  3  0  0  0  0  0  0
  160.6000  206.5490  154.6810 C   0  0  0  0  0  3  0  0  0  0  0  0
  161.2480  205.8640  153.6530 C   0  0  0  0  0  3  0  0  0  0  0  0
  161.5790  206.9780  149.2270 C   0  0  0  0  0  0  0  0  0  0  0  0
  161.3520  207.9080  152.3350 C   0  0  0  0  0  0  0  0  0  0  0  0
  162.9660  207.9850  147.6510 C   0  0  0  0  0  2  0  0  0  0  0  0
  160.3340  207.9140  154.5540 C   0  0  0  0  0  3  0  0  0  0  0  0
  161.4800  209.9980  151.0820 C   0  0  0  0  0  0  0  0  0  0  0  0
  160.4740  209.9660  153.2950 C   0  0  0  0  0  3  0  0  0  0  0  0
  160.6640  206.2500  149.6970 O   0  0  0  0  0  0  0  0  0  0  0  0
  162.0830  209.9610  148.7110 N   0  0  0  0  0  2  0  0  0  0  0  0
  162.0300  210.7860  149.9130 C   0  0  1  0  0  3  0  0  0  0  0  0
  161.9220  206.9940  147.8550 N   0  0  0  0  0  0  0  0  0  0  0  0
  162.4320  207.8950  150.0240 C   0  0  2  0  0  3  0  0  0  0  0  0
  160.8720  210.6630  152.1580 C   0  0  0  0  0  3  0  0  0  0  0  0
  160.0870  205.6330  147.2990 O   0  0  0  0  0  0  0  0  0  0  0  0
  159.5850  205.4310  144.6090 O   0  0  0  0  0  1  0  0  0  0  0  0
  161.1150  205.1410  146.4760 C   0  0  1  0  0  0  0  0  0  0  0  0
  160.5860  204.6080  145.1320 C   0  0  1  0  0  3  0  0  0  0  0  0
  161.0020  206.5910  146.7970 C   0  0  2  0  0  3  0  0  0  0  0  0
  161.1730  202.4830  145.6530 C   0  0  0  0  0  2  0  0  0  0  0  0
  161.5750  202.7600  147.1050 C   0  0  0  0  0  2  0  0  0  0  0  0
  162.0440  204.2080  147.2520 C   0  0  0  0  0  2  0  0  0  0  0  0
  160.0860  203.3030  145.2940 O   0  0  0  0  0  0  0  0  0  0  0  0
  160.4460  213.7230  148.0770 C   0  0  0  0  0  0  0  0  0  0  0  0
  159.7820  214.3680  149.1250 C   0  0  0  0  0  3  0  0  0  0  0  0
  161.2540  212.0390  149.6260 C   0  0  0  0  0  0  0  0  0  0  0  0
  159.8520  213.8490  150.4210 C   0  0  0  0  0  3  0  0  0  0  0  0
  161.1800  212.5600  148.3260 C   0  0  0  0  0  3  0  0  0  0  0  0
  160.5860  212.6860  150.6720 C   0  0  0  0  0  3  0  0  0  0  0  0
  160.3570  214.3710  146.4550 Cl  0  0  0  0  0  0  0  0  0  0  0  0
  1 10  2  0  0  0  0
  2  6  1  0  0  0  0
  3  8  1  0  0  0  0
  4  9  1  6  0  0  0
  4 17  1  0  0  0  0
  6  5  2  0  0  0  0
  7 13  2  0  0  0  0
  8  2  2  0  0  0  0
  8  1  1  0  0  0  0
  9 16  1  0  0  0  0
 10  5  1  0  0  0  0
 11  3  2  0  0  0  0
 11 18  1  0  0  0  0
 12  1  1  0  0  0  0
 14  4  1  0  0  0  0
 14 15  1  0  0  0  0
 15 30  1  6  0  0  0
 15 11  1  0  0  0  0
 16  7  1  0  0  0  0
 17  7  1  6  0  0  0
 17  3  1  0  0  0  0
 18 12  2  0  0  0  0
 21 23  1  0  0  0  0
 21 26  1  1  0  0  0
 21 19  1  0  0  0  0
 22 20  1  1  0  0  0
 22 27  1  0  0  0  0
 22 21  1  0  0  0  0
 23 19  1  0  0  0  0
 23 16  1  1  0  0  0
 24 25  1  0  0  0  0
 25 26  1  0  0  0  0
 27 24  1  0  0  0  0
 28 32  2  0  0  0  0
 28 29  1  0  0  0  0
 29 31  2  0  0  0  0
 30 33  2  0  0  0  0
 31 33  1  0  0  0  0
 32 30  1  0  0  0  0
 34 28  1  0  0  0  0
M  END
>  <MODEL>
6

>  <REMARK>
 VINA RESULT:      -5.7      4.493      9.080
  Name = 
  2 active torsions:
  status: ('A' for Active; 'I' for Inactive)
    1  A    between atoms: C_12  and  C_28
    2  A    between atoms: C_17  and  N_29
                            x       y       z     vdW  Elec       q    Type
                         _______ _______ _______ _____ _____    ______ ____

>  <TORSDO>
F 2

$$$$
=
 OpenBabel11062407533D

 34 40  0  0  1  0  0  0  0  0999 V2000
  160.3440  213.3290  144.2110 C   0  0  0  0  0  0  0  0  0  0  0  0
  162.6200  213.2000  143.3740 C   0  0  0  0  0  3  0  0  0  0  0  0
  160.7480  213.4360  141.7960 C   0  0  0  0  0  0  0  0  0  0  0  0
  161.0330  213.8360  139.2660 C   0  0  1  0  0  3  0  0  0  0  0  0
  162.1940  213.0720  145.7530 C   0  0  0  0  0  3  0  0  0  0  0  0
  163.0910  213.0750  144.6840 C   0  0  0  0  0  3  0  0  0  0  0  0
  162.3020  212.1380  140.2750 C   0  0  0  0  0  0  0  0  0  0  0  0
  161.2440  213.3160  143.1160 C   0  0  0  0  0  0  0  0  0  0  0  0
  161.8690  213.1110  138.2050 C   0  0  0  0  0  2  0  0  0  0  0  0
  160.8230  213.2020  145.5180 C   0  0  0  0  0  3  0  0  0  0  0  0
  159.3600  213.6150  141.5940 C   0  0  0  0  0  0  0  0  0  0  0  0
  158.9790  213.4970  143.9920 C   0  0  0  0  0  3  0  0  0  0  0  0
  162.6660  211.2750  141.1180 O   0  0  0  0  0  0  0  0  0  0  0  0
  159.6770  213.2980  139.1880 N   0  0  0  0  0  2  0  0  0  0  0  0
  158.8420  213.9250  140.2060 C   0  0  1  0  0  3  0  0  0  0  0  0
  162.4480  211.9600  138.8800 N   0  0  0  0  0  0  0  0  0  0  0  0
  161.6950  213.4510  140.6080 C   0  0  2  0  0  3  0  0  0  0  0  0
  158.4950  213.6570  142.6980 C   0  0  0  0  0  3  0  0  0  0  0  0
  161.8680  210.6570  137.0110 O   0  0  0  0  0  0  0  0  0  0  0  0
  162.3220  207.9670  137.3060 O   0  0  0  0  0  1  0  0  0  0  0  0
  161.2280  209.9980  138.0750 C   0  0  1  0  0  0  0  0  0  0  0  0
  161.1420  208.4770  137.8560 C   0  0  1  0  0  3  0  0  0  0  0  0
  162.5570  210.6500  138.2480 C   0  0  2  0  0  3  0  0  0  0  0  0
  158.8840  208.5490  137.6910 C   0  0  0  0  0  2  0  0  0  0  0  0
  158.7540  210.0750  137.6950 C   0  0  0  0  0  2  0  0  0  0  0  0
  159.9250  210.6990  138.4550 C   0  0  0  0  0  2  0  0  0  0  0  0
  160.0590  208.1720  137.0110 O   0  0  0  0  0  0  0  0  0  0  0  0
  155.7470  211.8340  139.4580 C   0  0  0  0  0  0  0  0  0  0  0  0
  154.7330  212.7760  139.6530 C   0  0  0  0  0  3  0  0  0  0  0  0
  157.4120  213.5130  140.0040 C   0  0  0  0  0  0  0  0  0  0  0  0
  155.0560  214.0850  140.0240 C   0  0  0  0  0  3  0  0  0  0  0  0
  157.0850  212.2000  139.6330 C   0  0  0  0  0  3  0  0  0  0  0  0
  156.3940  214.4530  140.2000 C   0  0  0  0  0  3  0  0  0  0  0  0
  155.3430  210.1960  138.9960 Cl  0  0  0  0  0  0  0  0  0  0  0  0
  1 10  2  0  0  0  0
  2  6  1  0  0  0  0
  3  8  1  0  0  0  0
  4  9  1  6  0  0  0
  4 17  1  0  0  0  0
  6  5  2  0  0  0  0
  7 13  2  0  0  0  0
  8  2  2  0  0  0  0
  8  1  1  0  0  0  0
  9 16  1  0  0  0  0
 10  5  1  0  0  0  0
 11  3  2  0  0  0  0
 11 18  1  0  0  0  0
 12  1  1  0  0  0  0
 14  4  1  0  0  0  0
 14 15  1  0  0  0  0
 15 30  1  1  0  0  0
 15 11  1  0  0  0  0
 16  7  1  0  0  0  0
 17  7  1  6  0  0  0
 17  3  1  0  0  0  0
 18 12  2  0  0  0  0
 19 21  1  0  0  0  0
 19 23  1  0  0  0  0
 21 23  1  0  0  0  0
 21 26  1  1  0  0  0
 22 20  1  6  0  0  0
 22 21  1  0  0  0  0
 23 16  1  1  0  0  0
 24 25  1  0  0  0  0
 25 26  1  0  0  0  0
 27 24  1  0  0  0  0
 27 22  1  0  0  0  0
 28 32  2  0  0  0  0
 28 29  1  0  0  0  0
 29 31  2  0  0  0  0
 30 33  2  0  0  0  0
 31 33  1  0  0  0  0
 32 30  1  0  0  0  0
 34 28  1  0  0  0  0
M  END
>  <MODEL>
7

>  <REMARK>
 VINA RESULT:      -5.6     10.143     14.357
  Name = 
  2 active torsions:
  status: ('A' for Active; 'I' for Inactive)
    1  A    between atoms: C_12  and  C_28
    2  A    between atoms: C_17  and  N_29
                            x       y       z     vdW  Elec       q    Type
                         _______ _______ _______ _____ _____    ______ ____

>  <TORSDO>
F 2

$$$$
=
 OpenBabel11062407533D

 34 40  0  0  1  0  0  0  0  0999 V2000
  160.8960  205.3670  152.8360 C   0  0  0  0  0  0  0  0  0  0  0  0
  162.0000  205.7080  150.7010 C   0  0  0  0  0  3  0  0  0  0  0  0
  161.6780  207.6090  152.2300 C   0  0  0  0  0  0  0  0  0  0  0  0
  162.6830  209.9520  151.8540 C   0  0  1  0  0  3  0  0  0  0  0  0
  161.1970  203.5090  151.3130 C   0  0  0  0  0  3  0  0  0  0  0  0
  161.8340  204.3540  150.4020 C   0  0  0  0  0  3  0  0  0  0  0  0
  161.5850  208.9100  150.0590 C   0  0  0  0  0  0  0  0  0  0  0  0
  161.5250  206.2380  151.9120 C   0  0  0  0  0  0  0  0  0  0  0  0
  162.6610  210.8910  150.6420 C   0  0  0  0  0  2  0  0  0  0  0  0
  160.7310  204.0130  152.5280 C   0  0  0  0  0  3  0  0  0  0  0  0
  161.2400  208.0780  153.4890 C   0  0  0  0  0  0  0  0  0  0  0  0
  160.4620  205.8490  154.0690 C   0  0  0  0  0  3  0  0  0  0  0  0
  160.8290  208.1200  149.4320 O   0  0  0  0  0  0  0  0  0  0  0  0
  161.6140  210.3820  152.7530 N   0  0  0  0  0  2  0  0  0  0  0  0
  161.5610  209.4960  153.9100 C   0  0  1  0  0  3  0  0  0  0  0  0
  161.7900  210.2530  149.6670 N   0  0  0  0  0  0  0  0  0  0  0  0
  162.3720  208.5560  151.2670 C   0  0  2  0  0  3  0  0  0  0  0  0
  160.6490  207.1880  154.3980 C   0  0  0  0  0  3  0  0  0  0  0  0
  161.1350  210.8160  147.4810 O   0  0  0  0  0  0  0  0  0  0  0  0
  159.3330  212.8790  147.3210 O   0  0  0  0  0  1  0  0  0  0  0  0
  161.5060  212.0530  148.0350 C   0  0  1  0  0  0  0  0  0  0  0  0
  160.6810  213.2220  147.4670 C   0  0  1  0  0  3  0  0  0  0  0  0
  160.8390  211.0020  148.8530 C   0  0  2  0  0  3  0  0  0  0  0  0
  162.4990  214.1180  146.4550 C   0  0  0  0  0  2  0  0  0  0  0  0
  163.4550  212.9580  146.7490 C   0  0  0  0  0  2  0  0  0  0  0  0
  163.0230  212.2320  148.0230 C   0  0  0  0  0  2  0  0  0  0  0  0
  161.2030  213.6200  146.2210 O   0  0  0  0  0  0  0  0  0  0  0  0
  158.4530  211.0470  155.4740 C   0  0  0  0  0  0  0  0  0  0  0  0
  158.8070  211.0510  156.8260 C   0  0  0  0  0  3  0  0  0  0  0  0
  160.5930  210.0480  154.9170 C   0  0  0  0  0  0  0  0  0  0  0  0
  160.0500  210.5540  157.2250 C   0  0  0  0  0  3  0  0  0  0  0  0
  159.3430  210.5460  154.5200 C   0  0  0  0  0  3  0  0  0  0  0  0
  160.9430  210.0520  156.2720 C   0  0  0  0  0  3  0  0  0  0  0  0
  156.8950  211.6680  154.9740 Cl  0  0  0  0  0  0  0  0  0  0  0  0
  1 12  1  0  0  0  0
  2  8  1  0  0  0  0
  3 11  2  0  0  0  0
  4  9  1  6  0  0  0
  4 14  1  0  0  0  0
  5 10  2  0  0  0  0
  6  2  2  0  0  0  0
  6  5  1  0  0  0  0
  8  3  1  0  0  0  0
  8  1  2  0  0  0  0
 10  1  1  0  0  0  0
 11 15  1  0  0  0  0
 11 18  1  0  0  0  0
 12 18  2  0  0  0  0
 13  7  2  0  0  0  0
 14 15  1  0  0  0  0
 15 30  1  1  0  0  0
 16  7  1  0  0  0  0
 16  9  1  0  0  0  0
 17  7  1  6  0  0  0
 17  4  1  0  0  0  0
 17  3  1  0  0  0  0
 19 21  1  0  0  0  0
 19 23  1  0  0  0  0
 21 26  1  1  0  0  0
 21 23  1  0  0  0  0
 22 20  1  6  0  0  0
 22 21  1  0  0  0  0
 23 16  1  1  0  0  0
 24 25  1  0  0  0  0
 25 26  1  0  0  0  0
 27 24  1  0  0  0  0
 27 22  1  0  0  0  0
 28 29  1  0  0  0  0
 29 31  2  0  0  0  0
 30 33  2  0  0  0  0
 32 30  1  0  0  0  0
 32 28  2  0  0  0  0
 33 31  1  0  0  0  0
 34 28  1  0  0  0  0
M  END
>  <MODEL>
8

>  <REMARK>
 VINA RESULT:      -5.5      3.622      7.462
  Name = 
  2 active torsions:
  status: ('A' for Active; 'I' for Inactive)
    1  A    between atoms: C_12  and  C_28
    2  A    between atoms: C_17  and  N_29
                            x       y       z     vdW  Elec       q    Type
                         _______ _______ _______ _____ _____    ______ ____

>  <TORSDO>
F 2

$$$$
=
 OpenBabel11062407533D

 34 40  0  0  1  0  0  0  0  0999 V2000
  161.0570  205.6010  150.3160 C   0  0  0  0  0  0  0  0  0  0  0  0
  162.0910  206.3700  148.2580 C   0  0  0  0  0  3  0  0  0  0  0  0
  161.7880  207.9330  150.1340 C   0  0  0  0  0  0  0  0  0  0  0  0
  162.7470  210.3240  150.1900 C   0  0  1  0  0  3  0  0  0  0  0  0
  161.3390  204.0780  148.4550 C   0  0  0  0  0  3  0  0  0  0  0  0
  161.9360  205.0950  147.7080 C   0  0  0  0  0  3  0  0  0  0  0  0
  161.6100  209.6260  148.2590 C   0  0  0  0  0  0  0  0  0  0  0  0
  161.6450  206.6460  149.5610 C   0  0  0  0  0  0  0  0  0  0  0  0
  162.6740  211.4780  149.1840 C   0  0  0  0  0  2  0  0  0  0  0  0
  160.9030  204.3290  149.7570 C   0  0  0  0  0  3  0  0  0  0  0  0
  161.3810  208.1420  151.4710 C   0  0  0  0  0  0  0  0  0  0  0  0
  160.6540  205.8280  151.6300 C   0  0  0  0  0  3  0  0  0  0  0  0
  160.8470  208.9570  147.5110 O   0  0  0  0  0  0  0  0  0  0  0  0
  161.6990  210.5510  151.1840 N   0  0  0  0  0  2  0  0  0  0  0  0
  161.6940  209.4590  152.1490 C   0  0  1  0  0  3  0  0  0  0  0  0
  161.7830  211.0240  148.1280 N   0  0  0  0  0  0  0  0  0  0  0  0
  162.4390  209.0620  149.3540 C   0  0  2  0  0  3  0  0  0  0  0  0
  160.8310  207.0810  152.2070 C   0  0  0  0  0  3  0  0  0  0  0  0
  161.0710  213.2440  147.8330 O   0  0  0  0  0  0  0  0  0  0  0  0
  158.5760  213.5080  146.7230 O   0  0  0  0  0  1  0  0  0  0  0  0
  159.9900  212.6450  148.5020 C   0  0  1  0  0  0  0  0  0  0  0  0
  158.6370  213.2570  148.0970 C   0  0  1  0  0  3  0  0  0  0  0  0
  160.7980  211.8950  147.5000 C   0  0  2  0  0  3  0  0  0  0  0  0
  158.3140  214.1150  150.1680 C   0  0  0  0  0  2  0  0  0  0  0  0
  159.7000  213.7680  150.7220 C   0  0  0  0  0  2  0  0  0  0  0  0
  160.2590  212.5410  150.0030 C   0  0  0  0  0  2  0  0  0  0  0  0
  158.4170  214.4530  148.8050 O   0  0  0  0  0  0  0  0  0  0  0  0
  158.8480  211.0110  154.1490 C   0  0  0  0  0  0  0  0  0  0  0  0
  158.9950  210.3570  155.3760 C   0  0  0  0  0  3  0  0  0  0  0  0
  160.7500  209.7860  153.2700 C   0  0  0  0  0  0  0  0  0  0  0  0
  160.0160  209.4190  155.5510 C   0  0  0  0  0  3  0  0  0  0  0  0
  159.7220  210.7260  153.0970 C   0  0  0  0  0  3  0  0  0  0  0  0
  160.8920  209.1330  154.4990 C   0  0  0  0  0  3  0  0  0  0  0  0
  157.5690  212.1840  153.9300 Cl  0  0  0  0  0  0  0  0  0  0  0  0
  1 12  1  0  0  0  0
  2  8  1  0  0  0  0
  3 11  2  0  0  0  0
  4  9  1  6  0  0  0
  4 14  1  0  0  0  0
  5 10  2  0  0  0  0
  6  2  2  0  0  0  0
  6  5  1  0  0  0  0
  8  3  1  0  0  0  0
  8  1  2  0  0  0  0
 10  1  1  0  0  0  0
 11 15  1  0  0  0  0
 11 18  1  0  0  0  0
 12 18  2  0  0  0  0
 13  7  2  0  0  0  0
 14 15  1  0  0  0  0
 15 30  1  1  0  0  0
 16  7  1  0  0  0  0
 16  9  1  0  0  0  0
 17  7  1  6  0  0  0
 17  3  1  0  0  0  0
 17  4  1  0  0  0  0
 19 21  1  0  0  0  0
 21 26  1  1  0  0  0
 22 20  1  6  0  0  0
 22 21  1  0  0  0  0
 22 27  1  0  0  0  0
 23 19  1  0  0  0  0
 23 16  1  1  0  0  0
 23 21  1  0  0  0  0
 24 25  1  0  0  0  0
 26 25  1  0  0  0  0
 27 24  1  0  0  0  0
 28 29  1  0  0  0  0
 29 31  2  0  0  0  0
 30 33  2  0  0  0  0
 32 30  1  0  0  0  0
 32 28  2  0  0  0  0
 33 31  1  0  0  0  0
 34 28  1  0  0  0  0
M  END
>  <MODEL>
9

>  <REMARK>
 VINA RESULT:      -5.4      3.541      6.437
  Name = 
  2 active torsions:
  status: ('A' for Active; 'I' for Inactive)
    1  A    between atoms: C_12  and  C_28
    2  A    between atoms: C_17  and  N_29
                            x       y       z     vdW  Elec       q    Type
                         _______ _______ _______ _____ _____    ______ ____

>  <TORSDO>
F 2

$$$$
