=
 OpenBabel11052421433D

 30 35  0  0  1  0  0  0  0  0999 V2000
  160.6310  209.6690  152.8110 C   0  0  0  0  0  0  0  0  0  0  0  0
  160.7690  207.6140  154.2950 C   0  0  1  0  0  3  0  0  0  0  0  0
  162.3450  207.7940  149.7310 C   0  0  0  0  0  2  0  0  0  0  0  0
  161.1830  210.6920  151.9860 C   0  0  0  0  0  0  0  0  0  0  0  0
  159.4590  209.9690  153.5460 C   0  0  0  0  0  3  0  0  0  0  0  0
  158.5710  213.7640  152.7470 S   0  0  0  0  0  0  0  0  0  0  0  0
  159.4510  212.2180  152.6990 C   0  0  0  0  0  0  0  0  0  0  0  0
  157.7400  211.6340  154.1890 N   0  0  0  0  0  2  0  0  0  0  0  0
  162.2260  209.0410  148.8620 C   0  0  1  0  0  3  0  0  0  0  0  0
  158.8810  211.2320  153.4560 C   0  0  0  0  0  0  0  0  0  0  0  0
  160.5900  211.9700  151.9470 C   0  0  0  0  0  3  0  0  0  0  0  0
  160.8680  206.1830  154.0360 N   0  0  0  0  0  2  0  0  0  0  0  0
  157.4910  213.7950  155.2800 C   0  0  0  0  0  1  0  0  0  0  0  0
  161.4250  207.9380  155.5540 N   0  0  0  0  0  1  0  0  0  0  0  0
  161.1000  207.5450  150.5770 C   0  0  0  0  0  2  0  0  0  0  0  0
  161.0440  206.0120  152.6000 C   0  0  2  0  0  3  0  0  0  0  0  0
  157.3990  213.0370  153.9690 C   0  0  1  0  0  3  0  0  0  0  0  0
  161.3940  208.3790  153.1290 C   0  0  1  0  0  3  0  0  0  0  0  0
  162.2810  210.4290  151.0090 C   0  0  0  0  0  2  0  0  0  0  0  0
  161.4430  208.7570  147.7410 O   0  0  0  0  0  1  0  0  0  0  0  0
  161.6580  210.2450  149.6220 C   0  0  1  0  0  3  0  0  0  0  0  0
  162.5120  206.2050  152.2510 C   0  0  0  0  0  2  0  0  0  0  0  0
  161.5110  207.3310  152.0260 C   0  0  2  0  0  0  0  0  0  0  0  0
  160.6020  212.7420  147.1590 C   0  0  2  0  0  3  0  0  0  0  0  0
  161.6680  211.5480  148.8200 C   0  0  1  0  0  3  0  0  0  0  0  0
  163.0890  211.9820  148.4210 C   0  0  0  0  0  2  0  0  0  0  0  0
  161.9070  213.4460  146.7580 C   0  0  0  0  0  2  0  0  0  0  0  0
  163.1200  212.5540  147.0050 C   0  0  0  0  0  2  0  0  0  0  0  0
  159.7480  213.6310  148.0580 C   0  0  0  0  0  1  0  0  0  0  0  0
  160.7950  211.4480  147.7100 O   0  0  0  0  0  0  0  0  0  0  0  0
  1  5  1  0  0  0  0
  2 14  1  1  0  0  0
  3 15  1  0  0  0  0
  4  1  2  0  0  0  0
  6 17  1  0  0  0  0
  7  6  1  0  0  0  0
  7 10  1  0  0  0  0
  9 20  1  6  0  0  0
  9 21  1  0  0  0  0
  9  3  1  0  0  0  0
 10  5  2  0  0  0  0
 10  8  1  0  0  0  0
 11  4  1  0  0  0  0
 11  7  2  0  0  0  0
 12  2  1  0  0  0  0
 16 22  1  1  0  0  0
 16 12  1  0  0  0  0
 17  8  1  0  0  0  0
 17 13  1  1  0  0  0
 18  1  1  6  0  0  0
 18  2  1  0  0  0  0
 19  4  1  0  0  0  0
 21 19  1  1  0  0  0
 23 15  1  6  0  0  0
 23 22  1  0  0  0  0
 23 16  1  0  0  0  0
 23 18  1  0  0  0  0
 24 30  1  0  0  0  0
 24 29  1  1  0  0  0
 25 26  1  6  0  0  0
 25 21  1  0  0  0  0
 27 28  1  0  0  0  0
 27 24  1  0  0  0  0
 28 26  1  0  0  0  0
 30 25  1  0  0  0  0
M  END
>  <MODEL>
1

>  <REMARK>
 VINA RESULT:      -6.6      0.000      0.000
  Name = 
  1 active torsions:
  status: ('A' for Active; 'I' for Inactive)
    1  A    between atoms: C_10  and  C_25
                            x       y       z     vdW  Elec       q    Type
                         _______ _______ _______ _____ _____    ______ ____

>  <TORSDO>
F 1

$$$$
=
 OpenBabel11052421433D

 30 35  0  0  1  0  0  0  0  0999 V2000
  161.6630  209.2440  152.6090 C   0  0  0  0  0  0  0  0  0  0  0  0
  161.5420  210.0870  155.0010 C   0  0  1  0  0  3  0  0  0  0  0  0
  160.9940  205.4640  153.7060 C   0  0  0  0  0  2  0  0  0  0  0  0
  162.1900  208.4320  151.5620 C   0  0  0  0  0  0  0  0  0  0  0  0
  161.1440  210.5150  152.2650 C   0  0  0  0  0  3  0  0  0  0  0  0
  161.6630  210.9180  148.3420 S   0  0  0  0  0  0  0  0  0  0  0  0
  161.7170  210.1730  149.9560 C   0  0  0  0  0  0  0  0  0  0  0  0
  160.7080  212.2130  150.5140 N   0  0  0  0  0  2  0  0  0  0  0  0
  161.0520  204.9970  152.2550 C   0  0  1  0  0  3  0  0  0  0  0  0
  161.1610  210.9430  150.9410 C   0  0  0  0  0  0  0  0  0  0  0  0
  162.2230  208.9130  150.2390 C   0  0  0  0  0  3  0  0  0  0  0  0
  160.9210  209.5850  156.2210 N   0  0  0  0  0  2  0  0  0  0  0  0
  161.8550  213.6110  148.8850 C   0  0  0  0  0  1  0  0  0  0  0  0
  162.7300  210.8610  155.3290 N   0  0  0  0  0  1  0  0  0  0  0  0
  160.2340  206.7770  153.8710 C   0  0  0  0  0  2  0  0  0  0  0  0
  160.3960  208.2580  155.9270 C   0  0  2  0  0  3  0  0  0  0  0  0
  160.9210  212.4330  149.0850 C   0  0  1  0  0  3  0  0  0  0  0  0
  161.8800  208.9080  154.0890 C   0  0  1  0  0  3  0  0  0  0  0  0
  162.5650  207.0010  151.7690 C   0  0  0  0  0  2  0  0  0  0  0  0
  159.8350  204.4120  151.9030 O   0  0  0  0  0  1  0  0  0  0  0  0
  161.4070  206.1260  151.2810 C   0  0  1  0  0  3  0  0  0  0  0  0
  161.5200  207.2400  156.0460 C   0  0  0  0  0  2  0  0  0  0  0  0
  161.0820  207.7490  154.6790 C   0  0  2  0  0  0  0  0  0  0  0  0
  160.9700  205.9610  147.6470 C   0  0  2  0  0  3  0  0  0  0  0  0
  161.6200  205.6580  149.8390 C   0  0  1  0  0  3  0  0  0  0  0  0
  161.7750  204.1310  149.7350 C   0  0  0  0  0  2  0  0  0  0  0  0
  161.2790  204.4960  147.3000 C   0  0  0  0  0  2  0  0  0  0  0  0
  161.0610  203.5810  148.5020 C   0  0  0  0  0  2  0  0  0  0  0  0
  162.1080  206.8830  147.2190 C   0  0  0  0  0  1  0  0  0  0  0  0
  160.5970  206.1620  149.0020 O   0  0  0  0  0  0  0  0  0  0  0  0
  2 14  1  1  0  0  0
  2 12  1  0  0  0  0
  3 15  1  0  0  0  0
  4 19  1  0  0  0  0
  4  1  2  0  0  0  0
  5  1  1  0  0  0  0
  6 17  1  0  0  0  0
  6  7  1  0  0  0  0
  7 11  2  0  0  0  0
  7 10  1  0  0  0  0
  8 10  1  0  0  0  0
  9 20  1  6  0  0  0
  9  3  1  0  0  0  0
 10  5  2  0  0  0  0
 11  4  1  0  0  0  0
 16 22  1  1  0  0  0
 16 12  1  0  0  0  0
 17 13  1  1  0  0  0
 17  8  1  0  0  0  0
 18  1  1  6  0  0  0
 18 23  1  0  0  0  0
 18  2  1  0  0  0  0
 21 19  1  1  0  0  0
 21  9  1  0  0  0  0
 23 15  1  6  0  0  0
 23 16  1  0  0  0  0
 23 22  1  0  0  0  0
 24 29  1  1  0  0  0
 24 30  1  0  0  0  0
 25 26  1  1  0  0  0
 25 21  1  0  0  0  0
 27 24  1  0  0  0  0
 27 28  1  0  0  0  0
 28 26  1  0  0  0  0
 30 25  1  0  0  0  0
M  END
>  <MODEL>
2

>  <REMARK>
 VINA RESULT:      -5.6      2.743      5.227
  Name = 
  1 active torsions:
  status: ('A' for Active; 'I' for Inactive)
    1  A    between atoms: C_10  and  C_25
                            x       y       z     vdW  Elec       q    Type
                         _______ _______ _______ _____ _____    ______ ____

>  <TORSDO>
F 1

$$$$
=
 OpenBabel11052421433D

 30 35  0  0  1  0  0  0  0  0999 V2000
  161.7490  210.2210  149.4830 C   0  0  0  0  0  0  0  0  0  0  0  0
  161.7520  212.0970  147.7740 C   0  0  1  0  0  3  0  0  0  0  0  0
  160.3980  212.6080  152.3840 C   0  0  0  0  0  2  0  0  0  0  0  0
  162.1350  209.6060  150.7110 C   0  0  0  0  0  0  0  0  0  0  0  0
  161.4710  209.3810  148.3790 C   0  0  0  0  0  3  0  0  0  0  0  0
  162.1020  205.6530  149.6140 S   0  0  0  0  0  0  0  0  0  0  0  0
  162.0010  207.4280  149.6750 C   0  0  0  0  0  0  0  0  0  0  0  0
  161.3690  207.0880  147.4440 N   0  0  0  0  0  2  0  0  0  0  0  0
  160.3890  211.4530  153.3790 C   0  0  1  0  0  3  0  0  0  0  0  0
  161.5810  207.9990  148.5060 C   0  0  0  0  0  0  0  0  0  0  0  0
  162.2690  208.2060  150.7910 C   0  0  0  0  0  3  0  0  0  0  0  0
  161.0370  213.3630  147.6580 N   0  0  0  0  0  2  0  0  0  0  0  0
  162.7690  205.1500  146.9890 C   0  0  0  0  0  1  0  0  0  0  0  0
  163.0560  212.2030  147.1360 N   0  0  0  0  0  1  0  0  0  0  0  0
  159.8850  212.2030  151.0050 C   0  0  0  0  0  2  0  0  0  0  0  0
  160.2850  213.5520  148.8930 C   0  0  2  0  0  3  0  0  0  0  0  0
  161.6360  205.7050  147.8310 C   0  0  1  0  0  3  0  0  0  0  0  0
  161.8840  211.7300  149.2510 C   0  0  1  0  0  3  0  0  0  0  0  0
  162.2430  210.3680  151.9900 C   0  0  0  0  0  2  0  0  0  0  0  0
  159.0910  211.2510  153.8500 O   0  0  0  0  0  1  0  0  0  0  0  0
  160.9530  210.1560  152.7880 C   0  0  1  0  0  3  0  0  0  0  0  0
  161.2060  214.1370  149.9520 C   0  0  0  0  0  2  0  0  0  0  0  0
  160.8830  212.6490  149.9470 C   0  0  2  0  0  0  0  0  0  0  0  0
  160.4030  206.8920  154.3570 C   0  0  2  0  0  3  0  0  0  0  0  0
  161.0960  209.0200  153.8050 C   0  0  1  0  0  3  0  0  0  0  0  0
  161.1570  209.5340  155.2530 C   0  0  0  0  0  2  0  0  0  0  0  0
  160.6130  207.1570  155.8560 C   0  0  0  0  0  2  0  0  0  0  0  0
  160.3750  208.6250  156.2000 C   0  0  0  0  0  2  0  0  0  0  0  0
  161.5810  206.1280  153.7600 C   0  0  0  0  0  1  0  0  0  0  0  0
  160.0810  208.0540  153.6090 O   0  0  0  0  0  0  0  0  0  0  0  0
  1  4  1  0  0  0  0
  2 14  1  1  0  0  0
  2 18  1  0  0  0  0
  3  9  1  0  0  0  0
  4 11  2  0  0  0  0
  4 19  1  0  0  0  0
  5 10  1  0  0  0  0
  5  1  2  0  0  0  0
  6  7  1  0  0  0  0
  7 11  1  0  0  0  0
  8 17  1  0  0  0  0
  8 10  1  0  0  0  0
  9 20  1  6  0  0  0
 10  7  2  0  0  0  0
 12  2  1  0  0  0  0
 12 16  1  0  0  0  0
 15  3  1  0  0  0  0
 16 23  1  0  0  0  0
 16 22  1  1  0  0  0
 17 13  1  6  0  0  0
 17  6  1  0  0  0  0
 18  1  1  6  0  0  0
 18 23  1  0  0  0  0
 21 19  1  1  0  0  0
 21  9  1  0  0  0  0
 21 25  1  0  0  0  0
 23 22  1  1  0  0  0
 23 15  1  0  0  0  0
 24 29  1  6  0  0  0
 24 27  1  0  0  0  0
 25 26  1  1  0  0  0
 26 28  1  0  0  0  0
 27 28  1  0  0  0  0
 30 25  1  0  0  0  0
 30 24  1  0  0  0  0
M  END
>  <MODEL>
3

>  <REMARK>
 VINA RESULT:      -5.1      3.676      7.605
  Name = 
  1 active torsions:
  status: ('A' for Active; 'I' for Inactive)
    1  A    between atoms: C_10  and  C_25
                            x       y       z     vdW  Elec       q    Type
                         _______ _______ _______ _____ _____    ______ ____

>  <TORSDO>
F 1

$$$$
=
 OpenBabel11052421433D

 30 35  0  0  1  0  0  0  0  0999 V2000
  160.4800  209.9170  152.0620 C   0  0  0  0  0  0  0  0  0  0  0  0
  161.5370  207.7990  151.1460 C   0  0  1  0  0  3  0  0  0  0  0  0
  160.3300  208.4650  155.7780 C   0  0  0  0  0  2  0  0  0  0  0  0
  159.4570  210.6530  152.7310 C   0  0  0  0  0  0  0  0  0  0  0  0
  161.2140  210.5760  151.0480 C   0  0  0  0  0  3  0  0  0  0  0  0
  159.6980  214.2430  150.7600 S   0  0  0  0  0  0  0  0  0  0  0  0
  159.9130  212.5750  151.3410 C   0  0  0  0  0  0  0  0  0  0  0  0
  161.5810  212.6200  149.6960 N   0  0  0  0  0  2  0  0  0  0  0  0
  159.7160  209.7600  156.2960 C   0  0  1  0  0  3  0  0  0  0  0  0
  160.9300  211.9000  150.7250 C   0  0  0  0  0  0  0  0  0  0  0  0
  159.1740  211.9800  152.3530 C   0  0  0  0  0  3  0  0  0  0  0  0
  162.3190  206.7210  151.7390 N   0  0  0  0  0  2  0  0  0  0  0  0
  160.4540  214.0890  148.1160 C   0  0  0  0  0  1  0  0  0  0  0  0
  160.7720  207.2960  150.0150 N   0  0  0  0  0  1  0  0  0  0  0  0
  161.4480  208.7070  154.7670 C   0  0  0  0  0  2  0  0  0  0  0  0
  162.3310  206.9330  153.1800 C   0  0  2  0  0  3  0  0  0  0  0  0
  161.0280  213.9600  149.5140 C   0  0  1  0  0  3  0  0  0  0  0  0
  160.6220  208.3990  152.2130 C   0  0  1  0  0  3  0  0  0  0  0  0
  158.7670  210.1380  153.9520 C   0  0  0  0  0  2  0  0  0  0  0  0
  160.5540  210.3230  157.2610 O   0  0  0  0  0  1  0  0  0  0  0  0
  159.4280  210.7700  155.1800 C   0  0  1  0  0  3  0  0  0  0  0  0
  161.0500  206.3710  153.7770 C   0  0  0  0  0  2  0  0  0  0  0  0
  161.1920  207.8660  153.5250 C   0  0  2  0  0  0  0  0  0  0  0  0
  156.6130  213.0500  155.7310 C   0  0  2  0  0  3  0  0  0  0  0  0
  158.6740  212.0170  155.6500 C   0  0  1  0  0  3  0  0  0  0  0  0
  159.4750  213.3100  155.4190 C   0  0  0  0  0  2  0  0  0  0  0  0
  157.2560  214.4460  155.7250 C   0  0  0  0  0  2  0  0  0  0  0  0
  158.5720  214.4490  154.9520 C   0  0  0  0  0  2  0  0  0  0  0  0
  156.2240  212.6260  157.1440 C   0  0  0  0  0  1  0  0  0  0  0  0
  157.3850  212.0610  155.0660 O   0  0  0  0  0  0  0  0  0  0  0  0
  1  4  1  0  0  0  0
  2 14  1  6  0  0  0
  2 12  1  0  0  0  0
  2 18  1  0  0  0  0
  3  9  1  0  0  0  0
  4 19  1  0  0  0  0
  5  1  2  0  0  0  0
  6  7  1  0  0  0  0
  7 11  1  0  0  0  0
  8 10  1  0  0  0  0
  9 20  1  1  0  0  0
 10  5  1  0  0  0  0
 10  7  2  0  0  0  0
 11  4  2  0  0  0  0
 12 16  1  0  0  0  0
 15  3  1  0  0  0  0
 16 23  1  0  0  0  0
 16 22  1  1  0  0  0
 17 13  1  6  0  0  0
 17  8  1  0  0  0  0
 17  6  1  0  0  0  0
 18  1  1  1  0  0  0
 18 23  1  0  0  0  0
 21 19  1  6  0  0  0
 21 25  1  0  0  0  0
 21  9  1  0  0  0  0
 23 22  1  1  0  0  0
 23 15  1  0  0  0  0
 24 29  1  1  0  0  0
 25 26  1  6  0  0  0
 27 24  1  0  0  0  0
 28 26  1  0  0  0  0
 28 27  1  0  0  0  0
 30 25  1  0  0  0  0
 30 24  1  0  0  0  0
M  END
>  <MODEL>
4

>  <REMARK>
 VINA RESULT:      -4.7      3.037      5.949
  Name = 
  1 active torsions:
  status: ('A' for Active; 'I' for Inactive)
    1  A    between atoms: C_10  and  C_25
                            x       y       z     vdW  Elec       q    Type
                         _______ _______ _______ _____ _____    ______ ____

>  <TORSDO>
F 1

$$$$
=
 OpenBabel11052421433D

 30 35  0  0  1  0  0  0  0  0999 V2000
  160.8760  204.1310  149.0450 C   0  0  0  0  0  0  0  0  0  0  0  0
  160.7400  201.6280  149.4470 C   0  0  1  0  0  3  0  0  0  0  0  0
  161.3340  204.9240  152.9310 C   0  0  0  0  0  2  0  0  0  0  0  0
  160.4550  205.4820  149.2230 C   0  0  0  0  0  0  0  0  0  0  0  0
  161.4580  203.7750  147.8050 C   0  0  0  0  0  3  0  0  0  0  0  0
  161.4020  207.0550  145.5540 S   0  0  0  0  0  0  0  0  0  0  0  0
  161.1470  206.0080  146.9690 C   0  0  0  0  0  0  0  0  0  0  0  0
  162.1290  204.4520  145.5170 N   0  0  0  0  0  2  0  0  0  0  0  0
  161.4330  206.4190  152.6490 C   0  0  1  0  0  3  0  0  0  0  0  0
  161.6030  204.7290  146.8010 C   0  0  0  0  0  0  0  0  0  0  0  0
  160.5850  206.4100  148.1710 C   0  0  0  0  0  3  0  0  0  0  0  0
  161.2050  200.7480  150.5120 N   0  0  0  0  0  2  0  0  0  0  0  0
  161.2060  205.3080  143.4340 C   0  0  0  0  0  1  0  0  0  0  0  0
  159.5390  201.0790  148.8360 N   0  0  0  0  0  1  0  0  0  0  0  0
  162.0970  204.0810  151.9130 C   0  0  0  0  0  2  0  0  0  0  0  0
  161.7320  201.5920  151.5760 C   0  0  2  0  0  3  0  0  0  0  0  0
  162.0850  205.6130  144.6310 C   0  0  1  0  0  3  0  0  0  0  0  0
  160.4840  203.0200  150.0250 C   0  0  1  0  0  3  0  0  0  0  0  0
  160.0290  206.0210  150.5490 C   0  0  0  0  0  2  0  0  0  0  0  0
  162.6700  206.8970  153.0860 O   0  0  0  0  0  1  0  0  0  0  0  0
  161.2160  206.7620  151.1710 C   0  0  1  0  0  3  0  0  0  0  0  0
  160.5810  202.0780  152.4430 C   0  0  0  0  0  2  0  0  0  0  0  0
  161.1840  202.9870  151.3800 C   0  0  2  0  0  0  0  0  0  0  0  0
  162.3320  210.0630  150.0420 C   0  0  2  0  0  3  0  0  0  0  0  0
  161.1600  208.2640  150.8830 C   0  0  1  0  0  3  0  0  0  0  0  0
  160.4720  209.0530  152.0110 C   0  0  0  0  0  2  0  0  0  0  0  0
  161.5820  211.0440  150.9560 C   0  0  0  0  0  2  0  0  0  0  0  0
  161.1780  210.3820  152.2710 C   0  0  0  0  0  2  0  0  0  0  0  0
  161.7420  210.0570  148.6350 C   0  0  0  0  0  1  0  0  0  0  0  0
  162.4520  208.7560  150.5810 O   0  0  0  0  0  0  0  0  0  0  0  0
  1  4  1  0  0  0  0
  2 14  1  1  0  0  0
  2 18  1  0  0  0  0
  2 12  1  0  0  0  0
  4 19  1  0  0  0  0
  5  1  2  0  0  0  0
  6  7  1  0  0  0  0
  7 11  1  0  0  0  0
  8 10  1  0  0  0  0
  9  3  1  0  0  0  0
  9 20  1  6  0  0  0
 10  7  2  0  0  0  0
 10  5  1  0  0  0  0
 11  4  2  0  0  0  0
 12 16  1  0  0  0  0
 15  3  1  0  0  0  0
 16 22  1  1  0  0  0
 17 13  1  6  0  0  0
 17  8  1  0  0  0  0
 17  6  1  0  0  0  0
 18  1  1  6  0  0  0
 18 23  1  0  0  0  0
 21 19  1  1  0  0  0
 21  9  1  0  0  0  0
 23 16  1  0  0  0  0
 23 15  1  1  0  0  0
 23 22  1  0  0  0  0
 24 29  1  6  0  0  0
 24 30  1  0  0  0  0
 24 27  1  0  0  0  0
 25 21  1  0  0  0  0
 25 26  1  1  0  0  0
 26 28  1  0  0  0  0
 27 28  1  0  0  0  0
 30 25  1  0  0  0  0
M  END
>  <MODEL>
5

>  <REMARK>
 VINA RESULT:      -4.3      4.408      7.289
  Name = 
  1 active torsions:
  status: ('A' for Active; 'I' for Inactive)
    1  A    between atoms: C_10  and  C_25
                            x       y       z     vdW  Elec       q    Type
                         _______ _______ _______ _____ _____    ______ ____

>  <TORSDO>
F 1

$$$$
=
 OpenBabel11052421433D

 30 35  0  0  1  0  0  0  0  0999 V2000
  161.1310  208.2590  151.0700 C   0  0  0  0  0  0  0  0  0  0  0  0
  161.3080  206.0090  149.9070 C   0  0  1  0  0  3  0  0  0  0  0  0
  161.1380  206.5980  154.7000 C   0  0  0  0  0  2  0  0  0  0  0  0
  160.5130  209.2070  151.9380 C   0  0  0  0  0  0  0  0  0  0  0  0
  161.8600  208.7510  149.9620 C   0  0  0  0  0  3  0  0  0  0  0  0
  161.5430  212.7150  150.0760 S   0  0  0  0  0  0  0  0  0  0  0  0
  161.3160  211.0160  150.5530 C   0  0  0  0  0  0  0  0  0  0  0  0
  162.6250  210.6990  148.6350 N   0  0  0  0  0  2  0  0  0  0  0  0
  161.0530  207.9670  155.3650 C   0  0  1  0  0  3  0  0  0  0  0  0
  161.9570  210.1220  149.7400 C   0  0  0  0  0  0  0  0  0  0  0  0
  160.6030  210.5860  151.6610 C   0  0  0  0  0  3  0  0  0  0  0  0
  161.7980  204.6970  150.3110 N   0  0  0  0  0  2  0  0  0  0  0  0
  161.7750  212.5740  147.3360 C   0  0  0  0  0  1  0  0  0  0  0  0
  160.2520  205.8630  148.9170 N   0  0  0  0  0  1  0  0  0  0  0  0
  162.0950  206.5780  153.5120 C   0  0  0  0  0  2  0  0  0  0  0  0
  162.1090  204.7680  151.7330 C   0  0  2  0  0  3  0  0  0  0  0  0
  162.4970  212.1540  148.6020 C   0  0  1  0  0  3  0  0  0  0  0  0
  160.8130  206.7610  151.1420 C   0  0  1  0  0  3  0  0  0  0  0  0
  159.9040  208.8190  153.2450 C   0  0  0  0  0  2  0  0  0  0  0  0
  162.1690  208.1620  156.1790 O   0  0  0  0  0  1  0  0  0  0  0  0
  160.9190  209.1110  154.3540 C   0  0  1  0  0  3  0  0  0  0  0  0
  160.8310  204.5690  152.5330 C   0  0  0  0  0  2  0  0  0  0  0  0
  161.3920  205.9670  152.3090 C   0  0  2  0  0  0  0  0  0  0  0  0
  160.2920  211.5870  156.9800 C   0  0  2  0  0  3  0  0  0  0  0  0
  160.6800  210.4810  154.9940 C   0  0  1  0  0  3  0  0  0  0  0  0
  159.7510  211.3700  154.1480 C   0  0  0  0  0  2  0  0  0  0  0  0
  159.5050  212.6980  156.2660 C   0  0  0  0  0  2  0  0  0  0  0  0
  158.7890  212.1650  155.0280 C   0  0  0  0  0  2  0  0  0  0  0  0
  161.7280  212.0200  157.2610 C   0  0  0  0  0  1  0  0  0  0  0  0
  160.2270  210.3290  156.3260 O   0  0  0  0  0  0  0  0  0  0  0  0
  1  4  1  0  0  0  0
  2 14  1  6  0  0  0
  2 12  1  0  0  0  0
  2 18  1  0  0  0  0
  3  9  1  0  0  0  0
  4 19  1  0  0  0  0
  5  1  2  0  0  0  0
  6  7  1  0  0  0  0
  7 11  1  0  0  0  0
  8 10  1  0  0  0  0
  9 20  1  6  0  0  0
 10  5  1  0  0  0  0
 10  7  2  0  0  0  0
 11  4  2  0  0  0  0
 12 16  1  0  0  0  0
 15  3  1  0  0  0  0
 16 23  1  0  0  0  0
 16 22  1  1  0  0  0
 17 13  1  6  0  0  0
 17  8  1  0  0  0  0
 17  6  1  0  0  0  0
 18  1  1  6  0  0  0
 18 23  1  0  0  0  0
 21 19  1  6  0  0  0
 21 25  1  0  0  0  0
 21  9  1  0  0  0  0
 23 22  1  1  0  0  0
 23 15  1  0  0  0  0
 24 29  1  6  0  0  0
 25 26  1  6  0  0  0
 25 30  1  0  0  0  0
 26 28  1  0  0  0  0
 27 24  1  0  0  0  0
 28 27  1  0  0  0  0
 30 24  1  0  0  0  0
M  END
>  <MODEL>
6

>  <REMARK>
 VINA RESULT:      -3.9      3.352      6.066
  Name = 
  1 active torsions:
  status: ('A' for Active; 'I' for Inactive)
    1  A    between atoms: C_10  and  C_25
                            x       y       z     vdW  Elec       q    Type
                         _______ _______ _______ _____ _____    ______ ____

>  <TORSDO>
F 1

$$$$
=
 OpenBabel11052421433D

 30 35  0  0  1  0  0  0  0  0999 V2000
  161.0420  208.5350  152.6560 C   0  0  0  0  0  0  0  0  0  0  0  0
  161.0450  206.0900  153.3380 C   0  0  1  0  0  3  0  0  0  0  0  0
  162.0360  207.6810  148.8840 C   0  0  0  0  0  2  0  0  0  0  0  0
  161.6380  209.7190  152.1280 C   0  0  0  0  0  0  0  0  0  0  0  0
  160.0350  208.6810  153.6390 C   0  0  0  0  0  3  0  0  0  0  0  0
  159.6580  212.5870  154.2910 S   0  0  0  0  0  0  0  0  0  0  0  0
  160.2720  211.0730  153.5890 C   0  0  0  0  0  0  0  0  0  0  0  0
  158.6930  210.1880  155.0780 N   0  0  0  0  0  2  0  0  0  0  0  0
  162.0040  209.1570  148.5050 C   0  0  1  0  0  3  0  0  0  0  0  0
  159.6550  209.9500  154.0680 C   0  0  0  0  0  0  0  0  0  0  0  0
  161.2520  210.9840  152.6130 C   0  0  0  0  0  3  0  0  0  0  0  0
  160.8850  204.8360  152.6120 N   0  0  0  0  0  2  0  0  0  0  0  0
  158.9270  211.8490  156.8420 C   0  0  0  0  0  1  0  0  0  0  0  0
  161.8980  205.8870  154.5000 N   0  0  0  0  0  1  0  0  0  0  0  0
  160.8850  207.2840  149.8040 C   0  0  0  0  0  2  0  0  0  0  0  0
  160.8480  205.1580  151.1910 C   0  0  2  0  0  3  0  0  0  0  0  0
  158.5510  211.6070  155.3920 C   0  0  1  0  0  3  0  0  0  0  0  0
  161.6290  207.1430  152.3970 C   0  0  1  0  0  3  0  0  0  0  0  0
  162.5490  209.6980  150.9450 C   0  0  0  0  0  2  0  0  0  0  0  0
  161.0500  209.3630  147.5070 O   0  0  0  0  0  1  0  0  0  0  0  0
  161.7330  210.0730  149.7040 C   0  0  1  0  0  3  0  0  0  0  0  0
  162.2720  205.3070  150.6770 C   0  0  0  0  0  2  0  0  0  0  0  0
  161.4390  206.5370  151.0090 C   0  0  2  0  0  0  0  0  0  0  0  0
  160.6560  213.4670  148.8440 C   0  0  2  0  0  3  0  0  0  0  0  0
  161.8440  211.5660  149.3830 C   0  0  1  0  0  3  0  0  0  0  0  0
  163.0450  211.8830  148.4750 C   0  0  0  0  0  2  0  0  0  0  0  0
  161.8440  214.0500  148.0630 C   0  0  0  0  0  2  0  0  0  0  0  0
  162.6940  212.9470  147.4380 C   0  0  0  0  0  2  0  0  0  0  0  0
  160.5700  214.0630  150.2460 C   0  0  0  0  0  1  0  0  0  0  0  0
  160.6210  212.0490  148.8600 O   0  0  0  0  0  0  0  0  0  0  0  0
  1  5  1  0  0  0  0
  2 14  1  1  0  0  0
  3 15  1  0  0  0  0
  4 11  1  0  0  0  0
  4  1  2  0  0  0  0
  5 10  2  0  0  0  0
  6 17  1  0  0  0  0
  7 10  1  0  0  0  0
  7  6  1  0  0  0  0
  8 17  1  0  0  0  0
  9 20  1  6  0  0  0
  9  3  1  0  0  0  0
  9 21  1  0  0  0  0
 10  8  1  0  0  0  0
 11  7  2  0  0  0  0
 12  2  1  0  0  0  0
 16 22  1  6  0  0  0
 16 12  1  0  0  0  0
 17 13  1  1  0  0  0
 18  1  1  6  0  0  0
 18  2  1  0  0  0  0
 19  4  1  0  0  0  0
 21 19  1  1  0  0  0
 22 23  1  0  0  0  0
 23 15  1  6  0  0  0
 23 16  1  0  0  0  0
 23 18  1  0  0  0  0
 24 30  1  0  0  0  0
 24 29  1  1  0  0  0
 25 26  1  6  0  0  0
 25 21  1  0  0  0  0
 27 24  1  0  0  0  0
 28 27  1  0  0  0  0
 28 26  1  0  0  0  0
 30 25  1  0  0  0  0
M  END
>  <MODEL>
7

>  <REMARK>
 VINA RESULT:      -3.9      1.358      1.566
  Name = 
  1 active torsions:
  status: ('A' for Active; 'I' for Inactive)
    1  A    between atoms: C_10  and  C_25
                            x       y       z     vdW  Elec       q    Type
                         _______ _______ _______ _____ _____    ______ ____

>  <TORSDO>
F 1

$$$$
=
 OpenBabel11052421433D

 30 35  0  0  1  0  0  0  0  0999 V2000
  161.1230  211.1930  150.4800 C   0  0  0  0  0  0  0  0  0  0  0  0
  162.1040  211.7150  148.1980 C   0  0  1  0  0  3  0  0  0  0  0  0
  158.8060  214.4430  150.4410 C   0  0  0  0  0  2  0  0  0  0  0  0
  160.8300  211.4830  151.8460 C   0  0  0  0  0  0  0  0  0  0  0  0
  161.3170  209.8390  150.1170 C   0  0  0  0  0  3  0  0  0  0  0  0
  160.9410  207.7130  153.4590 S   0  0  0  0  0  0  0  0  0  0  0  0
  160.9910  209.1360  152.3930 C   0  0  0  0  0  0  0  0  0  0  0  0
  161.4470  207.4640  150.8150 N   0  0  0  0  0  2  0  0  0  0  0  0
  158.2230  214.0860  151.8040 C   0  0  1  0  0  3  0  0  0  0  0  0
  161.2230  208.8360  151.0790 C   0  0  0  0  0  0  0  0  0  0  0  0
  160.7780  210.4450  152.7970 C   0  0  0  0  0  3  0  0  0  0  0  0
  161.6490  212.5000  147.0570 N   0  0  0  0  0  2  0  0  0  0  0  0
  162.7060  205.9690  152.2650 C   0  0  0  0  0  1  0  0  0  0  0  0
  163.5580  211.7190  148.2570 N   0  0  0  0  0  1  0  0  0  0  0  0
  158.9610  213.2280  149.5310 C   0  0  0  0  0  2  0  0  0  0  0  0
  160.4290  213.1870  147.4600 C   0  0  2  0  0  3  0  0  0  0  0  0
  161.3690  206.6420  152.0210 C   0  0  1  0  0  3  0  0  0  0  0  0
  161.4930  212.2890  149.4760 C   0  0  1  0  0  3  0  0  0  0  0  0
  160.3990  212.8380  152.3020 C   0  0  0  0  0  2  0  0  0  0  0  0
  156.8430  213.9130  151.6920 O   0  0  0  0  0  1  0  0  0  0  0  0
  158.8720  212.8430  152.4210 C   0  0  1  0  0  3  0  0  0  0  0  0
  160.7980  214.4530  148.2190 C   0  0  0  0  0  2  0  0  0  0  0  0
  160.3760  213.1970  148.9700 C   0  0  2  0  0  0  0  0  0  0  0  0
  157.3410  211.0220  155.2070 C   0  0  2  0  0  3  0  0  0  0  0  0
  158.4150  212.5480  153.8520 C   0  0  1  0  0  3  0  0  0  0  0  0
  157.8440  213.7930  154.5530 C   0  0  0  0  0  2  0  0  0  0  0  0
  156.8540  212.1300  156.1550 C   0  0  0  0  0  2  0  0  0  0  0  0
  156.6270  213.4420  155.4080 C   0  0  0  0  0  2  0  0  0  0  0  0
  158.5810  210.3270  155.7600 C   0  0  0  0  0  1  0  0  0  0  0  0
  157.5190  211.4530  153.8660 O   0  0  0  0  0  0  0  0  0  0  0  0
  1  4  1  0  0  0  0
  2 14  1  1  0  0  0
  2 18  1  0  0  0  0
  3  9  1  0  0  0  0
  4 19  1  0  0  0  0
  4 11  2  0  0  0  0
  5  1  2  0  0  0  0
  5 10  1  0  0  0  0
  7 11  1  0  0  0  0
  7  6  1  0  0  0  0
  8 10  1  0  0  0  0
  8 17  1  0  0  0  0
  9 20  1  6  0  0  0
  9 21  1  0  0  0  0
 10  7  2  0  0  0  0
 12 16  1  0  0  0  0
 12  2  1  0  0  0  0
 15  3  1  0  0  0  0
 16 22  1  1  0  0  0
 16 23  1  0  0  0  0
 17 13  1  1  0  0  0
 17  6  1  0  0  0  0
 18  1  1  1  0  0  0
 21 19  1  1  0  0  0
 21 25  1  0  0  0  0
 23 22  1  1  0  0  0
 23 18  1  0  0  0  0
 23 15  1  0  0  0  0
 24 29  1  1  0  0  0
 24 27  1  0  0  0  0
 25 30  1  0  0  0  0
 25 26  1  6  0  0  0
 26 28  1  0  0  0  0
 28 27  1  0  0  0  0
 30 24  1  0  0  0  0
M  END
>  <MODEL>
8

>  <REMARK>
 VINA RESULT:      -3.8      3.289      7.142
  Name = 
  1 active torsions:
  status: ('A' for Active; 'I' for Inactive)
    1  A    between atoms: C_10  and  C_25
                            x       y       z     vdW  Elec       q    Type
                         _______ _______ _______ _____ _____    ______ ____

>  <TORSDO>
F 1

$$$$
