=
 OpenBabel11062409473D

 34 39  0  0  0  0  0  0  0  0999 V2000
  160.7400  209.0650  153.6330 C   0  0  0  0  0  0  0  0  0  0  0  0
  160.9000  211.7420  155.5400 C   0  0  0  0  0  1  0  0  0  0  0  0
  161.0390  206.6390  153.9610 C   0  0  0  0  0  0  0  0  0  0  0  0
  160.8020  207.7520  153.1200 C   0  0  0  0  0  3  0  0  0  0  0  0
  161.1560  208.1360  155.8310 C   0  0  0  0  0  0  0  0  0  0  0  0
  161.3350  208.5340  157.1020 N   0  0  0  0  0  0  0  0  0  0  0  0
  161.2160  206.8360  155.3420 C   0  0  0  0  0  3  0  0  0  0  0  0
  161.0090  210.2950  155.8730 C   0  0  0  0  0  0  0  0  0  0  0  0
  160.9330  209.2130  155.0160 C   0  0  0  0  0  0  0  0  0  0  0  0
  161.2410  209.8370  157.0880 O   0  0  0  0  0  0  0  0  0  0  0  0
  160.9630  205.2820  149.7020 C   0  0  0  0  0  3  0  0  0  0  0  0
  161.1010  203.5180  151.8300 N   0  0  0  0  0  0  0  0  0  0  0  0
  161.0120  202.0230  147.9410 C   0  0  0  0  0  0  0  0  0  0  0  0
  160.9720  203.4070  148.1640 C   0  0  0  0  0  3  0  0  0  0  0  0
  161.0010  203.9100  149.4670 C   0  0  0  0  0  0  0  0  0  0  0  0
  161.0990  205.2970  153.4510 N   0  0  0  0  0  2  0  0  0  0  0  0
  161.1130  201.6470  150.3430 C   0  0  0  0  0  3  0  0  0  0  0  0
  161.0720  203.0260  150.5630 C   0  0  0  0  0  0  0  0  0  0  0  0
  161.0830  201.1480  149.0370 C   0  0  0  0  0  3  0  0  0  0  0  0
  161.0610  204.8550  152.0860 C   0  0  0  0  0  0  0  0  0  0  0  0
  160.9930  205.7590  151.0130 C   0  0  0  0  0  3  0  0  0  0  0  0
  160.9820  201.4980  146.5670 C   0  0  0  0  0  0  0  0  0  0  0  0
  160.8060  202.2740  145.5900 O   0  0  0  0  0  0  0  0  0  0  0  0
  161.1510  200.1380  146.3320 O   0  0  0  0  0  1  0  0  0  0  0  0
  158.7620  212.0140  152.4180 C   0  0  0  0  0  3  0  0  0  0  0  0
  159.7740  213.0300  152.0080 C   0  0  0  0  0  2  0  0  0  0  0  0
  160.4920  212.6140  150.7670 C   0  0  0  0  0  0  0  0  0  0  0  0
  161.2390  211.5110  150.7180 C   0  0  0  0  0  3  0  0  0  0  0  0
  159.0860  210.7710  152.7690 C   0  0  0  0  0  3  0  0  0  0  0  0
  161.3550  210.4950  151.7860 C   0  0  0  0  0  3  0  0  0  0  0  0
  160.4490  210.1940  152.7310 C   0  0  0  0  0  0  0  0  0  0  0  0
  160.4620  213.4780  149.6370 N   0  0  0  0  0  0  0  0  0  0  0  0
  161.1150  214.3800  148.6450 C   0  0  0  0  0  2  0  0  0  0  0  0
  159.7560  214.1840  148.5290 C   0  0  0  0  0  2  0  0  0  0  0  0
  1  9  1  0  0  0  0
  2  8  1  0  0  0  0
  3  7  2  0  0  0  0
  4  1  2  0  0  0  0
  4  3  1  0  0  0  0
  5  6  2  0  0  0  0
  7  5  1  0  0  0  0
  8 10  1  0  0  0  0
  9  5  1  0  0  0  0
  9  8  2  0  0  0  0
 10  6  1  0  0  0  0
 11 21  2  0  0  0  0
 12 20  2  0  0  0  0
 13 14  2  0  0  0  0
 13 19  1  0  0  0  0
 14 15  1  0  0  0  0
 15 11  1  0  0  0  0
 15 18  2  0  0  0  0
 16  3  1  0  0  0  0
 17 18  1  0  0  0  0
 18 12  1  0  0  0  0
 19 17  2  0  0  0  0
 20 16  1  0  0  0  0
 21 20  1  0  0  0  0
 22 13  1  0  0  0  0
 23 22  2  0  0  0  0
 24 22  1  0  0  0  0
 25 29  2  0  0  0  0
 26 25  1  0  0  0  0
 27 26  1  0  0  0  0
 28 27  2  0  0  0  0
 28 30  1  0  0  0  0
 30 31  2  0  0  0  0
 31 29  1  0  0  0  0
 31  1  1  0  0  0  0
 32 27  1  0  0  0  0
 33 32  1  0  0  0  0
 34 33  1  0  0  0  0
 34 32  1  0  0  0  0
M  END
>  <MODEL>
1

>  <REMARK>
 VINA RESULT:      -9.9      0.000      0.000
  Name = 
  4 active torsions:
  status: ('A' for Active; 'I' for Inactive)
    1  A    between atoms: C_1  and  C_34
    2  A    between atoms: N_3  and  C_25
    3  A    between atoms: C_7  and  C_11
    4  A    between atoms: C_8  and  N_18
                            x       y       z     vdW  Elec       q    Type
                         _______ _______ _______ _____ _____    ______ ____

>  <TORSDO>
F 4

$$$$
=
 OpenBabel11062409473D

 34 39  0  0  0  0  0  0  0  0999 V2000
  159.8760  210.0240  154.0330 C   0  0  0  0  0  0  0  0  0  0  0  0
  160.0880  210.6260  157.2610 C   0  0  0  0  0  1  0  0  0  0  0  0
  160.9650  208.4810  152.4460 C   0  0  0  0  0  0  0  0  0  0  0  0
  160.0770  209.5490  152.7200 C   0  0  0  0  0  3  0  0  0  0  0  0
  161.4580  208.3530  154.7900 C   0  0  0  0  0  0  0  0  0  0  0  0
  162.0560  207.9340  155.9180 N   0  0  0  0  0  0  0  0  0  0  0  0
  161.6640  207.8710  153.5020 C   0  0  0  0  0  3  0  0  0  0  0  0
  160.7380  209.5890  156.4140 C   0  0  0  0  0  0  0  0  0  0  0  0
  160.6050  209.3910  155.0530 C   0  0  0  0  0  0  0  0  0  0  0  0
  161.5980  208.7000  156.8720 O   0  0  0  0  0  0  0  0  0  0  0  0
  160.6700  204.2710  150.9710 C   0  0  0  0  0  3  0  0  0  0  0  0
  161.3630  206.3850  149.3260 N   0  0  0  0  0  0  0  0  0  0  0  0
  161.1790  202.5370  147.7360 C   0  0  0  0  0  0  0  0  0  0  0  0
  160.8920  202.7530  149.0920 C   0  0  0  0  0  3  0  0  0  0  0  0
  160.9540  204.0420  149.6270 C   0  0  0  0  0  0  0  0  0  0  0  0
  161.1730  207.9850  151.1140 N   0  0  0  0  0  2  0  0  0  0  0  0
  161.5890  204.9190  147.4520 C   0  0  0  0  0  3  0  0  0  0  0  0
  161.3040  205.1320  148.8030 C   0  0  0  0  0  0  0  0  0  0  0  0
  161.5270  203.6260  146.9220 C   0  0  0  0  0  3  0  0  0  0  0  0
  161.0930  206.6330  150.6380 C   0  0  0  0  0  0  0  0  0  0  0  0
  160.7390  205.5680  151.4810 C   0  0  0  0  0  3  0  0  0  0  0  0
  161.1120  201.1780  147.1770 C   0  0  0  0  0  0  0  0  0  0  0  0
  161.4600  200.1850  147.8700 O   0  0  0  0  0  1  0  0  0  0  0  0
  160.6610  200.9750  145.8780 O   0  0  0  0  0  0  0  0  0  0  0  0
  158.6600  213.5730  153.9170 C   0  0  0  0  0  3  0  0  0  0  0  0
  157.2070  213.4840  153.5920 C   0  0  0  0  0  2  0  0  0  0  0  0
  156.4240  212.9330  154.7360 C   0  0  0  0  0  0  0  0  0  0  0  0
  156.6310  211.7020  155.2070 C   0  0  0  0  0  3  0  0  0  0  0  0
  159.4070  212.5030  154.1860 C   0  0  0  0  0  3  0  0  0  0  0  0
  157.7110  210.7840  154.7880 C   0  0  0  0  0  3  0  0  0  0  0  0
  158.9120  211.1110  154.2830 C   0  0  0  0  0  0  0  0  0  0  0  0
  155.3560  213.7060  155.2710 N   0  0  0  0  0  0  0  0  0  0  0  0
  154.6550  214.3940  156.3920 C   0  0  0  0  0  2  0  0  0  0  0  0
  154.0710  214.4530  155.1450 C   0  0  0  0  0  2  0  0  0  0  0  0
  1 31  1  0  0  0  0
  1  9  1  0  0  0  0
  3  4  1  0  0  0  0
  3  7  2  0  0  0  0
  4  1  2  0  0  0  0
  5  9  1  0  0  0  0
  5  6  2  0  0  0  0
  6 10  1  0  0  0  0
  7  5  1  0  0  0  0
  8 10  1  0  0  0  0
  8  2  1  0  0  0  0
  9  8  2  0  0  0  0
 11 21  2  0  0  0  0
 12 20  2  0  0  0  0
 13 14  1  0  0  0  0
 14 15  2  0  0  0  0
 15 11  1  0  0  0  0
 16  3  1  0  0  0  0
 17 18  2  0  0  0  0
 18 12  1  0  0  0  0
 18 15  1  0  0  0  0
 19 17  1  0  0  0  0
 19 13  2  0  0  0  0
 20 16  1  0  0  0  0
 20 21  1  0  0  0  0
 22 13  1  0  0  0  0
 22 23  1  0  0  0  0
 24 22  2  0  0  0  0
 25 29  2  0  0  0  0
 26 25  1  0  0  0  0
 26 27  1  0  0  0  0
 27 28  2  0  0  0  0
 27 32  1  0  0  0  0
 29 31  1  0  0  0  0
 30 28  1  0  0  0  0
 31 30  2  0  0  0  0
 32 33  1  0  0  0  0
 34 32  1  0  0  0  0
 34 33  1  0  0  0  0
M  END
>  <MODEL>
2

>  <REMARK>
 VINA RESULT:      -9.0      2.621      3.719
  Name = 
  4 active torsions:
  status: ('A' for Active; 'I' for Inactive)
    1  A    between atoms: C_1  and  C_34
    2  A    between atoms: N_3  and  C_25
    3  A    between atoms: C_7  and  C_11
    4  A    between atoms: C_8  and  N_18
                            x       y       z     vdW  Elec       q    Type
                         _______ _______ _______ _____ _____    ______ ____

>  <TORSDO>
F 4

$$$$
=
 OpenBabel11062409473D

 34 39  0  0  0  0  0  0  0  0999 V2000
  160.5140  209.9390  152.1860 C   0  0  0  0  0  0  0  0  0  0  0  0
  160.7530  213.0840  151.2510 C   0  0  0  0  0  1  0  0  0  0  0  0
  161.1770  207.7570  151.2440 C   0  0  0  0  0  0  0  0  0  0  0  0
  160.5400  208.5290  152.2450 C   0  0  0  0  0  3  0  0  0  0  0  0
  161.7650  209.7910  150.1180 C   0  0  0  0  0  0  0  0  0  0  0  0
  162.2670  210.5860  149.1560 N   0  0  0  0  0  0  0  0  0  0  0  0
  161.8030  208.4020  150.1630 C   0  0  0  0  0  3  0  0  0  0  0  0
  161.2820  211.8370  150.6340 C   0  0  0  0  0  0  0  0  0  0  0  0
  161.1430  210.5370  151.0830 C   0  0  0  0  0  0  0  0  0  0  0  0
  161.9570  211.8070  149.5010 O   0  0  0  0  0  0  0  0  0  0  0  0
  161.1790  204.8530  147.8460 C   0  0  0  0  0  3  0  0  0  0  0  0
  161.2120  204.0530  150.4940 N   0  0  0  0  0  0  0  0  0  0  0  0
  161.1890  201.1650  147.4900 C   0  0  0  0  0  0  0  0  0  0  0  0
  161.1800  202.5270  147.1570 C   0  0  0  0  0  3  0  0  0  0  0  0
  161.1870  203.4970  148.1630 C   0  0  0  0  0  0  0  0  0  0  0  0
  161.2140  206.3220  151.2970 N   0  0  0  0  0  2  0  0  0  0  0  0
  161.2140  201.7510  149.8520 C   0  0  0  0  0  3  0  0  0  0  0  0
  161.2040  203.1080  149.5180 C   0  0  0  0  0  0  0  0  0  0  0  0
  161.2060  200.7840  148.8410 C   0  0  0  0  0  3  0  0  0  0  0  0
  161.2010  205.3850  150.2100 C   0  0  0  0  0  0  0  0  0  0  0  0
  161.1860  205.8020  148.8690 C   0  0  0  0  0  3  0  0  0  0  0  0
  161.1810  200.1470  146.4270 C   0  0  0  0  0  0  0  0  0  0  0  0
  161.8300  199.0760  146.5650 O   0  0  0  0  0  1  0  0  0  0  0  0
  160.4560  200.3580  145.2600 O   0  0  0  0  0  0  0  0  0  0  0  0
  160.4570  211.8090  155.4400 C   0  0  0  0  0  3  0  0  0  0  0  0
  159.5620  212.9800  155.2090 C   0  0  0  0  0  2  0  0  0  0  0  0
  158.1370  212.5590  155.0770 C   0  0  0  0  0  0  0  0  0  0  0  0
  157.7250  211.7570  154.0950 C   0  0  0  0  0  3  0  0  0  0  0  0
  160.6090  210.8290  154.5510 C   0  0  0  0  0  3  0  0  0  0  0  0
  158.5930  211.0720  153.1130 C   0  0  0  0  0  3  0  0  0  0  0  0
  159.8760  210.7090  153.2690 C   0  0  0  0  0  0  0  0  0  0  0  0
  157.1730  213.1160  155.9630 N   0  0  0  0  0  0  0  0  0  0  0  0
  156.2330  214.1940  156.3860 C   0  0  0  0  0  2  0  0  0  0  0  0
  156.3230  213.0770  157.1880 C   0  0  0  0  0  2  0  0  0  0  0  0
  1  4  2  0  0  0  0
  1 31  1  0  0  0  0
  3 16  1  0  0  0  0
  3  4  1  0  0  0  0
  5  7  1  0  0  0  0
  5  9  1  0  0  0  0
  6 10  1  0  0  0  0
  6  5  2  0  0  0  0
  7  3  2  0  0  0  0
  8  9  2  0  0  0  0
  8  2  1  0  0  0  0
  9  1  1  0  0  0  0
 10  8  1  0  0  0  0
 11 15  1  0  0  0  0
 11 21  2  0  0  0  0
 13 19  1  0  0  0  0
 14 13  2  0  0  0  0
 14 15  1  0  0  0  0
 15 18  2  0  0  0  0
 18 17  1  0  0  0  0
 18 12  1  0  0  0  0
 19 17  2  0  0  0  0
 20 12  2  0  0  0  0
 20 16  1  0  0  0  0
 21 20  1  0  0  0  0
 22 23  1  0  0  0  0
 22 13  1  0  0  0  0
 24 22  2  0  0  0  0
 26 25  1  0  0  0  0
 27 26  1  0  0  0  0
 27 32  1  0  0  0  0
 28 27  2  0  0  0  0
 29 25  2  0  0  0  0
 30 31  2  0  0  0  0
 30 28  1  0  0  0  0
 31 29  1  0  0  0  0
 32 33  1  0  0  0  0
 32 34  1  0  0  0  0
 33 34  1  0  0  0  0
M  END
>  <MODEL>
3

>  <REMARK>
 VINA RESULT:      -7.6      2.551      4.294
  Name = 
  4 active torsions:
  status: ('A' for Active; 'I' for Inactive)
    1  A    between atoms: C_1  and  C_34
    2  A    between atoms: N_3  and  C_25
    3  A    between atoms: C_7  and  C_11
    4  A    between atoms: C_8  and  N_18
                            x       y       z     vdW  Elec       q    Type
                         _______ _______ _______ _____ _____    ______ ____

>  <TORSDO>
F 4

$$$$
