=
 OpenBabel11062409053D

 37 41  0  0  1  0  0  0  0  0999 V2000
  159.8200  212.1720  156.0870 C   0  0  0  0  0  0  0  0  0  0  0  0
  158.2930  212.9610  152.7780 C   0  0  0  0  0  0  0  0  0  0  0  0
  158.4050  214.2380  155.3500 C   0  0  0  0  0  2  0  0  0  0  0  0
  159.1540  213.0130  151.7480 C   0  0  0  0  0  3  0  0  0  0  0  0
  158.6080  212.0490  153.9670 C   0  0  1  0  0  3  0  0  0  0  0  0
  158.8720  213.7070  150.5230 N   0  0  0  0  0  0  0  0  0  0  0  0
  156.9530  214.4530  155.1880 C   0  0  0  0  0  3  0  0  0  0  0  0
  159.8610  211.2960  153.7970 N   0  0  1  0  0  0  0  0  0  0  0  0
  159.3310  211.2230  157.1820 C   0  0  0  0  0  1  0  0  0  0  0  0
  156.0390  213.3540  151.7110 C   0  0  0  0  0  2  0  0  0  0  0  0
  156.3430  214.2070  154.0240 C   0  0  0  0  0  3  0  0  0  0  0  0
  160.6070  211.3870  155.0610 C   0  0  0  0  0  2  0  0  0  0  0  0
  157.0430  213.8250  152.7390 C   0  0  1  0  0  3  0  0  0  0  0  0
  158.6170  212.7210  155.3390 C   0  0  1  0  0  3  0  0  0  0  0  0
  157.6520  213.3240  149.7800 C   0  0  1  0  0  3  0  0  0  0  0  0
  160.7230  213.2440  156.7160 C   0  0  0  0  0  1  0  0  0  0  0  0
  156.3840  213.9560  150.3670 C   0  0  0  0  0  2  0  0  0  0  0  0
  156.7360  214.2900  147.6230 C   0  0  0  0  0  3  0  0  0  0  0  0
  157.7320  213.5550  148.3020 C   0  0  0  0  0  0  0  0  0  0  0  0
  158.7540  212.9440  147.5790 C   0  0  0  0  0  3  0  0  0  0  0  0
  159.7990  212.4760  145.4910 F   0  0  0  0  0  0  0  0  0  0  0  0
  157.8180  213.8000  145.5140 C   0  0  0  0  0  3  0  0  0  0  0  0
  158.8030  213.0660  146.1840 C   0  0  0  0  0  0  0  0  0  0  0  0
  156.7840  214.4160  146.2320 C   0  0  0  0  0  3  0  0  0  0  0  0
  159.6770  208.8600  154.5900 C   0  0  0  0  0  2  0  0  0  0  0  0
  161.1410  208.4530  154.8110 C   0  0  1  0  0  3  0  0  0  0  0  0
  161.8230  208.0560  153.5020 C   0  0  0  0  0  2  0  0  0  0  0  0
  160.1950  209.4340  152.1750 C   0  0  0  0  0  2  0  0  0  0  0  0
  161.6840  209.1450  152.4380 C   0  0  2  0  0  3  0  0  0  0  0  0
  159.4900  209.9020  153.4590 C   0  0  2  0  0  3  0  0  0  0  0  0
  162.4190  208.7140  151.1650 C   0  0  2  0  0  3  0  0  0  0  0  0
  161.9420  209.4950  149.9560 C   0  0  0  0  0  1  0  0  0  0  0  0
  162.2830  207.3560  150.9350 F   0  0  0  0  0  0  0  0  0  0  0  0
  161.8720  209.4940  155.4800 N   0  0  0  0  0  0  0  0  0  0  0  0
  162.4570  209.2670  156.4960 O   0  0  0  0  0  0  0  0  0  0  0  0
  159.9670  214.4480  149.9000 C   0  0  0  0  0  2  0  0  0  0  0  0
  161.1160  213.5050  149.5730 C   0  0  0  0  0  1  0  0  0  0  0  0
  1 16  1  0  0  0  0
  1  9  1  0  0  0  0
  4  2  2  0  0  0  0
  5  2  1  6  0  0  0
  5 14  1  0  0  0  0
  6  4  1  0  0  0  0
  7  3  1  0  0  0  0
  8  5  1  0  0  0  0
  8 12  1  1  0  0  0
 11  7  2  0  0  0  0
 12  1  1  0  0  0  0
 13 10  1  6  0  0  0
 13  2  1  0  0  0  0
 13 11  1  0  0  0  0
 14  3  1  6  0  0  0
 14  1  1  0  0  0  0
 15 19  1  6  0  0  0
 15 17  1  0  0  0  0
 15  6  1  0  0  0  0
 17 10  1  0  0  0  0
 18 19  1  0  0  0  0
 20 19  2  0  0  0  0
 21 23  1  0  0  0  0
 22 23  2  0  0  0  0
 22 24  1  0  0  0  0
 23 20  1  0  0  0  0
 24 18  2  0  0  0  0
 25 26  1  0  0  0  0
 26 34  1  6  0  0  0
 27 26  1  0  0  0  0
 28 29  1  0  0  0  0
 29 31  1  6  0  0  0
 29 27  1  0  0  0  0
 30 28  1  6  0  0  0
 30  8  1  0  0  0  0
 30 25  1  0  0  0  0
 31 32  1  6  0  0  0
 33 31  1  0  0  0  0
 34 35  2  0  0  0  0
 36  6  1  0  0  0  0
 37 36  1  0  0  0  0
M  END
>  <MODEL>
1

>  <REMARK>
 VINA RESULT:      -3.9      0.000      0.000
  Name = 
  5 active torsions:
  status: ('A' for Active; 'I' for Inactive)
    1  A    between atoms: C_5  and  N_12
    2  A    between atoms: C_6  and  C_31
    3  A    between atoms: C_7  and  N_14
    4  A    between atoms: C_11  and  C_33
    5  A    between atoms: N_20  and  C_36
                            x       y       z     vdW  Elec       q    Type
                         _______ _______ _______ _____ _____    ______ ____

>  <TORSDO>
F 5

$$$$
=
 OpenBabel11062409053D

 37 41  0  0  1  0  0  0  0  0999 V2000
  158.6020  212.7540  154.9650 C   0  0  0  0  0  0  0  0  0  0  0  0
  158.3650  212.9520  151.2490 C   0  0  0  0  0  0  0  0  0  0  0  0
  157.3120  214.4530  153.4610 C   0  0  0  0  0  2  0  0  0  0  0  0
  159.5390  213.0670  150.6060 C   0  0  0  0  0  3  0  0  0  0  0  0
  158.3210  212.2230  152.5950 C   0  0  1  0  0  3  0  0  0  0  0  0
  159.6560  213.5850  149.2720 N   0  0  0  0  0  0  0  0  0  0  0  0
  156.0180  214.3850  152.7540 C   0  0  0  0  0  3  0  0  0  0  0  0
  159.6330  211.6980  153.0070 N   0  0  1  0  0  0  0  0  0  0  0  0
  157.8650  211.8350  155.9390 C   0  0  0  0  0  1  0  0  0  0  0  0
  156.6600  212.8300  149.3910 C   0  0  0  0  0  2  0  0  0  0  0  0
  155.9380  213.9290  151.4990 C   0  0  0  0  0  3  0  0  0  0  0  0
  159.8200  212.0360  154.4250 C   0  0  0  0  0  2  0  0  0  0  0  0
  157.1210  213.5670  150.6290 C   0  0  1  0  0  3  0  0  0  0  0  0
  157.7140  213.0060  153.7580 C   0  0  1  0  0  3  0  0  0  0  0  0
  158.8770  212.9210  148.2050 C   0  0  1  0  0  3  0  0  0  0  0  0
  159.0430  214.0240  155.7090 C   0  0  0  0  0  1  0  0  0  0  0  0
  157.4090  213.3620  148.1890 C   0  0  0  0  0  2  0  0  0  0  0  0
  160.8570  213.3210  146.6720 C   0  0  0  0  0  3  0  0  0  0  0  0
  159.4850  213.0290  146.8400 C   0  0  0  0  0  0  0  0  0  0  0  0
  158.6560  212.9400  145.7240 C   0  0  0  0  0  3  0  0  0  0  0  0
  158.3700  213.0350  143.3620 F   0  0  0  0  0  0  0  0  0  0  0  0
  160.5390  213.4110  144.2740 C   0  0  0  0  0  3  0  0  0  0  0  0
  159.1790  213.1280  144.4380 C   0  0  0  0  0  0  0  0  0  0  0  0
  161.3810  213.5060  145.3900 C   0  0  0  0  0  3  0  0  0  0  0  0
  160.2030  209.3610  153.9070 C   0  0  0  0  0  2  0  0  0  0  0  0
  161.7380  209.3660  153.9460 C   0  0  1  0  0  3  0  0  0  0  0  0
  162.3420  209.0690  152.5740 C   0  0  0  0  0  2  0  0  0  0  0  0
  160.2590  209.8770  151.4250 C   0  0  0  0  0  2  0  0  0  0  0  0
  161.7910  210.0050  151.4980 C   0  0  2  0  0  3  0  0  0  0  0  0
  159.6120  210.2350  152.7730 C   0  0  2  0  0  3  0  0  0  0  0  0
  162.4580  209.6910  150.1560 C   0  0  2  0  0  3  0  0  0  0  0  0
  162.2610  210.8180  149.1600 C   0  0  0  0  0  1  0  0  0  0  0  0
  161.9940  208.5020  149.6230 F   0  0  0  0  0  0  0  0  0  0  0  0
  162.2380  210.6070  154.4730 N   0  0  0  0  0  0  0  0  0  0  0  0
  162.9010  210.6210  155.4660 O   0  0  0  0  0  0  0  0  0  0  0  0
  160.7960  214.4530  148.9830 C   0  0  0  0  0  2  0  0  0  0  0  0
  161.9030  214.2210  150.0020 C   0  0  0  0  0  1  0  0  0  0  0  0
  1 16  1  0  0  0  0
  1  9  1  0  0  0  0
  4  2  2  0  0  0  0
  5  2  1  6  0  0  0
  5  8  1  0  0  0  0
  5 14  1  0  0  0  0
  6  4  1  0  0  0  0
  7  3  1  0  0  0  0
  8 12  1  1  0  0  0
 11  7  2  0  0  0  0
 12  1  1  0  0  0  0
 13 10  1  6  0  0  0
 13  2  1  0  0  0  0
 13 11  1  0  0  0  0
 14  3  1  6  0  0  0
 14  1  1  0  0  0  0
 15 19  1  6  0  0  0
 15  6  1  0  0  0  0
 17 15  1  0  0  0  0
 17 10  1  0  0  0  0
 18 19  1  0  0  0  0
 20 19  2  0  0  0  0
 21 23  1  0  0  0  0
 22 23  2  0  0  0  0
 22 24  1  0  0  0  0
 23 20  1  0  0  0  0
 24 18  2  0  0  0  0
 25 26  1  0  0  0  0
 26 34  1  6  0  0  0
 27 26  1  0  0  0  0
 28 29  1  0  0  0  0
 29 31  1  6  0  0  0
 29 27  1  0  0  0  0
 30 28  1  6  0  0  0
 30  8  1  0  0  0  0
 30 25  1  0  0  0  0
 31 32  1  6  0  0  0
 33 31  1  0  0  0  0
 34 35  2  0  0  0  0
 36  6  1  0  0  0  0
 36 37  1  0  0  0  0
M  END
>  <MODEL>
2

>  <REMARK>
 VINA RESULT:      -3.2      1.346      2.066
  Name = 
  5 active torsions:
  status: ('A' for Active; 'I' for Inactive)
    1  A    between atoms: C_5  and  N_12
    2  A    between atoms: C_6  and  C_31
    3  A    between atoms: C_7  and  N_14
    4  A    between atoms: C_11  and  C_33
    5  A    between atoms: N_20  and  C_36
                            x       y       z     vdW  Elec       q    Type
                         _______ _______ _______ _____ _____    ______ ____

>  <TORSDO>
F 5

$$$$
=
 OpenBabel11062409053D

 37 41  0  0  1  0  0  0  0  0999 V2000
  161.2160  209.2370  154.6540 C   0  0  0  0  0  0  0  0  0  0  0  0
  160.4100  211.1800  151.5750 C   0  0  0  0  0  0  0  0  0  0  0  0
  160.7510  211.7890  154.3620 C   0  0  0  0  0  2  0  0  0  0  0  0
  161.3210  211.0950  150.5900 C   0  0  0  0  0  3  0  0  0  0  0  0
  160.2490  210.0050  152.5440 C   0  0  1  0  0  3  0  0  0  0  0  0
  161.4340  212.0670  149.5400 N   0  0  0  0  0  0  0  0  0  0  0  0
  159.5080  212.5740  154.2340 C   0  0  0  0  0  3  0  0  0  0  0  0
  161.1390  208.8750  152.2300 N   0  0  1  0  0  0  0  0  0  0  0  0
  160.3080  208.3570  155.5140 C   0  0  0  0  0  1  0  0  0  0  0  0
  158.5770  212.6100  150.5910 C   0  0  0  0  0  2  0  0  0  0  0  0
  158.9610  212.8130  153.0370 C   0  0  0  0  0  3  0  0  0  0  0  0
  161.7440  208.4250  153.4920 C   0  0  0  0  0  2  0  0  0  0  0  0
  159.5840  212.4480  151.7080 C   0  0  1  0  0  3  0  0  0  0  0  0
  160.3810  210.3420  154.0280 C   0  0  1  0  0  3  0  0  0  0  0  0
  160.2340  212.3350  148.7180 C   0  0  1  0  0  3  0  0  0  0  0  0
  162.3920  209.7340  155.5100 C   0  0  0  0  0  1  0  0  0  0  0  0
  159.2460  213.2800  149.4120 C   0  0  0  0  0  2  0  0  0  0  0  0
  161.2520  213.9930  147.0910 C   0  0  0  0  0  3  0  0  0  0  0  0
  160.5330  212.8000  147.3250 C   0  0  0  0  0  0  0  0  0  0  0  0
  160.0000  212.0930  146.2500 C   0  0  0  0  0  3  0  0  0  0  0  0
  159.6690  211.8590  143.9040 F   0  0  0  0  0  0  0  0  0  0  0  0
  160.9020  213.7310  144.7100 C   0  0  0  0  0  3  0  0  0  0  0  0
  160.1840  212.5530  144.9400 C   0  0  0  0  0  0  0  0  0  0  0  0
  161.4400  214.4520  145.7850 C   0  0  0  0  0  3  0  0  0  0  0  0
  160.5050  206.3880  152.1380 C   0  0  0  0  0  2  0  0  0  0  0  0
  161.7920  205.7170  151.6390 C   0  0  1  0  0  3  0  0  0  0  0  0
  161.9320  205.8170  150.1200 C   0  0  0  0  0  2  0  0  0  0  0  0
  160.4550  207.8490  150.0650 C   0  0  0  0  0  2  0  0  0  0  0  0
  161.8100  207.2620  149.6340 C   0  0  2  0  0  3  0  0  0  0  0  0
  160.3080  207.8260  151.5960 C   0  0  2  0  0  3  0  0  0  0  0  0
  161.9990  207.3070  148.1140 C   0  0  2  0  0  3  0  0  0  0  0  0
  161.9590  205.9180  147.5070 C   0  0  0  0  0  1  0  0  0  0  0  0
  163.1780  207.9420  147.7670 F   0  0  0  0  0  0  0  0  0  0  0  0
  162.9480  206.2590  152.3000 N   0  0  0  0  0  0  0  0  0  0  0  0
  163.7560  205.5340  152.7980 O   0  0  0  0  0  0  0  0  0  0  0  0
  162.7800  212.4340  149.1030 C   0  0  0  0  0  2  0  0  0  0  0  0
  163.3530  211.3470  148.2060 C   0  0  0  0  0  1  0  0  0  0  0  0
  1 16  1  0  0  0  0
  1  9  1  0  0  0  0
  2 13  1  0  0  0  0
  4  2  2  0  0  0  0
  5  2  1  6  0  0  0
  5 14  1  0  0  0  0
  6  4  1  0  0  0  0
  7  3  1  0  0  0  0
  8  5  1  0  0  0  0
  8 12  1  1  0  0  0
 11  7  2  0  0  0  0
 12  1  1  0  0  0  0
 13 10  1  6  0  0  0
 13 11  1  0  0  0  0
 14  3  1  6  0  0  0
 14  1  1  0  0  0  0
 15 19  1  6  0  0  0
 15 17  1  0  0  0  0
 15  6  1  0  0  0  0
 17 10  1  0  0  0  0
 18 19  1  0  0  0  0
 20 19  2  0  0  0  0
 21 23  1  0  0  0  0
 22 23  2  0  0  0  0
 22 24  1  0  0  0  0
 23 20  1  0  0  0  0
 24 18  2  0  0  0  0
 26 25  1  0  0  0  0
 26 34  1  1  0  0  0
 27 26  1  0  0  0  0
 29 31  1  6  0  0  0
 29 28  1  0  0  0  0
 29 27  1  0  0  0  0
 30 28  1  6  0  0  0
 30 25  1  0  0  0  0
 30  8  1  0  0  0  0
 31 32  1  1  0  0  0
 33 31  1  0  0  0  0
 34 35  2  0  0  0  0
 36  6  1  0  0  0  0
 37 36  1  0  0  0  0
M  END
>  <MODEL>
3

>  <REMARK>
 VINA RESULT:      -1.1      2.430      3.467
  Name = 
  5 active torsions:
  status: ('A' for Active; 'I' for Inactive)
    1  A    between atoms: C_5  and  N_12
    2  A    between atoms: C_6  and  C_31
    3  A    between atoms: C_7  and  N_14
    4  A    between atoms: C_11  and  C_33
    5  A    between atoms: N_20  and  C_36
                            x       y       z     vdW  Elec       q    Type
                         _______ _______ _______ _____ _____    ______ ____

>  <TORSDO>
F 5

$$$$
