=
 OpenBabel11052422573D

 28 32  0  0  1  0  0  0  0  0999 V2000
  161.1710  209.2310  152.8780 N   0  0  0  0  0  0  0  0  0  0  0  0
  161.2640  207.0300  148.2960 C   0  0  0  0  0  2  0  0  0  0  0  0
  161.1570  204.4600  153.7920 F   0  0  0  0  0  0  0  0  0  0  0  0
  161.2470  204.6460  148.7580 C   0  0  0  0  0  0  0  0  0  0  0  0
  161.2220  206.2490  150.5710 C   0  0  0  0  0  0  0  0  0  0  0  0
  161.2900  205.4490  146.4690 C   0  0  0  0  0  0  0  0  0  0  0  0
  161.2450  205.9830  149.2390 C   0  0  0  0  0  0  0  0  0  0  0  0
  161.2040  203.7560  151.0800 C   0  0  0  0  0  3  0  0  0  0  0  0
  161.2700  204.3950  147.3820 C   0  0  0  0  0  3  0  0  0  0  0  0
  161.1710  206.8100  153.3410 C   0  0  0  0  0  0  0  0  0  0  0  0
  161.2170  207.5750  151.0400 C   0  0  0  0  0  3  0  0  0  0  0  0
  161.2290  203.6020  149.5890 C   0  0  0  0  0  3  0  0  0  0  0  0
  161.1640  208.4700  155.1540 C   0  0  0  0  0  3  0  0  0  0  0  0
  161.1740  205.4810  152.8940 C   0  0  0  0  0  0  0  0  0  0  0  0
  161.1580  207.0810  154.6550 C   0  0  0  0  0  3  0  0  0  0  0  0
  161.3140  205.1680  145.0100 C   0  0  0  0  0  1  0  0  0  0  0  0
  161.2880  206.7670  146.9250 C   0  0  0  0  0  3  0  0  0  0  0  0
  161.1990  205.1970  151.5190 C   0  0  0  0  0  0  0  0  0  0  0  0
  161.1720  209.4870  154.2910 C   0  0  0  0  0  3  0  0  0  0  0  0
  161.1860  207.8660  152.4070 C   0  0  0  0  0  0  0  0  0  0  0  0
  161.1780  210.3640  151.9530 C   0  0  0  0  0  2  0  0  0  0  0  0
  160.2690  211.5050  152.4170 C   0  0  2  0  0  3  0  0  0  0  0  0
  158.1150  213.3590  152.7140 C   0  0  0  0  0  0  0  0  0  0  0  0
  158.9010  210.9890  152.8600 C   0  0  0  0  0  2  0  0  0  0  0  0
  160.0920  212.5680  151.3380 C   0  0  0  0  0  2  0  0  0  0  0  0
  159.3230  213.7620  151.9040 C   0  0  0  0  0  2  0  0  0  0  0  0
  157.1460  214.4130  153.1240 C   0  0  0  0  0  1  0  0  0  0  0  0
  157.9700  212.1190  153.2100 C   0  0  0  0  0  3  0  0  0  0  0  0
  1 19  1  0  0  0  0
  2  7  1  0  0  0  0
  4  7  1  0  0  0  0
  4 12  1  0  0  0  0
  5 11  1  0  0  0  0
  5 18  1  0  0  0  0
  6 17  2  0  0  0  0
  6  9  1  0  0  0  0
  7  5  2  0  0  0  0
  8 18  1  0  0  0  0
  9  4  2  0  0  0  0
 10 15  2  0  0  0  0
 11 20  2  0  0  0  0
 12  8  2  0  0  0  0
 14 10  1  0  0  0  0
 14  3  1  0  0  0  0
 15 13  1  0  0  0  0
 16  6  1  0  0  0  0
 17  2  1  0  0  0  0
 18 14  2  0  0  0  0
 19 13  2  0  0  0  0
 20  1  1  0  0  0  0
 20 10  1  0  0  0  0
 21  1  1  0  0  0  0
 22 21  1  6  0  0  0
 22 24  1  0  0  0  0
 23 27  1  0  0  0  0
 23 28  2  0  0  0  0
 24 28  1  0  0  0  0
 25 26  1  0  0  0  0
 25 22  1  0  0  0  0
 26 23  1  0  0  0  0
M  END
>  <MODEL>
1

>  <REMARK>
 VINA RESULT:     -10.8      0.000      0.000
  Name = 
  2 active torsions:
  status: ('A' for Active; 'I' for Inactive)
    1  A    between atoms: N_1  and  C_2
    2  A    between atoms: C_2  and  C_3
                            x       y       z     vdW  Elec       q    Type
                         _______ _______ _______ _____ _____    ______ ____

>  <TORSDO>
F 2

$$$$
=
 OpenBabel11052422573D

 28 32  0  0  1  0  0  0  0  0999 V2000
  160.9000  207.6740  152.6130 N   0  0  0  0  0  0  0  0  0  0  0  0
  161.1460  206.5360  147.6640 C   0  0  0  0  0  3  0  0  0  0  0  0
  161.1470  202.8240  152.4660 F   0  0  0  0  0  0  0  0  0  0  0  0
  161.2590  204.1100  147.5950 C   0  0  0  0  0  0  0  0  0  0  0  0
  161.1330  205.2750  149.7130 C   0  0  0  0  0  0  0  0  0  0  0  0
  161.2710  205.3960  145.5380 C   0  0  0  0  0  0  0  0  0  0  0  0
  161.1780  205.3070  148.3560 C   0  0  0  0  0  0  0  0  0  0  0  0
  161.2500  202.7330  149.6670 C   0  0  0  0  0  2  0  0  0  0  0  0
  161.3050  204.1680  146.1990 C   0  0  0  0  0  3  0  0  0  0  0  0
  161.0320  205.2130  152.5380 C   0  0  0  0  0  0  0  0  0  0  0  0
  161.0500  206.4640  150.4600 C   0  0  0  0  0  3  0  0  0  0  0  0
  161.2930  202.9100  148.1780 C   0  0  0  0  0  3  0  0  0  0  0  0
  160.9200  206.4340  154.6680 C   0  0  0  0  0  3  0  0  0  0  0  0
  161.1120  204.0160  151.8120 C   0  0  0  0  0  0  0  0  0  0  0  0
  160.9960  205.1900  153.8790 C   0  0  0  0  0  3  0  0  0  0  0  0
  161.3200  205.4420  144.0530 C   0  0  0  0  0  1  0  0  0  0  0  0
  161.1920  206.5790  146.2700 C   0  0  0  0  0  3  0  0  0  0  0  0
  161.1620  204.0410  150.4080 C   0  0  0  0  0  0  0  0  0  0  0  0
  160.8780  207.6140  154.0480 C   0  0  0  0  0  3  0  0  0  0  0  0
  160.9940  206.4470  151.8570 C   0  0  0  0  0  0  0  0  0  0  0  0
  160.8500  208.9800  151.9580 C   0  0  0  0  0  2  0  0  0  0  0  0
  160.2600  210.0660  152.8600 C   0  0  2  0  0  3  0  0  0  0  0  0
  159.6380  212.5470  154.1330 C   0  0  0  0  0  0  0  0  0  0  0  0
  159.5870  211.1700  152.0470 C   0  0  0  0  0  2  0  0  0  0  0  0
  161.3100  210.6760  153.7830 C   0  0  0  0  0  2  0  0  0  0  0  0
  160.6440  211.6250  154.7780 C   0  0  0  0  0  2  0  0  0  0  0  0
  159.0900  213.6770  154.9340 C   0  0  0  0  0  1  0  0  0  0  0  0
  159.1050  212.2920  152.9270 C   0  0  0  0  0  3  0  0  0  0  0  0
  1 19  1  0  0  0  0
  2  7  1  0  0  0  0
  4 12  2  0  0  0  0
  4  7  1  0  0  0  0
  5 18  1  0  0  0  0
  5 11  1  0  0  0  0
  6  9  2  0  0  0  0
  6 17  1  0  0  0  0
  7  5  2  0  0  0  0
  8 18  1  0  0  0  0
  9  4  1  0  0  0  0
 10 15  2  0  0  0  0
 11 20  2  0  0  0  0
 12  8  1  0  0  0  0
 14  3  1  0  0  0  0
 14 10  1  0  0  0  0
 15 13  1  0  0  0  0
 16  6  1  0  0  0  0
 17  2  2  0  0  0  0
 18 14  2  0  0  0  0
 19 13  2  0  0  0  0
 20 10  1  0  0  0  0
 20  1  1  0  0  0  0
 21  1  1  0  0  0  0
 22 21  1  6  0  0  0
 22 25  1  0  0  0  0
 23 26  1  0  0  0  0
 23 27  1  0  0  0  0
 24 22  1  0  0  0  0
 24 28  1  0  0  0  0
 25 26  1  0  0  0  0
 28 23  2  0  0  0  0
M  END
>  <MODEL>
2

>  <REMARK>
 VINA RESULT:     -10.5      1.240      1.812
  Name = 
  2 active torsions:
  status: ('A' for Active; 'I' for Inactive)
    1  A    between atoms: N_1  and  C_2
    2  A    between atoms: C_2  and  C_3
                            x       y       z     vdW  Elec       q    Type
                         _______ _______ _______ _____ _____    ______ ____

>  <TORSDO>
F 2

$$$$
=
 OpenBabel11052422573D

 28 32  0  0  1  0  0  0  0  0999 V2000
  162.0660  208.9410  150.3480 N   0  0  0  0  0  0  0  0  0  0  0  0
  161.4880  204.5170  147.9100 C   0  0  0  0  0  2  0  0  0  0  0  0
  160.8630  205.7600  153.8170 F   0  0  0  0  0  0  0  0  0  0  0  0
  160.8770  202.9330  149.6470 C   0  0  0  0  0  0  0  0  0  0  0  0
  161.3030  205.2520  150.1940 C   0  0  0  0  0  0  0  0  0  0  0  0
  161.0670  202.2080  147.3400 C   0  0  0  0  0  0  0  0  0  0  0  0
  161.2250  204.2580  149.2720 C   0  0  0  0  0  0  0  0  0  0  0  0
  160.6640  203.6110  152.0310 C   0  0  0  0  0  3  0  0  0  0  0  0
  160.8020  201.9250  148.6800 C   0  0  0  0  0  3  0  0  0  0  0  0
  161.4620  207.3250  152.1090 C   0  0  0  0  0  0  0  0  0  0  0  0
  161.6460  206.5620  149.8140 C   0  0  0  0  0  3  0  0  0  0  0  0
  160.6140  202.6100  150.9150 C   0  0  0  0  0  3  0  0  0  0  0  0
  161.9200  209.6840  152.6260 C   0  0  0  0  0  3  0  0  0  0  0  0
  161.1170  206.0260  152.5080 C   0  0  0  0  0  0  0  0  0  0  0  0
  161.5500  208.3100  153.0160 C   0  0  0  0  0  3  0  0  0  0  0  0
  160.9840  201.1270  146.3220 C   0  0  0  0  0  1  0  0  0  0  0  0
  161.4100  203.5020  146.9550 C   0  0  0  0  0  3  0  0  0  0  0  0
  161.0360  204.9920  151.5610 C   0  0  0  0  0  0  0  0  0  0  0  0
  162.1660  209.9690  151.3460 C   0  0  0  0  0  3  0  0  0  0  0  0
  161.7230  207.5970  150.7510 C   0  0  0  0  0  0  0  0  0  0  0  0
  162.3390  209.2810  148.9520 C   0  0  0  0  0  2  0  0  0  0  0  0
  161.8560  210.6860  148.5850 C   0  0  2  0  0  3  0  0  0  0  0  0
  161.2570  213.1170  147.2100 C   0  0  0  0  0  0  0  0  0  0  0  0
  160.8700  210.6560  147.4200 C   0  0  0  0  0  2  0  0  0  0  0  0
  163.0150  211.6190  148.2530 C   0  0  0  0  0  2  0  0  0  0  0  0
  162.4990  213.0450  148.0650 C   0  0  0  0  0  2  0  0  0  0  0  0
  160.7840  214.4530  146.7500 C   0  0  0  0  0  1  0  0  0  0  0  0
  160.4810  212.0450  146.9870 C   0  0  0  0  0  3  0  0  0  0  0  0
  1 20  1  0  0  0  0
  1 19  1  0  0  0  0
  2  7  1  0  0  0  0
  4 12  1  0  0  0  0
  5 18  1  0  0  0  0
  6  9  1  0  0  0  0
  7  4  1  0  0  0  0
  7  5  2  0  0  0  0
  9  4  2  0  0  0  0
 10 14  1  0  0  0  0
 10 15  2  0  0  0  0
 11  5  1  0  0  0  0
 11 20  2  0  0  0  0
 12  8  2  0  0  0  0
 13 15  1  0  0  0  0
 14  3  1  0  0  0  0
 16  6  1  0  0  0  0
 17  6  2  0  0  0  0
 17  2  1  0  0  0  0
 18  8  1  0  0  0  0
 18 14  2  0  0  0  0
 19 13  2  0  0  0  0
 20 10  1  0  0  0  0
 21  1  1  0  0  0  0
 22 21  1  6  0  0  0
 23 26  1  0  0  0  0
 24 22  1  0  0  0  0
 25 22  1  0  0  0  0
 26 25  1  0  0  0  0
 27 23  1  0  0  0  0
 28 23  2  0  0  0  0
 28 24  1  0  0  0  0
M  END
>  <MODEL>
3

>  <REMARK>
 VINA RESULT:     -10.2      2.632      3.552
  Name = 
  2 active torsions:
  status: ('A' for Active; 'I' for Inactive)
    1  A    between atoms: N_1  and  C_2
    2  A    between atoms: C_2  and  C_3
                            x       y       z     vdW  Elec       q    Type
                         _______ _______ _______ _____ _____    ______ ____

>  <TORSDO>
F 2

$$$$
=
 OpenBabel11052422573D

 28 32  0  0  1  0  0  0  0  0999 V2000
  161.2970  205.1600  148.6320 N   0  0  0  0  0  0  0  0  0  0  0  0
  160.7080  206.3740  153.5350 C   0  0  0  0  0  2  0  0  0  0  0  0
  162.3260  209.9020  148.8690 F   0  0  0  0  0  0  0  0  0  0  0  0
  161.2140  208.7470  153.6450 C   0  0  0  0  0  0  0  0  0  0  0  0
  161.3310  207.5630  151.5380 C   0  0  0  0  0  0  0  0  0  0  0  0
  160.5840  207.5340  155.6500 C   0  0  0  0  0  0  0  0  0  0  0  0
  161.0900  207.5600  152.8740 C   0  0  0  0  0  0  0  0  0  0  0  0
  161.8650  210.0500  151.6290 C   0  0  0  0  0  3  0  0  0  0  0  0
  160.9600  208.7200  155.0210 C   0  0  0  0  0  3  0  0  0  0  0  0
  161.8260  207.5650  148.7540 C   0  0  0  0  0  0  0  0  0  0  0  0
  161.2030  206.3850  150.7800 C   0  0  0  0  0  3  0  0  0  0  0  0
  161.5700  209.9080  153.0930 C   0  0  0  0  0  3  0  0  0  0  0  0
  161.9500  206.3230  146.6370 C   0  0  0  0  0  3  0  0  0  0  0  0
  161.9560  208.7510  149.4920 C   0  0  0  0  0  0  0  0  0  0  0  0
  162.0700  207.5580  147.4350 C   0  0  0  0  0  3  0  0  0  0  0  0
  160.3180  207.5200  157.1130 C   0  0  0  0  0  1  0  0  0  0  0  0
  160.4590  206.3610  154.9080 C   0  0  0  0  0  3  0  0  0  0  0  0
  161.7110  208.7550  150.8740 C   0  0  0  0  0  0  0  0  0  0  0  0
  161.5820  205.1840  147.2250 C   0  0  0  0  0  3  0  0  0  0  0  0
  161.4400  206.3730  149.4020 C   0  0  0  0  0  0  0  0  0  0  0  0
  160.8930  203.8980  149.2520 C   0  0  0  0  0  2  0  0  0  0  0  0
  161.2770  202.6820  148.4070 C   0  0  2  0  0  3  0  0  0  0  0  0
  161.2280  200.2740  146.8700 C   0  0  0  0  0  0  0  0  0  0  0  0
  160.5390  202.6690  147.0710 C   0  0  0  0  0  2  0  0  0  0  0  0
  161.0250  201.3710  149.1460 C   0  0  0  0  0  2  0  0  0  0  0  0
  161.5810  200.2010  148.3360 C   0  0  0  0  0  2  0  0  0  0  0  0
  161.5000  199.0880  146.0110 C   0  0  0  0  0  1  0  0  0  0  0  0
  160.8310  201.4170  146.2880 C   0  0  0  0  0  3  0  0  0  0  0  0
  1 21  1  0  0  0  0
  1 20  1  0  0  0  0
  2 17  1  0  0  0  0
  3 14  1  0  0  0  0
  4  9  2  0  0  0  0
  5  7  2  0  0  0  0
  6 16  1  0  0  0  0
  7  2  1  0  0  0  0
  7  4  1  0  0  0  0
  8 12  2  0  0  0  0
  9  6  1  0  0  0  0
 10 20  1  0  0  0  0
 10 14  1  0  0  0  0
 11  5  1  0  0  0  0
 12  4  1  0  0  0  0
 13 19  2  0  0  0  0
 13 15  1  0  0  0  0
 14 18  2  0  0  0  0
 15 10  2  0  0  0  0
 17  6  2  0  0  0  0
 18  5  1  0  0  0  0
 18  8  1  0  0  0  0
 19  1  1  0  0  0  0
 20 11  2  0  0  0  0
 22 25  1  0  0  0  0
 22 21  1  1  0  0  0
 23 26  1  0  0  0  0
 24 22  1  0  0  0  0
 26 25  1  0  0  0  0
 27 23  1  0  0  0  0
 28 23  2  0  0  0  0
 28 24  1  0  0  0  0
M  END
>  <MODEL>
4

>  <REMARK>
 VINA RESULT:      -9.9      2.891      8.857
  Name = 
  2 active torsions:
  status: ('A' for Active; 'I' for Inactive)
    1  A    between atoms: N_1  and  C_2
    2  A    between atoms: C_2  and  C_3
                            x       y       z     vdW  Elec       q    Type
                         _______ _______ _______ _____ _____    ______ ____

>  <TORSDO>
F 2

$$$$
=
 OpenBabel11052422573D

 28 32  0  0  1  0  0  0  0  0999 V2000
  161.0610  203.4800  149.6160 N   0  0  0  0  0  0  0  0  0  0  0  0
  161.7580  208.4530  148.8220 C   0  0  0  0  0  2  0  0  0  0  0  0
  161.1140  205.4490  154.0560 F   0  0  0  0  0  0  0  0  0  0  0  0
  161.7940  209.4310  151.0450 C   0  0  0  0  0  0  0  0  0  0  0  0
  161.4790  207.0490  150.7560 C   0  0  0  0  0  0  0  0  0  0  0  0
  162.0740  210.8330  149.0850 C   0  0  0  0  0  0  0  0  0  0  0  0
  161.6720  208.2820  150.2190 C   0  0  0  0  0  0  0  0  0  0  0  0
  161.5130  208.0510  153.0950 C   0  0  0  0  0  3  0  0  0  0  0  0
  161.9930  210.6910  150.4700 C   0  0  0  0  0  3  0  0  0  0  0  0
  161.0810  204.4810  151.8680 C   0  0  0  0  0  0  0  0  0  0  0  0
  161.3610  205.9150  149.9330 C   0  0  0  0  0  3  0  0  0  0  0  0
  161.7240  209.3500  152.3750 C   0  0  0  0  0  3  0  0  0  0  0  0
  160.7460  202.0690  151.5320 C   0  0  0  0  0  3  0  0  0  0  0  0
  161.1970  205.5990  152.7060 C   0  0  0  0  0  0  0  0  0  0  0  0
  160.8810  203.2610  152.3910 C   0  0  0  0  0  3  0  0  0  0  0  0
  162.2860  212.1780  148.4870 C   0  0  0  0  0  1  0  0  0  0  0  0
  161.9560  209.7150  148.2610 C   0  0  0  0  0  3  0  0  0  0  0  0
  161.3950  206.8770  152.1590 C   0  0  0  0  0  0  0  0  0  0  0  0
  160.8310  202.1900  150.2060 C   0  0  0  0  0  3  0  0  0  0  0  0
  161.1700  204.6390  150.4700 C   0  0  0  0  0  0  0  0  0  0  0  0
  161.1520  203.5850  148.1600 C   0  0  0  0  0  2  0  0  0  0  0  0
  160.8560  202.2590  147.4560 C   0  0  2  0  0  3  0  0  0  0  0  0
  161.0440  199.8570  145.9200 C   0  0  0  0  0  0  0  0  0  0  0  0
  161.7990  201.1520  147.9220 C   0  0  0  0  0  2  0  0  0  0  0  0
  160.9260  202.3890  145.9380 C   0  0  0  0  0  2  0  0  0  0  0  0
  160.4560  201.0920  145.2810 C   0  0  0  0  0  2  0  0  0  0  0  0
  160.8620  198.5450  145.2390 C   0  0  0  0  0  1  0  0  0  0  0  0
  161.5810  199.8770  147.1510 C   0  0  0  0  0  3  0  0  0  0  0  0
  1 19  1  0  0  0  0
  1 20  1  0  0  0  0
  2  7  1  0  0  0  0
  4 12  1  0  0  0  0
  5 18  1  0  0  0  0
  6  9  1  0  0  0  0
  7  5  2  0  0  0  0
  7  4  1  0  0  0  0
  9  4  2  0  0  0  0
 10 15  2  0  0  0  0
 10 14  1  0  0  0  0
 11 20  2  0  0  0  0
 11  5  1  0  0  0  0
 12  8  2  0  0  0  0
 13 15  1  0  0  0  0
 14  3  1  0  0  0  0
 16  6  1  0  0  0  0
 17  2  1  0  0  0  0
 17  6  2  0  0  0  0
 18 14  2  0  0  0  0
 18  8  1  0  0  0  0
 19 13  2  0  0  0  0
 20 10  1  0  0  0  0
 21  1  1  0  0  0  0
 22 24  1  0  0  0  0
 22 21  1  1  0  0  0
 23 28  2  0  0  0  0
 25 22  1  0  0  0  0
 26 23  1  0  0  0  0
 26 25  1  0  0  0  0
 27 23  1  0  0  0  0
 28 24  1  0  0  0  0
M  END
>  <MODEL>
5

>  <REMARK>
 VINA RESULT:      -9.2      2.869      8.200
  Name = 
  2 active torsions:
  status: ('A' for Active; 'I' for Inactive)
    1  A    between atoms: N_1  and  C_2
    2  A    between atoms: C_2  and  C_3
                            x       y       z     vdW  Elec       q    Type
                         _______ _______ _______ _____ _____    ______ ____

>  <TORSDO>
F 2

$$$$
=
 OpenBabel11052422573D

 28 32  0  0  1  0  0  0  0  0999 V2000
  161.9790  208.1610  149.9040 N   0  0  0  0  0  0  0  0  0  0  0  0
  161.5980  203.3960  148.1710 C   0  0  0  0  0  2  0  0  0  0  0  0
  160.7580  205.5200  153.7930 F   0  0  0  0  0  0  0  0  0  0  0  0
  160.9780  202.0820  150.1170 C   0  0  0  0  0  0  0  0  0  0  0  0
  161.3230  204.4700  150.3060 C   0  0  0  0  0  0  0  0  0  0  0  0
  161.2590  201.0140  147.9570 C   0  0  0  0  0  0  0  0  0  0  0  0
  161.3010  203.3430  149.5480 C   0  0  0  0  0  0  0  0  0  0  0  0
  160.6730  203.1140  152.3600 C   0  0  0  0  0  3  0  0  0  0  0  0
  160.9610  200.9350  149.3170 C   0  0  0  0  0  3  0  0  0  0  0  0
  161.3660  206.8190  151.8780 C   0  0  0  0  0  0  0  0  0  0  0  0
  161.6410  205.7150  149.7360 C   0  0  0  0  0  3  0  0  0  0  0  0
  160.6850  201.9510  151.4120 C   0  0  0  0  0  3  0  0  0  0  0  0
  161.7430  209.2430  152.0330 C   0  0  0  0  0  3  0  0  0  0  0  0
  161.0450  205.5870  152.4660 C   0  0  0  0  0  0  0  0  0  0  0  0
  161.3990  207.9350  152.6220 C   0  0  0  0  0  3  0  0  0  0  0  0
  161.2370  199.7870  147.1180 C   0  0  0  0  0  1  0  0  0  0  0  0
  161.5780  202.2440  147.3840 C   0  0  0  0  0  3  0  0  0  0  0  0
  161.0220  204.4170  151.6890 C   0  0  0  0  0  0  0  0  0  0  0  0
  162.0210  209.3340  150.7310 C   0  0  0  0  0  3  0  0  0  0  0  0
  161.6610  206.8860  150.5010 C   0  0  0  0  0  0  0  0  0  0  0  0
  162.2850  208.2890  148.4790 C   0  0  0  0  0  2  0  0  0  0  0  0
  161.8110  207.0810  147.6670 C   0  0  2  0  0  3  0  0  0  0  0  0
  161.1230  205.2850  145.5540 C   0  0  0  0  0  0  0  0  0  0  0  0
  162.9160  206.5420  146.7620 C   0  0  0  0  0  2  0  0  0  0  0  0
  160.5760  207.4040  146.8330 C   0  0  0  0  0  2  0  0  0  0  0  0
  160.0400  206.1310  146.1790 C   0  0  0  0  0  2  0  0  0  0  0  0
  160.7240  204.1450  144.6830 C   0  0  0  0  0  1  0  0  0  0  0  0
  162.4170  205.4260  145.8830 C   0  0  0  0  0  3  0  0  0  0  0  0
  1 20  1  0  0  0  0
  1 19  1  0  0  0  0
  2  7  1  0  0  0  0
  4 12  1  0  0  0  0
  5 18  1  0  0  0  0
  6  9  1  0  0  0  0
  7  4  1  0  0  0  0
  7  5  2  0  0  0  0
  9  4  2  0  0  0  0
 10 14  1  0  0  0  0
 10 15  2  0  0  0  0
 11  5  1  0  0  0  0
 11 20  2  0  0  0  0
 12  8  2  0  0  0  0
 13 15  1  0  0  0  0
 14  3  1  0  0  0  0
 16  6  1  0  0  0  0
 17  6  2  0  0  0  0
 17  2  1  0  0  0  0
 18  8  1  0  0  0  0
 18 14  2  0  0  0  0
 19 13  2  0  0  0  0
 20 10  1  0  0  0  0
 21  1  1  0  0  0  0
 22 21  1  6  0  0  0
 23 28  2  0  0  0  0
 23 26  1  0  0  0  0
 24 22  1  0  0  0  0
 25 22  1  0  0  0  0
 26 25  1  0  0  0  0
 27 23  1  0  0  0  0
 28 24  1  0  0  0  0
M  END
>  <MODEL>
6

>  <REMARK>
 VINA RESULT:      -8.6      2.713      5.650
  Name = 
  2 active torsions:
  status: ('A' for Active; 'I' for Inactive)
    1  A    between atoms: N_1  and  C_2
    2  A    between atoms: C_2  and  C_3
                            x       y       z     vdW  Elec       q    Type
                         _______ _______ _______ _____ _____    ______ ____

>  <TORSDO>
F 2

$$$$
=
 OpenBabel11052422573D

 28 32  0  0  1  0  0  0  0  0999 V2000
  161.4630  208.8810  152.6970 N   0  0  0  0  0  0  0  0  0  0  0  0
  160.9270  204.0720  151.1360 C   0  0  0  0  0  3  0  0  0  0  0  0
  162.1240  209.0560  147.8870 F   0  0  0  0  0  0  0  0  0  0  0  0
  161.2690  204.1640  148.7330 C   0  0  0  0  0  0  0  0  0  0  0  0
  161.3900  206.1780  150.0690 C   0  0  0  0  0  0  0  0  0  0  0  0
  160.8010  202.0480  149.8240 C   0  0  0  0  0  0  0  0  0  0  0  0
  161.1990  204.8360  149.9830 C   0  0  0  0  0  0  0  0  0  0  0  0
  161.7520  206.2990  147.5530 C   0  0  0  0  0  2  0  0  0  0  0  0
  161.0690  202.7810  148.6680 C   0  0  0  0  0  3  0  0  0  0  0  0
  161.7910  208.9710  150.2550 C   0  0  0  0  0  0  0  0  0  0  0  0
  161.3230  206.8370  151.3090 C   0  0  0  0  0  3  0  0  0  0  0  0
  161.5220  204.8180  147.5980 C   0  0  0  0  0  3  0  0  0  0  0  0
  161.8890  210.9960  151.6440 C   0  0  0  0  0  3  0  0  0  0  0  0
  161.8650  208.3320  149.0090 C   0  0  0  0  0  0  0  0  0  0  0  0
  161.9700  210.2970  150.3480 C   0  0  0  0  0  3  0  0  0  0  0  0
  160.5900  200.5780  149.7400 C   0  0  0  0  0  1  0  0  0  0  0  0
  160.7290  202.6930  151.0580 C   0  0  0  0  0  3  0  0  0  0  0  0
  161.6660  206.9450  148.9110 C   0  0  0  0  0  0  0  0  0  0  0  0
  161.6430  210.3050  152.7590 C   0  0  0  0  0  3  0  0  0  0  0  0
  161.5250  208.2170  151.4160 C   0  0  0  0  0  0  0  0  0  0  0  0
  161.1960  208.1470  153.9330 C   0  0  0  0  0  2  0  0  0  0  0  0
  160.2910  208.9230  154.8920 C   0  0  2  0  0  3  0  0  0  0  0  0
  158.9910  210.9790  156.3910 C   0  0  0  0  0  0  0  0  0  0  0  0
  159.4470  209.9600  154.1540 C   0  0  0  0  0  2  0  0  0  0  0  0
  161.0840  209.6030  156.0030 C   0  0  0  0  0  2  0  0  0  0  0  0
  160.1290  210.2160  157.0260 C   0  0  0  0  0  2  0  0  0  0  0  0
  158.1240  211.8220  157.2610 C   0  0  0  0  0  1  0  0  0  0  0  0
  158.6390  210.7990  155.1080 C   0  0  0  0  0  3  0  0  0  0  0  0
  1 19  1  0  0  0  0
  1 21  1  0  0  0  0
  3 14  1  0  0  0  0
  4  7  1  0  0  0  0
  5 11  1  0  0  0  0
  6 17  1  0  0  0  0
  7  5  2  0  0  0  0
  7  2  1  0  0  0  0
  8 12  1  0  0  0  0
  8 18  1  0  0  0  0
  9  4  1  0  0  0  0
  9  6  2  0  0  0  0
 10 15  2  0  0  0  0
 10 20  1  0  0  0  0
 11 20  2  0  0  0  0
 12  4  2  0  0  0  0
 13 19  2  0  0  0  0
 14 10  1  0  0  0  0
 15 13  1  0  0  0  0
 16  6  1  0  0  0  0
 17  2  2  0  0  0  0
 18 14  2  0  0  0  0
 18  5  1  0  0  0  0
 20  1  1  0  0  0  0
 22 21  1  6  0  0  0
 22 25  1  0  0  0  0
 23 26  1  0  0  0  0
 23 27  1  0  0  0  0
 24 22  1  0  0  0  0
 24 28  1  0  0  0  0
 25 26  1  0  0  0  0
 28 23  2  0  0  0  0
M  END
>  <MODEL>
7

>  <REMARK>
 VINA RESULT:      -8.5      2.306      4.031
  Name = 
  2 active torsions:
  status: ('A' for Active; 'I' for Inactive)
    1  A    between atoms: N_1  and  C_2
    2  A    between atoms: C_2  and  C_3
                            x       y       z     vdW  Elec       q    Type
                         _______ _______ _______ _____ _____    ______ ____

>  <TORSDO>
F 2

$$$$
=
 OpenBabel11052422573D

 28 32  0  0  1  0  0  0  0  0999 V2000
  161.4870  208.8220  151.9590 N   0  0  0  0  0  0  0  0  0  0  0  0
  160.8450  203.8850  150.9260 C   0  0  0  0  0  3  0  0  0  0  0  0
  162.3110  208.4350  147.1870 F   0  0  0  0  0  0  0  0  0  0  0  0
  161.2670  203.6960  148.5420 C   0  0  0  0  0  0  0  0  0  0  0  0
  161.4110  205.8440  149.6480 C   0  0  0  0  0  0  0  0  0  0  0  0
  160.6940  201.7310  149.8440 C   0  0  0  0  0  0  0  0  0  0  0  0
  161.1790  204.5070  149.7050 C   0  0  0  0  0  0  0  0  0  0  0  0
  161.8590  205.6700  147.1490 C   0  0  0  0  0  2  0  0  0  0  0  0
  161.0240  202.3210  148.6240 C   0  0  0  0  0  3  0  0  0  0  0  0
  161.8980  208.6260  149.5370 C   0  0  0  0  0  0  0  0  0  0  0  0
  161.3250  206.6390  150.8040 C   0  0  0  0  0  3  0  0  0  0  0  0
  161.5790  204.2100  147.3500 C   0  0  0  0  0  3  0  0  0  0  0  0
  162.0180  210.7910  150.6940 C   0  0  0  0  0  3  0  0  0  0  0  0
  161.9910  207.8500  148.3730 C   0  0  0  0  0  0  0  0  0  0  0  0
  162.1180  209.9490  149.4870 C   0  0  0  0  0  3  0  0  0  0  0  0
  160.4390  200.2680  149.9170 C   0  0  0  0  0  1  0  0  0  0  0  0
  160.6040  202.5120  150.9940 C   0  0  0  0  0  3  0  0  0  0  0  0
  161.7510  206.4670  148.4220 C   0  0  0  0  0  0  0  0  0  0  0  0
  161.7130  210.2370  151.8690 C   0  0  0  0  0  3  0  0  0  0  0  0
  161.5690  208.0160  150.7640 C   0  0  0  0  0  0  0  0  0  0  0  0
  161.1570  208.2390  153.2600 C   0  0  0  0  0  2  0  0  0  0  0  0
  160.7430  209.2950  154.2860 C   0  0  2  0  0  3  0  0  0  0  0  0
  159.3150  210.8460  156.2150 C   0  0  0  0  0  0  0  0  0  0  0  0
  160.3880  208.6640  155.6310 C   0  0  0  0  0  2  0  0  0  0  0  0
  159.5750  210.1440  153.7940 C   0  0  0  0  0  2  0  0  0  0  0  0
  159.3130  211.2890  154.7720 C   0  0  0  0  0  2  0  0  0  0  0  0
  158.8420  211.8020  157.2550 C   0  0  0  0  0  1  0  0  0  0  0  0
  159.8750  209.6900  156.6070 C   0  0  0  0  0  3  0  0  0  0  0  0
  1 21  1  0  0  0  0
  2 17  2  0  0  0  0
  3 14  1  0  0  0  0
  4  9  1  0  0  0  0
  4  7  1  0  0  0  0
  5  7  2  0  0  0  0
  5 11  1  0  0  0  0
  6 16  1  0  0  0  0
  6 17  1  0  0  0  0
  7  2  1  0  0  0  0
  8 12  1  0  0  0  0
  8 18  1  0  0  0  0
  9  6  2  0  0  0  0
 10 20  1  0  0  0  0
 12  4  2  0  0  0  0
 13 19  2  0  0  0  0
 14 18  2  0  0  0  0
 14 10  1  0  0  0  0
 15 10  2  0  0  0  0
 15 13  1  0  0  0  0
 18  5  1  0  0  0  0
 19  1  1  0  0  0  0
 20 11  2  0  0  0  0
 20  1  1  0  0  0  0
 22 21  1  6  0  0  0
 22 24  1  0  0  0  0
 23 28  2  0  0  0  0
 23 27  1  0  0  0  0
 24 28  1  0  0  0  0
 25 22  1  0  0  0  0
 25 26  1  0  0  0  0
 26 23  1  0  0  0  0
M  END
>  <MODEL>
8

>  <REMARK>
 VINA RESULT:      -8.2      2.300      4.128
  Name = 
  2 active torsions:
  status: ('A' for Active; 'I' for Inactive)
    1  A    between atoms: N_1  and  C_2
    2  A    between atoms: C_2  and  C_3
                            x       y       z     vdW  Elec       q    Type
                         _______ _______ _______ _____ _____    ______ ____

>  <TORSDO>
F 2

$$$$
