=
 OpenBabel11052422013D

 30 33  0  0  1  0  0  0  0  0999 V2000
  161.4600  206.6020  148.0030 C   0  0  0  0  0  0  0  0  0  0  0  0
  162.5680  206.9840  150.1830 C   0  0  0  0  0  2  0  0  0  0  0  0
  159.9550  203.2240  151.0690 C   0  0  0  0  0  2  0  0  0  0  0  0
  162.2260  203.8470  147.4240 C   0  0  0  0  0  2  0  0  0  0  0  0
  160.2520  206.4860  147.2440 N   0  0  0  0  0  2  0  0  0  0  0  0
  161.3750  205.0780  145.4570 C   0  0  1  0  0  3  0  0  0  0  0  0
  159.1870  206.0430  145.2230 O   0  0  0  0  0  0  0  0  0  0  0  0
  160.8760  201.2770  148.0070 C   0  0  2  0  0  3  0  0  0  0  0  0
  160.5780  202.0610  150.3720 C   0  0  0  0  0  0  0  0  0  0  0  0
  160.2250  205.9230  145.9280 C   0  0  0  0  0  0  0  0  0  0  0  0
  161.4190  203.8190  146.2070 N   0  0  0  0  0  0  0  0  0  0  0  0
  162.3110  207.1860  151.6410 C   0  0  0  0  0  3  0  0  0  0  0  0
  159.8940  201.8730  146.9890 C   0  0  0  0  0  2  0  0  0  0  0  0
  162.5370  206.9210  147.4250 O   0  0  0  0  0  0  0  0  0  0  0  0
  160.8840  204.3990  151.0470 C   0  0  0  0  0  0  0  0  0  0  0  0
  161.6460  206.3770  152.4710 C   0  0  0  0  0  3  0  0  0  0  0  0
  161.4570  206.2400  149.4620 C   0  0  2  0  0  3  0  0  0  0  0  0
  161.3150  203.7360  148.6380 C   0  0  1  0  0  3  0  0  0  0  0  0
  160.4830  200.9450  150.8610 O   0  0  0  0  0  0  0  0  0  0  0  0
  161.3430  202.2660  149.0960 C   0  0  2  0  0  3  0  0  0  0  0  0
  160.1700  202.5000  144.7230 O   0  0  0  0  0  0  0  0  0  0  0  0
  160.9400  205.1130  152.1780 C   0  0  0  0  0  3  0  0  0  0  0  0
  161.6520  204.7390  149.7790 C   0  0  2  0  0  3  0  0  0  0  0  0
  160.5200  202.7220  145.9110 C   0  0  0  0  0  0  0  0  0  0  0  0
  161.4550  204.9030  143.9400 C   0  0  0  0  0  2  0  0  0  0  0  0
  161.5360  206.2500  143.2390 C   0  0  0  0  0  2  0  0  0  0  0  0
  161.8910  206.0760  141.7750 C   0  0  0  0  0  1  0  0  0  0  0  0
  162.0470  200.5610  147.3360 C   0  0  0  0  0  2  0  0  0  0  0  0
  161.3340  199.0470  145.4860 C   0  0  0  0  0  1  0  0  0  0  0  0
  161.6840  199.1330  146.9600 C   0  0  0  0  0  2  0  0  0  0  0  0
  1 17  1  0  0  0  0
  2 12  1  0  0  0  0
  5  1  1  0  0  0  0
  6 25  1  6  0  0  0
  6 10  1  0  0  0  0
  6 11  1  0  0  0  0
  7 10  2  0  0  0  0
  8 28  1  6  0  0  0
  8 20  1  0  0  0  0
  9 19  2  0  0  0  0
  9  3  1  0  0  0  0
 10  5  1  0  0  0  0
 11  4  1  0  0  0  0
 12 16  2  0  0  0  0
 13  8  1  0  0  0  0
 14  1  2  0  0  0  0
 15  3  1  0  0  0  0
 15 22  2  0  0  0  0
 17 23  1  0  0  0  0
 17  2  1  1  0  0  0
 18  4  1  6  0  0  0
 18 20  1  0  0  0  0
 18 23  1  0  0  0  0
 20  9  1  1  0  0  0
 21 24  2  0  0  0  0
 22 16  1  0  0  0  0
 23 15  1  1  0  0  0
 24 11  1  0  0  0  0
 24 13  1  0  0  0  0
 26 25  1  0  0  0  0
 27 26  1  0  0  0  0
 29 30  1  0  0  0  0
 30 28  1  0  0  0  0
M  END
>  <MODEL>
1

>  <REMARK>
 VINA RESULT:      -5.1      0.000      0.000
  Name = 
  4 active torsions:
  status: ('A' for Active; 'I' for Inactive)
    1  A    between atoms: C_6  and  C_8
    2  A    between atoms: C_6  and  C_17
    3  A    between atoms: C_7  and  C_10
    4  A    between atoms: C_7  and  C_26
                            x       y       z     vdW  Elec       q    Type
                         _______ _______ _______ _____ _____    ______ ____

>  <TORSDO>
F 4

$$$$
=
 OpenBabel11052422013D

 30 33  0  0  1  0  0  0  0  0999 V2000
  157.9360  213.9520  153.0050 C   0  0  0  0  0  0  0  0  0  0  0  0
  157.1700  213.9540  150.6510 C   0  0  0  0  0  2  0  0  0  0  0  0
  161.5120  212.2980  150.2560 C   0  0  0  0  0  2  0  0  0  0  0  0
  158.7130  211.1640  153.3730 C   0  0  0  0  0  2  0  0  0  0  0  0
  158.8710  214.4020  153.9920 N   0  0  0  0  0  2  0  0  0  0  0  0
  158.4240  212.4040  155.4910 C   0  0  1  0  0  3  0  0  0  0  0  0
  159.6600  214.3450  156.1800 O   0  0  0  0  0  0  0  0  0  0  0  0
  161.3190  209.7970  153.0360 C   0  0  2  0  0  3  0  0  0  0  0  0
  161.5210  210.9060  150.7930 C   0  0  0  0  0  0  0  0  0  0  0  0
  158.9860  213.7810  155.2770 C   0  0  0  0  0  0  0  0  0  0  0  0
  159.1950  211.4180  154.7280 N   0  0  0  0  0  0  0  0  0  0  0  0
  157.5080  214.4400  149.2790 C   0  0  0  0  0  3  0  0  0  0  0  0
  161.6360  210.6930  154.2410 C   0  0  0  0  0  2  0  0  0  0  0  0
  156.7830  213.5760  153.3560 O   0  0  0  0  0  0  0  0  0  0  0  0
  160.1040  212.7870  150.1070 C   0  0  0  0  0  0  0  0  0  0  0  0
  158.6310  214.2180  148.5900 C   0  0  0  0  0  3  0  0  0  0  0  0
  158.3730  213.8310  151.5720 C   0  0  2  0  0  3  0  0  0  0  0  0
  159.7210  211.7040  152.3680 C   0  0  1  0  0  3  0  0  0  0  0  0
  162.2860  210.0820  150.3170 O   0  0  0  0  0  0  0  0  0  0  0  0
  160.5720  210.5140  151.8910 C   0  0  2  0  0  3  0  0  0  0  0  0
  160.7000  210.7910  156.4140 O   0  0  0  0  0  0  0  0  0  0  0  0
  159.8530  213.4960  149.0000 C   0  0  0  0  0  3  0  0  0  0  0  0
  159.0810  212.5080  151.1980 C   0  0  2  0  0  3  0  0  0  0  0  0
  160.4840  210.9380  155.1830 C   0  0  0  0  0  0  0  0  0  0  0  0
  158.2070  212.0280  156.9560 C   0  0  0  0  0  2  0  0  0  0  0  0
  156.7300  211.8380  157.2590 C   0  0  0  0  0  2  0  0  0  0  0  0
  155.9610  211.4870  155.9990 C   0  0  0  0  0  1  0  0  0  0  0  0
  160.6370  208.4930  153.4440 C   0  0  0  0  0  2  0  0  0  0  0  0
  161.1730  206.0570  153.4870 C   0  0  0  0  0  1  0  0  0  0  0  0
  161.1620  207.3150  152.6380 C   0  0  0  0  0  2  0  0  0  0  0  0
  1 14  2  0  0  0  0
  1  5  1  0  0  0  0
  3  9  1  0  0  0  0
  4 11  1  0  0  0  0
  5 10  1  0  0  0  0
  6 25  1  1  0  0  0
  8 28  1  1  0  0  0
  8 13  1  0  0  0  0
 10  6  1  0  0  0  0
 10  7  2  0  0  0  0
 11 24  1  0  0  0  0
 11  6  1  0  0  0  0
 12  2  1  0  0  0  0
 13 24  1  0  0  0  0
 15  3  1  0  0  0  0
 16 22  1  0  0  0  0
 16 12  2  0  0  0  0
 17  2  1  6  0  0  0
 17  1  1  0  0  0  0
 18  4  1  1  0  0  0
 19  9  2  0  0  0  0
 20  9  1  6  0  0  0
 20 18  1  0  0  0  0
 20  8  1  0  0  0  0
 22 15  2  0  0  0  0
 23 15  1  6  0  0  0
 23 17  1  0  0  0  0
 23 18  1  0  0  0  0
 24 21  2  0  0  0  0
 25 26  1  0  0  0  0
 27 26  1  0  0  0  0
 30 28  1  0  0  0  0
 30 29  1  0  0  0  0
M  END
>  <MODEL>
2

>  <REMARK>
 VINA RESULT:      -4.3      7.201     11.037
  Name = 
  4 active torsions:
  status: ('A' for Active; 'I' for Inactive)
    1  A    between atoms: C_6  and  C_8
    2  A    between atoms: C_6  and  C_17
    3  A    between atoms: C_7  and  C_10
    4  A    between atoms: C_7  and  C_26
                            x       y       z     vdW  Elec       q    Type
                         _______ _______ _______ _____ _____    ______ ____

>  <TORSDO>
F 4

$$$$
=
 OpenBabel11052422013D

 30 33  0  0  1  0  0  0  0  0999 V2000
  161.0830  204.8970  152.8090 C   0  0  0  0  0  0  0  0  0  0  0  0
  160.1910  206.9200  153.9220 C   0  0  0  0  0  2  0  0  0  0  0  0
  162.7060  208.7540  150.4480 C   0  0  0  0  0  2  0  0  0  0  0  0
  160.1490  205.2680  150.0700 C   0  0  0  0  0  2  0  0  0  0  0  0
  162.2120  204.1300  152.3800 N   0  0  0  0  0  2  0  0  0  0  0  0
  160.8740  202.9590  150.5700 C   0  0  1  0  0  3  0  0  0  0  0  0
  163.0730  202.2800  151.2610 O   0  0  0  0  0  0  0  0  0  0  0  0
  161.4310  206.5310  147.7190 C   0  0  2  0  0  3  0  0  0  0  0  0
  161.9730  208.5030  149.1730 C   0  0  0  0  0  0  0  0  0  0  0  0
  162.0980  203.0580  151.4370 C   0  0  0  0  0  0  0  0  0  0  0  0
  160.8410  204.0670  149.6110 N   0  0  0  0  0  0  0  0  0  0  0  0
  160.5860  208.2190  154.5460 C   0  0  0  0  0  3  0  0  0  0  0  0
  162.3430  205.3110  147.9010 C   0  0  0  0  0  2  0  0  0  0  0  0
  159.9740  204.3270  153.0070 O   0  0  0  0  0  0  0  0  0  0  0  0
  161.8310  208.4300  151.6200 C   0  0  0  0  0  0  0  0  0  0  0  0
  161.2870  209.2110  153.9900 C   0  0  0  0  0  3  0  0  0  0  0  0
  161.2000  206.3920  152.9160 C   0  0  2  0  0  3  0  0  0  0  0  0
  161.1590  206.3880  150.2760 C   0  0  1  0  0  3  0  0  0  0  0  0
  162.0620  209.3090  148.2590 O   0  0  0  0  0  0  0  0  0  0  0  0
  161.1060  207.2840  149.0260 C   0  0  2  0  0  3  0  0  0  0  0  0
  161.8940  202.9870  147.8140 O   0  0  0  0  0  0  0  0  0  0  0  0
  161.9070  209.2810  152.6500 C   0  0  0  0  0  3  0  0  0  0  0  0
  160.9690  207.1770  151.6040 C   0  0  2  0  0  3  0  0  0  0  0  0
  161.6610  204.0680  148.4160 C   0  0  0  0  0  0  0  0  0  0  0  0
  160.6510  201.5830  149.9410 C   0  0  0  0  0  2  0  0  0  0  0  0
  159.2420  201.4580  149.3860 C   0  0  0  0  0  2  0  0  0  0  0  0
  159.2660  201.3280  147.8750 C   0  0  0  0  0  1  0  0  0  0  0  0
  160.1750  206.2030  146.9140 C   0  0  0  0  0  2  0  0  0  0  0  0
  160.4930  204.7820  144.8870 C   0  0  0  0  0  1  0  0  0  0  0  0
  160.4560  206.2030  145.4190 C   0  0  0  0  0  2  0  0  0  0  0  0
  1 17  1  0  0  0  0
  1 14  2  0  0  0  0
  2 12  1  0  0  0  0
  3 15  1  0  0  0  0
  5  1  1  0  0  0  0
  6 25  1  6  0  0  0
  6 10  1  0  0  0  0
  7 10  2  0  0  0  0
  8 28  1  1  0  0  0
  8 13  1  0  0  0  0
  8 20  1  0  0  0  0
  9  3  1  0  0  0  0
 10  5  1  0  0  0  0
 11  4  1  0  0  0  0
 11  6  1  0  0  0  0
 13 24  1  0  0  0  0
 15 22  2  0  0  0  0
 16 12  2  0  0  0  0
 17  2  1  1  0  0  0
 18  4  1  6  0  0  0
 18 23  1  0  0  0  0
 19  9  2  0  0  0  0
 20  9  1  1  0  0  0
 20 18  1  0  0  0  0
 21 24  2  0  0  0  0
 22 16  1  0  0  0  0
 23 15  1  6  0  0  0
 23 17  1  0  0  0  0
 24 11  1  0  0  0  0
 26 25  1  0  0  0  0
 27 26  1  0  0  0  0
 29 30  1  0  0  0  0
 30 28  1  0  0  0  0
M  END
>  <MODEL>
3

>  <REMARK>
 VINA RESULT:      -3.9      2.294      5.600
  Name = 
  4 active torsions:
  status: ('A' for Active; 'I' for Inactive)
    1  A    between atoms: C_6  and  C_8
    2  A    between atoms: C_6  and  C_17
    3  A    between atoms: C_7  and  C_10
    4  A    between atoms: C_7  and  C_26
                            x       y       z     vdW  Elec       q    Type
                         _______ _______ _______ _____ _____    ______ ____

>  <TORSDO>
F 4

$$$$
=
 OpenBabel11052422013D

 30 33  0  0  1  0  0  0  0  0999 V2000
  161.3830  205.7470  146.5780 C   0  0  0  0  0  0  0  0  0  0  0  0
  159.9900  203.9870  145.5360 C   0  0  0  0  0  2  0  0  0  0  0  0
  161.9780  201.6830  149.0690 C   0  0  0  0  0  2  0  0  0  0  0  0
  160.4100  205.7210  149.3280 C   0  0  0  0  0  2  0  0  0  0  0  0
  162.6770  206.2110  146.9800 N   0  0  0  0  0  2  0  0  0  0  0  0
  161.7020  207.7470  148.7490 C   0  0  1  0  0  3  0  0  0  0  0  0
  163.9960  207.8120  148.0350 O   0  0  0  0  0  0  0  0  0  0  0  0
  161.3450  204.2490  151.7220 C   0  0  2  0  0  3  0  0  0  0  0  0
  161.3460  202.1560  150.3360 C   0  0  0  0  0  0  0  0  0  0  0  0
  162.8510  207.3070  147.8860 C   0  0  0  0  0  0  0  0  0  0  0  0
  161.3940  206.7170  149.7450 N   0  0  0  0  0  0  0  0  0  0  0  0
  160.0300  202.6110  144.9560 C   0  0  0  0  0  3  0  0  0  0  0  0
  162.5400  205.1850  151.4970 C   0  0  0  0  0  2  0  0  0  0  0  0
  160.4570  206.5780  146.3610 O   0  0  0  0  0  0  0  0  0  0  0  0
  161.2050  202.1820  147.8870 C   0  0  0  0  0  0  0  0  0  0  0  0
  160.4560  201.4910  145.5460 C   0  0  0  0  0  3  0  0  0  0  0  0
  161.1100  204.2710  146.5220 C   0  0  2  0  0  3  0  0  0  0  0  0
  161.0950  204.3720  149.1610 C   0  0  1  0  0  3  0  0  0  0  0  0
  161.2320  201.3860  151.2770 O   0  0  0  0  0  0  0  0  0  0  0  0
  160.8250  203.5620  150.4410 C   0  0  2  0  0  3  0  0  0  0  0  0
  162.7060  207.5470  151.5040 O   0  0  0  0  0  0  0  0  0  0  0  0
  161.0500  201.3080  146.8870 C   0  0  0  0  0  3  0  0  0  0  0  0
  160.6960  203.6160  147.8610 C   0  0  2  0  0  3  0  0  0  0  0  0
  162.1970  206.5440  150.9390 C   0  0  0  0  0  0  0  0  0  0  0  0
  161.8480  209.1530  149.3300 C   0  0  0  0  0  2  0  0  0  0  0  0
  161.6310  210.2110  148.2610 C   0  0  0  0  0  2  0  0  0  0  0  0
  162.3180  211.5100  148.6380 C   0  0  0  0  0  1  0  0  0  0  0  0
  160.2240  204.9160  152.5150 C   0  0  0  0  0  2  0  0  0  0  0  0
  160.4570  206.9000  154.0100 C   0  0  0  0  0  1  0  0  0  0  0  0
  160.7170  205.4120  153.8650 C   0  0  0  0  0  2  0  0  0  0  0  0
  1  5  1  0  0  0  0
  3  9  1  0  0  0  0
  4 11  1  0  0  0  0
  5 10  1  0  0  0  0
  6 25  1  1  0  0  0
  6 11  1  0  0  0  0
  8 28  1  6  0  0  0
  9 19  2  0  0  0  0
 10  7  2  0  0  0  0
 10  6  1  0  0  0  0
 11 24  1  0  0  0  0
 12  2  1  0  0  0  0
 12 16  2  0  0  0  0
 13  8  1  0  0  0  0
 14  1  2  0  0  0  0
 15  3  1  0  0  0  0
 16 22  1  0  0  0  0
 17  2  1  6  0  0  0
 17  1  1  0  0  0  0
 17 23  1  0  0  0  0
 18  4  1  1  0  0  0
 18 20  1  0  0  0  0
 20  9  1  6  0  0  0
 20  8  1  0  0  0  0
 22 15  2  0  0  0  0
 23 15  1  1  0  0  0
 23 18  1  0  0  0  0
 24 13  1  0  0  0  0
 24 21  2  0  0  0  0
 26 27  1  0  0  0  0
 26 25  1  0  0  0  0
 28 30  1  0  0  0  0
 30 29  1  0  0  0  0
M  END
>  <MODEL>
4

>  <REMARK>
 VINA RESULT:      -3.9      1.969      5.783
  Name = 
  4 active torsions:
  status: ('A' for Active; 'I' for Inactive)
    1  A    between atoms: C_6  and  C_8
    2  A    between atoms: C_6  and  C_17
    3  A    between atoms: C_7  and  C_10
    4  A    between atoms: C_7  and  C_26
                            x       y       z     vdW  Elec       q    Type
                         _______ _______ _______ _____ _____    ______ ____

>  <TORSDO>
F 4

$$$$
=
 OpenBabel11052422013D

 30 33  0  0  1  0  0  0  0  0999 V2000
  161.8920  208.8160  149.3030 C   0  0  0  0  0  0  0  0  0  0  0  0
  162.6320  211.0570  148.5570 C   0  0  0  0  0  2  0  0  0  0  0  0
  159.5270  212.1160  151.8730 C   0  0  0  0  0  2  0  0  0  0  0  0
  162.4570  208.9270  152.1630 C   0  0  0  0  0  2  0  0  0  0  0  0
  160.8310  207.8740  149.4920 N   0  0  0  0  0  2  0  0  0  0  0  0
  162.0990  206.6360  151.3080 C   0  0  1  0  0  3  0  0  0  0  0  0
  160.0980  205.8060  150.2670 O   0  0  0  0  0  0  0  0  0  0  0  0
  160.7660  209.7130  154.4630 C   0  0  2  0  0  3  0  0  0  0  0  0
  160.1390  211.7850  153.1930 C   0  0  0  0  0  0  0  0  0  0  0  0
  160.9770  206.7080  150.3090 C   0  0  0  0  0  0  0  0  0  0  0  0
  161.8790  207.6050  152.3860 N   0  0  0  0  0  0  0  0  0  0  0  0
  162.1450  212.3730  148.0450 C   0  0  0  0  0  3  0  0  0  0  0  0
  160.0460  208.4310  154.0240 C   0  0  0  0  0  2  0  0  0  0  0  0
  163.0810  208.4080  149.1820 O   0  0  0  0  0  0  0  0  0  0  0  0
  160.5630  212.0520  150.7920 C   0  0  0  0  0  0  0  0  0  0  0  0
  161.2640  213.1960  148.6190 C   0  0  0  0  0  3  0  0  0  0  0  0
  161.5940  210.2880  149.3570 C   0  0  2  0  0  3  0  0  0  0  0  0
  161.3400  209.9410  151.9620 C   0  0  1  0  0  3  0  0  0  0  0  0
  159.8440  212.4470  154.1760 O   0  0  0  0  0  0  0  0  0  0  0  0
  161.1350  210.6640  153.3050 C   0  0  2  0  0  3  0  0  0  0  0  0
  160.7800  206.1840  153.8950 O   0  0  0  0  0  0  0  0  0  0  0  0
  160.4930  213.0160  149.8670 C   0  0  0  0  0  3  0  0  0  0  0  0
  161.5730  210.9150  150.7710 C   0  0  2  0  0  3  0  0  0  0  0  0
  160.9370  207.3540  153.4580 C   0  0  0  0  0  0  0  0  0  0  0  0
  162.4260  205.2250  151.7940 C   0  0  0  0  0  2  0  0  0  0  0  0
  161.5810  204.1880  151.0710 C   0  0  0  0  0  2  0  0  0  0  0  0
  161.2050  203.0520  152.0040 C   0  0  0  0  0  1  0  0  0  0  0  0
  161.9560  209.4280  155.3780 C   0  0  0  0  0  2  0  0  0  0  0  0
  163.2130  210.6430  157.1580 C   0  0  0  0  0  1  0  0  0  0  0  0
  162.7060  210.7030  155.7290 C   0  0  0  0  0  2  0  0  0  0  0  0
  1 17  1  0  0  0  0
  1  5  1  0  0  0  0
  3  9  1  0  0  0  0
  4 11  1  0  0  0  0
  5 10  1  0  0  0  0
  6 25  1  1  0  0  0
  6 11  1  0  0  0  0
  7 10  2  0  0  0  0
  8 28  1  6  0  0  0
  9 19  2  0  0  0  0
 10  6  1  0  0  0  0
 11 24  1  0  0  0  0
 12  2  1  0  0  0  0
 12 16  2  0  0  0  0
 13  8  1  0  0  0  0
 14  1  2  0  0  0  0
 15  3  1  0  0  0  0
 16 22  1  0  0  0  0
 17  2  1  6  0  0  0
 17 23  1  0  0  0  0
 18  4  1  1  0  0  0
 18 20  1  0  0  0  0
 20  9  1  6  0  0  0
 20  8  1  0  0  0  0
 22 15  2  0  0  0  0
 23 15  1  6  0  0  0
 23 18  1  0  0  0  0
 24 21  2  0  0  0  0
 24 13  1  0  0  0  0
 26 25  1  0  0  0  0
 26 27  1  0  0  0  0
 28 30  1  0  0  0  0
 30 29  1  0  0  0  0
M  END
>  <MODEL>
5

>  <REMARK>
 VINA RESULT:      -3.8      4.425      8.613
  Name = 
  4 active torsions:
  status: ('A' for Active; 'I' for Inactive)
    1  A    between atoms: C_6  and  C_8
    2  A    between atoms: C_6  and  C_17
    3  A    between atoms: C_7  and  C_10
    4  A    between atoms: C_7  and  C_26
                            x       y       z     vdW  Elec       q    Type
                         _______ _______ _______ _____ _____    ______ ____

>  <TORSDO>
F 4

$$$$
=
 OpenBabel11052422013D

 30 33  0  0  1  0  0  0  0  0999 V2000
  160.6640  211.1650  153.3640 C   0  0  0  0  0  0  0  0  0  0  0  0
  159.7370  212.5780  151.5550 C   0  0  0  0  0  2  0  0  0  0  0  0
  162.7070  209.8420  149.2220 C   0  0  0  0  0  2  0  0  0  0  0  0
  160.0650  208.4830  152.3860 C   0  0  0  0  0  2  0  0  0  0  0  0
  161.8020  210.7040  154.1000 N   0  0  0  0  0  2  0  0  0  0  0  0
  160.6310  208.5620  154.7900 C   0  0  1  0  0  3  0  0  0  0  0  0
  162.7060  209.3180  155.7360 O   0  0  0  0  0  0  0  0  0  0  0  0
  161.6590  206.5920  150.7570 C   0  0  2  0  0  3  0  0  0  0  0  0
  162.1140  208.4730  149.1610 C   0  0  0  0  0  0  0  0  0  0  0  0
  161.7510  209.5520  154.9490 C   0  0  0  0  0  0  0  0  0  0  0  0
  160.7550  207.8570  153.5110 N   0  0  0  0  0  0  0  0  0  0  0  0
  160.1120  213.4970  150.4380 C   0  0  0  0  0  3  0  0  0  0  0  0
  162.4930  206.6090  152.0460 C   0  0  0  0  0  2  0  0  0  0  0  0
  159.5170  211.1250  153.8900 O   0  0  0  0  0  0  0  0  0  0  0  0
  161.6900  210.8240  149.7190 C   0  0  0  0  0  0  0  0  0  0  0  0
  160.9130  213.2350  149.4020 C   0  0  0  0  0  3  0  0  0  0  0  0
  160.8310  211.5940  151.9330 C   0  0  2  0  0  3  0  0  0  0  0  0
  161.0910  209.0210  151.3990 C   0  0  1  0  0  3  0  0  0  0  0  0
  162.3400  207.7620  148.1940 O   0  0  0  0  0  0  0  0  0  0  0  0
  161.2190  207.9870  150.2660 C   0  0  2  0  0  3  0  0  0  0  0  0
  161.9590  205.9930  154.2690 O   0  0  0  0  0  0  0  0  0  0  0  0
  161.6840  212.0110  149.1020 C   0  0  0  0  0  3  0  0  0  0  0  0
  160.7840  210.4580  150.8850 C   0  0  2  0  0  3  0  0  0  0  0  0
  161.7050  206.7800  153.3210 C   0  0  0  0  0  0  0  0  0  0  0  0
  160.4240  207.6400  155.9920 C   0  0  0  0  0  2  0  0  0  0  0  0
  160.0830  208.4380  157.2400 C   0  0  0  0  0  2  0  0  0  0  0  0
  159.3320  209.7070  156.8810 C   0  0  0  0  0  1  0  0  0  0  0  0
  160.4910  205.6110  150.8340 C   0  0  0  0  0  2  0  0  0  0  0  0
  161.2060  204.3010  148.8340 C   0  0  0  0  0  1  0  0  0  0  0  0
  160.8830  204.2360  150.3160 C   0  0  0  0  0  2  0  0  0  0  0  0
  1 14  2  0  0  0  0
  1  5  1  0  0  0  0
  3 15  1  0  0  0  0
  4 11  1  0  0  0  0
  5 10  1  0  0  0  0
  6 10  1  0  0  0  0
  6 25  1  1  0  0  0
  8 28  1  1  0  0  0
  8 13  1  0  0  0  0
  9  3  1  0  0  0  0
 10  7  2  0  0  0  0
 11  6  1  0  0  0  0
 12  2  1  0  0  0  0
 13 24  1  0  0  0  0
 16 12  2  0  0  0  0
 17  2  1  6  0  0  0
 17  1  1  0  0  0  0
 18  4  1  1  0  0  0
 19  9  2  0  0  0  0
 20  9  1  6  0  0  0
 20  8  1  0  0  0  0
 20 18  1  0  0  0  0
 22 16  1  0  0  0  0
 22 15  2  0  0  0  0
 23 15  1  6  0  0  0
 23 18  1  0  0  0  0
 23 17  1  0  0  0  0
 24 11  1  0  0  0  0
 24 21  2  0  0  0  0
 25 26  1  0  0  0  0
 27 26  1  0  0  0  0
 29 30  1  0  0  0  0
 30 28  1  0  0  0  0
M  END
>  <MODEL>
6

>  <REMARK>
 VINA RESULT:      -3.7      4.682      8.507
  Name = 
  4 active torsions:
  status: ('A' for Active; 'I' for Inactive)
    1  A    between atoms: C_6  and  C_8
    2  A    between atoms: C_6  and  C_17
    3  A    between atoms: C_7  and  C_10
    4  A    between atoms: C_7  and  C_26
                            x       y       z     vdW  Elec       q    Type
                         _______ _______ _______ _____ _____    ______ ____

>  <TORSDO>
F 4

$$$$
=
 OpenBabel11052422013D

 30 33  0  0  1  0  0  0  0  0999 V2000
  159.9130  209.8310  153.4700 C   0  0  0  0  0  0  0  0  0  0  0  0
  161.2220  207.8500  154.1700 C   0  0  0  0  0  2  0  0  0  0  0  0
  161.0550  207.3140  149.5400 C   0  0  0  0  0  2  0  0  0  0  0  0
  161.7260  211.0940  151.5640 C   0  0  0  0  0  2  0  0  0  0  0  0
  158.7600  210.3720  152.8170 N   0  0  0  0  0  2  0  0  0  0  0  0
  159.9170  212.5820  152.3530 C   0  0  1  0  0  3  0  0  0  0  0  0
  157.5580  212.2200  152.0720 O   0  0  0  0  0  0  0  0  0  0  0  0
  161.9730  210.8270  148.6260 C   0  0  2  0  0  3  0  0  0  0  0  0
  161.9560  208.3360  148.9300 C   0  0  0  0  0  0  0  0  0  0  0  0
  158.6670  211.7500  152.4410 C   0  0  0  0  0  0  0  0  0  0  0  0
  160.7490  212.1290  151.2350 N   0  0  0  0  0  0  0  0  0  0  0  0
  161.2850  206.3600  154.0800 C   0  0  0  0  0  3  0  0  0  0  0  0
  160.6020  211.5090  148.7210 C   0  0  0  0  0  2  0  0  0  0  0  0
  160.5160  210.5120  154.3470 O   0  0  0  0  0  0  0  0  0  0  0  0
  161.2680  207.2570  151.0220 C   0  0  0  0  0  0  0  0  0  0  0  0
  161.3270  205.6120  152.9740 C   0  0  0  0  0  3  0  0  0  0  0  0
  160.4590  208.5020  153.0290 C   0  0  2  0  0  3  0  0  0  0  0  0
  161.3270  209.7880  150.8920 C   0  0  1  0  0  3  0  0  0  0  0  0
  162.5360  208.0810  147.8860 O   0  0  0  0  0  0  0  0  0  0  0  0
  162.1720  209.6580  149.6130 C   0  0  2  0  0  3  0  0  0  0  0  0
  159.9500  213.6090  149.6000 O   0  0  0  0  0  0  0  0  0  0  0  0
  161.2640  206.0310  151.5590 C   0  0  0  0  0  3  0  0  0  0  0  0
  161.4230  208.5420  151.8200 C   0  0  2  0  0  3  0  0  0  0  0  0
  160.4440  212.4810  149.8630 C   0  0  0  0  0  0  0  0  0  0  0  0
  159.6770  214.0910  152.3800 C   0  0  0  0  0  2  0  0  0  0  0  0
  158.5350  214.4460  153.3180 C   0  0  0  0  0  2  0  0  0  0  0  0
  158.9610  214.3020  154.7670 C   0  0  0  0  0  1  0  0  0  0  0  0
  163.1250  211.8280  148.6760 C   0  0  0  0  0  2  0  0  0  0  0  0
  162.9550  214.1650  147.8190 C   0  0  0  0  0  1  0  0  0  0  0  0
  163.1520  212.7100  147.4370 C   0  0  0  0  0  2  0  0  0  0  0  0
  1 14  2  0  0  0  0
  3 15  1  0  0  0  0
  5  1  1  0  0  0  0
  6 25  1  6  0  0  0
  6 10  1  0  0  0  0
  7 10  2  0  0  0  0
  8 28  1  1  0  0  0
  8 13  1  0  0  0  0
  8 20  1  0  0  0  0
  9  3  1  0  0  0  0
 10  5  1  0  0  0  0
 11  4  1  0  0  0  0
 11  6  1  0  0  0  0
 12  2  1  0  0  0  0
 13 24  1  0  0  0  0
 15 22  2  0  0  0  0
 16 12  2  0  0  0  0
 17  1  1  0  0  0  0
 17  2  1  1  0  0  0
 18  4  1  1  0  0  0
 18 23  1  0  0  0  0
 19  9  2  0  0  0  0
 20  9  1  6  0  0  0
 20 18  1  0  0  0  0
 21 24  2  0  0  0  0
 22 16  1  0  0  0  0
 23 15  1  6  0  0  0
 23 17  1  0  0  0  0
 24 11  1  0  0  0  0
 25 26  1  0  0  0  0
 26 27  1  0  0  0  0
 30 29  1  0  0  0  0
 30 28  1  0  0  0  0
M  END
>  <MODEL>
7

>  <REMARK>
 VINA RESULT:      -2.7      5.327      9.082
  Name = 
  4 active torsions:
  status: ('A' for Active; 'I' for Inactive)
    1  A    between atoms: C_6  and  C_8
    2  A    between atoms: C_6  and  C_17
    3  A    between atoms: C_7  and  C_10
    4  A    between atoms: C_7  and  C_26
                            x       y       z     vdW  Elec       q    Type
                         _______ _______ _______ _____ _____    ______ ____

>  <TORSDO>
F 4

$$$$
