=
 OpenBabel11052422133D

 25 28  0  0  1  0  0  0  0  0999 V2000
  161.1470  204.4870  149.6320 C   0  0  0  0  0  0  0  0  0  0  0  0
  161.2940  205.8150  150.0690 C   0  0  0  0  0  0  0  0  0  0  0  0
  160.8440  203.7220  151.9300 C   0  0  0  0  0  3  0  0  0  0  0  0
  161.1910  203.9960  148.3160 C   0  0  0  0  0  0  0  0  0  0  0  0
  161.2170  202.6610  145.8630 C   0  0  0  0  0  3  0  0  0  0  0  0
  160.9870  205.0430  152.3740 C   0  0  0  0  0  3  0  0  0  0  0  0
  161.0060  202.6160  148.2500 C   0  0  0  0  0  0  0  0  0  0  0  0
  161.0150  201.9260  147.0400 C   0  0  0  0  0  3  0  0  0  0  0  0
  161.3590  207.4220  151.8920 C   0  0  0  0  0  0  0  0  0  0  0  0
  161.2850  207.7930  153.3360 C   0  0  0  0  0  1  0  0  0  0  0  0
  161.5090  206.8290  149.1880 N   0  0  0  0  0  0  0  0  0  0  0  0
  161.4050  204.0540  145.9140 C   0  0  0  0  0  3  0  0  0  0  0  0
  160.9260  203.4710  150.5640 C   0  0  0  0  0  0  0  0  0  0  0  0
  160.7860  201.9780  149.7930 S   0  0  0  0  0  0  0  0  0  0  0  0
  161.5800  208.4330  150.9540 C   0  0  0  0  0  3  0  0  0  0  0  0
  161.3940  204.7300  147.1430 C   0  0  0  0  0  3  0  0  0  0  0  0
  161.6530  208.1200  149.5960 C   0  0  0  0  0  0  0  0  0  0  0  0
  161.2120  206.0930  151.4590 C   0  0  0  0  0  0  0  0  0  0  0  0
  161.8780  209.1670  148.6490 N   0  0  0  0  0  0  0  0  0  0  0  0
  161.8780  210.4190  148.9850 C   0  0  0  0  0  3  0  0  0  0  0  0
  162.1190  211.4950  147.9750 C   0  0  2  0  0  3  0  0  0  0  0  0
  163.4200  212.2300  148.2550 C   0  0  0  0  0  1  0  0  0  0  0  0
  160.9650  212.4490  147.8870 C   0  0  0  0  0  0  0  0  0  0  0  0
  160.0690  212.2750  147.0750 O   0  0  0  0  0  0  0  0  0  0  0  0
  160.9130  213.6240  148.8010 C   0  0  0  0  0  1  0  0  0  0  0  0
  1  2  2  0  0  0  0
  1 13  1  0  0  0  0
  2 18  1  0  0  0  0
  3  6  1  0  0  0  0
  4  1  1  0  0  0  0
  5 12  2  0  0  0  0
  5  8  1  0  0  0  0
  7  4  1  0  0  0  0
  7 14  1  0  0  0  0
  8  7  2  0  0  0  0
  9 10  1  0  0  0  0
 11 17  2  0  0  0  0
 11  2  1  0  0  0  0
 12 16  1  0  0  0  0
 13  3  2  0  0  0  0
 14 13  1  0  0  0  0
 15  9  2  0  0  0  0
 16  4  2  0  0  0  0
 17 15  1  0  0  0  0
 18  9  1  0  0  0  0
 18  6  2  0  0  0  0
 19 20  2  0  0  0  0
 19 17  1  0  0  0  0
 21 22  1  1  0  0  0
 21 20  1  0  0  0  0
 23 21  1  0  0  0  0
 23 25  1  0  0  0  0
 24 23  2  0  0  0  0
M  END
>  <MODEL>
1

>  <REMARK>
 VINA RESULT:     -10.1      0.000      0.000
  Name = 
  3 active torsions:
  status: ('A' for Active; 'I' for Inactive)
    1  A    between atoms: C_2  and  C_21
    2  A    between atoms: N_6  and  C_23
    3  A    between atoms: C_15  and  C_21
                            x       y       z     vdW  Elec       q    Type
                         _______ _______ _______ _____ _____    ______ ____

>  <TORSDO>
F 3

$$$$
=
 OpenBabel11052422133D

 25 28  0  0  1  0  0  0  0  0999 V2000
  161.3990  205.3540  149.1760 C   0  0  0  0  0  0  0  0  0  0  0  0
  161.4180  206.4230  150.0880 C   0  0  0  0  0  0  0  0  0  0  0  0
  161.9240  206.8650  147.3320 C   0  0  0  0  0  3  0  0  0  0  0  0
  161.1500  203.9960  149.4350 C   0  0  0  0  0  0  0  0  0  0  0  0
  160.7080  201.2400  149.5600 C   0  0  0  0  0  3  0  0  0  0  0  0
  161.9460  207.9360  148.2350 C   0  0  0  0  0  3  0  0  0  0  0  0
  161.2120  203.2080  148.2880 C   0  0  0  0  0  0  0  0  0  0  0  0
  160.9950  201.8330  148.3210 C   0  0  0  0  0  3  0  0  0  0  0  0
  161.7130  208.7970  150.5230 C   0  0  0  0  0  0  0  0  0  0  0  0
  161.9970  210.1980  150.0950 C   0  0  0  0  0  1  0  0  0  0  0  0
  161.1770  206.2270  151.4130 N   0  0  0  0  0  0  0  0  0  0  0  0
  160.6420  202.0220  150.7270 C   0  0  0  0  0  3  0  0  0  0  0  0
  161.6510  205.5920  147.8240 C   0  0  0  0  0  0  0  0  0  0  0  0
  161.5710  204.1570  146.9420 S   0  0  0  0  0  0  0  0  0  0  0  0
  161.4600  208.5510  151.8740 C   0  0  0  0  0  3  0  0  0  0  0  0
  160.8630  203.4070  150.6720 C   0  0  0  0  0  3  0  0  0  0  0  0
  161.1920  207.2520  152.3090 C   0  0  0  0  0  0  0  0  0  0  0  0
  161.6950  207.7310  149.6080 C   0  0  0  0  0  0  0  0  0  0  0  0
  160.9360  207.0180  153.6950 N   0  0  0  0  0  0  0  0  0  0  0  0
  161.1910  207.9030  154.6070 C   0  0  0  0  0  3  0  0  0  0  0  0
  160.9110  207.6340  156.0520 C   0  0  2  0  0  3  0  0  0  0  0  0
  159.5520  206.9780  156.2360 C   0  0  0  0  0  1  0  0  0  0  0  0
  161.0330  208.8750  156.8850 C   0  0  0  0  0  0  0  0  0  0  0  0
  160.0390  209.4800  157.2570 O   0  0  0  0  0  0  0  0  0  0  0  0
  162.3840  209.3770  157.2600 C   0  0  0  0  0  1  0  0  0  0  0  0
  1  4  1  0  0  0  0
  1  2  2  0  0  0  0
  2 11  1  0  0  0  0
  3 13  2  0  0  0  0
  3  6  1  0  0  0  0
  4 16  1  0  0  0  0
  5 12  1  0  0  0  0
  6 18  2  0  0  0  0
  7  8  1  0  0  0  0
  7  4  2  0  0  0  0
  8  5  2  0  0  0  0
  9 15  2  0  0  0  0
 10  9  1  0  0  0  0
 11 17  2  0  0  0  0
 13  1  1  0  0  0  0
 14 13  1  0  0  0  0
 14  7  1  0  0  0  0
 15 17  1  0  0  0  0
 16 12  2  0  0  0  0
 17 19  1  0  0  0  0
 18  2  1  0  0  0  0
 18  9  1  0  0  0  0
 19 20  2  0  0  0  0
 20 21  1  0  0  0  0
 21 22  1  6  0  0  0
 21 23  1  0  0  0  0
 23 24  2  0  0  0  0
 23 25  1  0  0  0  0
M  END
>  <MODEL>
2

>  <REMARK>
 VINA RESULT:      -9.8      2.999      5.453
  Name = 
  3 active torsions:
  status: ('A' for Active; 'I' for Inactive)
    1  A    between atoms: C_2  and  C_21
    2  A    between atoms: N_6  and  C_23
    3  A    between atoms: C_15  and  C_21
                            x       y       z     vdW  Elec       q    Type
                         _______ _______ _______ _____ _____    ______ ____

>  <TORSDO>
F 3

$$$$
=
 OpenBabel11052422133D

 25 28  0  0  1  0  0  0  0  0999 V2000
  161.3160  205.9030  151.0220 C   0  0  0  0  0  0  0  0  0  0  0  0
  161.4880  207.2950  151.1080 C   0  0  0  0  0  0  0  0  0  0  0  0
  161.1170  205.7350  153.4480 C   0  0  0  0  0  3  0  0  0  0  0  0
  161.2970  205.1000  149.8680 C   0  0  0  0  0  0  0  0  0  0  0  0
  161.2030  203.1980  147.8240 C   0  0  0  0  0  3  0  0  0  0  0  0
  161.2870  207.1220  153.5440 C   0  0  0  0  0  3  0  0  0  0  0  0
  161.1030  203.7500  150.1540 C   0  0  0  0  0  0  0  0  0  0  0  0
  161.0530  202.7810  149.1550 C   0  0  0  0  0  3  0  0  0  0  0  0
  161.6450  209.3020  152.4710 C   0  0  0  0  0  0  0  0  0  0  0  0
  161.6400  210.0210  153.7790 C   0  0  0  0  0  1  0  0  0  0  0  0
  161.6660  208.0560  149.9950 N   0  0  0  0  0  0  0  0  0  0  0  0
  161.3990  204.5570  147.5190 C   0  0  0  0  0  3  0  0  0  0  0  0
  161.1350  205.1530  152.1850 C   0  0  0  0  0  0  0  0  0  0  0  0
  160.9530  203.5170  151.8160 S   0  0  0  0  0  0  0  0  0  0  0  0
  161.8250  210.0460  151.3030 C   0  0  0  0  0  3  0  0  0  0  0  0
  161.4480  205.5180  148.5420 C   0  0  0  0  0  3  0  0  0  0  0  0
  161.8340  209.4050  150.0620 C   0  0  0  0  0  0  0  0  0  0  0  0
  161.4720  207.9100  152.3880 C   0  0  0  0  0  0  0  0  0  0  0  0
  162.0190  210.1810  148.8760 N   0  0  0  0  0  0  0  0  0  0  0  0
  161.8060  211.4590  148.8430 C   0  0  0  0  0  3  0  0  0  0  0  0
  162.0100  212.2490  147.5890 C   0  0  2  0  0  3  0  0  0  0  0  0
  163.0550  213.3350  147.7870 C   0  0  0  0  0  1  0  0  0  0  0  0
  160.7230  212.8210  147.0730 C   0  0  0  0  0  0  0  0  0  0  0  0
  160.0370  213.5510  147.7720 O   0  0  0  0  0  0  0  0  0  0  0  0
  160.2760  212.4900  145.6910 C   0  0  0  0  0  1  0  0  0  0  0  0
  1  2  2  0  0  0  0
  1 13  1  0  0  0  0
  2 18  1  0  0  0  0
  3  6  1  0  0  0  0
  4  7  1  0  0  0  0
  4  1  1  0  0  0  0
  5  8  1  0  0  0  0
  7 14  1  0  0  0  0
  8  7  2  0  0  0  0
  9 10  1  0  0  0  0
 11 17  2  0  0  0  0
 11  2  1  0  0  0  0
 12  5  2  0  0  0  0
 12 16  1  0  0  0  0
 13  3  2  0  0  0  0
 14 13  1  0  0  0  0
 15  9  2  0  0  0  0
 16  4  2  0  0  0  0
 17 15  1  0  0  0  0
 18  9  1  0  0  0  0
 18  6  2  0  0  0  0
 19 17  1  0  0  0  0
 20 19  2  0  0  0  0
 21 22  1  1  0  0  0
 21 20  1  0  0  0  0
 23 21  1  0  0  0  0
 23 24  2  0  0  0  0
 25 23  1  0  0  0  0
M  END
>  <MODEL>
3

>  <REMARK>
 VINA RESULT:      -9.4      1.302      1.939
  Name = 
  3 active torsions:
  status: ('A' for Active; 'I' for Inactive)
    1  A    between atoms: C_2  and  C_21
    2  A    between atoms: N_6  and  C_23
    3  A    between atoms: C_15  and  C_21
                            x       y       z     vdW  Elec       q    Type
                         _______ _______ _______ _____ _____    ______ ____

>  <TORSDO>
F 3

$$$$
=
 OpenBabel11052422133D

 25 28  0  0  1  0  0  0  0  0999 V2000
  161.3870  205.8130  149.5640 C   0  0  0  0  0  0  0  0  0  0  0  0
  161.3980  207.0070  150.3050 C   0  0  0  0  0  0  0  0  0  0  0  0
  161.9840  207.0210  147.5300 C   0  0  0  0  0  3  0  0  0  0  0  0
  161.1100  204.5120  150.0170 C   0  0  0  0  0  0  0  0  0  0  0  0
  160.6210  201.8120  150.5420 C   0  0  0  0  0  3  0  0  0  0  0  0
  161.9990  208.2160  148.2610 C   0  0  0  0  0  3  0  0  0  0  0  0
  161.1900  203.5590  149.0040 C   0  0  0  0  0  0  0  0  0  0  0  0
  160.9500  202.2070  149.2370 C   0  0  0  0  0  3  0  0  0  0  0  0
  161.7200  209.4150  150.3860 C   0  0  0  0  0  0  0  0  0  0  0  0
  162.0370  210.7320  149.7600 C   0  0  0  0  0  1  0  0  0  0  0  0
  161.1200  207.0150  151.6360 N   0  0  0  0  0  0  0  0  0  0  0  0
  160.5370  202.7620  151.5770 C   0  0  0  0  0  3  0  0  0  0  0  0
  161.6780  205.8410  148.1990 C   0  0  0  0  0  0  0  0  0  0  0  0
  161.5990  204.2900  147.5420 S   0  0  0  0  0  0  0  0  0  0  0  0
  161.4270  209.3790  151.7500 C   0  0  0  0  0  3  0  0  0  0  0  0
  160.7810  204.1190  151.3190 C   0  0  0  0  0  3  0  0  0  0  0  0
  161.1270  208.1640  152.3680 C   0  0  0  0  0  0  0  0  0  0  0  0
  161.7090  208.2230  149.6410 C   0  0  0  0  0  0  0  0  0  0  0  0
  160.8310  208.1440  153.7660 N   0  0  0  0  0  0  0  0  0  0  0  0
  160.5260  209.2170  154.4260 C   0  0  0  0  0  3  0  0  0  0  0  0
  160.2170  209.1700  155.8890 C   0  0  2  0  0  3  0  0  0  0  0  0
  160.3200  210.5490  156.5180 C   0  0  0  0  0  1  0  0  0  0  0  0
  161.0810  208.1780  156.6100 C   0  0  0  0  0  0  0  0  0  0  0  0
  162.2830  208.3610  156.7240 O   0  0  0  0  0  0  0  0  0  0  0  0
  160.4630  206.9530  157.1900 C   0  0  0  0  0  1  0  0  0  0  0  0
  1  4  1  0  0  0  0
  1  2  2  0  0  0  0
  2 11  1  0  0  0  0
  3 13  2  0  0  0  0
  3  6  1  0  0  0  0
  4 16  1  0  0  0  0
  5 12  1  0  0  0  0
  6 18  2  0  0  0  0
  7  8  1  0  0  0  0
  7  4  2  0  0  0  0
  8  5  2  0  0  0  0
  9 15  2  0  0  0  0
 10  9  1  0  0  0  0
 11 17  2  0  0  0  0
 13  1  1  0  0  0  0
 14 13  1  0  0  0  0
 14  7  1  0  0  0  0
 15 17  1  0  0  0  0
 16 12  2  0  0  0  0
 17 19  1  0  0  0  0
 18  2  1  0  0  0  0
 18  9  1  0  0  0  0
 19 20  2  0  0  0  0
 20 21  1  0  0  0  0
 21 22  1  1  0  0  0
 21 23  1  0  0  0  0
 23 24  2  0  0  0  0
 23 25  1  0  0  0  0
M  END
>  <MODEL>
4

>  <REMARK>
 VINA RESULT:      -9.0      3.069      5.511
  Name = 
  3 active torsions:
  status: ('A' for Active; 'I' for Inactive)
    1  A    between atoms: C_2  and  C_21
    2  A    between atoms: N_6  and  C_23
    3  A    between atoms: C_15  and  C_21
                            x       y       z     vdW  Elec       q    Type
                         _______ _______ _______ _____ _____    ______ ____

>  <TORSDO>
F 3

$$$$
=
 OpenBabel11052422133D

 25 28  0  0  1  0  0  0  0  0999 V2000
  161.5160  207.6500  151.1960 C   0  0  0  0  0  0  0  0  0  0  0  0
  161.3760  206.3130  150.7860 C   0  0  0  0  0  0  0  0  0  0  0  0
  161.2700  207.0020  153.5360 C   0  0  0  0  0  3  0  0  0  0  0  0
  161.7170  208.7870  150.3950 C   0  0  0  0  0  0  0  0  0  0  0  0
  162.1170  211.2530  149.1440 C   0  0  0  0  0  3  0  0  0  0  0  0
  161.1300  205.6670  153.1360 C   0  0  0  0  0  3  0  0  0  0  0  0
  161.8130  209.9610  151.1390 C   0  0  0  0  0  0  0  0  0  0  0  0
  162.0110  211.2030  150.5420 C   0  0  0  0  0  3  0  0  0  0  0  0
  161.0410  203.9740  151.3590 C   0  0  0  0  0  0  0  0  0  0  0  0
  160.8330  202.8650  152.3360 C   0  0  0  0  0  1  0  0  0  0  0  0
  161.4250  205.9680  149.4710 N   0  0  0  0  0  0  0  0  0  0  0  0
  162.0220  210.0770  148.3780 C   0  0  0  0  0  3  0  0  0  0  0  0
  161.4610  207.9690  152.5530 C   0  0  0  0  0  0  0  0  0  0  0  0
  161.6550  209.6280  152.7840 S   0  0  0  0  0  0  0  0  0  0  0  0
  161.0970  203.6630  149.9990 C   0  0  0  0  0  3  0  0  0  0  0  0
  161.8210  208.8350  149.0000 C   0  0  0  0  0  3  0  0  0  0  0  0
  161.2910  204.6770  149.0590 C   0  0  0  0  0  0  0  0  0  0  0  0
  161.1800  205.3100  151.7720 C   0  0  0  0  0  0  0  0  0  0  0  0
  161.3470  204.3410  147.6710 N   0  0  0  0  0  0  0  0  0  0  0  0
  161.2530  203.1190  147.2480 C   0  0  0  0  0  3  0  0  0  0  0  0
  161.3120  202.7950  145.7890 C   0  0  2  0  0  3  0  0  0  0  0  0
  160.8620  203.9760  144.9440 C   0  0  0  0  0  1  0  0  0  0  0  0
  160.5260  201.5610  145.4590 C   0  0  0  0  0  0  0  0  0  0  0  0
  159.5610  201.6130  144.7110 O   0  0  0  0  0  0  0  0  0  0  0  0
  160.9270  200.2560  146.0540 C   0  0  0  0  0  1  0  0  0  0  0  0
  1 13  1  0  0  0  0
  2  1  2  0  0  0  0
  2 18  1  0  0  0  0
  4  7  1  0  0  0  0
  4  1  1  0  0  0  0
  5  8  1  0  0  0  0
  6  3  1  0  0  0  0
  7 14  1  0  0  0  0
  8  7  2  0  0  0  0
  9 18  1  0  0  0  0
  9 10  1  0  0  0  0
 11  2  1  0  0  0  0
 12 16  1  0  0  0  0
 12  5  2  0  0  0  0
 13 14  1  0  0  0  0
 13  3  2  0  0  0  0
 15  9  2  0  0  0  0
 16  4  2  0  0  0  0
 17 11  2  0  0  0  0
 17 15  1  0  0  0  0
 18  6  2  0  0  0  0
 19 17  1  0  0  0  0
 20 19  2  0  0  0  0
 21 22  1  6  0  0  0
 21 20  1  0  0  0  0
 23 21  1  0  0  0  0
 23 25  1  0  0  0  0
 24 23  2  0  0  0  0
M  END
>  <MODEL>
5

>  <REMARK>
 VINA RESULT:      -9.0      3.033      6.965
  Name = 
  3 active torsions:
  status: ('A' for Active; 'I' for Inactive)
    1  A    between atoms: C_2  and  C_21
    2  A    between atoms: N_6  and  C_23
    3  A    between atoms: C_15  and  C_21
                            x       y       z     vdW  Elec       q    Type
                         _______ _______ _______ _____ _____    ______ ____

>  <TORSDO>
F 3

$$$$
=
 OpenBabel11052422133D

 25 28  0  0  1  0  0  0  0  0999 V2000
  161.1790  208.7420  153.1300 C   0  0  0  0  0  0  0  0  0  0  0  0
  161.2900  207.9990  151.9420 C   0  0  0  0  0  0  0  0  0  0  0  0
  161.7960  210.7900  151.9540 C   0  0  0  0  0  3  0  0  0  0  0  0
  160.8280  208.2840  154.4110 C   0  0  0  0  0  0  0  0  0  0  0  0
  160.1770  207.7520  157.0750 C   0  0  0  0  0  3  0  0  0  0  0  0
  161.9080  210.0570  150.7660 C   0  0  0  0  0  3  0  0  0  0  0  0
  160.8160  209.3020  155.3630 C   0  0  0  0  0  0  0  0  0  0  0  0
  160.4960  209.0650  156.6970 C   0  0  0  0  0  3  0  0  0  0  0  0
  161.7710  207.9220  149.5600 C   0  0  0  0  0  0  0  0  0  0  0  0
  162.1540  208.5540  148.2640 C   0  0  0  0  0  1  0  0  0  0  0  0
  161.0500  206.6600  151.9210 N   0  0  0  0  0  0  0  0  0  0  0  0
  160.1850  206.7140  156.1270 C   0  0  0  0  0  3  0  0  0  0  0  0
  161.4310  210.1150  153.1150 C   0  0  0  0  0  0  0  0  0  0  0  0
  161.2320  210.7730  154.6540 S   0  0  0  0  0  0  0  0  0  0  0  0
  161.5160  206.5490  149.5830 C   0  0  0  0  0  3  0  0  0  0  0  0
  160.5110  206.9740  154.7870 C   0  0  0  0  0  3  0  0  0  0  0  0
  161.1540  205.9260  150.7790 C   0  0  0  0  0  0  0  0  0  0  0  0
  161.6600  208.6680  150.7460 C   0  0  0  0  0  0  0  0  0  0  0  0
  160.8960  204.5200  150.7850 N   0  0  0  0  0  0  0  0  0  0  0  0
  160.8280  203.8230  149.6940 C   0  0  0  0  0  3  0  0  0  0  0  0
  160.5590  202.3520  149.7280 C   0  0  2  0  0  3  0  0  0  0  0  0
  161.1890  201.7050  150.9510 C   0  0  0  0  0  1  0  0  0  0  0  0
  161.0030  201.6740  148.4650 C   0  0  0  0  0  0  0  0  0  0  0  0
  161.2490  200.4770  148.4500 O   0  0  0  0  0  0  0  0  0  0  0  0
  161.1500  202.4720  147.2170 C   0  0  0  0  0  1  0  0  0  0  0  0
  1  4  1  0  0  0  0
  2  1  1  0  0  0  0
  3 13  1  0  0  0  0
  4 16  2  0  0  0  0
  4  7  1  0  0  0  0
  6  3  2  0  0  0  0
  7  8  2  0  0  0  0
  8  5  1  0  0  0  0
  9 15  2  0  0  0  0
  9 18  1  0  0  0  0
 10  9  1  0  0  0  0
 11  2  1  0  0  0  0
 12  5  2  0  0  0  0
 13  1  2  0  0  0  0
 13 14  1  0  0  0  0
 14  7  1  0  0  0  0
 15 17  1  0  0  0  0
 16 12  1  0  0  0  0
 17 19  1  0  0  0  0
 17 11  2  0  0  0  0
 18  6  1  0  0  0  0
 18  2  2  0  0  0  0
 20 21  1  0  0  0  0
 20 19  2  0  0  0  0
 21 22  1  1  0  0  0
 23 21  1  0  0  0  0
 24 23  2  0  0  0  0
 25 23  1  0  0  0  0
M  END
>  <MODEL>
6

>  <REMARK>
 VINA RESULT:      -8.5      3.762      8.064
  Name = 
  3 active torsions:
  status: ('A' for Active; 'I' for Inactive)
    1  A    between atoms: C_2  and  C_21
    2  A    between atoms: N_6  and  C_23
    3  A    between atoms: C_15  and  C_21
                            x       y       z     vdW  Elec       q    Type
                         _______ _______ _______ _____ _____    ______ ____

>  <TORSDO>
F 3

$$$$
=
 OpenBabel11052422133D

 25 28  0  0  1  0  0  0  0  0999 V2000
  161.0860  203.7250  148.0460 C   0  0  0  0  0  0  0  0  0  0  0  0
  161.0780  204.2920  149.3310 C   0  0  0  0  0  0  0  0  0  0  0  0
  160.8560  201.4850  148.9890 C   0  0  0  0  0  3  0  0  0  0  0  0
  161.1940  204.3800  146.8070 C   0  0  0  0  0  0  0  0  0  0  0  0
  161.3860  205.3200  144.1840 C   0  0  0  0  0  3  0  0  0  0  0  0
  160.8460  202.0430  150.2740 C   0  0  0  0  0  3  0  0  0  0  0  0
  161.1660  203.5000  145.7270 C   0  0  0  0  0  0  0  0  0  0  0  0
  161.2610  203.9420  144.4100 C   0  0  0  0  0  3  0  0  0  0  0  0
  160.9490  204.0080  151.7420 C   0  0  0  0  0  0  0  0  0  0  0  0
  160.8250  203.1760  152.9750 C   0  0  0  0  0  1  0  0  0  0  0  0
  161.1830  205.6360  149.5110 N   0  0  0  0  0  0  0  0  0  0  0  0
  161.4150  206.2210  145.2640 C   0  0  0  0  0  3  0  0  0  0  0  0
  160.9750  202.3410  147.8980 C   0  0  0  0  0  0  0  0  0  0  0  0
  161.0090  201.9120  146.2680 S   0  0  0  0  0  0  0  0  0  0  0  0
  161.0600  205.3930  151.8820 C   0  0  0  0  0  3  0  0  0  0  0  0
  161.3200  205.7560  146.5840 C   0  0  0  0  0  3  0  0  0  0  0  0
  161.1770  206.2020  150.7500 C   0  0  0  0  0  0  0  0  0  0  0  0
  160.9570  203.4370  150.4580 C   0  0  0  0  0  0  0  0  0  0  0  0
  161.2890  207.6180  150.9100 N   0  0  0  0  0  0  0  0  0  0  0  0
  160.9490  208.2200  152.0060 C   0  0  0  0  0  3  0  0  0  0  0  0
  161.0790  209.7040  152.1500 C   0  0  2  0  0  3  0  0  0  0  0  0
  162.3760  210.2050  151.5370 C   0  0  0  0  0  1  0  0  0  0  0  0
  160.9490  210.1400  153.5790 C   0  0  0  0  0  0  0  0  0  0  0  0
  160.8510  211.3240  153.8660 O   0  0  0  0  0  0  0  0  0  0  0  0
  160.9420  209.1170  154.6610 C   0  0  0  0  0  1  0  0  0  0  0  0
  1  2  2  0  0  0  0
  2 11  1  0  0  0  0
  2 18  1  0  0  0  0
  3  6  1  0  0  0  0
  4  1  1  0  0  0  0
  5  8  2  0  0  0  0
  5 12  1  0  0  0  0
  6 18  2  0  0  0  0
  7 14  1  0  0  0  0
  7  4  2  0  0  0  0
  8  7  1  0  0  0  0
  9 15  2  0  0  0  0
  9 10  1  0  0  0  0
 11 17  2  0  0  0  0
 12 16  2  0  0  0  0
 13  1  1  0  0  0  0
 13  3  2  0  0  0  0
 14 13  1  0  0  0  0
 16  4  1  0  0  0  0
 17 19  1  0  0  0  0
 17 15  1  0  0  0  0
 18  9  1  0  0  0  0
 19 20  2  0  0  0  0
 20 21  1  0  0  0  0
 21 22  1  1  0  0  0
 21 23  1  0  0  0  0
 23 24  2  0  0  0  0
 23 25  1  0  0  0  0
M  END
>  <MODEL>
7

>  <REMARK>
 VINA RESULT:      -8.3      2.550      3.743
  Name = 
  3 active torsions:
  status: ('A' for Active; 'I' for Inactive)
    1  A    between atoms: C_2  and  C_21
    2  A    between atoms: N_6  and  C_23
    3  A    between atoms: C_15  and  C_21
                            x       y       z     vdW  Elec       q    Type
                         _______ _______ _______ _____ _____    ______ ____

>  <TORSDO>
F 3

$$$$
=
 OpenBabel11052422133D

 25 28  0  0  1  0  0  0  0  0999 V2000
  161.1130  206.1120  150.9490 C   0  0  0  0  0  0  0  0  0  0  0  0
  161.0410  207.1550  151.8890 C   0  0  0  0  0  0  0  0  0  0  0  0
  161.0890  204.4470  152.7340 C   0  0  0  0  0  3  0  0  0  0  0  0
  161.1690  206.2080  149.5480 C   0  0  0  0  0  0  0  0  0  0  0  0
  161.2930  206.0000  146.7650 C   0  0  0  0  0  3  0  0  0  0  0  0
  161.0150  205.4810  153.6770 C   0  0  0  0  0  3  0  0  0  0  0  0
  161.2340  204.9630  148.9250 C   0  0  0  0  0  0  0  0  0  0  0  0
  161.2980  204.8310  147.5400 C   0  0  0  0  0  3  0  0  0  0  0  0
  160.9190  207.8770  154.2070 C   0  0  0  0  0  0  0  0  0  0  0  0
  160.8630  207.6160  155.6760 C   0  0  0  0  0  1  0  0  0  0  0  0
  161.0160  208.4580  151.4980 N   0  0  0  0  0  0  0  0  0  0  0  0
  161.2280  207.2640  147.3790 C   0  0  0  0  0  3  0  0  0  0  0  0
  161.1350  204.7870  151.3850 C   0  0  0  0  0  0  0  0  0  0  0  0
  161.2240  203.7300  150.0740 S   0  0  0  0  0  0  0  0  0  0  0  0
  160.8970  209.2000  153.7630 C   0  0  0  0  0  3  0  0  0  0  0  0
  161.1650  207.3750  148.7770 C   0  0  0  0  0  3  0  0  0  0  0  0
  160.9460  209.4790  152.3960 C   0  0  0  0  0  0  0  0  0  0  0  0
  160.9910  206.8310  153.2710 C   0  0  0  0  0  0  0  0  0  0  0  0
  160.9210  210.8390  151.9590 N   0  0  0  0  0  0  0  0  0  0  0  0
  159.9350  211.6370  152.2270 C   0  0  0  0  0  3  0  0  0  0  0  0
  159.9350  213.0580  151.7600 C   0  0  2  0  0  3  0  0  0  0  0  0
  158.9070  213.8850  152.5130 C   0  0  0  0  0  1  0  0  0  0  0  0
  159.7330  213.1580  150.2770 C   0  0  0  0  0  0  0  0  0  0  0  0
  160.6440  212.9080  149.5020 O   0  0  0  0  0  0  0  0  0  0  0  0
  158.4050  213.5730  149.7440 C   0  0  0  0  0  1  0  0  0  0  0  0
  1 13  1  0  0  0  0
  1  2  2  0  0  0  0
  2 18  1  0  0  0  0
  3  6  1  0  0  0  0
  4  1  1  0  0  0  0
  5 12  2  0  0  0  0
  5  8  1  0  0  0  0
  7  4  1  0  0  0  0
  7 14  1  0  0  0  0
  8  7  2  0  0  0  0
  9 10  1  0  0  0  0
 11  2  1  0  0  0  0
 11 17  2  0  0  0  0
 12 16  1  0  0  0  0
 13  3  2  0  0  0  0
 14 13  1  0  0  0  0
 15  9  2  0  0  0  0
 16  4  2  0  0  0  0
 17 15  1  0  0  0  0
 18  6  2  0  0  0  0
 18  9  1  0  0  0  0
 19 20  2  0  0  0  0
 19 17  1  0  0  0  0
 21 20  1  0  0  0  0
 21 22  1  1  0  0  0
 23 21  1  0  0  0  0
 24 23  2  0  0  0  0
 25 23  1  0  0  0  0
M  END
>  <MODEL>
8

>  <REMARK>
 VINA RESULT:      -8.3      2.179      3.041
  Name = 
  3 active torsions:
  status: ('A' for Active; 'I' for Inactive)
    1  A    between atoms: C_2  and  C_21
    2  A    between atoms: N_6  and  C_23
    3  A    between atoms: C_15  and  C_21
                            x       y       z     vdW  Elec       q    Type
                         _______ _______ _______ _____ _____    ______ ____

>  <TORSDO>
F 3

$$$$
=
 OpenBabel11052422133D

 25 28  0  0  1  0  0  0  0  0999 V2000
  161.1440  207.5060  152.6650 C   0  0  0  0  0  0  0  0  0  0  0  0
  161.2910  207.3500  151.2760 C   0  0  0  0  0  0  0  0  0  0  0  0
  161.0350  205.0860  152.9660 C   0  0  0  0  0  3  0  0  0  0  0  0
  161.1010  208.7000  153.4050 C   0  0  0  0  0  0  0  0  0  0  0  0
  160.9720  210.8400  155.1960 C   0  0  0  0  0  3  0  0  0  0  0  0
  161.1820  204.9220  151.5830 C   0  0  0  0  0  3  0  0  0  0  0  0
  160.9440  208.4810  154.7720 C   0  0  0  0  0  0  0  0  0  0  0  0
  160.8760  209.5290  155.6870 C   0  0  0  0  0  3  0  0  0  0  0  0
  161.4570  205.8860  149.3410 C   0  0  0  0  0  0  0  0  0  0  0  0
  161.4870  204.5420  148.6950 C   0  0  0  0  0  1  0  0  0  0  0  0
  161.4150  208.4260  150.4530 N   0  0  0  0  0  0  0  0  0  0  0  0
  161.1300  211.0770  153.8180 C   0  0  0  0  0  3  0  0  0  0  0  0
  161.0200  206.3800  153.4800 C   0  0  0  0  0  0  0  0  0  0  0  0
  160.8560  206.8300  155.0970 S   0  0  0  0  0  0  0  0  0  0  0  0
  161.5810  207.0180  148.5330 C   0  0  0  0  0  3  0  0  0  0  0  0
  161.1950  210.0060  152.9130 C   0  0  0  0  0  3  0  0  0  0  0  0
  161.5590  208.2910  149.1050 C   0  0  0  0  0  0  0  0  0  0  0  0
  161.3100  206.0390  150.7310 C   0  0  0  0  0  0  0  0  0  0  0  0
  161.6870  209.4390  148.2630 N   0  0  0  0  0  0  0  0  0  0  0  0
  161.9370  210.6200  148.7350 C   0  0  0  0  0  3  0  0  0  0  0  0
  162.0690  211.8060  147.8320 C   0  0  2  0  0  3  0  0  0  0  0  0
  163.3750  212.5430  148.0810 C   0  0  0  0  0  1  0  0  0  0  0  0
  160.8930  212.7290  147.9450 C   0  0  0  0  0  0  0  0  0  0  0  0
  159.8950  212.5590  147.2620 O   0  0  0  0  0  0  0  0  0  0  0  0
  160.9460  213.8700  148.9010 C   0  0  0  0  0  1  0  0  0  0  0  0
  1  4  1  0  0  0  0
  1 13  2  0  0  0  0
  2  1  1  0  0  0  0
  3 13  1  0  0  0  0
  4  7  1  0  0  0  0
  5  8  1  0  0  0  0
  6  3  2  0  0  0  0
  7 14  1  0  0  0  0
  7  8  2  0  0  0  0
  9 18  1  0  0  0  0
 10  9  1  0  0  0  0
 11  2  1  0  0  0  0
 12  5  2  0  0  0  0
 13 14  1  0  0  0  0
 15 17  1  0  0  0  0
 15  9  2  0  0  0  0
 16  4  2  0  0  0  0
 16 12  1  0  0  0  0
 17 11  2  0  0  0  0
 18  2  2  0  0  0  0
 18  6  1  0  0  0  0
 19 20  2  0  0  0  0
 19 17  1  0  0  0  0
 21 23  1  0  0  0  0
 21 22  1  1  0  0  0
 21 20  1  0  0  0  0
 23 25  1  0  0  0  0
 24 23  2  0  0  0  0
M  END
>  <MODEL>
9

>  <REMARK>
 VINA RESULT:      -8.2      2.060      5.418
  Name = 
  3 active torsions:
  status: ('A' for Active; 'I' for Inactive)
    1  A    between atoms: C_2  and  C_21
    2  A    between atoms: N_6  and  C_23
    3  A    between atoms: C_15  and  C_21
                            x       y       z     vdW  Elec       q    Type
                         _______ _______ _______ _____ _____    ______ ____

>  <TORSDO>
F 3

$$$$
