=
 OpenBabel11062410403D

 32 36  0  0  1  0  0  0  0  0999 V2000
  159.5970  211.7370  154.7180 C   0  0  0  0  0  2  0  0  0  0  0  0
  161.0210  206.5830  153.5230 C   0  0  0  0  0  2  0  0  0  0  0  0
  161.6260  209.1580  148.2780 O   0  0  0  0  0  0  0  0  0  0  0  0
  162.7400  208.3150  148.0160 C   0  0  0  0  0  2  0  0  0  0  0  0
  160.4660  208.6980  154.7630 C   0  0  2  0  0  3  0  0  0  0  0  0
  162.1420  209.5170  152.9340 C   0  0  0  0  0  2  0  0  0  0  0  0
  160.2000  210.9200  153.5840 C   0  0  0  0  0  2  0  0  0  0  0  0
  161.6870  209.6560  149.6150 C   0  0  0  0  0  2  0  0  0  0  0  0
  161.5000  208.5420  151.9590 C   0  0  1  0  0  3  0  0  0  0  0  0
  162.1530  208.5930  150.6180 C   0  0  1  0  0  3  0  0  0  0  0  0
  161.9800  206.2820  151.1520 N   0  0  0  0  0  0  0  0  0  0  0  0
  159.2630  210.0260  156.5140 C   0  0  0  0  0  3  0  0  0  0  0  0
  161.2010  209.8850  154.0880 C   0  0  1  0  0  3  0  0  0  0  0  0
  160.1040  209.0400  156.1780 C   0  0  0  0  0  3  0  0  0  0  0  0
  158.5860  210.9120  155.5090 C   0  0  1  0  0  3  0  0  0  0  0  0
  162.6600  206.9990  148.8270 C   0  0  0  0  0  2  0  0  0  0  0  0
  161.8140  207.2450  150.0690 C   0  0  2  0  0  3  0  0  0  0  0  0
  161.2650  207.3970  154.7880 C   0  0  0  0  0  2  0  0  0  0  0  0
  161.8720  207.1220  152.3710 C   0  0  2  0  0  3  0  0  0  0  0  0
  156.1960  211.6360  156.0830 C   0  0  0  0  0  0  0  0  0  0  0  0
  157.6180  211.7850  156.1670 N   0  0  0  0  0  2  0  0  0  0  0  0
  155.6850  210.7140  155.3940 O   0  0  0  0  0  0  0  0  0  0  0  0
  155.3520  212.5450  156.7780 N   0  0  0  0  0  1  0  0  0  0  0  0
  160.8640  205.3420  151.0390 C   0  0  0  0  0  2  0  0  0  0  0  0
  160.4960  202.8340  152.2070 O   0  0  0  0  0  0  0  0  0  0  0  0
  160.9700  201.4840  150.3330 C   0  0  2  0  0  3  0  0  0  0  0  0
  161.3100  204.0660  150.3310 C   0  0  2  0  0  3  0  0  0  0  0  0
  160.9770  202.7530  148.1370 C   0  0  0  0  0  2  0  0  0  0  0  0
  161.6420  201.6500  148.9680 C   0  0  0  0  0  2  0  0  0  0  0  0
  159.6970  200.9360  150.1750 O   0  0  0  0  0  1  0  0  0  0  0  0
  160.7690  204.0740  148.9000 C   0  0  0  0  0  2  0  0  0  0  0  0
  160.8770  202.8040  151.0460 C   0  0  0  0  0  0  0  0  0  0  0  0
  1 15  1  0  0  0  0
  2 18  1  0  0  0  0
  3  8  1  0  0  0  0
  4  3  1  0  0  0  0
  4 16  1  0  0  0  0
  5 18  1  1  0  0  0
  5 14  1  0  0  0  0
  7 13  1  0  0  0  0
  7  1  1  0  0  0  0
  9 19  1  0  0  0  0
  9  6  1  1  0  0  0
 10  8  1  6  0  0  0
 10  9  1  0  0  0  0
 11 19  1  0  0  0  0
 13  6  1  6  0  0  0
 13  5  1  0  0  0  0
 14 12  2  0  0  0  0
 15 21  1  1  0  0  0
 15 12  1  0  0  0  0
 17 16  1  6  0  0  0
 17 10  1  0  0  0  0
 17 11  1  0  0  0  0
 19  2  1  1  0  0  0
 20 21  1  0  0  0  0
 20 23  1  0  0  0  0
 22 20  2  0  0  0  0
 24 11  1  0  0  0  0
 26 30  1  6  0  0  0
 26 32  1  0  0  0  0
 27 24  1  1  0  0  0
 27 32  1  0  0  0  0
 28 31  1  0  0  0  0
 28 29  1  0  0  0  0
 29 26  1  0  0  0  0
 31 27  1  0  0  0  0
 32 25  2  0  0  0  0
M  END
>  <MODEL>
1

>  <REMARK>
 VINA RESULT:      -8.2      0.000      0.000
  Name = 
  3 active torsions:
  status: ('A' for Active; 'I' for Inactive)
    1  A    between atoms: N_10  and  C_24
    2  A    between atoms: C_11  and  C_27
    3  A    between atoms: N_16  and  C_27
                            x       y       z     vdW  Elec       q    Type
                         _______ _______ _______ _____ _____    ______ ____

>  <TORSDO>
F 3

$$$$
=
 OpenBabel11062410403D

 32 36  0  0  1  0  0  0  0  0999 V2000
  161.3510  205.4130  149.3480 C   0  0  0  0  0  2  0  0  0  0  0  0
  161.2980  210.3390  151.7470 C   0  0  0  0  0  2  0  0  0  0  0  0
  159.3680  206.9370  156.1300 O   0  0  0  0  0  0  0  0  0  0  0  0
  160.0660  207.7640  157.0510 C   0  0  0  0  0  2  0  0  0  0  0  0
  161.7380  208.4450  150.1530 C   0  0  2  0  0  3  0  0  0  0  0  0
  162.2900  207.3910  152.4790 C   0  0  0  0  0  2  0  0  0  0  0  0
  161.1650  206.0470  150.7190 C   0  0  0  0  0  2  0  0  0  0  0  0
  160.1810  206.6750  154.9850 C   0  0  0  0  0  2  0  0  0  0  0  0
  161.1180  208.1620  153.0670 C   0  0  1  0  0  3  0  0  0  0  0  0
  160.9720  207.9090  154.5310 C   0  0  1  0  0  3  0  0  0  0  0  0
  160.8250  210.2690  154.2770 N   0  0  0  0  0  0  0  0  0  0  0  0
  161.8050  207.3900  147.8820 C   0  0  0  0  0  3  0  0  0  0  0  0
  162.1470  207.1890  150.9650 C   0  0  1  0  0  3  0  0  0  0  0  0
  162.2170  208.3340  148.7350 C   0  0  0  0  0  3  0  0  0  0  0  0
  160.8140  206.3220  148.2480 C   0  0  1  0  0  3  0  0  0  0  0  0
  160.2650  209.1940  156.4940 C   0  0  0  0  0  2  0  0  0  0  0  0
  160.2340  209.1320  154.9720 C   0  0  2  0  0  3  0  0  0  0  0  0
  162.2670  209.7600  150.7220 C   0  0  0  0  0  2  0  0  0  0  0  0
  161.4760  209.6440  153.0990 C   0  0  2  0  0  3  0  0  0  0  0  0
  161.3860  204.8950  146.1980 C   0  0  0  0  0  0  0  0  0  0  0  0
  160.4500  205.5390  147.0700 N   0  0  0  0  0  2  0  0  0  0  0  0
  162.6250  204.9880  146.4020 O   0  0  0  0  0  0  0  0  0  0  0  0
  160.9110  204.1490  145.0850 N   0  0  0  0  0  1  0  0  0  0  0  0
  159.7120  211.1350  153.8880 C   0  0  0  0  0  2  0  0  0  0  0  0
  159.9960  213.1830  155.7630 O   0  0  0  0  0  0  0  0  0  0  0  0
  157.8960  213.0040  156.8210 C   0  0  2  0  0  3  0  0  0  0  0  0
  158.7280  211.2930  155.0430 C   0  0  2  0  0  3  0  0  0  0  0  0
  156.2150  211.6160  155.5250 C   0  0  0  0  0  2  0  0  0  0  0  0
  156.7650  211.9780  156.9100 C   0  0  0  0  0  2  0  0  0  0  0  0
  157.3880  214.2430  156.4300 O   0  0  0  0  0  1  0  0  0  0  0  0
  157.3010  211.2680  154.4910 C   0  0  0  0  0  2  0  0  0  0  0  0
  158.9520  212.5530  155.8510 C   0  0  0  0  0  0  0  0  0  0  0  0
  1  7  1  0  0  0  0
  3  4  1  0  0  0  0
  5 14  1  6  0  0  0
  5 18  1  0  0  0  0
  5 13  1  0  0  0  0
  8  3  1  0  0  0  0
  9  6  1  1  0  0  0
  9 19  1  0  0  0  0
  9 10  1  0  0  0  0
 10 17  1  0  0  0  0
 10  8  1  6  0  0  0
 11 17  1  0  0  0  0
 12 15  1  0  0  0  0
 12 14  2  0  0  0  0
 13  7  1  1  0  0  0
 13  6  1  0  0  0  0
 15 21  1  6  0  0  0
 15  1  1  0  0  0  0
 16  4  1  0  0  0  0
 17 16  1  1  0  0  0
 18  2  1  0  0  0  0
 19  2  1  6  0  0  0
 19 11  1  0  0  0  0
 20 22  2  0  0  0  0
 20 21  1  0  0  0  0
 23 20  1  0  0  0  0
 24 11  1  0  0  0  0
 25 32  2  0  0  0  0
 26 30  1  6  0  0  0
 26 29  1  0  0  0  0
 27 24  1  6  0  0  0
 27 32  1  0  0  0  0
 28 29  1  0  0  0  0
 31 27  1  0  0  0  0
 31 28  1  0  0  0  0
 32 26  1  0  0  0  0
M  END
>  <MODEL>
2

>  <REMARK>
 VINA RESULT:      -7.6      2.848      9.163
  Name = 
  3 active torsions:
  status: ('A' for Active; 'I' for Inactive)
    1  A    between atoms: N_10  and  C_24
    2  A    between atoms: C_11  and  C_27
    3  A    between atoms: N_16  and  C_27
                            x       y       z     vdW  Elec       q    Type
                         _______ _______ _______ _____ _____    ______ ____

>  <TORSDO>
F 3

$$$$
=
 OpenBabel11062410403D

 32 36  0  0  1  0  0  0  0  0999 V2000
  161.4380  203.5510  150.7780 C   0  0  0  0  0  2  0  0  0  0  0  0
  160.9550  208.9860  151.2800 C   0  0  0  0  0  2  0  0  0  0  0  0
  159.7010  207.2380  156.7470 O   0  0  0  0  0  0  0  0  0  0  0  0
  160.3520  208.3990  157.2450 C   0  0  0  0  0  2  0  0  0  0  0  0
  161.5160  206.6910  150.4210 C   0  0  2  0  0  3  0  0  0  0  0  0
  162.3260  206.5990  152.9030 C   0  0  0  0  0  2  0  0  0  0  0  0
  161.2620  204.6180  151.8480 C   0  0  0  0  0  2  0  0  0  0  0  0
  160.4690  206.6540  155.6940 C   0  0  0  0  0  2  0  0  0  0  0  0
  161.1100  207.4250  153.2940 C   0  0  1  0  0  3  0  0  0  0  0  0
  161.0820  207.7040  154.7590 C   0  0  1  0  0  3  0  0  0  0  0  0
  160.6460  209.7910  153.7070 N   0  0  0  0  0  0  0  0  0  0  0  0
  161.5690  204.8990  148.6720 C   0  0  0  0  0  3  0  0  0  0  0  0
  162.1170  205.8530  151.5790 C   0  0  1  0  0  3  0  0  0  0  0  0
  161.9190  206.1190  149.0940 C   0  0  0  0  0  3  0  0  0  0  0  0
  160.7330  203.9520  149.4850 C   0  0  1  0  0  3  0  0  0  0  0  0
  160.3490  209.5440  156.2040 C   0  0  0  0  0  2  0  0  0  0  0  0
  160.2340  208.9340  154.8120 C   0  0  2  0  0  3  0  0  0  0  0  0
  161.9210  208.1640  150.4360 C   0  0  0  0  0  2  0  0  0  0  0  0
  161.2930  208.8430  152.7670 C   0  0  2  0  0  3  0  0  0  0  0  0
  160.8890  202.4920  147.3860 C   0  0  0  0  0  0  0  0  0  0  0  0
  160.3930  202.7680  148.7000 N   0  0  0  0  0  2  0  0  0  0  0  0
  161.6660  203.2970  146.8070 O   0  0  0  0  0  0  0  0  0  0  0  0
  160.4940  201.2970  146.7220 N   0  0  0  0  0  1  0  0  0  0  0  0
  159.4180  210.3590  153.1480 C   0  0  0  0  0  2  0  0  0  0  0  0
  159.4270  212.4570  151.3080 O   0  0  0  0  0  0  0  0  0  0  0  0
  158.6380  214.1790  152.7120 C   0  0  2  0  0  3  0  0  0  0  0  0
  159.2450  211.8060  153.5980 C   0  0  2  0  0  3  0  0  0  0  0  0
  157.6160  213.3420  154.8770 C   0  0  0  0  0  2  0  0  0  0  0  0
  158.4790  214.4220  154.2140 C   0  0  0  0  0  2  0  0  0  0  0  0
  157.4240  214.4040  152.0610 O   0  0  0  0  0  1  0  0  0  0  0  0
  158.0210  211.9030  154.5120 C   0  0  0  0  0  2  0  0  0  0  0  0
  159.1120  212.7770  152.4440 C   0  0  0  0  0  0  0  0  0  0  0  0
  1  7  1  0  0  0  0
  3  4  1  0  0  0  0
  5 14  1  6  0  0  0
  5 18  1  0  0  0  0
  5 13  1  0  0  0  0
  8  3  1  0  0  0  0
  9  6  1  1  0  0  0
  9 10  1  0  0  0  0
 10 17  1  0  0  0  0
 10  8  1  1  0  0  0
 11 17  1  0  0  0  0
 12 14  2  0  0  0  0
 12 15  1  0  0  0  0
 13  7  1  1  0  0  0
 13  6  1  0  0  0  0
 15 21  1  6  0  0  0
 15  1  1  0  0  0  0
 16  4  1  0  0  0  0
 17 16  1  1  0  0  0
 18  2  1  0  0  0  0
 19  2  1  6  0  0  0
 19  9  1  0  0  0  0
 19 11  1  0  0  0  0
 20 21  1  0  0  0  0
 22 20  2  0  0  0  0
 23 20  1  0  0  0  0
 24 11  1  0  0  0  0
 25 32  2  0  0  0  0
 26 30  1  6  0  0  0
 26 29  1  0  0  0  0
 27 24  1  6  0  0  0
 27 31  1  0  0  0  0
 29 28  1  0  0  0  0
 31 28  1  0  0  0  0
 32 26  1  0  0  0  0
 32 27  1  0  0  0  0
M  END
>  <MODEL>
3

>  <REMARK>
 VINA RESULT:      -7.4      2.755      9.188
  Name = 
  3 active torsions:
  status: ('A' for Active; 'I' for Inactive)
    1  A    between atoms: N_10  and  C_24
    2  A    between atoms: C_11  and  C_27
    3  A    between atoms: N_16  and  C_27
                            x       y       z     vdW  Elec       q    Type
                         _______ _______ _______ _____ _____    ______ ____

>  <TORSDO>
F 3

$$$$
=
 OpenBabel11062410403D

 32 36  0  0  1  0  0  0  0  0999 V2000
  160.3590  211.8400  152.9720 C   0  0  0  0  0  2  0  0  0  0  0  0
  160.7450  206.3750  152.8750 C   0  0  0  0  0  2  0  0  0  0  0  0
  161.3150  207.6400  147.1670 O   0  0  0  0  0  0  0  0  0  0  0  0
  162.2350  206.5650  147.0410 C   0  0  0  0  0  2  0  0  0  0  0  0
  160.6830  208.7680  153.6430 C   0  0  2  0  0  3  0  0  0  0  0  0
  162.3050  208.8540  151.5960 C   0  0  0  0  0  2  0  0  0  0  0  0
  160.7050  210.7050  152.0170 C   0  0  0  0  0  2  0  0  0  0  0  0
  161.5820  208.3840  148.3560 C   0  0  0  0  0  2  0  0  0  0  0  0
  161.4160  207.8380  150.8940 C   0  0  1  0  0  3  0  0  0  0  0  0
  161.9440  207.4840  149.5440 C   0  0  1  0  0  3  0  0  0  0  0  0
  161.4180  205.4110  150.5830 N   0  0  0  0  0  0  0  0  0  0  0  0
  159.8950  210.6340  155.1160 C   0  0  0  0  0  3  0  0  0  0  0  0
  161.5510  209.6260  152.6860 C   0  0  1  0  0  3  0  0  0  0  0  0
  160.5160  209.4590  154.9640 C   0  0  0  0  0  3  0  0  0  0  0  0
  159.2950  211.4040  153.9750 C   0  0  1  0  0  3  0  0  0  0  0  0
  162.0000  205.4860  148.1260 C   0  0  0  0  0  2  0  0  0  0  0  0
  161.3260  206.1410  149.3250 C   0  0  2  0  0  3  0  0  0  0  0  0
  161.2410  207.3720  153.9150 C   0  0  0  0  0  2  0  0  0  0  0  0
  161.5700  206.4910  151.5900 C   0  0  2  0  0  3  0  0  0  0  0  0
  157.1780  212.5490  154.8550 C   0  0  0  0  0  0  0  0  0  0  0  0
  158.5580  212.5630  154.4720 N   0  0  0  0  0  2  0  0  0  0  0  0
  156.4950  211.4950  154.7640 O   0  0  0  0  0  0  0  0  0  0  0  0
  156.5700  213.7410  155.3360 N   0  0  0  0  0  1  0  0  0  0  0  0
  160.1500  204.6980  150.7380 C   0  0  0  0  0  2  0  0  0  0  0  0
  159.9360  202.9960  148.5350 O   0  0  0  0  0  0  0  0  0  0  0  0
  160.9110  201.0640  149.4700 C   0  0  2  0  0  3  0  0  0  0  0  0
  160.3930  203.1970  150.8700 C   0  0  2  0  0  3  0  0  0  0  0  0
  162.1830  201.5000  151.6200 C   0  0  0  0  0  2  0  0  0  0  0  0
  161.2560  200.5400  150.8650 C   0  0  0  0  0  2  0  0  0  0  0  0
  162.0380  201.0110  148.6480 O   0  0  0  0  0  1  0  0  0  0  0  0
  161.7210  202.9680  151.5960 C   0  0  0  0  0  2  0  0  0  0  0  0
  160.3930  202.4730  149.5410 C   0  0  0  0  0  0  0  0  0  0  0  0
  1 15  1  0  0  0  0
  2 18  1  0  0  0  0
  3  8  1  0  0  0  0
  4  3  1  0  0  0  0
  4 16  1  0  0  0  0
  5 18  1  1  0  0  0
  5 14  1  0  0  0  0
  7 13  1  0  0  0  0
  7  1  1  0  0  0  0
  9 19  1  0  0  0  0
  9  6  1  1  0  0  0
 10  8  1  6  0  0  0
 10  9  1  0  0  0  0
 11 24  1  0  0  0  0
 11 19  1  0  0  0  0
 13  6  1  6  0  0  0
 13  5  1  0  0  0  0
 14 12  2  0  0  0  0
 15 21  1  1  0  0  0
 15 12  1  0  0  0  0
 17 16  1  6  0  0  0
 17 10  1  0  0  0  0
 17 11  1  0  0  0  0
 19  2  1  1  0  0  0
 20 23  1  0  0  0  0
 21 20  1  0  0  0  0
 22 20  2  0  0  0  0
 25 32  2  0  0  0  0
 26 30  1  6  0  0  0
 26 32  1  0  0  0  0
 26 29  1  0  0  0  0
 27 24  1  6  0  0  0
 27 31  1  0  0  0  0
 29 28  1  0  0  0  0
 31 28  1  0  0  0  0
 32 27  1  0  0  0  0
M  END
>  <MODEL>
4

>  <REMARK>
 VINA RESULT:      -6.1      1.506      1.903
  Name = 
  3 active torsions:
  status: ('A' for Active; 'I' for Inactive)
    1  A    between atoms: N_10  and  C_24
    2  A    between atoms: C_11  and  C_27
    3  A    between atoms: N_16  and  C_27
                            x       y       z     vdW  Elec       q    Type
                         _______ _______ _______ _____ _____    ______ ____

>  <TORSDO>
F 3

$$$$
=
 OpenBabel11062410403D

 32 36  0  0  1  0  0  0  0  0999 V2000
  161.8180  208.9040  155.5890 C   0  0  0  0  0  2  0  0  0  0  0  0
  161.4120  208.4280  150.1450 C   0  0  0  0  0  2  0  0  0  0  0  0
  161.7940  202.7870  151.7380 O   0  0  0  0  0  0  0  0  0  0  0  0
  160.8990  202.4510  150.6870 C   0  0  0  0  0  2  0  0  0  0  0  0
  161.3650  209.3340  152.4900 C   0  0  2  0  0  3  0  0  0  0  0  0
  160.1010  207.0580  152.7180 C   0  0  0  0  0  2  0  0  0  0  0  0
  161.6250  207.8420  154.5160 C   0  0  0  0  0  2  0  0  0  0  0  0
  161.3410  203.9580  152.4190 C   0  0  0  0  0  2  0  0  0  0  0  0
  161.0850  206.4530  151.7280 C   0  0  1  0  0  3  0  0  0  0  0  0
  160.7820  205.0170  151.4600 C   0  0  1  0  0  3  0  0  0  0  0  0
  161.1160  206.0060  149.3230 N   0  0  0  0  0  0  0  0  0  0  0  0
  161.9150  211.0220  154.2570 C   0  0  0  0  0  3  0  0  0  0  0  0
  160.6720  208.3000  153.4150 C   0  0  1  0  0  3  0  0  0  0  0  0
  161.3180  210.7030  153.1030 C   0  0  0  0  0  3  0  0  0  0  0  0
  162.7000  210.0410  155.0800 C   0  0  1  0  0  3  0  0  0  0  0  0
  160.9450  203.4950  149.5460 C   0  0  0  0  0  2  0  0  0  0  0  0
  161.4180  204.8230  150.1210 C   0  0  2  0  0  3  0  0  0  0  0  0
  160.7590  209.4290  151.0910 C   0  0  0  0  0  2  0  0  0  0  0  0
  160.8090  207.0350  150.3470 C   0  0  2  0  0  3  0  0  0  0  0  0
  164.5910  211.4340  156.1030 C   0  0  0  0  0  0  0  0  0  0  0  0
  163.3540  210.7180  156.1960 N   0  0  0  0  0  2  0  0  0  0  0  0
  165.2130  211.5060  155.0110 O   0  0  0  0  0  0  0  0  0  0  0  0
  165.1270  212.0640  157.2610 N   0  0  0  0  0  1  0  0  0  0  0  0
  162.3360  206.3230  148.5810 C   0  0  0  0  0  2  0  0  0  0  0  0
  163.2240  204.1050  147.1380 O   0  0  0  0  0  0  0  0  0  0  0  0
  162.0540  204.4850  145.1260 C   0  0  2  0  0  3  0  0  0  0  0  0
  162.0940  206.2070  147.0790 C   0  0  2  0  0  3  0  0  0  0  0  0
  160.1950  206.1970  145.3350 C   0  0  0  0  0  2  0  0  0  0  0  0
  161.3220  205.6470  144.4530 C   0  0  0  0  0  2  0  0  0  0  0  0
  161.2230  203.3650  145.1840 O   0  0  0  0  0  1  0  0  0  0  0  0
  160.6150  206.4760  146.7880 C   0  0  0  0  0  2  0  0  0  0  0  0
  162.5010  204.8650  146.5100 C   0  0  0  0  0  0  0  0  0  0  0  0
  2 18  1  0  0  0  0
  3  8  1  0  0  0  0
  4  3  1  0  0  0  0
  5 18  1  6  0  0  0
  5 14  1  0  0  0  0
  5 13  1  0  0  0  0
  7  1  1  0  0  0  0
  9  6  1  1  0  0  0
 10  9  1  0  0  0  0
 10  8  1  1  0  0  0
 11 17  1  0  0  0  0
 11 19  1  0  0  0  0
 12 15  1  0  0  0  0
 13  6  1  6  0  0  0
 13  7  1  0  0  0  0
 14 12  2  0  0  0  0
 15  1  1  0  0  0  0
 15 21  1  1  0  0  0
 16  4  1  0  0  0  0
 17 16  1  6  0  0  0
 17 10  1  0  0  0  0
 19  2  1  6  0  0  0
 19  9  1  0  0  0  0
 20 21  1  0  0  0  0
 20 23  1  0  0  0  0
 22 20  2  0  0  0  0
 24 11  1  0  0  0  0
 26 30  1  1  0  0  0
 26 32  1  0  0  0  0
 27 24  1  1  0  0  0
 28 31  1  0  0  0  0
 29 26  1  0  0  0  0
 29 28  1  0  0  0  0
 31 27  1  0  0  0  0
 32 27  1  0  0  0  0
 32 25  2  0  0  0  0
M  END
>  <MODEL>
5

>  <REMARK>
 VINA RESULT:      -5.4      3.270      5.091
  Name = 
  3 active torsions:
  status: ('A' for Active; 'I' for Inactive)
    1  A    between atoms: N_10  and  C_24
    2  A    between atoms: C_11  and  C_27
    3  A    between atoms: N_16  and  C_27
                            x       y       z     vdW  Elec       q    Type
                         _______ _______ _______ _____ _____    ______ ____

>  <TORSDO>
F 3

$$$$
=
 OpenBabel11062410403D

 32 36  0  0  1  0  0  0  0  0999 V2000
  161.7460  204.8880  151.4440 C   0  0  0  0  0  2  0  0  0  0  0  0
  160.5840  210.2400  151.2480 C   0  0  0  0  0  2  0  0  0  0  0  0
  159.7400  209.1170  156.9520 O   0  0  0  0  0  0  0  0  0  0  0  0
  160.2520  210.4060  157.2610 C   0  0  0  0  0  2  0  0  0  0  0  0
  161.4080  207.9360  150.6720 C   0  0  2  0  0  3  0  0  0  0  0  0
  162.3020  208.2840  153.1030 C   0  0  0  0  0  2  0  0  0  0  0  0
  161.4680  206.0620  152.3720 C   0  0  0  0  0  2  0  0  0  0  0  0
  160.5430  208.4920  155.9500 C   0  0  0  0  0  2  0  0  0  0  0  0
  161.0020  209.0000  153.4400 C   0  0  1  0  0  3  0  0  0  0  0  0
  160.9850  209.4720  154.8550 C   0  0  1  0  0  3  0  0  0  0  0  0
  160.2510  211.3260  153.5600 N   0  0  0  0  0  0  0  0  0  0  0  0
  161.6360  205.9400  149.1750 C   0  0  0  0  0  3  0  0  0  0  0  0
  162.1490  207.3450  151.9000 C   0  0  1  0  0  3  0  0  0  0  0  0
  161.8390  207.2410  149.4140 C   0  0  0  0  0  3  0  0  0  0  0  0
  160.9550  205.0190  150.1450 C   0  0  1  0  0  3  0  0  0  0  0  0
  160.0680  211.3880  156.0790 C   0  0  0  0  0  2  0  0  0  0  0  0
  159.9890  210.5840  154.7870 C   0  0  2  0  0  3  0  0  0  0  0  0
  161.6210  209.4350  150.4730 C   0  0  0  0  0  2  0  0  0  0  0  0
  160.9850  210.3450  152.7220 C   0  0  2  0  0  3  0  0  0  0  0  0
  161.3510  203.2640  148.3210 C   0  0  0  0  0  0  0  0  0  0  0  0
  160.7460  203.7050  149.5410 N   0  0  0  0  0  2  0  0  0  0  0  0
  162.1150  204.0230  147.6700 O   0  0  0  0  0  0  0  0  0  0  0  0
  161.0780  201.9550  147.8350 N   0  0  0  0  0  1  0  0  0  0  0  0
  158.9440  211.6550  152.9920 C   0  0  0  0  0  2  0  0  0  0  0  0
  157.9640  214.2060  152.4200 O   0  0  0  0  0  0  0  0  0  0  0  0
  156.4420  214.4220  154.2070 C   0  0  2  0  0  3  0  0  0  0  0  0
  158.0990  212.4240  154.0040 C   0  0  2  0  0  3  0  0  0  0  0  0
  155.9280  212.2330  155.3810 C   0  0  0  0  0  2  0  0  0  0  0  0
  156.1770  213.7370  155.5490 C   0  0  0  0  0  2  0  0  0  0  0  0
  155.2710  214.4530  153.4480 O   0  0  0  0  0  1  0  0  0  0  0  0
  156.9720  211.5190  154.5050 C   0  0  0  0  0  2  0  0  0  0  0  0
  157.5270  213.7110  153.4490 C   0  0  0  0  0  0  0  0  0  0  0  0
  1  7  1  0  0  0  0
  3  4  1  0  0  0  0
  5 14  1  6  0  0  0
  5 13  1  0  0  0  0
  8  3  1  0  0  0  0
  9  6  1  1  0  0  0
  9 10  1  0  0  0  0
 10  8  1  1  0  0  0
 11 17  1  0  0  0  0
 12 14  2  0  0  0  0
 12 15  1  0  0  0  0
 13  7  1  1  0  0  0
 13  6  1  0  0  0  0
 15 21  1  6  0  0  0
 15  1  1  0  0  0  0
 16  4  1  0  0  0  0
 17 10  1  0  0  0  0
 17 16  1  1  0  0  0
 18  5  1  0  0  0  0
 18  2  1  0  0  0  0
 19  2  1  6  0  0  0
 19  9  1  0  0  0  0
 19 11  1  0  0  0  0
 20 21  1  0  0  0  0
 22 20  2  0  0  0  0
 23 20  1  0  0  0  0
 24 11  1  0  0  0  0
 25 32  2  0  0  0  0
 26 30  1  6  0  0  0
 26 29  1  0  0  0  0
 27 24  1  6  0  0  0
 27 31  1  0  0  0  0
 28 29  1  0  0  0  0
 31 28  1  0  0  0  0
 32 27  1  0  0  0  0
 32 26  1  0  0  0  0
M  END
>  <MODEL>
6

>  <REMARK>
 VINA RESULT:      -5.3      2.513      9.227
  Name = 
  3 active torsions:
  status: ('A' for Active; 'I' for Inactive)
    1  A    between atoms: N_10  and  C_24
    2  A    between atoms: C_11  and  C_27
    3  A    between atoms: N_16  and  C_27
                            x       y       z     vdW  Elec       q    Type
                         _______ _______ _______ _____ _____    ______ ____

>  <TORSDO>
F 3

$$$$
