=
 OpenBabel11052422583D

 28 32  0  0  1  0  0  0  0  0999 V2000
  161.1830  207.9690  152.4460 N   0  0  0  0  0  0  0  0  0  0  0  0
  161.2520  206.5960  147.3300 C   0  0  0  0  0  2  0  0  0  0  0  0
  160.8660  203.1870  152.4250 O   0  0  0  0  0  0  0  0  0  0  0  0
  161.2180  204.0610  147.5160 C   0  0  0  0  0  0  0  0  0  0  0  0
  161.0660  205.3890  149.5460 C   0  0  0  0  0  0  0  0  0  0  0  0
  161.6890  205.2010  145.3210 C   0  0  1  0  0  3  0  0  0  0  0  0
  161.1440  205.3260  148.1420 C   0  0  0  0  0  0  0  0  0  0  0  0
  161.0840  202.9730  149.6220 C   0  0  0  0  0  3  0  0  0  0  0  0
  161.2340  203.9240  146.0190 C   0  0  0  0  0  2  0  0  0  0  0  0
  161.0390  205.5530  152.4480 C   0  0  0  0  0  0  0  0  0  0  0  0
  160.9550  206.7260  150.2370 C   0  0  0  0  0  2  0  0  0  0  0  0
  161.1710  202.9310  148.2690 N   0  0  0  0  0  0  0  0  0  0  0  0
  160.7050  206.8790  154.5640 C   0  0  0  0  0  2  0  0  0  0  0  0
  160.9630  204.2530  151.7570 C   0  0  0  0  0  0  0  0  0  0  0  0
  161.1560  205.5570  153.9530 C   0  0  0  0  0  2  0  0  0  0  0  0
  161.4720  205.0830  143.9500 O   0  0  0  0  0  1  0  0  0  0  0  0
  160.9000  206.3830  145.8610 C   0  0  0  0  0  2  0  0  0  0  0  0
  161.0290  204.2000  150.2900 C   0  0  0  0  0  0  0  0  0  0  0  0
  161.4570  208.0050  153.8800 C   0  0  0  0  0  2  0  0  0  0  0  0
  161.0960  206.7080  151.7450 C   0  0  0  0  0  0  0  0  0  0  0  0
  160.8770  209.2270  151.7760 C   0  0  0  0  0  2  0  0  0  0  0  0
  160.3700  210.2280  152.7580 C   0  0  0  0  0  0  0  0  0  0  0  0
  159.4030  212.0640  154.6360 C   0  0  0  0  0  0  0  0  0  0  0  0
  161.2260  210.7500  153.7350 C   0  0  0  0  0  3  0  0  0  0  0  0
  159.0260  210.6200  152.7280 C   0  0  0  0  0  3  0  0  0  0  0  0
  158.5440  211.5400  153.6650 C   0  0  0  0  0  3  0  0  0  0  0  0
  158.9240  212.9760  155.5650 O   0  0  0  0  0  1  0  0  0  0  0  0
  160.7440  211.6680  154.6710 C   0  0  0  0  0  3  0  0  0  0  0  0
  1 19  1  0  0  0  0
  2  7  1  0  0  0  0
  4  7  2  0  0  0  0
  4 12  1  0  0  0  0
  5 11  1  0  0  0  0
  5 18  2  0  0  0  0
  6 16  1  6  0  0  0
  6 17  1  0  0  0  0
  6  9  1  0  0  0  0
  7  5  1  0  0  0  0
  8 18  1  0  0  0  0
  9  4  1  0  0  0  0
 10 15  1  0  0  0  0
 11 20  1  0  0  0  0
 12  8  2  0  0  0  0
 14  3  2  0  0  0  0
 14 10  1  0  0  0  0
 15 13  1  0  0  0  0
 17  2  1  0  0  0  0
 18 14  1  0  0  0  0
 19 13  1  0  0  0  0
 20  1  1  0  0  0  0
 20 10  2  0  0  0  0
 21  1  1  0  0  0  0
 21 22  1  0  0  0  0
 22 24  1  0  0  0  0
 23 28  1  0  0  0  0
 23 27  1  0  0  0  0
 24 28  2  0  0  0  0
 25 22  2  0  0  0  0
 25 26  1  0  0  0  0
 26 23  2  0  0  0  0
M  END
>  <MODEL>
1

>  <REMARK>
 VINA RESULT:     -10.2      0.000      0.000
  Name = 
  2 active torsions:
  status: ('A' for Active; 'I' for Inactive)
    1  A    between atoms: N_1  and  C_2
    2  A    between atoms: C_2  and  C_3
                            x       y       z     vdW  Elec       q    Type
                         _______ _______ _______ _____ _____    ______ ____

>  <TORSDO>
F 2

$$$$
=
 OpenBabel11052422583D

 28 32  0  0  1  0  0  0  0  0999 V2000
  161.4950  204.8650  148.7840 N   0  0  0  0  0  0  0  0  0  0  0  0
  160.8610  206.4860  153.7870 C   0  0  0  0  0  2  0  0  0  0  0  0
  162.1130  209.6150  148.6530 O   0  0  0  0  0  0  0  0  0  0  0  0
  161.3540  208.9680  153.5510 C   0  0  0  0  0  0  0  0  0  0  0  0
  161.3350  207.5800  151.5550 C   0  0  0  0  0  0  0  0  0  0  0  0
  161.1720  207.8860  155.8160 C   0  0  1  0  0  3  0  0  0  0  0  0
  161.1570  207.7060  152.9470 C   0  0  0  0  0  0  0  0  0  0  0  0
  161.8340  209.9420  151.4390 C   0  0  0  0  0  3  0  0  0  0  0  0
  161.1140  209.1840  155.0190 C   0  0  0  0  0  2  0  0  0  0  0  0
  161.8250  207.2610  148.7090 C   0  0  0  0  0  0  0  0  0  0  0  0
  161.1000  206.2500  150.8820 C   0  0  0  0  0  2  0  0  0  0  0  0
  161.6700  210.0430  152.7820 N   0  0  0  0  0  0  0  0  0  0  0  0
  161.6470  205.9030  146.5930 C   0  0  0  0  0  2  0  0  0  0  0  0
  161.8730  208.5890  149.3470 C   0  0  0  0  0  0  0  0  0  0  0  0
  162.2210  207.1500  147.2560 C   0  0  0  0  0  2  0  0  0  0  0  0
  160.7270  208.1190  157.1160 O   0  0  0  0  0  1  0  0  0  0  0  0
  160.2860  206.8430  155.1550 C   0  0  0  0  0  2  0  0  0  0  0  0
  161.6700  208.7120  150.7970 C   0  0  0  0  0  0  0  0  0  0  0  0
  162.0230  204.6970  147.4330 C   0  0  0  0  0  2  0  0  0  0  0  0
  161.5240  206.1570  149.4310 C   0  0  0  0  0  0  0  0  0  0  0  0
  160.8310  203.7250  149.4060 C   0  0  0  0  0  2  0  0  0  0  0  0
  160.9530  202.5170  148.5380 C   0  0  0  0  0  0  0  0  0  0  0  0
  161.2340  200.2700  146.8960 C   0  0  0  0  0  0  0  0  0  0  0  0
  161.4810  201.3300  149.0580 C   0  0  0  0  0  3  0  0  0  0  0  0
  160.5730  202.5800  147.1920 C   0  0  0  0  0  3  0  0  0  0  0  0
  160.7110  201.4560  146.3730 C   0  0  0  0  0  3  0  0  0  0  0  0
  161.3710  199.1540  146.0820 O   0  0  0  0  0  1  0  0  0  0  0  0
  161.6200  200.2070  148.2390 C   0  0  0  0  0  3  0  0  0  0  0  0
  1 21  1  0  0  0  0
  1 20  1  0  0  0  0
  2 17  1  0  0  0  0
  3 14  2  0  0  0  0
  4  9  1  0  0  0  0
  5  7  2  0  0  0  0
  6 16  1  1  0  0  0
  7  4  1  0  0  0  0
  7  2  1  0  0  0  0
  8 12  1  0  0  0  0
  9  6  1  0  0  0  0
 10 14  1  0  0  0  0
 10 20  2  0  0  0  0
 11  5  1  0  0  0  0
 12  4  2  0  0  0  0
 13 15  1  0  0  0  0
 13 19  1  0  0  0  0
 14 18  1  0  0  0  0
 15 10  1  0  0  0  0
 17  6  1  0  0  0  0
 18  8  2  0  0  0  0
 18  5  1  0  0  0  0
 19  1  1  0  0  0  0
 20 11  1  0  0  0  0
 22 24  1  0  0  0  0
 22 21  1  0  0  0  0
 23 28  1  0  0  0  0
 25 22  2  0  0  0  0
 26 23  2  0  0  0  0
 26 25  1  0  0  0  0
 27 23  1  0  0  0  0
 28 24  2  0  0  0  0
M  END
>  <MODEL>
2

>  <REMARK>
 VINA RESULT:     -10.1      2.654      8.908
  Name = 
  2 active torsions:
  status: ('A' for Active; 'I' for Inactive)
    1  A    between atoms: N_1  and  C_2
    2  A    between atoms: C_2  and  C_3
                            x       y       z     vdW  Elec       q    Type
                         _______ _______ _______ _____ _____    ______ ____

>  <TORSDO>
F 2

$$$$
=
 OpenBabel11052422583D

 28 32  0  0  1  0  0  0  0  0999 V2000
  161.3100  209.7060  152.7730 N   0  0  0  0  0  0  0  0  0  0  0  0
  161.3030  207.0480  148.1900 C   0  0  0  0  0  2  0  0  0  0  0  0
  161.0420  205.0830  154.0030 O   0  0  0  0  0  0  0  0  0  0  0  0
  161.2980  204.6490  149.0300 C   0  0  0  0  0  0  0  0  0  0  0  0
  161.1690  206.4590  150.6470 C   0  0  0  0  0  0  0  0  0  0  0  0
  161.7180  205.1800  146.6050 C   0  0  1  0  0  3  0  0  0  0  0  0
  161.2220  206.0330  149.3060 C   0  0  0  0  0  0  0  0  0  0  0  0
  161.2130  204.1470  151.3490 C   0  0  0  0  0  3  0  0  0  0  0  0
  161.2890  204.1260  147.6200 C   0  0  0  0  0  2  0  0  0  0  0  0
  161.1910  207.3740  153.4060 C   0  0  0  0  0  0  0  0  0  0  0  0
  161.0560  207.9300  150.9680 C   0  0  0  0  0  2  0  0  0  0  0  0
  161.2760  203.7540  150.0520 N   0  0  0  0  0  0  0  0  0  0  0  0
  160.8810  209.2040  155.1100 C   0  0  0  0  0  2  0  0  0  0  0  0
  161.1170  205.9380  153.0790 C   0  0  0  0  0  0  0  0  0  0  0  0
  161.3340  207.7710  154.8560 C   0  0  0  0  0  2  0  0  0  0  0  0
  161.4780  204.7080  145.3160 O   0  0  0  0  0  1  0  0  0  0  0  0
  160.9270  206.4580  146.8340 C   0  0  0  0  0  2  0  0  0  0  0  0
  161.1570  205.5050  151.6750 C   0  0  0  0  0  0  0  0  0  0  0  0
  161.6080  210.1170  154.1410 C   0  0  0  0  0  2  0  0  0  0  0  0
  161.2240  208.3060  152.4250 C   0  0  0  0  0  0  0  0  0  0  0  0
  160.9790  210.7450  151.8030 C   0  0  0  0  0  2  0  0  0  0  0  0
  159.8780  211.6070  152.3220 C   0  0  0  0  0  0  0  0  0  0  0  0
  157.7840  213.2140  153.2480 C   0  0  0  0  0  0  0  0  0  0  0  0
  158.8340  211.0410  153.0630 C   0  0  0  0  0  3  0  0  0  0  0  0
  159.8670  212.9780  152.0380 C   0  0  0  0  0  3  0  0  0  0  0  0
  158.8220  213.7810  152.5030 C   0  0  0  0  0  3  0  0  0  0  0  0
  156.7460  214.0120  153.7090 O   0  0  0  0  0  1  0  0  0  0  0  0
  157.7890  211.8440  153.5270 C   0  0  0  0  0  3  0  0  0  0  0  0
  1 19  1  0  0  0  0
  2  7  1  0  0  0  0
  4  7  2  0  0  0  0
  4 12  1  0  0  0  0
  5 11  1  0  0  0  0
  5 18  2  0  0  0  0
  6 16  1  6  0  0  0
  6 17  1  0  0  0  0
  6  9  1  0  0  0  0
  7  5  1  0  0  0  0
  8 18  1  0  0  0  0
  9  4  1  0  0  0  0
 10 15  1  0  0  0  0
 11 20  1  0  0  0  0
 12  8  2  0  0  0  0
 14 10  1  0  0  0  0
 14  3  2  0  0  0  0
 15 13  1  0  0  0  0
 17  2  1  0  0  0  0
 18 14  1  0  0  0  0
 19 13  1  0  0  0  0
 20  1  1  0  0  0  0
 20 10  2  0  0  0  0
 21 22  1  0  0  0  0
 21  1  1  0  0  0  0
 22 24  1  0  0  0  0
 23 28  1  0  0  0  0
 23 27  1  0  0  0  0
 24 28  2  0  0  0  0
 25 22  2  0  0  0  0
 25 26  1  0  0  0  0
 26 23  2  0  0  0  0
M  END
>  <MODEL>
3

>  <REMARK>
 VINA RESULT:      -9.8      1.469      2.030
  Name = 
  2 active torsions:
  status: ('A' for Active; 'I' for Inactive)
    1  A    between atoms: N_1  and  C_2
    2  A    between atoms: C_2  and  C_3
                            x       y       z     vdW  Elec       q    Type
                         _______ _______ _______ _____ _____    ______ ____

>  <TORSDO>
F 2

$$$$
=
 OpenBabel11052422583D

 28 32  0  0  1  0  0  0  0  0999 V2000
  161.0450  210.4980  153.4600 N   0  0  0  0  0  0  0  0  0  0  0  0
  161.1000  207.2910  149.2450 C   0  0  0  0  0  2  0  0  0  0  0  0
  160.9950  206.0580  155.2600 O   0  0  0  0  0  0  0  0  0  0  0  0
  161.2100  205.0180  150.3760 C   0  0  0  0  0  0  0  0  0  0  0  0
  161.0210  207.0080  151.7580 C   0  0  0  0  0  0  0  0  0  0  0  0
  161.5780  205.2590  147.8970 C   0  0  1  0  0  3  0  0  0  0  0  0
  161.0770  206.4210  150.4790 C   0  0  0  0  0  0  0  0  0  0  0  0
  161.1740  204.8060  152.7400 C   0  0  0  0  0  3  0  0  0  0  0  0
  161.2080  204.3230  149.0420 C   0  0  0  0  0  2  0  0  0  0  0  0
  161.0350  208.2600  154.3800 C   0  0  0  0  0  0  0  0  0  0  0  0
  160.8480  208.5010  151.8950 C   0  0  0  0  0  2  0  0  0  0  0  0
  161.2390  204.2570  151.5010 N   0  0  0  0  0  0  0  0  0  0  0  0
  160.6660  210.2740  155.8490 C   0  0  0  0  0  2  0  0  0  0  0  0
  161.0200  206.7930  154.2360 C   0  0  0  0  0  0  0  0  0  0  0  0
  161.1790  208.8410  155.7670 C   0  0  0  0  0  2  0  0  0  0  0  0
  161.3440  204.6200  146.6810 O   0  0  0  0  0  1  0  0  0  0  0  0
  160.7350  206.5210  147.9790 C   0  0  0  0  0  2  0  0  0  0  0  0
  161.0630  206.1900  152.8960 C   0  0  0  0  0  0  0  0  0  0  0  0
  161.3420  211.0880  154.7620 C   0  0  0  0  0  2  0  0  0  0  0  0
  161.0160  209.0630  153.2910 C   0  0  0  0  0  0  0  0  0  0  0  0
  160.6580  211.3930  152.3750 C   0  0  0  0  0  2  0  0  0  0  0  0
  159.4100  212.1300  152.7310 C   0  0  0  0  0  0  0  0  0  0  0  0
  157.0940  213.5250  153.4460 C   0  0  0  0  0  0  0  0  0  0  0  0
  159.2570  213.4710  152.3620 C   0  0  0  0  0  3  0  0  0  0  0  0
  158.4050  211.4900  153.4660 C   0  0  0  0  0  3  0  0  0  0  0  0
  157.2470  212.1870  153.8210 C   0  0  0  0  0  3  0  0  0  0  0  0
  155.9430  214.2170  153.7990 O   0  0  0  0  0  1  0  0  0  0  0  0
  158.1000  214.1680  152.7170 C   0  0  0  0  0  3  0  0  0  0  0  0
  1 19  1  0  0  0  0
  2  7  1  0  0  0  0
  4  7  2  0  0  0  0
  4 12  1  0  0  0  0
  5 11  1  0  0  0  0
  5 18  2  0  0  0  0
  6 16  1  6  0  0  0
  6 17  1  0  0  0  0
  6  9  1  0  0  0  0
  7  5  1  0  0  0  0
  8 18  1  0  0  0  0
  9  4  1  0  0  0  0
 10 15  1  0  0  0  0
 11 20  1  0  0  0  0
 12  8  2  0  0  0  0
 14 10  1  0  0  0  0
 14  3  2  0  0  0  0
 15 13  1  0  0  0  0
 17  2  1  0  0  0  0
 18 14  1  0  0  0  0
 19 13  1  0  0  0  0
 20  1  1  0  0  0  0
 20 10  2  0  0  0  0
 21 22  1  0  0  0  0
 21  1  1  0  0  0  0
 22 25  1  0  0  0  0
 23 27  1  0  0  0  0
 23 26  1  0  0  0  0
 24 28  1  0  0  0  0
 24 22  2  0  0  0  0
 25 26  2  0  0  0  0
 28 23  2  0  0  0  0
M  END
>  <MODEL>
4

>  <REMARK>
 VINA RESULT:      -9.3      1.891      3.027
  Name = 
  2 active torsions:
  status: ('A' for Active; 'I' for Inactive)
    1  A    between atoms: N_1  and  C_2
    2  A    between atoms: C_2  and  C_3
                            x       y       z     vdW  Elec       q    Type
                         _______ _______ _______ _____ _____    ______ ____

>  <TORSDO>
F 2

$$$$
=
 OpenBabel11052422583D

 28 32  0  0  1  0  0  0  0  0999 V2000
  161.8300  208.8340  150.0390 N   0  0  0  0  0  0  0  0  0  0  0  0
  161.4080  203.8750  148.2230 C   0  0  0  0  0  2  0  0  0  0  0  0
  160.8170  206.1680  153.8900 O   0  0  0  0  0  0  0  0  0  0  0  0
  161.0140  202.6060  150.3900 C   0  0  0  0  0  0  0  0  0  0  0  0
  161.1740  205.0300  150.4620 C   0  0  0  0  0  0  0  0  0  0  0  0
  161.5210  201.3930  148.2420 C   0  0  1  0  0  3  0  0  0  0  0  0
  161.1620  203.8380  149.7130 C   0  0  0  0  0  0  0  0  0  0  0  0
  160.8420  203.7310  152.4730 C   0  0  0  0  0  3  0  0  0  0  0  0
  160.9250  201.3030  149.6430 C   0  0  0  0  0  2  0  0  0  0  0  0
  161.3350  207.4950  151.9930 C   0  0  0  0  0  0  0  0  0  0  0  0
  161.2990  206.3600  149.7610 C   0  0  0  0  0  2  0  0  0  0  0  0
  160.8450  202.5910  151.7370 N   0  0  0  0  0  0  0  0  0  0  0  0
  161.3200  210.0130  152.1010 C   0  0  0  0  0  2  0  0  0  0  0  0
  161.0310  206.2100  152.6480 C   0  0  0  0  0  0  0  0  0  0  0  0
  161.5370  208.7120  152.8650 C   0  0  0  0  0  2  0  0  0  0  0  0
  161.2120  200.2350  147.5310 O   0  0  0  0  0  1  0  0  0  0  0  0
  160.9460  202.6010  147.5220 C   0  0  0  0  0  2  0  0  0  0  0  0
  161.0060  204.9730  151.8540 C   0  0  0  0  0  0  0  0  0  0  0  0
  162.1870  209.9890  150.8570 C   0  0  0  0  0  2  0  0  0  0  0  0
  161.5210  207.5630  150.6540 C   0  0  0  0  0  0  0  0  0  0  0  0
  161.6750  209.0340  148.6020 C   0  0  0  0  0  2  0  0  0  0  0  0
  161.9240  210.4610  148.2480 C   0  0  0  0  0  0  0  0  0  0  0  0
  162.4000  213.1220  147.5290 C   0  0  0  0  0  0  0  0  0  0  0  0
  160.8590  211.2880  147.8750 C   0  0  0  0  0  3  0  0  0  0  0  0
  163.2300  210.9660  148.2520 C   0  0  0  0  0  3  0  0  0  0  0  0
  163.4670  212.2970  147.8950 C   0  0  0  0  0  3  0  0  0  0  0  0
  162.6360  214.4440  147.1750 O   0  0  0  0  0  1  0  0  0  0  0  0
  161.0960  212.6180  147.5180 C   0  0  0  0  0  3  0  0  0  0  0  0
  1 20  1  0  0  0  0
  1 19  1  0  0  0  0
  2  7  1  0  0  0  0
  4 12  1  0  0  0  0
  5 18  2  0  0  0  0
  6 16  1  6  0  0  0
  6  9  1  0  0  0  0
  7  4  2  0  0  0  0
  7  5  1  0  0  0  0
  9  4  1  0  0  0  0
 10 14  1  0  0  0  0
 10 15  1  0  0  0  0
 11  5  1  0  0  0  0
 11 20  1  0  0  0  0
 12  8  2  0  0  0  0
 13 15  1  0  0  0  0
 14  3  2  0  0  0  0
 17  2  1  0  0  0  0
 17  6  1  0  0  0  0
 18  8  1  0  0  0  0
 18 14  1  0  0  0  0
 19 13  1  0  0  0  0
 20 10  2  0  0  0  0
 21  1  1  0  0  0  0
 22 25  1  0  0  0  0
 22 21  1  0  0  0  0
 23 26  1  0  0  0  0
 24 22  2  0  0  0  0
 26 25  2  0  0  0  0
 27 23  1  0  0  0  0
 28 23  2  0  0  0  0
 28 24  1  0  0  0  0
M  END
>  <MODEL>
5

>  <REMARK>
 VINA RESULT:      -9.0      3.438      4.547
  Name = 
  2 active torsions:
  status: ('A' for Active; 'I' for Inactive)
    1  A    between atoms: N_1  and  C_2
    2  A    between atoms: C_2  and  C_3
                            x       y       z     vdW  Elec       q    Type
                         _______ _______ _______ _____ _____    ______ ____

>  <TORSDO>
F 2

$$$$
=
 OpenBabel11052422583D

 28 32  0  0  1  0  0  0  0  0999 V2000
  160.9110  203.5870  149.3260 N   0  0  0  0  0  0  0  0  0  0  0  0
  161.7620  208.7760  148.6850 C   0  0  0  0  0  2  0  0  0  0  0  0
  161.2520  205.3610  153.7640 O   0  0  0  0  0  0  0  0  0  0  0  0
  161.7770  209.5590  151.1030 C   0  0  0  0  0  0  0  0  0  0  0  0
  161.5570  207.1830  150.6410 C   0  0  0  0  0  0  0  0  0  0  0  0
  161.6990  211.2060  149.2010 C   0  0  1  0  0  3  0  0  0  0  0  0
  161.7310  208.4990  150.1700 C   0  0  0  0  0  0  0  0  0  0  0  0
  161.5390  208.0300  152.9040 C   0  0  0  0  0  3  0  0  0  0  0  0
  162.0290  210.9780  150.6710 C   0  0  0  0  0  2  0  0  0  0  0  0
  161.0660  204.4750  151.5720 C   0  0  0  0  0  0  0  0  0  0  0  0
  161.5350  206.0300  149.6670 C   0  0  0  0  0  2  0  0  0  0  0  0
  161.6960  209.2930  152.4330 N   0  0  0  0  0  0  0  0  0  0  0  0
  161.0090  201.9900  151.1540 C   0  0  0  0  0  2  0  0  0  0  0  0
  161.2700  205.5820  152.5230 C   0  0  0  0  0  0  0  0  0  0  0  0
  160.6820  203.1210  152.1220 C   0  0  0  0  0  2  0  0  0  0  0  0
  162.1570  212.4630  148.8120 O   0  0  0  0  0  1  0  0  0  0  0  0
  162.3720  210.1360  148.3570 C   0  0  0  0  0  2  0  0  0  0  0  0
  161.4670  206.9500  152.0210 C   0  0  0  0  0  0  0  0  0  0  0  0
  160.3860  202.3130  149.8100 C   0  0  0  0  0  2  0  0  0  0  0  0
  161.1280  204.6880  150.2370 C   0  0  0  0  0  0  0  0  0  0  0  0
  161.3240  203.6710  147.9300 C   0  0  0  0  0  2  0  0  0  0  0  0
  161.2110  202.3350  147.2740 C   0  0  0  0  0  0  0  0  0  0  0  0
  161.0470  199.8410  146.0190 C   0  0  0  0  0  0  0  0  0  0  0  0
  161.7470  201.2010  147.8950 C   0  0  0  0  0  3  0  0  0  0  0  0
  160.6000  202.2200  146.0200 C   0  0  0  0  0  3  0  0  0  0  0  0
  160.5160  200.9730  145.3940 C   0  0  0  0  0  3  0  0  0  0  0  0
  160.9640  198.6020  145.3980 O   0  0  0  0  0  1  0  0  0  0  0  0
  161.6640  199.9550  147.2690 C   0  0  0  0  0  3  0  0  0  0  0  0
  1 19  1  0  0  0  0
  1 20  1  0  0  0  0
  2  7  1  0  0  0  0
  4 12  1  0  0  0  0
  5 18  2  0  0  0  0
  6 16  1  6  0  0  0
  6  9  1  0  0  0  0
  7  5  1  0  0  0  0
  7  4  2  0  0  0  0
  9  4  1  0  0  0  0
 10 15  1  0  0  0  0
 10 14  1  0  0  0  0
 11 20  1  0  0  0  0
 11  5  1  0  0  0  0
 12  8  2  0  0  0  0
 13 15  1  0  0  0  0
 14  3  2  0  0  0  0
 17  2  1  0  0  0  0
 17  6  1  0  0  0  0
 18 14  1  0  0  0  0
 18  8  1  0  0  0  0
 19 13  1  0  0  0  0
 20 10  2  0  0  0  0
 21  1  1  0  0  0  0
 22 24  1  0  0  0  0
 22 21  1  0  0  0  0
 23 28  1  0  0  0  0
 25 22  2  0  0  0  0
 26 23  2  0  0  0  0
 26 25  1  0  0  0  0
 27 23  1  0  0  0  0
 28 24  2  0  0  0  0
M  END
>  <MODEL>
6

>  <REMARK>
 VINA RESULT:      -8.8      2.946      8.110
  Name = 
  2 active torsions:
  status: ('A' for Active; 'I' for Inactive)
    1  A    between atoms: N_1  and  C_2
    2  A    between atoms: C_2  and  C_3
                            x       y       z     vdW  Elec       q    Type
                         _______ _______ _______ _____ _____    ______ ____

>  <TORSDO>
F 2

$$$$
=
 OpenBabel11052422583D

 28 32  0  0  1  0  0  0  0  0999 V2000
  161.3990  207.3400  152.9330 N   0  0  0  0  0  0  0  0  0  0  0  0
  161.9560  210.8510  149.0050 C   0  0  0  0  0  2  0  0  0  0  0  0
  159.4380  211.3900  154.5810 O   0  0  0  0  0  0  0  0  0  0  0  0
  160.7550  212.8630  149.9900 C   0  0  0  0  0  0  0  0  0  0  0  0
  161.0050  210.8640  151.3500 C   0  0  0  0  0  0  0  0  0  0  0  0
  161.4280  212.8050  147.5650 C   0  0  1  0  0  3  0  0  0  0  0  0
  161.2550  211.5500  150.1460 C   0  0  0  0  0  0  0  0  0  0  0  0
  159.8420  212.8130  152.1810 C   0  0  0  0  0  3  0  0  0  0  0  0
  161.0450  213.6740  148.7570 C   0  0  0  0  0  2  0  0  0  0  0  0
  160.3920  209.3750  153.7690 C   0  0  0  0  0  0  0  0  0  0  0  0
  161.5550  209.4730  151.5540 C   0  0  0  0  0  2  0  0  0  0  0  0
  160.0820  213.4550  151.0100 N   0  0  0  0  0  0  0  0  0  0  0  0
  160.7740  207.3950  155.2800 C   0  0  0  0  0  2  0  0  0  0  0  0
  160.0180  210.7950  153.6320 C   0  0  0  0  0  0  0  0  0  0  0  0
  159.9240  208.6280  154.9950 C   0  0  0  0  0  2  0  0  0  0  0  0
  161.8940  213.6150  146.5310 O   0  0  0  0  0  1  0  0  0  0  0  0
  162.5170  211.8280  147.9760 C   0  0  0  0  0  2  0  0  0  0  0  0
  160.2980  211.5060  152.3770 C   0  0  0  0  0  0  0  0  0  0  0  0
  160.8310  206.5500  154.0210 C   0  0  0  0  0  2  0  0  0  0  0  0
  161.0560  208.7350  152.7780 C   0  0  0  0  0  0  0  0  0  0  0  0
  162.4120  206.7150  152.0900 C   0  0  0  0  0  2  0  0  0  0  0  0
  161.8160  205.5900  151.3120 C   0  0  0  0  0  0  0  0  0  0  0  0
  160.7510  203.4690  149.8320 C   0  0  0  0  0  0  0  0  0  0  0  0
  161.7400  204.3110  151.8740 C   0  0  0  0  0  3  0  0  0  0  0  0
  161.3660  205.8040  150.0040 C   0  0  0  0  0  3  0  0  0  0  0  0
  160.8310  204.7440  149.2650 C   0  0  0  0  0  3  0  0  0  0  0  0
  160.2190  202.4170  149.0980 O   0  0  0  0  0  1  0  0  0  0  0  0
  161.2060  203.2510  151.1360 C   0  0  0  0  0  3  0  0  0  0  0  0
  1 19  1  0  0  0  0
  2  7  1  0  0  0  0
  4  7  2  0  0  0  0
  4 12  1  0  0  0  0
  5 11  1  0  0  0  0
  5 18  2  0  0  0  0
  6 16  1  6  0  0  0
  6 17  1  0  0  0  0
  6  9  1  0  0  0  0
  7  5  1  0  0  0  0
  8 18  1  0  0  0  0
  9  4  1  0  0  0  0
 10 15  1  0  0  0  0
 11 20  1  0  0  0  0
 12  8  2  0  0  0  0
 14 10  1  0  0  0  0
 14  3  2  0  0  0  0
 15 13  1  0  0  0  0
 17  2  1  0  0  0  0
 18 14  1  0  0  0  0
 19 13  1  0  0  0  0
 20  1  1  0  0  0  0
 20 10  2  0  0  0  0
 21  1  1  0  0  0  0
 22 24  1  0  0  0  0
 22 21  1  0  0  0  0
 23 28  1  0  0  0  0
 25 22  2  0  0  0  0
 26 23  2  0  0  0  0
 26 25  1  0  0  0  0
 27 23  1  0  0  0  0
 28 24  2  0  0  0  0
M  END
>  <MODEL>
7

>  <REMARK>
 VINA RESULT:      -8.7      3.129      7.167
  Name = 
  2 active torsions:
  status: ('A' for Active; 'I' for Inactive)
    1  A    between atoms: N_1  and  C_2
    2  A    between atoms: C_2  and  C_3
                            x       y       z     vdW  Elec       q    Type
                         _______ _______ _______ _____ _____    ______ ____

>  <TORSDO>
F 2

$$$$
=
 OpenBabel11052422583D

 28 32  0  0  1  0  0  0  0  0999 V2000
  161.1450  206.6300  150.2120 N   0  0  0  0  0  0  0  0  0  0  0  0
  159.9100  211.4070  152.1400 C   0  0  0  0  0  2  0  0  0  0  0  0
  161.0580  206.0790  154.9720 O   0  0  0  0  0  0  0  0  0  0  0  0
  159.7740  210.8970  154.6260 C   0  0  0  0  0  0  0  0  0  0  0  0
  160.4500  209.1290  153.1010 C   0  0  0  0  0  0  0  0  0  0  0  0
  158.9560  213.0900  153.6990 C   0  0  1  0  0  3  0  0  0  0  0  0
  160.0790  210.4710  153.3140 C   0  0  0  0  0  0  0  0  0  0  0  0
  160.2500  208.7320  155.4770 C   0  0  0  0  0  3  0  0  0  0  0  0
  159.4380  212.3310  154.9300 C   0  0  0  0  0  2  0  0  0  0  0  0
  161.0880  206.3360  152.6140 C   0  0  0  0  0  0  0  0  0  0  0  0
  160.8100  208.6570  151.7140 C   0  0  0  0  0  2  0  0  0  0  0  0
  159.8830  210.0250  155.6620 N   0  0  0  0  0  0  0  0  0  0  0  0
  161.9580  204.5200  151.1000 C   0  0  0  0  0  2  0  0  0  0  0  0
  160.9130  206.8500  153.9850 C   0  0  0  0  0  0  0  0  0  0  0  0
  161.2850  204.8510  152.4270 C   0  0  0  0  0  2  0  0  0  0  0  0
  158.8750  214.4500  153.9940 O   0  0  0  0  0  1  0  0  0  0  0  0
  159.9330  212.8750  152.5550 C   0  0  0  0  0  2  0  0  0  0  0  0
  160.5420  208.2560  154.1960 C   0  0  0  0  0  0  0  0  0  0  0  0
  161.1770  205.1880  149.9850 C   0  0  0  0  0  2  0  0  0  0  0  0
  160.9810  207.1620  151.5460 C   0  0  0  0  0  0  0  0  0  0  0  0
  161.4080  207.5080  149.0770 C   0  0  0  0  0  2  0  0  0  0  0  0
  161.4100  206.7260  147.8070 C   0  0  0  0  0  0  0  0  0  0  0  0
  161.4310  205.3060  145.3970 C   0  0  0  0  0  0  0  0  0  0  0  0
  162.5630  206.0400  147.4070 C   0  0  0  0  0  3  0  0  0  0  0  0
  160.2700  206.7070  146.9940 C   0  0  0  0  0  3  0  0  0  0  0  0
  160.2800  205.9950  145.7910 C   0  0  0  0  0  3  0  0  0  0  0  0
  161.4410  204.5990  144.2020 O   0  0  0  0  0  1  0  0  0  0  0  0
  162.5730  205.3290  146.2040 C   0  0  0  0  0  3  0  0  0  0  0  0
  1 20  1  0  0  0  0
  2 17  1  0  0  0  0
  2  7  1  0  0  0  0
  4  9  1  0  0  0  0
  4 12  1  0  0  0  0
  5  7  1  0  0  0  0
  5 18  2  0  0  0  0
  6 16  1  1  0  0  0
  6  9  1  0  0  0  0
  7  4  2  0  0  0  0
  8 12  2  0  0  0  0
 10 14  1  0  0  0  0
 11  5  1  0  0  0  0
 13 15  1  0  0  0  0
 14 18  1  0  0  0  0
 14  3  2  0  0  0  0
 15 10  1  0  0  0  0
 17  6  1  0  0  0  0
 18  8  1  0  0  0  0
 19  1  1  0  0  0  0
 19 13  1  0  0  0  0
 20 11  1  0  0  0  0
 20 10  2  0  0  0  0
 21  1  1  0  0  0  0
 22 21  1  0  0  0  0
 23 26  2  0  0  0  0
 23 28  1  0  0  0  0
 24 22  1  0  0  0  0
 25 22  2  0  0  0  0
 26 25  1  0  0  0  0
 27 23  1  0  0  0  0
 28 24  2  0  0  0  0
M  END
>  <MODEL>
8

>  <REMARK>
 VINA RESULT:      -8.4      1.646      8.043
  Name = 
  2 active torsions:
  status: ('A' for Active; 'I' for Inactive)
    1  A    between atoms: N_1  and  C_2
    2  A    between atoms: C_2  and  C_3
                            x       y       z     vdW  Elec       q    Type
                         _______ _______ _______ _____ _____    ______ ____

>  <TORSDO>
F 2

$$$$
=
 OpenBabel11052422583D

 28 32  0  0  1  0  0  0  0  0999 V2000
  161.5260  204.5530  149.6400 N   0  0  0  0  0  0  0  0  0  0  0  0
  161.9300  209.7540  148.7190 C   0  0  0  0  0  2  0  0  0  0  0  0
  160.8380  206.6400  153.8990 O   0  0  0  0  0  0  0  0  0  0  0  0
  161.4070  210.6890  151.0230 C   0  0  0  0  0  0  0  0  0  0  0  0
  161.5300  208.2790  150.7350 C   0  0  0  0  0  0  0  0  0  0  0  0
  161.5150  212.1870  149.0030 C   0  0  1  0  0  3  0  0  0  0  0  0
  161.6500  209.5720  150.1920 C   0  0  0  0  0  0  0  0  0  0  0  0
  160.9980  209.2630  152.8770 C   0  0  0  0  0  3  0  0  0  0  0  0
  161.5850  212.0960  150.5230 C   0  0  0  0  0  2  0  0  0  0  0  0
  161.1610  205.5970  151.7930 C   0  0  0  0  0  0  0  0  0  0  0  0
  161.8140  207.0700  149.8760 C   0  0  0  0  0  2  0  0  0  0  0  0
  161.1060  210.5020  152.3350 N   0  0  0  0  0  0  0  0  0  0  0  0
  161.4460  203.1020  151.5870 C   0  0  0  0  0  2  0  0  0  0  0  0
  161.0650  206.7810  152.6660 C   0  0  0  0  0  0  0  0  0  0  0  0
  160.8260  204.2470  152.3790 C   0  0  0  0  0  2  0  0  0  0  0  0
  161.9030  213.4620  148.5960 O   0  0  0  0  0  1  0  0  0  0  0  0
  162.4440  211.1520  148.3890 C   0  0  0  0  0  2  0  0  0  0  0  0
  161.2080  208.1260  152.0920 C   0  0  0  0  0  0  0  0  0  0  0  0
  161.0570  203.2600  150.1300 C   0  0  0  0  0  2  0  0  0  0  0  0
  161.4510  205.7290  150.4770 C   0  0  0  0  0  0  0  0  0  0  0  0
  162.1830  204.5940  148.3390 C   0  0  0  0  0  2  0  0  0  0  0  0
  161.5710  203.5950  147.4170 C   0  0  0  0  0  0  0  0  0  0  0  0
  160.4730  201.7030  145.6720 C   0  0  0  0  0  0  0  0  0  0  0  0
  161.2590  202.3110  147.8790 C   0  0  0  0  0  3  0  0  0  0  0  0
  161.3400  203.9280  146.0760 C   0  0  0  0  0  3  0  0  0  0  0  0
  160.7890  202.9830  145.2060 C   0  0  0  0  0  3  0  0  0  0  0  0
  159.9260  200.7660  144.8070 O   0  0  0  0  0  1  0  0  0  0  0  0
  160.7090  201.3670  147.0090 C   0  0  0  0  0  3  0  0  0  0  0  0
  1 19  1  0  0  0  0
  1 20  1  0  0  0  0
  2  7  1  0  0  0  0
  4 12  1  0  0  0  0
  5 18  2  0  0  0  0
  6 16  1  1  0  0  0
  6  9  1  0  0  0  0
  7  5  1  0  0  0  0
  7  4  2  0  0  0  0
  9  4  1  0  0  0  0
 10 15  1  0  0  0  0
 10 14  1  0  0  0  0
 11 20  1  0  0  0  0
 11  5  1  0  0  0  0
 12  8  2  0  0  0  0
 13 15  1  0  0  0  0
 14  3  2  0  0  0  0
 17  2  1  0  0  0  0
 17  6  1  0  0  0  0
 18 14  1  0  0  0  0
 18  8  1  0  0  0  0
 19 13  1  0  0  0  0
 20 10  2  0  0  0  0
 21  1  1  0  0  0  0
 22 24  1  0  0  0  0
 22 21  1  0  0  0  0
 23 28  1  0  0  0  0
 25 22  2  0  0  0  0
 26 23  2  0  0  0  0
 26 25  1  0  0  0  0
 27 23  1  0  0  0  0
 28 24  2  0  0  0  0
M  END
>  <MODEL>
9

>  <REMARK>
 VINA RESULT:      -8.3      2.654      7.803
  Name = 
  2 active torsions:
  status: ('A' for Active; 'I' for Inactive)
    1  A    between atoms: N_1  and  C_2
    2  A    between atoms: C_2  and  C_3
                            x       y       z     vdW  Elec       q    Type
                         _______ _______ _______ _____ _____    ______ ____

>  <TORSDO>
F 2

$$$$
