=
 OpenBabel11062410353D

 32 38  0  0  0  0  0  0  0  0999 V2000
  161.5980  213.3440  148.8990 N   0  0  0  0  0  0  0  0  0  0  0  0
  161.4880  208.3070  149.7430 C   0  0  0  0  0  0  0  0  0  0  0  0
  160.8200  207.1560  154.2970 C   0  0  0  0  0  0  0  0  0  0  0  0
  160.6200  206.8190  155.6640 N   0  0  0  0  0  1  0  0  0  0  0  0
  161.5000  206.1450  148.4430 C   0  0  0  0  0  0  0  0  0  0  0  0
  161.4050  204.7570  148.4910 C   0  0  0  0  0  0  0  0  0  0  0  0
  161.7840  210.4970  148.7170 C   0  0  0  0  0  0  0  0  0  0  0  0
  161.4510  210.3220  151.0740 N   0  0  0  0  0  0  0  0  0  0  0  0
  161.1540  202.6970  149.2680 C   0  0  0  0  0  0  0  0  0  0  0  0
  161.7830  212.5870  150.1450 C   0  0  0  0  0  2  0  0  0  0  0  0
  161.0000  208.7350  153.7300 S   0  0  0  0  0  0  0  0  0  0  0  0
  161.3690  208.9670  150.9950 C   0  0  0  0  0  0  0  0  0  0  0  0
  161.1710  208.2060  152.1410 C   0  0  0  0  0  0  0  0  0  0  0  0
  161.1900  206.1360  150.8920 C   0  0  0  0  0  0  0  0  0  0  0  0
  161.2800  202.6560  147.8460 N   0  0  0  0  0  0  0  0  0  0  0  0
  162.3730  212.7500  147.8000 C   0  0  0  0  0  2  0  0  0  0  0  0
  161.6380  211.0980  149.9760 C   0  0  0  0  0  0  0  0  0  0  0  0
  161.4380  203.8410  147.3980 N   0  0  0  0  0  0  0  0  0  0  0  0
  161.9300  211.3190  147.4760 C   0  0  0  0  0  2  0  0  0  0  0  0
  160.8840  206.2320  153.3130 N   0  0  0  0  0  0  0  0  0  0  0  0
  161.0810  206.8250  152.1040 C   0  0  0  0  0  0  0  0  0  0  0  0
  161.0950  204.7320  150.8800 C   0  0  0  0  0  3  0  0  0  0  0  0
  161.6920  209.1100  148.6120 C   0  0  0  0  0  3  0  0  0  0  0  0
  161.6880  206.7760  147.1770 N   0  0  0  0  0  1  0  0  0  0  0  0
  160.5930  201.4570  150.1730 S   0  0  0  0  0  0  0  0  0  0  0  0
  161.3990  206.8770  149.6700 C   0  0  0  0  0  0  0  0  0  0  0  0
  161.2140  204.0860  149.6610 C   0  0  0  0  0  0  0  0  0  0  0  0
  160.1770  213.4020  148.5670 C   0  0  0  0  0  2  0  0  0  0  0  0
  159.4190  214.1250  149.6640 C   0  0  0  0  0  2  0  0  0  0  0  0
  158.1920  213.4080  149.9580 N   0  0  0  0  0  0  0  0  0  0  0  0
  158.0640  213.3820  151.4230 C   0  0  0  0  0  2  0  0  0  0  0  0
  157.3080  214.3570  150.6490 C   0  0  0  0  0  2  0  0  0  0  0  0
  1 10  1  0  0  0  0
  2 12  1  0  0  0  0
  3  4  1  0  0  0  0
  5  6  2  0  0  0  0
  5 26  1  0  0  0  0
  6 27  1  0  0  0  0
  7 17  1  0  0  0  0
  9 27  1  0  0  0  0
  9 25  2  0  0  0  0
 11  3  1  0  0  0  0
 12  8  1  0  0  0  0
 12 13  2  0  0  0  0
 13 11  1  0  0  0  0
 14 21  2  0  0  0  0
 15  9  1  0  0  0  0
 16  1  1  0  0  0  0
 17 10  1  0  0  0  0
 17  8  2  0  0  0  0
 18 15  2  0  0  0  0
 18  6  1  0  0  0  0
 19 16  1  0  0  0  0
 19  7  1  0  0  0  0
 20  3  2  0  0  0  0
 21 13  1  0  0  0  0
 21 20  1  0  0  0  0
 22 14  1  0  0  0  0
 23  7  2  0  0  0  0
 23  2  1  0  0  0  0
 24  5  1  0  0  0  0
 26  2  2  0  0  0  0
 26 14  1  0  0  0  0
 27 22  2  0  0  0  0
 28  1  1  0  0  0  0
 28 29  1  0  0  0  0
 29 30  1  0  0  0  0
 30 32  1  0  0  0  0
 30 31  1  0  0  0  0
 32 31  1  0  0  0  0
M  END
>  <MODEL>
1

>  <REMARK>
 VINA RESULT:      -7.2      0.000      0.000
  Name = 
  3 active torsions:
  status: ('A' for Active; 'I' for Inactive)
    1  A    between atoms: N_1  and  C_10
    2  A    between atoms: N_2  and  C_24
    3  A    between atoms: C_10  and  C_24
                            x       y       z     vdW  Elec       q    Type
                         _______ _______ _______ _____ _____    ______ ____

>  <TORSDO>
F 3

$$$$
=
 OpenBabel11062410353D

 32 38  0  0  0  0  0  0  0  0999 V2000
  161.1890  202.0450  148.7690 N   0  0  0  0  0  0  0  0  0  0  0  0
  161.2820  206.3070  151.5830 C   0  0  0  0  0  0  0  0  0  0  0  0
  162.0630  210.2420  149.0500 C   0  0  0  0  0  0  0  0  0  0  0  0
  162.2980  211.4170  148.2840 N   0  0  0  0  0  1  0  0  0  0  0  0
  160.8560  207.0460  153.9570 C   0  0  0  0  0  0  0  0  0  0  0  0
  160.7620  208.1150  154.8460 C   0  0  0  0  0  0  0  0  0  0  0  0
  161.2700  203.9760  150.8760 C   0  0  0  0  0  0  0  0  0  0  0  0
  161.6920  205.7010  149.2810 N   0  0  0  0  0  0  0  0  0  0  0  0
  160.7400  210.1800  155.6480 C   0  0  0  0  0  0  0  0  0  0  0  0
  161.7450  203.3700  148.4650 C   0  0  0  0  0  2  0  0  0  0  0  0
  162.0780  208.6800  148.4120 S   0  0  0  0  0  0  0  0  0  0  0  0
  161.5710  206.6600  150.2390 C   0  0  0  0  0  0  0  0  0  0  0  0
  161.7330  208.0020  149.9140 C   0  0  0  0  0  0  0  0  0  0  0  0
  161.3310  208.7050  152.1920 C   0  0  0  0  0  0  0  0  0  0  0  0
  160.4120  209.2610  156.6920 N   0  0  0  0  0  0  0  0  0  0  0  0
  161.5710  201.6090  150.1200 C   0  0  0  0  0  2  0  0  0  0  0  0
  161.5350  204.3820  149.5600 C   0  0  0  0  0  0  0  0  0  0  0  0
  160.4370  208.0700  156.2340 N   0  0  0  0  0  0  0  0  0  0  0  0
  161.0290  202.5390  151.2120 C   0  0  0  0  0  2  0  0  0  0  0  0
  161.8030  210.2680  150.3760 N   0  0  0  0  0  0  0  0  0  0  0  0
  161.6170  209.0090  150.8570 C   0  0  0  0  0  0  0  0  0  0  0  0
  161.2180  209.7470  153.1320 C   0  0  0  0  0  3  0  0  0  0  0  0
  161.1310  204.9440  151.8700 C   0  0  0  0  0  3  0  0  0  0  0  0
  160.6440  205.7240  154.4510 N   0  0  0  0  0  1  0  0  0  0  0  0
  160.4760  211.7910  155.7290 S   0  0  0  0  0  0  0  0  0  0  0  0
  161.1540  207.3260  152.5850 C   0  0  0  0  0  0  0  0  0  0  0  0
  160.9390  209.4040  154.4450 C   0  0  0  0  0  0  0  0  0  0  0  0
  159.7360  202.0770  148.6200 C   0  0  0  0  0  2  0  0  0  0  0  0
  159.3540  201.7190  147.1960 C   0  0  0  0  0  2  0  0  0  0  0  0
  160.5560  201.4650  146.4230 N   0  0  0  0  0  0  0  0  0  0  0  0
  160.1110  200.9700  145.1120 C   0  0  0  0  0  2  0  0  0  0  0  0
  160.5030  202.3650  145.2620 C   0  0  0  0  0  2  0  0  0  0  0  0
  1 16  1  0  0  0  0
  2 23  1  0  0  0  0
  2 26  1  0  0  0  0
  3 20  2  0  0  0  0
  4  3  1  0  0  0  0
  5 24  1  0  0  0  0
  5  6  1  0  0  0  0
  6 18  1  0  0  0  0
  7 19  1  0  0  0  0
  7 23  2  0  0  0  0
  8 17  2  0  0  0  0
  8 12  1  0  0  0  0
  9 25  2  0  0  0  0
  9 15  1  0  0  0  0
 10  1  1  0  0  0  0
 10 17  1  0  0  0  0
 11  3  1  0  0  0  0
 11 13  1  0  0  0  0
 12  2  2  0  0  0  0
 13 12  1  0  0  0  0
 13 21  2  0  0  0  0
 14 26  1  0  0  0  0
 14 22  2  0  0  0  0
 16 19  1  0  0  0  0
 17  7  1  0  0  0  0
 18 15  2  0  0  0  0
 20 21  1  0  0  0  0
 21 14  1  0  0  0  0
 22 27  1  0  0  0  0
 26  5  2  0  0  0  0
 27  6  2  0  0  0  0
 27  9  1  0  0  0  0
 28  1  1  0  0  0  0
 29 28  1  0  0  0  0
 30 29  1  0  0  0  0
 31 32  1  0  0  0  0
 31 30  1  0  0  0  0
 32 30  1  0  0  0  0
M  END
>  <MODEL>
2

>  <REMARK>
 VINA RESULT:      -7.2      2.797      8.483
  Name = 
  3 active torsions:
  status: ('A' for Active; 'I' for Inactive)
    1  A    between atoms: N_1  and  C_10
    2  A    between atoms: N_2  and  C_24
    3  A    between atoms: C_10  and  C_24
                            x       y       z     vdW  Elec       q    Type
                         _______ _______ _______ _____ _____    ______ ____

>  <TORSDO>
F 3

$$$$
=
 OpenBabel11062410353D

 32 38  0  0  0  0  0  0  0  0999 V2000
  161.6270  213.2740  148.8450 N   0  0  0  0  0  0  0  0  0  0  0  0
  161.4970  208.2460  149.7380 C   0  0  0  0  0  0  0  0  0  0  0  0
  160.7850  207.1420  154.2970 C   0  0  0  0  0  0  0  0  0  0  0  0
  160.5720  206.8180  155.6650 N   0  0  0  0  0  1  0  0  0  0  0  0
  161.5160  206.0710  148.4590 C   0  0  0  0  0  0  0  0  0  0  0  0
  161.4170  204.6830  148.5200 C   0  0  0  0  0  0  0  0  0  0  0  0
  161.8080  210.4250  148.6930 C   0  0  0  0  0  0  0  0  0  0  0  0
  161.4530  210.2740  151.0490 N   0  0  0  0  0  0  0  0  0  0  0  0
  161.1540  202.6320  149.3150 C   0  0  0  0  0  0  0  0  0  0  0  0
  161.7990  212.5290  150.1000 C   0  0  0  0  0  2  0  0  0  0  0  0
  160.9750  208.7150  153.7160 S   0  0  0  0  0  0  0  0  0  0  0  0
  161.3690  208.9180  150.9820 C   0  0  0  0  0  0  0  0  0  0  0  0
  161.1580  208.1690  152.1340 C   0  0  0  0  0  0  0  0  0  0  0  0
  161.1840  206.0870  150.9050 C   0  0  0  0  0  0  0  0  0  0  0  0
  161.2930  202.5770  147.8940 N   0  0  0  0  0  0  0  0  0  0  0  0
  162.4100  212.6670  147.7590 C   0  0  0  0  0  2  0  0  0  0  0  0
  161.6520  211.0390  149.9440 C   0  0  0  0  0  0  0  0  0  0  0  0
  161.4580  203.7570  147.4360 N   0  0  0  0  0  0  0  0  0  0  0  0
  161.9660  211.2340  147.4460 C   0  0  0  0  0  2  0  0  0  0  0  0
  160.8560  206.2070  153.3220 N   0  0  0  0  0  0  0  0  0  0  0  0
  161.0650  206.7880  152.1100 C   0  0  0  0  0  0  0  0  0  0  0  0
  161.0850  204.6830  150.9070 C   0  0  0  0  0  3  0  0  0  0  0  0
  161.7140  209.0370  148.6010 C   0  0  0  0  0  3  0  0  0  0  0  0
  161.7170  206.6890  147.1890 N   0  0  0  0  0  1  0  0  0  0  0  0
  160.5830  201.4030  150.2270 S   0  0  0  0  0  0  0  0  0  0  0  0
  161.4050  206.8160  149.6780 C   0  0  0  0  0  0  0  0  0  0  0  0
  161.2140  204.0250  149.6950 C   0  0  0  0  0  0  0  0  0  0  0  0
  160.2090  213.3320  148.5000 C   0  0  0  0  0  2  0  0  0  0  0  0
  160.0060  214.2360  147.2990 C   0  0  0  0  0  2  0  0  0  0  0  0
  158.7350  213.9280  146.6710 N   0  0  0  0  0  0  0  0  0  0  0  0
  158.9290  214.1080  145.2240 C   0  0  0  0  0  2  0  0  0  0  0  0
  158.9700  212.7700  145.7980 C   0  0  0  0  0  2  0  0  0  0  0  0
  1 10  1  0  0  0  0
  2 12  1  0  0  0  0
  3  4  1  0  0  0  0
  5  6  2  0  0  0  0
  5 26  1  0  0  0  0
  6 27  1  0  0  0  0
  7 17  1  0  0  0  0
  9 27  1  0  0  0  0
  9 25  2  0  0  0  0
 11  3  1  0  0  0  0
 12  8  1  0  0  0  0
 12 13  2  0  0  0  0
 13 11  1  0  0  0  0
 14 22  1  0  0  0  0
 14 21  2  0  0  0  0
 15  9  1  0  0  0  0
 16  1  1  0  0  0  0
 17 10  1  0  0  0  0
 17  8  2  0  0  0  0
 18 15  2  0  0  0  0
 18  6  1  0  0  0  0
 19 16  1  0  0  0  0
 19  7  1  0  0  0  0
 20  3  2  0  0  0  0
 21 13  1  0  0  0  0
 21 20  1  0  0  0  0
 23  7  2  0  0  0  0
 23  2  1  0  0  0  0
 24  5  1  0  0  0  0
 26  2  2  0  0  0  0
 26 14  1  0  0  0  0
 27 22  2  0  0  0  0
 28  1  1  0  0  0  0
 29 28  1  0  0  0  0
 30 29  1  0  0  0  0
 31 32  1  0  0  0  0
 31 30  1  0  0  0  0
 32 30  1  0  0  0  0
M  END
>  <MODEL>
3

>  <REMARK>
 VINA RESULT:      -7.1      1.137      1.639
  Name = 
  3 active torsions:
  status: ('A' for Active; 'I' for Inactive)
    1  A    between atoms: N_1  and  C_10
    2  A    between atoms: N_2  and  C_24
    3  A    between atoms: C_10  and  C_24
                            x       y       z     vdW  Elec       q    Type
                         _______ _______ _______ _____ _____    ______ ____

>  <TORSDO>
F 3

$$$$
=
 OpenBabel11062410353D

 32 38  0  0  0  0  0  0  0  0999 V2000
  161.4490  202.7170  150.0370 N   0  0  0  0  0  0  0  0  0  0  0  0
  161.1100  207.2590  152.3500 C   0  0  0  0  0  0  0  0  0  0  0  0
  161.9560  210.9300  149.4650 C   0  0  0  0  0  0  0  0  0  0  0  0
  162.2110  212.0250  148.5950 N   0  0  0  0  0  1  0  0  0  0  0  0
  160.4410  208.2290  154.5800 C   0  0  0  0  0  0  0  0  0  0  0  0
  160.2220  209.3820  155.3310 C   0  0  0  0  0  0  0  0  0  0  0  0
  161.2590  204.8670  151.9120 C   0  0  0  0  0  0  0  0  0  0  0  0
  161.7530  206.4280  150.1750 N   0  0  0  0  0  0  0  0  0  0  0  0
  160.0430  211.5190  155.8900 C   0  0  0  0  0  0  0  0  0  0  0  0
  161.9760  204.0280  149.6340 C   0  0  0  0  0  2  0  0  0  0  0  0
  162.0930  209.3100  149.0110 S   0  0  0  0  0  0  0  0  0  0  0  0
  161.5060  207.4780  151.0040 C   0  0  0  0  0  0  0  0  0  0  0  0
  161.6410  208.7830  150.5450 C   0  0  0  0  0  0  0  0  0  0  0  0
  161.0050  209.7080  152.6860 C   0  0  0  0  0  0  0  0  0  0  0  0
  159.6600  210.7030  156.9990 N   0  0  0  0  0  0  0  0  0  0  0  0
  161.7240  202.4510  151.4570 C   0  0  0  0  0  2  0  0  0  0  0  0
  161.6250  205.1400  150.5860 C   0  0  0  0  0  0  0  0  0  0  0  0
  159.7750  209.4720  156.6830 N   0  0  0  0  0  0  0  0  0  0  0  0
  161.0480  203.4650  152.3860 C   0  0  0  0  0  2  0  0  0  0  0  0
  161.5750  211.0870  150.7520 N   0  0  0  0  0  0  0  0  0  0  0  0
  161.3990  209.8790  151.3550 C   0  0  0  0  0  0  0  0  0  0  0  0
  160.7640  210.8390  153.4900 C   0  0  0  0  0  3  0  0  0  0  0  0
  160.9900  205.9290  152.7750 C   0  0  0  0  0  3  0  0  0  0  0  0
  160.2400  206.9600  155.1990 N   0  0  0  0  0  1  0  0  0  0  0  0
  159.7060  213.1130  155.7660 S   0  0  0  0  0  0  0  0  0  0  0  0
  160.8510  208.3730  153.2160 C   0  0  0  0  0  0  0  0  0  0  0  0
  160.3820  210.6280  154.8040 C   0  0  0  0  0  0  0  0  0  0  0  0
  160.0150  202.6590  149.7620 C   0  0  0  0  0  2  0  0  0  0  0  0
  159.7580  201.7920  148.5440 C   0  0  0  0  0  2  0  0  0  0  0  0
  160.9040  201.8540  147.6550 N   0  0  0  0  0  0  0  0  0  0  0  0
  161.2050  200.4680  147.2650 C   0  0  0  0  0  2  0  0  0  0  0  0
  160.4560  201.3270  146.3580 C   0  0  0  0  0  2  0  0  0  0  0  0
  1 16  1  0  0  0  0
  2 23  1  0  0  0  0
  2 26  1  0  0  0  0
  3 20  2  0  0  0  0
  4  3  1  0  0  0  0
  5 24  1  0  0  0  0
  5  6  1  0  0  0  0
  6 18  1  0  0  0  0
  7 19  1  0  0  0  0
  7 23  2  0  0  0  0
  8 17  2  0  0  0  0
  8 12  1  0  0  0  0
  9 15  1  0  0  0  0
 10  1  1  0  0  0  0
 10 17  1  0  0  0  0
 11  3  1  0  0  0  0
 11 13  1  0  0  0  0
 12  2  2  0  0  0  0
 13 12  1  0  0  0  0
 13 21  2  0  0  0  0
 14 26  1  0  0  0  0
 14 22  2  0  0  0  0
 16 19  1  0  0  0  0
 17  7  1  0  0  0  0
 18 15  2  0  0  0  0
 20 21  1  0  0  0  0
 21 14  1  0  0  0  0
 22 27  1  0  0  0  0
 25  9  2  0  0  0  0
 26  5  2  0  0  0  0
 27  6  2  0  0  0  0
 27  9  1  0  0  0  0
 28  1  1  0  0  0  0
 29 28  1  0  0  0  0
 30 29  1  0  0  0  0
 31 30  1  0  0  0  0
 32 31  1  0  0  0  0
 32 30  1  0  0  0  0
M  END
>  <MODEL>
4

>  <REMARK>
 VINA RESULT:      -6.8      2.750      8.675
  Name = 
  3 active torsions:
  status: ('A' for Active; 'I' for Inactive)
    1  A    between atoms: N_1  and  C_10
    2  A    between atoms: N_2  and  C_24
    3  A    between atoms: C_10  and  C_24
                            x       y       z     vdW  Elec       q    Type
                         _______ _______ _______ _____ _____    ______ ____

>  <TORSDO>
F 3

$$$$
=
 OpenBabel11062410353D

 32 38  0  0  0  0  0  0  0  0999 V2000
  161.9100  204.4430  145.6540 N   0  0  0  0  0  0  0  0  0  0  0  0
  161.5370  207.1950  149.9420 C   0  0  0  0  0  0  0  0  0  0  0  0
  161.8580  211.8750  149.2310 C   0  0  0  0  0  0  0  0  0  0  0  0
  161.9560  213.2760  149.0110 N   0  0  0  0  0  1  0  0  0  0  0  0
  161.0430  206.8660  152.3940 C   0  0  0  0  0  0  0  0  0  0  0  0
  160.8340  207.4700  153.6310 C   0  0  0  0  0  0  0  0  0  0  0  0
  161.7840  205.3590  148.3600 C   0  0  0  0  0  0  0  0  0  0  0  0
  162.0020  207.6140  147.6090 N   0  0  0  0  0  0  0  0  0  0  0  0
  160.5840  209.0230  155.1920 C   0  0  0  0  0  0  0  0  0  0  0  0
  162.3130  205.8290  145.9290 C   0  0  0  0  0  2  0  0  0  0  0  0
  162.0450  210.7130  148.0220 S   0  0  0  0  0  0  0  0  0  0  0  0
  161.7780  208.0880  148.8640 C   0  0  0  0  0  0  0  0  0  0  0  0
  161.7860  209.4550  149.1110 C   0  0  0  0  0  0  0  0  0  0  0  0
  161.3200  209.1350  151.4620 C   0  0  0  0  0  0  0  0  0  0  0  0
  160.3670  207.7330  155.7660 N   0  0  0  0  0  0  0  0  0  0  0  0
  162.3450  203.5430  146.7320 C   0  0  0  0  0  2  0  0  0  0  0  0
  161.9950  206.2850  147.3290 C   0  0  0  0  0  0  0  0  0  0  0  0
  160.5240  206.8360  154.8710 N   0  0  0  0  0  0  0  0  0  0  0  0
  161.7080  203.8920  148.0810 C   0  0  0  0  0  2  0  0  0  0  0  0
  161.6030  211.3370  150.4450 N   0  0  0  0  0  0  0  0  0  0  0  0
  161.5630  209.9790  150.3730 C   0  0  0  0  0  0  0  0  0  0  0  0
  161.0950  209.6920  152.7350 C   0  0  0  0  0  3  0  0  0  0  0  0
  161.5420  205.8240  149.6520 C   0  0  0  0  0  3  0  0  0  0  0  0
  160.9840  205.4430  152.3070 N   0  0  0  0  0  1  0  0  0  0  0  0
  160.1400  210.4270  155.9010 S   0  0  0  0  0  0  0  0  0  0  0  0
  161.3010  207.7050  151.2620 C   0  0  0  0  0  0  0  0  0  0  0  0
  160.8630  208.8230  153.7880 C   0  0  0  0  0  0  0  0  0  0  0  0
  160.4620  204.3800  145.4720 C   0  0  0  0  0  2  0  0  0  0  0  0
  160.1110  203.2600  144.5110 C   0  0  0  0  0  2  0  0  0  0  0  0
  159.4200  202.2060  145.2300 N   0  0  0  0  0  0  0  0  0  0  0  0
  159.7060  200.9540  144.5110 C   0  0  0  0  0  2  0  0  0  0  0  0
  160.4560  201.2830  145.7160 C   0  0  0  0  0  2  0  0  0  0  0  0
  1 10  1  0  0  0  0
  1 16  1  0  0  0  0
  2 26  1  0  0  0  0
  3 20  2  0  0  0  0
  4  3  1  0  0  0  0
  5  6  1  0  0  0  0
  6 27  2  0  0  0  0
  6 18  1  0  0  0  0
  7 23  2  0  0  0  0
  8 12  1  0  0  0  0
  9 15  1  0  0  0  0
  9 25  2  0  0  0  0
 10 17  1  0  0  0  0
 11 13  1  0  0  0  0
 11  3  1  0  0  0  0
 12 13  1  0  0  0  0
 12  2  2  0  0  0  0
 13 21  2  0  0  0  0
 14 22  2  0  0  0  0
 16 19  1  0  0  0  0
 17  8  2  0  0  0  0
 17  7  1  0  0  0  0
 18 15  2  0  0  0  0
 19  7  1  0  0  0  0
 21 20  1  0  0  0  0
 21 14  1  0  0  0  0
 22 27  1  0  0  0  0
 23  2  1  0  0  0  0
 24  5  1  0  0  0  0
 26 14  1  0  0  0  0
 26  5  2  0  0  0  0
 27  9  1  0  0  0  0
 28  1  1  0  0  0  0
 29 30  1  0  0  0  0
 29 28  1  0  0  0  0
 30 32  1  0  0  0  0
 31 30  1  0  0  0  0
 31 32  1  0  0  0  0
M  END
>  <MODEL>
5

>  <REMARK>
 VINA RESULT:      -6.3      2.653      7.751
  Name = 
  3 active torsions:
  status: ('A' for Active; 'I' for Inactive)
    1  A    between atoms: N_1  and  C_10
    2  A    between atoms: N_2  and  C_24
    3  A    between atoms: C_10  and  C_24
                            x       y       z     vdW  Elec       q    Type
                         _______ _______ _______ _____ _____    ______ ____

>  <TORSDO>
F 3

$$$$
=
 OpenBabel11062410353D

 32 38  0  0  0  0  0  0  0  0999 V2000
  161.7030  203.7680  150.4460 N   0  0  0  0  0  0  0  0  0  0  0  0
  160.9570  208.3940  152.4800 C   0  0  0  0  0  0  0  0  0  0  0  0
  161.6320  211.9510  149.4140 C   0  0  0  0  0  0  0  0  0  0  0  0
  161.8370  213.0120  148.4890 N   0  0  0  0  0  1  0  0  0  0  0  0
  160.1420  209.4340  154.6290 C   0  0  0  0  0  0  0  0  0  0  0  0
  159.8160  210.6080  155.3050 C   0  0  0  0  0  0  0  0  0  0  0  0
  161.2940  206.0000  152.1860 C   0  0  0  0  0  0  0  0  0  0  0  0
  161.7320  207.4940  150.3770 N   0  0  0  0  0  0  0  0  0  0  0  0
  159.4620  212.7530  155.7340 C   0  0  0  0  0  0  0  0  0  0  0  0
  162.1470  205.0900  149.9840 C   0  0  0  0  0  2  0  0  0  0  0  0
  161.9020  210.3240  149.0590 S   0  0  0  0  0  0  0  0  0  0  0  0
  161.3810  208.5670  151.1360 C   0  0  0  0  0  0  0  0  0  0  0  0
  161.4370  209.8510  150.6070 C   0  0  0  0  0  0  0  0  0  0  0  0
  160.6630  210.8440  152.6700 C   0  0  0  0  0  0  0  0  0  0  0  0
  159.1020  211.9740  156.8760 N   0  0  0  0  0  0  0  0  0  0  0  0
  161.9480  203.6020  151.8860 C   0  0  0  0  0  2  0  0  0  0  0  0
  161.6840  206.2250  150.8580 C   0  0  0  0  0  0  0  0  0  0  0  0
  159.3170  210.7390  156.6350 N   0  0  0  0  0  0  0  0  0  0  0  0
  161.1690  204.6140  152.7340 C   0  0  0  0  0  2  0  0  0  0  0  0
  161.1980  212.1510  150.6780 N   0  0  0  0  0  0  0  0  0  0  0  0
  161.0890  210.9690  151.3440 C   0  0  0  0  0  0  0  0  0  0  0  0
  160.3130  211.9960  153.3990 C   0  0  0  0  0  3  0  0  0  0  0  0
  160.9190  207.0840  152.9780 C   0  0  0  0  0  3  0  0  0  0  0  0
  160.0130  208.1900  155.3150 N   0  0  0  0  0  1  0  0  0  0  0  0
  159.0150  214.3080  155.5070 S   0  0  0  0  0  0  0  0  0  0  0  0
  160.5880  209.5320  153.2710 C   0  0  0  0  0  0  0  0  0  0  0  0
  159.9030  211.8300  154.7110 C   0  0  0  0  0  0  0  0  0  0  0  0
  160.2880  203.5880  150.1310 C   0  0  0  0  0  2  0  0  0  0  0  0
  160.0920  202.3040  149.3490 C   0  0  0  0  0  2  0  0  0  0  0  0
  161.2820  202.0290  148.5640 N   0  0  0  0  0  0  0  0  0  0  0  0
  161.2050  200.6140  148.1710 C   0  0  0  0  0  2  0  0  0  0  0  0
  160.8180  201.6490  147.2220 C   0  0  0  0  0  2  0  0  0  0  0  0
  1 16  1  0  0  0  0
  2 23  1  0  0  0  0
  2 26  1  0  0  0  0
  3 20  2  0  0  0  0
  4  3  1  0  0  0  0
  5  6  1  0  0  0  0
  5 24  1  0  0  0  0
  6 18  1  0  0  0  0
  7 19  1  0  0  0  0
  7 23  2  0  0  0  0
  8 17  2  0  0  0  0
  8 12  1  0  0  0  0
  9 15  1  0  0  0  0
 10  1  1  0  0  0  0
 10 17  1  0  0  0  0
 11  3  1  0  0  0  0
 11 13  1  0  0  0  0
 12  2  2  0  0  0  0
 13 12  1  0  0  0  0
 13 21  2  0  0  0  0
 14 26  1  0  0  0  0
 14 22  2  0  0  0  0
 16 19  1  0  0  0  0
 17  7  1  0  0  0  0
 18 15  2  0  0  0  0
 20 21  1  0  0  0  0
 21 14  1  0  0  0  0
 22 27  1  0  0  0  0
 25  9  2  0  0  0  0
 26  5  2  0  0  0  0
 27  6  2  0  0  0  0
 27  9  1  0  0  0  0
 28  1  1  0  0  0  0
 29 28  1  0  0  0  0
 30 29  1  0  0  0  0
 31 30  1  0  0  0  0
 32 31  1  0  0  0  0
 32 30  1  0  0  0  0
M  END
>  <MODEL>
6

>  <REMARK>
 VINA RESULT:      -6.1      2.751      8.750
  Name = 
  3 active torsions:
  status: ('A' for Active; 'I' for Inactive)
    1  A    between atoms: N_1  and  C_10
    2  A    between atoms: N_2  and  C_24
    3  A    between atoms: C_10  and  C_24
                            x       y       z     vdW  Elec       q    Type
                         _______ _______ _______ _____ _____    ______ ____

>  <TORSDO>
F 3

$$$$
=
 OpenBabel11062410353D

 32 38  0  0  0  0  0  0  0  0999 V2000
  161.4530  214.0130  146.6850 N   0  0  0  0  0  0  0  0  0  0  0  0
  160.9110  211.3470  151.0090 C   0  0  0  0  0  0  0  0  0  0  0  0
  158.2190  213.5190  154.2570 C   0  0  0  0  0  0  0  0  0  0  0  0
  157.4120  214.1760  155.2260 N   0  0  0  0  0  1  0  0  0  0  0  0
  161.4910  209.0790  151.9470 C   0  0  0  0  0  0  0  0  0  0  0  0
  161.3680  208.1940  153.0160 C   0  0  0  0  0  0  0  0  0  0  0  0
  161.6690  212.1380  148.8330 C   0  0  0  0  0  0  0  0  0  0  0  0
  160.2920  213.5350  150.1930 N   0  0  0  0  0  0  0  0  0  0  0  0
  160.7650  207.3300  154.9650 C   0  0  0  0  0  0  0  0  0  0  0  0
  161.0390  214.4530  148.0240 C   0  0  0  0  0  2  0  0  0  0  0  0
  158.6580  214.1970  152.7750 S   0  0  0  0  0  0  0  0  0  0  0  0
  160.2400  212.5880  151.1690 C   0  0  0  0  0  0  0  0  0  0  0  0
  159.5300  212.8240  152.3400 C   0  0  0  0  0  0  0  0  0  0  0  0
  160.0950  210.6520  153.2390 C   0  0  0  0  0  0  0  0  0  0  0  0
  161.5280  206.3680  154.2340 N   0  0  0  0  0  0  0  0  0  0  0  0
  162.6380  213.1460  146.7570 C   0  0  0  0  0  2  0  0  0  0  0  0
  160.9700  213.3370  149.0340 C   0  0  0  0  0  0  0  0  0  0  0  0
  161.8870  206.8690  153.1170 N   0  0  0  0  0  0  0  0  0  0  0  0
  162.3750  211.8580  147.5450 C   0  0  0  0  0  2  0  0  0  0  0  0
  158.7160  212.2750  154.4350 N   0  0  0  0  0  0  0  0  0  0  0  0
  159.4510  211.8880  153.3570 C   0  0  0  0  0  0  0  0  0  0  0  0
  159.9990  209.7160  154.2860 C   0  0  0  0  0  3  0  0  0  0  0  0
  161.6190  211.1500  149.8150 C   0  0  0  0  0  3  0  0  0  0  0  0
  162.2440  208.6740  150.8050 N   0  0  0  0  0  1  0  0  0  0  0  0
  159.8380  206.9690  156.2620 S   0  0  0  0  0  0  0  0  0  0  0  0
  160.8480  210.3550  152.0420 C   0  0  0  0  0  0  0  0  0  0  0  0
  160.6550  208.5070  154.1330 C   0  0  0  0  0  0  0  0  0  0  0  0
  160.3420  213.3300  146.0280 C   0  0  0  0  0  2  0  0  0  0  0  0
  160.5480  213.3370  144.5250 C   0  0  0  0  0  2  0  0  0  0  0  0
  159.5410  212.5020  143.8960 N   0  0  0  0  0  0  0  0  0  0  0  0
  159.3800  213.0050  142.5230 C   0  0  0  0  0  2  0  0  0  0  0  0
  160.2030  211.8280  142.7690 C   0  0  0  0  0  2  0  0  0  0  0  0
  1 16  1  0  0  0  0
  1 10  1  0  0  0  0
  2 12  1  0  0  0  0
  2 26  1  0  0  0  0
  3 20  2  0  0  0  0
  3  4  1  0  0  0  0
  5 26  2  0  0  0  0
  5  6  1  0  0  0  0
  6 18  1  0  0  0  0
  6 27  2  0  0  0  0
  7 17  2  0  0  0  0
  7 23  1  0  0  0  0
  8 12  2  0  0  0  0
  9 25  2  0  0  0  0
 10 17  1  0  0  0  0
 11  3  1  0  0  0  0
 12 13  1  0  0  0  0
 13 11  1  0  0  0  0
 13 21  2  0  0  0  0
 14 21  1  0  0  0  0
 14 22  2  0  0  0  0
 15  9  1  0  0  0  0
 16 19  1  0  0  0  0
 17  8  1  0  0  0  0
 18 15  2  0  0  0  0
 19  7  1  0  0  0  0
 21 20  1  0  0  0  0
 23  2  2  0  0  0  0
 24  5  1  0  0  0  0
 26 14  1  0  0  0  0
 27 22  1  0  0  0  0
 27  9  1  0  0  0  0
 28  1  1  0  0  0  0
 29 28  1  0  0  0  0
 30 29  1  0  0  0  0
 31 32  1  0  0  0  0
 31 30  1  0  0  0  0
 32 30  1  0  0  0  0
M  END
>  <MODEL>
7

>  <REMARK>
 VINA RESULT:      -5.7      3.497      5.468
  Name = 
  3 active torsions:
  status: ('A' for Active; 'I' for Inactive)
    1  A    between atoms: N_1  and  C_10
    2  A    between atoms: N_2  and  C_24
    3  A    between atoms: C_10  and  C_24
                            x       y       z     vdW  Elec       q    Type
                         _______ _______ _______ _____ _____    ______ ____

>  <TORSDO>
F 3

$$$$
=
 OpenBabel11062410353D

 32 38  0  0  0  0  0  0  0  0999 V2000
  161.2270  209.5170  154.6090 N   0  0  0  0  0  0  0  0  0  0  0  0
  161.2270  206.6810  150.3600 C   0  0  0  0  0  0  0  0  0  0  0  0
  160.9790  202.0160  151.1860 C   0  0  0  0  0  0  0  0  0  0  0  0
  160.9050  200.6190  151.4420 N   0  0  0  0  0  1  0  0  0  0  0  0
  161.1370  206.9800  147.8560 C   0  0  0  0  0  0  0  0  0  0  0  0
  161.0550  206.3610  146.6120 C   0  0  0  0  0  0  0  0  0  0  0  0
  161.4150  208.5340  151.9310 C   0  0  0  0  0  0  0  0  0  0  0  0
  161.2970  206.2920  152.7430 N   0  0  0  0  0  0  0  0  0  0  0  0
  160.8890  204.7920  145.0560 C   0  0  0  0  0  0  0  0  0  0  0  0
  161.5290  208.0910  154.4200 C   0  0  0  0  0  2  0  0  0  0  0  0
  161.0970  203.1920  152.3910 S   0  0  0  0  0  0  0  0  0  0  0  0
  161.2170  205.8040  151.4760 C   0  0  0  0  0  0  0  0  0  0  0  0
  161.1270  204.4340  151.2550 C   0  0  0  0  0  0  0  0  0  0  0  0
  161.0480  204.7250  148.8560 C   0  0  0  0  0  0  0  0  0  0  0  0
  160.8870  206.0780  144.4350 N   0  0  0  0  0  0  0  0  0  0  0  0
  161.9040  210.3380  153.5950 C   0  0  0  0  0  2  0  0  0  0  0  0
  161.3790  207.6240  152.9970 C   0  0  0  0  0  0  0  0  0  0  0  0
  160.9960  206.9830  145.3290 N   0  0  0  0  0  0  0  0  0  0  0  0
  161.4430  210.0100  152.1710 C   0  0  0  0  0  2  0  0  0  0  0  0
  160.9610  202.5380  149.9390 N   0  0  0  0  0  0  0  0  0  0  0  0
  161.0440  203.8950  149.9820 C   0  0  0  0  0  0  0  0  0  0  0  0
  160.9610  204.1530  147.5730 C   0  0  0  0  0  3  0  0  0  0  0  0
  161.3230  208.0550  150.6250 C   0  0  0  0  0  3  0  0  0  0  0  0
  161.2050  208.4040  147.9100 N   0  0  0  0  0  1  0  0  0  0  0  0
  160.4200  203.4150  144.3110 S   0  0  0  0  0  0  0  0  0  0  0  0
  161.1410  206.1560  149.0280 C   0  0  0  0  0  0  0  0  0  0  0  0
  160.9750  205.0070  146.4830 C   0  0  0  0  0  0  0  0  0  0  0  0
  159.7820  209.7220  154.5710 C   0  0  0  0  0  2  0  0  0  0  0  0
  159.4500  211.1440  154.9800 C   0  0  0  0  0  2  0  0  0  0  0  0
  158.1800  211.5320  154.3950 N   0  0  0  0  0  0  0  0  0  0  0  0
  158.2660  212.9770  154.1310 C   0  0  0  0  0  2  0  0  0  0  0  0
  158.4770  212.0310  153.0440 C   0  0  0  0  0  2  0  0  0  0  0  0
  2 23  1  0  0  0  0
  2 12  1  0  0  0  0
  3  4  1  0  0  0  0
  3 11  1  0  0  0  0
  5 24  1  0  0  0  0
  5 26  1  0  0  0  0
  6  5  2  0  0  0  0
  7 19  1  0  0  0  0
  7 17  1  0  0  0  0
  8 17  2  0  0  0  0
  9 27  1  0  0  0  0
 10  1  1  0  0  0  0
 12  8  1  0  0  0  0
 13 12  2  0  0  0  0
 13 11  1  0  0  0  0
 14 26  1  0  0  0  0
 14 21  2  0  0  0  0
 15  9  1  0  0  0  0
 15 18  2  0  0  0  0
 16  1  1  0  0  0  0
 17 10  1  0  0  0  0
 18  6  1  0  0  0  0
 19 16  1  0  0  0  0
 20 21  1  0  0  0  0
 20  3  2  0  0  0  0
 21 13  1  0  0  0  0
 22 14  1  0  0  0  0
 23  7  2  0  0  0  0
 25  9  2  0  0  0  0
 26  2  2  0  0  0  0
 27  6  1  0  0  0  0
 27 22  2  0  0  0  0
 28  1  1  0  0  0  0
 28 29  1  0  0  0  0
 30 29  1  0  0  0  0
 31 30  1  0  0  0  0
 32 31  1  0  0  0  0
 32 30  1  0  0  0  0
M  END
>  <MODEL>
8

>  <REMARK>
 VINA RESULT:      -4.9      2.931      4.575
  Name = 
  3 active torsions:
  status: ('A' for Active; 'I' for Inactive)
    1  A    between atoms: N_1  and  C_10
    2  A    between atoms: N_2  and  C_24
    3  A    between atoms: C_10  and  C_24
                            x       y       z     vdW  Elec       q    Type
                         _______ _______ _______ _____ _____    ______ ____

>  <TORSDO>
F 3

$$$$
