=
 OpenBabel11052422053D

 25 28  0  0  1  0  0  0  0  0999 V2000
  161.4320  205.0850  148.9710 C   0  0  0  0  0  0  0  0  0  0  0  0
  161.4550  206.0270  150.0190 C   0  0  0  0  0  0  0  0  0  0  0  0
  161.9870  206.8170  147.3420 C   0  0  0  0  0  3  0  0  0  0  0  0
  161.1620  203.7060  149.0420 C   0  0  0  0  0  0  0  0  0  0  0  0
  160.7040  200.9910  148.7280 C   0  0  0  0  0  3  0  0  0  0  0  0
  162.0080  207.7610  148.3750 C   0  0  0  0  0  3  0  0  0  0  0  0
  161.2280  203.0860  147.8010 C   0  0  0  0  0  0  0  0  0  0  0  0
  161.0050  201.7580  147.6410 N   0  0  0  0  0  0  0  0  0  0  0  0
  161.7840  208.3690  150.7950 C   0  0  0  0  0  0  0  0  0  0  0  0
  161.8610  209.6010  150.5490 O   0  0  0  0  0  0  0  0  0  0  0  0
  161.0830  205.6540  151.4310 C   0  0  0  0  0  2  0  0  0  0  0  0
  160.6270  201.5680  150.0090 C   0  0  0  0  0  3  0  0  0  0  0  0
  161.7010  205.4930  147.6620 C   0  0  0  0  0  0  0  0  0  0  0  0
  161.6130  204.1910  146.5900 S   0  0  0  0  0  0  0  0  0  0  0  0
  161.7140  207.9140  152.1480 N   0  0  0  0  0  2  0  0  0  0  0  0
  160.8580  202.9420  150.1700 C   0  0  0  0  0  3  0  0  0  0  0  0
  161.8590  206.4930  152.4500 C   0  0  1  0  0  3  0  0  0  0  0  0
  161.7440  207.3770  149.7050 C   0  0  0  0  0  0  0  0  0  0  0  0
  161.3640  206.2190  153.8580 C   0  0  0  0  0  2  0  0  0  0  0  0
  160.4090  207.3110  154.3040 C   0  0  0  0  0  2  0  0  0  0  0  0
  160.6800  207.6800  155.7240 C   0  0  0  0  0  0  0  0  0  0  0  0
  160.0110  207.1020  156.6670 N   0  0  0  0  0  2  0  0  0  0  0  0
  161.6350  208.7510  156.0440 C   0  0  0  0  0  0  0  0  0  0  0  0
  161.7840  209.8340  155.1850 O   0  0  0  0  0  0  0  0  0  0  0  0
  162.3260  208.6950  157.0940 O   0  0  0  0  0  1  0  0  0  0  0  0
  1  4  1  0  0  0  0
  1  2  2  0  0  0  0
  2 11  1  0  0  0  0
  3 13  2  0  0  0  0
  3  6  1  0  0  0  0
  4 16  1  0  0  0  0
  5 12  1  0  0  0  0
  6 18  2  0  0  0  0
  7  4  2  0  0  0  0
  8  7  1  0  0  0  0
  8  5  2  0  0  0  0
  9 15  1  0  0  0  0
 10  9  2  0  0  0  0
 11 17  1  0  0  0  0
 12 16  2  0  0  0  0
 13  1  1  0  0  0  0
 14 13  1  0  0  0  0
 14  7  1  0  0  0  0
 15 17  1  0  0  0  0
 17 19  1  1  0  0  0
 18  2  1  0  0  0  0
 18  9  1  0  0  0  0
 19 20  1  0  0  0  0
 20 21  1  0  0  0  0
 21 23  1  0  0  0  0
 21 22  2  0  0  0  0
 23 25  1  0  0  0  0
 24 23  2  0  0  0  0
M  END
>  <MODEL>
1

>  <REMARK>
 VINA RESULT:      -9.6      0.000      0.000
  Name = 
  4 active torsions:
  status: ('A' for Active; 'I' for Inactive)
    1  A    between atoms: C_2  and  CA_21
    2  A    between atoms: C_6  and  C_15
    3  A    between atoms: C_6  and  C_23
    4  A    between atoms: C_15  and  CA_21
                            x       y       z     vdW  Elec       q    Type
                         _______ _______ _______ _____ _____    ______ ____

>  <TORSDO>
F 4

$$$$
=
 OpenBabel11052422053D

 25 28  0  0  1  0  0  0  0  0999 V2000
  161.2190  204.3880  149.5930 C   0  0  0  0  0  0  0  0  0  0  0  0
  161.4890  205.7000  150.0310 C   0  0  0  0  0  0  0  0  0  0  0  0
  160.7910  203.6630  151.8850 C   0  0  0  0  0  3  0  0  0  0  0  0
  161.2470  203.8820  148.2810 C   0  0  0  0  0  0  0  0  0  0  0  0
  161.1740  202.4860  145.8880 C   0  0  0  0  0  3  0  0  0  0  0  0
  161.0620  204.9630  152.3300 C   0  0  0  0  0  3  0  0  0  0  0  0
  160.9250  202.5310  148.2240 C   0  0  0  0  0  0  0  0  0  0  0  0
  160.8870  201.8430  147.0560 N   0  0  0  0  0  0  0  0  0  0  0  0
  161.6760  207.3500  151.8850 C   0  0  0  0  0  0  0  0  0  0  0  0
  161.7900  207.6070  153.1110 O   0  0  0  0  0  0  0  0  0  0  0  0
  161.9540  206.7740  149.0810 C   0  0  0  0  0  2  0  0  0  0  0  0
  161.5050  203.8540  145.8880 C   0  0  0  0  0  3  0  0  0  0  0  0
  160.8740  203.4010  150.5210 C   0  0  0  0  0  0  0  0  0  0  0  0
  160.6010  201.9190  149.7590 S   0  0  0  0  0  0  0  0  0  0  0  0
  161.8240  208.3940  150.9190 N   0  0  0  0  0  2  0  0  0  0  0  0
  161.5420  204.5620  147.0980 C   0  0  0  0  0  3  0  0  0  0  0  0
  161.4670  208.1560  149.5240 C   0  0  1  0  0  3  0  0  0  0  0  0
  161.4090  205.9770  151.4170 C   0  0  0  0  0  0  0  0  0  0  0  0
  162.0690  209.2410  148.6520 C   0  0  0  0  0  2  0  0  0  0  0  0
  162.0260  210.5800  149.3680 C   0  0  0  0  0  2  0  0  0  0  0  0
  162.0970  211.6930  148.3780 C   0  0  0  0  0  0  0  0  0  0  0  0
  163.2530  212.1460  148.0180 N   0  0  0  0  0  2  0  0  0  0  0  0
  160.8660  212.3270  147.8840 C   0  0  0  0  0  0  0  0  0  0  0  0
  160.1720  213.2250  148.6850 O   0  0  0  0  0  1  0  0  0  0  0  0
  160.4310  212.0600  146.7330 O   0  0  0  0  0  0  0  0  0  0  0  0
  1  2  2  0  0  0  0
  1 13  1  0  0  0  0
  2 18  1  0  0  0  0
  3  6  1  0  0  0  0
  4  1  1  0  0  0  0
  5 12  2  0  0  0  0
  5  8  1  0  0  0  0
  7  4  1  0  0  0  0
  7 14  1  0  0  0  0
  8  7  2  0  0  0  0
  9 10  2  0  0  0  0
 11 17  1  0  0  0  0
 11  2  1  0  0  0  0
 12 16  1  0  0  0  0
 13  3  2  0  0  0  0
 14 13  1  0  0  0  0
 15  9  1  0  0  0  0
 16  4  2  0  0  0  0
 17 19  1  6  0  0  0
 17 15  1  0  0  0  0
 18  9  1  0  0  0  0
 18  6  2  0  0  0  0
 19 20  1  0  0  0  0
 21 20  1  0  0  0  0
 22 21  2  0  0  0  0
 23 21  1  0  0  0  0
 23 24  1  0  0  0  0
 25 23  2  0  0  0  0
M  END
>  <MODEL>
2

>  <REMARK>
 VINA RESULT:      -9.2      2.636      5.249
  Name = 
  4 active torsions:
  status: ('A' for Active; 'I' for Inactive)
    1  A    between atoms: C_2  and  CA_21
    2  A    between atoms: C_6  and  C_15
    3  A    between atoms: C_6  and  C_23
    4  A    between atoms: C_15  and  CA_21
                            x       y       z     vdW  Elec       q    Type
                         _______ _______ _______ _____ _____    ______ ____

>  <TORSDO>
F 4

$$$$
=
 OpenBabel11052422053D

 25 28  0  0  1  0  0  0  0  0999 V2000
  161.3010  204.4480  149.2580 C   0  0  0  0  0  0  0  0  0  0  0  0
  161.3920  205.4090  150.2850 C   0  0  0  0  0  0  0  0  0  0  0  0
  160.8100  202.6930  150.8820 C   0  0  0  0  0  3  0  0  0  0  0  0
  161.4700  204.6320  147.8740 C   0  0  0  0  0  0  0  0  0  0  0  0
  161.7110  204.5430  145.1140 C   0  0  0  0  0  3  0  0  0  0  0  0
  160.9030  203.6390  151.9100 C   0  0  0  0  0  3  0  0  0  0  0  0
  161.3070  203.4530  147.1570 C   0  0  0  0  0  0  0  0  0  0  0  0
  161.4230  203.4030  145.8070 N   0  0  0  0  0  0  0  0  0  0  0  0
  161.2710  205.9860  152.7030 C   0  0  0  0  0  0  0  0  0  0  0  0
  161.2760  205.6350  153.9120 O   0  0  0  0  0  0  0  0  0  0  0  0
  161.7940  206.8350  150.0060 C   0  0  0  0  0  2  0  0  0  0  0  0
  161.8850  205.7640  145.7910 C   0  0  0  0  0  3  0  0  0  0  0  0
  161.0100  203.1180  149.5730 C   0  0  0  0  0  0  0  0  0  0  0  0
  160.9560  202.1630  148.1810 S   0  0  0  0  0  0  0  0  0  0  0  0
  161.3630  207.3710  152.3620 N   0  0  0  0  0  2  0  0  0  0  0  0
  161.7630  205.8110  147.1870 C   0  0  0  0  0  3  0  0  0  0  0  0
  161.1260  207.8020  150.9870 C   0  0  1  0  0  3  0  0  0  0  0  0
  161.1920  204.9870  151.6220 C   0  0  0  0  0  0  0  0  0  0  0  0
  161.6570  209.2100  150.7960 C   0  0  0  0  0  2  0  0  0  0  0  0
  162.1990  209.7530  152.1070 C   0  0  0  0  0  2  0  0  0  0  0  0
  161.1730  210.6070  152.7710 C   0  0  0  0  0  0  0  0  0  0  0  0
  160.4670  211.4200  152.0560 N   0  0  0  0  0  2  0  0  0  0  0  0
  161.0240  210.5880  154.2340 C   0  0  0  0  0  0  0  0  0  0  0  0
  162.1180  210.8480  155.0500 O   0  0  0  0  0  1  0  0  0  0  0  0
  159.9080  210.3340  154.7570 O   0  0  0  0  0  0  0  0  0  0  0  0
  1 13  1  0  0  0  0
  1  2  2  0  0  0  0
  2 18  1  0  0  0  0
  3  6  1  0  0  0  0
  4  1  1  0  0  0  0
  5 12  1  0  0  0  0
  5  8  2  0  0  0  0
  7  4  2  0  0  0  0
  7 14  1  0  0  0  0
  8  7  1  0  0  0  0
  9 10  2  0  0  0  0
 11  2  1  0  0  0  0
 11 17  1  0  0  0  0
 12 16  2  0  0  0  0
 13  3  2  0  0  0  0
 14 13  1  0  0  0  0
 15  9  1  0  0  0  0
 16  4  1  0  0  0  0
 17 19  1  1  0  0  0
 17 15  1  0  0  0  0
 18  6  2  0  0  0  0
 18  9  1  0  0  0  0
 19 20  1  0  0  0  0
 20 21  1  0  0  0  0
 21 23  1  0  0  0  0
 22 21  2  0  0  0  0
 23 25  2  0  0  0  0
 23 24  1  0  0  0  0
M  END
>  <MODEL>
3

>  <REMARK>
 VINA RESULT:      -9.2      2.074      3.676
  Name = 
  4 active torsions:
  status: ('A' for Active; 'I' for Inactive)
    1  A    between atoms: C_2  and  CA_21
    2  A    between atoms: C_6  and  C_15
    3  A    between atoms: C_6  and  C_23
    4  A    between atoms: C_15  and  CA_21
                            x       y       z     vdW  Elec       q    Type
                         _______ _______ _______ _____ _____    ______ ____

>  <TORSDO>
F 4

$$$$
=
 OpenBabel11052422053D

 25 28  0  0  1  0  0  0  0  0999 V2000
  161.4650  205.0740  148.9160 C   0  0  0  0  0  0  0  0  0  0  0  0
  161.5250  206.0830  149.8980 C   0  0  0  0  0  0  0  0  0  0  0  0
  161.9850  206.6910  147.1610 C   0  0  0  0  0  3  0  0  0  0  0  0
  161.1870  203.7060  149.0850 C   0  0  0  0  0  0  0  0  0  0  0  0
  160.7010  200.9810  148.9630 C   0  0  0  0  0  3  0  0  0  0  0  0
  162.0430  207.7010  148.1290 C   0  0  0  0  0  3  0  0  0  0  0  0
  161.2120  203.0060  147.8850 C   0  0  0  0  0  0  0  0  0  0  0  0
  160.9760  201.6720  147.8190 N   0  0  0  0  0  0  0  0  0  0  0  0
  161.8940  208.4680  150.5090 C   0  0  0  0  0  0  0  0  0  0  0  0
  161.9730  209.6800  150.1810 O   0  0  0  0  0  0  0  0  0  0  0  0
  161.1910  205.8060  151.3420 C   0  0  0  0  0  2  0  0  0  0  0  0
  160.6640  201.6410  150.2040 C   0  0  0  0  0  3  0  0  0  0  0  0
  161.6990  205.3940  147.5750 C   0  0  0  0  0  0  0  0  0  0  0  0
  161.5700  204.0250  146.5940 S   0  0  0  0  0  0  0  0  0  0  0  0
  161.8600  208.1030  151.8910 N   0  0  0  0  0  2  0  0  0  0  0  0
  160.9100  203.0200  150.2690 C   0  0  0  0  0  3  0  0  0  0  0  0
  162.0020  206.7040  152.2810 C   0  0  1  0  0  3  0  0  0  0  0  0
  161.8150  207.4070  149.4880 C   0  0  0  0  0  0  0  0  0  0  0  0
  161.5470  206.5260  153.7170 C   0  0  0  0  0  2  0  0  0  0  0  0
  160.3940  207.4660  154.0260 C   0  0  0  0  0  2  0  0  0  0  0  0
  160.7750  208.4000  155.1240 C   0  0  0  0  0  0  0  0  0  0  0  0
  160.9110  209.6590  154.8650 N   0  0  0  0  0  2  0  0  0  0  0  0
  161.0800  207.8840  156.4660 C   0  0  0  0  0  0  0  0  0  0  0  0
  162.2000  208.3370  157.1520 O   0  0  0  0  0  1  0  0  0  0  0  0
  160.3310  207.0260  157.0040 O   0  0  0  0  0  0  0  0  0  0  0  0
  1  4  1  0  0  0  0
  1  2  2  0  0  0  0
  2 11  1  0  0  0  0
  3 13  2  0  0  0  0
  3  6  1  0  0  0  0
  4 16  1  0  0  0  0
  5 12  1  0  0  0  0
  6 18  2  0  0  0  0
  7  4  2  0  0  0  0
  8  7  1  0  0  0  0
  8  5  2  0  0  0  0
  9 15  1  0  0  0  0
 10  9  2  0  0  0  0
 11 17  1  0  0  0  0
 12 16  2  0  0  0  0
 13  1  1  0  0  0  0
 14 13  1  0  0  0  0
 14  7  1  0  0  0  0
 15 17  1  0  0  0  0
 17 19  1  1  0  0  0
 18  2  1  0  0  0  0
 18  9  1  0  0  0  0
 19 20  1  0  0  0  0
 20 21  1  0  0  0  0
 21 23  1  0  0  0  0
 22 21  2  0  0  0  0
 23 25  2  0  0  0  0
 23 24  1  0  0  0  0
M  END
>  <MODEL>
4

>  <REMARK>
 VINA RESULT:      -9.2      0.902      1.038
  Name = 
  4 active torsions:
  status: ('A' for Active; 'I' for Inactive)
    1  A    between atoms: C_2  and  CA_21
    2  A    between atoms: C_6  and  C_15
    3  A    between atoms: C_6  and  C_23
    4  A    between atoms: C_15  and  CA_21
                            x       y       z     vdW  Elec       q    Type
                         _______ _______ _______ _____ _____    ______ ____

>  <TORSDO>
F 4

$$$$
=
 OpenBabel11052422053D

 25 28  0  0  1  0  0  0  0  0999 V2000
  161.2680  205.5920  150.6390 C   0  0  0  0  0  0  0  0  0  0  0  0
  161.0450  204.4050  149.9120 C   0  0  0  0  0  0  0  0  0  0  0  0
  161.0760  204.3870  152.7530 C   0  0  0  0  0  3  0  0  0  0  0  0
  161.4900  206.8900  150.1440 C   0  0  0  0  0  0  0  0  0  0  0  0
  161.9650  209.5670  149.6120 C   0  0  0  0  0  3  0  0  0  0  0  0
  160.8490  203.2030  152.0410 C   0  0  0  0  0  3  0  0  0  0  0  0
  161.6720  207.8220  151.1580 C   0  0  0  0  0  0  0  0  0  0  0  0
  161.9040  209.1330  150.9040 N   0  0  0  0  0  0  0  0  0  0  0  0
  160.6110  201.9540  149.8830 C   0  0  0  0  0  0  0  0  0  0  0  0
  160.2440  200.9020  150.4680 O   0  0  0  0  0  0  0  0  0  0  0  0
  160.9270  204.4030  148.4090 C   0  0  0  0  0  2  0  0  0  0  0  0
  161.7900  208.6650  148.5470 C   0  0  0  0  0  3  0  0  0  0  0  0
  161.2830  205.5610  152.0360 C   0  0  0  0  0  0  0  0  0  0  0  0
  161.5660  207.0980  152.6740 S   0  0  0  0  0  0  0  0  0  0  0  0
  160.8000  201.9530  148.4660 N   0  0  0  0  0  2  0  0  0  0  0  0
  161.5490  207.3090  148.8140 C   0  0  0  0  0  3  0  0  0  0  0  0
  161.4430  203.0900  147.8140 C   0  0  1  0  0  3  0  0  0  0  0  0
  160.8310  203.2050  150.6320 C   0  0  0  0  0  0  0  0  0  0  0  0
  161.1770  203.0390  146.3210 C   0  0  0  0  0  2  0  0  0  0  0  0
  162.3700  203.5810  145.5530 C   0  0  0  0  0  2  0  0  0  0  0  0
  162.2540  205.0600  145.4050 C   0  0  0  0  0  0  0  0  0  0  0  0
  163.0810  205.8260  146.0390 N   0  0  0  0  0  2  0  0  0  0  0  0
  161.1590  205.6450  144.6180 C   0  0  0  0  0  0  0  0  0  0  0  0
  160.0590  206.2020  145.2580 O   0  0  0  0  0  1  0  0  0  0  0  0
  161.2060  205.6430  143.3600 O   0  0  0  0  0  0  0  0  0  0  0  0
  1 13  2  0  0  0  0
  2 18  2  0  0  0  0
  2  1  1  0  0  0  0
  4  1  1  0  0  0  0
  4  7  1  0  0  0  0
  5  8  1  0  0  0  0
  6  3  2  0  0  0  0
  7 14  1  0  0  0  0
  8  7  2  0  0  0  0
  9 10  2  0  0  0  0
  9 18  1  0  0  0  0
 11  2  1  0  0  0  0
 12 16  1  0  0  0  0
 12  5  2  0  0  0  0
 13 14  1  0  0  0  0
 13  3  1  0  0  0  0
 15  9  1  0  0  0  0
 16  4  2  0  0  0  0
 17 19  1  6  0  0  0
 17 11  1  0  0  0  0
 17 15  1  0  0  0  0
 18  6  1  0  0  0  0
 20 19  1  0  0  0  0
 21 20  1  0  0  0  0
 21 22  2  0  0  0  0
 23 24  1  0  0  0  0
 23 21  1  0  0  0  0
 25 23  2  0  0  0  0
M  END
>  <MODEL>
5

>  <REMARK>
 VINA RESULT:      -9.1      4.079      7.732
  Name = 
  4 active torsions:
  status: ('A' for Active; 'I' for Inactive)
    1  A    between atoms: C_2  and  CA_21
    2  A    between atoms: C_6  and  C_15
    3  A    between atoms: C_6  and  C_23
    4  A    between atoms: C_15  and  CA_21
                            x       y       z     vdW  Elec       q    Type
                         _______ _______ _______ _____ _____    ______ ____

>  <TORSDO>
F 4

$$$$
=
 OpenBabel11052422053D

 25 28  0  0  1  0  0  0  0  0999 V2000
  161.4650  207.2670  151.2680 C   0  0  0  0  0  0  0  0  0  0  0  0
  161.2280  205.9080  150.9830 C   0  0  0  0  0  0  0  0  0  0  0  0
  161.3330  206.8340  153.6670 C   0  0  0  0  0  3  0  0  0  0  0  0
  161.6700  208.3260  150.3640 C   0  0  0  0  0  0  0  0  0  0  0  0
  162.1200  210.6720  148.9610 C   0  0  0  0  0  3  0  0  0  0  0  0
  161.0920  205.4820  153.3940 C   0  0  0  0  0  3  0  0  0  0  0  0
  161.8740  209.5410  151.0060 C   0  0  0  0  0  0  0  0  0  0  0  0
  162.0950  210.6930  150.3250 N   0  0  0  0  0  0  0  0  0  0  0  0
  160.8030  203.5890  151.7810 C   0  0  0  0  0  0  0  0  0  0  0  0
  160.4560  202.7930  152.6920 O   0  0  0  0  0  0  0  0  0  0  0  0
  161.0720  205.4080  149.5700 C   0  0  0  0  0  2  0  0  0  0  0  0
  161.9210  209.4680  148.2610 C   0  0  0  0  0  3  0  0  0  0  0  0
  161.5170  207.7020  152.5950 C   0  0  0  0  0  0  0  0  0  0  0  0
  161.8100  209.3630  152.6790 S   0  0  0  0  0  0  0  0  0  0  0  0
  160.9560  203.1160  150.4400 N   0  0  0  0  0  2  0  0  0  0  0  0
  161.6930  208.2790  148.9690 C   0  0  0  0  0  3  0  0  0  0  0  0
  161.5770  203.9680  149.4310 C   0  0  1  0  0  3  0  0  0  0  0  0
  161.0390  205.0160  152.0660 C   0  0  0  0  0  0  0  0  0  0  0  0
  161.2730  203.4250  148.0480 C   0  0  0  0  0  2  0  0  0  0  0  0
  161.9360  204.2850  146.9850 C   0  0  0  0  0  2  0  0  0  0  0  0
  161.2060  204.1530  145.6920 C   0  0  0  0  0  0  0  0  0  0  0  0
  160.8890  202.9760  145.2610 N   0  0  0  0  0  2  0  0  0  0  0  0
  160.9270  205.3400  144.8720 C   0  0  0  0  0  0  0  0  0  0  0  0
  161.5800  205.5210  143.6590 O   0  0  0  0  0  0  0  0  0  0  0  0
  160.0970  206.2030  145.2620 O   0  0  0  0  0  1  0  0  0  0  0  0
  1 13  1  0  0  0  0
  2  1  2  0  0  0  0
  2 18  1  0  0  0  0
  4  7  1  0  0  0  0
  4  1  1  0  0  0  0
  5  8  1  0  0  0  0
  6  3  1  0  0  0  0
  7 14  1  0  0  0  0
  8  7  2  0  0  0  0
  9 18  1  0  0  0  0
  9 10  2  0  0  0  0
 11  2  1  0  0  0  0
 12  5  2  0  0  0  0
 12 16  1  0  0  0  0
 13 14  1  0  0  0  0
 13  3  2  0  0  0  0
 15  9  1  0  0  0  0
 16  4  2  0  0  0  0
 17 19  1  6  0  0  0
 17 11  1  0  0  0  0
 17 15  1  0  0  0  0
 18  6  2  0  0  0  0
 20 19  1  0  0  0  0
 21 20  1  0  0  0  0
 22 21  2  0  0  0  0
 23 25  1  0  0  0  0
 23 21  1  0  0  0  0
 24 23  2  0  0  0  0
M  END
>  <MODEL>
6

>  <REMARK>
 VINA RESULT:      -9.1      3.694      7.683
  Name = 
  4 active torsions:
  status: ('A' for Active; 'I' for Inactive)
    1  A    between atoms: C_2  and  CA_21
    2  A    between atoms: C_6  and  C_15
    3  A    between atoms: C_6  and  C_23
    4  A    between atoms: C_15  and  CA_21
                            x       y       z     vdW  Elec       q    Type
                         _______ _______ _______ _____ _____    ______ ____

>  <TORSDO>
F 4

$$$$
=
 OpenBabel11052422053D

 25 28  0  0  1  0  0  0  0  0999 V2000
  161.2460  206.2170  151.4200 C   0  0  0  0  0  0  0  0  0  0  0  0
  161.1240  205.2440  150.4070 C   0  0  0  0  0  0  0  0  0  0  0  0
  160.8850  204.5280  153.1460 C   0  0  0  0  0  3  0  0  0  0  0  0
  161.4810  207.5970  151.2830 C   0  0  0  0  0  0  0  0  0  0  0  0
  161.9350  210.3240  151.4720 C   0  0  0  0  0  3  0  0  0  0  0  0
  160.7580  203.5550  152.1470 C   0  0  0  0  0  3  0  0  0  0  0  0
  161.5410  208.2510  152.5070 C   0  0  0  0  0  0  0  0  0  0  0  0
  161.7630  209.5850  152.6060 N   0  0  0  0  0  0  0  0  0  0  0  0
  160.7590  202.8760  149.7360 C   0  0  0  0  0  0  0  0  0  0  0  0
  160.3650  201.7110  150.0070 O   0  0  0  0  0  0  0  0  0  0  0  0
  161.1500  205.6130  148.9460 C   0  0  0  0  0  2  0  0  0  0  0  0
  161.8850  209.7110  150.2070 C   0  0  0  0  0  3  0  0  0  0  0  0
  161.1290  205.8420  152.7620 C   0  0  0  0  0  0  0  0  0  0  0  0
  161.3100  207.1760  153.7820 S   0  0  0  0  0  0  0  0  0  0  0  0
  161.0820  203.2240  148.3880 N   0  0  0  0  0  2  0  0  0  0  0  0
  161.6560  208.3310  150.1080 C   0  0  0  0  0  3  0  0  0  0  0  0
  161.7540  204.4870  148.1010 C   0  0  1  0  0  3  0  0  0  0  0  0
  160.8740  203.9040  150.7870 C   0  0  0  0  0  0  0  0  0  0  0  0
  161.6340  204.8050  146.6220 C   0  0  0  0  0  2  0  0  0  0  0  0
  162.0160  203.5940  145.7890 C   0  0  0  0  0  2  0  0  0  0  0  0
  160.8050  203.0170  145.1380 C   0  0  0  0  0  0  0  0  0  0  0  0
  160.0260  203.7900  144.4540 N   0  0  0  0  0  2  0  0  0  0  0  0
  160.4520  201.6050  145.3420 C   0  0  0  0  0  0  0  0  0  0  0  0
  160.9770  200.9030  146.4200 O   0  0  0  0  0  1  0  0  0  0  0  0
  159.6750  201.0200  144.5430 O   0  0  0  0  0  0  0  0  0  0  0  0
  1 13  2  0  0  0  0
  2 18  2  0  0  0  0
  2  1  1  0  0  0  0
  4  1  1  0  0  0  0
  4  7  1  0  0  0  0
  5  8  1  0  0  0  0
  6  3  2  0  0  0  0
  7  8  2  0  0  0  0
  7 14  1  0  0  0  0
  9 10  2  0  0  0  0
  9 18  1  0  0  0  0
 11  2  1  0  0  0  0
 12  5  2  0  0  0  0
 13  3  1  0  0  0  0
 13 14  1  0  0  0  0
 15  9  1  0  0  0  0
 16 12  1  0  0  0  0
 16  4  2  0  0  0  0
 17 19  1  6  0  0  0
 17 15  1  0  0  0  0
 17 11  1  0  0  0  0
 18  6  1  0  0  0  0
 20 19  1  0  0  0  0
 21 23  1  0  0  0  0
 21 20  1  0  0  0  0
 22 21  2  0  0  0  0
 23 24  1  0  0  0  0
 25 23  2  0  0  0  0
M  END
>  <MODEL>
7

>  <REMARK>
 VINA RESULT:      -8.9      4.045      8.198
  Name = 
  4 active torsions:
  status: ('A' for Active; 'I' for Inactive)
    1  A    between atoms: C_2  and  CA_21
    2  A    between atoms: C_6  and  C_15
    3  A    between atoms: C_6  and  C_23
    4  A    between atoms: C_15  and  CA_21
                            x       y       z     vdW  Elec       q    Type
                         _______ _______ _______ _____ _____    ______ ____

>  <TORSDO>
F 4

$$$$
=
 OpenBabel11052422053D

 25 28  0  0  1  0  0  0  0  0999 V2000
  161.1590  203.4710  148.1610 C   0  0  0  0  0  0  0  0  0  0  0  0
  161.1650  203.8860  149.5070 C   0  0  0  0  0  0  0  0  0  0  0  0
  160.6480  201.1780  148.8240 C   0  0  0  0  0  3  0  0  0  0  0  0
  161.3900  204.2430  147.0080 C   0  0  0  0  0  0  0  0  0  0  0  0
  161.7710  205.3720  144.5060 C   0  0  0  0  0  3  0  0  0  0  0  0
  160.6570  201.5800  150.1650 C   0  0  0  0  0  3  0  0  0  0  0  0
  161.3040  203.4950  145.8400 C   0  0  0  0  0  0  0  0  0  0  0  0
  161.4890  204.0410  144.6130 N   0  0  0  0  0  0  0  0  0  0  0  0
  160.9040  203.3470  151.9230 C   0  0  0  0  0  0  0  0  0  0  0  0
  160.8610  202.5030  152.8560 O   0  0  0  0  0  0  0  0  0  0  0  0
  161.5310  205.2950  149.9020 C   0  0  0  0  0  2  0  0  0  0  0  0
  161.8680  206.1760  145.6560 C   0  0  0  0  0  3  0  0  0  0  0  0
  160.8980  202.1350  147.8460 C   0  0  0  0  0  0  0  0  0  0  0  0
  160.9470  201.8840  146.1760 S   0  0  0  0  0  0  0  0  0  0  0  0
  160.9650  204.7420  152.2250 N   0  0  0  0  0  2  0  0  0  0  0  0
  161.6760  205.6070  146.9230 C   0  0  0  0  0  3  0  0  0  0  0  0
  160.7820  205.7290  151.1660 C   0  0  1  0  0  3  0  0  0  0  0  0
  160.9130  202.9210  150.5110 C   0  0  0  0  0  0  0  0  0  0  0  0
  161.2720  207.0840  151.6400 C   0  0  0  0  0  2  0  0  0  0  0  0
  162.3950  207.5810  150.7470 C   0  0  0  0  0  2  0  0  0  0  0  0
  162.2410  209.0430  150.4960 C   0  0  0  0  0  0  0  0  0  0  0  0
  162.2460  209.8600  151.4980 N   0  0  0  0  0  2  0  0  0  0  0  0
  161.9980  209.5430  149.1360 C   0  0  0  0  0  0  0  0  0  0  0  0
  162.1290  210.8980  148.8550 O   0  0  0  0  0  1  0  0  0  0  0  0
  161.6680  208.7500  148.2150 O   0  0  0  0  0  0  0  0  0  0  0  0
  1  2  2  0  0  0  0
  2 11  1  0  0  0  0
  2 18  1  0  0  0  0
  3  6  1  0  0  0  0
  4  1  1  0  0  0  0
  5  8  2  0  0  0  0
  5 12  1  0  0  0  0
  6 18  2  0  0  0  0
  7 14  1  0  0  0  0
  7  4  2  0  0  0  0
  8  7  1  0  0  0  0
  9 15  1  0  0  0  0
  9 10  2  0  0  0  0
 11 17  1  0  0  0  0
 12 16  2  0  0  0  0
 13  1  1  0  0  0  0
 13  3  2  0  0  0  0
 14 13  1  0  0  0  0
 16  4  1  0  0  0  0
 17 19  1  1  0  0  0
 17 15  1  0  0  0  0
 18  9  1  0  0  0  0
 20 19  1  0  0  0  0
 21 20  1  0  0  0  0
 21 22  2  0  0  0  0
 23 21  1  0  0  0  0
 24 23  1  0  0  0  0
 25 23  2  0  0  0  0
M  END
>  <MODEL>
8

>  <REMARK>
 VINA RESULT:      -8.8      2.973      4.943
  Name = 
  4 active torsions:
  status: ('A' for Active; 'I' for Inactive)
    1  A    between atoms: C_2  and  CA_21
    2  A    between atoms: C_6  and  C_15
    3  A    between atoms: C_6  and  C_23
    4  A    between atoms: C_15  and  CA_21
                            x       y       z     vdW  Elec       q    Type
                         _______ _______ _______ _____ _____    ______ ____

>  <TORSDO>
F 4

$$$$
=
 OpenBabel11052422053D

 25 28  0  0  1  0  0  0  0  0999 V2000
  161.1880  206.3130  151.7290 C   0  0  0  0  0  0  0  0  0  0  0  0
  161.1880  205.5750  150.5290 C   0  0  0  0  0  0  0  0  0  0  0  0
  160.9010  204.2710  153.0370 C   0  0  0  0  0  3  0  0  0  0  0  0
  161.3130  207.7040  151.8990 C   0  0  0  0  0  0  0  0  0  0  0  0
  161.5290  210.3530  152.6840 C   0  0  0  0  0  3  0  0  0  0  0  0
  160.8950  203.5290  151.8490 C   0  0  0  0  0  3  0  0  0  0  0  0
  161.2690  208.0830  153.2350 C   0  0  0  0  0  0  0  0  0  0  0  0
  161.3750  209.3770  153.6250 N   0  0  0  0  0  0  0  0  0  0  0  0
  161.0480  203.3850  149.3540 C   0  0  0  0  0  0  0  0  0  0  0  0
  160.7430  202.1640  149.3500 O   0  0  0  0  0  0  0  0  0  0  0  0
  161.2410  206.2490  149.1820 C   0  0  0  0  0  2  0  0  0  0  0  0
  161.5810  210.0240  151.3170 C   0  0  0  0  0  3  0  0  0  0  0  0
  161.0500  205.6520  152.9530 C   0  0  0  0  0  0  0  0  0  0  0  0
  161.0790  206.7450  154.2390 S   0  0  0  0  0  0  0  0  0  0  0  0
  161.3950  204.0370  148.1300 N   0  0  0  0  0  2  0  0  0  0  0  0
  161.4720  208.6840  150.9180 C   0  0  0  0  0  3  0  0  0  0  0  0
  161.9700  205.3790  148.1540 C   0  0  1  0  0  3  0  0  0  0  0  0
  161.0360  204.1690  150.6020 C   0  0  0  0  0  0  0  0  0  0  0  0
  161.8820  205.9960  146.7710 C   0  0  0  0  0  2  0  0  0  0  0  0
  162.4360  205.0400  145.7290 C   0  0  0  0  0  2  0  0  0  0  0  0
  161.4110  204.7780  144.6780 C   0  0  0  0  0  0  0  0  0  0  0  0
  161.2220  205.6540  143.7460 N   0  0  0  0  0  2  0  0  0  0  0  0
  160.5640  203.5790  144.7490 C   0  0  0  0  0  0  0  0  0  0  0  0
  159.3110  203.5710  144.1470 O   0  0  0  0  0  0  0  0  0  0  0  0
  160.9650  202.5510  145.3550 O   0  0  0  0  0  1  0  0  0  0  0  0
  1  4  1  0  0  0  0
  1 13  2  0  0  0  0
  2 18  2  0  0  0  0
  2  1  1  0  0  0  0
  4  7  1  0  0  0  0
  5  8  1  0  0  0  0
  6  3  2  0  0  0  0
  7  8  2  0  0  0  0
  7 14  1  0  0  0  0
  9 18  1  0  0  0  0
 10  9  2  0  0  0  0
 11  2  1  0  0  0  0
 12  5  2  0  0  0  0
 13  3  1  0  0  0  0
 13 14  1  0  0  0  0
 15 17  1  0  0  0  0
 15  9  1  0  0  0  0
 16 12  1  0  0  0  0
 16  4  2  0  0  0  0
 17 19  1  6  0  0  0
 17 11  1  0  0  0  0
 18  6  1  0  0  0  0
 20 19  1  0  0  0  0
 21 23  1  0  0  0  0
 21 20  1  0  0  0  0
 22 21  2  0  0  0  0
 23 25  1  0  0  0  0
 24 23  2  0  0  0  0
M  END
>  <MODEL>
9

>  <REMARK>
 VINA RESULT:      -8.7      3.957      8.119
  Name = 
  4 active torsions:
  status: ('A' for Active; 'I' for Inactive)
    1  A    between atoms: C_2  and  CA_21
    2  A    between atoms: C_6  and  C_15
    3  A    between atoms: C_6  and  C_23
    4  A    between atoms: C_15  and  CA_21
                            x       y       z     vdW  Elec       q    Type
                         _______ _______ _______ _____ _____    ______ ____

>  <TORSDO>
F 4

$$$$
