=
 OpenBabel11062408023D

 34 38  0  0  1  0  0  0  0  0999 V2000
  161.0910  210.4620  155.9830 N   0  0  0  0  0  0  0  0  0  0  0  0
  159.5900  207.2320  155.1900 O   0  0  0  0  0  0  0  0  0  0  0  0
  161.2680  208.3380  153.8910 N   0  0  0  0  0  0  0  0  0  0  0  0
  161.2900  208.2150  151.3410 C   0  0  2  0  0  3  0  0  0  0  0  0
  161.4720  207.9940  156.4140 C   0  0  1  0  0  3  0  0  0  0  0  0
  160.7700  206.9710  157.2600 C   0  0  0  0  0  2  0  0  0  0  0  0
  162.1870  206.4990  152.7700 O   0  0  0  0  0  0  0  0  0  0  0  0
  160.9480  207.5270  155.0710 C   0  0  1  0  0  3  0  0  0  0  0  0
  160.9410  209.3480  156.9110 C   0  0  0  0  0  2  0  0  0  0  0  0
  161.0190  209.7750  153.7910 C   0  0  1  0  0  3  0  0  0  0  0  0
  162.5000  210.8070  155.7420 C   0  0  0  0  0  1  0  0  0  0  0  0
  159.4790  206.6830  156.4830 C   0  0  0  0  0  2  0  0  0  0  0  0
  161.1710  209.6750  151.3710 N   0  0  0  0  0  2  0  0  0  0  0  0
  160.3010  210.0730  152.4750 C   0  0  2  0  0  3  0  0  0  0  0  0
  161.6590  207.6410  152.6930 C   0  0  0  0  0  0  0  0  0  0  0  0
  160.2810  210.2680  154.8880 O   0  0  0  0  0  0  0  0  0  0  0  0
  159.9610  213.6400  151.1860 C   0  0  0  0  0  0  0  0  0  0  0  0
  159.1590  214.2040  152.1830 C   0  0  0  0  0  3  0  0  0  0  0  0
  159.9090  211.5090  152.3440 C   0  0  0  0  0  0  0  0  0  0  0  0
  158.7420  213.4220  153.2620 C   0  0  0  0  0  3  0  0  0  0  0  0
  160.3370  212.2980  151.2660 C   0  0  0  0  0  3  0  0  0  0  0  0
  159.1140  212.0790  153.3420 C   0  0  0  0  0  3  0  0  0  0  0  0
  160.3640  214.3960  150.1370 F   0  0  0  0  0  0  0  0  0  0  0  0
  162.4620  207.7180  150.0250 S   0  0  0  0  0  0  0  0  0  0  0  0
  161.1840  207.5890  148.7400 C   0  0  0  0  0  2  0  0  0  0  0  0
  160.4300  206.2810  148.8920 C   0  0  0  0  0  2  0  0  0  0  0  0
  161.1340  205.1790  148.1110 C   0  0  0  0  0  2  0  0  0  0  0  0
  161.1540  202.6090  146.8860 O   0  0  0  0  0  0  0  0  0  0  0  0
  161.1000  203.9120  148.8360 N   0  0  0  0  0  0  0  0  0  0  0  0
  161.0230  202.6530  148.1390 C   0  0  0  0  0  0  0  0  0  0  0  0
  161.1020  201.4760  150.3440 C   0  0  0  0  0  2  0  0  0  0  0  0
  160.5680  202.7640  150.9620 C   0  0  0  0  0  2  0  0  0  0  0  0
  161.2460  203.9560  150.2950 C   0  0  0  0  0  2  0  0  0  0  0  0
  160.6890  201.3910  148.8780 C   0  0  0  0  0  2  0  0  0  0  0  0
  1  9  1  0  0  0  0
  2 12  1  0  0  0  0
  3  8  1  0  0  0  0
  4 24  1  6  0  0  0
  4 13  1  0  0  0  0
  4 15  1  0  0  0  0
  5  9  1  1  0  0  0
  5  6  1  0  0  0  0
  8  2  1  1  0  0  0
  8  5  1  0  0  0  0
 10  3  1  0  0  0  0
 10 16  1  1  0  0  0
 11  1  1  0  0  0  0
 12  6  1  0  0  0  0
 13 14  1  0  0  0  0
 14 19  1  6  0  0  0
 14 10  1  0  0  0  0
 15  7  2  0  0  0  0
 15  3  1  0  0  0  0
 16  1  1  0  0  0  0
 17 21  2  0  0  0  0
 17 18  1  0  0  0  0
 18 20  2  0  0  0  0
 19 22  2  0  0  0  0
 20 22  1  0  0  0  0
 21 19  1  0  0  0  0
 23 17  1  0  0  0  0
 25 26  1  0  0  0  0
 25 24  1  0  0  0  0
 27 29  1  0  0  0  0
 27 26  1  0  0  0  0
 28 30  2  0  0  0  0
 29 33  1  0  0  0  0
 30 29  1  0  0  0  0
 30 34  1  0  0  0  0
 31 32  1  0  0  0  0
 33 32  1  0  0  0  0
 34 31  1  0  0  0  0
M  END
>  <MODEL>
1

>  <REMARK>
 VINA RESULT:      -7.9      0.000      0.000
  Name = 
  6 active torsions:
  status: ('A' for Active; 'I' for Inactive)
    1  A    between atoms: C_3  and  N_13
    2  A    between atoms: C_3  and  C_17
    3  A    between atoms: C_5  and  S_18
    4  A    between atoms: C_12  and  C_28
    5  A    between atoms: C_17  and  C_29
    6  A    between atoms: S_18  and  C_29
                            x       y       z     vdW  Elec       q    Type
                         _______ _______ _______ _____ _____    ______ ____

>  <TORSDO>
F 6

$$$$
=
 OpenBabel11062408023D

 34 38  0  0  1  0  0  0  0  0999 V2000
  159.7880  213.3780  150.8480 N   0  0  0  0  0  0  0  0  0  0  0  0
  162.8760  212.7900  148.9960 O   0  0  0  0  0  0  0  0  0  0  0  0
  161.3120  211.1040  149.6580 N   0  0  0  0  0  0  0  0  0  0  0  0
  162.0740  208.7750  150.3780 C   0  0  2  0  0  3  0  0  0  0  0  0
  160.6130  213.2460  148.4560 C   0  0  1  0  0  3  0  0  0  0  0  0
  161.4680  214.1410  147.6050 C   0  0  0  0  0  2  0  0  0  0  0  0
  161.8160  209.4470  148.0810 O   0  0  0  0  0  0  0  0  0  0  0  0
  161.6550  212.1770  148.7180 C   0  0  1  0  0  3  0  0  0  0  0  0
  160.2170  214.1110  149.6630 C   0  0  0  0  0  2  0  0  0  0  0  0
  160.8120  211.3270  151.0130 C   0  0  1  0  0  3  0  0  0  0  0  0
  158.5340  212.6420  150.6310 C   0  0  0  0  0  1  0  0  0  0  0  0
  162.8820  213.9200  148.1540 C   0  0  0  0  0  2  0  0  0  0  0  0
  161.4190  209.0670  151.6550 N   0  0  0  0  0  2  0  0  0  0  0  0
  161.6140  210.4750  151.9960 C   0  0  2  0  0  3  0  0  0  0  0  0
  161.6860  209.7600  149.2950 C   0  0  0  0  0  0  0  0  0  0  0  0
  160.8530  212.6890  151.3800 O   0  0  0  0  0  0  0  0  0  0  0  0
  161.8060  210.9720  155.7660 C   0  0  0  0  0  0  0  0  0  0  0  0
  160.4570  211.1800  156.0710 C   0  0  0  0  0  3  0  0  0  0  0  0
  161.2390  210.7290  153.4200 C   0  0  0  0  0  0  0  0  0  0  0  0
  159.5030  211.1530  155.0530 C   0  0  0  0  0  3  0  0  0  0  0  0
  162.1960  210.7450  154.4450 C   0  0  0  0  0  3  0  0  0  0  0  0
  159.8920  210.9290  153.7310 C   0  0  0  0  0  3  0  0  0  0  0  0
  162.7330  211.0000  156.7520 F   0  0  0  0  0  0  0  0  0  0  0  0
  161.7430  207.0390  149.8980 S   0  0  0  0  0  0  0  0  0  0  0  0
  162.2380  206.3520  151.5050 C   0  0  0  0  0  2  0  0  0  0  0  0
  161.6490  204.9650  151.6770 C   0  0  0  0  0  2  0  0  0  0  0  0
  160.5910  204.7100  150.6110 C   0  0  0  0  0  2  0  0  0  0  0  0
  161.3040  204.4860  147.8630 O   0  0  0  0  0  0  0  0  0  0  0  0
  160.8340  203.4500  149.9150 N   0  0  0  0  0  0  0  0  0  0  0  0
  161.1040  203.4160  148.5000 C   0  0  0  0  0  0  0  0  0  0  0  0
  161.3610  200.9330  148.6520 C   0  0  0  0  0  2  0  0  0  0  0  0
  160.4970  200.9990  149.9060 C   0  0  0  0  0  2  0  0  0  0  0  0
  160.8930  202.2260  150.7210 C   0  0  0  0  0  2  0  0  0  0  0  0
  161.0550  202.1210  147.7450 C   0  0  0  0  0  2  0  0  0  0  0  0
  1 16  1  0  0  0  0
  3 10  1  0  0  0  0
  4 24  1  6  0  0  0
  4 13  1  0  0  0  0
  5  6  1  6  0  0  0
  5  8  1  0  0  0  0
  5  9  1  0  0  0  0
  6 12  1  0  0  0  0
  7 15  2  0  0  0  0
  8  2  1  1  0  0  0
  8  3  1  0  0  0  0
  9  1  1  0  0  0  0
 10 16  1  1  0  0  0
 10 14  1  0  0  0  0
 11  1  1  0  0  0  0
 12  2  1  0  0  0  0
 13 14  1  0  0  0  0
 14 19  1  1  0  0  0
 15  3  1  0  0  0  0
 15  4  1  0  0  0  0
 17 18  1  0  0  0  0
 17 23  1  0  0  0  0
 19 22  2  0  0  0  0
 19 21  1  0  0  0  0
 20 18  2  0  0  0  0
 21 17  2  0  0  0  0
 22 20  1  0  0  0  0
 24 25  1  0  0  0  0
 25 26  1  0  0  0  0
 27 26  1  0  0  0  0
 28 30  2  0  0  0  0
 29 27  1  0  0  0  0
 29 33  1  0  0  0  0
 30 29  1  0  0  0  0
 31 32  1  0  0  0  0
 32 33  1  0  0  0  0
 34 30  1  0  0  0  0
 34 31  1  0  0  0  0
M  END
>  <MODEL>
2

>  <REMARK>
 VINA RESULT:      -6.1      2.978      5.349
  Name = 
  6 active torsions:
  status: ('A' for Active; 'I' for Inactive)
    1  A    between atoms: C_3  and  N_13
    2  A    between atoms: C_3  and  C_17
    3  A    between atoms: C_5  and  S_18
    4  A    between atoms: C_12  and  C_28
    5  A    between atoms: C_17  and  C_29
    6  A    between atoms: S_18  and  C_29
                            x       y       z     vdW  Elec       q    Type
                         _______ _______ _______ _____ _____    ______ ____

>  <TORSDO>
F 6

$$$$
=
 OpenBabel11062408023D

 34 38  0  0  1  0  0  0  0  0999 V2000
  156.5110  210.3840  155.7950 N   0  0  0  0  0  0  0  0  0  0  0  0
  158.0410  213.6950  155.7120 O   0  0  0  0  0  0  0  0  0  0  0  0
  158.1800  212.0590  153.9720 N   0  0  0  0  0  0  0  0  0  0  0  0
  160.2920  211.7680  152.5670 C   0  0  2  0  0  3  0  0  0  0  0  0
  155.9710  212.7460  155.0540 C   0  0  1  0  0  3  0  0  0  0  0  0
  155.6680  214.0190  155.7920 C   0  0  0  0  0  2  0  0  0  0  0  0
  158.6260  213.4530  152.1430 O   0  0  0  0  0  0  0  0  0  0  0  0
  157.3850  213.0970  154.6370 C   0  0  1  0  0  3  0  0  0  0  0  0
  155.8350  211.6370  156.1090 C   0  0  0  0  0  2  0  0  0  0  0  0
  158.3840  210.7130  154.5050 C   0  0  1  0  0  3  0  0  0  0  0  0
  155.9270  209.7070  154.6270 C   0  0  0  0  0  1  0  0  0  0  0  0
  157.0330  214.4530  156.3400 C   0  0  0  0  0  2  0  0  0  0  0  0
  160.3150  210.3930  153.0710 N   0  0  0  0  0  2  0  0  0  0  0  0
  159.8730  210.3730  154.4630 C   0  0  2  0  0  3  0  0  0  0  0  0
  158.9700  212.4550  152.8340 C   0  0  0  0  0  0  0  0  0  0  0  0
  157.8730  210.5730  155.8120 O   0  0  0  0  0  0  0  0  0  0  0  0
  160.8000  206.7130  154.9570 C   0  0  0  0  0  0  0  0  0  0  0  0
  160.7150  206.6070  156.3490 C   0  0  0  0  0  3  0  0  0  0  0  0
  160.1820  209.0550  155.0950 C   0  0  0  0  0  0  0  0  0  0  0  0
  160.3570  207.7220  157.1090 C   0  0  0  0  0  3  0  0  0  0  0  0
  160.5320  207.9320  154.3310 C   0  0  0  0  0  3  0  0  0  0  0  0
  160.0910  208.9420  156.4850 C   0  0  0  0  0  3  0  0  0  0  0  0
  161.1510  205.6330  154.2190 F   0  0  0  0  0  0  0  0  0  0  0  0
  160.7450  211.7830  150.7930 S   0  0  0  0  0  0  0  0  0  0  0  0
  162.1150  210.6060  150.9880 C   0  0  0  0  0  2  0  0  0  0  0  0
  161.5830  209.1850  150.9610 C   0  0  0  0  0  2  0  0  0  0  0  0
  161.7310  208.5980  149.5640 C   0  0  0  0  0  2  0  0  0  0  0  0
  161.7330  206.9440  147.2460 O   0  0  0  0  0  0  0  0  0  0  0  0
  161.5320  207.1510  149.5750 N   0  0  0  0  0  0  0  0  0  0  0  0
  161.4590  206.3980  148.3490 C   0  0  0  0  0  0  0  0  0  0  0  0
  161.2050  204.3080  149.6990 C   0  0  0  0  0  2  0  0  0  0  0  0
  160.6840  205.1930  150.8260 C   0  0  0  0  0  2  0  0  0  0  0  0
  161.5090  206.4740  150.8760 C   0  0  0  0  0  2  0  0  0  0  0  0
  160.9620  204.9820  148.3520 C   0  0  0  0  0  2  0  0  0  0  0  0
  1 16  1  0  0  0  0
  1  9  1  0  0  0  0
  2 12  1  0  0  0  0
  3 10  1  0  0  0  0
  3  8  1  0  0  0  0
  4 24  1  6  0  0  0
  4 15  1  0  0  0  0
  4 13  1  0  0  0  0
  5  6  1  1  0  0  0
  5  9  1  0  0  0  0
  6 12  1  0  0  0  0
  7 15  2  0  0  0  0
  8  5  1  0  0  0  0
  8  2  1  1  0  0  0
 10 16  1  1  0  0  0
 11  1  1  0  0  0  0
 13 14  1  0  0  0  0
 14 10  1  0  0  0  0
 14 19  1  6  0  0  0
 15  3  1  0  0  0  0
 17 18  1  0  0  0  0
 18 20  2  0  0  0  0
 19 22  2  0  0  0  0
 21 17  2  0  0  0  0
 21 19  1  0  0  0  0
 22 20  1  0  0  0  0
 23 17  1  0  0  0  0
 24 25  1  0  0  0  0
 26 25  1  0  0  0  0
 27 29  1  0  0  0  0
 27 26  1  0  0  0  0
 28 30  2  0  0  0  0
 29 33  1  0  0  0  0
 30 34  1  0  0  0  0
 30 29  1  0  0  0  0
 31 32  1  0  0  0  0
 32 33  1  0  0  0  0
 34 31  1  0  0  0  0
M  END
>  <MODEL>
3

>  <REMARK>
 VINA RESULT:      -4.9      3.158      5.502
  Name = 
  6 active torsions:
  status: ('A' for Active; 'I' for Inactive)
    1  A    between atoms: C_3  and  N_13
    2  A    between atoms: C_3  and  C_17
    3  A    between atoms: C_5  and  S_18
    4  A    between atoms: C_12  and  C_28
    5  A    between atoms: C_17  and  C_29
    6  A    between atoms: S_18  and  C_29
                            x       y       z     vdW  Elec       q    Type
                         _______ _______ _______ _____ _____    ______ ____

>  <TORSDO>
F 6

$$$$
