=
 OpenBabel11052422423D

 31 33  0  0  1  0  0  0  0  0999 V2000
  160.7860  203.9680  150.7860 C   0  0  0  0  0  0  0  0  0  0  0  0
  162.1140  207.4180  149.8930 C   0  0  2  0  0  3  0  0  0  0  0  0
  161.6460  207.7100  148.4970 C   0  0  1  0  0  3  0  0  0  0  0  0
  161.5410  206.2640  150.6460 C   0  0  0  0  0  0  0  0  0  0  0  0
  160.7280  204.0710  152.1800 C   0  0  0  0  0  3  0  0  0  0  0  0
  162.4440  208.6980  151.8640 N   0  0  0  0  0  0  0  0  0  0  0  0
  160.3460  202.4680  150.0020 Cl  0  0  0  0  0  0  0  0  0  0  0  0
  162.1380  209.6750  149.5320 C   0  0  2  0  0  3  0  0  0  0  0  0
  161.8430  207.6750  152.7500 C   0  0  0  0  0  2  0  0  0  0  0  0
  161.7280  208.6660  150.5840 C   0  0  1  0  0  3  0  0  0  0  0  0
  161.2040  205.0590  150.0180 C   0  0  0  0  0  3  0  0  0  0  0  0
  161.5170  206.3600  152.0550 C   0  0  0  0  0  0  0  0  0  0  0  0
  161.0910  205.2650  152.8130 C   0  0  0  0  0  3  0  0  0  0  0  0
  161.3060  210.9360  149.6580 C   0  0  0  0  0  1  0  0  0  0  0  0
  161.9010  209.0840  148.2660 O   0  0  0  0  0  0  0  0  0  0  0  0
  162.3970  206.9050  147.5460 N   0  0  0  0  0  2  0  0  0  0  0  0
  161.4380  206.3070  146.6310 C   0  0  0  0  0  2  0  0  0  0  0  0
  162.1510  205.4920  145.6070 C   0  0  0  0  0  0  0  0  0  0  0  0
  163.3250  204.8300  145.9410 O   0  0  0  0  0  1  0  0  0  0  0  0
  161.6720  205.3750  144.4490 O   0  0  0  0  0  0  0  0  0  0  0  0
  162.2070  209.9840  152.5090 C   0  0  0  0  0  2  0  0  0  0  0  0
  162.2130  210.1240  155.4570 C   0  0  0  0  0  1  0  0  0  0  0  0
  159.8450  209.8520  152.6820 O   0  0  0  0  0  0  0  0  0  0  0  0
  160.9400  209.9300  153.3000 C   0  0  0  0  0  0  0  0  0  0  0  0
  160.9650  209.9150  154.7420 N   0  0  0  0  0  0  0  0  0  0  0  0
  159.8040  208.2670  156.1430 C   0  0  0  0  0  1  0  0  0  0  0  0
  159.7690  209.6640  155.5480 C   0  0  1  0  0  3  0  0  0  0  0  0
  159.6020  210.7050  156.6500 C   0  0  0  0  0  2  0  0  0  0  0  0
  158.6890  211.8370  156.2070 C   0  0  1  0  0  3  0  0  0  0  0  0
  159.5330  213.0040  155.7420 C   0  0  0  0  0  1  0  0  0  0  0  0
  157.8760  211.4120  155.1540 O   0  0  0  0  0  1  0  0  0  0  0  0
  1  5  1  0  0  0  0
  2 10  1  0  0  0  0
  2  4  1  1  0  0  0
  3 16  1  6  0  0  0
  3  2  1  0  0  0  0
  4 12  2  0  0  0  0
  5 13  2  0  0  0  0
  6 21  1  0  0  0  0
  6  9  1  0  0  0  0
  7  1  1  0  0  0  0
  8 14  1  6  0  0  0
  8 10  1  0  0  0  0
 10  6  1  1  0  0  0
 11  4  1  0  0  0  0
 11  1  2  0  0  0  0
 12  9  1  0  0  0  0
 12 13  1  0  0  0  0
 15  3  1  0  0  0  0
 15  8  1  0  0  0  0
 17 16  1  0  0  0  0
 18 19  1  0  0  0  0
 18 17  1  0  0  0  0
 20 18  2  0  0  0  0
 21 24  1  0  0  0  0
 23 24  2  0  0  0  0
 24 25  1  0  0  0  0
 25 22  1  0  0  0  0
 25 27  1  0  0  0  0
 27 26  1  1  0  0  0
 27 28  1  0  0  0  0
 29 30  1  6  0  0  0
 29 28  1  0  0  0  0
 31 29  1  0  0  0  0
M  END
>  <MODEL>
1

>  <REMARK>
 VINA RESULT:      -7.4      0.000      0.000
  Name = 
  8 active torsions:
  status: ('A' for Active; 'I' for Inactive)
    1  A    between atoms: C_1  and  C_24
    2  A    between atoms: C_5  and  N_14
    3  A    between atoms: C_9  and  C_23
    4  A    between atoms: C_10  and  N_14
    5  A    between atoms: C_10  and  C_18
    6  A    between atoms: N_15  and  C_23
    7  A    between atoms: C_19  and  N_22
    8  A    between atoms: C_19  and  C_24
                            x       y       z     vdW  Elec       q    Type
                         _______ _______ _______ _____ _____    ______ ____

>  <TORSDO>
F 8

$$$$
=
 OpenBabel11052422423D

 31 33  0  0  1  0  0  0  0  0999 V2000
  161.5640  204.6890  146.7170 C   0  0  0  0  0  0  0  0  0  0  0  0
  160.9160  205.2970  150.4150 C   0  0  2  0  0  3  0  0  0  0  0  0
  161.2650  204.0210  151.1270 C   0  0  1  0  0  3  0  0  0  0  0  0
  161.3120  205.4860  148.9890 C   0  0  0  0  0  0  0  0  0  0  0  0
  161.8100  205.9970  146.2840 C   0  0  0  0  0  3  0  0  0  0  0  0
  161.1110  207.6100  150.9060 N   0  0  0  0  0  0  0  0  0  0  0  0
  161.5700  203.3720  145.5660 Cl  0  0  0  0  0  0  0  0  0  0  0  0
  161.3380  205.7380  152.6170 C   0  0  2  0  0  3  0  0  0  0  0  0
  161.5790  207.9620  149.5460 C   0  0  0  0  0  2  0  0  0  0  0  0
  161.6440  206.2840  151.2390 C   0  0  1  0  0  3  0  0  0  0  0  0
  161.3020  204.4340  148.0670 C   0  0  0  0  0  3  0  0  0  0  0  0
  161.5260  206.8120  148.5500 C   0  0  0  0  0  0  0  0  0  0  0  0
  161.7930  207.0550  147.1980 C   0  0  0  0  0  3  0  0  0  0  0  0
  162.4330  206.1260  153.5930 C   0  0  0  0  0  1  0  0  0  0  0  0
  161.2880  204.3260  152.5100 O   0  0  0  0  0  0  0  0  0  0  0  0
  160.2490  203.0150  150.8620 N   0  0  0  0  0  2  0  0  0  0  0  0
  160.9370  201.7680  150.5690 C   0  0  0  0  0  2  0  0  0  0  0  0
  160.5250  201.2610  149.2300 C   0  0  0  0  0  0  0  0  0  0  0  0
  161.4410  200.5880  148.4320 O   0  0  0  0  0  0  0  0  0  0  0  0
  159.3390  201.4090  148.8370 O   0  0  0  0  0  1  0  0  0  0  0  0
  161.6980  208.5970  151.8050 C   0  0  0  0  0  2  0  0  0  0  0  0
  160.8100  211.3730  151.3420 C   0  0  0  0  0  1  0  0  0  0  0  0
  160.0780  208.5380  153.5360 O   0  0  0  0  0  0  0  0  0  0  0  0
  160.6280  209.2280  152.6370 C   0  0  0  0  0  0  0  0  0  0  0  0
  160.2640  210.6110  152.4530 N   0  0  0  0  0  0  0  0  0  0  0  0
  160.1600  211.9860  154.4850 C   0  0  0  0  0  1  0  0  0  0  0  0
  159.3700  211.3180  153.3720 C   0  0  1  0  0  3  0  0  0  0  0  0
  158.5100  212.3450  152.6430 C   0  0  0  0  0  2  0  0  0  0  0  0
  157.5650  213.0530  153.6010 C   0  0  1  0  0  3  0  0  0  0  0  0
  156.6870  214.0070  152.8200 C   0  0  0  0  0  1  0  0  0  0  0  0
  156.7590  212.1200  154.2550 O   0  0  0  0  0  1  0  0  0  0  0  0
  1 11  1  0  0  0  0
  2  4  1  6  0  0  0
  2  3  1  0  0  0  0
  2 10  1  0  0  0  0
  3 16  1  1  0  0  0
  3 15  1  0  0  0  0
  5  1  2  0  0  0  0
  5 13  1  0  0  0  0
  6 21  1  0  0  0  0
  7  1  1  0  0  0  0
  8 14  1  1  0  0  0
  9  6  1  0  0  0  0
 10  6  1  1  0  0  0
 10  8  1  0  0  0  0
 11  4  2  0  0  0  0
 12  4  1  0  0  0  0
 12  9  1  0  0  0  0
 13 12  2  0  0  0  0
 15  8  1  0  0  0  0
 17 16  1  0  0  0  0
 18 17  1  0  0  0  0
 19 18  2  0  0  0  0
 20 18  1  0  0  0  0
 21 24  1  0  0  0  0
 22 25  1  0  0  0  0
 24 23  2  0  0  0  0
 25 24  1  0  0  0  0
 25 27  1  0  0  0  0
 27 26  1  1  0  0  0
 28 27  1  0  0  0  0
 28 29  1  0  0  0  0
 29 30  1  6  0  0  0
 29 31  1  0  0  0  0
M  END
>  <MODEL>
2

>  <REMARK>
 VINA RESULT:      -7.4      2.808      4.267
  Name = 
  8 active torsions:
  status: ('A' for Active; 'I' for Inactive)
    1  A    between atoms: C_1  and  C_24
    2  A    between atoms: C_5  and  N_14
    3  A    between atoms: C_9  and  C_23
    4  A    between atoms: C_10  and  N_14
    5  A    between atoms: C_10  and  C_18
    6  A    between atoms: N_15  and  C_23
    7  A    between atoms: C_19  and  N_22
    8  A    between atoms: C_19  and  C_24
                            x       y       z     vdW  Elec       q    Type
                         _______ _______ _______ _____ _____    ______ ____

>  <TORSDO>
F 8

$$$$
=
 OpenBabel11052422423D

 31 33  0  0  1  0  0  0  0  0999 V2000
  160.9030  203.8780  151.1650 C   0  0  0  0  0  0  0  0  0  0  0  0
  162.1930  207.1210  149.6550 C   0  0  2  0  0  3  0  0  0  0  0  0
  161.8190  207.0960  148.2010 C   0  0  1  0  0  3  0  0  0  0  0  0
  161.6010  206.1240  150.5940 C   0  0  0  0  0  0  0  0  0  0  0  0
  160.7420  204.2650  152.4990 C   0  0  0  0  0  3  0  0  0  0  0  0
  162.3430  208.7950  151.3300 N   0  0  0  0  0  0  0  0  0  0  0  0
  160.5650  202.2290  150.6870 Cl  0  0  0  0  0  0  0  0  0  0  0  0
  162.1790  209.2520  148.8300 C   0  0  2  0  0  3  0  0  0  0  0  0
  161.7090  207.9530  152.3700 C   0  0  0  0  0  2  0  0  0  0  0  0
  161.7220  208.4670  150.0410 C   0  0  1  0  0  3  0  0  0  0  0  0
  161.3440  204.8020  150.2140 C   0  0  0  0  0  3  0  0  0  0  0  0
  161.4720  206.5100  151.9470 C   0  0  0  0  0  0  0  0  0  0  0  0
  161.0230  205.5790  152.8890 C   0  0  0  0  0  3  0  0  0  0  0  0
  161.3040  210.4750  148.6340 C   0  0  0  0  0  1  0  0  0  0  0  0
  162.0510  208.4020  147.7040 O   0  0  0  0  0  0  0  0  0  0  0  0
  162.6600  206.1440  147.4920 N   0  0  0  0  0  2  0  0  0  0  0  0
  162.0890  205.9630  146.1670 C   0  0  0  0  0  2  0  0  0  0  0  0
  161.6340  204.5540  145.9950 C   0  0  0  0  0  0  0  0  0  0  0  0
  161.7230  203.6620  147.0560 O   0  0  0  0  0  1  0  0  0  0  0  0
  161.1390  204.1800  144.9010 O   0  0  0  0  0  0  0  0  0  0  0  0
  162.0220  210.1750  151.6730 C   0  0  0  0  0  2  0  0  0  0  0  0
  159.3900  210.7940  152.8560 C   0  0  0  0  0  1  0  0  0  0  0  0
  162.8280  210.1090  153.9030 O   0  0  0  0  0  0  0  0  0  0  0  0
  161.8350  210.3020  153.1510 C   0  0  0  0  0  0  0  0  0  0  0  0
  160.5620  210.6860  153.7080 N   0  0  0  0  0  0  0  0  0  0  0  0
  159.9400  212.4550  155.2930 C   0  0  0  0  0  1  0  0  0  0  0  0
  160.3890  211.0140  155.1240 C   0  0  1  0  0  3  0  0  0  0  0  0
  159.4050  210.0690  155.8060 C   0  0  0  0  0  2  0  0  0  0  0  0
  160.1310  208.9940  156.6000 C   0  0  1  0  0  3  0  0  0  0  0  0
  160.1030  207.6970  155.8210 C   0  0  0  0  0  1  0  0  0  0  0  0
  161.4580  209.3710  156.8140 O   0  0  0  0  0  1  0  0  0  0  0  0
  1  5  1  0  0  0  0
  2 10  1  0  0  0  0
  2  4  1  1  0  0  0
  3 16  1  6  0  0  0
  3  2  1  0  0  0  0
  4 12  2  0  0  0  0
  5 13  2  0  0  0  0
  6 21  1  0  0  0  0
  6  9  1  0  0  0  0
  7  1  1  0  0  0  0
  8 14  1  6  0  0  0
  8 10  1  0  0  0  0
 10  6  1  1  0  0  0
 11  4  1  0  0  0  0
 11  1  2  0  0  0  0
 12  9  1  0  0  0  0
 12 13  1  0  0  0  0
 15  3  1  0  0  0  0
 15  8  1  0  0  0  0
 17 16  1  0  0  0  0
 18 17  1  0  0  0  0
 18 19  1  0  0  0  0
 20 18  2  0  0  0  0
 21 24  1  0  0  0  0
 22 25  1  0  0  0  0
 24 25  1  0  0  0  0
 24 23  2  0  0  0  0
 25 27  1  0  0  0  0
 27 26  1  6  0  0  0
 27 28  1  0  0  0  0
 28 29  1  0  0  0  0
 29 30  1  6  0  0  0
 29 31  1  0  0  0  0
M  END
>  <MODEL>
3

>  <REMARK>
 VINA RESULT:      -7.0      1.366      2.007
  Name = 
  8 active torsions:
  status: ('A' for Active; 'I' for Inactive)
    1  A    between atoms: C_1  and  C_24
    2  A    between atoms: C_5  and  N_14
    3  A    between atoms: C_9  and  C_23
    4  A    between atoms: C_10  and  N_14
    5  A    between atoms: C_10  and  C_18
    6  A    between atoms: N_15  and  C_23
    7  A    between atoms: C_19  and  N_22
    8  A    between atoms: C_19  and  C_24
                            x       y       z     vdW  Elec       q    Type
                         _______ _______ _______ _____ _____    ______ ____

>  <TORSDO>
F 8

$$$$
=
 OpenBabel11052422423D

 31 33  0  0  1  0  0  0  0  0999 V2000
  162.1510  206.9640  148.4100 C   0  0  0  0  0  0  0  0  0  0  0  0
  160.8500  206.8860  151.9820 C   0  0  2  0  0  3  0  0  0  0  0  0
  161.2200  205.5440  152.5450 C   0  0  1  0  0  3  0  0  0  0  0  0
  161.4470  207.3450  150.6940 C   0  0  0  0  0  0  0  0  0  0  0  0
  162.3150  208.3410  148.2290 C   0  0  0  0  0  3  0  0  0  0  0  0
  160.7020  209.0930  152.8430 N   0  0  0  0  0  0  0  0  0  0  0  0
  162.4910  205.8640  147.0930 Cl  0  0  0  0  0  0  0  0  0  0  0  0
  160.8580  206.9860  154.2660 C   0  0  2  0  0  3  0  0  0  0  0  0
  161.3410  209.7060  151.6560 C   0  0  0  0  0  2  0  0  0  0  0  0
  161.3200  207.7800  153.0620 C   0  0  1  0  0  3  0  0  0  0  0  0
  161.7050  206.4650  149.6370 C   0  0  0  0  0  3  0  0  0  0  0  0
  161.5800  208.7380  150.5050 C   0  0  0  0  0  0  0  0  0  0  0  0
  162.0320  209.2270  149.2750 C   0  0  0  0  0  3  0  0  0  0  0  0
  161.7300  207.2970  155.4670 C   0  0  0  0  0  1  0  0  0  0  0  0
  160.9850  205.6140  153.9400 O   0  0  0  0  0  0  0  0  0  0  0  0
  160.3800  204.5140  151.9550 N   0  0  0  0  0  2  0  0  0  0  0  0
  161.1840  203.3070  151.8430 C   0  0  0  0  0  2  0  0  0  0  0  0
  160.9390  202.6510  150.5290 C   0  0  0  0  0  0  0  0  0  0  0  0
  161.1720  201.2900  150.3790 O   0  0  0  0  0  1  0  0  0  0  0  0
  160.4900  203.3210  149.5630 O   0  0  0  0  0  0  0  0  0  0  0  0
  161.0210  209.9610  153.9690 C   0  0  0  0  0  2  0  0  0  0  0  0
  159.7980  212.4780  153.0310 C   0  0  0  0  0  1  0  0  0  0  0  0
  159.2020  209.8310  155.4860 O   0  0  0  0  0  0  0  0  0  0  0  0
  159.7620  210.4950  154.5730 C   0  0  0  0  0  0  0  0  0  0  0  0
  159.2230  211.7670  154.1610 N   0  0  0  0  0  0  0  0  0  0  0  0
  158.2230  213.9280  154.7630 C   0  0  0  0  0  1  0  0  0  0  0  0
  158.1130  212.4160  154.8610 C   0  0  1  0  0  3  0  0  0  0  0  0
  156.7610  211.9480  154.3310 C   0  0  0  0  0  2  0  0  0  0  0  0
  155.8330  211.5440  155.4660 C   0  0  1  0  0  3  0  0  0  0  0  0
  155.2870  210.1590  155.1930 C   0  0  0  0  0  1  0  0  0  0  0  0
  156.5310  211.5310  156.6740 O   0  0  0  0  0  1  0  0  0  0  0  0
  1 11  1  0  0  0  0
  2  4  1  6  0  0  0
  2  3  1  0  0  0  0
  2 10  1  0  0  0  0
  3 16  1  6  0  0  0
  3 15  1  0  0  0  0
  5  1  2  0  0  0  0
  5 13  1  0  0  0  0
  6 21  1  0  0  0  0
  7  1  1  0  0  0  0
  8 14  1  1  0  0  0
  9  6  1  0  0  0  0
 10  6  1  6  0  0  0
 10  8  1  0  0  0  0
 11  4  2  0  0  0  0
 12  4  1  0  0  0  0
 12  9  1  0  0  0  0
 13 12  2  0  0  0  0
 15  8  1  0  0  0  0
 17 16  1  0  0  0  0
 18 17  1  0  0  0  0
 19 18  1  0  0  0  0
 20 18  2  0  0  0  0
 21 24  1  0  0  0  0
 22 25  1  0  0  0  0
 24 23  2  0  0  0  0
 25 24  1  0  0  0  0
 25 27  1  0  0  0  0
 27 26  1  6  0  0  0
 28 27  1  0  0  0  0
 28 29  1  0  0  0  0
 29 30  1  6  0  0  0
 29 31  1  0  0  0  0
M  END
>  <MODEL>
4

>  <REMARK>
 VINA RESULT:      -6.9      2.643      4.380
  Name = 
  8 active torsions:
  status: ('A' for Active; 'I' for Inactive)
    1  A    between atoms: C_1  and  C_24
    2  A    between atoms: C_5  and  N_14
    3  A    between atoms: C_9  and  C_23
    4  A    between atoms: C_10  and  N_14
    5  A    between atoms: C_10  and  C_18
    6  A    between atoms: N_15  and  C_23
    7  A    between atoms: C_19  and  N_22
    8  A    between atoms: C_19  and  C_24
                            x       y       z     vdW  Elec       q    Type
                         _______ _______ _______ _____ _____    ______ ____

>  <TORSDO>
F 8

$$$$
=
 OpenBabel11052422423D

 31 33  0  0  1  0  0  0  0  0999 V2000
  160.9540  207.0490  154.7070 C   0  0  0  0  0  0  0  0  0  0  0  0
  160.8510  208.9120  151.3940 C   0  0  2  0  0  3  0  0  0  0  0  0
  161.2290  210.3350  151.6890 C   0  0  1  0  0  3  0  0  0  0  0  0
  161.0570  207.8560  152.4270 C   0  0  0  0  0  0  0  0  0  0  0  0
  161.2050  205.7480  154.2600 C   0  0  0  0  0  3  0  0  0  0  0  0
  161.2290  207.4050  149.6010 N   0  0  0  0  0  0  0  0  0  0  0  0
  160.7350  207.3580  156.4150 Cl  0  0  0  0  0  0  0  0  0  0  0  0
  161.5930  209.9220  149.4820 C   0  0  2  0  0  3  0  0  0  0  0  0
  161.5230  206.2600  150.4930 C   0  0  0  0  0  2  0  0  0  0  0  0
  161.7350  208.6220  150.2450 C   0  0  1  0  0  3  0  0  0  0  0  0
  160.8680  208.1020  153.7920 C   0  0  0  0  0  3  0  0  0  0  0  0
  161.2760  206.5380  151.9690 C   0  0  0  0  0  0  0  0  0  0  0  0
  161.3680  205.4930  152.8940 C   0  0  0  0  0  3  0  0  0  0  0  0
  162.8290  210.1780  148.6420 C   0  0  0  0  0  1  0  0  0  0  0  0
  161.4570  210.9590  150.4380 O   0  0  0  0  0  0  0  0  0  0  0  0
  160.1360  211.0020  152.3790 N   0  0  0  0  0  2  0  0  0  0  0  0
  160.0760  212.3670  151.8830 C   0  0  0  0  0  2  0  0  0  0  0  0
  158.6580  212.8090  151.7730 C   0  0  0  0  0  0  0  0  0  0  0  0
  157.8180  212.7250  152.8760 O   0  0  0  0  0  1  0  0  0  0  0  0
  158.2280  213.2900  150.6920 O   0  0  0  0  0  0  0  0  0  0  0  0
  161.9830  207.1680  148.3750 C   0  0  0  0  0  2  0  0  0  0  0  0
  163.1850  204.9920  146.7830 C   0  0  0  0  0  1  0  0  0  0  0  0
  159.9350  206.5800  147.3340 O   0  0  0  0  0  0  0  0  0  0  0  0
  161.1700  206.3480  147.4270 C   0  0  0  0  0  0  0  0  0  0  0  0
  161.7870  205.3440  146.5960 N   0  0  0  0  0  0  0  0  0  0  0  0
  161.2110  205.4190  144.2100 C   0  0  0  0  0  1  0  0  0  0  0  0
  161.0670  204.6620  145.5190 C   0  0  1  0  0  3  0  0  0  0  0  0
  161.5360  203.2210  145.3510 C   0  0  0  0  0  2  0  0  0  0  0  0
  160.5570  202.2430  145.9830 C   0  0  1  0  0  3  0  0  0  0  0  0
  160.0340  201.3040  144.9180 C   0  0  0  0  0  1  0  0  0  0  0  0
  161.1980  201.5000  146.9750 O   0  0  0  0  0  1  0  0  0  0  0  0
  1  7  1  0  0  0  0
  2  3  1  0  0  0  0
  2  4  1  1  0  0  0
  3 16  1  6  0  0  0
  4 11  1  0  0  0  0
  5  1  1  0  0  0  0
  6  9  1  0  0  0  0
  8 14  1  1  0  0  0
  8 10  1  0  0  0  0
  8 15  1  0  0  0  0
  9 12  1  0  0  0  0
 10  6  1  6  0  0  0
 10  2  1  0  0  0  0
 11  1  2  0  0  0  0
 12  4  2  0  0  0  0
 12 13  1  0  0  0  0
 13  5  2  0  0  0  0
 15  3  1  0  0  0  0
 17 16  1  0  0  0  0
 18 17  1  0  0  0  0
 18 19  1  0  0  0  0
 20 18  2  0  0  0  0
 21  6  1  0  0  0  0
 23 24  2  0  0  0  0
 24 21  1  0  0  0  0
 25 22  1  0  0  0  0
 25 24  1  0  0  0  0
 27 26  1  6  0  0  0
 27 25  1  0  0  0  0
 28 27  1  0  0  0  0
 28 29  1  0  0  0  0
 29 30  1  6  0  0  0
 29 31  1  0  0  0  0
M  END
>  <MODEL>
5

>  <REMARK>
 VINA RESULT:      -6.5      2.745      8.129
  Name = 
  8 active torsions:
  status: ('A' for Active; 'I' for Inactive)
    1  A    between atoms: C_1  and  C_24
    2  A    between atoms: C_5  and  N_14
    3  A    between atoms: C_9  and  C_23
    4  A    between atoms: C_10  and  N_14
    5  A    between atoms: C_10  and  C_18
    6  A    between atoms: N_15  and  C_23
    7  A    between atoms: C_19  and  N_22
    8  A    between atoms: C_19  and  C_24
                            x       y       z     vdW  Elec       q    Type
                         _______ _______ _______ _____ _____    ______ ____

>  <TORSDO>
F 8

$$$$
=
 OpenBabel11052422423D

 31 33  0  0  1  0  0  0  0  0999 V2000
  161.3900  205.5990  146.0380 C   0  0  0  0  0  0  0  0  0  0  0  0
  160.8190  203.3580  149.0570 C   0  0  2  0  0  3  0  0  0  0  0  0
  161.3800  202.0110  148.7040 C   0  0  1  0  0  3  0  0  0  0  0  0
  161.1220  204.5400  148.1980 C   0  0  0  0  0  0  0  0  0  0  0  0
  161.4240  206.8540  146.6550 C   0  0  0  0  0  3  0  0  0  0  0  0
  160.6950  204.6690  151.0310 N   0  0  0  0  0  0  0  0  0  0  0  0
  161.5400  205.4770  144.2990 Cl  0  0  0  0  0  0  0  0  0  0  0  0
  161.2650  202.1880  150.9680 C   0  0  2  0  0  3  0  0  0  0  0  0
  161.0480  205.9290  150.3370 C   0  0  0  0  0  2  0  0  0  0  0  0
  161.4300  203.5750  150.3850 C   0  0  1  0  0  3  0  0  0  0  0  0
  161.2270  204.4420  146.8060 C   0  0  0  0  0  3  0  0  0  0  0  0
  161.1220  205.8080  148.8210 C   0  0  0  0  0  0  0  0  0  0  0  0
  161.2930  206.9580  148.0440 C   0  0  0  0  0  3  0  0  0  0  0  0
  162.3320  201.9260  152.0140 C   0  0  0  0  0  1  0  0  0  0  0  0
  161.4170  201.2630  149.9060 O   0  0  0  0  0  0  0  0  0  0  0  0
  160.5110  201.3520  147.7410 N   0  0  0  0  0  2  0  0  0  0  0  0
  161.2060  200.1660  147.2680 C   0  0  0  0  0  2  0  0  0  0  0  0
  160.8610  199.9070  145.8420 C   0  0  0  0  0  0  0  0  0  0  0  0
  161.1840  198.6880  145.2600 O   0  0  0  0  0  1  0  0  0  0  0  0
  160.2460  200.7780  145.1740 O   0  0  0  0  0  0  0  0  0  0  0  0
  161.1700  204.8140  152.4020 C   0  0  0  0  0  2  0  0  0  0  0  0
  160.1640  206.6050  154.5220 C   0  0  0  0  0  1  0  0  0  0  0  0
  162.6780  206.5640  151.8640 O   0  0  0  0  0  0  0  0  0  0  0  0
  161.7310  206.1850  152.6040 C   0  0  0  0  0  0  0  0  0  0  0  0
  161.1740  207.0780  153.5890 N   0  0  0  0  0  0  0  0  0  0  0  0
  160.9190  209.2960  152.5670 C   0  0  0  0  0  1  0  0  0  0  0  0
  161.5590  208.4870  153.6830 C   0  0  1  0  0  3  0  0  0  0  0  0
  161.2010  209.0810  155.0410 C   0  0  0  0  0  2  0  0  0  0  0  0
  160.4330  210.3850  154.8880 C   0  0  1  0  0  3  0  0  0  0  0  0
  159.1610  210.3120  155.7060 C   0  0  0  0  0  1  0  0  0  0  0  0
  161.2080  211.4530  155.3410 O   0  0  0  0  0  1  0  0  0  0  0  0
  1  5  2  0  0  0  0
  1 11  1  0  0  0  0
  2  4  1  6  0  0  0
  2 10  1  0  0  0  0
  3 16  1  6  0  0  0
  3  2  1  0  0  0  0
  3 15  1  0  0  0  0
  4 12  1  0  0  0  0
  5 13  1  0  0  0  0
  6 21  1  0  0  0  0
  7  1  1  0  0  0  0
  8 14  1  1  0  0  0
  9  6  1  0  0  0  0
 10  8  1  0  0  0  0
 10  6  1  1  0  0  0
 11  4  2  0  0  0  0
 12  9  1  0  0  0  0
 13 12  2  0  0  0  0
 15  8  1  0  0  0  0
 17 16  1  0  0  0  0
 18 17  1  0  0  0  0
 19 18  1  0  0  0  0
 20 18  2  0  0  0  0
 21 24  1  0  0  0  0
 23 24  2  0  0  0  0
 24 25  1  0  0  0  0
 25 27  1  0  0  0  0
 25 22  1  0  0  0  0
 27 26  1  6  0  0  0
 27 28  1  0  0  0  0
 29 28  1  0  0  0  0
 29 31  1  0  0  0  0
 29 30  1  1  0  0  0
M  END
>  <MODEL>
6

>  <REMARK>
 VINA RESULT:      -6.3      3.320      5.077
  Name = 
  8 active torsions:
  status: ('A' for Active; 'I' for Inactive)
    1  A    between atoms: C_1  and  C_24
    2  A    between atoms: C_5  and  N_14
    3  A    between atoms: C_9  and  C_23
    4  A    between atoms: C_10  and  N_14
    5  A    between atoms: C_10  and  C_18
    6  A    between atoms: N_15  and  C_23
    7  A    between atoms: C_19  and  N_22
    8  A    between atoms: C_19  and  C_24
                            x       y       z     vdW  Elec       q    Type
                         _______ _______ _______ _____ _____    ______ ____

>  <TORSDO>
F 8

$$$$
=
 OpenBabel11052422423D

 31 33  0  0  1  0  0  0  0  0999 V2000
  160.4970  207.7820  154.6040 C   0  0  0  0  0  0  0  0  0  0  0  0
  161.7060  206.9320  151.1000 C   0  0  2  0  0  3  0  0  0  0  0  0
  161.1320  205.5870  150.7620 C   0  0  1  0  0  3  0  0  0  0  0  0
  161.2070  207.6780  152.2920 C   0  0  0  0  0  0  0  0  0  0  0  0
  160.5410  209.1790  154.5560 C   0  0  0  0  0  3  0  0  0  0  0  0
  162.1640  208.9230  149.8920 N   0  0  0  0  0  0  0  0  0  0  0  0
  160.0220  206.9730  156.0810 Cl  0  0  0  0  0  0  0  0  0  0  0  0
  161.6720  206.6610  148.8310 C   0  0  2  0  0  3  0  0  0  0  0  0
  161.6450  209.8090  150.9590 C   0  0  0  0  0  2  0  0  0  0  0  0
  161.3550  207.6990  149.8860 C   0  0  1  0  0  3  0  0  0  0  0  0
  160.8410  207.0290  153.4770 C   0  0  0  0  0  3  0  0  0  0  0  0
  161.2860  209.0880  152.2510 C   0  0  0  0  0  0  0  0  0  0  0  0
  160.9330  209.8310  153.3820 C   0  0  0  0  0  3  0  0  0  0  0  0
  160.8340  206.8980  147.5900 C   0  0  0  0  0  1  0  0  0  0  0  0
  161.3500  205.3930  149.3760 O   0  0  0  0  0  0  0  0  0  0  0  0
  161.8210  204.5520  151.5170 N   0  0  0  0  0  2  0  0  0  0  0  0
  160.8400  203.5340  151.8560 C   0  0  0  0  0  2  0  0  0  0  0  0
  160.9190  202.4070  150.8850 C   0  0  0  0  0  0  0  0  0  0  0  0
  160.0730  202.3780  149.7840 O   0  0  0  0  0  0  0  0  0  0  0  0
  161.7740  201.4970  151.0420 O   0  0  0  0  0  1  0  0  0  0  0  0
  161.9560  209.6350  148.6370 C   0  0  0  0  0  2  0  0  0  0  0  0
  160.5560  211.6770  147.0300 C   0  0  0  0  0  1  0  0  0  0  0  0
  163.0180  211.4540  149.7270 O   0  0  0  0  0  0  0  0  0  0  0  0
  162.2080  211.0950  148.8320 C   0  0  0  0  0  0  0  0  0  0  0  0
  161.5790  212.0770  147.9830 N   0  0  0  0  0  0  0  0  0  0  0  0
  162.3860  213.9610  146.6320 C   0  0  0  0  0  1  0  0  0  0  0  0
  161.9480  213.4930  148.0090 C   0  0  1  0  0  3  0  0  0  0  0  0
  160.8090  214.3640  148.5270 C   0  0  0  0  0  2  0  0  0  0  0  0
  159.9360  213.6030  149.5140 C   0  0  1  0  0  3  0  0  0  0  0  0
  160.0830  214.2220  150.8870 C   0  0  0  0  0  1  0  0  0  0  0  0
  158.5980  213.6730  149.1210 O   0  0  0  0  0  1  0  0  0  0  0  0
  1  7  1  0  0  0  0
  2  4  1  1  0  0  0
  3  2  1  0  0  0  0
  3 16  1  1  0  0  0
  4 11  1  0  0  0  0
  5  1  1  0  0  0  0
  6  9  1  0  0  0  0
  8 14  1  6  0  0  0
  8 15  1  0  0  0  0
  8 10  1  0  0  0  0
  9 12  1  0  0  0  0
 10  6  1  6  0  0  0
 10  2  1  0  0  0  0
 11  1  2  0  0  0  0
 12  4  2  0  0  0  0
 12 13  1  0  0  0  0
 13  5  2  0  0  0  0
 15  3  1  0  0  0  0
 16 17  1  0  0  0  0
 18 20  1  0  0  0  0
 18 17  1  0  0  0  0
 19 18  2  0  0  0  0
 21 24  1  0  0  0  0
 21  6  1  0  0  0  0
 22 25  1  0  0  0  0
 24 23  2  0  0  0  0
 25 27  1  0  0  0  0
 25 24  1  0  0  0  0
 27 26  1  6  0  0  0
 27 28  1  0  0  0  0
 28 29  1  0  0  0  0
 29 30  1  1  0  0  0
 31 29  1  0  0  0  0
M  END
>  <MODEL>
7

>  <REMARK>
 VINA RESULT:      -6.0      3.233      5.720
  Name = 
  8 active torsions:
  status: ('A' for Active; 'I' for Inactive)
    1  A    between atoms: C_1  and  C_24
    2  A    between atoms: C_5  and  N_14
    3  A    between atoms: C_9  and  C_23
    4  A    between atoms: C_10  and  N_14
    5  A    between atoms: C_10  and  C_18
    6  A    between atoms: N_15  and  C_23
    7  A    between atoms: C_19  and  N_22
    8  A    between atoms: C_19  and  C_24
                            x       y       z     vdW  Elec       q    Type
                         _______ _______ _______ _____ _____    ______ ____

>  <TORSDO>
F 8

$$$$
=
 OpenBabel11052422423D

 31 33  0  0  1  0  0  0  0  0999 V2000
  159.6520  210.1420  155.9650 C   0  0  0  0  0  0  0  0  0  0  0  0
  160.2150  210.3360  152.2090 C   0  0  2  0  0  3  0  0  0  0  0  0
  160.3640  211.7910  151.8710 C   0  0  1  0  0  3  0  0  0  0  0  0
  160.2520  209.8930  153.6330 C   0  0  0  0  0  0  0  0  0  0  0  0
  160.1340  208.8560  156.2280 C   0  0  0  0  0  3  0  0  0  0  0  0
  161.1820  208.3150  151.4260 N   0  0  0  0  0  0  0  0  0  0  0  0
  158.9760  211.1040  157.2610 Cl  0  0  0  0  0  0  0  0  0  0  0  0
  161.3160  210.5530  150.2180 C   0  0  2  0  0  3  0  0  0  0  0  0
  161.3490  207.7510  152.7850 C   0  0  0  0  0  2  0  0  0  0  0  0
  161.3850  209.7660  151.5090 C   0  0  1  0  0  3  0  0  0  0  0  0
  159.6990  210.6580  154.6660 C   0  0  0  0  0  3  0  0  0  0  0  0
  160.7090  208.5810  153.8890 C   0  0  0  0  0  0  0  0  0  0  0  0
  160.6630  208.0770  155.1930 C   0  0  0  0  0  3  0  0  0  0  0  0
  162.6950  210.6680  149.5960 C   0  0  0  0  0  1  0  0  0  0  0  0
  160.8400  211.8480  150.5390 O   0  0  0  0  0  0  0  0  0  0  0  0
  159.0710  212.4530  151.9600 N   0  0  0  0  0  2  0  0  0  0  0  0
  159.1760  213.7110  151.2390 C   0  0  0  0  0  2  0  0  0  0  0  0
  157.9990  213.8860  150.3430 C   0  0  0  0  0  0  0  0  0  0  0  0
  158.1460  213.7520  148.9690 O   0  0  0  0  0  0  0  0  0  0  0  0
  156.8640  214.1210  150.8330 O   0  0  0  0  0  1  0  0  0  0  0  0
  162.2420  207.7340  150.6120 C   0  0  0  0  0  2  0  0  0  0  0  0
  161.6050  204.8710  150.9470 C   0  0  0  0  0  1  0  0  0  0  0  0
  161.3900  207.5000  148.4100 O   0  0  0  0  0  0  0  0  0  0  0  0
  161.6480  206.9270  149.5020 C   0  0  0  0  0  0  0  0  0  0  0  0
  161.4200  205.5110  149.6540 N   0  0  0  0  0  0  0  0  0  0  0  0
  162.1840  204.4740  147.5640 C   0  0  0  0  0  1  0  0  0  0  0  0
  161.0300  204.6520  148.5350 C   0  0  1  0  0  3  0  0  0  0  0  0
  160.5280  203.2940  149.0140 C   0  0  0  0  0  2  0  0  0  0  0  0
  161.1000  202.1650  148.1720 C   0  0  1  0  0  3  0  0  0  0  0  0
  161.4720  201.0090  149.0760 C   0  0  0  0  0  1  0  0  0  0  0  0
  160.1520  201.7320  147.2430 O   0  0  0  0  0  1  0  0  0  0  0  0
  1  5  1  0  0  0  0
  1  7  1  0  0  0  0
  2  4  1  1  0  0  0
  3 16  1  6  0  0  0
  3  2  1  0  0  0  0
  4 12  2  0  0  0  0
  4 11  1  0  0  0  0
  6  9  1  0  0  0  0
  8 14  1  1  0  0  0
  8 15  1  0  0  0  0
  8 10  1  0  0  0  0
  9 12  1  0  0  0  0
 10  6  1  6  0  0  0
 10  2  1  0  0  0  0
 11  1  2  0  0  0  0
 12 13  1  0  0  0  0
 13  5  2  0  0  0  0
 15  3  1  0  0  0  0
 17 16  1  0  0  0  0
 18 20  1  0  0  0  0
 18 17  1  0  0  0  0
 19 18  2  0  0  0  0
 21  6  1  0  0  0  0
 23 24  2  0  0  0  0
 24 25  1  0  0  0  0
 24 21  1  0  0  0  0
 25 22  1  0  0  0  0
 27 26  1  6  0  0  0
 27 28  1  0  0  0  0
 27 25  1  0  0  0  0
 29 28  1  0  0  0  0
 29 30  1  1  0  0  0
 31 29  1  0  0  0  0
M  END
>  <MODEL>
8

>  <REMARK>
 VINA RESULT:      -5.6      3.301      7.763
  Name = 
  8 active torsions:
  status: ('A' for Active; 'I' for Inactive)
    1  A    between atoms: C_1  and  C_24
    2  A    between atoms: C_5  and  N_14
    3  A    between atoms: C_9  and  C_23
    4  A    between atoms: C_10  and  N_14
    5  A    between atoms: C_10  and  C_18
    6  A    between atoms: N_15  and  C_23
    7  A    between atoms: C_19  and  N_22
    8  A    between atoms: C_19  and  C_24
                            x       y       z     vdW  Elec       q    Type
                         _______ _______ _______ _____ _____    ______ ____

>  <TORSDO>
F 8

$$$$
=
 OpenBabel11052422423D

 31 33  0  0  1  0  0  0  0  0999 V2000
  161.0750  204.2410  149.3940 C   0  0  0  0  0  0  0  0  0  0  0  0
  161.1930  207.6860  151.0000 C   0  0  2  0  0  3  0  0  0  0  0  0
  161.6650  207.4860  152.4120 C   0  0  1  0  0  3  0  0  0  0  0  0
  161.2950  206.5710  150.0150 C   0  0  0  0  0  0  0  0  0  0  0  0
  161.2430  204.5830  148.0470 C   0  0  0  0  0  3  0  0  0  0  0  0
  161.5070  209.3500  149.3370 N   0  0  0  0  0  0  0  0  0  0  0  0
  160.8360  202.5690  149.8470 Cl  0  0  0  0  0  0  0  0  0  0  0  0
  162.0550  209.6430  151.8070 C   0  0  2  0  0  3  0  0  0  0  0  0
  161.6940  208.3660  148.2460 C   0  0  0  0  0  2  0  0  0  0  0  0
  162.0830  208.7820  150.5620 C   0  0  1  0  0  3  0  0  0  0  0  0
  161.0890  205.2350  150.3770 C   0  0  0  0  0  3  0  0  0  0  0  0
  161.4300  206.9230  148.6530 C   0  0  0  0  0  0  0  0  0  0  0  0
  161.4220  205.9200  147.6780 C   0  0  0  0  0  3  0  0  0  0  0  0
  163.3280  210.4620  151.9100 C   0  0  0  0  0  1  0  0  0  0  0  0
  161.9690  208.7720  152.9200 O   0  0  0  0  0  0  0  0  0  0  0  0
  160.6060  206.8820  153.2040 N   0  0  0  0  0  2  0  0  0  0  0  0
  161.0890  206.7820  154.5720 C   0  0  0  0  0  2  0  0  0  0  0  0
  160.1900  207.5380  155.4880 C   0  0  0  0  0  0  0  0  0  0  0  0
  159.7620  206.9590  156.6750 O   0  0  0  0  0  1  0  0  0  0  0  0
  159.8460  208.7150  155.2040 O   0  0  0  0  0  0  0  0  0  0  0  0
  162.2730  210.5300  148.9560 C   0  0  0  0  0  2  0  0  0  0  0  0
  160.8870  211.5360  146.5520 C   0  0  0  0  0  1  0  0  0  0  0  0
  161.2340  212.3240  150.1080 O   0  0  0  0  0  0  0  0  0  0  0  0
  161.3990  211.7420  149.0030 C   0  0  0  0  0  0  0  0  0  0  0  0
  160.7960  212.2690  147.8040 N   0  0  0  0  0  0  0  0  0  0  0  0
  160.6590  214.4430  146.6710 C   0  0  0  0  0  1  0  0  0  0  0  0
  160.1020  213.5570  147.7730 C   0  0  1  0  0  3  0  0  0  0  0  0
  158.5970  213.3840  147.6020 C   0  0  0  0  0  2  0  0  0  0  0  0
  157.8280  214.1300  148.6820 C   0  0  1  0  0  3  0  0  0  0  0  0
  156.7100  213.2480  149.1960 C   0  0  0  0  0  1  0  0  0  0  0  0
  158.6810  214.4510  149.7400 O   0  0  0  0  0  1  0  0  0  0  0  0
  1  7  1  0  0  0  0
  1 11  1  0  0  0  0
  2  4  1  6  0  0  0
  2  3  1  0  0  0  0
  3 15  1  0  0  0  0
  3 16  1  1  0  0  0
  4 11  2  0  0  0  0
  5  1  2  0  0  0  0
  8 14  1  1  0  0  0
  8 15  1  0  0  0  0
  9 12  1  0  0  0  0
  9  6  1  0  0  0  0
 10  6  1  6  0  0  0
 10  2  1  0  0  0  0
 10  8  1  0  0  0  0
 12  4  1  0  0  0  0
 13  5  1  0  0  0  0
 13 12  2  0  0  0  0
 16 17  1  0  0  0  0
 17 18  1  0  0  0  0
 18 19  1  0  0  0  0
 20 18  2  0  0  0  0
 21 24  1  0  0  0  0
 21  6  1  0  0  0  0
 22 25  1  0  0  0  0
 24 23  2  0  0  0  0
 25 24  1  0  0  0  0
 27 26  1  6  0  0  0
 27 25  1  0  0  0  0
 28 27  1  0  0  0  0
 28 29  1  0  0  0  0
 29 30  1  1  0  0  0
 29 31  1  0  0  0  0
M  END
>  <MODEL>
9

>  <REMARK>
 VINA RESULT:      -5.6      3.194      6.330
  Name = 
  8 active torsions:
  status: ('A' for Active; 'I' for Inactive)
    1  A    between atoms: C_1  and  C_24
    2  A    between atoms: C_5  and  N_14
    3  A    between atoms: C_9  and  C_23
    4  A    between atoms: C_10  and  N_14
    5  A    between atoms: C_10  and  C_18
    6  A    between atoms: N_15  and  C_23
    7  A    between atoms: C_19  and  N_22
    8  A    between atoms: C_19  and  C_24
                            x       y       z     vdW  Elec       q    Type
                         _______ _______ _______ _____ _____    ______ ____

>  <TORSDO>
F 8

$$$$
