=
 OpenBabel11062410533D

 32 37  0  0  1  0  0  0  0  0999 V2000
  161.7390  207.4820  151.9650 C   0  0  2  0  0  3  0  0  0  0  0  0
  162.3710  210.7290  149.9760 C   0  0  0  0  0  3  0  0  0  0  0  0
  162.2190  210.1990  148.6800 C   0  0  0  0  0  3  0  0  0  0  0  0
  161.3450  204.9290  151.4650 C   0  0  0  0  0  0  0  0  0  0  0  0
  161.1730  204.0120  150.4190 C   0  0  0  0  0  0  0  0  0  0  0  0
  161.0060  203.2560  148.2860 C   0  0  0  0  0  0  0  0  0  0  0  0
  162.2260  209.9060  151.1050 C   0  0  0  0  0  3  0  0  0  0  0  0
  161.9110  208.5600  150.9110 C   0  0  0  0  0  0  0  0  0  0  0  0
  161.5400  206.6280  149.7430 C   0  0  0  0  0  0  0  0  0  0  0  0
  160.8750  202.1940  149.0140 N   0  0  0  0  0  0  0  0  0  0  0  0
  160.9640  202.5350  150.4420 C   0  0  0  0  0  3  0  0  0  0  0  0
  161.9270  208.8380  148.4970 C   0  0  0  0  0  3  0  0  0  0  0  0
  161.7810  208.0450  149.6330 C   0  0  0  0  0  0  0  0  0  0  0  0
  161.3810  205.7210  148.7390 N   0  0  0  0  0  0  0  0  0  0  0  0
  161.3370  204.4220  153.1450 Cl  0  0  0  0  0  0  0  0  0  0  0  0
  160.9630  203.2390  146.7990 C   0  0  0  0  0  1  0  0  0  0  0  0
  161.5260  206.2710  151.0900 C   0  0  2  0  0  3  0  0  0  0  0  0
  161.1940  204.4240  149.1080 C   0  0  0  0  0  0  0  0  0  0  0  0
  162.0650  208.5410  156.6940 C   0  0  0  0  0  2  0  0  0  0  0  0
  160.2550  209.3690  154.5640 C   0  0  1  0  0  3  0  0  0  0  0  0
  160.8840  207.1260  154.1140 N   0  0  0  0  0  2  0  0  0  0  0  0
  160.7590  207.7730  156.4970 C   0  0  0  0  0  2  0  0  0  0  0  0
  160.5890  207.7010  152.8620 N   0  0  1  0  0  0  0  0  0  0  0  0
  161.9300  209.9600  156.3490 N   0  0  0  0  0  0  0  0  0  0  0  0
  160.2000  207.9530  155.0900 C   0  0  1  0  0  3  0  0  0  0  0  0
  161.5550  210.1010  154.9390 C   0  0  0  0  0  2  0  0  0  0  0  0
  160.2940  209.1280  153.0780 C   0  0  0  0  0  2  0  0  0  0  0  0
  160.9420  210.6180  157.2010 C   0  0  0  0  0  2  0  0  0  0  0  0
  161.0280  212.1240  157.0260 C   0  0  0  0  0  2  0  0  0  0  0  0
  159.7120  212.6670  156.5800 C   0  0  0  0  0  0  0  0  0  0  0  0
  158.4740  211.8610  156.7730 C   0  0  0  0  0  1  0  0  0  0  0  0
  159.6470  213.7590  156.0380 O   0  0  0  0  0  0  0  0  0  0  0  0
  1  8  1  6  0  0  0
  1 23  1  0  0  0  0
  2  7  1  0  0  0  0
  3  2  2  0  0  0  0
  4 15  1  0  0  0  0
  5 11  1  0  0  0  0
  5  4  2  0  0  0  0
  6 10  1  0  0  0  0
  6 18  2  0  0  0  0
  8  7  2  0  0  0  0
 10 11  2  0  0  0  0
 12  3  1  0  0  0  0
 12 13  2  0  0  0  0
 13  9  1  0  0  0  0
 13  8  1  0  0  0  0
 14 18  1  0  0  0  0
 14  9  2  0  0  0  0
 16  6  1  0  0  0  0
 17  9  1  6  0  0  0
 17  4  1  0  0  0  0
 17  1  1  0  0  0  0
 18  5  1  0  0  0  0
 20 27  1  6  0  0  0
 20 26  1  0  0  0  0
 20 25  1  0  0  0  0
 21 25  1  0  0  0  0
 22 19  1  0  0  0  0
 23 27  1  1  0  0  0
 23 21  1  0  0  0  0
 24 19  1  0  0  0  0
 24 28  1  0  0  0  0
 25 22  1  1  0  0  0
 26 24  1  0  0  0  0
 29 28  1  0  0  0  0
 30 31  1  0  0  0  0
 30 29  1  0  0  0  0
 32 30  2  0  0  0  0
M  END
>  <MODEL>
1

>  <REMARK>
 VINA RESULT:      -8.6      0.000      0.000
  Name = 
  4 active torsions:
  status: ('A' for Active; 'I' for Inactive)
    1  A    between atoms: C_1  and  C_10
    2  A    between atoms: C_3  and  N_14
    3  A    between atoms: C_10  and  C_24
    4  A    between atoms: N_19  and  C_24
                            x       y       z     vdW  Elec       q    Type
                         _______ _______ _______ _____ _____    ______ ____

>  <TORSDO>
F 4

$$$$
=
 OpenBabel11062410533D

 32 37  0  0  1  0  0  0  0  0999 V2000
  162.0440  207.7390  150.2150 C   0  0  2  0  0  3  0  0  0  0  0  0
  161.9530  204.2780  151.9200 C   0  0  0  0  0  3  0  0  0  0  0  0
  161.2700  204.6540  153.0930 C   0  0  0  0  0  3  0  0  0  0  0  0
  161.3780  210.2190  150.7890 C   0  0  0  0  0  0  0  0  0  0  0  0
  160.7630  211.0090  151.7700 C   0  0  0  0  0  0  0  0  0  0  0  0
  159.7200  211.5110  153.7220 C   0  0  0  0  0  0  0  0  0  0  0  0
  162.2410  205.2280  150.9260 C   0  0  0  0  0  3  0  0  0  0  0  0
  161.8200  206.5440  151.1230 C   0  0  0  0  0  0  0  0  0  0  0  0
  160.9320  208.3290  152.2440 C   0  0  0  0  0  0  0  0  0  0  0  0
  159.8510  212.6530  153.1240 N   0  0  0  0  0  0  0  0  0  0  0  0
  160.5210  212.4800  151.8260 C   0  0  0  0  0  3  0  0  0  0  0  0
  160.8730  205.9860  153.2900 C   0  0  0  0  0  3  0  0  0  0  0  0
  161.1650  206.9080  152.2860 C   0  0  0  0  0  0  0  0  0  0  0  0
  160.3450  209.1140  153.1910 N   0  0  0  0  0  0  0  0  0  0  0  0
  162.0280  210.9190  149.3160 Cl  0  0  0  0  0  0  0  0  0  0  0  0
  159.0800  211.3560  155.0560 C   0  0  0  0  0  1  0  0  0  0  0  0
  161.4470  208.8410  151.0550 C   0  0  0  0  0  0  0  0  0  0  0  0
  160.2700  210.4470  152.9230 C   0  0  2  0  0  3  0  0  0  0  0  0
  163.1790  204.5470  146.7330 C   0  0  0  0  0  2  0  0  0  0  0  0
  160.6680  205.6850  147.6830 C   0  0  1  0  0  3  0  0  0  0  0  0
  162.3300  207.3610  147.9230 N   0  0  0  0  0  2  0  0  0  0  0  0
  162.6220  205.7880  146.0370 C   0  0  0  0  0  2  0  0  0  0  0  0
  161.3630  207.6350  148.9100 N   0  0  1  0  0  0  0  0  0  0  0  0
  162.1140  203.6730  147.2390 N   0  0  0  0  0  0  0  0  0  0  0  0
  161.6500  206.5530  146.9290 C   0  0  1  0  0  3  0  0  0  0  0  0
  161.2990  204.3900  148.2220 C   0  0  0  0  0  2  0  0  0  0  0  0
  160.3600  206.5580  148.8720 C   0  0  0  0  0  2  0  0  0  0  0  0
  161.2730  203.1830  146.1480 C   0  0  0  0  0  2  0  0  0  0  0  0
  160.2820  202.1620  146.6790 C   0  0  0  0  0  2  0  0  0  0  0  0
  161.0060  200.9850  147.2420 C   0  0  0  0  0  0  0  0  0  0  0  0
  161.1880  200.8630  148.7150 C   0  0  0  0  0  1  0  0  0  0  0  0
  161.4680  200.1330  146.5000 O   0  0  0  0  0  0  0  0  0  0  0  0
  1 17  1  1  0  0  0
  1  8  1  0  0  0  0
  2  3  1  0  0  0  0
  3 12  2  0  0  0  0
  4 17  2  0  0  0  0
  4  5  1  0  0  0  0
  5 11  2  0  0  0  0
  6 16  1  0  0  0  0
  7  8  1  0  0  0  0
  7  2  2  0  0  0  0
  8 13  2  0  0  0  0
  9 13  1  0  0  0  0
  9 14  2  0  0  0  0
 10  6  2  0  0  0  0
 11 10  1  0  0  0  0
 13 12  1  0  0  0  0
 15  4  1  0  0  0  0
 17  9  1  0  0  0  0
 18  5  1  1  0  0  0
 18 14  1  0  0  0  0
 18  6  1  0  0  0  0
 19 24  1  0  0  0  0
 20 26  1  1  0  0  0
 20 27  1  0  0  0  0
 21 23  1  0  0  0  0
 22 19  1  0  0  0  0
 23 27  1  1  0  0  0
 23  1  1  0  0  0  0
 24 26  1  0  0  0  0
 25 22  1  1  0  0  0
 25 20  1  0  0  0  0
 25 21  1  0  0  0  0
 28 29  1  0  0  0  0
 28 24  1  0  0  0  0
 29 30  1  0  0  0  0
 30 31  1  0  0  0  0
 32 30  2  0  0  0  0
M  END
>  <MODEL>
2

>  <REMARK>
 VINA RESULT:      -8.5      3.846      9.011
  Name = 
  4 active torsions:
  status: ('A' for Active; 'I' for Inactive)
    1  A    between atoms: C_1  and  C_10
    2  A    between atoms: C_3  and  N_14
    3  A    between atoms: C_10  and  C_24
    4  A    between atoms: N_19  and  C_24
                            x       y       z     vdW  Elec       q    Type
                         _______ _______ _______ _____ _____    ______ ____

>  <TORSDO>
F 4

$$$$
=
 OpenBabel11062410533D

 32 37  0  0  1  0  0  0  0  0999 V2000
  162.0060  207.7420  150.3730 C   0  0  2  0  0  3  0  0  0  0  0  0
  161.9420  204.1960  151.8960 C   0  0  0  0  0  3  0  0  0  0  0  0
  161.2550  204.5060  153.0860 C   0  0  0  0  0  3  0  0  0  0  0  0
  161.3200  210.1840  151.0750 C   0  0  0  0  0  0  0  0  0  0  0  0
  160.6980  210.9170  152.0950 C   0  0  0  0  0  0  0  0  0  0  0  0
  159.6490  211.3080  154.0690 C   0  0  0  0  0  0  0  0  0  0  0  0
  162.2240  205.1990  150.9540 C   0  0  0  0  0  3  0  0  0  0  0  0
  161.7920  206.5000  151.2180 C   0  0  0  0  0  0  0  0  0  0  0  0
  160.8880  208.2170  152.4300 C   0  0  0  0  0  0  0  0  0  0  0  0
  159.7710  212.4800  153.5310 N   0  0  0  0  0  0  0  0  0  0  0  0
  160.4440  212.3810  152.2270 C   0  0  0  0  0  3  0  0  0  0  0  0
  160.8480  205.8220  153.3520 C   0  0  0  0  0  3  0  0  0  0  0  0
  161.1330  206.7970  152.3980 C   0  0  0  0  0  0  0  0  0  0  0  0
  160.2940  208.9470  153.4150 N   0  0  0  0  0  0  0  0  0  0  0  0
  161.9650  210.9640  149.6410 Cl  0  0  0  0  0  0  0  0  0  0  0  0
  159.0100  211.0780  155.3920 C   0  0  0  0  0  1  0  0  0  0  0  0
  161.4010  208.7950  151.2700 C   0  0  0  0  0  0  0  0  0  0  0  0
  160.2080  210.2910  153.2170 C   0  0  2  0  0  3  0  0  0  0  0  0
  163.1760  204.7510  146.7290 C   0  0  0  0  0  2  0  0  0  0  0  0
  160.6530  205.8120  147.7350 C   0  0  1  0  0  3  0  0  0  0  0  0
  162.2980  207.4890  148.0650 N   0  0  0  0  0  2  0  0  0  0  0  0
  162.6070  206.0220  146.0990 C   0  0  0  0  0  2  0  0  0  0  0  0
  161.3270  207.7000  149.0640 N   0  0  1  0  0  0  0  0  0  0  0  0
  162.1200  203.8410  147.1860 N   0  0  0  0  0  0  0  0  0  0  0  0
  161.6270  206.7280  147.0290 C   0  0  1  0  0  3  0  0  0  0  0  0
  161.2970  204.4960  148.2050 C   0  0  0  0  0  2  0  0  0  0  0  0
  160.3350  206.6170  148.9680 C   0  0  0  0  0  2  0  0  0  0  0  0
  161.2850  203.4010  146.0700 C   0  0  0  0  0  2  0  0  0  0  0  0
  160.8750  201.9520  146.2720 C   0  0  0  0  0  2  0  0  0  0  0  0
  160.0660  201.4790  145.1100 C   0  0  0  0  0  0  0  0  0  0  0  0
  160.0100  200.0250  144.7900 C   0  0  0  0  0  1  0  0  0  0  0  0
  159.4690  202.2790  144.4080 O   0  0  0  0  0  0  0  0  0  0  0  0
  1  8  1  1  0  0  0
  1 17  1  0  0  0  0
  2  3  1  0  0  0  0
  3 12  2  0  0  0  0
  4 17  2  0  0  0  0
  4  5  1  0  0  0  0
  5 11  2  0  0  0  0
  6 16  1  0  0  0  0
  7  8  1  0  0  0  0
  7  2  2  0  0  0  0
  8 13  2  0  0  0  0
  9 14  2  0  0  0  0
 10  6  2  0  0  0  0
 11 10  1  0  0  0  0
 13  9  1  0  0  0  0
 13 12  1  0  0  0  0
 15  4  1  0  0  0  0
 17  9  1  0  0  0  0
 18  5  1  1  0  0  0
 18 14  1  0  0  0  0
 18  6  1  0  0  0  0
 19 24  1  0  0  0  0
 20 26  1  1  0  0  0
 20 27  1  0  0  0  0
 21 23  1  0  0  0  0
 22 19  1  0  0  0  0
 23 27  1  1  0  0  0
 23  1  1  0  0  0  0
 24 26  1  0  0  0  0
 25 22  1  1  0  0  0
 25 20  1  0  0  0  0
 25 21  1  0  0  0  0
 28 29  1  0  0  0  0
 28 24  1  0  0  0  0
 30 29  1  0  0  0  0
 31 30  1  0  0  0  0
 32 30  2  0  0  0  0
M  END
>  <MODEL>
3

>  <REMARK>
 VINA RESULT:      -8.3      3.768      9.208
  Name = 
  4 active torsions:
  status: ('A' for Active; 'I' for Inactive)
    1  A    between atoms: C_1  and  C_10
    2  A    between atoms: C_3  and  N_14
    3  A    between atoms: C_10  and  C_24
    4  A    between atoms: N_19  and  C_24
                            x       y       z     vdW  Elec       q    Type
                         _______ _______ _______ _____ _____    ______ ____

>  <TORSDO>
F 4

$$$$
=
 OpenBabel11062410533D

 32 37  0  0  1  0  0  0  0  0999 V2000
  160.9240  207.5900  150.2270 C   0  0  2  0  0  3  0  0  0  0  0  0
  160.8450  207.5780  154.0860 C   0  0  0  0  0  3  0  0  0  0  0  0
  160.9940  206.1910  154.2810 C   0  0  0  0  0  3  0  0  0  0  0  0
  160.9950  205.8350  148.2680 C   0  0  0  0  0  0  0  0  0  0  0  0
  161.0970  204.4620  148.0050 C   0  0  0  0  0  0  0  0  0  0  0  0
  161.2760  202.2420  148.4380 C   0  0  0  0  0  0  0  0  0  0  0  0
  160.8170  208.1160  152.7890 C   0  0  0  0  0  3  0  0  0  0  0  0
  160.9560  207.2480  151.7050 C   0  0  0  0  0  0  0  0  0  0  0  0
  161.1250  205.2420  150.6170 C   0  0  0  0  0  0  0  0  0  0  0  0
  161.2220  202.3140  147.1460 N   0  0  0  0  0  0  0  0  0  0  0  0
  161.1020  203.7150  146.7130 C   0  0  0  0  0  3  0  0  0  0  0  0
  161.1090  205.3250  153.1830 C   0  0  0  0  0  3  0  0  0  0  0  0
  161.0850  205.8850  151.9070 C   0  0  0  0  0  0  0  0  0  0  0  0
  161.2140  203.9110  150.3430 N   0  0  0  0  0  0  0  0  0  0  0  0
  160.8430  207.0120  146.9750 Cl  0  0  0  0  0  0  0  0  0  0  0  0
  161.3970  200.9580  149.1800 C   0  0  0  0  0  1  0  0  0  0  0  0
  161.0170  206.2110  149.6210 C   0  0  2  0  0  3  0  0  0  0  0  0
  161.2040  203.5520  149.0290 C   0  0  0  0  0  0  0  0  0  0  0  0
  160.4360  211.8940  148.0300 C   0  0  0  0  0  2  0  0  0  0  0  0
  162.3320  210.8260  149.9700 C   0  0  1  0  0  3  0  0  0  0  0  0
  161.6950  209.0320  148.5530 N   0  0  0  0  0  2  0  0  0  0  0  0
  161.7400  211.2800  147.5240 C   0  0  0  0  0  2  0  0  0  0  0  0
  162.0420  208.4450  149.7860 N   0  0  1  0  0  0  0  0  0  0  0  0
  160.5990  212.5400  149.3370 N   0  0  0  0  0  0  0  0  0  0  0  0
  162.3520  210.3250  148.5430 C   0  0  1  0  0  3  0  0  0  0  0  0
  161.0260  211.5540  150.3340 C   0  0  0  0  0  2  0  0  0  0  0  0
  162.3440  209.5280  150.7350 C   0  0  0  0  0  2  0  0  0  0  0  0
  161.5620  213.6360  149.2670 C   0  0  0  0  0  2  0  0  0  0  0  0
  161.3380  214.4400  147.9970 C   0  0  0  0  0  2  0  0  0  0  0  0
  162.5460  214.3720  147.1240 C   0  0  0  0  0  0  0  0  0  0  0  0
  162.3950  214.4460  145.6440 C   0  0  0  0  0  1  0  0  0  0  0  0
  163.6550  214.2350  147.6160 O   0  0  0  0  0  0  0  0  0  0  0  0
  1  8  1  1  0  0  0
  2  3  1  0  0  0  0
  5  4  2  0  0  0  0
  5 18  1  0  0  0  0
  6 18  2  0  0  0  0
  6 16  1  0  0  0  0
  7  2  2  0  0  0  0
  8 13  2  0  0  0  0
  8  7  1  0  0  0  0
  9 13  1  0  0  0  0
 10  6  1  0  0  0  0
 11 10  2  0  0  0  0
 11  5  1  0  0  0  0
 12  3  2  0  0  0  0
 13 12  1  0  0  0  0
 14  9  2  0  0  0  0
 15  4  1  0  0  0  0
 17  4  1  1  0  0  0
 17  1  1  0  0  0  0
 17  9  1  0  0  0  0
 18 14  1  0  0  0  0
 19 24  1  0  0  0  0
 20 26  1  6  0  0  0
 20 27  1  0  0  0  0
 21 23  1  0  0  0  0
 22 19  1  0  0  0  0
 23  1  1  0  0  0  0
 23 27  1  1  0  0  0
 24 26  1  0  0  0  0
 25 22  1  6  0  0  0
 25 21  1  0  0  0  0
 25 20  1  0  0  0  0
 28 24  1  0  0  0  0
 29 28  1  0  0  0  0
 30 32  2  0  0  0  0
 30 29  1  0  0  0  0
 31 30  1  0  0  0  0
M  END
>  <MODEL>
4

>  <REMARK>
 VINA RESULT:      -6.2      3.437      5.964
  Name = 
  4 active torsions:
  status: ('A' for Active; 'I' for Inactive)
    1  A    between atoms: C_1  and  C_10
    2  A    between atoms: C_3  and  N_14
    3  A    between atoms: C_10  and  C_24
    4  A    between atoms: N_19  and  C_24
                            x       y       z     vdW  Elec       q    Type
                         _______ _______ _______ _____ _____    ______ ____

>  <TORSDO>
F 4

$$$$
=
 OpenBabel11062410533D

 32 37  0  0  1  0  0  0  0  0999 V2000
  160.7820  206.3430  150.1760 C   0  0  2  0  0  3  0  0  0  0  0  0
  160.6840  203.8230  153.0980 C   0  0  0  0  0  3  0  0  0  0  0  0
  160.8330  202.6420  152.3440 C   0  0  0  0  0  3  0  0  0  0  0  0
  160.8640  206.2850  147.5460 C   0  0  0  0  0  0  0  0  0  0  0  0
  160.9680  205.4130  146.4540 C   0  0  0  0  0  0  0  0  0  0  0  0
  161.1460  203.4450  145.3380 C   0  0  0  0  0  0  0  0  0  0  0  0
  160.6620  205.0760  152.4630 C   0  0  0  0  0  3  0  0  0  0  0  0
  160.8070  205.1220  151.0750 C   0  0  0  0  0  0  0  0  0  0  0  0
  160.9830  204.3060  148.9450 C   0  0  0  0  0  0  0  0  0  0  0  0
  161.0980  204.3410  144.4040 N   0  0  0  0  0  0  0  0  0  0  0  0
  160.9800  205.6860  144.9870 C   0  0  0  0  0  3  0  0  0  0  0  0
  160.9540  202.6990  150.9470 C   0  0  0  0  0  3  0  0  0  0  0  0
  160.9350  203.9550  150.3420 C   0  0  0  0  0  0  0  0  0  0  0  0
  161.0730  203.4730  147.8710 N   0  0  0  0  0  0  0  0  0  0  0  0
  160.7180  208.0210  147.3300 Cl  0  0  0  0  0  0  0  0  0  0  0  0
  161.2640  201.9870  145.0680 C   0  0  0  0  0  1  0  0  0  0  0  0
  160.8800  205.6900  148.8190 C   0  0  2  0  0  3  0  0  0  0  0  0
  161.0700  204.0550  146.6400 C   0  0  0  0  0  0  0  0  0  0  0  0
  160.4000  210.6790  152.3310 C   0  0  0  0  0  2  0  0  0  0  0  0
  162.4440  208.6000  152.3360 C   0  0  1  0  0  3  0  0  0  0  0  0
  161.4400  208.5890  150.1860 N   0  0  0  0  0  2  0  0  0  0  0  0
  161.5530  210.7770  151.3330 C   0  0  0  0  0  2  0  0  0  0  0  0
  161.9030  207.2760  150.4010 N   0  0  1  0  0  0  0  0  0  0  0  0
  160.8110  210.0490  153.5910 N   0  0  0  0  0  0  0  0  0  0  0  0
  162.2100  209.4220  151.0890 C   0  0  1  0  0  3  0  0  0  0  0  0
  161.2810  208.6840  153.3390 C   0  0  0  0  0  2  0  0  0  0  0  0
  162.4410  207.2040  151.7690 C   0  0  0  0  0  2  0  0  0  0  0  0
  161.8560  210.8280  154.2530 C   0  0  0  0  0  2  0  0  0  0  0  0
  161.5180  210.9980  155.7240 C   0  0  0  0  0  2  0  0  0  0  0  0
  162.4800  210.2270  156.5660 C   0  0  0  0  0  0  0  0  0  0  0  0
  162.1310  208.8510  157.0160 C   0  0  0  0  0  1  0  0  0  0  0  0
  163.5410  210.7260  156.9050 O   0  0  0  0  0  0  0  0  0  0  0  0
  1 23  1  0  0  0  0
  1  8  1  1  0  0  0
  3  2  2  0  0  0  0
  5 18  1  0  0  0  0
  5  4  2  0  0  0  0
  6 18  2  0  0  0  0
  7  2  1  0  0  0  0
  8  7  2  0  0  0  0
  9 13  1  0  0  0  0
 10 11  2  0  0  0  0
 10  6  1  0  0  0  0
 11  5  1  0  0  0  0
 12  3  1  0  0  0  0
 13 12  2  0  0  0  0
 13  8  1  0  0  0  0
 14  9  2  0  0  0  0
 15  4  1  0  0  0  0
 16  6  1  0  0  0  0
 17  4  1  6  0  0  0
 17  9  1  0  0  0  0
 17  1  1  0  0  0  0
 18 14  1  0  0  0  0
 19 24  1  0  0  0  0
 20 27  1  6  0  0  0
 20 26  1  0  0  0  0
 21 23  1  0  0  0  0
 21 25  1  0  0  0  0
 22 19  1  0  0  0  0
 23 27  1  1  0  0  0
 24 28  1  0  0  0  0
 25 22  1  1  0  0  0
 25 20  1  0  0  0  0
 26 24  1  0  0  0  0
 28 29  1  0  0  0  0
 29 30  1  0  0  0  0
 30 32  2  0  0  0  0
 30 31  1  0  0  0  0
M  END
>  <MODEL>
5

>  <REMARK>
 VINA RESULT:      -5.7      2.306      4.492
  Name = 
  4 active torsions:
  status: ('A' for Active; 'I' for Inactive)
    1  A    between atoms: C_1  and  C_10
    2  A    between atoms: C_3  and  N_14
    3  A    between atoms: C_10  and  C_24
    4  A    between atoms: N_19  and  C_24
                            x       y       z     vdW  Elec       q    Type
                         _______ _______ _______ _____ _____    ______ ____

>  <TORSDO>
F 4

$$$$
