=
 OpenBabel11062408053D

 34 39  0  0  1  0  0  0  0  0999 V2000
  161.7410  209.7870  150.3120 C   0  0  0  0  0  0  0  0  0  0  0  0
  162.3700  207.9840  148.8130 C   0  0  0  0  0  3  0  0  0  0  0  0
  161.3240  203.8000  148.5570 C   0  0  2  0  0  3  0  0  0  0  0  0
  161.6540  207.4970  151.0510 C   0  0  0  0  0  0  0  0  0  0  0  0
  162.2560  205.2820  152.1300 C   0  0  2  0  0  3  0  0  0  0  0  0
  162.4150  210.2720  148.0340 C   0  0  0  0  0  3  0  0  0  0  0  0
  162.6150  208.9110  147.7990 C   0  0  0  0  0  3  0  0  0  0  0  0
  160.6790  205.2740  150.3220 C   0  0  1  0  0  3  0  0  0  0  0  0
  161.9130  208.3990  150.0770 C   0  0  0  0  0  0  0  0  0  0  0  0
  160.9740  202.9940  149.7900 C   0  0  0  0  0  2  0  0  0  0  0  0
  161.8650  203.8630  151.7890 C   0  0  0  0  0  2  0  0  0  0  0  0
  161.9850  210.7080  149.2880 C   0  0  0  0  0  3  0  0  0  0  0  0
  161.0310  207.9430  152.3540 C   0  0  1  0  0  3  0  0  0  0  0  0
  161.4080  210.2400  151.5190 C   0  0  0  0  0  3  0  0  0  0  0  0
  160.7390  205.1600  148.8130 C   0  0  0  0  0  2  0  0  0  0  0  0
  161.4330  205.7150  153.2640 N   0  0  0  0  0  2  0  0  0  0  0  0
  161.6320  207.1410  153.5070 C   0  0  2  0  0  3  0  0  0  0  0  0
  160.7130  203.9210  150.8890 N   0  0  1  0  0  0  0  0  0  0  0  0
  161.8930  206.0170  150.8500 C   0  0  1  0  0  3  0  0  0  0  0  0
  161.1940  209.3470  152.5730 O   0  0  0  0  0  0  0  0  0  0  0  0
  160.8540  209.0920  156.6600 C   0  0  0  0  0  0  0  0  0  0  0  0
  159.8800  208.2880  157.2600 C   0  0  0  0  0  3  0  0  0  0  0  0
  161.0190  207.5240  154.8170 C   0  0  0  0  0  0  0  0  0  0  0  0
  159.4710  207.1040  156.6410 C   0  0  0  0  0  3  0  0  0  0  0  0
  161.4220  208.7100  155.4410 C   0  0  0  0  0  3  0  0  0  0  0  0
  160.0370  206.7220  155.4210 C   0  0  0  0  0  3  0  0  0  0  0  0
  161.2450  210.2420  157.2600 F   0  0  0  0  0  0  0  0  0  0  0  0
  160.6910  202.8440  145.0850 O   0  0  0  0  0  0  0  0  0  0  0  0
  160.7110  203.2130  147.3760 N   0  0  0  0  0  2  0  0  0  0  0  0
  161.2600  203.3870  146.0700 C   0  0  0  0  0  0  0  0  0  0  0  0
  162.4190  204.1500  145.8910 O   0  0  0  0  0  0  0  0  0  0  0  0
  162.3800  205.5210  145.5170 C   0  0  0  0  0  2  0  0  0  0  0  0
  161.0920  205.8410  144.8300 C   0  0  0  0  0  3  0  0  0  0  0  0
  160.2190  206.4630  145.4110 O   0  0  0  0  0  0  0  0  0  0  0  0
  1 14  2  0  0  0  0
  2  9  1  0  0  0  0
  3 29  1  6  0  0  0
  3 15  1  0  0  0  0
  3 10  1  0  0  0  0
  5 11  1  6  0  0  0
  5 16  1  0  0  0  0
  6 12  2  0  0  0  0
  7  6  1  0  0  0  0
  7  2  2  0  0  0  0
  8 15  1  6  0  0  0
  8 19  1  0  0  0  0
  8 18  1  0  0  0  0
  9  1  1  0  0  0  0
  9  4  2  0  0  0  0
 12  1  1  0  0  0  0
 13  4  1  6  0  0  0
 13 20  1  0  0  0  0
 13 17  1  0  0  0  0
 14 20  1  0  0  0  0
 16 17  1  0  0  0  0
 17 23  1  1  0  0  0
 18 10  1  6  0  0  0
 18 11  1  0  0  0  0
 19  4  1  1  0  0  0
 19  5  1  0  0  0  0
 21 22  1  0  0  0  0
 21 27  1  0  0  0  0
 23 26  2  0  0  0  0
 23 25  1  0  0  0  0
 24 22  2  0  0  0  0
 25 21  2  0  0  0  0
 26 24  1  0  0  0  0
 28 30  2  0  0  0  0
 30 29  1  0  0  0  0
 31 30  1  0  0  0  0
 32 31  1  0  0  0  0
 33 34  2  0  0  0  0
 33 32  1  0  0  0  0
M  END
>  <MODEL>
1

>  <REMARK>
 VINA RESULT:      -7.6      0.000      0.000
  Name = 
  5 active torsions:
  status: ('A' for Active; 'I' for Inactive)
    1  A    between atoms: C_3  and  N_13
    2  A    between atoms: C_12  and  C_28
    3  A    between atoms: C_14  and  O_33
    4  A    between atoms: C_20  and  C_22
    5  A    between atoms: C_22  and  O_33
                            x       y       z     vdW  Elec       q    Type
                         _______ _______ _______ _____ _____    ______ ____

>  <TORSDO>
F 5

$$$$
=
 OpenBabel11062408053D

 34 39  0  0  1  0  0  0  0  0999 V2000
  160.7300  207.0220  154.7870 C   0  0  0  0  0  0  0  0  0  0  0  0
  160.6460  209.3520  155.4630 C   0  0  0  0  0  3  0  0  0  0  0  0
  159.4370  213.0010  153.4920 C   0  0  2  0  0  3  0  0  0  0  0  0
  160.8620  208.7770  153.1430 C   0  0  0  0  0  0  0  0  0  0  0  0
  161.7650  210.4730  151.4870 C   0  0  2  0  0  3  0  0  0  0  0  0
  160.4590  207.6050  157.1240 C   0  0  0  0  0  3  0  0  0  0  0  0
  160.5000  208.9600  156.7940 C   0  0  0  0  0  3  0  0  0  0  0  0
  159.6000  210.8600  152.4450 C   0  0  1  0  0  3  0  0  0  0  0  0
  160.7460  208.3960  154.4350 C   0  0  0  0  0  0  0  0  0  0  0  0
  159.5780  213.1760  151.9940 C   0  0  0  0  0  2  0  0  0  0  0  0
  161.2210  211.8010  151.0170 C   0  0  0  0  0  2  0  0  0  0  0  0
  160.5800  206.6390  156.1230 C   0  0  0  0  0  3  0  0  0  0  0  0
  160.8260  207.7440  152.0400 C   0  0  1  0  0  3  0  0  0  0  0  0
  160.9220  206.0790  153.8650 C   0  0  0  0  0  3  0  0  0  0  0  0
  159.0500  211.5590  153.6700 C   0  0  0  0  0  2  0  0  0  0  0  0
  161.4770  209.4770  150.4500 N   0  0  0  0  0  2  0  0  0  0  0  0
  161.8070  208.1410  150.9380 C   0  0  2  0  0  3  0  0  0  0  0  0
  159.8080  211.8640  151.3950 N   0  0  1  0  0  0  0  0  0  0  0  0
  160.9500  210.2340  152.7470 C   0  0  1  0  0  3  0  0  0  0  0  0
  161.1120  206.4300  152.5270 O   0  0  0  0  0  0  0  0  0  0  0  0
  161.1390  204.9880  148.9460 C   0  0  0  0  0  0  0  0  0  0  0  0
  161.6890  205.3140  147.7020 C   0  0  0  0  0  3  0  0  0  0  0  0
  161.7800  207.1640  149.8040 C   0  0  0  0  0  0  0  0  0  0  0  0
  162.2830  206.5640  147.5060 C   0  0  0  0  0  3  0  0  0  0  0  0
  161.1850  205.9110  149.9940 C   0  0  0  0  0  3  0  0  0  0  0  0
  162.3270  207.4890  148.5530 C   0  0  0  0  0  3  0  0  0  0  0  0
  160.5600  203.7780  149.1330 F   0  0  0  0  0  0  0  0  0  0  0  0
  156.9070  214.4530  155.6960 O   0  0  0  0  0  0  0  0  0  0  0  0
  158.3840  213.8620  154.0070 N   0  0  0  0  0  2  0  0  0  0  0  0
  157.8080  213.6670  155.2980 C   0  0  0  0  0  0  0  0  0  0  0  0
  158.2460  212.6160  156.1100 O   0  0  0  0  0  0  0  0  0  0  0  0
  157.3650  211.8870  156.9570 C   0  0  0  0  0  2  0  0  0  0  0  0
  156.1450  211.4650  156.2040 C   0  0  0  0  0  3  0  0  0  0  0  0
  156.1890  210.5260  155.4290 O   0  0  0  0  0  0  0  0  0  0  0  0
  1 12  1  0  0  0  0
  2  7  2  0  0  0  0
  3 15  1  0  0  0  0
  3 29  1  6  0  0  0
  4  9  2  0  0  0  0
  5 11  1  6  0  0  0
  5 19  1  0  0  0  0
  7  6  1  0  0  0  0
  8 19  1  0  0  0  0
  8 15  1  1  0  0  0
  9  1  1  0  0  0  0
  9  2  1  0  0  0  0
 10  3  1  0  0  0  0
 12  6  2  0  0  0  0
 13 20  1  1  0  0  0
 13  4  1  0  0  0  0
 14  1  2  0  0  0  0
 16 17  1  0  0  0  0
 16  5  1  0  0  0  0
 17 23  1  6  0  0  0
 17 13  1  0  0  0  0
 18 11  1  1  0  0  0
 18 10  1  0  0  0  0
 18  8  1  0  0  0  0
 19  4  1  6  0  0  0
 20 14  1  0  0  0  0
 21 27  1  0  0  0  0
 21 25  1  0  0  0  0
 22 21  2  0  0  0  0
 23 25  2  0  0  0  0
 24 22  1  0  0  0  0
 24 26  2  0  0  0  0
 26 23  1  0  0  0  0
 29 30  1  0  0  0  0
 30 28  2  0  0  0  0
 30 31  1  0  0  0  0
 31 32  1  0  0  0  0
 33 32  1  0  0  0  0
 34 33  2  0  0  0  0
M  END
>  <MODEL>
2

>  <REMARK>
 VINA RESULT:      -6.6      3.917      8.990
  Name = 
  5 active torsions:
  status: ('A' for Active; 'I' for Inactive)
    1  A    between atoms: C_3  and  N_13
    2  A    between atoms: C_12  and  C_28
    3  A    between atoms: C_14  and  O_33
    4  A    between atoms: C_20  and  C_22
    5  A    between atoms: C_22  and  O_33
                            x       y       z     vdW  Elec       q    Type
                         _______ _______ _______ _____ _____    ______ ____

>  <TORSDO>
F 5

$$$$
=
 OpenBabel11062408053D

 34 39  0  0  1  0  0  0  0  0999 V2000
  160.6900  212.3230  150.5930 C   0  0  0  0  0  0  0  0  0  0  0  0
  161.9530  210.2550  150.4320 C   0  0  0  0  0  3  0  0  0  0  0  0
  161.7110  206.4340  152.4310 C   0  0  2  0  0  3  0  0  0  0  0  0
  160.8080  210.8130  152.4660 C   0  0  0  0  0  0  0  0  0  0  0  0
  161.4910  209.7270  154.6540 C   0  0  2  0  0  3  0  0  0  0  0  0
  161.8040  211.7310  148.5230 C   0  0  0  0  0  3  0  0  0  0  0  0
  162.2780  210.5570  149.1080 C   0  0  0  0  0  3  0  0  0  0  0  0
  160.4220  208.3650  152.9930 C   0  0  1  0  0  3  0  0  0  0  0  0
  161.1420  211.1180  151.1910 C   0  0  0  0  0  0  0  0  0  0  0  0
  161.2110  206.3150  153.8560 C   0  0  0  0  0  2  0  0  0  0  0  0
  161.4360  208.2900  155.1180 C   0  0  0  0  0  2  0  0  0  0  0  0
  161.0180  212.6140  149.2650 C   0  0  0  0  0  3  0  0  0  0  0  0
  159.8240  211.6770  153.2220 C   0  0  1  0  0  3  0  0  0  0  0  0
  160.0050  213.2200  151.2980 C   0  0  0  0  0  3  0  0  0  0  0  0
  160.8630  207.5140  151.8200 C   0  0  0  0  0  2  0  0  0  0  0  0
  160.3580  210.4380  155.2550 N   0  0  0  0  0  2  0  0  0  0  0  0
  160.2530  211.7780  154.6840 C   0  0  2  0  0  3  0  0  0  0  0  0
  160.5420  207.5630  154.2160 N   0  0  1  0  0  0  0  0  0  0  0  0
  161.3320  209.5700  153.1500 C   0  0  1  0  0  3  0  0  0  0  0  0
  159.6940  212.9760  152.6380 O   0  0  0  0  0  0  0  0  0  0  0  0
  157.0140  212.9880  156.2320 C   0  0  0  0  0  0  0  0  0  0  0  0
  157.4480  214.0890  156.9780 C   0  0  0  0  0  3  0  0  0  0  0  0
  159.2860  212.5960  155.4810 C   0  0  0  0  0  0  0  0  0  0  0  0
  158.7990  214.4440  156.9790 C   0  0  0  0  0  3  0  0  0  0  0  0
  157.9320  212.2440  155.4860 C   0  0  0  0  0  3  0  0  0  0  0  0
  159.7180  213.6990  156.2340 C   0  0  0  0  0  3  0  0  0  0  0  0
  155.7050  212.6420  156.2360 F   0  0  0  0  0  0  0  0  0  0  0  0
  161.2770  204.0110  149.7280 O   0  0  0  0  0  0  0  0  0  0  0  0
  161.5070  205.1830  151.7170 N   0  0  0  0  0  2  0  0  0  0  0  0
  161.4430  205.1250  150.2920 C   0  0  0  0  0  0  0  0  0  0  0  0
  161.5670  206.2950  149.5360 O   0  0  0  0  0  0  0  0  0  0  0  0
  160.9940  206.4320  148.2410 C   0  0  0  0  0  2  0  0  0  0  0  0
  162.0640  206.4940  147.1990 C   0  0  0  0  0  3  0  0  0  0  0  0
  162.6250  205.4780  146.8260 O   0  0  0  0  0  0  0  0  0  0  0  0
  1  9  1  0  0  0  0
  1 14  2  0  0  0  0
  2  9  1  0  0  0  0
  3 29  1  6  0  0  0
  3 10  1  0  0  0  0
  5 11  1  1  0  0  0
  5 16  1  0  0  0  0
  6  7  1  0  0  0  0
  6 12  2  0  0  0  0
  7  2  2  0  0  0  0
  8 15  1  6  0  0  0
  8 19  1  0  0  0  0
  8 18  1  0  0  0  0
  9  4  2  0  0  0  0
 12  1  1  0  0  0  0
 13  4  1  6  0  0  0
 13 17  1  0  0  0  0
 14 20  1  0  0  0  0
 15  3  1  0  0  0  0
 17 16  1  0  0  0  0
 17 23  1  1  0  0  0
 18 10  1  6  0  0  0
 18 11  1  0  0  0  0
 19  4  1  1  0  0  0
 19  5  1  0  0  0  0
 20 13  1  0  0  0  0
 21 27  1  0  0  0  0
 21 22  1  0  0  0  0
 22 24  2  0  0  0  0
 23 25  1  0  0  0  0
 23 26  2  0  0  0  0
 25 21  2  0  0  0  0
 26 24  1  0  0  0  0
 28 30  2  0  0  0  0
 30 29  1  0  0  0  0
 31 30  1  0  0  0  0
 32 31  1  0  0  0  0
 33 32  1  0  0  0  0
 34 33  2  0  0  0  0
M  END
>  <MODEL>
3

>  <REMARK>
 VINA RESULT:      -6.4      3.182      4.548
  Name = 
  5 active torsions:
  status: ('A' for Active; 'I' for Inactive)
    1  A    between atoms: C_3  and  N_13
    2  A    between atoms: C_12  and  C_28
    3  A    between atoms: C_14  and  O_33
    4  A    between atoms: C_20  and  C_22
    5  A    between atoms: C_22  and  O_33
                            x       y       z     vdW  Elec       q    Type
                         _______ _______ _______ _____ _____    ______ ____

>  <TORSDO>
F 5

$$$$
=
 OpenBabel11062408053D

 34 39  0  0  1  0  0  0  0  0999 V2000
  161.2300  211.4610  150.6080 C   0  0  0  0  0  0  0  0  0  0  0  0
  162.0960  210.1190  148.7790 C   0  0  0  0  0  3  0  0  0  0  0  0
  161.6990  205.9640  147.6640 C   0  0  2  0  0  3  0  0  0  0  0  0
  161.5100  209.0830  150.8630 C   0  0  0  0  0  0  0  0  0  0  0  0
  162.4670  206.8150  151.4740 C   0  0  2  0  0  3  0  0  0  0  0  0
  161.7730  212.4970  148.4840 C   0  0  0  0  0  3  0  0  0  0  0  0
  162.1740  211.2600  147.9790 C   0  0  0  0  0  3  0  0  0  0  0  0
  160.8730  206.9320  149.6860 C   0  0  1  0  0  3  0  0  0  0  0  0
  161.6080  210.1930  150.0970 C   0  0  0  0  0  0  0  0  0  0  0  0
  161.5020  204.8800  148.7030 C   0  0  0  0  0  2  0  0  0  0  0  0
  162.2910  205.4520  150.8470 C   0  0  0  0  0  2  0  0  0  0  0  0
  161.3080  212.5970  149.7960 C   0  0  0  0  0  3  0  0  0  0  0  0
  160.8540  209.1530  152.2230 C   0  0  1  0  0  3  0  0  0  0  0  0
  160.8570  211.6020  151.8780 C   0  0  0  0  0  3  0  0  0  0  0  0
  160.9170  207.1370  148.1860 C   0  0  0  0  0  2  0  0  0  0  0  0
  161.6120  206.8760  152.6640 N   0  0  0  0  0  2  0  0  0  0  0  0
  161.5950  208.2360  153.1940 C   0  0  2  0  0  3  0  0  0  0  0  0
  161.1250  205.5130  149.9650 N   0  0  1  0  0  0  0  0  0  0  0  0
  161.9700  207.7300  150.3670 C   0  0  1  0  0  3  0  0  0  0  0  0
  160.8050  210.4920  152.7250 O   0  0  0  0  0  0  0  0  0  0  0  0
  160.3290  209.4700  156.5450 C   0  0  0  0  0  0  0  0  0  0  0  0
  159.7560  208.3120  157.0790 C   0  0  0  0  0  3  0  0  0  0  0  0
  160.9580  208.2460  154.5490 C   0  0  0  0  0  0  0  0  0  0  0  0
  159.7800  207.1200  156.3490 C   0  0  0  0  0  3  0  0  0  0  0  0
  160.9290  209.4370  155.2830 C   0  0  0  0  0  3  0  0  0  0  0  0
  160.3780  207.0860  155.0860 C   0  0  0  0  0  3  0  0  0  0  0  0
  160.3010  210.6250  157.2520 F   0  0  0  0  0  0  0  0  0  0  0  0
  160.6090  203.8620  144.8780 O   0  0  0  0  0  0  0  0  0  0  0  0
  161.1580  205.5420  146.3810 N   0  0  0  0  0  2  0  0  0  0  0  0
  161.1000  204.1690  145.9970 C   0  0  0  0  0  0  0  0  0  0  0  0
  161.5800  203.1780  146.8600 O   0  0  0  0  0  0  0  0  0  0  0  0
  161.0970  201.8400  146.8290 C   0  0  0  0  0  2  0  0  0  0  0  0
  160.9700  201.2980  148.2160 C   0  0  0  0  0  3  0  0  0  0  0  0
  160.0830  201.6910  148.9550 O   0  0  0  0  0  0  0  0  0  0  0  0
  1 14  2  0  0  0  0
  2  9  1  0  0  0  0
  3 29  1  6  0  0  0
  3 15  1  0  0  0  0
  3 10  1  0  0  0  0
  5 11  1  6  0  0  0
  5 16  1  0  0  0  0
  6 12  2  0  0  0  0
  7  6  1  0  0  0  0
  7  2  2  0  0  0  0
  8 15  1  6  0  0  0
  8 18  1  0  0  0  0
  8 19  1  0  0  0  0
  9  1  1  0  0  0  0
  9  4  2  0  0  0  0
 12  1  1  0  0  0  0
 13  4  1  6  0  0  0
 13 20  1  0  0  0  0
 13 17  1  0  0  0  0
 14 20  1  0  0  0  0
 16 17  1  0  0  0  0
 17 23  1  1  0  0  0
 18 10  1  6  0  0  0
 18 11  1  0  0  0  0
 19  4  1  1  0  0  0
 19  5  1  0  0  0  0
 21 22  1  0  0  0  0
 21 27  1  0  0  0  0
 23 26  2  0  0  0  0
 23 25  1  0  0  0  0
 24 22  2  0  0  0  0
 25 21  2  0  0  0  0
 26 24  1  0  0  0  0
 28 30  2  0  0  0  0
 30 29  1  0  0  0  0
 30 31  1  0  0  0  0
 32 31  1  0  0  0  0
 32 33  1  0  0  0  0
 33 34  2  0  0  0  0
M  END
>  <MODEL>
4

>  <REMARK>
 VINA RESULT:      -6.1      1.498      2.221
  Name = 
  5 active torsions:
  status: ('A' for Active; 'I' for Inactive)
    1  A    between atoms: C_3  and  N_13
    2  A    between atoms: C_12  and  C_28
    3  A    between atoms: C_14  and  O_33
    4  A    between atoms: C_20  and  C_22
    5  A    between atoms: C_22  and  O_33
                            x       y       z     vdW  Elec       q    Type
                         _______ _______ _______ _____ _____    ______ ____

>  <TORSDO>
F 5

$$$$
=
 OpenBabel11062408053D

 34 39  0  0  1  0  0  0  0  0999 V2000
  160.9220  213.3850  149.4590 C   0  0  0  0  0  0  0  0  0  0  0  0
  162.3590  211.7040  148.4570 C   0  0  0  0  0  3  0  0  0  0  0  0
  162.5420  207.3940  148.6910 C   0  0  2  0  0  3  0  0  0  0  0  0
  161.2490  211.2560  150.5370 C   0  0  0  0  0  0  0  0  0  0  0  0
  162.1120  209.4370  152.0790 C   0  0  2  0  0  3  0  0  0  0  0  0
  162.0040  213.8140  147.3320 C   0  0  0  0  0  3  0  0  0  0  0  0
  162.6040  212.5560  147.3790 C   0  0  0  0  0  3  0  0  0  0  0  0
  161.1070  208.7840  150.0000 C   0  0  1  0  0  3  0  0  0  0  0  0
  161.5040  212.0920  149.5050 C   0  0  0  0  0  0  0  0  0  0  0  0
  162.1110  206.6500  149.9370 C   0  0  0  0  0  2  0  0  0  0  0  0
  162.2050  207.9390  151.9060 C   0  0  0  0  0  2  0  0  0  0  0  0
  161.1700  214.2290  148.3720 C   0  0  0  0  0  3  0  0  0  0  0  0
  160.2210  211.6290  151.5810 C   0  0  1  0  0  3  0  0  0  0  0  0
  160.1870  213.8390  150.4720 C   0  0  0  0  0  3  0  0  0  0  0  0
  161.5770  208.5410  148.5820 C   0  0  0  0  0  2  0  0  0  0  0  0
  160.9440  209.7210  152.9180 N   0  0  0  0  0  2  0  0  0  0  0  0
  160.6960  211.1590  152.9540 C   0  0  2  0  0  3  0  0  0  0  0  0
  161.3460  207.5650  150.7810 N   0  0  1  0  0  0  0  0  0  0  0  0
  161.9090  209.9000  150.6450 C   0  0  1  0  0  3  0  0  0  0  0  0
  159.9510  213.0340  151.5890 O   0  0  0  0  0  0  0  0  0  0  0  0
  157.3780  211.5380  154.7440 C   0  0  0  0  0  0  0  0  0  0  0  0
  157.7790  212.0350  155.9870 C   0  0  0  0  0  3  0  0  0  0  0  0
  159.6900  211.4760  154.0170 C   0  0  0  0  0  0  0  0  0  0  0  0
  159.1340  212.2510  156.2500 C   0  0  0  0  0  3  0  0  0  0  0  0
  158.3320  211.2590  153.7610 C   0  0  0  0  0  3  0  0  0  0  0  0
  160.0900  211.9710  155.2690 C   0  0  0  0  0  3  0  0  0  0  0  0
  156.0640  211.3250  154.4930 F   0  0  0  0  0  0  0  0  0  0  0  0
  161.6610  204.5920  146.5140 O   0  0  0  0  0  0  0  0  0  0  0  0
  162.4250  206.5370  147.5220 N   0  0  0  0  0  2  0  0  0  0  0  0
  161.7400  205.2860  147.5630 C   0  0  0  0  0  0  0  0  0  0  0  0
  161.1610  204.8420  148.7560 O   0  0  0  0  0  0  0  0  0  0  0  0
  160.8540  203.4730  148.9940 C   0  0  0  0  0  2  0  0  0  0  0  0
  160.9880  203.1510  150.4460 C   0  0  0  0  0  3  0  0  0  0  0  0
  160.4180  203.8280  151.2860 O   0  0  0  0  0  0  0  0  0  0  0  0
  1  9  1  0  0  0  0
  1 14  2  0  0  0  0
  2  9  1  0  0  0  0
  3 29  1  6  0  0  0
  3 10  1  0  0  0  0
  5 11  1  6  0  0  0
  5 16  1  0  0  0  0
  6  7  1  0  0  0  0
  6 12  2  0  0  0  0
  7  2  2  0  0  0  0
  8 15  1  6  0  0  0
  8 19  1  0  0  0  0
  8 18  1  0  0  0  0
  9  4  2  0  0  0  0
 12  1  1  0  0  0  0
 13  4  1  6  0  0  0
 13 20  1  0  0  0  0
 13 17  1  0  0  0  0
 14 20  1  0  0  0  0
 15  3  1  0  0  0  0
 16 17  1  0  0  0  0
 17 23  1  1  0  0  0
 18 10  1  6  0  0  0
 18 11  1  0  0  0  0
 19  4  1  1  0  0  0
 19  5  1  0  0  0  0
 21 22  1  0  0  0  0
 22 24  2  0  0  0  0
 23 26  2  0  0  0  0
 25 23  1  0  0  0  0
 25 21  2  0  0  0  0
 26 24  1  0  0  0  0
 27 21  1  0  0  0  0
 28 30  2  0  0  0  0
 29 30  1  0  0  0  0
 30 31  1  0  0  0  0
 31 32  1  0  0  0  0
 32 33  1  0  0  0  0
 33 34  2  0  0  0  0
M  END
>  <MODEL>
5

>  <REMARK>
 VINA RESULT:      -5.8      2.993      4.196
  Name = 
  5 active torsions:
  status: ('A' for Active; 'I' for Inactive)
    1  A    between atoms: C_3  and  N_13
    2  A    between atoms: C_12  and  C_28
    3  A    between atoms: C_14  and  O_33
    4  A    between atoms: C_20  and  C_22
    5  A    between atoms: C_22  and  O_33
                            x       y       z     vdW  Elec       q    Type
                         _______ _______ _______ _____ _____    ______ ____

>  <TORSDO>
F 5

$$$$
=
 OpenBabel11062408053D

 34 39  0  0  1  0  0  0  0  0999 V2000
  160.7680  204.0230  151.2210 C   0  0  0  0  0  0  0  0  0  0  0  0
  161.5720  205.9520  152.4550 C   0  0  0  0  0  3  0  0  0  0  0  0
  161.7000  210.1920  151.6360 C   0  0  2  0  0  3  0  0  0  0  0  0
  161.4620  206.0150  150.0590 C   0  0  0  0  0  0  0  0  0  0  0  0
  162.8500  207.6950  148.7610 C   0  0  2  0  0  3  0  0  0  0  0  0
  160.8310  203.9820  153.6440 C   0  0  0  0  0  3  0  0  0  0  0  0
  161.3510  205.2760  153.6560 C   0  0  0  0  0  3  0  0  0  0  0  0
  161.0220  208.5100  150.0820 C   0  0  1  0  0  3  0  0  0  0  0  0
  161.2700  205.3500  151.2200 C   0  0  0  0  0  0  0  0  0  0  0  0
  161.8300  210.7230  150.2240 C   0  0  0  0  0  2  0  0  0  0  0  0
  162.8110  209.2040  148.7150 C   0  0  0  0  0  2  0  0  0  0  0  0
  160.5450  203.3560  152.4290 C   0  0  0  0  0  3  0  0  0  0  0  0
  161.0020  205.4110  148.7510 C   0  0  1  0  0  3  0  0  0  0  0  0
  160.5600  203.3710  150.0780 C   0  0  0  0  0  3  0  0  0  0  0  0
  160.8200  208.9800  151.5070 C   0  0  0  0  0  2  0  0  0  0  0  0
  162.1730  207.1910  147.5620 N   0  0  0  0  0  2  0  0  0  0  0  0
  162.0110  205.7420  147.6540 C   0  0  2  0  0  3  0  0  0  0  0  0
  161.5370  209.6360  149.2930 N   0  0  1  0  0  0  0  0  0  0  0  0
  162.0600  207.4040  150.0260 C   0  0  1  0  0  3  0  0  0  0  0  0
  160.8080  203.9970  148.8540 O   0  0  0  0  0  0  0  0  0  0  0  0
  160.8390  203.3060  145.0000 C   0  0  0  0  0  0  0  0  0  0  0  0
  160.7440  204.1320  143.8760 C   0  0  0  0  0  3  0  0  0  0  0  0
  161.5780  205.1940  146.3300 C   0  0  0  0  0  0  0  0  0  0  0  0
  161.0630  205.4890  143.9760 C   0  0  0  0  0  3  0  0  0  0  0  0
  161.2560  203.8360  146.2240 C   0  0  0  0  0  3  0  0  0  0  0  0
  161.4770  206.0210  145.2000 C   0  0  0  0  0  3  0  0  0  0  0  0
  160.5250  201.9920  144.9020 F   0  0  0  0  0  0  0  0  0  0  0  0
  160.5320  211.9770  154.6060 O   0  0  0  0  0  0  0  0  0  0  0  0
  161.0590  211.1780  152.4920 N   0  0  0  0  0  2  0  0  0  0  0  0
  161.0950  211.0860  153.9160 C   0  0  0  0  0  0  0  0  0  0  0  0
  161.7540  210.0180  154.5330 O   0  0  0  0  0  0  0  0  0  0  0  0
  161.0570  208.9780  155.2080 C   0  0  0  0  0  2  0  0  0  0  0  0
  161.7680  208.6010  156.4670 C   0  0  0  0  0  3  0  0  0  0  0  0
  162.5910  209.3530  156.9620 O   0  0  0  0  0  0  0  0  0  0  0  0
  1 12  1  0  0  0  0
  2  7  2  0  0  0  0
  3 29  1  1  0  0  0
  4  9  2  0  0  0  0
  5 11  1  6  0  0  0
  5 19  1  0  0  0  0
  6  7  1  0  0  0  0
  8 15  1  1  0  0  0
  9  1  1  0  0  0  0
  9  2  1  0  0  0  0
 10  3  1  0  0  0  0
 12  6  2  0  0  0  0
 13 20  1  1  0  0  0
 13  4  1  0  0  0  0
 14  1  2  0  0  0  0
 15  3  1  0  0  0  0
 16 17  1  0  0  0  0
 16  5  1  0  0  0  0
 17 23  1  6  0  0  0
 17 13  1  0  0  0  0
 18 11  1  1  0  0  0
 18  8  1  0  0  0  0
 18 10  1  0  0  0  0
 19  4  1  6  0  0  0
 19  8  1  0  0  0  0
 20 14  1  0  0  0  0
 21 25  1  0  0  0  0
 22 24  1  0  0  0  0
 22 21  2  0  0  0  0
 24 26  2  0  0  0  0
 25 23  2  0  0  0  0
 26 23  1  0  0  0  0
 27 21  1  0  0  0  0
 29 30  1  0  0  0  0
 30 31  1  0  0  0  0
 30 28  2  0  0  0  0
 31 32  1  0  0  0  0
 32 33  1  0  0  0  0
 33 34  2  0  0  0  0
M  END
>  <MODEL>
6

>  <REMARK>
 VINA RESULT:      -5.5      3.387      8.775
  Name = 
  5 active torsions:
  status: ('A' for Active; 'I' for Inactive)
    1  A    between atoms: C_3  and  N_13
    2  A    between atoms: C_12  and  C_28
    3  A    between atoms: C_14  and  O_33
    4  A    between atoms: C_20  and  C_22
    5  A    between atoms: C_22  and  O_33
                            x       y       z     vdW  Elec       q    Type
                         _______ _______ _______ _____ _____    ______ ____

>  <TORSDO>
F 5

$$$$
=
 OpenBabel11062408053D

 34 39  0  0  1  0  0  0  0  0999 V2000
  161.0990  207.9180  154.4190 C   0  0  0  0  0  0  0  0  0  0  0  0
  161.9700  209.9740  153.4670 C   0  0  0  0  0  3  0  0  0  0  0  0
  161.9560  211.6800  149.4980 C   0  0  2  0  0  3  0  0  0  0  0  0
  161.6610  208.0410  152.0800 C   0  0  0  0  0  0  0  0  0  0  0  0
  162.9080  207.8360  149.8810 C   0  0  2  0  0  3  0  0  0  0  0  0
  161.3630  209.8880  155.8060 C   0  0  0  0  0  3  0  0  0  0  0  0
  161.8600  210.5970  154.7120 C   0  0  0  0  0  3  0  0  0  0  0  0
  161.1810  209.4910  150.0580 C   0  0  1  0  0  3  0  0  0  0  0  0
  161.5770  208.6350  153.2920 C   0  0  0  0  0  0  0  0  0  0  0  0
  161.9600  210.8070  148.2610 C   0  0  0  0  0  2  0  0  0  0  0  0
  162.8390  208.6510  148.6110 C   0  0  0  0  0  2  0  0  0  0  0  0
  160.9890  208.5510  155.6600 C   0  0  0  0  0  3  0  0  0  0  0  0
  161.1050  206.6500  151.8750 C   0  0  1  0  0  3  0  0  0  0  0  0
  160.8090  206.6210  154.3290 C   0  0  0  0  0  3  0  0  0  0  0  0
  161.0900  210.9430  150.4800 C   0  0  0  0  0  2  0  0  0  0  0  0
  162.1420  206.6030  149.6670 N   0  0  0  0  0  2  0  0  0  0  0  0
  162.0140  205.8730  150.9250 C   0  0  2  0  0  3  0  0  0  0  0  0
  161.6100  209.4450  148.6550 N   0  0  1  0  0  0  0  0  0  0  0  0
  162.2300  208.7610  150.8780 C   0  0  1  0  0  3  0  0  0  0  0  0
  160.9440  205.9500  153.1110 O   0  0  0  0  0  0  0  0  0  0  0  0
  160.7200  202.8280  149.0790 C   0  0  0  0  0  0  0  0  0  0  0  0
  160.5080  201.9270  150.1280 C   0  0  0  0  0  3  0  0  0  0  0  0
  161.4830  204.4980  150.6630 C   0  0  0  0  0  0  0  0  0  0  0  0
  160.7850  202.3080  151.4440 C   0  0  0  0  0  3  0  0  0  0  0  0
  161.2060  204.1110  149.3470 C   0  0  0  0  0  3  0  0  0  0  0  0
  161.2730  203.5900  151.7120 C   0  0  0  0  0  3  0  0  0  0  0  0
  160.4550  202.4550  147.8040 F   0  0  0  0  0  0  0  0  0  0  0  0
  160.0710  214.3440  147.8500 O   0  0  0  0  0  0  0  0  0  0  0  0
  161.3710  212.9790  149.2020 N   0  0  0  0  0  2  0  0  0  0  0  0
  160.5610  213.2010  148.0480 C   0  0  0  0  0  0  0  0  0  0  0  0
  160.3130  212.1550  147.1530 O   0  0  0  0  0  0  0  0  0  0  0  0
  160.0360  212.3780  145.7760 C   0  0  0  0  0  2  0  0  0  0  0  0
  161.2320  212.9520  145.0870 C   0  0  0  0  0  3  0  0  0  0  0  0
  161.1600  214.0250  144.5120 O   0  0  0  0  0  0  0  0  0  0  0  0
  1 12  1  0  0  0  0
  2  7  2  0  0  0  0
  3 29  1  6  0  0  0
  3 15  1  0  0  0  0
  4  9  2  0  0  0  0
  5 11  1  6  0  0  0
  5 19  1  0  0  0  0
  7  6  1  0  0  0  0
  8 15  1  1  0  0  0
  8 19  1  0  0  0  0
  9  2  1  0  0  0  0
  9  1  1  0  0  0  0
 10  3  1  0  0  0  0
 11 18  1  0  0  0  0
 12  6  2  0  0  0  0
 13  4  1  1  0  0  0
 13 20  1  0  0  0  0
 14  1  2  0  0  0  0
 16  5  1  0  0  0  0
 16 17  1  0  0  0  0
 17 23  1  6  0  0  0
 17 13  1  0  0  0  0
 18 10  1  1  0  0  0
 18  8  1  0  0  0  0
 19  4  1  1  0  0  0
 20 14  1  0  0  0  0
 21 25  2  0  0  0  0
 21 22  1  0  0  0  0
 22 24  2  0  0  0  0
 23 26  2  0  0  0  0
 24 26  1  0  0  0  0
 25 23  1  0  0  0  0
 27 21  1  0  0  0  0
 28 30  2  0  0  0  0
 30 29  1  0  0  0  0
 31 30  1  0  0  0  0
 32 31  1  0  0  0  0
 33 32  1  0  0  0  0
 34 33  2  0  0  0  0
M  END
>  <MODEL>
7

>  <REMARK>
 VINA RESULT:      -5.5      3.807      6.904
  Name = 
  5 active torsions:
  status: ('A' for Active; 'I' for Inactive)
    1  A    between atoms: C_3  and  N_13
    2  A    between atoms: C_12  and  C_28
    3  A    between atoms: C_14  and  O_33
    4  A    between atoms: C_20  and  C_22
    5  A    between atoms: C_22  and  O_33
                            x       y       z     vdW  Elec       q    Type
                         _______ _______ _______ _____ _____    ______ ____

>  <TORSDO>
F 5

$$$$
=
 OpenBabel11062408053D

 34 39  0  0  1  0  0  0  0  0999 V2000
  161.0180  207.5600  154.3710 C   0  0  0  0  0  0  0  0  0  0  0  0
  161.9140  209.6230  153.4570 C   0  0  0  0  0  3  0  0  0  0  0  0
  161.9540  211.3840  149.5130 C   0  0  2  0  0  3  0  0  0  0  0  0
  161.6040  207.7120  152.0400 C   0  0  0  0  0  0  0  0  0  0  0  0
  162.8720  207.5270  149.8510 C   0  0  2  0  0  3  0  0  0  0  0  0
  161.2830  209.5080  155.7880 C   0  0  0  0  0  3  0  0  0  0  0  0
  161.7970  210.2280  154.7100 C   0  0  0  0  0  3  0  0  0  0  0  0
  161.1560  209.1940  150.0340 C   0  0  1  0  0  3  0  0  0  0  0  0
  161.5130  208.2890  153.2590 C   0  0  0  0  0  0  0  0  0  0  0  0
  161.9630  210.5280  148.2630 C   0  0  0  0  0  2  0  0  0  0  0  0
  162.8210  208.3600  148.5910 C   0  0  0  0  0  2  0  0  0  0  0  0
  160.9010  208.1770  155.6200 C   0  0  0  0  0  3  0  0  0  0  0  0
  161.0400  206.3280  151.8100 C   0  0  1  0  0  3  0  0  0  0  0  0
  160.7190  206.2670  154.2610 C   0  0  0  0  0  3  0  0  0  0  0  0
  161.0720  210.6400  150.4760 C   0  0  0  0  0  2  0  0  0  0  0  0
  162.0990  206.3040  149.6120 N   0  0  0  0  0  2  0  0  0  0  0  0
  161.9520  205.5570  150.8580 C   0  0  2  0  0  3  0  0  0  0  0  0
  161.5990  209.1630  148.6350 N   0  0  1  0  0  0  0  0  0  0  0  0
  162.1910  208.4440  150.8540 C   0  0  1  0  0  3  0  0  0  0  0  0
  160.8610  205.6120  153.0350 O   0  0  0  0  0  0  0  0  0  0  0  0
  160.6700  202.5420  148.9560 C   0  0  0  0  0  0  0  0  0  0  0  0
  160.4240  201.6350  149.9910 C   0  0  0  0  0  3  0  0  0  0  0  0
  161.4130  204.1910  150.5710 C   0  0  0  0  0  0  0  0  0  0  0  0
  160.6730  202.0010  151.3170 C   0  0  0  0  0  3  0  0  0  0  0  0
  161.1630  203.8170  149.2460 C   0  0  0  0  0  3  0  0  0  0  0  0
  161.1690  203.2750  151.6080 C   0  0  0  0  0  3  0  0  0  0  0  0
  160.4310  202.1830  147.6720 F   0  0  0  0  0  0  0  0  0  0  0  0
  159.9890  214.4530  149.8100 O   0  0  0  0  0  0  0  0  0  0  0  0
  161.3820  212.6910  149.2290 N   0  0  0  0  0  2  0  0  0  0  0  0
  160.4410  213.3140  150.1030 C   0  0  0  0  0  0  0  0  0  0  0  0
  160.0320  212.6640  151.2720 O   0  0  0  0  0  0  0  0  0  0  0  0
  158.7130  212.7860  151.7920 C   0  0  0  0  0  2  0  0  0  0  0  0
  158.5490  211.9340  153.0080 C   0  0  0  0  0  3  0  0  0  0  0  0
  158.9700  212.3100  154.0890 O   0  0  0  0  0  0  0  0  0  0  0  0
  1 12  1  0  0  0  0
  2  7  2  0  0  0  0
  3 29  1  6  0  0  0
  3 15  1  0  0  0  0
  4  9  2  0  0  0  0
  5 11  1  6  0  0  0
  5 19  1  0  0  0  0
  7  6  1  0  0  0  0
  8 15  1  1  0  0  0
  8 19  1  0  0  0  0
  9  2  1  0  0  0  0
  9  1  1  0  0  0  0
 10  3  1  0  0  0  0
 11 18  1  0  0  0  0
 12  6  2  0  0  0  0
 13  4  1  1  0  0  0
 13 20  1  0  0  0  0
 14  1  2  0  0  0  0
 16  5  1  0  0  0  0
 16 17  1  0  0  0  0
 17 23  1  6  0  0  0
 17 13  1  0  0  0  0
 18 10  1  1  0  0  0
 18  8  1  0  0  0  0
 19  4  1  1  0  0  0
 20 14  1  0  0  0  0
 21 25  2  0  0  0  0
 21 22  1  0  0  0  0
 22 24  2  0  0  0  0
 23 26  2  0  0  0  0
 24 26  1  0  0  0  0
 25 23  1  0  0  0  0
 27 21  1  0  0  0  0
 28 30  2  0  0  0  0
 29 30  1  0  0  0  0
 30 31  1  0  0  0  0
 31 32  1  0  0  0  0
 32 33  1  0  0  0  0
 33 34  2  0  0  0  0
M  END
>  <MODEL>
8

>  <REMARK>
 VINA RESULT:      -5.2      3.741      7.405
  Name = 
  5 active torsions:
  status: ('A' for Active; 'I' for Inactive)
    1  A    between atoms: C_3  and  N_13
    2  A    between atoms: C_12  and  C_28
    3  A    between atoms: C_14  and  O_33
    4  A    between atoms: C_20  and  C_22
    5  A    between atoms: C_22  and  O_33
                            x       y       z     vdW  Elec       q    Type
                         _______ _______ _______ _____ _____    ______ ____

>  <TORSDO>
F 5

$$$$
=
 OpenBabel11062408053D

 34 39  0  0  1  0  0  0  0  0999 V2000
  160.7760  204.1250  151.4610 C   0  0  0  0  0  0  0  0  0  0  0  0
  161.5780  206.1140  152.5980 C   0  0  0  0  0  3  0  0  0  0  0  0
  161.7110  210.3060  151.5660 C   0  0  2  0  0  3  0  0  0  0  0  0
  161.4750  206.0550  150.2020 C   0  0  0  0  0  0  0  0  0  0  0  0
  162.8680  207.6660  148.8240 C   0  0  2  0  0  3  0  0  0  0  0  0
  160.8310  204.2070  153.8830 C   0  0  0  0  0  3  0  0  0  0  0  0
  161.3530  205.4990  153.8310 C   0  0  0  0  0  3  0  0  0  0  0  0
  161.0360  208.5480  150.0970 C   0  0  1  0  0  3  0  0  0  0  0  0
  161.2790  205.4490  151.3950 C   0  0  0  0  0  0  0  0  0  0  0  0
  161.8450  210.7650  150.1290 C   0  0  0  0  0  2  0  0  0  0  0  0
  162.8290  209.1710  148.7020 C   0  0  0  0  0  2  0  0  0  0  0  0
  160.5490  203.5200  152.7010 C   0  0  0  0  0  3  0  0  0  0  0  0
  161.0180  205.3850  148.9250 C   0  0  1  0  0  3  0  0  0  0  0  0
  160.5710  203.4160  150.3520 C   0  0  0  0  0  3  0  0  0  0  0  0
  160.8300  209.0900  151.4960 C   0  0  0  0  0  2  0  0  0  0  0  0
  162.1940  207.1020  147.6510 N   0  0  0  0  0  2  0  0  0  0  0  0
  162.0310  205.6600  147.8160 C   0  0  2  0  0  3  0  0  0  0  0  0
  161.5550  209.6320  149.2540 N   0  0  1  0  0  0  0  0  0  0  0  0
  162.0740  207.4400  150.1000 C   0  0  1  0  0  3  0  0  0  0  0  0
  160.8230  203.9790  149.0980 O   0  0  0  0  0  0  0  0  0  0  0  0
  161.2090  205.2700  144.1380 C   0  0  0  0  0  0  0  0  0  0  0  0
  160.8250  203.9270  144.0710 C   0  0  0  0  0  3  0  0  0  0  0  0
  161.6020  205.0460  146.5200 C   0  0  0  0  0  0  0  0  0  0  0  0
  160.8300  203.1410  145.2260 C   0  0  0  0  0  3  0  0  0  0  0  0
  161.5970  205.8280  145.3600 C   0  0  0  0  0  3  0  0  0  0  0  0
  161.2190  203.6970  146.4490 C   0  0  0  0  0  3  0  0  0  0  0  0
  161.2080  206.0300  143.0160 F   0  0  0  0  0  0  0  0  0  0  0  0
  160.4420  212.1840  154.4360 O   0  0  0  0  0  0  0  0  0  0  0  0
  161.0680  211.3350  152.3690 N   0  0  0  0  0  2  0  0  0  0  0  0
  161.0010  211.2560  153.7930 C   0  0  0  0  0  0  0  0  0  0  0  0
  161.5560  210.1600  154.4610 O   0  0  0  0  0  0  0  0  0  0  0  0
  160.7570  209.1530  155.0720 C   0  0  0  0  0  2  0  0  0  0  0  0
  161.5310  208.4460  156.1370 C   0  0  0  0  0  3  0  0  0  0  0  0
  162.3310  209.0530  156.8280 O   0  0  0  0  0  0  0  0  0  0  0  0
  1 12  1  0  0  0  0
  2  7  2  0  0  0  0
  3 29  1  1  0  0  0
  4  9  2  0  0  0  0
  5 11  1  6  0  0  0
  5 19  1  0  0  0  0
  7  6  1  0  0  0  0
  8 19  1  0  0  0  0
  8 15  1  1  0  0  0
  9  1  1  0  0  0  0
  9  2  1  0  0  0  0
 10  3  1  0  0  0  0
 12  6  2  0  0  0  0
 13 20  1  1  0  0  0
 13  4  1  0  0  0  0
 14  1  2  0  0  0  0
 15  3  1  0  0  0  0
 16 17  1  0  0  0  0
 16  5  1  0  0  0  0
 17 23  1  6  0  0  0
 17 13  1  0  0  0  0
 18 11  1  1  0  0  0
 18  8  1  0  0  0  0
 18 10  1  0  0  0  0
 19  4  1  6  0  0  0
 20 14  1  0  0  0  0
 21 25  1  0  0  0  0
 22 21  2  0  0  0  0
 22 24  1  0  0  0  0
 24 26  2  0  0  0  0
 25 23  2  0  0  0  0
 26 23  1  0  0  0  0
 27 21  1  0  0  0  0
 29 30  1  0  0  0  0
 30 28  2  0  0  0  0
 30 31  1  0  0  0  0
 31 32  1  0  0  0  0
 32 33  1  0  0  0  0
 33 34  2  0  0  0  0
M  END
>  <MODEL>
9

>  <REMARK>
 VINA RESULT:      -5.0      3.395      8.683
  Name = 
  5 active torsions:
  status: ('A' for Active; 'I' for Inactive)
    1  A    between atoms: C_3  and  N_13
    2  A    between atoms: C_12  and  C_28
    3  A    between atoms: C_14  and  O_33
    4  A    between atoms: C_20  and  C_22
    5  A    between atoms: C_22  and  O_33
                            x       y       z     vdW  Elec       q    Type
                         _______ _______ _______ _____ _____    ______ ____

>  <TORSDO>
F 5

$$$$
