=
 OpenBabel11052422133D

 25 27  0  0  1  0  0  0  0  0999 V2000
  161.3450  205.9000  148.9320 C   0  0  0  0  0  0  0  0  0  0  0  0
  161.5370  207.2150  149.5990 C   0  0  0  0  0  0  0  0  0  0  0  0
  160.9750  204.9010  151.1700 C   0  0  0  0  0  2  0  0  0  0  0  0
  161.5540  206.0970  151.6920 O   0  0  0  0  0  0  0  0  0  0  0  0
  161.8770  208.5770  151.6550 C   0  0  2  0  0  3  0  0  0  0  0  0
  160.6310  208.9580  152.4300 C   0  0  0  0  0  1  0  0  0  0  0  0
  161.6990  208.4020  148.8050 N   0  0  0  0  0  0  0  0  0  0  0  0
  161.1440  204.7940  149.6800 C   0  0  0  0  0  0  0  0  0  0  0  0
  160.8540  203.2120  148.9640 Cl  0  0  0  0  0  0  0  0  0  0  0  0
  162.2240  209.6580  150.7360 N   0  0  0  0  0  2  0  0  0  0  0  0
  162.0160  209.5450  149.3270 C   0  0  0  0  0  0  0  0  0  0  0  0
  161.6480  207.2710  150.9390 C   0  0  0  0  0  0  0  0  0  0  0  0
  161.4090  205.8270  147.4550 C   0  0  0  0  0  0  0  0  0  0  0  0
  161.5240  205.6430  144.6600 C   0  0  0  0  0  3  0  0  0  0  0  0
  160.2960  206.1810  146.6760 C   0  0  0  0  0  3  0  0  0  0  0  0
  160.3550  206.0910  145.2820 C   0  0  0  0  0  3  0  0  0  0  0  0
  162.6330  205.2820  145.4300 C   0  0  0  0  0  3  0  0  0  0  0  0
  162.5740  205.3730  146.8240 C   0  0  0  0  0  3  0  0  0  0  0  0
  162.2410  210.9700  148.2750 S   0  0  0  0  0  0  0  0  0  0  0  0
  161.3980  212.0690  149.4600 C   0  0  0  0  0  2  0  0  0  0  0  0
  161.1410  213.4560  148.8800 C   0  0  2  0  0  3  0  0  0  0  0  0
  160.4120  214.2440  149.7740 O   0  0  0  0  0  1  0  0  0  0  0  0
  160.4640  213.3870  147.5480 C   0  0  0  0  0  0  0  0  0  0  0  0
  159.1900  212.8440  147.4540 O   0  0  0  0  0  1  0  0  0  0  0  0
  161.0230  213.8490  146.5180 O   0  0  0  0  0  0  0  0  0  0  0  0
  1  2  1  0  0  0  0
  1  8  2  0  0  0  0
  2 12  2  0  0  0  0
  3  4  1  0  0  0  0
  5  6  1  6  0  0  0
  7 11  2  0  0  0  0
  7  2  1  0  0  0  0
  8  3  1  0  0  0  0
  9  8  1  0  0  0  0
 10  5  1  0  0  0  0
 11 10  1  0  0  0  0
 12  5  1  0  0  0  0
 12  4  1  0  0  0  0
 13  1  1  0  0  0  0
 14 16  2  0  0  0  0
 14 17  1  0  0  0  0
 15 13  2  0  0  0  0
 16 15  1  0  0  0  0
 17 18  2  0  0  0  0
 18 13  1  0  0  0  0
 19 11  1  0  0  0  0
 19 20  1  0  0  0  0
 21 20  1  0  0  0  0
 21 22  1  1  0  0  0
 23 21  1  0  0  0  0
 24 23  1  0  0  0  0
 25 23  2  0  0  0  0
M  END
>  <MODEL>
1

>  <REMARK>
 VINA RESULT:      -7.7      0.000      0.000
  Name = 
  5 active torsions:
  status: ('A' for Active; 'I' for Inactive)
    1  A    between atoms: C_1  and  C_5
    2  A    between atoms: C_2  and  C_21
    3  A    between atoms: S_6  and  C_15
    4  A    between atoms: S_6  and  C_23
    5  A    between atoms: C_15  and  C_21
                            x       y       z     vdW  Elec       q    Type
                         _______ _______ _______ _____ _____    ______ ____

>  <TORSDO>
F 5

$$$$
=
 OpenBabel11052422133D

 25 27  0  0  1  0  0  0  0  0999 V2000
  161.2650  204.4730  149.2030 C   0  0  0  0  0  0  0  0  0  0  0  0
  161.4730  205.4590  150.2960 C   0  0  0  0  0  0  0  0  0  0  0  0
  160.9020  202.7390  150.9360 C   0  0  0  0  0  2  0  0  0  0  0  0
  161.4940  203.6640  151.8470 O   0  0  0  0  0  0  0  0  0  0  0  0
  161.8390  205.9890  152.7010 C   0  0  2  0  0  3  0  0  0  0  0  0
  160.6010  206.0740  153.5730 C   0  0  0  0  0  1  0  0  0  0  0  0
  161.6390  206.8510  149.9800 N   0  0  0  0  0  0  0  0  0  0  0  0
  161.0590  203.1730  149.5060 C   0  0  0  0  0  0  0  0  0  0  0  0
  160.7500  201.9550  148.2720 Cl  0  0  0  0  0  0  0  0  0  0  0  0
  162.1890  207.3260  152.2280 N   0  0  0  0  0  2  0  0  0  0  0  0
  161.9690  207.7290  150.8740 C   0  0  0  0  0  0  0  0  0  0  0  0
  161.5930  205.0290  151.5660 C   0  0  0  0  0  0  0  0  0  0  0  0
  161.3170  204.9350  147.7980 C   0  0  0  0  0  0  0  0  0  0  0  0
  161.3960  205.7710  145.1230 C   0  0  0  0  0  3  0  0  0  0  0  0
  160.3880  205.8720  147.3220 C   0  0  0  0  0  3  0  0  0  0  0  0
  160.4290  206.2910  145.9890 C   0  0  0  0  0  3  0  0  0  0  0  0
  162.3200  204.8310  145.5890 C   0  0  0  0  0  3  0  0  0  0  0  0
  162.2780  204.4130  146.9230 C   0  0  0  0  0  3  0  0  0  0  0  0
  162.2000  209.4360  150.4020 S   0  0  0  0  0  0  0  0  0  0  0  0
  162.0580  210.0070  152.1280 C   0  0  0  0  0  2  0  0  0  0  0  0
  160.6270  210.3810  152.4970 C   0  0  2  0  0  3  0  0  0  0  0  0
  160.3350  211.6900  152.1050 O   0  0  0  0  0  1  0  0  0  0  0  0
  160.3580  210.1850  153.9560 C   0  0  0  0  0  0  0  0  0  0  0  0
  159.2300  210.7580  154.5280 O   0  0  0  0  0  0  0  0  0  0  0  0
  161.1240  209.4760  154.6610 O   0  0  0  0  0  1  0  0  0  0  0  0
  1  8  2  0  0  0  0
  1  2  1  0  0  0  0
  2 12  2  0  0  0  0
  3  4  1  0  0  0  0
  5  6  1  6  0  0  0
  7  2  1  0  0  0  0
  7 11  2  0  0  0  0
  8  3  1  0  0  0  0
  9  8  1  0  0  0  0
 10  5  1  0  0  0  0
 11 10  1  0  0  0  0
 12  4  1  0  0  0  0
 12  5  1  0  0  0  0
 13  1  1  0  0  0  0
 14 17  2  0  0  0  0
 14 16  1  0  0  0  0
 15 13  1  0  0  0  0
 16 15  2  0  0  0  0
 17 18  1  0  0  0  0
 18 13  2  0  0  0  0
 19 11  1  0  0  0  0
 19 20  1  0  0  0  0
 20 21  1  0  0  0  0
 21 22  1  1  0  0  0
 21 23  1  0  0  0  0
 23 24  2  0  0  0  0
 23 25  1  0  0  0  0
M  END
>  <MODEL>
2

>  <REMARK>
 VINA RESULT:      -7.6      2.721      3.517
  Name = 
  5 active torsions:
  status: ('A' for Active; 'I' for Inactive)
    1  A    between atoms: C_1  and  C_5
    2  A    between atoms: C_2  and  C_21
    3  A    between atoms: S_6  and  C_15
    4  A    between atoms: S_6  and  C_23
    5  A    between atoms: C_15  and  C_21
                            x       y       z     vdW  Elec       q    Type
                         _______ _______ _______ _____ _____    ______ ____

>  <TORSDO>
F 5

$$$$
=
 OpenBabel11052422133D

 25 27  0  0  1  0  0  0  0  0999 V2000
  161.3860  206.7790  148.8780 C   0  0  0  0  0  0  0  0  0  0  0  0
  161.1830  205.7490  149.9300 C   0  0  0  0  0  0  0  0  0  0  0  0
  161.5580  208.4770  150.6750 C   0  0  0  0  0  2  0  0  0  0  0  0
  160.9770  207.4910  151.5280 O   0  0  0  0  0  0  0  0  0  0  0  0
  160.7300  205.1240  152.2970 C   0  0  2  0  0  3  0  0  0  0  0  0
  161.9250  205.0850  153.2290 C   0  0  0  0  0  1  0  0  0  0  0  0
  161.1160  204.3600  149.5670 N   0  0  0  0  0  0  0  0  0  0  0  0
  161.4990  208.0780  149.2270 C   0  0  0  0  0  0  0  0  0  0  0  0
  161.7950  209.3490  148.0450 Cl  0  0  0  0  0  0  0  0  0  0  0  0
  160.4840  203.7840  151.7690 N   0  0  0  0  0  2  0  0  0  0  0  0
  160.7940  203.4370  150.4180 C   0  0  0  0  0  0  0  0  0  0  0  0
  160.9740  206.1310  151.2030 C   0  0  0  0  0  0  0  0  0  0  0  0
  161.4320  206.3580  147.4590 C   0  0  0  0  0  0  0  0  0  0  0  0
  161.5200  205.6060  144.7600 C   0  0  0  0  0  3  0  0  0  0  0  0
  162.6160  205.8510  146.9050 C   0  0  0  0  0  3  0  0  0  0  0  0
  162.6590  205.4740  145.5590 C   0  0  0  0  0  3  0  0  0  0  0  0
  160.3390  206.1170  145.3040 C   0  0  0  0  0  3  0  0  0  0  0  0
  160.2960  206.4930  146.6500 C   0  0  0  0  0  3  0  0  0  0  0  0
  160.6890  201.7350  149.8880 S   0  0  0  0  0  0  0  0  0  0  0  0
  161.0030  202.1830  148.1480 C   0  0  0  0  0  2  0  0  0  0  0  0
  160.6620  201.0480  147.1890 C   0  0  2  0  0  3  0  0  0  0  0  0
  161.5650  199.9910  147.3240 O   0  0  0  0  0  1  0  0  0  0  0  0
  160.5950  201.5180  145.7700 C   0  0  0  0  0  0  0  0  0  0  0  0
  160.0850  200.6750  144.7920 O   0  0  0  0  0  0  0  0  0  0  0  0
  160.9620  202.6820  145.4610 O   0  0  0  0  0  1  0  0  0  0  0  0
  1  8  2  0  0  0  0
  1  2  1  0  0  0  0
  2 12  2  0  0  0  0
  3  4  1  0  0  0  0
  5  6  1  1  0  0  0
  7  2  1  0  0  0  0
  7 11  2  0  0  0  0
  8  3  1  0  0  0  0
  9  8  1  0  0  0  0
 10  5  1  0  0  0  0
 11 10  1  0  0  0  0
 12  4  1  0  0  0  0
 12  5  1  0  0  0  0
 13  1  1  0  0  0  0
 14 17  2  0  0  0  0
 14 16  1  0  0  0  0
 15 13  1  0  0  0  0
 16 15  2  0  0  0  0
 17 18  1  0  0  0  0
 18 13  2  0  0  0  0
 19 11  1  0  0  0  0
 20 19  1  0  0  0  0
 21 22  1  6  0  0  0
 21 20  1  0  0  0  0
 23 21  1  0  0  0  0
 24 23  2  0  0  0  0
 25 23  1  0  0  0  0
M  END
>  <MODEL>
3

>  <REMARK>
 VINA RESULT:      -7.4      4.154      6.944
  Name = 
  5 active torsions:
  status: ('A' for Active; 'I' for Inactive)
    1  A    between atoms: C_1  and  C_5
    2  A    between atoms: C_2  and  C_21
    3  A    between atoms: S_6  and  C_15
    4  A    between atoms: S_6  and  C_23
    5  A    between atoms: C_15  and  C_21
                            x       y       z     vdW  Elec       q    Type
                         _______ _______ _______ _____ _____    ______ ____

>  <TORSDO>
F 5

$$$$
=
 OpenBabel11052422133D

 25 27  0  0  1  0  0  0  0  0999 V2000
  161.5920  207.6420  150.4670 C   0  0  0  0  0  0  0  0  0  0  0  0
  161.4970  206.6460  149.3680 C   0  0  0  0  0  0  0  0  0  0  0  0
  162.1310  209.3610  148.7650 C   0  0  0  0  0  2  0  0  0  0  0  0
  162.3930  208.2680  147.8850 O   0  0  0  0  0  0  0  0  0  0  0  0
  161.8620  205.9930  146.9940 C   0  0  2  0  0  3  0  0  0  0  0  0
  160.7890  206.4040  146.0040 C   0  0  0  0  0  1  0  0  0  0  0  0
  161.0590  205.3080  149.6530 N   0  0  0  0  0  0  0  0  0  0  0  0
  161.9550  208.9130  150.1890 C   0  0  0  0  0  0  0  0  0  0  0  0
  162.0370  210.1630  151.4260 Cl  0  0  0  0  0  0  0  0  0  0  0  0
  161.5980  204.6320  147.4540 N   0  0  0  0  0  2  0  0  0  0  0  0
  161.1000  204.3630  148.7660 C   0  0  0  0  0  0  0  0  0  0  0  0
  161.9080  206.9800  148.1300 C   0  0  0  0  0  0  0  0  0  0  0  0
  161.3120  207.2110  151.8550 C   0  0  0  0  0  0  0  0  0  0  0  0
  160.8280  206.3930  154.4920 C   0  0  0  0  0  3  0  0  0  0  0  0
  160.8400  208.1280  152.8050 C   0  0  0  0  0  3  0  0  0  0  0  0
  160.5960  207.7200  154.1190 C   0  0  0  0  0  3  0  0  0  0  0  0
  161.3050  205.4750  153.5530 C   0  0  0  0  0  3  0  0  0  0  0  0
  161.5480  205.8830  152.2380 C   0  0  0  0  0  3  0  0  0  0  0  0
  160.5780  202.7120  149.2020 S   0  0  0  0  0  0  0  0  0  0  0  0
  161.6220  201.9630  147.9080 C   0  0  0  0  0  2  0  0  0  0  0  0
  160.8300  201.0330  146.9940 C   0  0  2  0  0  3  0  0  0  0  0  0
  161.4960  199.8170  146.8210 O   0  0  0  0  0  1  0  0  0  0  0  0
  160.5270  201.6720  145.6760 C   0  0  0  0  0  0  0  0  0  0  0  0
  161.2000  202.8290  145.3050 O   0  0  0  0  0  1  0  0  0  0  0  0
  159.6950  201.1540  144.8860 O   0  0  0  0  0  0  0  0  0  0  0  0
  1 13  1  0  0  0  0
  2  7  1  0  0  0  0
  2  1  1  0  0  0  0
  3  8  1  0  0  0  0
  4 12  1  0  0  0  0
  4  3  1  0  0  0  0
  5  6  1  6  0  0  0
  5 10  1  0  0  0  0
  5 12  1  0  0  0  0
  8  1  2  0  0  0  0
  8  9  1  0  0  0  0
 10 11  1  0  0  0  0
 11 19  1  0  0  0  0
 11  7  2  0  0  0  0
 12  2  2  0  0  0  0
 13 18  2  0  0  0  0
 13 15  1  0  0  0  0
 15 16  2  0  0  0  0
 16 14  1  0  0  0  0
 17 14  2  0  0  0  0
 18 17  1  0  0  0  0
 20 19  1  0  0  0  0
 21 22  1  6  0  0  0
 21 20  1  0  0  0  0
 23 21  1  0  0  0  0
 24 23  1  0  0  0  0
 25 23  2  0  0  0  0
M  END
>  <MODEL>
4

>  <REMARK>
 VINA RESULT:      -7.0      4.223      7.984
  Name = 
  5 active torsions:
  status: ('A' for Active; 'I' for Inactive)
    1  A    between atoms: C_1  and  C_5
    2  A    between atoms: C_2  and  C_21
    3  A    between atoms: S_6  and  C_15
    4  A    between atoms: S_6  and  C_23
    5  A    between atoms: C_15  and  C_21
                            x       y       z     vdW  Elec       q    Type
                         _______ _______ _______ _____ _____    ______ ____

>  <TORSDO>
F 5

$$$$
=
 OpenBabel11052422133D

 25 27  0  0  1  0  0  0  0  0999 V2000
  161.5320  206.1020  149.8120 C   0  0  0  0  0  0  0  0  0  0  0  0
  161.3970  207.1240  150.8820 C   0  0  0  0  0  0  0  0  0  0  0  0
  162.2150  207.9150  148.2660 C   0  0  0  0  0  2  0  0  0  0  0  0
  161.6800  208.8120  149.2390 O   0  0  0  0  0  0  0  0  0  0  0  0
  161.2950  209.5030  151.6110 C   0  0  2  0  0  3  0  0  0  0  0  0
  162.6220  210.1990  151.8410 C   0  0  0  0  0  1  0  0  0  0  0  0
  161.1040  206.7160  152.2280 N   0  0  0  0  0  0  0  0  0  0  0  0
  161.8570  206.4840  148.5580 C   0  0  0  0  0  0  0  0  0  0  0  0
  162.0890  205.3290  147.2510 Cl  0  0  0  0  0  0  0  0  0  0  0  0
  160.8040  208.9670  152.8790 N   0  0  0  0  0  2  0  0  0  0  0  0
  160.8300  207.5680  153.1660 C   0  0  0  0  0  0  0  0  0  0  0  0
  161.4600  208.4310  150.5650 C   0  0  0  0  0  0  0  0  0  0  0  0
  161.2790  204.6810  150.1400 C   0  0  0  0  0  0  0  0  0  0  0  0
  160.8360  201.9770  150.7360 C   0  0  0  0  0  3  0  0  0  0  0  0
  161.6070  204.1720  151.4050 C   0  0  0  0  0  3  0  0  0  0  0  0
  161.3840  202.8240  151.7030 C   0  0  0  0  0  3  0  0  0  0  0  0
  160.5140  202.4750  149.4710 C   0  0  0  0  0  3  0  0  0  0  0  0
  160.7360  203.8230  149.1730 C   0  0  0  0  0  3  0  0  0  0  0  0
  160.4350  206.9860  154.8070 S   0  0  0  0  0  0  0  0  0  0  0  0
  161.6000  208.1560  155.5810 C   0  0  0  0  0  2  0  0  0  0  0  0
  160.8840  209.3070  156.2800 C   0  0  2  0  0  3  0  0  0  0  0  0
  159.5110  209.2710  156.0250 O   0  0  0  0  0  1  0  0  0  0  0  0
  161.4660  210.6340  155.9060 C   0  0  0  0  0  0  0  0  0  0  0  0
  162.8010  210.7160  155.5320 O   0  0  0  0  0  0  0  0  0  0  0  0
  160.7500  211.6690  155.8940 O   0  0  0  0  0  1  0  0  0  0  0  0
  1 13  1  0  0  0  0
  1  2  1  0  0  0  0
  2  7  1  0  0  0  0
  3  8  1  0  0  0  0
  3  4  1  0  0  0  0
  4 12  1  0  0  0  0
  5  6  1  1  0  0  0
  5 10  1  0  0  0  0
  7 11  2  0  0  0  0
  8  1  2  0  0  0  0
  9  8  1  0  0  0  0
 10 11  1  0  0  0  0
 11 19  1  0  0  0  0
 12  2  2  0  0  0  0
 12  5  1  0  0  0  0
 13 15  1  0  0  0  0
 14 16  1  0  0  0  0
 15 16  2  0  0  0  0
 17 14  2  0  0  0  0
 18 17  1  0  0  0  0
 18 13  2  0  0  0  0
 19 20  1  0  0  0  0
 20 21  1  0  0  0  0
 21 22  1  6  0  0  0
 23 21  1  0  0  0  0
 24 23  2  0  0  0  0
 25 23  1  0  0  0  0
M  END
>  <MODEL>
5

>  <REMARK>
 VINA RESULT:      -7.0      3.598      5.603
  Name = 
  5 active torsions:
  status: ('A' for Active; 'I' for Inactive)
    1  A    between atoms: C_1  and  C_5
    2  A    between atoms: C_2  and  C_21
    3  A    between atoms: S_6  and  C_15
    4  A    between atoms: S_6  and  C_23
    5  A    between atoms: C_15  and  C_21
                            x       y       z     vdW  Elec       q    Type
                         _______ _______ _______ _____ _____    ______ ____

>  <TORSDO>
F 5

$$$$
=
 OpenBabel11052422133D

 25 27  0  0  1  0  0  0  0  0999 V2000
  161.2610  203.9800  148.6910 C   0  0  0  0  0  0  0  0  0  0  0  0
  161.4200  204.8290  149.9010 C   0  0  0  0  0  0  0  0  0  0  0  0
  160.8830  202.0420  150.1880 C   0  0  0  0  0  2  0  0  0  0  0  0
  161.4330  202.8570  151.2220 O   0  0  0  0  0  0  0  0  0  0  0  0
  161.7100  205.0660  152.3620 C   0  0  2  0  0  3  0  0  0  0  0  0
  160.4470  205.0250  153.2010 C   0  0  0  0  0  1  0  0  0  0  0  0
  161.5690  206.2510  149.7620 N   0  0  0  0  0  0  0  0  0  0  0  0
  161.0710  202.6500  148.8270 C   0  0  0  0  0  0  0  0  0  0  0  0
  160.8200  201.5870  147.4460 Cl  0  0  0  0  0  0  0  0  0  0  0  0
  162.0470  206.4560  152.0660 N   0  0  0  0  0  2  0  0  0  0  0  0
  161.8580  207.0180  150.7660 C   0  0  0  0  0  0  0  0  0  0  0  0
  161.5140  204.2480  151.1120 C   0  0  0  0  0  0  0  0  0  0  0  0
  161.3440  204.6110  147.3550 C   0  0  0  0  0  0  0  0  0  0  0  0
  161.5160  205.8450  144.8430 C   0  0  0  0  0  3  0  0  0  0  0  0
  162.3850  204.2810  146.4740 C   0  0  0  0  0  3  0  0  0  0  0  0
  162.4690  204.8940  145.2210 C   0  0  0  0  0  3  0  0  0  0  0  0
  160.4810  206.1850  145.7180 C   0  0  0  0  0  3  0  0  0  0  0  0
  160.3960  205.5700  146.9720 C   0  0  0  0  0  3  0  0  0  0  0  0
  162.0690  208.7730  150.5120 S   0  0  0  0  0  0  0  0  0  0  0  0
  160.9250  209.1800  151.8720 C   0  0  0  0  0  2  0  0  0  0  0  0
  161.2710  210.5070  152.5400 C   0  0  2  0  0  3  0  0  0  0  0  0
  161.9400  210.2980  153.7490 O   0  0  0  0  0  1  0  0  0  0  0  0
  160.0610  211.3640  152.7360 C   0  0  0  0  0  0  0  0  0  0  0  0
  159.8600  212.4650  151.9130 O   0  0  0  0  0  0  0  0  0  0  0  0
  159.2060  211.0780  153.6150 O   0  0  0  0  0  1  0  0  0  0  0  0
  1  8  2  0  0  0  0
  1  2  1  0  0  0  0
  2 12  2  0  0  0  0
  3  4  1  0  0  0  0
  5  6  1  6  0  0  0
  7  2  1  0  0  0  0
  7 11  2  0  0  0  0
  8  3  1  0  0  0  0
  9  8  1  0  0  0  0
 10  5  1  0  0  0  0
 11 10  1  0  0  0  0
 12  4  1  0  0  0  0
 12  5  1  0  0  0  0
 13  1  1  0  0  0  0
 14 16  2  0  0  0  0
 14 17  1  0  0  0  0
 15 13  2  0  0  0  0
 16 15  1  0  0  0  0
 17 18  2  0  0  0  0
 18 13  1  0  0  0  0
 19 11  1  0  0  0  0
 19 20  1  0  0  0  0
 20 21  1  0  0  0  0
 21 23  1  0  0  0  0
 21 22  1  1  0  0  0
 23 25  1  0  0  0  0
 24 23  2  0  0  0  0
M  END
>  <MODEL>
6

>  <REMARK>
 VINA RESULT:      -6.9      2.723      3.593
  Name = 
  5 active torsions:
  status: ('A' for Active; 'I' for Inactive)
    1  A    between atoms: C_1  and  C_5
    2  A    between atoms: C_2  and  C_21
    3  A    between atoms: S_6  and  C_15
    4  A    between atoms: S_6  and  C_23
    5  A    between atoms: C_15  and  C_21
                            x       y       z     vdW  Elec       q    Type
                         _______ _______ _______ _____ _____    ______ ____

>  <TORSDO>
F 5

$$$$
=
 OpenBabel11052422133D

 25 27  0  0  1  0  0  0  0  0999 V2000
  161.2260  204.4440  147.8480 C   0  0  0  0  0  0  0  0  0  0  0  0
  161.3360  205.6720  148.6780 C   0  0  0  0  0  0  0  0  0  0  0  0
  161.4130  205.8770  145.8340 C   0  0  0  0  0  2  0  0  0  0  0  0
  161.1170  206.9690  146.7030 O   0  0  0  0  0  0  0  0  0  0  0  0
  161.3380  208.1520  148.8960 C   0  0  2  0  0  3  0  0  0  0  0  0
  162.6520  208.8560  148.6180 C   0  0  0  0  0  1  0  0  0  0  0  0
  161.4210  205.5620  150.1080 N   0  0  0  0  0  0  0  0  0  0  0  0
  161.1980  204.5470  146.5010 C   0  0  0  0  0  0  0  0  0  0  0  0
  161.1240  203.1380  145.4490 Cl  0  0  0  0  0  0  0  0  0  0  0  0
  161.2160  207.9050  150.3300 N   0  0  0  0  0  2  0  0  0  0  0  0
  161.3690  206.5980  150.8860 C   0  0  0  0  0  0  0  0  0  0  0  0
  161.2650  206.8810  148.0900 C   0  0  0  0  0  0  0  0  0  0  0  0
  161.1210  203.1290  148.5190 C   0  0  0  0  0  0  0  0  0  0  0  0
  160.9680  200.6370  149.7930 C   0  0  0  0  0  3  0  0  0  0  0  0
  160.7900  203.0490  149.8800 C   0  0  0  0  0  3  0  0  0  0  0  0
  160.7110  201.8060  150.5140 C   0  0  0  0  0  3  0  0  0  0  0  0
  161.3050  200.7090  148.4390 C   0  0  0  0  0  3  0  0  0  0  0  0
  161.3830  201.9530  147.8040 C   0  0  0  0  0  3  0  0  0  0  0  0
  161.4370  206.3830  152.6570 S   0  0  0  0  0  0  0  0  0  0  0  0
  160.6620  208.0060  152.9570 C   0  0  0  0  0  2  0  0  0  0  0  0
  161.1770  208.6670  154.2310 C   0  0  2  0  0  3  0  0  0  0  0  0
  160.2380  208.5650  155.2610 O   0  0  0  0  0  1  0  0  0  0  0  0
  161.5710  210.0920  154.0010 C   0  0  0  0  0  0  0  0  0  0  0  0
  161.5430  210.6100  152.7130 O   0  0  0  0  0  0  0  0  0  0  0  0
  161.8920  210.8340  154.9650 O   0  0  0  0  0  1  0  0  0  0  0  0
  1 13  1  0  0  0  0
  1  2  1  0  0  0  0
  2  7  1  0  0  0  0
  3  8  1  0  0  0  0
  3  4  1  0  0  0  0
  4 12  1  0  0  0  0
  5  6  1  1  0  0  0
  5 10  1  0  0  0  0
  7 11  2  0  0  0  0
  8  1  2  0  0  0  0
  9  8  1  0  0  0  0
 10 11  1  0  0  0  0
 11 19  1  0  0  0  0
 12  2  2  0  0  0  0
 12  5  1  0  0  0  0
 13 15  1  0  0  0  0
 14 16  1  0  0  0  0
 15 16  2  0  0  0  0
 17 14  2  0  0  0  0
 18 17  1  0  0  0  0
 18 13  2  0  0  0  0
 19 20  1  0  0  0  0
 20 21  1  0  0  0  0
 21 22  1  1  0  0  0
 23 21  1  0  0  0  0
 23 25  1  0  0  0  0
 24 23  2  0  0  0  0
M  END
>  <MODEL>
7

>  <REMARK>
 VINA RESULT:      -6.6      3.325      5.195
  Name = 
  5 active torsions:
  status: ('A' for Active; 'I' for Inactive)
    1  A    between atoms: C_1  and  C_5
    2  A    between atoms: C_2  and  C_21
    3  A    between atoms: S_6  and  C_15
    4  A    between atoms: S_6  and  C_23
    5  A    between atoms: C_15  and  C_21
                            x       y       z     vdW  Elec       q    Type
                         _______ _______ _______ _____ _____    ______ ____

>  <TORSDO>
F 5

$$$$
=
 OpenBabel11052422133D

 25 27  0  0  1  0  0  0  0  0999 V2000
  161.2450  204.1750  149.9060 C   0  0  0  0  0  0  0  0  0  0  0  0
  161.4740  205.5900  150.3000 C   0  0  0  0  0  0  0  0  0  0  0  0
  160.9030  203.6400  152.3020 C   0  0  0  0  0  2  0  0  0  0  0  0
  161.5130  204.9020  152.5700 O   0  0  0  0  0  0  0  0  0  0  0  0
  161.8800  207.3200  152.0440 C   0  0  2  0  0  3  0  0  0  0  0  0
  160.6560  207.8720  152.7500 C   0  0  0  0  0  1  0  0  0  0  0  0
  161.6400  206.5950  149.2870 N   0  0  0  0  0  0  0  0  0  0  0  0
  161.0390  203.2410  150.8600 C   0  0  0  0  0  0  0  0  0  0  0  0
  160.7070  201.5560  150.4720 Cl  0  0  0  0  0  0  0  0  0  0  0  0
  162.2270  208.1920  150.9250 N   0  0  0  0  0  2  0  0  0  0  0  0
  161.9880  207.8120  149.5690 C   0  0  0  0  0  0  0  0  0  0  0  0
  161.6130  205.9040  151.6010 C   0  0  0  0  0  0  0  0  0  0  0  0
  161.2770  203.8140  148.4710 C   0  0  0  0  0  0  0  0  0  0  0  0
  161.2910  203.1300  145.7530 C   0  0  0  0  0  3  0  0  0  0  0  0
  161.5750  204.7810  147.5000 C   0  0  0  0  0  3  0  0  0  0  0  0
  161.5840  204.4390  146.1440 C   0  0  0  0  0  3  0  0  0  0  0  0
  160.9850  202.1630  146.7140 C   0  0  0  0  0  3  0  0  0  0  0  0
  160.9770  202.5050  148.0700 C   0  0  0  0  0  3  0  0  0  0  0  0
  162.2170  208.9990  148.2550 S   0  0  0  0  0  0  0  0  0  0  0  0
  161.9540  210.4070  149.3830 C   0  0  0  0  0  2  0  0  0  0  0  0
  161.8550  211.7340  148.6380 C   0  0  2  0  0  3  0  0  0  0  0  0
  163.1210  212.1910  148.2630 O   0  0  0  0  0  1  0  0  0  0  0  0
  161.1240  212.7670  149.4350 C   0  0  0  0  0  0  0  0  0  0  0  0
  160.5240  212.4090  150.6350 O   0  0  0  0  0  1  0  0  0  0  0  0
  161.0780  213.9640  149.0470 O   0  0  0  0  0  0  0  0  0  0  0  0
  1  2  1  0  0  0  0
  1  8  2  0  0  0  0
  2 12  2  0  0  0  0
  3  4  1  0  0  0  0
  5  6  1  6  0  0  0
  7 11  2  0  0  0  0
  7  2  1  0  0  0  0
  8  3  1  0  0  0  0
  9  8  1  0  0  0  0
 10  5  1  0  0  0  0
 11 10  1  0  0  0  0
 12  5  1  0  0  0  0
 12  4  1  0  0  0  0
 13  1  1  0  0  0  0
 14 16  2  0  0  0  0
 14 17  1  0  0  0  0
 15 13  2  0  0  0  0
 16 15  1  0  0  0  0
 17 18  2  0  0  0  0
 18 13  1  0  0  0  0
 19 20  1  0  0  0  0
 19 11  1  0  0  0  0
 21 22  1  1  0  0  0
 21 20  1  0  0  0  0
 21 23  1  0  0  0  0
 23 24  1  0  0  0  0
 25 23  2  0  0  0  0
M  END
>  <MODEL>
8

>  <REMARK>
 VINA RESULT:      -6.5      1.785      2.286
  Name = 
  5 active torsions:
  status: ('A' for Active; 'I' for Inactive)
    1  A    between atoms: C_1  and  C_5
    2  A    between atoms: C_2  and  C_21
    3  A    between atoms: S_6  and  C_15
    4  A    between atoms: S_6  and  C_23
    5  A    between atoms: C_15  and  C_21
                            x       y       z     vdW  Elec       q    Type
                         _______ _______ _______ _____ _____    ______ ____

>  <TORSDO>
F 5

$$$$
=
 OpenBabel11052422133D

 25 27  0  0  1  0  0  0  0  0999 V2000
  161.3820  205.4500  151.0070 C   0  0  0  0  0  0  0  0  0  0  0  0
  161.7460  206.3410  149.8740 C   0  0  0  0  0  0  0  0  0  0  0  0
  161.4690  207.4300  152.4960 C   0  0  0  0  0  2  0  0  0  0  0  0
  162.1760  208.0740  151.4360 O   0  0  0  0  0  0  0  0  0  0  0  0
  162.5500  208.5310  149.0060 C   0  0  2  0  0  3  0  0  0  0  0  0
  161.5060  209.6190  148.8390 C   0  0  0  0  0  1  0  0  0  0  0  0
  161.7670  205.8200  148.5350 N   0  0  0  0  0  0  0  0  0  0  0  0
  161.3150  205.9540  152.2580 C   0  0  0  0  0  0  0  0  0  0  0  0
  160.8380  204.9770  153.6430 Cl  0  0  0  0  0  0  0  0  0  0  0  0
  162.7220  207.8280  147.7370 N   0  0  0  0  0  2  0  0  0  0  0  0
  162.2170  206.5080  147.5320 C   0  0  0  0  0  0  0  0  0  0  0  0
  162.1400  207.6040  150.1200 C   0  0  0  0  0  0  0  0  0  0  0  0
  161.1290  204.0160  150.7420 C   0  0  0  0  0  0  0  0  0  0  0  0
  160.6750  201.3030  150.2010 C   0  0  0  0  0  3  0  0  0  0  0  0
  161.8320  203.0270  151.4460 C   0  0  0  0  0  3  0  0  0  0  0  0
  161.6030  201.6740  151.1780 C   0  0  0  0  0  3  0  0  0  0  0  0
  159.9770  202.2830  149.4900 C   0  0  0  0  0  3  0  0  0  0  0  0
  160.2050  203.6360  149.7590 C   0  0  0  0  0  3  0  0  0  0  0  0
  162.2520  205.7820  145.9010 S   0  0  0  0  0  0  0  0  0  0  0  0
  161.5740  204.2030  146.5100 C   0  0  0  0  0  2  0  0  0  0  0  0
  161.2350  203.2430  145.3750 C   0  0  2  0  0  3  0  0  0  0  0  0
  160.3350  203.8260  144.4790 O   0  0  0  0  0  1  0  0  0  0  0  0
  160.7140  201.9370  145.8860 C   0  0  0  0  0  0  0  0  0  0  0  0
  159.6300  201.3390  145.2570 O   0  0  0  0  0  0  0  0  0  0  0  0
  161.2710  201.3580  146.8560 O   0  0  0  0  0  1  0  0  0  0  0  0
  1  8  2  0  0  0  0
  2 12  2  0  0  0  0
  2  1  1  0  0  0  0
  4  3  1  0  0  0  0
  5  6  1  6  0  0  0
  5 12  1  0  0  0  0
  7  2  1  0  0  0  0
  8  3  1  0  0  0  0
  8  9  1  0  0  0  0
 10  5  1  0  0  0  0
 11 10  1  0  0  0  0
 11  7  2  0  0  0  0
 12  4  1  0  0  0  0
 13  1  1  0  0  0  0
 13 15  1  0  0  0  0
 14 16  1  0  0  0  0
 16 15  2  0  0  0  0
 17 18  1  0  0  0  0
 17 14  2  0  0  0  0
 18 13  2  0  0  0  0
 19 20  1  0  0  0  0
 19 11  1  0  0  0  0
 21 22  1  6  0  0  0
 21 23  1  0  0  0  0
 21 20  1  0  0  0  0
 23 25  1  0  0  0  0
 24 23  2  0  0  0  0
M  END
>  <MODEL>
9

>  <REMARK>
 VINA RESULT:      -6.4      3.554      6.617
  Name = 
  5 active torsions:
  status: ('A' for Active; 'I' for Inactive)
    1  A    between atoms: C_1  and  C_5
    2  A    between atoms: C_2  and  C_21
    3  A    between atoms: S_6  and  C_15
    4  A    between atoms: S_6  and  C_23
    5  A    between atoms: C_15  and  C_21
                            x       y       z     vdW  Elec       q    Type
                         _______ _______ _______ _____ _____    ______ ____

>  <TORSDO>
F 5

$$$$
