=
 OpenBabel11062408253D

 32 36  0  0  1  0  0  0  0  0999 V2000
  160.6630  209.4580  154.0580 N   0  0  0  0  0  0  0  0  0  0  0  0
  159.5560  211.2120  153.1390 C   0  0  0  0  0  0  0  0  0  0  0  0
  158.5650  210.3510  155.1660 C   0  0  0  0  0  3  0  0  0  0  0  0
  157.5640  214.0670  151.8640 C   0  0  0  0  0  3  0  0  0  0  0  0
  159.5490  210.3290  154.1750 C   0  0  0  0  0  0  0  0  0  0  0  0
  156.5440  213.2050  153.8910 C   0  0  0  0  0  3  0  0  0  0  0  0
  157.5490  212.2400  153.9910 C   0  0  0  0  0  0  0  0  0  0  0  0
  157.5530  211.3230  155.0630 C   0  0  0  0  0  3  0  0  0  0  0  0
  160.6500  210.9750  152.3220 O   0  0  0  0  0  0  0  0  0  0  0  0
  161.3990  209.8720  152.8590 C   0  0  2  0  0  3  0  0  0  0  0  0
  158.5720  212.1900  153.0080 C   0  0  0  0  0  0  0  0  0  0  0  0
  156.5520  214.1160  152.8290 C   0  0  0  0  0  3  0  0  0  0  0  0
  158.5750  213.1040  151.9500 C   0  0  0  0  0  3  0  0  0  0  0  0
  162.0160  207.8820  149.6630 C   0  0  0  0  0  0  0  0  0  0  0  0
  162.4460  208.0730  148.3900 F   0  0  0  0  0  0  0  0  0  0  0  0
  161.4680  208.7420  151.8700 C   0  0  0  0  0  0  0  0  0  0  0  0
  161.6700  206.5950  150.0810 C   0  0  0  0  0  3  0  0  0  0  0  0
  161.1320  207.4430  152.2790 C   0  0  0  0  0  3  0  0  0  0  0  0
  161.9200  208.9610  150.5540 C   0  0  0  0  0  0  0  0  0  0  0  0
  162.3050  210.3300  150.0920 C   0  0  0  0  0  1  0  0  0  0  0  0
  161.2260  206.3680  151.3930 C   0  0  0  0  0  0  0  0  0  0  0  0
  160.7990  203.9670  150.9730 C   0  0  0  0  0  1  0  0  0  0  0  0
  160.8790  205.0910  151.8410 O   0  0  0  0  0  0  0  0  0  0  0  0
  160.2590  207.2490  155.0330 C   0  0  0  0  0  2  0  0  0  0  0  0
  161.1380  208.4830  155.0360 C   0  0  2  0  0  3  0  0  0  0  0  0
  161.1230  209.0560  156.3750 N   0  0  0  0  0  0  0  0  0  0  0  0
  160.8320  207.9400  157.2610 C   0  0  0  0  0  2  0  0  0  0  0  0
  159.9880  206.9520  156.4870 C   0  0  0  0  0  2  0  0  0  0  0  0
  162.4770  209.4910  156.6680 C   0  0  0  0  0  2  0  0  0  0  0  0
  162.5900  210.9830  156.4440 C   0  0  0  0  0  2  0  0  0  0  0  0
  161.5350  211.6970  157.2610 C   0  0  0  0  0  2  0  0  0  0  0  0
  160.7980  212.5410  156.4300 O   0  0  0  0  0  1  0  0  0  0  0  0
  1  5  1  0  0  0  0
  2  5  1  0  0  0  0
  4 13  2  0  0  0  0
  4 12  1  0  0  0  0
  5  3  2  0  0  0  0
  6  7  1  0  0  0  0
  7  8  2  0  0  0  0
  8  3  1  0  0  0  0
  9 10  1  0  0  0  0
  9  2  1  0  0  0  0
 10 16  1  6  0  0  0
 10  1  1  0  0  0  0
 11  2  2  0  0  0  0
 11  7  1  0  0  0  0
 12  6  2  0  0  0  0
 13 11  1  0  0  0  0
 14 17  2  0  0  0  0
 14 19  1  0  0  0  0
 15 14  1  0  0  0  0
 16 18  1  0  0  0  0
 17 21  1  0  0  0  0
 19 16  2  0  0  0  0
 20 19  1  0  0  0  0
 21 23  1  0  0  0  0
 21 18  2  0  0  0  0
 22 23  1  0  0  0  0
 24 25  1  0  0  0  0
 24 28  1  0  0  0  0
 25  1  1  6  0  0  0
 25 26  1  0  0  0  0
 26 29  1  0  0  0  0
 26 27  1  0  0  0  0
 28 27  1  0  0  0  0
 30 29  1  0  0  0  0
 30 31  1  0  0  0  0
 32 31  1  0  0  0  0
M  END
>  <MODEL>
1

>  <REMARK>
 VINA RESULT:      -7.1      0.000      0.000
  Name = 
  6 active torsions:
  status: ('A' for Active; 'I' for Inactive)
    1  A    between atoms: N_1  and  C_5
    2  A    between atoms: C_13  and  C_18
    3  A    between atoms: N_14  and  C_29
    4  A    between atoms: O_15  and  C_26
    5  A    between atoms: C_16  and  C_27
    6  A    between atoms: C_18  and  C_29
                            x       y       z     vdW  Elec       q    Type
                         _______ _______ _______ _____ _____    ______ ____

>  <TORSDO>
F 6

$$$$
=
 OpenBabel11062408253D

 32 36  0  0  1  0  0  0  0  0999 V2000
  161.1150  210.3430  151.9120 N   0  0  0  0  0  0  0  0  0  0  0  0
  161.7960  211.3270  149.9840 C   0  0  0  0  0  0  0  0  0  0  0  0
  160.0660  212.5270  151.1660 C   0  0  0  0  0  3  0  0  0  0  0  0
  162.7240  213.1510  146.8930 C   0  0  0  0  0  3  0  0  0  0  0  0
  160.9410  211.4460  151.0360 C   0  0  0  0  0  0  0  0  0  0  0  0
  160.9740  214.3640  148.0580 C   0  0  0  0  0  3  0  0  0  0  0  0
  160.9590  213.3900  149.0590 C   0  0  0  0  0  0  0  0  0  0  0  0
  160.0810  213.5070  150.1560 C   0  0  0  0  0  3  0  0  0  0  0  0
  162.5560  210.1760  150.1200 O   0  0  0  0  0  0  0  0  0  0  0  0
  162.1740  209.5090  151.3340 C   0  0  2  0  0  3  0  0  0  0  0  0
  161.8400  212.2790  148.9680 C   0  0  0  0  0  0  0  0  0  0  0  0
  161.8540  214.2440  146.9780 C   0  0  0  0  0  3  0  0  0  0  0  0
  162.7180  212.1660  147.8860 C   0  0  0  0  0  3  0  0  0  0  0  0
  161.0190  205.8990  151.7780 C   0  0  0  0  0  0  0  0  0  0  0  0
  160.9130  204.9570  152.7480 F   0  0  0  0  0  0  0  0  0  0  0  0
  161.6530  208.1290  151.0430 C   0  0  0  0  0  0  0  0  0  0  0  0
  160.5900  205.5970  150.4830 C   0  0  0  0  0  3  0  0  0  0  0  0
  161.2110  207.8140  149.7490 C   0  0  0  0  0  3  0  0  0  0  0  0
  161.5480  207.1660  152.0660 C   0  0  0  0  0  0  0  0  0  0  0  0
  161.9910  207.4760  153.4600 C   0  0  0  0  0  1  0  0  0  0  0  0
  160.6840  206.5540  149.4600 C   0  0  0  0  0  0  0  0  0  0  0  0
  161.1370  206.3010  147.0410 C   0  0  0  0  0  1  0  0  0  0  0  0
  160.2580  206.2820  148.1580 O   0  0  0  0  0  0  0  0  0  0  0  0
  159.0300  210.3070  153.1940 C   0  0  0  0  0  2  0  0  0  0  0  0
  160.5380  210.1600  153.2400 C   0  0  2  0  0  3  0  0  0  0  0  0
  161.0680  211.1510  154.1670 N   0  0  0  0  0  0  0  0  0  0  0  0
  159.9840  211.4170  155.0990 C   0  0  0  0  0  2  0  0  0  0  0  0
  158.6830  211.2030  154.3570 C   0  0  0  0  0  2  0  0  0  0  0  0
  162.1280  210.5050  154.9200 C   0  0  0  0  0  2  0  0  0  0  0  0
  162.0370  210.9110  156.3750 C   0  0  0  0  0  2  0  0  0  0  0  0
  162.6570  209.8340  157.2380 C   0  0  0  0  0  2  0  0  0  0  0  0
  162.1630  208.5880  156.8510 O   0  0  0  0  0  1  0  0  0  0  0  0
  2  9  1  0  0  0  0
  2  5  1  0  0  0  0
  4 12  1  0  0  0  0
  4 13  2  0  0  0  0
  5  3  2  0  0  0  0
  5  1  1  0  0  0  0
  6  7  1  0  0  0  0
  7  8  2  0  0  0  0
  8  3  1  0  0  0  0
  9 10  1  0  0  0  0
 10 16  1  6  0  0  0
 10  1  1  0  0  0  0
 11  7  1  0  0  0  0
 11  2  2  0  0  0  0
 12  6  2  0  0  0  0
 13 11  1  0  0  0  0
 14 19  1  0  0  0  0
 14 15  1  0  0  0  0
 16 19  2  0  0  0  0
 17 14  2  0  0  0  0
 18 16  1  0  0  0  0
 19 20  1  0  0  0  0
 21 18  2  0  0  0  0
 21 17  1  0  0  0  0
 22 23  1  0  0  0  0
 23 21  1  0  0  0  0
 24 25  1  0  0  0  0
 24 28  1  0  0  0  0
 25  1  1  6  0  0  0
 25 26  1  0  0  0  0
 26 29  1  0  0  0  0
 26 27  1  0  0  0  0
 28 27  1  0  0  0  0
 29 30  1  0  0  0  0
 30 31  1  0  0  0  0
 32 31  1  0  0  0  0
M  END
>  <MODEL>
2

>  <REMARK>
 VINA RESULT:      -7.0      2.593      4.283
  Name = 
  6 active torsions:
  status: ('A' for Active; 'I' for Inactive)
    1  A    between atoms: N_1  and  C_5
    2  A    between atoms: C_13  and  C_18
    3  A    between atoms: N_14  and  C_29
    4  A    between atoms: O_15  and  C_26
    5  A    between atoms: C_16  and  C_27
    6  A    between atoms: C_18  and  C_29
                            x       y       z     vdW  Elec       q    Type
                         _______ _______ _______ _____ _____    ______ ____

>  <TORSDO>
F 6

$$$$
=
 OpenBabel11062408253D

 32 36  0  0  1  0  0  0  0  0999 V2000
  161.3480  212.9860  140.5350 N   0  0  0  0  0  0  0  0  0  0  0  0
  160.8490  212.6770  142.7260 C   0  0  0  0  0  0  0  0  0  0  0  0
  162.8980  213.8910  142.3260 C   0  0  0  0  0  3  0  0  0  0  0  0
  160.2720  212.3270  146.3710 C   0  0  0  0  0  3  0  0  0  0  0  0
  161.7620  213.2180  141.8720 C   0  0  0  0  0  0  0  0  0  0  0  0
  162.3430  213.5340  145.9890 C   0  0  0  0  0  3  0  0  0  0  0  0
  162.1520  213.4310  144.6090 C   0  0  0  0  0  0  0  0  0  0  0  0
  163.0890  213.9920  143.7160 C   0  0  0  0  0  3  0  0  0  0  0  0
  159.8190  212.0900  142.0090 O   0  0  0  0  0  0  0  0  0  0  0  0
  160.0760  212.2600  140.6050 C   0  0  2  0  0  3  0  0  0  0  0  0
  161.0050  212.7610  144.1080 C   0  0  0  0  0  0  0  0  0  0  0  0
  161.4040  212.9820  146.8680 C   0  0  0  0  0  3  0  0  0  0  0  0
  160.0700  212.2130  144.9920 C   0  0  0  0  0  3  0  0  0  0  0  0
  159.4720  209.3370  138.2280 C   0  0  0  0  0  0  0  0  0  0  0  0
  158.6310  208.9720  137.2280 F   0  0  0  0  0  0  0  0  0  0  0  0
  160.1950  210.9280  139.9190 C   0  0  0  0  0  0  0  0  0  0  0  0
  160.5050  208.4740  138.6010 C   0  0  0  0  0  3  0  0  0  0  0  0
  161.2320  210.0550  140.2780 C   0  0  0  0  0  3  0  0  0  0  0  0
  159.3130  210.5690  138.8810 C   0  0  0  0  0  0  0  0  0  0  0  0
  158.2090  211.4860  138.4600 C   0  0  0  0  0  1  0  0  0  0  0  0
  161.3920  208.8280  139.6300 C   0  0  0  0  0  0  0  0  0  0  0  0
  162.3980  206.5780  139.8410 C   0  0  0  0  0  1  0  0  0  0  0  0
  162.4370  207.9870  140.0200 O   0  0  0  0  0  0  0  0  0  0  0  0
  160.8410  214.0380  138.3840 C   0  0  0  0  0  2  0  0  0  0  0  0
  161.9280  213.5410  139.3150 C   0  0  2  0  0  3  0  0  0  0  0  0
  162.7060  212.5280  138.6150 N   0  0  0  0  0  0  0  0  0  0  0  0
  162.5620  212.8480  137.2030 C   0  0  0  0  0  2  0  0  0  0  0  0
  161.2120  213.5060  137.0210 C   0  0  0  0  0  2  0  0  0  0  0  0
  164.0990  212.7460  138.9600 C   0  0  0  0  0  2  0  0  0  0  0  0
  164.4010  214.2290  138.9410 C   0  0  0  0  0  2  0  0  0  0  0  0
  165.8930  214.4370  138.7900 C   0  0  0  0  0  2  0  0  0  0  0  0
  166.5130  213.2080  138.5670 O   0  0  0  0  0  1  0  0  0  0  0  0
  1 10  1  0  0  0  0
  1  5  1  0  0  0  0
  2 11  1  0  0  0  0
  3  8  2  0  0  0  0
  4 12  1  0  0  0  0
  5  3  1  0  0  0  0
  5  2  2  0  0  0  0
  6 12  2  0  0  0  0
  7  6  1  0  0  0  0
  8  7  1  0  0  0  0
  9  2  1  0  0  0  0
 10 16  1  6  0  0  0
 10  9  1  0  0  0  0
 11  7  2  0  0  0  0
 11 13  1  0  0  0  0
 13  4  2  0  0  0  0
 14 17  2  0  0  0  0
 14 19  1  0  0  0  0
 15 14  1  0  0  0  0
 16 18  1  0  0  0  0
 17 21  1  0  0  0  0
 19 16  2  0  0  0  0
 20 19  1  0  0  0  0
 21 23  1  0  0  0  0
 21 18  2  0  0  0  0
 22 23  1  0  0  0  0
 25 24  1  6  0  0  0
 25  1  1  0  0  0  0
 26 29  1  0  0  0  0
 26 25  1  0  0  0  0
 27 26  1  0  0  0  0
 28 27  1  0  0  0  0
 28 24  1  0  0  0  0
 30 29  1  0  0  0  0
 31 30  1  0  0  0  0
 32 31  1  0  0  0  0
M  END
>  <MODEL>
3

>  <REMARK>
 VINA RESULT:      -6.9     10.670     13.847
  Name = 
  6 active torsions:
  status: ('A' for Active; 'I' for Inactive)
    1  A    between atoms: N_1  and  C_5
    2  A    between atoms: C_13  and  C_18
    3  A    between atoms: N_14  and  C_29
    4  A    between atoms: O_15  and  C_26
    5  A    between atoms: C_16  and  C_27
    6  A    between atoms: C_18  and  C_29
                            x       y       z     vdW  Elec       q    Type
                         _______ _______ _______ _____ _____    ______ ____

>  <TORSDO>
F 6

$$$$
=
 OpenBabel11062408253D

 32 36  0  0  1  0  0  0  0  0999 V2000
  161.1080  210.4480  151.8710 N   0  0  0  0  0  0  0  0  0  0  0  0
  161.7680  211.4510  149.9460 C   0  0  0  0  0  0  0  0  0  0  0  0
  159.9800  212.5850  151.1060 C   0  0  0  0  0  3  0  0  0  0  0  0
  162.6540  213.3000  146.8580 C   0  0  0  0  0  3  0  0  0  0  0  0
  160.8990  211.5400  150.9900 C   0  0  0  0  0  0  0  0  0  0  0  0
  160.8440  214.4460  148.0000 C   0  0  0  0  0  3  0  0  0  0  0  0
  160.8590  213.4750  149.0050 C   0  0  0  0  0  0  0  0  0  0  0  0
  159.9650  213.5600  150.0920 C   0  0  0  0  0  3  0  0  0  0  0  0
  162.5730  210.3330  150.0950 O   0  0  0  0  0  0  0  0  0  0  0  0
  162.2060  209.6540  151.3080 C   0  0  2  0  0  3  0  0  0  0  0  0
  161.7840  212.4010  148.9270 C   0  0  0  0  0  0  0  0  0  0  0  0
  161.7400  214.3570  146.9290 C   0  0  0  0  0  3  0  0  0  0  0  0
  162.6780  212.3190  147.8550 C   0  0  0  0  0  3  0  0  0  0  0  0
  161.1410  206.4990  149.4450 C   0  0  0  0  0  0  0  0  0  0  0  0
  160.9290  206.0670  148.1770 F   0  0  0  0  0  0  0  0  0  0  0  0
  161.7440  208.2540  151.0170 C   0  0  0  0  0  0  0  0  0  0  0  0
  160.9710  205.6090  150.5080 C   0  0  0  0  0  3  0  0  0  0  0  0
  161.5770  207.3470  152.0740 C   0  0  0  0  0  3  0  0  0  0  0  0
  161.5320  207.8240  149.6920 C   0  0  0  0  0  0  0  0  0  0  0  0
  161.7200  208.7610  148.5420 C   0  0  0  0  0  1  0  0  0  0  0  0
  161.1890  206.0280  151.8290 C   0  0  0  0  0  0  0  0  0  0  0  0
  160.9050  203.7500  152.7540 C   0  0  0  0  0  1  0  0  0  0  0  0
  161.0320  205.1570  152.9110 O   0  0  0  0  0  0  0  0  0  0  0  0
  159.0510  210.5990  153.1890 C   0  0  0  0  0  2  0  0  0  0  0  0
  160.5250  210.2470  153.1950 C   0  0  2  0  0  3  0  0  0  0  0  0
  161.1940  211.0850  154.1790 N   0  0  0  0  0  0  0  0  0  0  0  0
  160.1660  211.4250  155.1500 C   0  0  0  0  0  2  0  0  0  0  0  0
  158.8410  211.4440  154.4210 C   0  0  0  0  0  2  0  0  0  0  0  0
  162.1650  210.2480  154.8630 C   0  0  0  0  0  2  0  0  0  0  0  0
  161.5290  209.6320  156.0900 C   0  0  0  0  0  2  0  0  0  0  0  0
  161.6120  208.1240  155.9970 C   0  0  0  0  0  2  0  0  0  0  0  0
  160.4250  207.6270  155.4580 O   0  0  0  0  0  1  0  0  0  0  0  0
  2  9  1  0  0  0  0
  2  5  1  0  0  0  0
  4 12  1  0  0  0  0
  4 13  2  0  0  0  0
  5  3  2  0  0  0  0
  5  1  1  0  0  0  0
  6  7  1  0  0  0  0
  7  8  2  0  0  0  0
  8  3  1  0  0  0  0
  9 10  1  0  0  0  0
 10 16  1  6  0  0  0
 10  1  1  0  0  0  0
 11  7  1  0  0  0  0
 11  2  2  0  0  0  0
 12  6  2  0  0  0  0
 13 11  1  0  0  0  0
 14 19  2  0  0  0  0
 14 17  1  0  0  0  0
 15 14  1  0  0  0  0
 16 18  2  0  0  0  0
 17 21  2  0  0  0  0
 19 16  1  0  0  0  0
 20 19  1  0  0  0  0
 21 18  1  0  0  0  0
 21 23  1  0  0  0  0
 22 23  1  0  0  0  0
 24 25  1  0  0  0  0
 24 28  1  0  0  0  0
 25  1  1  6  0  0  0
 25 26  1  0  0  0  0
 26 29  1  0  0  0  0
 26 27  1  0  0  0  0
 28 27  1  0  0  0  0
 29 30  1  0  0  0  0
 31 30  1  0  0  0  0
 32 31  1  0  0  0  0
M  END
>  <MODEL>
4

>  <REMARK>
 VINA RESULT:      -6.4      2.360      4.023
  Name = 
  6 active torsions:
  status: ('A' for Active; 'I' for Inactive)
    1  A    between atoms: N_1  and  C_5
    2  A    between atoms: C_13  and  C_18
    3  A    between atoms: N_14  and  C_29
    4  A    between atoms: O_15  and  C_26
    5  A    between atoms: C_16  and  C_27
    6  A    between atoms: C_18  and  C_29
                            x       y       z     vdW  Elec       q    Type
                         _______ _______ _______ _____ _____    ______ ____

>  <TORSDO>
F 6

$$$$
=
 OpenBabel11062408253D

 32 36  0  0  1  0  0  0  0  0999 V2000
  161.2280  205.4110  148.2180 N   0  0  0  0  0  0  0  0  0  0  0  0
  161.0000  206.8190  149.9820 C   0  0  0  0  0  0  0  0  0  0  0  0
  162.5010  207.6030  148.2610 C   0  0  0  0  0  3  0  0  0  0  0  0
  160.8040  209.3040  152.7260 C   0  0  0  0  0  3  0  0  0  0  0  0
  161.6260  206.6500  148.7850 C   0  0  0  0  0  0  0  0  0  0  0  0
  162.3290  210.1030  151.0140 C   0  0  0  0  0  3  0  0  0  0  0  0
  162.0960  208.9480  150.2630 C   0  0  0  0  0  0  0  0  0  0  0  0
  162.7360  208.7650  149.0190 C   0  0  0  0  0  3  0  0  0  0  0  0
  160.1790  205.7340  150.2450 O   0  0  0  0  0  0  0  0  0  0  0  0
  160.2760  204.8040  149.1530 C   0  0  2  0  0  3  0  0  0  0  0  0
  161.2060  207.9580  150.7580 C   0  0  0  0  0  0  0  0  0  0  0  0
  161.6840  210.2790  152.2430 C   0  0  0  0  0  3  0  0  0  0  0  0
  160.5640  208.1420  151.9860 C   0  0  0  0  0  3  0  0  0  0  0  0
  161.6390  202.0330  151.3940 C   0  0  0  0  0  0  0  0  0  0  0  0
  162.0520  201.8430  152.6720 F   0  0  0  0  0  0  0  0  0  0  0  0
  160.7850  203.4730  149.6300 C   0  0  0  0  0  0  0  0  0  0  0  0
  161.6430  200.9530  150.5070 C   0  0  0  0  0  3  0  0  0  0  0  0
  160.7880  202.3780  148.7530 C   0  0  0  0  0  3  0  0  0  0  0  0
  161.2070  203.2960  150.9630 C   0  0  0  0  0  0  0  0  0  0  0  0
  161.1980  204.4380  151.9280 C   0  0  0  0  0  1  0  0  0  0  0  0
  161.2170  201.1200  149.1800 C   0  0  0  0  0  0  0  0  0  0  0  0
  161.5810  200.2040  146.9100 C   0  0  0  0  0  1  0  0  0  0  0  0
  161.2050  200.0570  148.2730 O   0  0  0  0  0  0  0  0  0  0  0  0
  162.9320  204.3910  146.7870 C   0  0  0  0  0  2  0  0  0  0  0  0
  161.5130  204.9140  146.8750 C   0  0  2  0  0  3  0  0  0  0  0  0
  161.3540  205.9780  145.8930 N   0  0  0  0  0  0  0  0  0  0  0  0
  162.3310  205.6870  144.8570 C   0  0  0  0  0  2  0  0  0  0  0  0
  163.4920  204.9730  145.5120 C   0  0  0  0  0  2  0  0  0  0  0  0
  160.0400  205.8160  145.2970 C   0  0  0  0  0  2  0  0  0  0  0  0
  160.1240  204.8490  144.1360 C   0  0  0  0  0  2  0  0  0  0  0  0
  159.4440  203.5510  144.5110 C   0  0  0  0  0  2  0  0  0  0  0  0
  160.4070  202.6140  144.8860 O   0  0  0  0  0  1  0  0  0  0  0  0
  1  5  1  0  0  0  0
  1 10  1  0  0  0  0
  2  9  1  0  0  0  0
  2 11  1  0  0  0  0
  3  5  1  0  0  0  0
  3  8  2  0  0  0  0
  5  2  2  0  0  0  0
  6 12  2  0  0  0  0
  7 11  2  0  0  0  0
  7  6  1  0  0  0  0
  8  7  1  0  0  0  0
 10 16  1  1  0  0  0
 10  9  1  0  0  0  0
 11 13  1  0  0  0  0
 12  4  1  0  0  0  0
 13  4  2  0  0  0  0
 14 15  1  0  0  0  0
 16 19  2  0  0  0  0
 17 14  2  0  0  0  0
 18 21  2  0  0  0  0
 18 16  1  0  0  0  0
 19 14  1  0  0  0  0
 19 20  1  0  0  0  0
 21 17  1  0  0  0  0
 22 23  1  0  0  0  0
 23 21  1  0  0  0  0
 25 24  1  1  0  0  0
 25  1  1  0  0  0  0
 26 25  1  0  0  0  0
 27 28  1  0  0  0  0
 27 26  1  0  0  0  0
 28 24  1  0  0  0  0
 29 26  1  0  0  0  0
 30 31  1  0  0  0  0
 30 29  1  0  0  0  0
 31 32  1  0  0  0  0
M  END
>  <MODEL>
5

>  <REMARK>
 VINA RESULT:      -5.8      4.477      8.541
  Name = 
  6 active torsions:
  status: ('A' for Active; 'I' for Inactive)
    1  A    between atoms: N_1  and  C_5
    2  A    between atoms: C_13  and  C_18
    3  A    between atoms: N_14  and  C_29
    4  A    between atoms: O_15  and  C_26
    5  A    between atoms: C_16  and  C_27
    6  A    between atoms: C_18  and  C_29
                            x       y       z     vdW  Elec       q    Type
                         _______ _______ _______ _____ _____    ______ ____

>  <TORSDO>
F 6

$$$$
=
 OpenBabel11062408253D

 32 36  0  0  1  0  0  0  0  0999 V2000
  161.1910  209.1810  153.2310 N   0  0  0  0  0  0  0  0  0  0  0  0
  160.6270  210.9600  151.9410 C   0  0  0  0  0  0  0  0  0  0  0  0
  159.3840  210.7820  154.0030 C   0  0  0  0  0  3  0  0  0  0  0  0
  159.5200  213.9460  150.0430 C   0  0  0  0  0  3  0  0  0  0  0  0
  160.3520  210.3190  153.1100 C   0  0  0  0  0  0  0  0  0  0  0  0
  158.2470  213.7750  152.1030 C   0  0  0  0  0  3  0  0  0  0  0  0
  158.9500  212.6170  152.4450 C   0  0  0  0  0  0  0  0  0  0  0  0
  158.6760  211.9470  153.6560 C   0  0  0  0  0  3  0  0  0  0  0  0
  161.6380  210.2970  151.2640 O   0  0  0  0  0  0  0  0  0  0  0  0
  162.0460  209.1580  152.0390 C   0  0  2  0  0  3  0  0  0  0  0  0
  159.9490  212.1180  151.5670 C   0  0  0  0  0  0  0  0  0  0  0  0
  158.5320  214.4370  150.9040 C   0  0  0  0  0  3  0  0  0  0  0  0
  160.2290  212.7860  150.3710 C   0  0  0  0  0  3  0  0  0  0  0  0
  161.5990  206.6910  149.1620 C   0  0  0  0  0  0  0  0  0  0  0  0
  161.5180  206.6820  147.8080 F   0  0  0  0  0  0  0  0  0  0  0  0
  161.8340  207.8850  151.2680 C   0  0  0  0  0  0  0  0  0  0  0  0
  161.5300  205.4810  149.8590 C   0  0  0  0  0  3  0  0  0  0  0  0
  161.7700  206.6630  151.9530 C   0  0  0  0  0  3  0  0  0  0  0  0
  161.7550  207.8970  149.8610 C   0  0  0  0  0  0  0  0  0  0  0  0
  161.8390  209.1810  149.0990 C   0  0  0  0  0  1  0  0  0  0  0  0
  161.6150  205.4610  151.2590 C   0  0  0  0  0  0  0  0  0  0  0  0
  160.4800  203.3430  151.8530 C   0  0  0  0  0  1  0  0  0  0  0  0
  161.5540  204.2660  151.9810 O   0  0  0  0  0  0  0  0  0  0  0  0
  160.4250  207.1260  154.3160 C   0  0  0  0  0  2  0  0  0  0  0  0
  161.3580  208.3170  154.3960 C   0  0  2  0  0  3  0  0  0  0  0  0
  161.0640  209.0490  155.6200 N   0  0  0  0  0  0  0  0  0  0  0  0
  160.5000  208.0620  156.5260 C   0  0  0  0  0  2  0  0  0  0  0  0
  159.7990  207.0190  155.6850 C   0  0  0  0  0  2  0  0  0  0  0  0
  162.3360  209.4660  156.1830 C   0  0  0  0  0  2  0  0  0  0  0  0
  162.1010  210.5100  157.2530 C   0  0  0  0  0  2  0  0  0  0  0  0
  161.4340  211.7210  156.6370 C   0  0  0  0  0  2  0  0  0  0  0  0
  160.1710  211.8920  157.2030 O   0  0  0  0  0  1  0  0  0  0  0  0
  2  5  1  0  0  0  0
  4 13  2  0  0  0  0
  4 12  1  0  0  0  0
  5  1  1  0  0  0  0
  5  3  2  0  0  0  0
  6  7  1  0  0  0  0
  7  8  2  0  0  0  0
  8  3  1  0  0  0  0
  9  2  1  0  0  0  0
  9 10  1  0  0  0  0
 10 16  1  6  0  0  0
 10  1  1  0  0  0  0
 11  2  2  0  0  0  0
 11  7  1  0  0  0  0
 12  6  2  0  0  0  0
 13 11  1  0  0  0  0
 14 17  2  0  0  0  0
 14 19  1  0  0  0  0
 15 14  1  0  0  0  0
 16 18  1  0  0  0  0
 17 21  1  0  0  0  0
 19 16  2  0  0  0  0
 20 19  1  0  0  0  0
 21 18  2  0  0  0  0
 21 23  1  0  0  0  0
 22 23  1  0  0  0  0
 24 25  1  0  0  0  0
 24 28  1  0  0  0  0
 25  1  1  6  0  0  0
 25 26  1  0  0  0  0
 26 29  1  0  0  0  0
 26 27  1  0  0  0  0
 28 27  1  0  0  0  0
 29 30  1  0  0  0  0
 31 32  1  0  0  0  0
 31 30  1  0  0  0  0
M  END
>  <MODEL>
6

>  <REMARK>
 VINA RESULT:      -5.6      1.180      1.510
  Name = 
  6 active torsions:
  status: ('A' for Active; 'I' for Inactive)
    1  A    between atoms: N_1  and  C_5
    2  A    between atoms: C_13  and  C_18
    3  A    between atoms: N_14  and  C_29
    4  A    between atoms: O_15  and  C_26
    5  A    between atoms: C_16  and  C_27
    6  A    between atoms: C_18  and  C_29
                            x       y       z     vdW  Elec       q    Type
                         _______ _______ _______ _____ _____    ______ ____

>  <TORSDO>
F 6

$$$$
=
 OpenBabel11062408253D

 32 36  0  0  1  0  0  0  0  0999 V2000
  158.9220  211.5250  153.9620 N   0  0  0  0  0  0  0  0  0  0  0  0
  159.7610  212.3870  152.0380 C   0  0  0  0  0  0  0  0  0  0  0  0
  157.4060  212.7970  152.3780 C   0  0  0  0  0  3  0  0  0  0  0  0
  160.8680  213.9070  148.8440 C   0  0  0  0  0  3  0  0  0  0  0  0
  158.6280  212.2550  152.7820 C   0  0  0  0  0  0  0  0  0  0  0  0
  158.4960  214.3140  149.1580 C   0  0  0  0  0  3  0  0  0  0  0  0
  158.5350  213.6260  150.3730 C   0  0  0  0  0  0  0  0  0  0  0  0
  157.3680  213.4880  151.1530 C   0  0  0  0  0  3  0  0  0  0  0  0
  160.8240  211.7750  152.6830 O   0  0  0  0  0  0  0  0  0  0  0  0
  160.3550  211.2120  153.9200 C   0  0  2  0  0  3  0  0  0  0  0  0
  159.7610  213.0680  150.8230 C   0  0  0  0  0  0  0  0  0  0  0  0
  159.6610  214.4530  148.3960 C   0  0  0  0  0  3  0  0  0  0  0  0
  160.9210  213.2120  150.0570 C   0  0  0  0  0  3  0  0  0  0  0  0
  160.7820  207.6280  155.1570 C   0  0  0  0  0  0  0  0  0  0  0  0
  160.8460  206.9350  156.3210 F   0  0  0  0  0  0  0  0  0  0  0  0
  160.5660  209.7240  153.9430 C   0  0  0  0  0  0  0  0  0  0  0  0
  160.8680  206.9380  153.9450 C   0  0  0  0  0  3  0  0  0  0  0  0
  160.6460  209.0170  152.7340 C   0  0  0  0  0  3  0  0  0  0  0  0
  160.6270  209.0220  155.1640 C   0  0  0  0  0  0  0  0  0  0  0  0
  160.5240  209.7430  156.4690 C   0  0  0  0  0  1  0  0  0  0  0  0
  160.8000  207.6290  152.7260 C   0  0  0  0  0  0  0  0  0  0  0  0
  162.0890  206.8440  150.7650 C   0  0  0  0  0  1  0  0  0  0  0  0
  160.8780  206.9650  151.4990 O   0  0  0  0  0  0  0  0  0  0  0  0
  156.8410  210.4870  154.7240 C   0  0  0  0  0  2  0  0  0  0  0  0
  158.0530  211.3080  155.1150 C   0  0  2  0  0  3  0  0  0  0  0  0
  157.5920  212.5800  155.6530 N   0  0  0  0  0  0  0  0  0  0  0  0
  156.2610  212.3120  156.1740 C   0  0  0  0  0  2  0  0  0  0  0  0
  155.6630  211.1990  155.3430 C   0  0  0  0  0  2  0  0  0  0  0  0
  158.4390  212.8930  156.7910 C   0  0  0  0  0  2  0  0  0  0  0  0
  158.9880  214.2960  156.6440 C   0  0  0  0  0  2  0  0  0  0  0  0
  160.3720  214.3610  157.2530 C   0  0  0  0  0  2  0  0  0  0  0  0
  161.0180  213.1390  157.0680 O   0  0  0  0  0  1  0  0  0  0  0  0
  2  9  1  0  0  0  0
  2  5  1  0  0  0  0
  3  5  2  0  0  0  0
  4 13  2  0  0  0  0
  5  1  1  0  0  0  0
  6  7  1  0  0  0  0
  7 11  1  0  0  0  0
  7  8  2  0  0  0  0
  8  3  1  0  0  0  0
  9 10  1  0  0  0  0
 10 16  1  6  0  0  0
 10  1  1  0  0  0  0
 11  2  2  0  0  0  0
 12  4  1  0  0  0  0
 12  6  2  0  0  0  0
 13 11  1  0  0  0  0
 14 19  1  0  0  0  0
 14 15  1  0  0  0  0
 16 19  2  0  0  0  0
 17 14  2  0  0  0  0
 18 16  1  0  0  0  0
 19 20  1  0  0  0  0
 21 18  2  0  0  0  0
 21 17  1  0  0  0  0
 22 23  1  0  0  0  0
 23 21  1  0  0  0  0
 24 25  1  0  0  0  0
 24 28  1  0  0  0  0
 25  1  1  6  0  0  0
 25 26  1  0  0  0  0
 26 27  1  0  0  0  0
 26 29  1  0  0  0  0
 28 27  1  0  0  0  0
 30 29  1  0  0  0  0
 30 31  1  0  0  0  0
 32 31  1  0  0  0  0
M  END
>  <MODEL>
7

>  <REMARK>
 VINA RESULT:      -5.6      2.551      4.251
  Name = 
  6 active torsions:
  status: ('A' for Active; 'I' for Inactive)
    1  A    between atoms: N_1  and  C_5
    2  A    between atoms: C_13  and  C_18
    3  A    between atoms: N_14  and  C_29
    4  A    between atoms: O_15  and  C_26
    5  A    between atoms: C_16  and  C_27
    6  A    between atoms: C_18  and  C_29
                            x       y       z     vdW  Elec       q    Type
                         _______ _______ _______ _____ _____    ______ ____

>  <TORSDO>
F 6

$$$$
=
 OpenBabel11062408253D

 32 36  0  0  1  0  0  0  0  0999 V2000
  161.2570  208.7660  153.0120 N   0  0  0  0  0  0  0  0  0  0  0  0
  161.1380  210.4990  151.5520 C   0  0  0  0  0  0  0  0  0  0  0  0
  159.7280  210.7290  153.4980 C   0  0  0  0  0  3  0  0  0  0  0  0
  160.7620  213.4590  149.3520 C   0  0  0  0  0  3  0  0  0  0  0  0
  160.6580  210.0220  152.7330 C   0  0  0  0  0  0  0  0  0  0  0  0
  159.3250  213.7010  151.2940 C   0  0  0  0  0  3  0  0  0  0  0  0
  159.7690  212.4690  151.7800 C   0  0  0  0  0  0  0  0  0  0  0  0
  159.2810  211.9680  153.0050 C   0  0  0  0  0  3  0  0  0  0  0  0
  162.0560  209.6070  151.0200 O   0  0  0  0  0  0  0  0  0  0  0  0
  162.1810  208.4840  151.9080 C   0  0  2  0  0  3  0  0  0  0  0  0
  160.7210  211.7240  151.0360 C   0  0  0  0  0  0  0  0  0  0  0  0
  159.8210  214.1940  150.0810 C   0  0  0  0  0  3  0  0  0  0  0  0
  161.2130  212.2230  149.8260 C   0  0  0  0  0  3  0  0  0  0  0  0
  161.6190  204.7840  151.1680 C   0  0  0  0  0  0  0  0  0  0  0  0
  161.8390  203.5700  151.7310 F   0  0  0  0  0  0  0  0  0  0  0  0
  161.7930  207.2090  151.2140 C   0  0  0  0  0  0  0  0  0  0  0  0
  160.9730  204.8560  149.9300 C   0  0  0  0  0  3  0  0  0  0  0  0
  161.1380  207.2670  149.9750 C   0  0  0  0  0  3  0  0  0  0  0  0
  162.0280  205.9580  151.8180 C   0  0  0  0  0  0  0  0  0  0  0  0
  162.7070  205.8620  153.1470 C   0  0  0  0  0  1  0  0  0  0  0  0
  160.7290  206.0990  149.3270 C   0  0  0  0  0  0  0  0  0  0  0  0
  160.7800  206.3900  146.8700 C   0  0  0  0  0  1  0  0  0  0  0  0
  160.0810  206.2020  148.0930 O   0  0  0  0  0  0  0  0  0  0  0  0
  159.9770  207.0540  154.2040 C   0  0  0  0  0  2  0  0  0  0  0  0
  161.1670  207.9910  154.2460 C   0  0  2  0  0  3  0  0  0  0  0  0
  161.0160  208.8750  155.3930 N   0  0  0  0  0  0  0  0  0  0  0  0
  160.1970  208.1320  156.3380 C   0  0  0  0  0  2  0  0  0  0  0  0
  159.2950  207.2180  155.5400 C   0  0  0  0  0  2  0  0  0  0  0  0
  162.3300  209.0230  155.9930 C   0  0  0  0  0  2  0  0  0  0  0  0
  162.2200  209.8420  157.2610 C   0  0  0  0  0  2  0  0  0  0  0  0
  163.2830  210.9190  157.2590 C   0  0  0  0  0  2  0  0  0  0  0  0
  163.7800  211.0770  155.9650 O   0  0  0  0  0  1  0  0  0  0  0  0
  2  5  1  0  0  0  0
  4 13  2  0  0  0  0
  4 12  1  0  0  0  0
  5  1  1  0  0  0  0
  5  3  2  0  0  0  0
  6  7  1  0  0  0  0
  7  8  2  0  0  0  0
  8  3  1  0  0  0  0
  9  2  1  0  0  0  0
  9 10  1  0  0  0  0
 10 16  1  6  0  0  0
 10  1  1  0  0  0  0
 11  2  2  0  0  0  0
 11  7  1  0  0  0  0
 12  6  2  0  0  0  0
 13 11  1  0  0  0  0
 14 15  1  0  0  0  0
 14 19  1  0  0  0  0
 16 19  2  0  0  0  0
 17 14  2  0  0  0  0
 18 16  1  0  0  0  0
 19 20  1  0  0  0  0
 21 17  1  0  0  0  0
 21 18  2  0  0  0  0
 22 23  1  0  0  0  0
 23 21  1  0  0  0  0
 24 25  1  0  0  0  0
 24 28  1  0  0  0  0
 25  1  1  6  0  0  0
 25 26  1  0  0  0  0
 26 29  1  0  0  0  0
 26 27  1  0  0  0  0
 28 27  1  0  0  0  0
 29 30  1  0  0  0  0
 31 30  1  0  0  0  0
 32 31  1  0  0  0  0
M  END
>  <MODEL>
8

>  <REMARK>
 VINA RESULT:      -5.4      2.046      2.929
  Name = 
  6 active torsions:
  status: ('A' for Active; 'I' for Inactive)
    1  A    between atoms: N_1  and  C_5
    2  A    between atoms: C_13  and  C_18
    3  A    between atoms: N_14  and  C_29
    4  A    between atoms: O_15  and  C_26
    5  A    between atoms: C_16  and  C_27
    6  A    between atoms: C_18  and  C_29
                            x       y       z     vdW  Elec       q    Type
                         _______ _______ _______ _____ _____    ______ ____

>  <TORSDO>
F 6

$$$$
=
 OpenBabel11062408253D

 32 36  0  0  1  0  0  0  0  0999 V2000
  160.7120  209.5430  151.8880 N   0  0  0  0  0  0  0  0  0  0  0  0
  160.8860  211.4600  150.6870 C   0  0  0  0  0  0  0  0  0  0  0  0
  162.1930  209.6190  149.8320 C   0  0  0  0  0  3  0  0  0  0  0  0
  161.3420  214.4480  148.5420 C   0  0  0  0  0  3  0  0  0  0  0  0
  161.3110  210.1690  150.7640 C   0  0  0  0  0  0  0  0  0  0  0  0
  162.6760  212.6140  147.6750 C   0  0  0  0  0  3  0  0  0  0  0  0
  162.2210  211.7910  148.7080 C   0  0  0  0  0  0  0  0  0  0  0  0
  162.6510  210.4500  148.7940 C   0  0  0  0  0  3  0  0  0  0  0  0
  160.0060  211.7310  151.7230 O   0  0  0  0  0  0  0  0  0  0  0  0
  159.8480  210.5450  152.5200 C   0  0  2  0  0  3  0  0  0  0  0  0
  161.3160  212.3100  149.6710 C   0  0  0  0  0  0  0  0  0  0  0  0
  162.2370  213.9400  147.5930 C   0  0  0  0  0  3  0  0  0  0  0  0
  160.8800  213.6360  149.5820 C   0  0  0  0  0  3  0  0  0  0  0  0
  159.7670  211.2350  156.2720 C   0  0  0  0  0  0  0  0  0  0  0  0
  158.8730  211.4860  157.2600 F   0  0  0  0  0  0  0  0  0  0  0  0
  160.2840  210.7930  153.9370 C   0  0  0  0  0  0  0  0  0  0  0  0
  161.1270  211.1590  156.5850 C   0  0  0  0  0  3  0  0  0  0  0  0
  161.6450  210.7120  154.2670 C   0  0  0  0  0  3  0  0  0  0  0  0
  159.3380  211.0490  154.9490 C   0  0  0  0  0  0  0  0  0  0  0  0
  157.8780  211.1220  154.6350 C   0  0  0  0  0  1  0  0  0  0  0  0
  162.0740  210.8970  155.5830 C   0  0  0  0  0  0  0  0  0  0  0  0
  163.9680  211.0160  157.1710 C   0  0  0  0  0  1  0  0  0  0  0  0
  163.4390  210.8100  155.8680 O   0  0  0  0  0  0  0  0  0  0  0  0
  160.2180  207.9130  153.6460 C   0  0  0  0  0  2  0  0  0  0  0  0
  160.7470  208.1270  152.2430 C   0  0  2  0  0  3  0  0  0  0  0  0
  162.1110  207.6210  152.1830 N   0  0  0  0  0  0  0  0  0  0  0  0
  162.1820  206.5990  153.2150 C   0  0  0  0  0  2  0  0  0  0  0  0
  161.2090  206.9860  154.3070 C   0  0  0  0  0  2  0  0  0  0  0  0
  162.2600  206.9460  150.9060 C   0  0  0  0  0  2  0  0  0  0  0  0
  161.5130  205.6310  150.9350 C   0  0  0  0  0  2  0  0  0  0  0  0
  160.7470  205.4580  149.6410 C   0  0  0  0  0  2  0  0  0  0  0  0
  160.7850  204.1180  149.2560 O   0  0  0  0  0  1  0  0  0  0  0  0
  1 10  1  0  0  0  0
  2  5  1  0  0  0  0
  2  9  1  0  0  0  0
  3  5  2  0  0  0  0
  4 13  2  0  0  0  0
  5  1  1  0  0  0  0
  6  7  1  0  0  0  0
  7  8  2  0  0  0  0
  7 11  1  0  0  0  0
  8  3  1  0  0  0  0
  9 10  1  0  0  0  0
 10 16  1  1  0  0  0
 11  2  2  0  0  0  0
 12  6  2  0  0  0  0
 12  4  1  0  0  0  0
 13 11  1  0  0  0  0
 14 17  1  0  0  0  0
 14 15  1  0  0  0  0
 16 18  2  0  0  0  0
 16 19  1  0  0  0  0
 18 21  1  0  0  0  0
 19 14  2  0  0  0  0
 20 19  1  0  0  0  0
 21 23  1  0  0  0  0
 21 17  2  0  0  0  0
 23 22  1  0  0  0  0
 24 28  1  0  0  0  0
 25  1  1  1  0  0  0
 25 24  1  0  0  0  0
 26 25  1  0  0  0  0
 26 27  1  0  0  0  0
 27 28  1  0  0  0  0
 29 30  1  0  0  0  0
 29 26  1  0  0  0  0
 31 30  1  0  0  0  0
 32 31  1  0  0  0  0
M  END
>  <MODEL>
9

>  <REMARK>
 VINA RESULT:      -4.8      2.748      6.309
  Name = 
  6 active torsions:
  status: ('A' for Active; 'I' for Inactive)
    1  A    between atoms: N_1  and  C_5
    2  A    between atoms: C_13  and  C_18
    3  A    between atoms: N_14  and  C_29
    4  A    between atoms: O_15  and  C_26
    5  A    between atoms: C_16  and  C_27
    6  A    between atoms: C_18  and  C_29
                            x       y       z     vdW  Elec       q    Type
                         _______ _______ _______ _____ _____    ______ ____

>  <TORSDO>
F 6

$$$$
