=
 OpenBabel11062409323D

 34 38  0  0  1  0  0  0  0  0999 V2000
  161.5600  208.6420  152.9850 C   0  0  2  0  0  3  0  0  0  0  0  0
  160.1540  212.0550  151.4830 C   0  0  0  0  0  3  0  0  0  0  0  0
  159.7930  210.8920  153.5040 C   0  0  0  0  0  3  0  0  0  0  0  0
  161.4870  208.0910  155.4840 C   0  0  0  0  0  2  0  0  0  0  0  0
  159.7370  209.1270  156.7890 O   0  0  0  0  0  0  0  0  0  0  0  0
  161.0800  208.7030  156.8280 C   0  0  0  0  0  2  0  0  0  0  0  0
  159.9160  209.7680  154.4870 C   0  0  1  0  0  3  0  0  0  0  0  0
  161.3090  209.1550  154.4050 C   0  0  2  0  0  3  0  0  0  0  0  0
  159.6700  210.2340  155.9190 C   0  0  0  0  0  2  0  0  0  0  0  0
  160.6450  212.3950  150.2950 C   0  0  0  0  0  3  0  0  0  0  0  0
  161.6320  211.7150  149.4380 C   0  0  0  0  0  0  0  0  0  0  0  0
  162.2450  210.5710  149.7370 C   0  0  0  0  0  3  0  0  0  0  0  0
  160.4330  210.8900  152.3250 C   0  0  0  0  0  0  0  0  0  0  0  0
  162.1320  209.6980  150.9070 C   0  0  0  0  0  3  0  0  0  0  0  0
  161.3880  209.7830  152.0050 C   0  0  0  0  0  0  0  0  0  0  0  0
  161.9840  212.3410  148.1420 C   0  0  0  0  0  0  0  0  0  0  0  0
  163.3140  212.6100  147.8330 O   0  0  0  0  0  1  0  0  0  0  0  0
  161.0540  212.6600  147.2490 C   0  0  0  0  0  2  0  0  0  0  0  0
  160.6280  207.5570  152.6550 N   0  0  0  0  0  2  0  0  0  0  0  0
  161.3210  206.2670  152.5660 C   0  0  2  0  0  3  0  0  0  0  0  0
  162.6960  206.4100  152.7770 O   0  0  0  0  0  1  0  0  0  0  0  0
  160.8190  205.5920  148.8000 C   0  0  0  0  0  2  0  0  0  0  0  0
  160.8350  204.0870  151.2620 C   0  0  0  0  0  3  0  0  0  0  0  0
  161.0530  202.0580  147.6470 C   0  0  0  0  0  0  0  0  0  0  0  0
  161.0940  203.3960  147.6430 C   0  0  0  0  0  3  0  0  0  0  0  0
  160.9700  204.1380  148.8640 N   0  0  0  0  0  0  0  0  0  0  0  0
  160.7360  201.9630  150.0850 C   0  0  0  0  0  3  0  0  0  0  0  0
  160.8140  203.4280  150.1070 C   0  0  0  0  0  0  0  0  0  0  0  0
  160.8510  201.3210  148.9190 C   0  0  0  0  0  3  0  0  0  0  0  0
  161.0210  205.5530  151.2810 C   0  0  0  0  0  0  0  0  0  0  0  0
  161.0680  206.2410  150.1350 C   0  0  0  0  0  3  0  0  0  0  0  0
  161.2050  201.3260  146.3530 C   0  0  0  0  0  3  0  0  0  0  0  0
  160.0880  201.6870  145.3920 C   0  0  0  0  0  1  0  0  0  0  0  0
  161.2330  199.8260  146.5800 C   0  0  0  0  0  1  0  0  0  0  0  0
  1 19  1  6  0  0  0
  1  8  1  0  0  0  0
  2 13  1  0  0  0  0
  4  6  1  0  0  0  0
  5  6  1  0  0  0  0
  7  3  1  6  0  0  0
  7  9  1  0  0  0  0
  8  7  1  0  0  0  0
  8  4  1  1  0  0  0
  9  5  1  0  0  0  0
 10  2  2  0  0  0  0
 11 12  2  0  0  0  0
 11 10  1  0  0  0  0
 12 14  1  0  0  0  0
 13  3  2  0  0  0  0
 14 15  2  0  0  0  0
 15 13  1  0  0  0  0
 15  1  1  0  0  0  0
 16 11  1  0  0  0  0
 17 16  1  0  0  0  0
 18 16  2  0  0  0  0
 20 19  1  0  0  0  0
 20 21  1  6  0  0  0
 22 26  1  0  0  0  0
 22 31  1  0  0  0  0
 23 30  1  0  0  0  0
 24 29  1  0  0  0  0
 25 24  2  0  0  0  0
 25 26  1  0  0  0  0
 26 28  1  0  0  0  0
 27 28  1  0  0  0  0
 28 23  2  0  0  0  0
 29 27  2  0  0  0  0
 30 20  1  0  0  0  0
 31 30  2  0  0  0  0
 32 34  1  0  0  0  0
 32 24  1  0  0  0  0
 33 32  1  0  0  0  0
M  END
>  <MODEL>
1

>  <REMARK>
 VINA RESULT:      -9.3      0.000      0.000
  Name = 
  5 active torsions:
  status: ('A' for Active; 'I' for Inactive)
    1  A    between atoms: C_1  and  N_9
    2  A    between atoms: C_3  and  C_25
    3  A    between atoms: C_7  and  C_11
    4  A    between atoms: C_8  and  N_9
    5  A    between atoms: C_8  and  C_30
                            x       y       z     vdW  Elec       q    Type
                         _______ _______ _______ _____ _____    ______ ____

>  <TORSDO>
F 5

$$$$
=
 OpenBabel11062409323D

 34 38  0  0  1  0  0  0  0  0999 V2000
  160.8640  212.9440  147.0430 C   0  0  2  0  0  3  0  0  0  0  0  0
  159.4130  212.8550  143.3330 C   0  0  0  0  0  3  0  0  0  0  0  0
  158.4190  212.8730  145.4730 C   0  0  0  0  0  3  0  0  0  0  0  0
  159.4710  213.6780  149.0620 C   0  0  0  0  0  2  0  0  0  0  0  0
  157.0780  213.3730  148.9180 O   0  0  0  0  0  0  0  0  0  0  0  0
  158.0850  214.2230  149.4180 C   0  0  0  0  0  2  0  0  0  0  0  0
  158.3730  212.8460  146.9710 C   0  0  1  0  0  3  0  0  0  0  0  0
  159.5720  213.5940  147.5420 C   0  0  2  0  0  3  0  0  0  0  0  0
  157.0960  213.4830  147.5120 C   0  0  0  0  0  2  0  0  0  0  0  0
  160.3260  212.8960  142.3680 C   0  0  0  0  0  3  0  0  0  0  0  0
  161.7950  212.9710  142.4430 C   0  0  0  0  0  0  0  0  0  0  0  0
  162.5010  213.0230  143.5720 C   0  0  0  0  0  3  0  0  0  0  0  0
  159.5730  212.8690  144.7890 C   0  0  0  0  0  0  0  0  0  0  0  0
  162.0750  213.0130  144.9720 C   0  0  0  0  0  3  0  0  0  0  0  0
  160.8700  212.9430  145.5300 C   0  0  0  0  0  0  0  0  0  0  0  0
  162.5620  212.9950  141.1760 C   0  0  0  0  0  0  0  0  0  0  0  0
  163.2840  214.1290  140.8160 O   0  0  0  0  0  1  0  0  0  0  0  0
  162.5830  211.9490  140.3560 C   0  0  0  0  0  2  0  0  0  0  0  0
  160.9780  211.5690  147.5440 N   0  0  0  0  0  2  0  0  0  0  0  0
  162.0010  211.4640  148.5900 C   0  0  2  0  0  3  0  0  0  0  0  0
  163.2570  211.8580  148.1170 O   0  0  0  0  0  1  0  0  0  0  0  0
  162.0490  208.6640  151.2450 C   0  0  0  0  0  2  0  0  0  0  0  0
  161.8940  208.8890  148.3720 C   0  0  0  0  0  3  0  0  0  0  0  0
  160.9540  205.2690  150.1730 C   0  0  0  0  0  0  0  0  0  0  0  0
  161.2070  206.3310  150.9470 C   0  0  0  0  0  3  0  0  0  0  0  0
  161.5870  207.5870  150.3680 N   0  0  0  0  0  0  0  0  0  0  0  0
  161.4310  206.5180  148.1080 C   0  0  0  0  0  3  0  0  0  0  0  0
  161.6780  207.7030  148.9360 C   0  0  0  0  0  0  0  0  0  0  0  0
  161.0860  205.3700  148.6980 C   0  0  0  0  0  3  0  0  0  0  0  0
  162.0360  210.0980  149.2100 C   0  0  0  0  0  0  0  0  0  0  0  0
  162.0520  209.9950  150.5430 C   0  0  0  0  0  3  0  0  0  0  0  0
  160.5440  203.9850  150.8190 C   0  0  0  0  0  3  0  0  0  0  0  0
  161.3370  203.7400  152.0890 C   0  0  0  0  0  1  0  0  0  0  0  0
  160.7180  202.8190  149.8640 C   0  0  0  0  0  1  0  0  0  0  0  0
  1  8  1  0  0  0  0
  1 19  1  6  0  0  0
  2 13  1  0  0  0  0
  4  6  1  0  0  0  0
  5  6  1  0  0  0  0
  7  3  1  6  0  0  0
  7  9  1  0  0  0  0
  7  8  1  0  0  0  0
  8  4  1  1  0  0  0
  9  5  1  0  0  0  0
 10 11  1  0  0  0  0
 10  2  2  0  0  0  0
 11 12  2  0  0  0  0
 12 14  1  0  0  0  0
 13  3  2  0  0  0  0
 13 15  1  0  0  0  0
 14 15  2  0  0  0  0
 15  1  1  0  0  0  0
 16 11  1  0  0  0  0
 17 16  1  0  0  0  0
 18 16  2  0  0  0  0
 19 20  1  0  0  0  0
 20 21  1  6  0  0  0
 20 30  1  0  0  0  0
 23 28  2  0  0  0  0
 23 30  1  0  0  0  0
 24 32  1  0  0  0  0
 24 25  2  0  0  0  0
 26 25  1  0  0  0  0
 26 22  1  0  0  0  0
 27 29  2  0  0  0  0
 27 28  1  0  0  0  0
 28 26  1  0  0  0  0
 29 24  1  0  0  0  0
 30 31  2  0  0  0  0
 31 22  1  0  0  0  0
 32 33  1  0  0  0  0
 34 32  1  0  0  0  0
M  END
>  <MODEL>
2

>  <REMARK>
 VINA RESULT:      -9.0      3.430      6.825
  Name = 
  5 active torsions:
  status: ('A' for Active; 'I' for Inactive)
    1  A    between atoms: C_1  and  N_9
    2  A    between atoms: C_3  and  C_25
    3  A    between atoms: C_7  and  C_11
    4  A    between atoms: C_8  and  N_9
    5  A    between atoms: C_8  and  C_30
                            x       y       z     vdW  Elec       q    Type
                         _______ _______ _______ _____ _____    ______ ____

>  <TORSDO>
F 5

$$$$
=
 OpenBabel11062409323D

 34 38  0  0  1  0  0  0  0  0999 V2000
  159.9980  212.1120  152.9290 C   0  0  2  0  0  3  0  0  0  0  0  0
  158.0600  213.7420  149.8520 C   0  0  0  0  0  3  0  0  0  0  0  0
  157.5100  213.3780  152.1180 C   0  0  0  0  0  3  0  0  0  0  0  0
  159.3550  212.5530  155.3670 C   0  0  0  0  0  2  0  0  0  0  0  0
  157.0480  213.1220  155.8100 O   0  0  0  0  0  0  0  0  0  0  0  0
  158.3750  213.3750  156.2110 C   0  0  0  0  0  2  0  0  0  0  0  0
  157.6970  212.8740  153.5170 C   0  0  1  0  0  3  0  0  0  0  0  0
  159.1690  212.9480  153.9050 C   0  0  2  0  0  3  0  0  0  0  0  0
  156.8830  213.6790  154.5260 C   0  0  0  0  0  2  0  0  0  0  0  0
  158.7470  213.7960  148.7150 C   0  0  0  0  0  3  0  0  0  0  0  0
  160.1160  213.3510  148.4030 C   0  0  0  0  0  0  0  0  0  0  0  0
  160.9550  212.7900  149.2730 C   0  0  0  0  0  3  0  0  0  0  0  0
  158.4420  213.2200  151.1660 C   0  0  0  0  0  0  0  0  0  0  0  0
  160.7890  212.4580  150.6890 C   0  0  0  0  0  3  0  0  0  0  0  0
  159.7620  212.6100  151.5190 C   0  0  0  0  0  0  0  0  0  0  0  0
  160.6160  213.5380  147.0210 C   0  0  0  0  0  0  0  0  0  0  0  0
  160.0120  212.8690  145.9610 O   0  0  0  0  0  1  0  0  0  0  0  0
  161.6430  214.3390  146.7560 C   0  0  0  0  0  2  0  0  0  0  0  0
  159.6340  210.6930  153.0240 N   0  0  0  0  0  2  0  0  0  0  0  0
  160.7300  209.8960  153.5860 C   0  0  2  0  0  3  0  0  0  0  0  0
  161.8550  210.6860  153.8440 O   0  0  0  0  0  1  0  0  0  0  0  0
  161.2230  206.2390  152.4550 C   0  0  0  0  0  2  0  0  0  0  0  0
  161.3490  208.8770  151.2910 C   0  0  0  0  0  3  0  0  0  0  0  0
  161.2190  205.5650  148.7920 C   0  0  0  0  0  0  0  0  0  0  0  0
  161.0840  205.3870  150.1120 C   0  0  0  0  0  3  0  0  0  0  0  0
  161.1750  206.4970  151.0150 N   0  0  0  0  0  0  0  0  0  0  0  0
  161.5790  207.9860  149.0420 C   0  0  0  0  0  3  0  0  0  0  0  0
  161.3980  207.8180  150.4880 C   0  0  0  0  0  0  0  0  0  0  0  0
  161.4910  206.9180  148.2440 C   0  0  0  0  0  3  0  0  0  0  0  0
  161.0610  208.7090  152.7300 C   0  0  0  0  0  0  0  0  0  0  0  0
  160.9480  207.4840  153.2560 C   0  0  0  0  0  3  0  0  0  0  0  0
  161.1000  204.3810  147.8870 C   0  0  0  0  0  3  0  0  0  0  0  0
  161.1200  203.0880  148.6800 C   0  0  0  0  0  1  0  0  0  0  0  0
  162.2110  204.3760  146.8540 C   0  0  0  0  0  1  0  0  0  0  0  0
  1 19  1  6  0  0  0
  1  8  1  0  0  0  0
  2 13  1  0  0  0  0
  4  6  1  0  0  0  0
  5  6  1  0  0  0  0
  7  3  1  6  0  0  0
  7  8  1  0  0  0  0
  7  9  1  0  0  0  0
  8  4  1  1  0  0  0
  9  5  1  0  0  0  0
 10  2  2  0  0  0  0
 11 10  1  0  0  0  0
 11 12  2  0  0  0  0
 12 14  1  0  0  0  0
 13 15  1  0  0  0  0
 13  3  2  0  0  0  0
 14 15  2  0  0  0  0
 15  1  1  0  0  0  0
 16 11  1  0  0  0  0
 17 16  1  0  0  0  0
 18 16  2  0  0  0  0
 19 20  1  0  0  0  0
 20 21  1  6  0  0  0
 22 31  1  0  0  0  0
 23 30  1  0  0  0  0
 24 25  2  0  0  0  0
 25 26  1  0  0  0  0
 26 22  1  0  0  0  0
 27 28  1  0  0  0  0
 28 26  1  0  0  0  0
 28 23  2  0  0  0  0
 29 24  1  0  0  0  0
 29 27  2  0  0  0  0
 30 31  2  0  0  0  0
 30 20  1  0  0  0  0
 32 33  1  0  0  0  0
 32 24  1  0  0  0  0
 34 32  1  0  0  0  0
M  END
>  <MODEL>
3

>  <REMARK>
 VINA RESULT:      -8.4      2.294      3.926
  Name = 
  5 active torsions:
  status: ('A' for Active; 'I' for Inactive)
    1  A    between atoms: C_1  and  N_9
    2  A    between atoms: C_3  and  C_25
    3  A    between atoms: C_7  and  C_11
    4  A    between atoms: C_8  and  N_9
    5  A    between atoms: C_8  and  C_30
                            x       y       z     vdW  Elec       q    Type
                         _______ _______ _______ _____ _____    ______ ____

>  <TORSDO>
F 5

$$$$
=
 OpenBabel11062409323D

 34 38  0  0  1  0  0  0  0  0999 V2000
  161.2270  209.3170  153.3000 C   0  0  2  0  0  3  0  0  0  0  0  0
  160.0750  212.5520  151.2780 C   0  0  0  0  0  3  0  0  0  0  0  0
  159.5530  211.6900  153.4120 C   0  0  0  0  0  3  0  0  0  0  0  0
  161.0000  209.1130  155.8420 C   0  0  0  0  0  2  0  0  0  0  0  0
  159.2400  210.3920  156.8950 O   0  0  0  0  0  0  0  0  0  0  0  0
  160.5560  209.9200  157.0670 C   0  0  0  0  0  2  0  0  0  0  0  0
  159.5690  210.7060  154.5420 C   0  0  1  0  0  3  0  0  0  0  0  0
  160.9310  210.0270  154.6220 C   0  0  2  0  0  3  0  0  0  0  0  0
  159.2740  211.3730  155.8830 C   0  0  0  0  0  2  0  0  0  0  0  0
  160.6430  212.7060  150.0860 C   0  0  0  0  0  3  0  0  0  0  0  0
  161.6370  211.8730  149.3850 C   0  0  0  0  0  0  0  0  0  0  0  0
  162.1740  210.7550  149.8690 C   0  0  0  0  0  3  0  0  0  0  0  0
  160.2520  211.5010  152.2830 C   0  0  0  0  0  0  0  0  0  0  0  0
  161.9580  210.0550  151.1360 C   0  0  0  0  0  3  0  0  0  0  0  0
  161.1640  210.3210  152.1690 C   0  0  0  0  0  0  0  0  0  0  0  0
  162.0860  212.3020  148.0400 C   0  0  0  0  0  0  0  0  0  0  0  0
  161.1680  212.4230  147.0010 O   0  0  0  0  0  1  0  0  0  0  0  0
  163.3610  212.5790  147.7890 C   0  0  0  0  0  2  0  0  0  0  0  0
  160.2610  208.2380  153.0650 N   0  0  0  0  0  2  0  0  0  0  0  0
  160.8640  206.9200  153.2930 C   0  0  2  0  0  3  0  0  0  0  0  0
  161.9640  207.0050  154.1520 O   0  0  0  0  0  1  0  0  0  0  0  0
  161.2060  204.1590  150.6180 C   0  0  0  0  0  2  0  0  0  0  0  0
  161.6850  206.9970  150.8420 C   0  0  0  0  0  3  0  0  0  0  0  0
  161.6110  205.2460  147.0790 C   0  0  0  0  0  0  0  0  0  0  0  0
  161.2970  204.5010  148.1460 C   0  0  0  0  0  3  0  0  0  0  0  0
  161.3600  205.0520  149.4690 N   0  0  0  0  0  0  0  0  0  0  0  0
  162.1250  207.2140  148.4620 C   0  0  0  0  0  3  0  0  0  0  0  0
  161.7510  206.4270  149.6410 C   0  0  0  0  0  0  0  0  0  0  0  0
  162.0550  206.6510  147.2520 C   0  0  0  0  0  3  0  0  0  0  0  0
  161.2050  206.2260  152.0070 C   0  0  0  0  0  0  0  0  0  0  0  0
  160.9310  204.9220  151.8870 C   0  0  0  0  0  3  0  0  0  0  0  0
  161.5140  204.6350  145.7180 C   0  0  0  0  0  3  0  0  0  0  0  0
  160.4560  205.3340  144.8850 C   0  0  0  0  0  1  0  0  0  0  0  0
  161.2070  203.1520  145.8110 C   0  0  0  0  0  1  0  0  0  0  0  0
  1 19  1  6  0  0  0
  1  8  1  0  0  0  0
  2 13  1  0  0  0  0
  4  6  1  0  0  0  0
  5  6  1  0  0  0  0
  7  3  1  6  0  0  0
  7  8  1  0  0  0  0
  7  9  1  0  0  0  0
  8  4  1  1  0  0  0
  9  5  1  0  0  0  0
 10  2  2  0  0  0  0
 11 12  2  0  0  0  0
 11 10  1  0  0  0  0
 12 14  1  0  0  0  0
 13  3  2  0  0  0  0
 14 15  2  0  0  0  0
 15 13  1  0  0  0  0
 15  1  1  0  0  0  0
 16 11  1  0  0  0  0
 17 16  1  0  0  0  0
 18 16  2  0  0  0  0
 19 20  1  0  0  0  0
 20 21  1  1  0  0  0
 22 31  1  0  0  0  0
 23 30  1  0  0  0  0
 24 29  1  0  0  0  0
 24 25  2  0  0  0  0
 25 26  1  0  0  0  0
 26 28  1  0  0  0  0
 26 22  1  0  0  0  0
 27 28  1  0  0  0  0
 28 23  2  0  0  0  0
 29 27  2  0  0  0  0
 30 20  1  0  0  0  0
 31 30  2  0  0  0  0
 32 34  1  0  0  0  0
 32 24  1  0  0  0  0
 33 32  1  0  0  0  0
M  END
>  <MODEL>
4

>  <REMARK>
 VINA RESULT:      -8.2      1.426      2.256
  Name = 
  5 active torsions:
  status: ('A' for Active; 'I' for Inactive)
    1  A    between atoms: C_1  and  N_9
    2  A    between atoms: C_3  and  C_25
    3  A    between atoms: C_7  and  C_11
    4  A    between atoms: C_8  and  N_9
    5  A    between atoms: C_8  and  C_30
                            x       y       z     vdW  Elec       q    Type
                         _______ _______ _______ _____ _____    ______ ____

>  <TORSDO>
F 5

$$$$
=
 OpenBabel11062409323D

 34 38  0  0  1  0  0  0  0  0999 V2000
  160.7050  207.0270  151.5840 C   0  0  2  0  0  3  0  0  0  0  0  0
  162.3430  210.3280  153.1000 C   0  0  0  0  0  3  0  0  0  0  0  0
  162.4820  209.2530  151.0040 C   0  0  0  0  0  2  0  0  0  0  0  0
  160.5300  206.5920  149.0670 C   0  0  0  0  0  2  0  0  0  0  0  0
  162.1830  207.6450  147.6520 O   0  0  0  0  0  0  0  0  0  0  0  0
  160.8300  207.2570  147.7200 C   0  0  0  0  0  2  0  0  0  0  0  0
  162.2350  208.1800  149.9880 C   0  0  1  0  0  3  0  0  0  0  0  0
  160.8380  207.5990  150.1720 C   0  0  2  0  0  3  0  0  0  0  0  0
  162.3620  208.7070  148.5610 C   0  0  0  0  0  2  0  0  0  0  0  0
  161.9730  210.6240  154.3420 C   0  0  0  0  0  2  0  0  0  0  0  0
  161.0500  209.9300  155.2570 C   0  0  0  0  0  0  0  0  0  0  0  0
  160.3790  208.8160  154.9650 C   0  0  0  0  0  3  0  0  0  0  0  0
  161.9530  209.2110  152.2360 C   0  0  0  0  0  0  0  0  0  0  0  0
  160.3580  207.9980  153.7520 C   0  0  0  0  0  3  0  0  0  0  0  0
  160.9990  208.1160  152.5940 C   0  0  0  0  0  0  0  0  0  0  0  0
  160.8370  210.5020  156.6070 C   0  0  0  0  0  0  0  0  0  0  0  0
  161.8740  211.1630  157.2580 O   0  0  0  0  0  1  0  0  0  0  0  0
  159.6670  210.4030  157.2270 C   0  0  0  0  0  2  0  0  0  0  0  0
  161.6300  205.9040  151.7770 N   0  0  0  0  0  2  0  0  0  0  0  0
  160.9060  204.6520  152.0250 C   0  0  2  0  0  3  0  0  0  0  0  0
  161.2130  204.1270  153.2850 O   0  0  0  0  0  1  0  0  0  0  0  0
  161.0170  201.2950  150.1240 C   0  0  0  0  0  2  0  0  0  0  0  0
  161.4550  204.0920  149.5610 C   0  0  0  0  0  3  0  0  0  0  0  0
  161.0130  201.4360  146.4020 C   0  0  0  0  0  0  0  0  0  0  0  0
  160.8320  200.9920  147.6520 C   0  0  0  0  0  3  0  0  0  0  0  0
  161.0260  201.8630  148.7750 N   0  0  0  0  0  0  0  0  0  0  0  0
  161.6300  203.6900  147.1710 C   0  0  0  0  0  3  0  0  0  0  0  0
  161.4040  203.2330  148.5460 C   0  0  0  0  0  0  0  0  0  0  0  0
  161.4420  202.8360  146.1600 C   0  0  0  0  0  3  0  0  0  0  0  0
  161.1220  203.6490  150.9300 C   0  0  0  0  0  0  0  0  0  0  0  0
  160.8650  202.3600  151.1780 C   0  0  0  0  0  3  0  0  0  0  0  0
  160.7820  200.4970  145.2610 C   0  0  0  0  0  3  0  0  0  0  0  0
  159.3310  200.5290  144.8190 C   0  0  0  0  0  1  0  0  0  0  0  0
  161.1810  199.0820  145.6360 C   0  0  0  0  0  1  0  0  0  0  0  0
  1 19  1  6  0  0  0
  1 15  1  0  0  0  0
  2 10  1  0  0  0  0
  3 13  1  0  0  0  0
  5  6  1  0  0  0  0
  5  9  1  0  0  0  0
  6  4  1  0  0  0  0
  7  9  1  6  0  0  0
  7  8  1  0  0  0  0
  7  3  1  0  0  0  0
  8  4  1  6  0  0  0
  8  1  1  0  0  0  0
 10 11  1  0  0  0  0
 11 16  1  0  0  0  0
 12 11  2  0  0  0  0
 13 15  1  0  0  0  0
 13  2  2  0  0  0  0
 14 12  1  0  0  0  0
 15 14  2  0  0  0  0
 16 18  2  0  0  0  0
 16 17  1  0  0  0  0
 19 20  1  0  0  0  0
 20 21  1  1  0  0  0
 22 31  1  0  0  0  0
 23 30  1  0  0  0  0
 24 25  2  0  0  0  0
 25 26  1  0  0  0  0
 26 22  1  0  0  0  0
 27 28  1  0  0  0  0
 28 26  1  0  0  0  0
 28 23  2  0  0  0  0
 29 24  1  0  0  0  0
 29 27  2  0  0  0  0
 30 31  2  0  0  0  0
 30 20  1  0  0  0  0
 32 34  1  0  0  0  0
 32 24  1  0  0  0  0
 33 32  1  0  0  0  0
M  END
>  <MODEL>
5

>  <REMARK>
 VINA RESULT:      -7.2      2.153      5.027
  Name = 
  5 active torsions:
  status: ('A' for Active; 'I' for Inactive)
    1  A    between atoms: C_1  and  N_9
    2  A    between atoms: C_3  and  C_25
    3  A    between atoms: C_7  and  C_11
    4  A    between atoms: C_8  and  N_9
    5  A    between atoms: C_8  and  C_30
                            x       y       z     vdW  Elec       q    Type
                         _______ _______ _______ _____ _____    ______ ____

>  <TORSDO>
F 5

$$$$
=
 OpenBabel11062409323D

 34 38  0  0  1  0  0  0  0  0999 V2000
  160.9460  208.0760  151.1790 C   0  0  2  0  0  3  0  0  0  0  0  0
  161.2050  204.5610  153.0380 C   0  0  0  0  0  3  0  0  0  0  0  0
  161.3120  206.8030  153.7670 C   0  0  0  0  0  3  0  0  0  0  0  0
  160.3910  210.2560  152.4010 C   0  0  0  0  0  2  0  0  0  0  0  0
  160.9860  210.3890  154.7390 O   0  0  0  0  0  0  0  0  0  0  0  0
  160.0210  210.7820  153.7910 C   0  0  0  0  0  2  0  0  0  0  0  0
  161.3470  208.2950  153.6310 C   0  0  1  0  0  3  0  0  0  0  0  0
  160.4600  208.7330  152.4720 C   0  0  2  0  0  3  0  0  0  0  0  0
  160.8720  208.9930  154.9020 C   0  0  0  0  0  2  0  0  0  0  0  0
  161.0510  203.4960  152.2580 C   0  0  0  0  0  3  0  0  0  0  0  0
  160.7970  203.3990  150.8100 C   0  0  0  0  0  0  0  0  0  0  0  0
  160.6610  204.4370  149.9870 C   0  0  0  0  0  3  0  0  0  0  0  0
  161.1730  205.9880  152.7100 C   0  0  0  0  0  0  0  0  0  0  0  0
  160.7250  205.8780  150.2400 C   0  0  0  0  0  3  0  0  0  0  0  0
  160.9430  206.5720  151.3520 C   0  0  0  0  0  0  0  0  0  0  0  0
  160.6770  202.0500  150.2080 C   0  0  0  0  0  0  0  0  0  0  0  0
  161.5820  201.0500  150.5470 O   0  0  0  0  0  1  0  0  0  0  0  0
  159.7150  201.7610  149.3380 C   0  0  0  0  0  2  0  0  0  0  0  0
  162.2970  208.5370  150.8400 N   0  0  0  0  0  2  0  0  0  0  0  0
  162.3710  209.0010  149.4510 C   0  0  2  0  0  3  0  0  0  0  0  0
  161.3480  209.9100  149.1610 O   0  0  0  0  0  1  0  0  0  0  0  0
  163.4080  205.7120  147.7190 C   0  0  0  0  0  2  0  0  0  0  0  0
  161.3380  207.7070  147.4650 C   0  0  0  0  0  3  0  0  0  0  0  0
  160.8880  204.0640  145.5260 C   0  0  0  0  0  0  0  0  0  0  0  0
  161.9330  204.2380  146.3450 C   0  0  0  0  0  3  0  0  0  0  0  0
  162.1550  205.4970  146.9940 N   0  0  0  0  0  0  0  0  0  0  0  0
  160.1120  206.3770  145.8410 C   0  0  0  0  0  3  0  0  0  0  0  0
  161.2300  206.5780  146.7700 C   0  0  0  0  0  0  0  0  0  0  0  0
  159.9540  205.1860  145.2570 C   0  0  0  0  0  3  0  0  0  0  0  0
  162.4040  207.8610  148.4750 C   0  0  0  0  0  0  0  0  0  0  0  0
  163.3300  206.9090  148.6290 C   0  0  0  0  0  3  0  0  0  0  0  0
  160.6860  202.7280  144.8860 C   0  0  0  0  0  3  0  0  0  0  0  0
  159.3310  202.6510  144.2090 C   0  0  0  0  0  1  0  0  0  0  0  0
  160.8230  201.6130  145.9060 C   0  0  0  0  0  1  0  0  0  0  0  0
  1 19  1  1  0  0  0
  1 15  1  0  0  0  0
  1  8  1  0  0  0  0
  4  6  1  0  0  0  0
  5  9  1  0  0  0  0
  6  5  1  0  0  0  0
  7  3  1  1  0  0  0
  7  9  1  0  0  0  0
  8  4  1  6  0  0  0
  8  7  1  0  0  0  0
 10  2  2  0  0  0  0
 11 10  1  0  0  0  0
 12 14  1  0  0  0  0
 12 11  2  0  0  0  0
 13  2  1  0  0  0  0
 13  3  2  0  0  0  0
 14 15  2  0  0  0  0
 15 13  1  0  0  0  0
 16 17  1  0  0  0  0
 16 11  1  0  0  0  0
 18 16  2  0  0  0  0
 20 21  1  6  0  0  0
 20 19  1  0  0  0  0
 22 31  1  0  0  0  0
 23 30  1  0  0  0  0
 24 25  2  0  0  0  0
 25 26  1  0  0  0  0
 26 22  1  0  0  0  0
 27 28  1  0  0  0  0
 28 26  1  0  0  0  0
 28 23  2  0  0  0  0
 29 24  1  0  0  0  0
 29 27  2  0  0  0  0
 30 31  2  0  0  0  0
 30 20  1  0  0  0  0
 32 24  1  0  0  0  0
 32 34  1  0  0  0  0
 33 32  1  0  0  0  0
M  END
>  <MODEL>
6

>  <REMARK>
 VINA RESULT:      -7.0      2.150      5.400
  Name = 
  5 active torsions:
  status: ('A' for Active; 'I' for Inactive)
    1  A    between atoms: C_1  and  N_9
    2  A    between atoms: C_3  and  C_25
    3  A    between atoms: C_7  and  C_11
    4  A    between atoms: C_8  and  N_9
    5  A    between atoms: C_8  and  C_30
                            x       y       z     vdW  Elec       q    Type
                         _______ _______ _______ _____ _____    ______ ____

>  <TORSDO>
F 5

$$$$
=
 OpenBabel11062409323D

 34 38  0  0  1  0  0  0  0  0999 V2000
  159.6260  211.4870  152.4570 C   0  0  2  0  0  3  0  0  0  0  0  0
  157.3830  214.4000  153.9940 C   0  0  0  0  0  3  0  0  0  0  0  0
  159.0170  214.3250  152.2930 C   0  0  0  0  0  2  0  0  0  0  0  0
  160.7420  211.6580  150.1600 C   0  0  0  0  0  2  0  0  0  0  0  0
  161.2720  213.8760  149.3560 O   0  0  0  0  0  0  0  0  0  0  0  0
  160.8450  212.5950  148.9520 C   0  0  0  0  0  2  0  0  0  0  0  0
  160.0760  213.7140  151.4270 C   0  0  1  0  0  3  0  0  0  0  0  0
  159.7370  212.2560  151.1400 C   0  0  2  0  0  3  0  0  0  0  0  0
  160.2230  214.4530  150.1000 C   0  0  0  0  0  2  0  0  0  0  0  0
  156.5310  214.0180  154.9400 C   0  0  0  0  0  2  0  0  0  0  0  0
  156.2750  212.6870  155.5170 C   0  0  0  0  0  0  0  0  0  0  0  0
  156.8940  211.5650  155.1540 C   0  0  0  0  0  3  0  0  0  0  0  0
  158.3480  213.6190  153.2180 C   0  0  0  0  0  0  0  0  0  0  0  0
  157.9400  211.3240  154.1580 C   0  0  0  0  0  3  0  0  0  0  0  0
  158.5820  212.1460  153.3340 C   0  0  0  0  0  0  0  0  0  0  0  0
  155.2520  212.5690  156.5820 C   0  0  0  0  0  0  0  0  0  0  0  0
  154.6350  213.7080  157.0890 O   0  0  0  0  0  1  0  0  0  0  0  0
  154.8980  211.3880  157.0780 C   0  0  0  0  0  2  0  0  0  0  0  0
  160.9190  211.4640  153.1520 N   0  0  0  0  0  2  0  0  0  0  0  0
  160.9430  210.4390  154.2020 C   0  0  2  0  0  3  0  0  0  0  0  0
  161.8660  210.7560  155.2040 O   0  0  0  0  0  1  0  0  0  0  0  0
  161.3050  206.6030  153.9890 C   0  0  0  0  0  2  0  0  0  0  0  0
  161.2760  208.8550  152.1850 C   0  0  0  0  0  3  0  0  0  0  0  0
  160.8490  205.0230  150.6470 C   0  0  0  0  0  0  0  0  0  0  0  0
  160.8790  205.1880  151.9750 C   0  0  0  0  0  3  0  0  0  0  0  0
  161.0770  206.4880  152.5480 N   0  0  0  0  0  0  0  0  0  0  0  0
  161.2280  207.4170  150.2260 C   0  0  0  0  0  3  0  0  0  0  0  0
  161.2280  207.6260  151.6780 C   0  0  0  0  0  0  0  0  0  0  0  0
  161.0450  206.1840  149.7440 C   0  0  0  0  0  3  0  0  0  0  0  0
  161.1690  209.0640  153.6430 C   0  0  0  0  0  0  0  0  0  0  0  0
  161.1270  208.0170  154.4740 C   0  0  0  0  0  3  0  0  0  0  0  0
  160.6220  203.6520  150.0950 C   0  0  0  0  0  3  0  0  0  0  0  0
  161.2210  202.5960  151.0030 C   0  0  0  0  0  1  0  0  0  0  0  0
  161.2030  203.5290  148.6980 C   0  0  0  0  0  1  0  0  0  0  0  0
  1 19  1  1  0  0  0
  1 15  1  0  0  0  0
  2 10  1  0  0  0  0
  3 13  1  0  0  0  0
  5  9  1  0  0  0  0
  6  5  1  0  0  0  0
  6  4  1  0  0  0  0
  7  9  1  6  0  0  0
  7  3  1  0  0  0  0
  8  4  1  6  0  0  0
  8  7  1  0  0  0  0
  8  1  1  0  0  0  0
 10 11  1  0  0  0  0
 11 16  1  0  0  0  0
 12 11  2  0  0  0  0
 13 15  1  0  0  0  0
 13  2  2  0  0  0  0
 14 12  1  0  0  0  0
 15 14  2  0  0  0  0
 16 18  2  0  0  0  0
 16 17  1  0  0  0  0
 19 20  1  0  0  0  0
 20 21  1  1  0  0  0
 22 31  1  0  0  0  0
 23 30  1  0  0  0  0
 24 25  2  0  0  0  0
 25 26  1  0  0  0  0
 26 22  1  0  0  0  0
 27 28  1  0  0  0  0
 28 23  2  0  0  0  0
 28 26  1  0  0  0  0
 29 27  2  0  0  0  0
 29 24  1  0  0  0  0
 30 20  1  0  0  0  0
 30 31  2  0  0  0  0
 32 24  1  0  0  0  0
 32 33  1  0  0  0  0
 34 32  1  0  0  0  0
M  END
>  <MODEL>
7

>  <REMARK>
 VINA RESULT:      -6.6      2.709      6.284
  Name = 
  5 active torsions:
  status: ('A' for Active; 'I' for Inactive)
    1  A    between atoms: C_1  and  N_9
    2  A    between atoms: C_3  and  C_25
    3  A    between atoms: C_7  and  C_11
    4  A    between atoms: C_8  and  N_9
    5  A    between atoms: C_8  and  C_30
                            x       y       z     vdW  Elec       q    Type
                         _______ _______ _______ _____ _____    ______ ____

>  <TORSDO>
F 5

$$$$
=
 OpenBabel11062409323D

 34 38  0  0  1  0  0  0  0  0999 V2000
  161.9160  208.4230  152.2940 C   0  0  2  0  0  3  0  0  0  0  0  0
  159.6460  208.9200  155.5310 C   0  0  0  0  0  3  0  0  0  0  0  0
  160.2660  207.0390  154.2470 C   0  0  0  0  0  2  0  0  0  0  0  0
  162.9220  206.1620  151.6360 C   0  0  0  0  0  2  0  0  0  0  0  0
  161.7420  204.1810  152.3590 O   0  0  0  0  0  0  0  0  0  0  0  0
  163.0250  204.7160  152.1290 C   0  0  0  0  0  2  0  0  0  0  0  0
  160.9030  206.2960  153.1120 C   0  0  1  0  0  3  0  0  0  0  0  0
  162.2040  206.9790  152.7070 C   0  0  2  0  0  3  0  0  0  0  0  0
  161.2050  204.8460  153.4800 C   0  0  0  0  0  2  0  0  0  0  0  0
  159.5740  210.1660  155.9860 C   0  0  0  0  0  2  0  0  0  0  0  0
  160.2010  211.4040  155.4880 C   0  0  0  0  0  0  0  0  0  0  0  0
  161.0080  211.4800  154.4310 C   0  0  0  0  0  3  0  0  0  0  0  0
  160.3720  208.3700  154.3840 C   0  0  0  0  0  0  0  0  0  0  0  0
  161.4770  210.4490  153.5040 C   0  0  0  0  0  3  0  0  0  0  0  0
  161.2350  209.1430  153.4380 C   0  0  0  0  0  0  0  0  0  0  0  0
  159.9270  212.6680  156.2100 C   0  0  0  0  0  0  0  0  0  0  0  0
  160.8270  213.1410  157.1600 O   0  0  0  0  0  1  0  0  0  0  0  0
  158.8280  213.3770  155.9760 C   0  0  0  0  0  2  0  0  0  0  0  0
  161.0610  208.4600  151.1020 N   0  0  0  0  0  2  0  0  0  0  0  0
  161.8590  208.4700  149.8710 C   0  0  2  0  0  3  0  0  0  0  0  0
  161.7740  209.7040  149.2170 O   0  0  0  0  0  1  0  0  0  0  0  0
  161.4760  206.3330  146.6800 C   0  0  0  0  0  2  0  0  0  0  0  0
  161.0570  206.0370  149.5200 C   0  0  0  0  0  3  0  0  0  0  0  0
  161.1180  202.6520  147.1190 C   0  0  0  0  0  0  0  0  0  0  0  0
  161.4090  203.8390  146.5730 C   0  0  0  0  0  3  0  0  0  0  0  0
  161.3480  205.0400  147.3540 N   0  0  0  0  0  0  0  0  0  0  0  0
  160.6370  203.6520  149.3140 C   0  0  0  0  0  3  0  0  0  0  0  0
  160.9860  204.9580  148.7450 C   0  0  0  0  0  0  0  0  0  0  0  0
  160.7030  202.5640  148.5410 C   0  0  0  0  0  3  0  0  0  0  0  0
  161.5120  207.3270  148.9630 C   0  0  0  0  0  0  0  0  0  0  0  0
  161.7580  207.4460  147.6540 C   0  0  0  0  0  3  0  0  0  0  0  0
  161.2110  201.4240  146.2710 C   0  0  0  0  0  3  0  0  0  0  0  0
  160.0740  201.3700  145.2680 C   0  0  0  0  0  1  0  0  0  0  0  0
  161.2080  200.1720  147.1290 C   0  0  0  0  0  1  0  0  0  0  0  0
  1 19  1  6  0  0  0
  1  8  1  0  0  0  0
  1 15  1  0  0  0  0
  2 10  1  0  0  0  0
  3 13  1  0  0  0  0
  4  6  1  0  0  0  0
  5  9  1  0  0  0  0
  6  5  1  0  0  0  0
  7  9  1  1  0  0  0
  7  3  1  0  0  0  0
  8  4  1  6  0  0  0
  8  7  1  0  0  0  0
 11 10  1  0  0  0  0
 11 16  1  0  0  0  0
 12 11  2  0  0  0  0
 13  2  2  0  0  0  0
 14 12  1  0  0  0  0
 15 14  2  0  0  0  0
 15 13  1  0  0  0  0
 16 17  1  0  0  0  0
 18 16  2  0  0  0  0
 20 21  1  6  0  0  0
 20 19  1  0  0  0  0
 22 26  1  0  0  0  0
 22 31  1  0  0  0  0
 24 29  1  0  0  0  0
 25 24  2  0  0  0  0
 25 26  1  0  0  0  0
 26 28  1  0  0  0  0
 28 27  1  0  0  0  0
 28 23  2  0  0  0  0
 29 27  2  0  0  0  0
 30 23  1  0  0  0  0
 30 20  1  0  0  0  0
 31 30  2  0  0  0  0
 32 24  1  0  0  0  0
 32 34  1  0  0  0  0
 33 32  1  0  0  0  0
M  END
>  <MODEL>
8

>  <REMARK>
 VINA RESULT:      -6.5      2.171      4.424
  Name = 
  5 active torsions:
  status: ('A' for Active; 'I' for Inactive)
    1  A    between atoms: C_1  and  N_9
    2  A    between atoms: C_3  and  C_25
    3  A    between atoms: C_7  and  C_11
    4  A    between atoms: C_8  and  N_9
    5  A    between atoms: C_8  and  C_30
                            x       y       z     vdW  Elec       q    Type
                         _______ _______ _______ _____ _____    ______ ____

>  <TORSDO>
F 5

$$$$
=
 OpenBabel11062409323D

 34 38  0  0  1  0  0  0  0  0999 V2000
  160.4810  208.7190  152.4220 C   0  0  2  0  0  3  0  0  0  0  0  0
  161.8670  204.9980  152.0970 C   0  0  0  0  0  3  0  0  0  0  0  0
  161.6830  206.5180  153.8920 C   0  0  0  0  0  3  0  0  0  0  0  0
  159.7930  209.7550  154.6600 C   0  0  0  0  0  2  0  0  0  0  0  0
  160.8720  208.8980  156.6460 O   0  0  0  0  0  0  0  0  0  0  0  0
  159.6550  209.4010  156.1440 C   0  0  0  0  0  2  0  0  0  0  0  0
  161.3840  207.8220  154.5670 C   0  0  1  0  0  3  0  0  0  0  0  0
  160.1830  208.4880  153.9050 C   0  0  2  0  0  3  0  0  0  0  0  0
  161.0840  207.6380  156.0520 C   0  0  0  0  0  2  0  0  0  0  0  0
  161.7560  204.4560  150.8880 C   0  0  0  0  0  3  0  0  0  0  0  0
  161.2000  205.0080  149.6400 C   0  0  0  0  0  0  0  0  0  0  0  0
  160.6710  206.2240  149.5110 C   0  0  0  0  0  3  0  0  0  0  0  0
  161.4730  206.3220  152.5820 C   0  0  0  0  0  0  0  0  0  0  0  0
  160.4990  207.3050  150.4830 C   0  0  0  0  0  3  0  0  0  0  0  0
  160.8220  207.3970  151.7690 C   0  0  0  0  0  0  0  0  0  0  0  0
  161.2200  204.1580  148.4270 C   0  0  0  0  0  0  0  0  0  0  0  0
  160.9400  202.7980  148.5210 O   0  0  0  0  0  1  0  0  0  0  0  0
  161.5020  204.6610  147.2300 C   0  0  0  0  0  2  0  0  0  0  0  0
  161.5960  209.6590  152.2590 N   0  0  0  0  0  2  0  0  0  0  0  0
  161.1140  211.0210  152.0020 C   0  0  2  0  0  3  0  0  0  0  0  0
  159.7610  211.1550  152.3310 O   0  0  0  0  0  1  0  0  0  0  0  0
  162.3270  210.9770  148.3390 C   0  0  0  0  0  2  0  0  0  0  0  0
  160.8430  212.7330  150.0830 C   0  0  0  0  0  3  0  0  0  0  0  0
  160.7580  213.4020  145.9870 C   0  0  0  0  0  0  0  0  0  0  0  0
  161.3770  212.3100  146.4520 C   0  0  0  0  0  3  0  0  0  0  0  0
  161.4750  212.0670  147.8620 N   0  0  0  0  0  0  0  0  0  0  0  0
  160.2420  214.2130  148.2510 C   0  0  0  0  0  3  0  0  0  0  0  0
  160.8840  213.0060  148.7810 C   0  0  0  0  0  0  0  0  0  0  0  0
  160.1830  214.3940  146.9290 C   0  0  0  0  0  3  0  0  0  0  0  0
  161.3980  211.4640  150.5970 C   0  0  0  0  0  0  0  0  0  0  0  0
  162.0380  210.6260  149.7740 C   0  0  0  0  0  3  0  0  0  0  0  0
  160.6650  213.6050  144.5090 C   0  0  0  0  0  3  0  0  0  0  0  0
  159.3650  213.0430  143.9660 C   0  0  0  0  0  1  0  0  0  0  0  0
  161.8440  212.9660  143.7990 C   0  0  0  0  0  1  0  0  0  0  0  0
  1 19  1  1  0  0  0
  1  8  1  0  0  0  0
  2 13  1  0  0  0  0
  4  6  1  0  0  0  0
  6  5  1  0  0  0  0
  7  3  1  6  0  0  0
  7  9  1  0  0  0  0
  8  7  1  0  0  0  0
  8  4  1  1  0  0  0
  9  5  1  0  0  0  0
 10  2  2  0  0  0  0
 11 10  1  0  0  0  0
 12 11  2  0  0  0  0
 12 14  1  0  0  0  0
 13  3  2  0  0  0  0
 14 15  2  0  0  0  0
 15  1  1  0  0  0  0
 15 13  1  0  0  0  0
 16 17  1  0  0  0  0
 16 11  1  0  0  0  0
 18 16  2  0  0  0  0
 20 19  1  0  0  0  0
 20 21  1  6  0  0  0
 22 31  1  0  0  0  0
 23 30  1  0  0  0  0
 24 25  2  0  0  0  0
 24 29  1  0  0  0  0
 25 26  1  0  0  0  0
 26 22  1  0  0  0  0
 26 28  1  0  0  0  0
 27 28  1  0  0  0  0
 28 23  2  0  0  0  0
 29 27  2  0  0  0  0
 30 20  1  0  0  0  0
 31 30  2  0  0  0  0
 32 24  1  0  0  0  0
 33 32  1  0  0  0  0
 34 32  1  0  0  0  0
M  END
>  <MODEL>
9

>  <REMARK>
 VINA RESULT:      -6.4      2.466      7.468
  Name = 
  5 active torsions:
  status: ('A' for Active; 'I' for Inactive)
    1  A    between atoms: C_1  and  N_9
    2  A    between atoms: C_3  and  C_25
    3  A    between atoms: C_7  and  C_11
    4  A    between atoms: C_8  and  N_9
    5  A    between atoms: C_8  and  C_30
                            x       y       z     vdW  Elec       q    Type
                         _______ _______ _______ _____ _____    ______ ____

>  <TORSDO>
F 5

$$$$
