=
 OpenBabel11062409153D

 37 40  0  0  1  0  0  0  0  0999 V2000
  160.7920  211.1950  151.9020 C   0  0  0  0  0  3  0  0  0  0  0  0
  161.1190  206.8070  152.1000 C   0  0  0  0  0  3  0  0  0  0  0  0
  160.1940  211.0000  153.0690 C   0  0  0  0  0  0  0  0  0  0  0  0
  161.1200  208.1820  152.3630 C   0  0  0  0  0  0  0  0  0  0  0  0
  161.5970  208.9290  151.3610 C   0  0  0  0  0  3  0  0  0  0  0  0
  160.8330  208.6470  153.6850 C   0  0  0  0  0  0  0  0  0  0  0  0
  160.7320  206.3080  154.4190 C   0  0  0  0  0  3  0  0  0  0  0  0
  161.8050  210.3410  151.3920 N   0  0  0  0  0  0  0  0  0  0  0  0
  160.7010  207.6720  154.6970 C   0  0  0  0  0  3  0  0  0  0  0  0
  160.6420  209.9480  154.0400 C   0  0  0  0  0  0  0  0  0  0  0  0
  160.9080  205.8670  153.1070 C   0  0  0  0  0  0  0  0  0  0  0  0
  160.9080  204.5090  152.7800 O   0  0  0  0  0  0  0  0  0  0  0  0
  161.5650  203.9960  151.6290 C   0  0  0  0  0  1  0  0  0  0  0  0
  162.0350  211.1900  149.1090 C   0  0  0  0  0  1  0  0  0  0  0  0
  162.7370  210.9040  150.4270 C   0  0  0  0  0  2  0  0  0  0  0  0
  158.9980  211.8800  153.3130 C   0  0  1  0  0  3  0  0  0  0  0  0
  158.3800  213.8860  154.4630 O   0  0  0  0  0  1  0  0  0  0  0  0
  159.3780  213.3110  153.6770 C   0  0  0  0  0  2  0  0  0  0  0  0
  157.9830  211.8230  152.1860 C   0  0  0  0  0  2  0  0  0  0  0  0
  157.8230  213.1080  151.6030 O   0  0  0  0  0  0  0  0  0  0  0  0
  156.9790  213.1930  149.4180 C   0  0  0  0  0  3  0  0  0  0  0  0
  158.0230  213.3350  150.2390 C   0  0  0  0  0  0  0  0  0  0  0  0
  159.3880  213.7320  149.7180 C   0  0  0  0  0  2  0  0  0  0  0  0
  160.4940  214.2750  147.6740 O   0  0  0  0  0  0  0  0  0  0  0  0
  158.2370  213.7590  147.4400 N   0  0  0  0  0  0  0  0  0  0  0  0
  159.4170  213.9390  148.2310 C   0  0  0  0  0  0  0  0  0  0  0  0
  157.1040  213.4150  147.9700 C   0  0  0  0  0  3  0  0  0  0  0  0
  160.8740  210.3260  155.4980 C   0  0  1  0  0  3  0  0  0  0  0  0
  162.3460  210.5320  155.8490 C   0  0  0  0  0  0  0  0  0  0  0  0
  163.4080  210.7130  154.7820 C   0  0  0  0  0  1  0  0  0  0  0  0
  162.5950  211.3040  157.1230 C   0  0  0  0  0  2  0  0  0  0  0  0
  162.8160  209.7980  157.0830 C   0  0  0  0  0  2  0  0  0  0  0  0
  159.9540  211.3900  156.0800 C   0  0  0  0  0  2  0  0  0  0  0  0
  158.6140  210.7860  156.4470 C   0  0  0  0  0  2  0  0  0  0  0  0
  157.8030  211.7990  157.2260 C   0  0  0  0  0  2  0  0  0  0  0  0
  156.2830  210.9130  155.4910 C   0  0  0  0  0  1  0  0  0  0  0  0
  156.4260  211.9220  156.6100 C   0  0  0  0  0  2  0  0  0  0  0  0
  1  3  2  0  0  0  0
  2  4  1  0  0  0  0
  2 11  2  0  0  0  0
  3 16  1  0  0  0  0
  3 10  1  0  0  0  0
  4  6  1  0  0  0  0
  5  8  1  0  0  0  0
  5  4  2  0  0  0  0
  6 10  2  0  0  0  0
  6  9  1  0  0  0  0
  7  9  2  0  0  0  0
  8  1  1  0  0  0  0
 10 28  1  0  0  0  0
 11  7  1  0  0  0  0
 12 11  1  0  0  0  0
 13 12  1  0  0  0  0
 14 15  1  0  0  0  0
 15  8  1  0  0  0  0
 16 19  1  6  0  0  0
 16 18  1  0  0  0  0
 18 17  1  0  0  0  0
 20 19  1  0  0  0  0
 21 22  2  0  0  0  0
 22 20  1  0  0  0  0
 23 22  1  0  0  0  0
 24 26  2  0  0  0  0
 25 27  2  0  0  0  0
 25 26  1  0  0  0  0
 26 23  1  0  0  0  0
 27 21  1  0  0  0  0
 28 29  1  0  0  0  0
 28 33  1  6  0  0  0
 29 32  1  0  0  0  0
 29 31  1  0  0  0  0
 30 29  1  0  0  0  0
 32 31  1  0  0  0  0
 33 34  1  0  0  0  0
 34 35  1  0  0  0  0
 36 37  1  0  0  0  0
 37 35  1  0  0  0  0
M  END
>  <MODEL>
1

>  <REMARK>
 VINA RESULT:      -4.3      0.000      0.000
  Name = 
  13 active torsions:
  status: ('A' for Active; 'I' for Inactive)
    1  A    between atoms: C_1  and  C_36
    2  A    between atoms: O_3  and  C_32
    3  A    between atoms: C_6  and  O_31
    4  A    between atoms: C_10  and  C_14
    5  A    between atoms: C_14  and  C_27
    6  A    between atoms: C_14  and  C_37
    7  A    between atoms: C_17  and  C_26
    8  A    between atoms: C_17  and  C_33
    9  A    between atoms: N_24  and  C_28
   10  A    between atoms: C_26  and  C_34
   11  A    between atoms: C_29  and  C_36
   12  A    between atoms: O_31  and  C_37
   13  A    between atoms: C_33  and  C_36
                            x       y       z     vdW  Elec       q    Type
                         _______ _______ _______ _____ _____    ______ ____

>  <TORSDO>
F 13

$$$$
=
 OpenBabel11062409153D

 37 40  0  0  1  0  0  0  0  0999 V2000
  158.5430  209.7620  156.0010 C   0  0  0  0  0  3  0  0  0  0  0  0
  157.5760  212.5910  152.7660 C   0  0  0  0  0  3  0  0  0  0  0  0
  159.6300  209.6000  155.2590 C   0  0  0  0  0  0  0  0  0  0  0  0
  158.1910  211.8430  153.7780 C   0  0  0  0  0  0  0  0  0  0  0  0
  157.4100  211.6190  154.8420 C   0  0  0  0  0  3  0  0  0  0  0  0
  159.5940  211.5750  153.7030 C   0  0  0  0  0  0  0  0  0  0  0  0
  159.6900  212.9720  151.6890 C   0  0  0  0  0  3  0  0  0  0  0  0
  157.8070  210.9740  156.0530 N   0  0  0  0  0  0  0  0  0  0  0  0
  160.3170  212.2080  152.6690 C   0  0  0  0  0  3  0  0  0  0  0  0
  160.2820  210.7330  154.5240 C   0  0  0  0  0  0  0  0  0  0  0  0
  158.3050  213.1400  151.7140 C   0  0  0  0  0  0  0  0  0  0  0  0
  157.6330  213.8670  150.7290 O   0  0  0  0  0  0  0  0  0  0  0  0
  158.2630  214.3030  149.5310 C   0  0  0  0  0  1  0  0  0  0  0  0
  155.7560  212.0150  156.8850 C   0  0  0  0  0  1  0  0  0  0  0  0
  157.0050  211.2250  157.2400 C   0  0  0  0  0  2  0  0  0  0  0  0
  160.1200  208.1800  155.1710 C   0  0  1  0  0  3  0  0  0  0  0  0
  160.2740  206.8410  157.1480 O   0  0  0  0  0  1  0  0  0  0  0  0
  159.4040  207.2430  156.1360 C   0  0  0  0  0  2  0  0  0  0  0  0
  160.1290  207.6460  153.7490 C   0  0  0  0  0  2  0  0  0  0  0  0
  161.1560  206.6780  153.5950 O   0  0  0  0  0  0  0  0  0  0  0  0
  161.1100  204.4310  152.9290 C   0  0  0  0  0  3  0  0  0  0  0  0
  161.1280  205.7200  152.5790 C   0  0  0  0  0  0  0  0  0  0  0  0
  161.1160  206.1420  151.1250 C   0  0  0  0  0  2  0  0  0  0  0  0
  161.0660  205.1990  148.9330 O   0  0  0  0  0  0  0  0  0  0  0  0
  161.0640  203.6340  150.6540 N   0  0  0  0  0  0  0  0  0  0  0  0
  161.0810  204.9810  150.1720 C   0  0  0  0  0  0  0  0  0  0  0  0
  161.0780  203.3610  151.9230 C   0  0  0  0  0  3  0  0  0  0  0  0
  161.7830  210.9530  154.6670 C   0  0  1  0  0  3  0  0  0  0  0  0
  162.2320  211.1740  156.1100 C   0  0  0  0  0  0  0  0  0  0  0  0
  161.4860  212.1000  157.0500 C   0  0  0  0  0  1  0  0  0  0  0  0
  162.8560  209.9690  156.7750 C   0  0  0  0  0  2  0  0  0  0  0  0
  163.7270  211.1340  156.3250 C   0  0  0  0  0  2  0  0  0  0  0  0
  162.6860  210.0110  153.8850 C   0  0  0  0  0  2  0  0  0  0  0  0
  162.8080  210.4690  152.4460 C   0  0  0  0  0  2  0  0  0  0  0  0
  162.2420  209.4050  151.5300 C   0  0  0  0  0  2  0  0  0  0  0  0
  162.0360  208.8930  149.1220 C   0  0  0  0  0  1  0  0  0  0  0  0
  162.0080  209.9970  150.1570 C   0  0  0  0  0  2  0  0  0  0  0  0
  1  8  1  0  0  0  0
  2  4  1  0  0  0  0
  3  1  2  0  0  0  0
  4  5  2  0  0  0  0
  5  8  1  0  0  0  0
  6  4  1  0  0  0  0
  6 10  2  0  0  0  0
  7 11  1  0  0  0  0
  7  9  2  0  0  0  0
  8 15  1  0  0  0  0
  9  6  1  0  0  0  0
 10 28  1  0  0  0  0
 10  3  1  0  0  0  0
 11  2  2  0  0  0  0
 12 11  1  0  0  0  0
 13 12  1  0  0  0  0
 14 15  1  0  0  0  0
 16 19  1  6  0  0  0
 16  3  1  0  0  0  0
 16 18  1  0  0  0  0
 18 17  1  0  0  0  0
 20 19  1  0  0  0  0
 22 21  2  0  0  0  0
 22 20  1  0  0  0  0
 23 22  1  0  0  0  0
 24 26  2  0  0  0  0
 25 27  2  0  0  0  0
 26 25  1  0  0  0  0
 26 23  1  0  0  0  0
 27 21  1  0  0  0  0
 28 33  1  1  0  0  0
 28 29  1  0  0  0  0
 29 32  1  0  0  0  0
 29 31  1  0  0  0  0
 29 30  1  0  0  0  0
 32 31  1  0  0  0  0
 34 33  1  0  0  0  0
 35 34  1  0  0  0  0
 36 37  1  0  0  0  0
 37 35  1  0  0  0  0
M  END
>  <MODEL>
2

>  <REMARK>
 VINA RESULT:      -3.9      2.381      7.125
  Name = 
  13 active torsions:
  status: ('A' for Active; 'I' for Inactive)
    1  A    between atoms: C_1  and  C_36
    2  A    between atoms: O_3  and  C_32
    3  A    between atoms: C_6  and  O_31
    4  A    between atoms: C_10  and  C_14
    5  A    between atoms: C_14  and  C_27
    6  A    between atoms: C_14  and  C_37
    7  A    between atoms: C_17  and  C_26
    8  A    between atoms: C_17  and  C_33
    9  A    between atoms: N_24  and  C_28
   10  A    between atoms: C_26  and  C_34
   11  A    between atoms: C_29  and  C_36
   12  A    between atoms: O_31  and  C_37
   13  A    between atoms: C_33  and  C_36
                            x       y       z     vdW  Elec       q    Type
                         _______ _______ _______ _____ _____    ______ ____

>  <TORSDO>
F 13

$$$$
=
 OpenBabel11062409153D

 37 40  0  0  1  0  0  0  0  0999 V2000
  160.7700  211.2060  151.4900 C   0  0  0  0  0  3  0  0  0  0  0  0
  161.2040  206.8430  151.9190 C   0  0  0  0  0  3  0  0  0  0  0  0
  160.2670  211.0710  152.7090 C   0  0  0  0  0  0  0  0  0  0  0  0
  161.1950  208.2320  152.1000 C   0  0  0  0  0  0  0  0  0  0  0  0
  161.5790  208.9250  151.0220 C   0  0  0  0  0  3  0  0  0  0  0  0
  161.0000  208.7710  153.4110 C   0  0  0  0  0  0  0  0  0  0  0  0
  161.0050  206.4780  154.2860 C   0  0  0  0  0  3  0  0  0  0  0  0
  161.7590  210.3400  150.9540 N   0  0  0  0  0  0  0  0  0  0  0  0
  160.9660  207.8550  154.4850 C   0  0  0  0  0  3  0  0  0  0  0  0
  160.8100  210.0870  153.7030 C   0  0  0  0  0  0  0  0  0  0  0  0
  161.0900  205.9630  152.9920 C   0  0  0  0  0  0  0  0  0  0  0  0
  161.0940  204.5880  152.7460 O   0  0  0  0  0  0  0  0  0  0  0  0
  160.8770  204.0380  151.4530 C   0  0  0  0  0  1  0  0  0  0  0  0
  161.8020  211.0270  148.6070 C   0  0  0  0  0  1  0  0  0  0  0  0
  162.6020  210.8590  149.8880 C   0  0  0  0  0  2  0  0  0  0  0  0
  159.0750  211.9440  152.9940 C   0  0  1  0  0  3  0  0  0  0  0  0
  158.5280  213.7230  154.4990 O   0  0  0  0  0  1  0  0  0  0  0  0
  159.4590  213.3130  153.5450 C   0  0  0  0  0  2  0  0  0  0  0  0
  158.1220  212.0450  151.8160 C   0  0  0  0  0  2  0  0  0  0  0  0
  158.1720  213.3480  151.2530 O   0  0  0  0  0  0  0  0  0  0  0  0
  159.5380  214.0950  149.5010 C   0  0  0  0  0  3  0  0  0  0  0  0
  158.3770  213.5600  149.8880 C   0  0  0  0  0  0  0  0  0  0  0  0
  157.3070  213.1890  148.8840 C   0  0  0  0  0  2  0  0  0  0  0  0
  156.8960  213.2170  146.5320 O   0  0  0  0  0  0  0  0  0  0  0  0
  158.9730  214.0600  147.1570 N   0  0  0  0  0  0  0  0  0  0  0  0
  157.6990  213.4830  147.4640 C   0  0  0  0  0  0  0  0  0  0  0  0
  159.8330  214.3500  148.0840 C   0  0  0  0  0  3  0  0  0  0  0  0
  161.1440  210.5560  155.1140 C   0  0  1  0  0  3  0  0  0  0  0  0
  160.1220  210.1190  156.1600 C   0  0  0  0  0  0  0  0  0  0  0  0
  160.3870  208.9670  157.1100 C   0  0  0  0  0  1  0  0  0  0  0  0
  159.2880  211.2360  156.7420 C   0  0  0  0  0  2  0  0  0  0  0  0
  158.6780  210.2660  155.7400 C   0  0  0  0  0  2  0  0  0  0  0  0
  162.5880  210.3850  155.5640 C   0  0  0  0  0  2  0  0  0  0  0  0
  163.0010  211.5340  156.4630 C   0  0  0  0  0  2  0  0  0  0  0  0
  164.2800  211.1710  157.1860 C   0  0  0  0  0  2  0  0  0  0  0  0
  166.1100  212.3990  156.0680 C   0  0  0  0  0  1  0  0  0  0  0  0
  165.1770  212.3870  157.2600 C   0  0  0  0  0  2  0  0  0  0  0  0
  1  3  2  0  0  0  0
  2  4  1  0  0  0  0
  2 11  2  0  0  0  0
  3 16  1  0  0  0  0
  3 10  1  0  0  0  0
  4  6  1  0  0  0  0
  5  4  2  0  0  0  0
  6 10  2  0  0  0  0
  6  9  1  0  0  0  0
  7  9  2  0  0  0  0
  8  5  1  0  0  0  0
  8  1  1  0  0  0  0
 10 28  1  0  0  0  0
 11  7  1  0  0  0  0
 12 11  1  0  0  0  0
 13 12  1  0  0  0  0
 14 15  1  0  0  0  0
 15  8  1  0  0  0  0
 16 19  1  6  0  0  0
 16 18  1  0  0  0  0
 18 17  1  0  0  0  0
 20 19  1  0  0  0  0
 21 22  2  0  0  0  0
 22 20  1  0  0  0  0
 23 22  1  0  0  0  0
 24 26  2  0  0  0  0
 25 26  1  0  0  0  0
 25 27  2  0  0  0  0
 26 23  1  0  0  0  0
 27 21  1  0  0  0  0
 28 33  1  1  0  0  0
 28 29  1  0  0  0  0
 29 31  1  0  0  0  0
 29 30  1  0  0  0  0
 32 29  1  0  0  0  0
 32 31  1  0  0  0  0
 33 34  1  0  0  0  0
 34 35  1  0  0  0  0
 35 37  1  0  0  0  0
 36 37  1  0  0  0  0
M  END
>  <MODEL>
3

>  <REMARK>
 VINA RESULT:      -3.8      1.186      3.051
  Name = 
  13 active torsions:
  status: ('A' for Active; 'I' for Inactive)
    1  A    between atoms: C_1  and  C_36
    2  A    between atoms: O_3  and  C_32
    3  A    between atoms: C_6  and  O_31
    4  A    between atoms: C_10  and  C_14
    5  A    between atoms: C_14  and  C_27
    6  A    between atoms: C_14  and  C_37
    7  A    between atoms: C_17  and  C_26
    8  A    between atoms: C_17  and  C_33
    9  A    between atoms: N_24  and  C_28
   10  A    between atoms: C_26  and  C_34
   11  A    between atoms: C_29  and  C_36
   12  A    between atoms: O_31  and  C_37
   13  A    between atoms: C_33  and  C_36
                            x       y       z     vdW  Elec       q    Type
                         _______ _______ _______ _____ _____    ______ ____

>  <TORSDO>
F 13

$$$$
=
 OpenBabel11062409153D

 37 40  0  0  1  0  0  0  0  0999 V2000
  160.8730  211.5450  151.3250 C   0  0  0  0  0  3  0  0  0  0  0  0
  161.2140  207.2260  152.1210 C   0  0  0  0  0  3  0  0  0  0  0  0
  160.4360  211.5340  152.5760 C   0  0  0  0  0  0  0  0  0  0  0  0
  161.2520  208.6240  152.1770 C   0  0  0  0  0  0  0  0  0  0  0  0
  161.5940  209.2070  151.0210 C   0  0  0  0  0  3  0  0  0  0  0  0
  161.1450  209.2830  153.4420 C   0  0  0  0  0  0  0  0  0  0  0  0
  161.1380  207.0780  154.5190 C   0  0  0  0  0  3  0  0  0  0  0  0
  161.8070  210.6040  150.8170 N   0  0  0  0  0  0  0  0  0  0  0  0
  161.1470  208.4680  154.5950 C   0  0  0  0  0  3  0  0  0  0  0  0
  161.0070  210.6250  153.6240 C   0  0  0  0  0  0  0  0  0  0  0  0
  161.1370  206.4480  153.2730 C   0  0  0  0  0  0  0  0  0  0  0  0
  161.0900  205.0570  153.1530 O   0  0  0  0  0  0  0  0  0  0  0  0
  160.9070  204.3990  151.9060 C   0  0  0  0  0  1  0  0  0  0  0  0
  161.7460  211.7370  148.6500 C   0  0  0  0  0  1  0  0  0  0  0  0
  162.6030  211.0000  149.6660 C   0  0  0  0  0  2  0  0  0  0  0  0
  159.2850  212.4660  152.8440 C   0  0  1  0  0  3  0  0  0  0  0  0
  158.1920  213.0150  150.7860 O   0  0  0  0  0  1  0  0  0  0  0  0
  159.0870  213.4990  151.7400 C   0  0  0  0  0  2  0  0  0  0  0  0
  157.9990  211.7340  153.1840 C   0  0  0  0  0  2  0  0  0  0  0  0
  157.1050  212.6020  153.8660 O   0  0  0  0  0  0  0  0  0  0  0  0
  156.2380  212.9710  156.0120 C   0  0  0  0  0  3  0  0  0  0  0  0
  156.3300  212.1730  154.9450 C   0  0  0  0  0  0  0  0  0  0  0  0
  155.6170  210.8380  154.8960 C   0  0  0  0  0  2  0  0  0  0  0  0
  154.1880  209.4620  156.2230 O   0  0  0  0  0  0  0  0  0  0  0  0
  154.7980  211.4690  157.2300 N   0  0  0  0  0  0  0  0  0  0  0  0
  154.8290  210.5410  156.1400 C   0  0  0  0  0  0  0  0  0  0  0  0
  155.4420  212.5950  157.1890 C   0  0  0  0  0  3  0  0  0  0  0  0
  161.4310  211.2070  154.9670 C   0  0  1  0  0  3  0  0  0  0  0  0
  160.2690  211.4200  155.9340 C   0  0  0  0  0  0  0  0  0  0  0  0
  159.7870  212.8060  156.3160 C   0  0  0  0  0  1  0  0  0  0  0  0
  159.1840  210.3710  155.8680 C   0  0  0  0  0  2  0  0  0  0  0  0
  160.1600  210.3920  157.0360 C   0  0  0  0  0  2  0  0  0  0  0  0
  162.6600  210.5890  155.6180 C   0  0  0  0  0  2  0  0  0  0  0  0
  162.9510  211.2620  156.9450 C   0  0  0  0  0  2  0  0  0  0  0  0
  164.4250  211.1350  157.2600 C   0  0  0  0  0  2  0  0  0  0  0  0
  166.2870  212.7440  157.0330 C   0  0  0  0  0  1  0  0  0  0  0  0
  165.2220  211.9730  156.2830 C   0  0  0  0  0  2  0  0  0  0  0  0
  1  3  2  0  0  0  0
  2  4  1  0  0  0  0
  2 11  2  0  0  0  0
  3 16  1  0  0  0  0
  3 10  1  0  0  0  0
  4  6  1  0  0  0  0
  5  4  2  0  0  0  0
  6 10  2  0  0  0  0
  6  9  1  0  0  0  0
  7  9  2  0  0  0  0
  8  5  1  0  0  0  0
  8  1  1  0  0  0  0
 10 28  1  0  0  0  0
 11  7  1  0  0  0  0
 12 11  1  0  0  0  0
 13 12  1  0  0  0  0
 14 15  1  0  0  0  0
 15  8  1  0  0  0  0
 16 18  1  6  0  0  0
 16 19  1  0  0  0  0
 17 18  1  0  0  0  0
 19 20  1  0  0  0  0
 20 22  1  0  0  0  0
 21 27  1  0  0  0  0
 22 21  2  0  0  0  0
 23 22  1  0  0  0  0
 23 26  1  0  0  0  0
 26 24  2  0  0  0  0
 26 25  1  0  0  0  0
 27 25  2  0  0  0  0
 28 33  1  1  0  0  0
 28 29  1  0  0  0  0
 29 30  1  0  0  0  0
 29 32  1  0  0  0  0
 31 29  1  0  0  0  0
 31 32  1  0  0  0  0
 33 34  1  0  0  0  0
 34 35  1  0  0  0  0
 37 36  1  0  0  0  0
 37 35  1  0  0  0  0
M  END
>  <MODEL>
4

>  <REMARK>
 VINA RESULT:      -3.3      2.226      4.901
  Name = 
  13 active torsions:
  status: ('A' for Active; 'I' for Inactive)
    1  A    between atoms: C_1  and  C_36
    2  A    between atoms: O_3  and  C_32
    3  A    between atoms: C_6  and  O_31
    4  A    between atoms: C_10  and  C_14
    5  A    between atoms: C_14  and  C_27
    6  A    between atoms: C_14  and  C_37
    7  A    between atoms: C_17  and  C_26
    8  A    between atoms: C_17  and  C_33
    9  A    between atoms: N_24  and  C_28
   10  A    between atoms: C_26  and  C_34
   11  A    between atoms: C_29  and  C_36
   12  A    between atoms: O_31  and  C_37
   13  A    between atoms: C_33  and  C_36
                            x       y       z     vdW  Elec       q    Type
                         _______ _______ _______ _____ _____    ______ ____

>  <TORSDO>
F 13

$$$$
=
 OpenBabel11062409153D

 37 40  0  0  1  0  0  0  0  0999 V2000
  161.2130  210.5720  154.6540 C   0  0  0  0  0  3  0  0  0  0  0  0
  157.3570  210.9630  156.7480 C   0  0  0  0  0  3  0  0  0  0  0  0
  160.4070  210.5490  153.6010 C   0  0  0  0  0  0  0  0  0  0  0  0
  158.4460  211.0760  155.8760 C   0  0  0  0  0  0  0  0  0  0  0  0
  159.6380  211.0620  156.4850 C   0  0  0  0  0  3  0  0  0  0  0  0
  158.2180  211.3990  154.5010 C   0  0  0  0  0  0  0  0  0  0  0  0
  155.8310  211.6370  155.0180 C   0  0  0  0  0  3  0  0  0  0  0  0
  160.9040  211.2590  155.8570 N   0  0  0  0  0  0  0  0  0  0  0  0
  156.8970  211.7280  154.1270 C   0  0  0  0  0  3  0  0  0  0  0  0
  159.1620  211.3820  153.5190 C   0  0  0  0  0  0  0  0  0  0  0  0
  156.0530  211.2190  156.3310 C   0  0  0  0  0  0  0  0  0  0  0  0
  155.0070  211.0780  157.2450 O   0  0  0  0  0  0  0  0  0  0  0  0
  153.8950  210.2240  157.0150 C   0  0  0  0  0  1  0  0  0  0  0  0
  163.2680  210.8800  156.3590 C   0  0  0  0  0  1  0  0  0  0  0  0
  162.0160  211.6700  156.7010 C   0  0  0  0  0  2  0  0  0  0  0  0
  160.8140  209.5810  152.5230 C   0  0  1  0  0  3  0  0  0  0  0  0
  162.2420  209.9290  150.6340 O   0  0  0  0  0  1  0  0  0  0  0  0
  162.2350  209.8110  152.0240 C   0  0  0  0  0  2  0  0  0  0  0  0
  160.5650  208.1330  152.9060 C   0  0  0  0  0  2  0  0  0  0  0  0
  161.6020  207.3050  152.3980 O   0  0  0  0  0  0  0  0  0  0  0  0
  161.1370  206.5650  150.2240 C   0  0  0  0  0  3  0  0  0  0  0  0
  161.3490  206.2610  151.5070 C   0  0  0  0  0  0  0  0  0  0  0  0
  161.3200  204.8270  151.9920 C   0  0  0  0  0  2  0  0  0  0  0  0
  160.9890  202.6100  151.1720 O   0  0  0  0  0  0  0  0  0  0  0  0
  160.8240  204.2710  149.5510 N   0  0  0  0  0  0  0  0  0  0  0  0
  161.0380  203.8370  150.8990 C   0  0  0  0  0  0  0  0  0  0  0  0
  160.8650  205.5240  149.2210 C   0  0  0  0  0  3  0  0  0  0  0  0
  158.9100  212.2310  152.2780 C   0  0  1  0  0  3  0  0  0  0  0  0
  158.3910  213.6320  152.5930 C   0  0  0  0  0  0  0  0  0  0  0  0
  158.9270  214.4440  153.7560 C   0  0  0  0  0  1  0  0  0  0  0  0
  157.9890  214.4480  151.3870 C   0  0  0  0  0  2  0  0  0  0  0  0
  156.9260  213.8510  152.2990 C   0  0  0  0  0  2  0  0  0  0  0  0
  159.9890  212.2060  151.2060 C   0  0  0  0  0  2  0  0  0  0  0  0
  159.8090  213.3670  150.2490 C   0  0  0  0  0  2  0  0  0  0  0  0
  160.8400  213.2720  149.1450 C   0  0  0  0  0  2  0  0  0  0  0  0
  158.7840  213.1500  147.7790 C   0  0  0  0  0  1  0  0  0  0  0  0
  160.2050  213.6690  147.8290 C   0  0  0  0  0  2  0  0  0  0  0  0
  1  8  1  0  0  0  0
  3  1  2  0  0  0  0
  4  5  2  0  0  0  0
  4  2  1  0  0  0  0
  6  4  1  0  0  0  0
  7 11  1  0  0  0  0
  8  5  1  0  0  0  0
  8 15  1  0  0  0  0
  9  6  1  0  0  0  0
  9  7  2  0  0  0  0
 10  3  1  0  0  0  0
 10  6  2  0  0  0  0
 11  2  2  0  0  0  0
 11 12  1  0  0  0  0
 13 12  1  0  0  0  0
 14 15  1  0  0  0  0
 16 18  1  1  0  0  0
 16 19  1  0  0  0  0
 16  3  1  0  0  0  0
 17 18  1  0  0  0  0
 20 19  1  0  0  0  0
 21 22  2  0  0  0  0
 22 23  1  0  0  0  0
 22 20  1  0  0  0  0
 25 26  1  0  0  0  0
 26 24  2  0  0  0  0
 26 23  1  0  0  0  0
 27 25  2  0  0  0  0
 27 21  1  0  0  0  0
 28 33  1  1  0  0  0
 28 29  1  0  0  0  0
 28 10  1  0  0  0  0
 29 30  1  0  0  0  0
 31 32  1  0  0  0  0
 31 29  1  0  0  0  0
 32 29  1  0  0  0  0
 34 33  1  0  0  0  0
 35 34  1  0  0  0  0
 36 37  1  0  0  0  0
 37 35  1  0  0  0  0
M  END
>  <MODEL>
5

>  <REMARK>
 VINA RESULT:      -3.2      2.630      7.297
  Name = 
  13 active torsions:
  status: ('A' for Active; 'I' for Inactive)
    1  A    between atoms: C_1  and  C_36
    2  A    between atoms: O_3  and  C_32
    3  A    between atoms: C_6  and  O_31
    4  A    between atoms: C_10  and  C_14
    5  A    between atoms: C_14  and  C_27
    6  A    between atoms: C_14  and  C_37
    7  A    between atoms: C_17  and  C_26
    8  A    between atoms: C_17  and  C_33
    9  A    between atoms: N_24  and  C_28
   10  A    between atoms: C_26  and  C_34
   11  A    between atoms: C_29  and  C_36
   12  A    between atoms: O_31  and  C_37
   13  A    between atoms: C_33  and  C_36
                            x       y       z     vdW  Elec       q    Type
                         _______ _______ _______ _____ _____    ______ ____

>  <TORSDO>
F 13

$$$$
=
 OpenBabel11062409153D

 37 40  0  0  1  0  0  0  0  0999 V2000
  161.6340  210.1360  155.4620 C   0  0  0  0  0  3  0  0  0  0  0  0
  157.5980  211.5330  156.5450 C   0  0  0  0  0  3  0  0  0  0  0  0
  161.0190  209.8930  154.3130 C   0  0  0  0  0  0  0  0  0  0  0  0
  158.8210  211.2690  155.9150 C   0  0  0  0  0  0  0  0  0  0  0  0
  159.8770  211.3060  156.7350 C   0  0  0  0  0  3  0  0  0  0  0  0
  158.8770  211.1970  154.4870 C   0  0  0  0  0  0  0  0  0  0  0  0
  156.5070  211.8300  154.4240 C   0  0  0  0  0  3  0  0  0  0  0  0
  161.2450  211.1750  156.3490 N   0  0  0  0  0  0  0  0  0  0  0  0
  157.7060  211.5410  153.7780 C   0  0  0  0  0  3  0  0  0  0  0  0
  159.9550  210.7920  153.7590 C   0  0  0  0  0  0  0  0  0  0  0  0
  156.4390  211.7930  155.8180 C   0  0  0  0  0  0  0  0  0  0  0  0
  155.2470  212.0390  156.5030 O   0  0  0  0  0  0  0  0  0  0  0  0
  154.9260  213.3080  157.0560 C   0  0  0  0  0  1  0  0  0  0  0  0
  163.4860  210.8050  157.2560 C   0  0  0  0  0  1  0  0  0  0  0  0
  162.2530  211.6930  157.2610 C   0  0  0  0  0  2  0  0  0  0  0  0
  161.4380  208.6130  153.6400 C   0  0  1  0  0  3  0  0  0  0  0  0
  160.3390  206.9090  154.9100 O   0  0  0  0  0  1  0  0  0  0  0  0
  161.5890  207.4510  154.6140 C   0  0  0  0  0  2  0  0  0  0  0  0
  160.5630  208.2580  152.4510 C   0  0  0  0  0  2  0  0  0  0  0  0
  161.3660  207.8380  151.3580 O   0  0  0  0  0  0  0  0  0  0  0  0
  161.1450  205.5160  151.5840 C   0  0  0  0  0  3  0  0  0  0  0  0
  161.2290  206.5760  150.7760 C   0  0  0  0  0  0  0  0  0  0  0  0
  161.1750  206.4260  149.2710 C   0  0  0  0  0  2  0  0  0  0  0  0
  160.9610  204.7410  147.5930 O   0  0  0  0  0  0  0  0  0  0  0  0
  160.9400  203.9350  149.7750 N   0  0  0  0  0  0  0  0  0  0  0  0
  161.0210  205.0000  148.8220 C   0  0  0  0  0  0  0  0  0  0  0  0
  160.9960  204.1530  151.0530 C   0  0  0  0  0  3  0  0  0  0  0  0
  160.0500  211.2620  152.3130 C   0  0  1  0  0  3  0  0  0  0  0  0
  159.5060  212.6720  152.0920 C   0  0  0  0  0  0  0  0  0  0  0  0
  159.5390  213.7250  153.1830 C   0  0  0  0  0  1  0  0  0  0  0  0
  159.6810  213.2100  150.6910 C   0  0  0  0  0  2  0  0  0  0  0  0
  158.3100  212.7570  151.1740 C   0  0  0  0  0  2  0  0  0  0  0  0
  161.3660  210.9980  151.5970 C   0  0  0  0  0  2  0  0  0  0  0  0
  161.1210  210.7090  150.1290 C   0  0  0  0  0  2  0  0  0  0  0  0
  162.3310  211.1330  149.3250 C   0  0  0  0  0  2  0  0  0  0  0  0
  163.1010  212.5990  147.4910 C   0  0  0  0  0  1  0  0  0  0  0  0
  161.9630  212.3100  148.4460 C   0  0  0  0  0  2  0  0  0  0  0  0
  1  8  1  0  0  0  0
  3  1  2  0  0  0  0
  4  2  1  0  0  0  0
  4  5  2  0  0  0  0
  6  4  1  0  0  0  0
  7 11  1  0  0  0  0
  8  5  1  0  0  0  0
  8 15  1  0  0  0  0
  9  7  2  0  0  0  0
  9  6  1  0  0  0  0
 10  3  1  0  0  0  0
 10  6  2  0  0  0  0
 11 12  1  0  0  0  0
 11  2  2  0  0  0  0
 12 13  1  0  0  0  0
 14 15  1  0  0  0  0
 16 19  1  6  0  0  0
 16  3  1  0  0  0  0
 16 18  1  0  0  0  0
 18 17  1  0  0  0  0
 20 19  1  0  0  0  0
 22 20  1  0  0  0  0
 22 21  2  0  0  0  0
 23 22  1  0  0  0  0
 24 26  2  0  0  0  0
 25 27  2  0  0  0  0
 26 23  1  0  0  0  0
 26 25  1  0  0  0  0
 27 21  1  0  0  0  0
 28 33  1  1  0  0  0
 28 10  1  0  0  0  0
 29 28  1  0  0  0  0
 29 30  1  0  0  0  0
 31 32  1  0  0  0  0
 31 29  1  0  0  0  0
 32 29  1  0  0  0  0
 34 33  1  0  0  0  0
 35 34  1  0  0  0  0
 36 37  1  0  0  0  0
 37 35  1  0  0  0  0
M  END
>  <MODEL>
6

>  <REMARK>
 VINA RESULT:      -2.1      2.806      7.337
  Name = 
  13 active torsions:
  status: ('A' for Active; 'I' for Inactive)
    1  A    between atoms: C_1  and  C_36
    2  A    between atoms: O_3  and  C_32
    3  A    between atoms: C_6  and  O_31
    4  A    between atoms: C_10  and  C_14
    5  A    between atoms: C_14  and  C_27
    6  A    between atoms: C_14  and  C_37
    7  A    between atoms: C_17  and  C_26
    8  A    between atoms: C_17  and  C_33
    9  A    between atoms: N_24  and  C_28
   10  A    between atoms: C_26  and  C_34
   11  A    between atoms: C_29  and  C_36
   12  A    between atoms: O_31  and  C_37
   13  A    between atoms: C_33  and  C_36
                            x       y       z     vdW  Elec       q    Type
                         _______ _______ _______ _____ _____    ______ ____

>  <TORSDO>
F 13

$$$$
=
 OpenBabel11062409153D

 37 40  0  0  1  0  0  0  0  0999 V2000
  160.7460  211.3190  151.1860 C   0  0  0  0  0  3  0  0  0  0  0  0
  161.3180  206.9520  151.2470 C   0  0  0  0  0  3  0  0  0  0  0  0
  160.1610  211.0540  152.3460 C   0  0  0  0  0  0  0  0  0  0  0  0
  161.2420  208.3160  151.5530 C   0  0  0  0  0  0  0  0  0  0  0  0
  161.6760  209.1200  150.5750 C   0  0  0  0  0  3  0  0  0  0  0  0
  160.9310  208.7220  152.8890 C   0  0  0  0  0  0  0  0  0  0  0  0
  160.9620  206.3590  153.5490 C   0  0  0  0  0  3  0  0  0  0  0  0
  161.8040  210.5400  150.6510 N   0  0  0  0  0  0  0  0  0  0  0  0
  160.8550  207.7100  153.8690 C   0  0  0  0  0  3  0  0  0  0  0  0
  160.6690  209.9990  153.2840 C   0  0  0  0  0  0  0  0  0  0  0  0
  161.1610  205.9710  152.2230 C   0  0  0  0  0  0  0  0  0  0  0  0
  161.2370  204.6260  151.8530 O   0  0  0  0  0  0  0  0  0  0  0  0
  160.7270  204.1380  150.6190 C   0  0  0  0  0  1  0  0  0  0  0  0
  162.1210  211.1390  148.3000 C   0  0  0  0  0  1  0  0  0  0  0  0
  162.7020  211.1840  149.7040 C   0  0  0  0  0  2  0  0  0  0  0  0
  158.9180  211.8580  152.6180 C   0  0  1  0  0  3  0  0  0  0  0  0
  157.8860  213.8270  151.7330 O   0  0  0  0  0  1  0  0  0  0  0  0
  158.3950  212.5780  151.3800 C   0  0  0  0  0  2  0  0  0  0  0  0
  157.8360  211.0540  153.3170 C   0  0  0  0  0  2  0  0  0  0  0  0
  156.7000  211.8690  153.5620 O   0  0  0  0  0  0  0  0  0  0  0  0
  155.9750  212.9420  155.5160 C   0  0  0  0  0  3  0  0  0  0  0  0
  156.0060  211.8320  154.7730 C   0  0  0  0  0  0  0  0  0  0  0  0
  155.3100  210.5640  155.2220 C   0  0  0  0  0  2  0  0  0  0  0  0
  153.9940  209.7240  157.0270 O   0  0  0  0  0  0  0  0  0  0  0  0
  154.6420  211.9460  157.2610 N   0  0  0  0  0  0  0  0  0  0  0  0
  154.6120  210.7070  156.5440 C   0  0  0  0  0  0  0  0  0  0  0  0
  155.2660  212.9870  156.8030 C   0  0  0  0  0  3  0  0  0  0  0  0
  160.8800  210.3430  154.7540 C   0  0  1  0  0  3  0  0  0  0  0  0
  162.3510  210.3970  155.1620 C   0  0  0  0  0  0  0  0  0  0  0  0
  163.4700  210.3140  154.1430 C   0  0  0  0  0  1  0  0  0  0  0  0
  162.6490  211.2740  156.3550 C   0  0  0  0  0  2  0  0  0  0  0  0
  162.6660  209.7580  156.4940 C   0  0  0  0  0  2  0  0  0  0  0  0
  160.0510  211.4910  155.3100 C   0  0  0  0  0  2  0  0  0  0  0  0
  159.0730  210.9810  156.3500 C   0  0  0  0  0  2  0  0  0  0  0  0
  158.6590  212.1230  157.2520 C   0  0  0  0  0  2  0  0  0  0  0  0
  159.5210  213.8580  155.7180 C   0  0  0  0  0  1  0  0  0  0  0  0
  159.6440  213.2630  157.1040 C   0  0  0  0  0  2  0  0  0  0  0  0
  1  3  2  0  0  0  0
  2  4  1  0  0  0  0
  2 11  2  0  0  0  0
  3 16  1  0  0  0  0
  3 10  1  0  0  0  0
  4  6  1  0  0  0  0
  5  8  1  0  0  0  0
  5  4  2  0  0  0  0
  6 10  2  0  0  0  0
  6  9  1  0  0  0  0
  7  9  2  0  0  0  0
  8  1  1  0  0  0  0
 10 28  1  0  0  0  0
 11  7  1  0  0  0  0
 12 11  1  0  0  0  0
 13 12  1  0  0  0  0
 14 15  1  0  0  0  0
 15  8  1  0  0  0  0
 16 18  1  6  0  0  0
 16 19  1  0  0  0  0
 18 17  1  0  0  0  0
 19 20  1  0  0  0  0
 20 22  1  0  0  0  0
 21 27  1  0  0  0  0
 22 23  1  0  0  0  0
 22 21  2  0  0  0  0
 23 26  1  0  0  0  0
 26 24  2  0  0  0  0
 26 25  1  0  0  0  0
 27 25  2  0  0  0  0
 28 29  1  0  0  0  0
 28 33  1  6  0  0  0
 29 31  1  0  0  0  0
 29 32  1  0  0  0  0
 30 29  1  0  0  0  0
 31 32  1  0  0  0  0
 33 34  1  0  0  0  0
 34 35  1  0  0  0  0
 36 37  1  0  0  0  0
 37 35  1  0  0  0  0
M  END
>  <MODEL>
7

>  <REMARK>
 VINA RESULT:      -2.0      2.193      4.160
  Name = 
  13 active torsions:
  status: ('A' for Active; 'I' for Inactive)
    1  A    between atoms: C_1  and  C_36
    2  A    between atoms: O_3  and  C_32
    3  A    between atoms: C_6  and  O_31
    4  A    between atoms: C_10  and  C_14
    5  A    between atoms: C_14  and  C_27
    6  A    between atoms: C_14  and  C_37
    7  A    between atoms: C_17  and  C_26
    8  A    between atoms: C_17  and  C_33
    9  A    between atoms: N_24  and  C_28
   10  A    between atoms: C_26  and  C_34
   11  A    between atoms: C_29  and  C_36
   12  A    between atoms: O_31  and  C_37
   13  A    between atoms: C_33  and  C_36
                            x       y       z     vdW  Elec       q    Type
                         _______ _______ _______ _____ _____    ______ ____

>  <TORSDO>
F 13

$$$$
=
 OpenBabel11062409153D

 37 40  0  0  1  0  0  0  0  0999 V2000
  161.1550  206.9910  150.3400 C   0  0  0  0  0  3  0  0  0  0  0  0
  162.6020  210.5310  148.1540 C   0  0  0  0  0  3  0  0  0  0  0  0
  161.3780  207.7900  151.3740 C   0  0  0  0  0  0  0  0  0  0  0  0
  161.9580  209.6390  149.0200 C   0  0  0  0  0  0  0  0  0  0  0  0
  161.5600  208.5030  148.4360 C   0  0  0  0  0  3  0  0  0  0  0  0
  161.5960  210.0700  150.3350 C   0  0  0  0  0  0  0  0  0  0  0  0
  162.4050  212.3130  149.7560 C   0  0  0  0  0  3  0  0  0  0  0  0
  160.7960  207.4660  149.0510 N   0  0  0  0  0  0  0  0  0  0  0  0
  161.7880  211.4350  150.6420 C   0  0  0  0  0  3  0  0  0  0  0  0
  161.1160  209.2670  151.3250 C   0  0  0  0  0  0  0  0  0  0  0  0
  162.8480  211.8540  148.5140 C   0  0  0  0  0  0  0  0  0  0  0  0
  163.5060  212.6930  147.6110 O   0  0  0  0  0  0  0  0  0  0  0  0
  162.8300  213.3730  146.5620 C   0  0  0  0  0  1  0  0  0  0  0  0
  160.8110  206.3800  146.8590 C   0  0  0  0  0  1  0  0  0  0  0  0
  160.0730  206.5550  148.1760 C   0  0  0  0  0  2  0  0  0  0  0  0
  161.9660  207.1050  152.5770 C   0  0  1  0  0  3  0  0  0  0  0  0
  161.5780  207.0100  154.9370 O   0  0  0  0  0  1  0  0  0  0  0  0
  160.9520  206.8960  153.6960 C   0  0  0  0  0  2  0  0  0  0  0  0
  162.7080  205.8280  152.2260 C   0  0  0  0  0  2  0  0  0  0  0  0
  161.8930  204.6960  152.4970 O   0  0  0  0  0  0  0  0  0  0  0  0
  161.2010  202.5400  151.8940 C   0  0  0  0  0  3  0  0  0  0  0  0
  161.5570  203.7690  151.5090 C   0  0  0  0  0  0  0  0  0  0  0  0
  161.5970  204.1560  150.0460 C   0  0  0  0  0  2  0  0  0  0  0  0
  161.1910  203.2320  147.8830 O   0  0  0  0  0  0  0  0  0  0  0  0
  160.8360  201.7530  149.6440 N   0  0  0  0  0  0  0  0  0  0  0  0
  161.2010  203.0370  149.1260 C   0  0  0  0  0  0  0  0  0  0  0  0
  160.8310  201.5050  150.9170 C   0  0  0  0  0  3  0  0  0  0  0  0
  160.3030  209.9190  152.4360 C   0  0  1  0  0  3  0  0  0  0  0  0
  161.1350  210.2950  153.6600 C   0  0  0  0  0  0  0  0  0  0  0  0
  162.6450  210.1580  153.6780 C   0  0  0  0  0  1  0  0  0  0  0  0
  160.5970  211.4560  154.4640 C   0  0  0  0  0  2  0  0  0  0  0  0
  160.4660  210.0330  154.9900 C   0  0  0  0  0  2  0  0  0  0  0  0
  159.3180  210.9990  152.0140 C   0  0  0  0  0  2  0  0  0  0  0  0
  158.1720  211.0850  153.0030 C   0  0  0  0  0  2  0  0  0  0  0  0
  157.7000  212.5190  153.1010 C   0  0  0  0  0  2  0  0  0  0  0  0
  156.7130  211.4170  155.0800 C   0  0  0  0  0  1  0  0  0  0  0  0
  157.0710  212.7500  154.4580 C   0  0  0  0  0  2  0  0  0  0  0  0
  1  3  2  0  0  0  0
  2 11  2  0  0  0  0
  2  4  1  0  0  0  0
  3 16  1  0  0  0  0
  4  6  1  0  0  0  0
  5  4  2  0  0  0  0
  5  8  1  0  0  0  0
  6  9  1  0  0  0  0
  6 10  2  0  0  0  0
  7  9  2  0  0  0  0
  8  1  1  0  0  0  0
 10  3  1  0  0  0  0
 10 28  1  0  0  0  0
 11  7  1  0  0  0  0
 12 11  1  0  0  0  0
 13 12  1  0  0  0  0
 14 15  1  0  0  0  0
 15  8  1  0  0  0  0
 16 19  1  6  0  0  0
 16 18  1  0  0  0  0
 18 17  1  0  0  0  0
 19 20  1  0  0  0  0
 22 21  2  0  0  0  0
 22 20  1  0  0  0  0
 23 22  1  0  0  0  0
 24 26  2  0  0  0  0
 25 27  2  0  0  0  0
 26 25  1  0  0  0  0
 26 23  1  0  0  0  0
 27 21  1  0  0  0  0
 28 33  1  6  0  0  0
 28 29  1  0  0  0  0
 29 30  1  0  0  0  0
 29 31  1  0  0  0  0
 29 32  1  0  0  0  0
 31 32  1  0  0  0  0
 33 34  1  0  0  0  0
 34 35  1  0  0  0  0
 35 37  1  0  0  0  0
 37 36  1  0  0  0  0
M  END
>  <MODEL>
8

>  <REMARK>
 VINA RESULT:      -1.6      2.971      7.038
  Name = 
  13 active torsions:
  status: ('A' for Active; 'I' for Inactive)
    1  A    between atoms: C_1  and  C_36
    2  A    between atoms: O_3  and  C_32
    3  A    between atoms: C_6  and  O_31
    4  A    between atoms: C_10  and  C_14
    5  A    between atoms: C_14  and  C_27
    6  A    between atoms: C_14  and  C_37
    7  A    between atoms: C_17  and  C_26
    8  A    between atoms: C_17  and  C_33
    9  A    between atoms: N_24  and  C_28
   10  A    between atoms: C_26  and  C_34
   11  A    between atoms: C_29  and  C_36
   12  A    between atoms: O_31  and  C_37
   13  A    between atoms: C_33  and  C_36
                            x       y       z     vdW  Elec       q    Type
                         _______ _______ _______ _____ _____    ______ ____

>  <TORSDO>
F 13

$$$$
=
 OpenBabel11062409153D

 37 40  0  0  1  0  0  0  0  0999 V2000
  161.2980  211.3090  150.6290 C   0  0  0  0  0  3  0  0  0  0  0  0
  161.2270  207.1300  149.2390 C   0  0  0  0  0  3  0  0  0  0  0  0
  160.7490  210.7490  151.6980 C   0  0  0  0  0  0  0  0  0  0  0  0
  161.3690  208.3160  149.9690 C   0  0  0  0  0  0  0  0  0  0  0  0
  161.8590  209.3390  149.2590 C   0  0  0  0  0  3  0  0  0  0  0  0
  161.1990  208.2950  151.3900 C   0  0  0  0  0  0  0  0  0  0  0  0
  160.9210  205.8600  151.2570 C   0  0  0  0  0  3  0  0  0  0  0  0
  162.1990  210.6280  149.7690 N   0  0  0  0  0  0  0  0  0  0  0  0
  161.0310  207.0330  152.0000 C   0  0  0  0  0  3  0  0  0  0  0  0
  161.1500  209.3920  152.1950 C   0  0  0  0  0  0  0  0  0  0  0  0
  160.9840  205.9090  149.8640 C   0  0  0  0  0  0  0  0  0  0  0  0
  160.8400  204.7610  149.0800 O   0  0  0  0  0  0  0  0  0  0  0  0
  161.5790  204.5490  147.8840 C   0  0  0  0  0  1  0  0  0  0  0  0
  162.3750  212.4810  148.1820 C   0  0  0  0  0  1  0  0  0  0  0  0
  163.1250  211.4350  148.9890 C   0  0  0  0  0  2  0  0  0  0  0  0
  159.6550  211.5620  152.3370 C   0  0  1  0  0  3  0  0  0  0  0  0
  159.4830  213.8970  151.8430 O   0  0  0  0  0  1  0  0  0  0  0  0
  159.0910  212.6320  151.4090 C   0  0  0  0  0  2  0  0  0  0  0  0
  158.5660  210.7030  152.9550 C   0  0  0  0  0  2  0  0  0  0  0  0
  157.4160  211.4900  153.2290 O   0  0  0  0  0  0  0  0  0  0  0  0
  157.6700  211.2360  155.5450 C   0  0  0  0  0  3  0  0  0  0  0  0
  157.0480  211.8400  154.5300 C   0  0  0  0  0  0  0  0  0  0  0  0
  155.9730  212.8780  154.7710 C   0  0  0  0  0  2  0  0  0  0  0  0
  154.8380  213.9760  156.5610 O   0  0  0  0  0  0  0  0  0  0  0  0
  156.4350  212.4260  157.2400 N   0  0  0  0  0  0  0  0  0  0  0  0
  155.7090  213.1320  156.2280 C   0  0  0  0  0  0  0  0  0  0  0  0
  157.3430  211.5470  156.9440 C   0  0  0  0  0  3  0  0  0  0  0  0
  161.4940  209.2060  153.6680 C   0  0  1  0  0  3  0  0  0  0  0  0
  161.9610  210.4880  154.3520 C   0  0  0  0  0  0  0  0  0  0  0  0
  161.0060  211.6230  154.6670 C   0  0  0  0  0  1  0  0  0  0  0  0
  163.0760  210.3060  155.3550 C   0  0  0  0  0  2  0  0  0  0  0  0
  163.3610  210.9280  153.9950 C   0  0  0  0  0  2  0  0  0  0  0  0
  160.5110  208.3940  154.4990 C   0  0  0  0  0  2  0  0  0  0  0  0
  161.2010  207.1870  155.1030 C   0  0  0  0  0  2  0  0  0  0  0  0
  161.2180  207.3210  156.6110 C   0  0  0  0  0  2  0  0  0  0  0  0
  160.2550  209.5070  157.2430 C   0  0  0  0  0  1  0  0  0  0  0  0
  159.9620  208.0330  157.0660 C   0  0  0  0  0  2  0  0  0  0  0  0
  1  3  2  0  0  0  0
  2 11  2  0  0  0  0
  2  4  1  0  0  0  0
  3 10  1  0  0  0  0
  3 16  1  0  0  0  0
  4  6  1  0  0  0  0
  5  8  1  0  0  0  0
  5  4  2  0  0  0  0
  6  9  1  0  0  0  0
  6 10  2  0  0  0  0
  7  9  2  0  0  0  0
  8  1  1  0  0  0  0
 10 28  1  0  0  0  0
 11  7  1  0  0  0  0
 12 11  1  0  0  0  0
 13 12  1  0  0  0  0
 14 15  1  0  0  0  0
 15  8  1  0  0  0  0
 16 18  1  6  0  0  0
 16 19  1  0  0  0  0
 18 17  1  0  0  0  0
 19 20  1  0  0  0  0
 20 22  1  0  0  0  0
 21 27  1  0  0  0  0
 22 23  1  0  0  0  0
 22 21  2  0  0  0  0
 23 26  1  0  0  0  0
 26 24  2  0  0  0  0
 26 25  1  0  0  0  0
 27 25  2  0  0  0  0
 28 29  1  0  0  0  0
 28 33  1  1  0  0  0
 29 30  1  0  0  0  0
 29 31  1  0  0  0  0
 32 29  1  0  0  0  0
 32 31  1  0  0  0  0
 33 34  1  0  0  0  0
 34 35  1  0  0  0  0
 35 37  1  0  0  0  0
 37 36  1  0  0  0  0
M  END
>  <MODEL>
9

>  <REMARK>
 VINA RESULT:      -1.5      2.277      4.470
  Name = 
  13 active torsions:
  status: ('A' for Active; 'I' for Inactive)
    1  A    between atoms: C_1  and  C_36
    2  A    between atoms: O_3  and  C_32
    3  A    between atoms: C_6  and  O_31
    4  A    between atoms: C_10  and  C_14
    5  A    between atoms: C_14  and  C_27
    6  A    between atoms: C_14  and  C_37
    7  A    between atoms: C_17  and  C_26
    8  A    between atoms: C_17  and  C_33
    9  A    between atoms: N_24  and  C_28
   10  A    between atoms: C_26  and  C_34
   11  A    between atoms: C_29  and  C_36
   12  A    between atoms: O_31  and  C_37
   13  A    between atoms: C_33  and  C_36
                            x       y       z     vdW  Elec       q    Type
                         _______ _______ _______ _____ _____    ______ ____

>  <TORSDO>
F 13

$$$$
