=
 OpenBabel11062410503D

 32 36  0  0  1  0  0  0  0  0999 V2000
  161.4770  204.9670  147.4070 C   0  0  0  0  0  0  0  0  0  0  0  0
  161.1390  206.8750  151.0960 C   0  0  0  0  0  0  0  0  0  0  0  0
  160.9960  204.8370  149.7630 C   0  0  0  0  0  0  0  0  0  0  0  0
  161.6220  206.9550  148.7230 C   0  0  0  0  0  3  0  0  0  0  0  0
  160.8870  202.8500  148.4130 N   0  0  0  0  0  0  0  0  0  0  0  0
  161.8620  205.7090  146.1670 C   0  0  0  0  0  1  0  0  0  0  0  0
  161.5110  207.6110  149.9550 C   0  0  0  0  0  0  0  0  0  0  0  0
  161.7590  208.9880  150.0860 C   0  0  0  0  0  0  0  0  0  0  0  0
  161.2840  208.8890  152.4240 C   0  0  0  0  0  0  0  0  0  0  0  0
  160.3370  202.7230  150.8950 C   0  0  0  0  0  1  0  0  0  0  0  0
  161.3710  205.5770  148.6060 C   0  0  0  0  0  0  0  0  0  0  0  0
  160.7500  203.5120  149.6850 C   0  0  0  0  0  0  0  0  0  0  0  0
  161.2220  203.5990  147.3010 O   0  0  0  0  0  0  0  0  0  0  0  0
  161.6480  209.5800  151.3060 N   0  0  0  0  0  0  0  0  0  0  0  0
  160.8860  205.5080  150.9950 C   0  0  0  0  0  3  0  0  0  0  0  0
  161.0270  207.5130  152.3290 C   0  0  0  0  0  3  0  0  0  0  0  0
  160.4900  207.9040  157.0400 O   0  0  0  0  0  1  0  0  0  0  0  0
  161.0920  208.5630  154.8560 C   0  0  0  0  0  3  0  0  0  0  0  0
  159.9350  210.5100  153.7850 C   0  0  1  0  0  3  0  0  0  0  0  0
  159.6020  210.9570  155.1840 C   0  0  0  0  0  3  0  0  0  0  0  0
  159.8340  210.1480  156.2210 C   0  0  0  0  0  3  0  0  0  0  0  0
  162.3290  210.3670  153.9750 O   0  0  0  0  0  1  0  0  0  0  0  0
  160.4940  208.8460  156.0200 C   0  0  0  0  0  0  0  0  0  0  0  0
  160.1040  211.6670  152.9200 N   0  0  0  0  0  1  0  0  0  0  0  0
  161.1820  209.5940  153.7550 C   0  0  2  0  0  0  0  0  0  0  0  0
  160.5760  201.4310  148.2550 C   0  0  0  0  0  3  0  0  0  0  0  0
  161.8640  200.6290  148.2070 C   0  0  0  0  0  2  0  0  0  0  0  0
  161.1100  200.9150  146.9290 C   0  0  0  0  0  2  0  0  0  0  0  0
  162.1850  209.8210  148.9210 C   0  0  0  0  0  2  0  0  0  0  0  0
  162.0250  211.2280  149.2400 N   0  0  0  0  0  2  0  0  0  0  0  0
  161.8790  211.9280  147.9770 C   0  0  0  0  0  2  0  0  0  0  0  0
  163.0800  212.8240  147.7560 C   0  0  0  0  0  1  0  0  0  0  0  0
  1 11  2  0  0  0  0
  2 16  1  0  0  0  0
  3 15  1  0  0  0  0
  4  7  2  0  0  0  0
  5 12  1  0  0  0  0
  6  1  1  0  0  0  0
  7  8  1  0  0  0  0
  7  2  1  0  0  0  0
  8 14  2  0  0  0  0
  9 25  1  0  0  0  0
 11  4  1  0  0  0  0
 11  3  1  0  0  0  0
 12  3  2  0  0  0  0
 12 10  1  0  0  0  0
 13  1  1  0  0  0  0
 13  5  1  0  0  0  0
 14  9  1  0  0  0  0
 15  2  2  0  0  0  0
 16  9  2  0  0  0  0
 18 23  2  0  0  0  0
 19 24  1  6  0  0  0
 19 20  1  0  0  0  0
 20 21  2  0  0  0  0
 23 21  1  0  0  0  0
 23 17  1  0  0  0  0
 25 19  1  0  0  0  0
 25 22  1  1  0  0  0
 25 18  1  0  0  0  0
 26  5  1  0  0  0  0
 27 26  1  0  0  0  0
 28 27  1  0  0  0  0
 28 26  1  0  0  0  0
 29 30  1  0  0  0  0
 29  8  1  0  0  0  0
 31 30  1  0  0  0  0
 32 31  1  0  0  0  0
M  END
>  <MODEL>
1

>  <REMARK>
 VINA RESULT:      -9.8      0.000      0.000
  Name = 
  5 active torsions:
  status: ('A' for Active; 'I' for Inactive)
    1  A    between atoms: C_1  and  N_10
    2  A    between atoms: N_4  and  C_5
    3  A    between atoms: N_4  and  C_13
    4  A    between atoms: C_13  and  C_15
    5  A    between atoms: C_16  and  C_32
                            x       y       z     vdW  Elec       q    Type
                         _______ _______ _______ _____ _____    ______ ____

>  <TORSDO>
F 5

$$$$
=
 OpenBabel11062410503D

 32 36  0  0  1  0  0  0  0  0999 V2000
  161.5510  205.7120  148.7640 C   0  0  0  0  0  0  0  0  0  0  0  0
  161.0340  207.2790  152.5900 C   0  0  0  0  0  0  0  0  0  0  0  0
  161.1420  205.3450  151.1080 C   0  0  0  0  0  0  0  0  0  0  0  0
  161.4520  207.5990  150.2250 C   0  0  0  0  0  3  0  0  0  0  0  0
  161.2760  203.4650  149.6130 N   0  0  0  0  0  0  0  0  0  0  0  0
  161.8050  206.5880  147.5790 C   0  0  0  0  0  1  0  0  0  0  0  0
  161.2780  208.1400  151.5040 C   0  0  0  0  0  0  0  0  0  0  0  0
  161.3400  209.5260  151.7360 C   0  0  0  0  0  0  0  0  0  0  0  0
  160.9320  209.1900  154.0650 C   0  0  0  0  0  0  0  0  0  0  0  0
  160.8010  203.0820  152.0840 C   0  0  0  0  0  1  0  0  0  0  0  0
  161.3870  206.2120  150.0070 C   0  0  0  0  0  0  0  0  0  0  0  0
  161.0770  204.0070  150.9320 C   0  0  0  0  0  0  0  0  0  0  0  0
  161.4820  204.3330  148.5570 O   0  0  0  0  0  0  0  0  0  0  0  0
  161.1750  210.0050  152.9990 N   0  0  0  0  0  0  0  0  0  0  0  0
  160.9670  205.9010  152.3880 C   0  0  0  0  0  3  0  0  0  0  0  0
  160.8620  207.8030  153.8690 C   0  0  0  0  0  3  0  0  0  0  0  0
  157.6640  211.5010  156.6900 O   0  0  0  0  0  1  0  0  0  0  0  0
  159.3260  210.2030  155.6310 C   0  0  0  0  0  3  0  0  0  0  0  0
  161.7050  210.9870  155.6390 C   0  0  1  0  0  3  0  0  0  0  0  0
  161.3300  211.8010  156.8490 C   0  0  0  0  0  3  0  0  0  0  0  0
  160.0500  211.9140  157.2140 C   0  0  0  0  0  3  0  0  0  0  0  0
  161.0550  208.8050  156.4140 O   0  0  0  0  0  1  0  0  0  0  0  0
  158.9990  211.1770  156.4880 C   0  0  0  0  0  0  0  0  0  0  0  0
  163.0960  210.5710  155.7300 N   0  0  0  0  0  1  0  0  0  0  0  0
  160.7620  209.7750  155.4460 C   0  0  2  0  0  0  0  0  0  0  0  0
  161.1570  202.0330  149.3520 C   0  0  0  0  0  3  0  0  0  0  0  0
  160.8020  201.8080  147.8930 C   0  0  0  0  0  2  0  0  0  0  0  0
  159.7330  201.6820  148.9540 C   0  0  0  0  0  2  0  0  0  0  0  0
  161.6240  210.4920  150.6330 C   0  0  0  0  0  2  0  0  0  0  0  0
  160.8810  211.7200  150.8540 N   0  0  0  0  0  2  0  0  0  0  0  0
  161.0270  212.5190  149.6520 C   0  0  0  0  0  2  0  0  0  0  0  0
  161.9610  211.8140  148.6900 C   0  0  0  0  0  1  0  0  0  0  0  0
  1 11  2  0  0  0  0
  2 16  1  0  0  0  0
  3 15  1  0  0  0  0
  4  7  2  0  0  0  0
  5 12  1  0  0  0  0
  6  1  1  0  0  0  0
  7  8  1  0  0  0  0
  7  2  1  0  0  0  0
  8 14  2  0  0  0  0
  9 25  1  0  0  0  0
 11  4  1  0  0  0  0
 11  3  1  0  0  0  0
 12  3  2  0  0  0  0
 12 10  1  0  0  0  0
 13  1  1  0  0  0  0
 13  5  1  0  0  0  0
 14  9  1  0  0  0  0
 15  2  2  0  0  0  0
 16  9  2  0  0  0  0
 18 23  2  0  0  0  0
 19 24  1  1  0  0  0
 19 20  1  0  0  0  0
 20 21  2  0  0  0  0
 23 17  1  0  0  0  0
 23 21  1  0  0  0  0
 25 18  1  0  0  0  0
 25 19  1  0  0  0  0
 25 22  1  1  0  0  0
 26  5  1  0  0  0  0
 27 28  1  0  0  0  0
 27 26  1  0  0  0  0
 28 26  1  0  0  0  0
 29 30  1  0  0  0  0
 29  8  1  0  0  0  0
 31 30  1  0  0  0  0
 32 31  1  0  0  0  0
M  END
>  <MODEL>
2

>  <REMARK>
 VINA RESULT:      -9.1      1.711      2.159
  Name = 
  5 active torsions:
  status: ('A' for Active; 'I' for Inactive)
    1  A    between atoms: C_1  and  N_10
    2  A    between atoms: N_4  and  C_5
    3  A    between atoms: N_4  and  C_13
    4  A    between atoms: C_13  and  C_15
    5  A    between atoms: C_16  and  C_32
                            x       y       z     vdW  Elec       q    Type
                         _______ _______ _______ _____ _____    ______ ____

>  <TORSDO>
F 5

$$$$
=
 OpenBabel11062410503D

 32 36  0  0  1  0  0  0  0  0999 V2000
  161.3670  204.9200  151.3390 C   0  0  0  0  0  0  0  0  0  0  0  0
  161.5760  208.4220  149.0910 C   0  0  0  0  0  0  0  0  0  0  0  0
  161.3690  205.9930  149.1840 C   0  0  0  0  0  0  0  0  0  0  0  0
  161.5610  207.2990  151.2370 C   0  0  0  0  0  3  0  0  0  0  0  0
  161.1480  203.6020  149.3250 N   0  0  0  0  0  0  0  0  0  0  0  0
  161.4330  204.9360  152.8330 C   0  0  0  0  0  1  0  0  0  0  0  0
  161.6330  208.4830  150.4960 C   0  0  0  0  0  0  0  0  0  0  0  0
  161.7650  209.7390  151.1160 C   0  0  0  0  0  0  0  0  0  0  0  0
  161.7730  210.8280  148.9910 C   0  0  0  0  0  0  0  0  0  0  0  0
  161.1930  204.7340  147.0460 C   0  0  0  0  0  1  0  0  0  0  0  0
  161.4290  206.0510  150.6050 C   0  0  0  0  0  0  0  0  0  0  0  0
  161.2400  204.8100  148.5460 C   0  0  0  0  0  0  0  0  0  0  0  0
  161.2400  203.6860  150.7010 O   0  0  0  0  0  0  0  0  0  0  0  0
  161.8220  210.8640  150.3530 N   0  0  0  0  0  0  0  0  0  0  0  0
  161.4450  207.1910  148.4490 C   0  0  0  0  0  3  0  0  0  0  0  0
  161.6440  209.5930  148.3390 C   0  0  0  0  0  3  0  0  0  0  0  0
  159.6740  212.9000  145.2210 O   0  0  0  0  0  1  0  0  0  0  0  0
  160.6880  212.1350  147.2090 C   0  0  0  0  0  3  0  0  0  0  0  0
  163.1820  212.2100  147.4390 C   0  0  1  0  0  3  0  0  0  0  0  0
  163.1500  213.2760  146.3760 C   0  0  0  0  0  3  0  0  0  0  0  0
  162.0180  213.5330  145.7140 C   0  0  0  0  0  3  0  0  0  0  0  0
  161.7000  213.2100  149.0470 O   0  0  0  0  0  1  0  0  0  0  0  0
  160.7700  212.8360  146.0720 C   0  0  0  0  0  0  0  0  0  0  0  0
  164.2870  212.4500  148.3530 N   0  0  0  0  0  1  0  0  0  0  0  0
  161.8340  212.1080  148.1930 C   0  0  2  0  0  0  0  0  0  0  0  0
  161.0680  202.2890  148.6890 C   0  0  0  0  0  3  0  0  0  0  0  0
  159.8010  201.5830  149.1340 C   0  0  0  0  0  2  0  0  0  0  0  0
  161.1300  201.1880  149.7340 C   0  0  0  0  0  2  0  0  0  0  0  0
  161.8040  209.8760  152.6030 C   0  0  0  0  0  2  0  0  0  0  0  0
  160.4680  210.1410  153.1050 N   0  0  0  0  0  2  0  0  0  0  0  0
  160.4760  209.7980  154.5150 C   0  0  0  0  0  2  0  0  0  0  0  0
  160.7580  208.3180  154.6710 C   0  0  0  0  0  1  0  0  0  0  0  0
  1  6  1  0  0  0  0
  2  7  1  0  0  0  0
  3 11  1  0  0  0  0
  5 13  1  0  0  0  0
  7  8  1  0  0  0  0
  7  4  2  0  0  0  0
  8 29  1  0  0  0  0
  9 14  1  0  0  0  0
 10 12  1  0  0  0  0
 11  4  1  0  0  0  0
 11  1  2  0  0  0  0
 12  3  2  0  0  0  0
 12  5  1  0  0  0  0
 13  1  1  0  0  0  0
 14  8  2  0  0  0  0
 15  2  2  0  0  0  0
 15  3  1  0  0  0  0
 16  9  2  0  0  0  0
 16  2  1  0  0  0  0
 17 23  1  0  0  0  0
 18 25  1  0  0  0  0
 19 25  1  0  0  0  0
 19 24  1  1  0  0  0
 20 19  1  0  0  0  0
 21 23  1  0  0  0  0
 21 20  2  0  0  0  0
 23 18  2  0  0  0  0
 25  9  1  0  0  0  0
 25 22  1  1  0  0  0
 26 27  1  0  0  0  0
 26  5  1  0  0  0  0
 26 28  1  0  0  0  0
 27 28  1  0  0  0  0
 29 30  1  0  0  0  0
 30 31  1  0  0  0  0
 31 32  1  0  0  0  0
M  END
>  <MODEL>
3

>  <REMARK>
 VINA RESULT:      -8.8      2.397      5.793
  Name = 
  5 active torsions:
  status: ('A' for Active; 'I' for Inactive)
    1  A    between atoms: C_1  and  N_10
    2  A    between atoms: N_4  and  C_5
    3  A    between atoms: N_4  and  C_13
    4  A    between atoms: C_13  and  C_15
    5  A    between atoms: C_16  and  C_32
                            x       y       z     vdW  Elec       q    Type
                         _______ _______ _______ _____ _____    ______ ____

>  <TORSDO>
F 5

$$$$
=
 OpenBabel11062410503D

 32 36  0  0  1  0  0  0  0  0999 V2000
  160.8240  207.8220  155.3540 C   0  0  0  0  0  0  0  0  0  0  0  0
  160.9570  207.2350  151.2310 C   0  0  0  0  0  0  0  0  0  0  0  0
  160.8660  208.7560  153.1350 C   0  0  0  0  0  0  0  0  0  0  0  0
  160.9220  206.3410  153.4820 C   0  0  0  0  0  3  0  0  0  0  0  0
  160.7940  210.2190  155.0430 N   0  0  0  0  0  0  0  0  0  0  0  0
  160.8220  206.6760  156.3150 C   0  0  0  0  0  1  0  0  0  0  0  0
  160.9660  206.1280  152.1000 C   0  0  0  0  0  0  0  0  0  0  0  0
  161.0160  204.8340  151.5510 C   0  0  0  0  0  0  0  0  0  0  0  0
  161.0550  205.7340  149.3390 C   0  0  0  0  0  0  0  0  0  0  0  0
  160.7950  211.2040  152.6970 C   0  0  0  0  0  1  0  0  0  0  0  0
  160.8720  207.6390  154.0170 C   0  0  0  0  0  0  0  0  0  0  0  0
  160.8200  210.0170  153.6180 C   0  0  0  0  0  0  0  0  0  0  0  0
  160.7710  209.1150  155.8750 O   0  0  0  0  0  0  0  0  0  0  0  0
  161.0670  204.6770  150.2000 N   0  0  0  0  0  0  0  0  0  0  0  0
  160.9070  208.5290  151.7470 C   0  0  0  0  0  3  0  0  0  0  0  0
  161.0030  207.0390  149.8530 C   0  0  0  0  0  3  0  0  0  0  0  0
  161.1720  202.1300  146.1920 O   0  0  0  0  0  1  0  0  0  0  0  0
  160.9250  204.0320  147.5660 C   0  0  0  0  0  3  0  0  0  0  0  0
  162.4820  205.9750  147.2880 C   0  0  1  0  0  3  0  0  0  0  0  0
  162.7250  205.4560  145.8960 C   0  0  0  0  0  3  0  0  0  0  0  0
  162.2560  204.2580  145.5330 C   0  0  0  0  0  3  0  0  0  0  0  0
  160.0900  206.2080  147.2120 O   0  0  0  0  0  1  0  0  0  0  0  0
  161.4270  203.4680  146.4620 C   0  0  0  0  0  0  0  0  0  0  0  0
  162.5920  207.4250  147.3060 N   0  0  0  0  0  1  0  0  0  0  0  0
  161.1190  205.5030  147.8490 C   0  0  2  0  0  0  0  0  0  0  0  0
  160.6850  211.5560  155.6220 C   0  0  0  0  0  3  0  0  0  0  0  0
  160.2980  211.4490  157.0860 C   0  0  0  0  0  2  0  0  0  0  0  0
  159.2550  211.8290  156.0610 C   0  0  0  0  0  2  0  0  0  0  0  0
  161.0560  203.6180  152.4170 C   0  0  0  0  0  2  0  0  0  0  0  0
  161.6270  202.5070  151.6760 N   0  0  0  0  0  2  0  0  0  0  0  0
  160.5400  201.8990  150.9330 C   0  0  0  0  0  2  0  0  0  0  0  0
  161.1050  201.1010  149.7760 C   0  0  0  0  0  1  0  0  0  0  0  0
  1 13  1  0  0  0  0
  1  6  1  0  0  0  0
  2 15  2  0  0  0  0
  2  7  1  0  0  0  0
  3 12  2  0  0  0  0
  3 11  1  0  0  0  0
  4 11  1  0  0  0  0
  5 26  1  0  0  0  0
  5 13  1  0  0  0  0
  7  4  2  0  0  0  0
  8  7  1  0  0  0  0
  8 29  1  0  0  0  0
  9 16  2  0  0  0  0
  9 14  1  0  0  0  0
 10 12  1  0  0  0  0
 11  1  2  0  0  0  0
 12  5  1  0  0  0  0
 14  8  2  0  0  0  0
 15  3  1  0  0  0  0
 16  2  1  0  0  0  0
 17 23  1  0  0  0  0
 18 25  1  0  0  0  0
 19 24  1  6  0  0  0
 19 25  1  0  0  0  0
 20 19  1  0  0  0  0
 21 20  2  0  0  0  0
 21 23  1  0  0  0  0
 23 18  2  0  0  0  0
 25 22  1  6  0  0  0
 25  9  1  0  0  0  0
 26 28  1  0  0  0  0
 26 27  1  0  0  0  0
 28 27  1  0  0  0  0
 30 29  1  0  0  0  0
 31 30  1  0  0  0  0
 32 31  1  0  0  0  0
M  END
>  <MODEL>
4

>  <REMARK>
 VINA RESULT:      -8.4      2.273      8.854
  Name = 
  5 active torsions:
  status: ('A' for Active; 'I' for Inactive)
    1  A    between atoms: C_1  and  N_10
    2  A    between atoms: N_4  and  C_5
    3  A    between atoms: N_4  and  C_13
    4  A    between atoms: C_13  and  C_15
    5  A    between atoms: C_16  and  C_32
                            x       y       z     vdW  Elec       q    Type
                         _______ _______ _______ _____ _____    ______ ____

>  <TORSDO>
F 5

$$$$
=
 OpenBabel11062410503D

 32 36  0  0  1  0  0  0  0  0999 V2000
  160.7830  209.9620  153.2760 C   0  0  0  0  0  0  0  0  0  0  0  0
  161.4640  206.9970  150.4290 C   0  0  0  0  0  0  0  0  0  0  0  0
  161.0210  207.6260  152.7440 C   0  0  0  0  0  0  0  0  0  0  0  0
  161.2080  209.3350  151.0110 C   0  0  0  0  0  3  0  0  0  0  0  0
  160.5650  208.2910  155.0100 N   0  0  0  0  0  0  0  0  0  0  0  0
  160.7560  211.4130  152.9150 C   0  0  0  0  0  1  0  0  0  0  0  0
  161.4400  208.3510  150.0440 C   0  0  0  0  0  0  0  0  0  0  0  0
  161.6520  208.6760  148.6920 C   0  0  0  0  0  0  0  0  0  0  0  0
  161.8960  206.3670  148.1360 C   0  0  0  0  0  0  0  0  0  0  0  0
  160.8600  205.8250  154.4520 C   0  0  0  0  0  1  0  0  0  0  0  0
  160.9980  208.9960  152.3590 C   0  0  0  0  0  0  0  0  0  0  0  0
  160.8200  207.2660  154.0300 C   0  0  0  0  0  0  0  0  0  0  0  0
  160.5780  209.6150  154.6130 O   0  0  0  0  0  0  0  0  0  0  0  0
  161.8640  207.6840  147.7850 N   0  0  0  0  0  0  0  0  0  0  0  0
  161.2570  206.6460  151.7620 C   0  0  0  0  0  3  0  0  0  0  0  0
  161.6910  206.0070  149.4760 C   0  0  0  0  0  3  0  0  0  0  0  0
  161.2900  205.6570  143.4420 O   0  0  0  0  0  1  0  0  0  0  0  0
  161.8480  205.8860  145.7230 C   0  0  0  0  0  3  0  0  0  0  0  0
  161.2120  204.0850  147.3430 C   0  0  1  0  0  3  0  0  0  0  0  0
  161.1570  203.1670  146.1510 C   0  0  0  0  0  3  0  0  0  0  0  0
  161.2410  203.6650  144.9140 C   0  0  0  0  0  3  0  0  0  0  0  0
  163.4670  204.8910  147.1180 O   0  0  0  0  0  1  0  0  0  0  0  0
  161.4720  205.1060  144.7040 C   0  0  0  0  0  0  0  0  0  0  0  0
  161.6270  203.3440  148.5240 N   0  0  0  0  0  1  0  0  0  0  0  0
  162.1290  205.3050  147.0890 C   0  0  2  0  0  0  0  0  0  0  0  0
  160.4000  207.9670  156.4250 C   0  0  0  0  0  3  0  0  0  0  0  0
  160.4840  209.2380  157.2520 C   0  0  0  0  0  2  0  0  0  0  0  0
  161.6670  208.2990  157.1960 C   0  0  0  0  0  2  0  0  0  0  0  0
  161.6110  210.0900  148.2120 C   0  0  0  0  0  2  0  0  0  0  0  0
  162.7420  210.8240  148.7530 N   0  0  0  0  0  2  0  0  0  0  0  0
  162.6070  212.1950  148.2980 C   0  0  0  0  0  2  0  0  0  0  0  0
  161.3500  212.7990  148.8870 C   0  0  0  0  0  1  0  0  0  0  0  0
  1 13  1  0  0  0  0
  2 15  2  0  0  0  0
  3 12  2  0  0  0  0
  4 11  1  0  0  0  0
  5 26  1  0  0  0  0
  6  1  1  0  0  0  0
  7  2  1  0  0  0  0
  7  4  2  0  0  0  0
  8  7  1  0  0  0  0
  9 16  2  0  0  0  0
 11  3  1  0  0  0  0
 11  1  2  0  0  0  0
 12 10  1  0  0  0  0
 12  5  1  0  0  0  0
 13  5  1  0  0  0  0
 14  9  1  0  0  0  0
 14  8  2  0  0  0  0
 15  3  1  0  0  0  0
 16  2  1  0  0  0  0
 17 23  1  0  0  0  0
 18 25  1  0  0  0  0
 19 24  1  1  0  0  0
 20 19  1  0  0  0  0
 21 20  2  0  0  0  0
 23 21  1  0  0  0  0
 23 18  2  0  0  0  0
 25 22  1  1  0  0  0
 25 19  1  0  0  0  0
 25  9  1  0  0  0  0
 26 28  1  0  0  0  0
 26 27  1  0  0  0  0
 28 27  1  0  0  0  0
 29  8  1  0  0  0  0
 29 30  1  0  0  0  0
 31 30  1  0  0  0  0
 31 32  1  0  0  0  0
M  END
>  <MODEL>
5

>  <REMARK>
 VINA RESULT:      -7.4      1.907      7.830
  Name = 
  5 active torsions:
  status: ('A' for Active; 'I' for Inactive)
    1  A    between atoms: C_1  and  N_10
    2  A    between atoms: N_4  and  C_5
    3  A    between atoms: N_4  and  C_13
    4  A    between atoms: C_13  and  C_15
    5  A    between atoms: C_16  and  C_32
                            x       y       z     vdW  Elec       q    Type
                         _______ _______ _______ _____ _____    ______ ____

>  <TORSDO>
F 5

$$$$
=
 OpenBabel11062410503D

 32 36  0  0  1  0  0  0  0  0999 V2000
  160.7240  207.9980  154.4440 C   0  0  0  0  0  0  0  0  0  0  0  0
  161.3140  207.0020  150.4420 C   0  0  0  0  0  0  0  0  0  0  0  0
  160.9840  208.7050  152.1570 C   0  0  0  0  0  0  0  0  0  0  0  0
  161.0570  206.3400  152.7580 C   0  0  0  0  0  3  0  0  0  0  0  0
  160.6740  210.3490  153.8850 N   0  0  0  0  0  0  0  0  0  0  0  0
  160.6440  206.9560  155.5140 C   0  0  0  0  0  1  0  0  0  0  0  0
  161.2540  205.9900  151.4170 C   0  0  0  0  0  0  0  0  0  0  0  0
  161.3920  204.6500  151.0150 C   0  0  0  0  0  0  0  0  0  0  0  0
  161.6490  205.3220  148.7380 C   0  0  0  0  0  0  0  0  0  0  0  0
  160.9060  211.0920  151.4610 C   0  0  0  0  0  1  0  0  0  0  0  0
  160.9200  207.6840  153.1470 C   0  0  0  0  0  0  0  0  0  0  0  0
  160.8590  210.0050  152.4980 C   0  0  0  0  0  0  0  0  0  0  0  0
  160.5860  209.3350  154.8200 O   0  0  0  0  0  0  0  0  0  0  0  0
  161.5920  204.3580  149.7000 N   0  0  0  0  0  0  0  0  0  0  0  0
  161.1800  208.3400  150.8130 C   0  0  0  0  0  3  0  0  0  0  0  0
  161.5130  206.6690  149.1040 C   0  0  0  0  0  3  0  0  0  0  0  0
  160.4550  206.7720  144.3350 O   0  0  0  0  0  1  0  0  0  0  0  0
  161.3100  206.0220  146.4020 C   0  0  0  0  0  3  0  0  0  0  0  0
  161.2060  203.5870  146.9790 C   0  0  1  0  0  3  0  0  0  0  0  0
  161.1110  203.3400  145.4960 C   0  0  0  0  0  3  0  0  0  0  0  0
  160.9310  204.3610  144.6550 C   0  0  0  0  0  3  0  0  0  0  0  0
  163.2530  204.8480  147.0390 O   0  0  0  0  0  1  0  0  0  0  0  0
  160.9070  205.7470  145.1570 C   0  0  0  0  0  0  0  0  0  0  0  0
  161.9020  202.4850  147.6240 N   0  0  0  0  0  1  0  0  0  0  0  0
  161.8790  204.9440  147.2950 C   0  0  2  0  0  0  0  0  0  0  0  0
  160.4730  211.7340  154.3060 C   0  0  0  0  0  3  0  0  0  0  0  0
  160.0530  211.7680  155.7640 C   0  0  0  0  0  2  0  0  0  0  0  0
  159.0190  211.9690  154.6820 C   0  0  0  0  0  2  0  0  0  0  0  0
  161.3650  203.5290  152.0020 C   0  0  0  0  0  2  0  0  0  0  0  0
  160.3610  202.5560  151.6120 N   0  0  0  0  0  2  0  0  0  0  0  0
  161.0530  201.5120  150.8800 C   0  0  0  0  0  2  0  0  0  0  0  0
  160.1500  200.9790  149.7880 C   0  0  0  0  0  1  0  0  0  0  0  0
  1 13  1  0  0  0  0
  1  6  1  0  0  0  0
  2 15  2  0  0  0  0
  2  7  1  0  0  0  0
  3 12  2  0  0  0  0
  3 11  1  0  0  0  0
  4 11  1  0  0  0  0
  5 26  1  0  0  0  0
  5 13  1  0  0  0  0
  7  4  2  0  0  0  0
  8  7  1  0  0  0  0
  8 29  1  0  0  0  0
  9 16  2  0  0  0  0
  9 14  1  0  0  0  0
 10 12  1  0  0  0  0
 11  1  2  0  0  0  0
 12  5  1  0  0  0  0
 14  8  2  0  0  0  0
 15  3  1  0  0  0  0
 16  2  1  0  0  0  0
 17 23  1  0  0  0  0
 18 25  1  0  0  0  0
 19 25  1  0  0  0  0
 19 24  1  1  0  0  0
 20 19  1  0  0  0  0
 21 23  1  0  0  0  0
 21 20  2  0  0  0  0
 23 18  2  0  0  0  0
 25 22  1  6  0  0  0
 25  9  1  0  0  0  0
 26 28  1  0  0  0  0
 26 27  1  0  0  0  0
 28 27  1  0  0  0  0
 30 29  1  0  0  0  0
 31 30  1  0  0  0  0
 32 31  1  0  0  0  0
M  END
>  <MODEL>
6

>  <REMARK>
 VINA RESULT:      -7.4      2.062      8.969
  Name = 
  5 active torsions:
  status: ('A' for Active; 'I' for Inactive)
    1  A    between atoms: C_1  and  N_10
    2  A    between atoms: N_4  and  C_5
    3  A    between atoms: N_4  and  C_13
    4  A    between atoms: C_13  and  C_15
    5  A    between atoms: C_16  and  C_32
                            x       y       z     vdW  Elec       q    Type
                         _______ _______ _______ _____ _____    ______ ____

>  <TORSDO>
F 5

$$$$
=
 OpenBabel11062410503D

 32 36  0  0  1  0  0  0  0  0999 V2000
  161.6300  206.7070  153.3590 C   0  0  0  0  0  0  0  0  0  0  0  0
  161.5990  210.1170  150.9650 C   0  0  0  0  0  0  0  0  0  0  0  0
  161.4720  209.1020  153.1800 C   0  0  0  0  0  0  0  0  0  0  0  0
  161.7610  207.7110  151.1960 C   0  0  0  0  0  3  0  0  0  0  0  0
  161.3710  208.0600  155.3450 N   0  0  0  0  0  0  0  0  0  0  0  0
  161.7810  205.3360  152.7800 C   0  0  0  0  0  1  0  0  0  0  0  0
  161.7510  208.8470  150.3790 C   0  0  0  0  0  0  0  0  0  0  0  0
  161.8870  208.7560  148.9820 C   0  0  0  0  0  0  0  0  0  0  0  0
  161.7300  211.1300  148.7750 C   0  0  0  0  0  0  0  0  0  0  0  0
  161.1610  210.5890  155.1500 C   0  0  0  0  0  1  0  0  0  0  0  0
  161.6240  207.8160  152.5910 C   0  0  0  0  0  0  0  0  0  0  0  0
  161.3400  209.2380  154.5170 C   0  0  0  0  0  0  0  0  0  0  0  0
  161.4900  206.8210  154.7430 O   0  0  0  0  0  0  0  0  0  0  0  0
  161.8810  209.8890  148.2290 N   0  0  0  0  0  0  0  0  0  0  0  0
  161.4610  210.2370  152.3480 C   0  0  0  0  0  3  0  0  0  0  0  0
  161.5900  211.2570  150.1650 C   0  0  0  0  0  3  0  0  0  0  0  0
  159.5360  212.8600  144.8900 O   0  0  0  0  0  1  0  0  0  0  0  0
  160.5870  212.2700  146.9180 C   0  0  0  0  0  3  0  0  0  0  0  0
  163.0760  212.4610  147.1270 C   0  0  1  0  0  3  0  0  0  0  0  0
  162.9980  213.4520  145.9960 C   0  0  0  0  0  3  0  0  0  0  0  0
  161.8540  213.6180  145.3260 C   0  0  0  0  0  3  0  0  0  0  0  0
  161.5600  213.5050  148.6750 O   0  0  0  0  0  1  0  0  0  0  0  0
  160.6360  212.8960  145.7360 C   0  0  0  0  0  0  0  0  0  0  0  0
  164.1740  212.8060  148.0160 N   0  0  0  0  0  1  0  0  0  0  0  0
  161.7370  212.3550  147.8940 C   0  0  2  0  0  0  0  0  0  0  0  0
  161.1730  208.1390  156.7910 C   0  0  0  0  0  3  0  0  0  0  0  0
  160.3600  206.9470  157.2610 C   0  0  0  0  0  2  0  0  0  0  0  0
  159.6970  208.2970  157.1170 C   0  0  0  0  0  2  0  0  0  0  0  0
  162.0810  207.4410  148.2990 C   0  0  0  0  0  2  0  0  0  0  0  0
  160.8730  207.0830  147.5770 N   0  0  0  0  0  2  0  0  0  0  0  0
  161.1940  205.9110  146.7830 C   0  0  0  0  0  2  0  0  0  0  0  0
  161.6280  204.7860  147.6980 C   0  0  0  0  0  1  0  0  0  0  0  0
  1 13  1  0  0  0  0
  2 15  2  0  0  0  0
  3 12  2  0  0  0  0
  4 11  1  0  0  0  0
  5 26  1  0  0  0  0
  6  1  1  0  0  0  0
  7  2  1  0  0  0  0
  7  4  2  0  0  0  0
  8  7  1  0  0  0  0
  9 16  2  0  0  0  0
 11  3  1  0  0  0  0
 11  1  2  0  0  0  0
 12 10  1  0  0  0  0
 12  5  1  0  0  0  0
 13  5  1  0  0  0  0
 14  9  1  0  0  0  0
 14  8  2  0  0  0  0
 15  3  1  0  0  0  0
 16  2  1  0  0  0  0
 17 23  1  0  0  0  0
 18 25  1  0  0  0  0
 19 25  1  0  0  0  0
 19 24  1  1  0  0  0
 20 19  1  0  0  0  0
 21 23  1  0  0  0  0
 21 20  2  0  0  0  0
 23 18  2  0  0  0  0
 25 22  1  1  0  0  0
 25  9  1  0  0  0  0
 26 28  1  0  0  0  0
 26 27  1  0  0  0  0
 28 27  1  0  0  0  0
 29  8  1  0  0  0  0
 30 29  1  0  0  0  0
 31 30  1  0  0  0  0
 31 32  1  0  0  0  0
M  END
>  <MODEL>
7

>  <REMARK>
 VINA RESULT:      -6.9      2.764      7.560
  Name = 
  5 active torsions:
  status: ('A' for Active; 'I' for Inactive)
    1  A    between atoms: C_1  and  N_10
    2  A    between atoms: N_4  and  C_5
    3  A    between atoms: N_4  and  C_13
    4  A    between atoms: C_13  and  C_15
    5  A    between atoms: C_16  and  C_32
                            x       y       z     vdW  Elec       q    Type
                         _______ _______ _______ _____ _____    ______ ____

>  <TORSDO>
F 5

$$$$
