=
 OpenBabel11052422043D

 30 32  0  0  1  0  0  0  0  0999 V2000
  160.3830  207.9970  155.3670 C   0  0  0  0  0  2  0  0  0  0  0  0
  160.6690  208.0290  153.8580 C   0  0  2  0  0  3  0  0  0  0  0  0
  162.6410  210.7350  156.8680 C   0  0  0  0  0  1  0  0  0  0  0  0
  162.5790  208.2980  149.0970 C   0  0  0  0  0  2  0  0  0  0  0  0
  161.9020  206.2210  152.1840 P   0  0  1  0  0  4  0  0  0  0  0  0
  160.5100  209.3690  151.6670 C   0  0  0  0  0  2  0  0  0  0  0  0
  162.5510  210.3440  153.7790 O   0  0  0  0  0  1  0  0  0  0  0  0
  163.7350  205.2780  151.9210 Cl  0  0  0  0  0  0  0  0  0  0  0  0
  162.0360  207.4200  153.5450 C   0  0  0  0  0  2  0  0  0  0  0  0
  161.9460  209.3720  151.1340 C   0  0  2  0  0  3  0  0  0  0  0  0
  161.9470  209.5080  148.7740 O   0  0  0  0  0  0  0  0  0  0  0  0
  161.5040  208.6510  156.1730 C   0  0  0  0  0  2  0  0  0  0  0  0
  160.6960  210.9250  155.2280 C   0  0  2  0  0  3  0  0  0  0  0  0
  161.3150  210.1490  156.4150 C   0  0  2  0  0  3  0  0  0  0  0  0
  159.0050  209.6630  153.4240 O   0  0  0  0  0  1  0  0  0  0  0  0
  161.1720  210.5710  153.8110 C   0  0  2  0  0  3  0  0  0  0  0  0
  160.3590  209.4030  153.2000 C   0  0  1  0  0  0  0  0  0  0  0  0
  162.0250  210.2880  149.9360 C   0  0  0  0  0  2  0  0  0  0  0  0
  161.4480  207.0190  150.7570 O   0  0  0  0  0  0  0  0  0  0  0  0
  162.3960  208.0340  150.5730 C   0  0  1  0  0  3  0  0  0  0  0  0
  160.6520  204.9740  152.6020 C   0  0  0  0  0  2  0  0  0  0  0  0
  161.0050  203.6550  151.9490 C   0  0  0  0  0  2  0  0  0  0  0  0
  160.7780  203.7540  150.4560 C   0  0  0  0  0  2  0  0  0  0  0  0
  160.4720  202.3790  149.9000 C   0  0  0  0  0  1  0  0  0  0  0  0
  160.4070  212.4230  155.4330 C   0  0  1  0  0  3  0  0  0  0  0  0
  159.2820  212.9100  154.5190 C   0  0  0  0  0  3  0  0  0  0  0  0
  159.2710  214.3060  154.4730 O   0  0  0  0  0  1  0  0  0  0  0  0
  158.0480  212.4610  154.9940 O   0  0  0  0  0  1  0  0  0  0  0  0
  160.8180  213.9190  157.2610 O   0  0  0  0  0  1  0  0  0  0  0  0
  160.1130  212.7730  156.8900 C   0  0  0  0  0  2  0  0  0  0  0  0
  1 12  1  0  0  0  0
  2  9  1  1  0  0  0
  2  1  1  0  0  0  0
  5  8  1  6  0  0  0
  5 21  1  0  0  0  0
  5  9  1  0  0  0  0
  6 17  1  0  0  0  0
 10 18  1  6  0  0  0
 10  6  1  0  0  0  0
 11  4  1  0  0  0  0
 11 18  1  0  0  0  0
 12 14  1  0  0  0  0
 13 25  1  1  0  0  0
 13 14  1  0  0  0  0
 14  3  1  6  0  0  0
 16  7  1  1  0  0  0
 16 13  1  0  0  0  0
 17 15  1  1  0  0  0
 17 16  1  0  0  0  0
 17  2  1  0  0  0  0
 19  5  1  0  0  0  0
 20  4  1  6  0  0  0
 20 19  1  0  0  0  0
 20 10  1  0  0  0  0
 22 21  1  0  0  0  0
 23 22  1  0  0  0  0
 24 23  1  0  0  0  0
 25 30  1  1  0  0  0
 26 28  1  0  0  0  0
 26 25  1  0  0  0  0
 27 26  1  0  0  0  0
 30 29  1  0  0  0  0
M  END
>  <MODEL>
1

>  <REMARK>
 VINA RESULT:      -3.7      0.000      0.000
  Name = 
  6 active torsions:
  status: ('A' for Active; 'I' for Inactive)
    1  A    between atoms: C_2  and  C_28
    2  A    between atoms: C_6  and  P_8
    3  A    between atoms: C_6  and  C_21
    4  A    between atoms: C_9  and  C_21
    5  A    between atoms: C_19  and  C_28
    6  A    between atoms: C_28  and  C_29
                            x       y       z     vdW  Elec       q    Type
                         _______ _______ _______ _____ _____    ______ ____

>  <TORSDO>
F 6

$$$$
=
 OpenBabel11052422043D

 30 32  0  0  1  0  0  0  0  0999 V2000
  162.3550  208.7190  151.0410 C   0  0  0  0  0  2  0  0  0  0  0  0
  162.1170  207.2340  150.7270 C   0  0  2  0  0  3  0  0  0  0  0  0
  159.5780  209.6660  153.5380 C   0  0  0  0  0  1  0  0  0  0  0  0
  160.3480  202.5210  149.7060 C   0  0  0  0  0  2  0  0  0  0  0  0
  161.2990  205.9510  148.4300 P   0  0  1  0  0  4  0  0  0  0  0  0
  162.0950  204.8230  151.6250 C   0  0  0  0  0  2  0  0  0  0  0  0
  159.8390  206.7130  152.5840 O   0  0  0  0  0  1  0  0  0  0  0  0
  159.6840  205.8860  147.1240 Cl  0  0  0  0  0  0  0  0  0  0  0  0
  160.8990  207.0520  149.8210 C   0  0  0  0  0  2  0  0  0  0  0  0
  160.7020  204.3060  151.2530 C   0  0  2  0  0  3  0  0  0  0  0  0
  160.7530  201.9650  150.9290 O   0  0  0  0  0  0  0  0  0  0  0  0
  161.1050  209.3870  151.6140 C   0  0  0  0  0  2  0  0  0  0  0  0
  161.5060  208.0120  153.7740 C   0  0  2  0  0  3  0  0  0  0  0  0
  161.0030  209.3300  153.1390 C   0  0  2  0  0  3  0  0  0  0  0  0
  163.4610  206.4820  152.5320 O   0  0  0  0  0  1  0  0  0  0  0  0
  161.1510  206.6940  153.0700 C   0  0  2  0  0  3  0  0  0  0  0  0
  162.1860  206.3200  151.9820 C   0  0  1  0  0  0  0  0  0  0  0  0
  160.4930  202.9520  151.8900 C   0  0  0  0  0  2  0  0  0  0  0  0
  161.6430  204.3930  149.0090 O   0  0  0  0  0  0  0  0  0  0  0  0
  160.5280  204.0190  149.7710 C   0  0  1  0  0  3  0  0  0  0  0  0
  162.7450  206.5990  147.5460 C   0  0  0  0  0  2  0  0  0  0  0  0
  162.7040  206.1550  146.1000 C   0  0  0  0  0  2  0  0  0  0  0  0
  163.1220  204.7040  146.0060 C   0  0  0  0  0  2  0  0  0  0  0  0
  162.0420  203.9130  145.2970 C   0  0  0  0  0  1  0  0  0  0  0  0
  161.5030  207.9190  155.3110 C   0  0  1  0  0  3  0  0  0  0  0  0
  161.7710  209.2790  155.9570 C   0  0  0  0  0  3  0  0  0  0  0  0
  162.7750  209.1620  156.9210 O   0  0  0  0  0  1  0  0  0  0  0  0
  160.6100  209.7610  156.5640 O   0  0  0  0  0  1  0  0  0  0  0  0
  160.4830  206.6470  157.0680 O   0  0  0  0  0  1  0  0  0  0  0  0
  160.2210  207.3000  155.8630 C   0  0  0  0  0  2  0  0  0  0  0  0
  1 12  1  0  0  0  0
  2  9  1  1  0  0  0
  2  1  1  0  0  0  0
  2 17  1  0  0  0  0
  4 11  1  0  0  0  0
  5  8  1  6  0  0  0
  5 19  1  0  0  0  0
  5  9  1  0  0  0  0
  6 17  1  0  0  0  0
 10  6  1  6  0  0  0
 10 18  1  0  0  0  0
 11 18  1  0  0  0  0
 12 14  1  0  0  0  0
 13 25  1  1  0  0  0
 14  3  1  6  0  0  0
 14 13  1  0  0  0  0
 16  7  1  6  0  0  0
 16 13  1  0  0  0  0
 17 15  1  1  0  0  0
 17 16  1  0  0  0  0
 19 20  1  0  0  0  0
 20  4  1  1  0  0  0
 20 10  1  0  0  0  0
 21  5  1  0  0  0  0
 22 21  1  0  0  0  0
 23 22  1  0  0  0  0
 24 23  1  0  0  0  0
 25 30  1  1  0  0  0
 25 26  1  0  0  0  0
 26 28  1  0  0  0  0
 26 27  1  0  0  0  0
 30 29  1  0  0  0  0
M  END
>  <MODEL>
2

>  <REMARK>
 VINA RESULT:      -3.2      2.825      5.203
  Name = 
  6 active torsions:
  status: ('A' for Active; 'I' for Inactive)
    1  A    between atoms: C_2  and  C_28
    2  A    between atoms: C_6  and  P_8
    3  A    between atoms: C_6  and  C_21
    4  A    between atoms: C_9  and  C_21
    5  A    between atoms: C_19  and  C_28
    6  A    between atoms: C_28  and  C_29
                            x       y       z     vdW  Elec       q    Type
                         _______ _______ _______ _____ _____    ______ ____

>  <TORSDO>
F 6

$$$$
=
 OpenBabel11052422043D

 30 32  0  0  1  0  0  0  0  0999 V2000
  159.3400  212.8520  152.4120 C   0  0  0  0  0  2  0  0  0  0  0  0
  159.9750  211.7020  153.2080 C   0  0  2  0  0  3  0  0  0  0  0  0
  155.5920  212.7300  153.2970 C   0  0  0  0  0  1  0  0  0  0  0  0
  161.2510  207.3590  155.6380 C   0  0  0  0  0  2  0  0  0  0  0  0
  161.1120  209.3230  152.4080 P   0  0  1  0  0  4  0  0  0  0  0  0
  160.5490  210.7550  155.5310 C   0  0  0  0  0  2  0  0  0  0  0  0
  157.5660  210.7750  154.7070 O   0  0  0  0  0  1  0  0  0  0  0  0
  160.6200  207.5760  151.3970 Cl  0  0  0  0  0  0  0  0  0  0  0  0
  159.6210  210.3470  152.5940 C   0  0  0  0  0  2  0  0  0  0  0  0
  159.9380  209.3510  155.5160 C   0  0  2  0  0  3  0  0  0  0  0  0
  161.1640  207.9050  156.9270 O   0  0  0  0  0  0  0  0  0  0  0  0
  157.8320  212.6690  152.2500 C   0  0  0  0  0  2  0  0  0  0  0  0
  157.6170  213.1980  154.7780 C   0  0  2  0  0  3  0  0  0  0  0  0
  156.9970  213.3020  153.3640 C   0  0  2  0  0  3  0  0  0  0  0  0
  160.3670  213.0450  155.1250 O   0  0  0  0  0  1  0  0  0  0  0  0
  158.2920  211.8760  155.1710 C   0  0  2  0  0  3  0  0  0  0  0  0
  159.7800  211.8350  154.7440 C   0  0  1  0  0  0  0  0  0  0  0  0
  160.0480  208.7520  156.8980 C   0  0  0  0  0  2  0  0  0  0  0  0
  161.7480  208.9510  153.9370 O   0  0  0  0  0  0  0  0  0  0  0  0
  160.6970  208.3590  154.6500 C   0  0  1  0  0  3  0  0  0  0  0  0
  162.3510  210.2330  151.4450 C   0  0  0  0  0  2  0  0  0  0  0  0
  161.9160  210.3160  149.9980 C   0  0  0  0  0  2  0  0  0  0  0  0
  162.0140  211.7490  149.5220 C   0  0  0  0  0  2  0  0  0  0  0  0
  161.8140  211.7970  148.0220 C   0  0  0  0  0  1  0  0  0  0  0  0
  156.8650  213.8840  155.9340 C   0  0  1  0  0  3  0  0  0  0  0  0
  155.4410  213.3450  156.0760 C   0  0  0  0  0  3  0  0  0  0  0  0
  154.5400  214.4030  156.2190 O   0  0  0  0  0  1  0  0  0  0  0  0
  155.3500  212.5160  157.1950 O   0  0  0  0  0  1  0  0  0  0  0  0
  158.8410  214.4530  157.1650 O   0  0  0  0  0  1  0  0  0  0  0  0
  157.6140  213.7950  157.2610 C   0  0  0  0  0  2  0  0  0  0  0  0
  2  1  1  6  0  0  0
  2 17  1  0  0  0  0
  4 11  1  0  0  0  0
  5  8  1  6  0  0  0
  5  9  1  0  0  0  0
  5 19  1  0  0  0  0
  9  2  1  0  0  0  0
 10  6  1  1  0  0  0
 10 18  1  0  0  0  0
 12  1  1  0  0  0  0
 12 14  1  0  0  0  0
 13 16  1  0  0  0  0
 13 25  1  1  0  0  0
 14  3  1  1  0  0  0
 14 13  1  0  0  0  0
 16  7  1  6  0  0  0
 17 15  1  1  0  0  0
 17 16  1  0  0  0  0
 17  6  1  0  0  0  0
 18 11  1  0  0  0  0
 19 20  1  0  0  0  0
 20 10  1  0  0  0  0
 20  4  1  1  0  0  0
 21  5  1  0  0  0  0
 22 21  1  0  0  0  0
 23 22  1  0  0  0  0
 24 23  1  0  0  0  0
 25 26  1  0  0  0  0
 25 30  1  1  0  0  0
 26 27  1  0  0  0  0
 26 28  1  0  0  0  0
 29 30  1  0  0  0  0
M  END
>  <MODEL>
3

>  <REMARK>
 VINA RESULT:      -2.8      2.987      5.421
  Name = 
  6 active torsions:
  status: ('A' for Active; 'I' for Inactive)
    1  A    between atoms: C_2  and  C_28
    2  A    between atoms: C_6  and  P_8
    3  A    between atoms: C_6  and  C_21
    4  A    between atoms: C_9  and  C_21
    5  A    between atoms: C_19  and  C_28
    6  A    between atoms: C_28  and  C_29
                            x       y       z     vdW  Elec       q    Type
                         _______ _______ _______ _____ _____    ______ ____

>  <TORSDO>
F 6

$$$$
=
 OpenBabel11052422043D

 30 32  0  0  1  0  0  0  0  0999 V2000
  161.5820  205.6000  153.2020 C   0  0  0  0  0  2  0  0  0  0  0  0
  161.8300  206.9420  152.4970 C   0  0  2  0  0  3  0  0  0  0  0  0
  159.0350  203.7570  150.9750 C   0  0  0  0  0  1  0  0  0  0  0  0
  161.6710  211.3930  149.9380 C   0  0  0  0  0  2  0  0  0  0  0  0
  161.1870  209.5290  153.1920 P   0  0  1  0  0  4  0  0  0  0  0  0
  162.7700  208.1380  150.4210 C   0  0  0  0  0  2  0  0  0  0  0  0
  160.1620  206.5120  150.0590 O   0  0  0  0  0  1  0  0  0  0  0  0
  159.5250  210.7100  153.5930 Cl  0  0  0  0  0  0  0  0  0  0  0  0
  160.6340  207.8790  152.6630 C   0  0  0  0  0  2  0  0  0  0  0  0
  161.6040  209.0060  149.9380 C   0  0  2  0  0  3  0  0  0  0  0  0
  162.4130  210.9350  148.8390 O   0  0  0  0  0  0  0  0  0  0  0  0
  160.2750  204.9520  152.7510 C   0  0  0  0  0  2  0  0  0  0  0  0
  161.4290  204.4880  150.4770 C   0  0  2  0  0  3  0  0  0  0  0  0
  160.4170  204.0170  151.5490 C   0  0  2  0  0  3  0  0  0  0  0  0
  163.5930  206.0850  151.1600 O   0  0  0  0  0  1  0  0  0  0  0  0
  161.4540  205.9810  150.1190 C   0  0  2  0  0  3  0  0  0  0  0  0
  162.3890  206.7860  151.0550 C   0  0  1  0  0  0  0  0  0  0  0  0
  161.9680  209.6260  148.6100 C   0  0  0  0  0  2  0  0  0  0  0  0
  162.1260  210.2410  151.9710 O   0  0  0  0  0  0  0  0  0  0  0  0
  161.3300  210.2140  150.8180 C   0  0  1  0  0  3  0  0  0  0  0  0
  162.1790  209.3750  154.7040 C   0  0  0  0  0  2  0  0  0  0  0  0
  161.2670  209.2690  155.9070 C   0  0  0  0  0  2  0  0  0  0  0  0
  161.2260  207.8340  156.3850 C   0  0  0  0  0  2  0  0  0  0  0  0
  159.8230  207.2890  156.2260 C   0  0  0  0  0  1  0  0  0  0  0  0
  161.6770  203.5540  149.2780 C   0  0  1  0  0  3  0  0  0  0  0  0
  160.8470  202.2740  149.3800 C   0  0  0  0  0  3  0  0  0  0  0  0
  161.5790  201.2780  150.0300 O   0  0  0  0  0  1  0  0  0  0  0  0
  160.4980  201.8240  148.1060 O   0  0  0  0  0  1  0  0  0  0  0  0
  162.6210  204.2230  147.1790 O   0  0  0  0  0  1  0  0  0  0  0  0
  161.4480  204.2430  147.9350 C   0  0  0  0  0  2  0  0  0  0  0  0
  2  9  1  6  0  0  0
  2  1  1  0  0  0  0
  5  8  1  1  0  0  0
  5 21  1  0  0  0  0
  6 17  1  0  0  0  0
  9  5  1  0  0  0  0
 10 18  1  6  0  0  0
 10  6  1  0  0  0  0
 10 20  1  0  0  0  0
 11  4  1  0  0  0  0
 12  1  1  0  0  0  0
 13 25  1  6  0  0  0
 13 14  1  0  0  0  0
 14  3  1  6  0  0  0
 14 12  1  0  0  0  0
 16  7  1  1  0  0  0
 16 13  1  0  0  0  0
 16 17  1  0  0  0  0
 17 15  1  1  0  0  0
 17  2  1  0  0  0  0
 18 11  1  0  0  0  0
 19  5  1  0  0  0  0
 20  4  1  6  0  0  0
 20 19  1  0  0  0  0
 21 22  1  0  0  0  0
 22 23  1  0  0  0  0
 24 23  1  0  0  0  0
 25 30  1  6  0  0  0
 25 26  1  0  0  0  0
 26 27  1  0  0  0  0
 28 26  1  0  0  0  0
 29 30  1  0  0  0  0
M  END
>  <MODEL>
4

>  <REMARK>
 VINA RESULT:      -2.8      2.952      7.448
  Name = 
  6 active torsions:
  status: ('A' for Active; 'I' for Inactive)
    1  A    between atoms: C_2  and  C_28
    2  A    between atoms: C_6  and  P_8
    3  A    between atoms: C_6  and  C_21
    4  A    between atoms: C_9  and  C_21
    5  A    between atoms: C_19  and  C_28
    6  A    between atoms: C_28  and  C_29
                            x       y       z     vdW  Elec       q    Type
                         _______ _______ _______ _____ _____    ______ ____

>  <TORSDO>
F 6

$$$$
=
 OpenBabel11052422043D

 30 32  0  0  1  0  0  0  0  0999 V2000
  161.0600  206.9600  146.5100 C   0  0  0  0  0  2  0  0  0  0  0  0
  161.1060  207.6540  147.8800 C   0  0  2  0  0  3  0  0  0  0  0  0
  163.6780  204.1420  146.7290 C   0  0  0  0  0  1  0  0  0  0  0  0
  162.2580  209.8190  152.3940 C   0  0  0  0  0  2  0  0  0  0  0  0
  161.9560  210.1620  148.6400 P   0  0  1  0  0  4  0  0  0  0  0  0
  160.6830  207.4480  150.4100 C   0  0  0  0  0  2  0  0  0  0  0  0
  163.0830  205.8800  149.2440 O   0  0  0  0  0  1  0  0  0  0  0  0
  163.6670  211.3400  148.6350 Cl  0  0  0  0  0  0  0  0  0  0  0  0
  162.3700  208.5020  148.0240 C   0  0  0  0  0  2  0  0  0  0  0  0
  162.0150  207.8660  151.0400 C   0  0  2  0  0  3  0  0  0  0  0  0
  161.6530  208.8200  153.1720 O   0  0  0  0  0  0  0  0  0  0  0  0
  162.3290  206.1550  146.2360 C   0  0  0  0  0  2  0  0  0  0  0  0
  161.5140  204.4800  148.0380 C   0  0  2  0  0  3  0  0  0  0  0  0
  162.2660  204.7000  146.7040 C   0  0  2  0  0  3  0  0  0  0  0  0
  159.4910  206.2040  148.8380 O   0  0  0  0  0  1  0  0  0  0  0  0
  161.7400  205.4950  149.1670 C   0  0  2  0  0  3  0  0  0  0  0  0
  160.7770  206.7030  149.0650 C   0  0  1  0  0  0  0  0  0  0  0  0
  161.9560  207.6130  152.5280 C   0  0  0  0  0  2  0  0  0  0  0  0
  161.3300  210.0520  150.2140 O   0  0  0  0  0  0  0  0  0  0  0  0
  162.2940  209.3570  150.9560 C   0  0  1  0  0  3  0  0  0  0  0  0
  160.7180  210.9170  147.5500 C   0  0  0  0  0  2  0  0  0  0  0  0
  161.0680  212.3690  147.3040 C   0  0  0  0  0  2  0  0  0  0  0  0
  160.6550  213.1970  148.5020 C   0  0  0  0  0  2  0  0  0  0  0  0
  161.5810  214.3880  148.6350 C   0  0  0  0  0  1  0  0  0  0  0  0
  161.3470  203.0290  148.5260 C   0  0  1  0  0  3  0  0  0  0  0  0
  160.4620  202.9520  149.7710 C   0  0  0  0  0  3  0  0  0  0  0  0
  161.2430  202.6910  150.8990 O   0  0  0  0  0  1  0  0  0  0  0  0
  159.5160  201.9350  149.6260 O   0  0  0  0  0  1  0  0  0  0  0  0
  161.4340  200.8410  147.5510 O   0  0  0  0  0  1  0  0  0  0  0  0
  160.8310  202.0940  147.4340 C   0  0  0  0  0  2  0  0  0  0  0  0
  2  1  1  6  0  0  0
  2  9  1  0  0  0  0
  2 17  1  0  0  0  0
  4 11  1  0  0  0  0
  5  8  1  1  0  0  0
  5 19  1  0  0  0  0
  9  5  1  0  0  0  0
 10  6  1  6  0  0  0
 10 18  1  0  0  0  0
 12  1  1  0  0  0  0
 12 14  1  0  0  0  0
 13 25  1  1  0  0  0
 13 16  1  0  0  0  0
 14  3  1  1  0  0  0
 14 13  1  0  0  0  0
 16  7  1  6  0  0  0
 17 15  1  6  0  0  0
 17 16  1  0  0  0  0
 17  6  1  0  0  0  0
 18 11  1  0  0  0  0
 19 20  1  0  0  0  0
 20 10  1  0  0  0  0
 20  4  1  1  0  0  0
 21  5  1  0  0  0  0
 22 21  1  0  0  0  0
 22 23  1  0  0  0  0
 23 24  1  0  0  0  0
 25 30  1  6  0  0  0
 25 26  1  0  0  0  0
 26 27  1  0  0  0  0
 28 26  1  0  0  0  0
 30 29  1  0  0  0  0
M  END
>  <MODEL>
5

>  <REMARK>
 VINA RESULT:      -1.6      3.621      8.811
  Name = 
  6 active torsions:
  status: ('A' for Active; 'I' for Inactive)
    1  A    between atoms: C_2  and  C_28
    2  A    between atoms: C_6  and  P_8
    3  A    between atoms: C_6  and  C_21
    4  A    between atoms: C_9  and  C_21
    5  A    between atoms: C_19  and  C_28
    6  A    between atoms: C_28  and  C_29
                            x       y       z     vdW  Elec       q    Type
                         _______ _______ _______ _____ _____    ______ ____

>  <TORSDO>
F 6

$$$$
=
 OpenBabel11052422043D

 30 32  0  0  1  0  0  0  0  0999 V2000
  161.2520  207.3290  147.5850 C   0  0  0  0  0  2  0  0  0  0  0  0
  161.0920  207.4180  149.1100 C   0  0  2  0  0  3  0  0  0  0  0  0
  163.7880  204.4860  147.0110 C   0  0  0  0  0  1  0  0  0  0  0  0
  161.5500  207.5330  154.2260 C   0  0  0  0  0  2  0  0  0  0  0  0
  161.8310  209.3560  150.9240 P   0  0  1  0  0  4  0  0  0  0  0  0
  160.2840  206.2560  151.2590 C   0  0  0  0  0  2  0  0  0  0  0  0
  162.8240  205.1200  149.9040 O   0  0  0  0  0  1  0  0  0  0  0  0
  163.5300  210.3200  151.6300 Cl  0  0  0  0  0  0  0  0  0  0  0  0
  162.3240  208.0530  149.7560 C   0  0  0  0  0  2  0  0  0  0  0  0
  161.5060  206.2980  152.1810 C   0  0  2  0  0  3  0  0  0  0  0  0
  160.8270  206.3510  154.4440 O   0  0  0  0  0  0  0  0  0  0  0  0
  162.5430  206.6160  147.1880 C   0  0  0  0  0  2  0  0  0  0  0  0
  161.4500  204.4220  148.0320 C   0  0  2  0  0  3  0  0  0  0  0  0
  162.4000  205.1020  147.0180 C   0  0  2  0  0  3  0  0  0  0  0  0
  159.3400  205.8200  149.1710 O   0  0  0  0  0  1  0  0  0  0  0  0
  161.5070  204.8890  149.4950 C   0  0  2  0  0  3  0  0  0  0  0  0
  160.5790  206.1000  149.7540 C   0  0  1  0  0  0  0  0  0  0  0  0
  161.2180  205.4800  153.4180 C   0  0  0  0  0  2  0  0  0  0  0  0
  160.9700  208.6730  152.2170 O   0  0  0  0  0  0  0  0  0  0  0  0
  161.8040  207.6780  152.7430 C   0  0  1  0  0  3  0  0  0  0  0  0
  160.7800  210.5630  150.0700 C   0  0  0  0  0  2  0  0  0  0  0  0
  161.6150  211.7420  149.6180 C   0  0  0  0  0  2  0  0  0  0  0  0
  162.2130  211.4460  148.2600 C   0  0  0  0  0  2  0  0  0  0  0  0
  163.0740  212.6120  147.8230 C   0  0  0  0  0  1  0  0  0  0  0  0
  161.2010  202.9120  147.8680 C   0  0  1  0  0  3  0  0  0  0  0  0
  160.5410  202.3120  149.1100 C   0  0  0  0  0  3  0  0  0  0  0  0
  161.3820  201.3570  149.6860 O   0  0  0  0  0  1  0  0  0  0  0  0
  159.3320  201.7050  148.7650 O   0  0  0  0  0  1  0  0  0  0  0  0
  160.8260  201.3620  146.0780 O   0  0  0  0  0  1  0  0  0  0  0  0
  160.4000  202.5790  146.6120 C   0  0  0  0  0  2  0  0  0  0  0  0
  2  1  1  6  0  0  0
  2 17  1  0  0  0  0
  2  9  1  0  0  0  0
  4 11  1  0  0  0  0
  5  8  1  1  0  0  0
  5 19  1  0  0  0  0
  9  5  1  0  0  0  0
 10  6  1  6  0  0  0
 10 20  1  0  0  0  0
 10 18  1  0  0  0  0
 12  1  1  0  0  0  0
 13 25  1  1  0  0  0
 13 16  1  0  0  0  0
 14  3  1  1  0  0  0
 14 12  1  0  0  0  0
 14 13  1  0  0  0  0
 16 17  1  0  0  0  0
 16  7  1  6  0  0  0
 17 15  1  6  0  0  0
 17  6  1  0  0  0  0
 18 11  1  0  0  0  0
 19 20  1  0  0  0  0
 20  4  1  1  0  0  0
 21  5  1  0  0  0  0
 22 21  1  0  0  0  0
 23 22  1  0  0  0  0
 24 23  1  0  0  0  0
 25 30  1  6  0  0  0
 25 26  1  0  0  0  0
 26 27  1  0  0  0  0
 28 26  1  0  0  0  0
 29 30  1  0  0  0  0
M  END
>  <MODEL>
6

>  <REMARK>
 VINA RESULT:      -1.0      3.524      8.723
  Name = 
  6 active torsions:
  status: ('A' for Active; 'I' for Inactive)
    1  A    between atoms: C_2  and  C_28
    2  A    between atoms: C_6  and  P_8
    3  A    between atoms: C_6  and  C_21
    4  A    between atoms: C_9  and  C_21
    5  A    between atoms: C_19  and  C_28
    6  A    between atoms: C_28  and  C_29
                            x       y       z     vdW  Elec       q    Type
                         _______ _______ _______ _____ _____    ______ ____

>  <TORSDO>
F 6

$$$$
=
 OpenBabel11052422043D

 30 32  0  0  1  0  0  0  0  0999 V2000
  161.8930  205.8560  152.3520 C   0  0  0  0  0  2  0  0  0  0  0  0
  161.9970  207.3010  151.8410 C   0  0  2  0  0  3  0  0  0  0  0  0
  159.2040  204.2060  150.1400 C   0  0  0  0  0  1  0  0  0  0  0  0
  161.3440  212.0640  150.0310 C   0  0  0  0  0  2  0  0  0  0  0  0
  161.3130  209.7090  152.9910 P   0  0  1  0  0  4  0  0  0  0  0  0
  162.6430  208.8500  149.8900 C   0  0  0  0  0  2  0  0  0  0  0  0
  160.0900  207.1330  149.5500 O   0  0  0  0  0  1  0  0  0  0  0  0
  159.6530  210.7090  153.7380 Cl  0  0  0  0  0  0  0  0  0  0  0  0
  160.7840  208.1250  152.2720 C   0  0  0  0  0  2  0  0  0  0  0  0
  161.3900  209.7030  149.6700 C   0  0  2  0  0  3  0  0  0  0  0  0
  161.9800  211.8220  148.8050 O   0  0  0  0  0  0  0  0  0  0  0  0
  160.5760  205.2000  151.9430 C   0  0  0  0  0  2  0  0  0  0  0  0
  161.4900  205.1530  149.5180 C   0  0  2  0  0  3  0  0  0  0  0  0
  160.6270  204.4650  150.6020 C   0  0  2  0  0  3  0  0  0  0  0  0
  163.6390  206.7660  150.2140 O   0  0  0  0  0  1  0  0  0  0  0  0
  161.4050  206.6820  149.3950 C   0  0  2  0  0  3  0  0  0  0  0  0
  162.3990  207.3970  150.3420 C   0  0  1  0  0  0  0  0  0  0  0  0
  161.5750  210.5360  148.4230 C   0  0  0  0  0  2  0  0  0  0  0  0
  162.0760  210.6530  151.8040 O   0  0  0  0  0  0  0  0  0  0  0  0
  161.1590  210.7470  150.7490 C   0  0  1  0  0  3  0  0  0  0  0  0
  162.4740  209.3950  154.3500 C   0  0  0  0  0  2  0  0  0  0  0  0
  161.7180  209.3000  155.6580 C   0  0  0  0  0  2  0  0  0  0  0  0
  161.5500  207.8450  156.0380 C   0  0  0  0  0  2  0  0  0  0  0  0
  160.0900  207.4580  155.9210 C   0  0  0  0  0  1  0  0  0  0  0  0
  161.6480  204.4260  148.1700 C   0  0  1  0  0  3  0  0  0  0  0  0
  162.6920  205.1050  147.2820 C   0  0  0  0  0  3  0  0  0  0  0  0
  162.0720  206.0140  146.4230 O   0  0  0  0  0  1  0  0  0  0  0  0
  163.3700  204.1500  146.5230 O   0  0  0  0  0  1  0  0  0  0  0  0
  160.9340  202.1720  147.7770 O   0  0  0  0  0  1  0  0  0  0  0  0
  161.9580  202.9400  148.3340 C   0  0  0  0  0  2  0  0  0  0  0  0
  2  9  1  6  0  0  0
  2  1  1  0  0  0  0
  5  8  1  1  0  0  0
  5 21  1  0  0  0  0
  6 17  1  0  0  0  0
  9  5  1  0  0  0  0
 10 18  1  6  0  0  0
 10  6  1  0  0  0  0
 10 20  1  0  0  0  0
 11  4  1  0  0  0  0
 12  1  1  0  0  0  0
 13 25  1  6  0  0  0
 13 14  1  0  0  0  0
 14  3  1  6  0  0  0
 14 12  1  0  0  0  0
 16 13  1  0  0  0  0
 16  7  1  1  0  0  0
 16 17  1  0  0  0  0
 17 15  1  6  0  0  0
 17  2  1  0  0  0  0
 18 11  1  0  0  0  0
 19  5  1  0  0  0  0
 20  4  1  6  0  0  0
 20 19  1  0  0  0  0
 21 22  1  0  0  0  0
 22 23  1  0  0  0  0
 24 23  1  0  0  0  0
 25 30  1  1  0  0  0
 26 25  1  0  0  0  0
 27 26  1  0  0  0  0
 28 26  1  0  0  0  0
 29 30  1  0  0  0  0
M  END
>  <MODEL>
7

>  <REMARK>
 VINA RESULT:      -0.8      3.023      7.470
  Name = 
  6 active torsions:
  status: ('A' for Active; 'I' for Inactive)
    1  A    between atoms: C_2  and  C_28
    2  A    between atoms: C_6  and  P_8
    3  A    between atoms: C_6  and  C_21
    4  A    between atoms: C_9  and  C_21
    5  A    between atoms: C_19  and  C_28
    6  A    between atoms: C_28  and  C_29
                            x       y       z     vdW  Elec       q    Type
                         _______ _______ _______ _____ _____    ______ ____

>  <TORSDO>
F 6

$$$$
=
 OpenBabel11052422043D

 30 32  0  0  1  0  0  0  0  0999 V2000
  160.1900  212.4010  152.5850 C   0  0  0  0  0  2  0  0  0  0  0  0
  160.7480  210.9820  152.7680 C   0  0  2  0  0  3  0  0  0  0  0  0
  156.5360  212.2000  153.7910 C   0  0  0  0  0  1  0  0  0  0  0  0
  161.7010  205.9430  153.0710 C   0  0  0  0  0  2  0  0  0  0  0  0
  161.5330  209.0680  150.9480 P   0  0  1  0  0  4  0  0  0  0  0  0
  161.3920  209.1220  154.4260 C   0  0  0  0  0  2  0  0  0  0  0  0
  158.3750  209.6990  154.0460 O   0  0  0  0  0  1  0  0  0  0  0  0
  160.7620  207.9360  149.3860 Cl  0  0  0  0  0  0  0  0  0  0  0  0
  160.1910  210.0310  151.7090 C   0  0  0  0  0  2  0  0  0  0  0  0
  160.6220  207.8980  153.9200 C   0  0  2  0  0  3  0  0  0  0  0  0
  161.7810  205.9120  154.4710 O   0  0  0  0  0  0  0  0  0  0  0  0
  158.6620  212.4120  152.5460 C   0  0  0  0  0  2  0  0  0  0  0  0
  158.7130  211.8650  155.0790 C   0  0  2  0  0  3  0  0  0  0  0  0
  157.9990  212.5890  153.9130 C   0  0  2  0  0  3  0  0  0  0  0  0
  161.4450  211.3820  155.0010 O   0  0  0  0  0  1  0  0  0  0  0  0
  159.2590  210.4530  154.8230 C   0  0  2  0  0  3  0  0  0  0  0  0
  160.6930  210.4830  154.2390 C   0  0  1  0  0  0  0  0  0  0  0  0
  160.7710  206.7750  154.9200 C   0  0  0  0  0  2  0  0  0  0  0  0
  162.2420  208.0530  152.1090 O   0  0  0  0  0  0  0  0  0  0  0  0
  161.1890  207.2990  152.6440 C   0  0  1  0  0  3  0  0  0  0  0  0
  162.7890  210.2020  150.2910 C   0  0  0  0  0  2  0  0  0  0  0  0
  162.3660  210.7000  148.9260 C   0  0  0  0  0  2  0  0  0  0  0  0
  161.7430  212.0720  149.0600 C   0  0  0  0  0  2  0  0  0  0  0  0
  161.5220  212.6630  147.6830 C   0  0  0  0  0  1  0  0  0  0  0  0
  158.1400  212.0660  156.4940 C   0  0  1  0  0  3  0  0  0  0  0  0
  158.6470  213.3630  157.1280 C   0  0  0  0  0  3  0  0  0  0  0  0
  157.9150  214.4500  156.6450 O   0  0  0  0  0  1  0  0  0  0  0  0
  159.9960  213.5510  156.8230 O   0  0  0  0  0  1  0  0  0  0  0  0
  156.1880  210.6770  156.5310 O   0  0  0  0  0  1  0  0  0  0  0  0
  156.6150  212.0050  156.5280 C   0  0  0  0  0  2  0  0  0  0  0  0
  1  2  1  0  0  0  0
  2  9  1  6  0  0  0
  2 17  1  0  0  0  0
  4 11  1  0  0  0  0
  5  8  1  6  0  0  0
  5  9  1  0  0  0  0
  5 19  1  0  0  0  0
 10  6  1  1  0  0  0
 10 18  1  0  0  0  0
 11 18  1  0  0  0  0
 12  1  1  0  0  0  0
 12 14  1  0  0  0  0
 13 25  1  1  0  0  0
 14  3  1  6  0  0  0
 14 13  1  0  0  0  0
 16  7  1  6  0  0  0
 16 13  1  0  0  0  0
 17  6  1  0  0  0  0
 17 16  1  0  0  0  0
 17 15  1  1  0  0  0
 19 20  1  0  0  0  0
 20  4  1  1  0  0  0
 20 10  1  0  0  0  0
 21  5  1  0  0  0  0
 22 23  1  0  0  0  0
 22 21  1  0  0  0  0
 24 23  1  0  0  0  0
 25 30  1  6  0  0  0
 25 26  1  0  0  0  0
 27 26  1  0  0  0  0
 28 26  1  0  0  0  0
 30 29  1  0  0  0  0
M  END
>  <MODEL>
8

>  <REMARK>
 VINA RESULT:      -0.7      2.313      4.911
  Name = 
  6 active torsions:
  status: ('A' for Active; 'I' for Inactive)
    1  A    between atoms: C_2  and  C_28
    2  A    between atoms: C_6  and  P_8
    3  A    between atoms: C_6  and  C_21
    4  A    between atoms: C_9  and  C_21
    5  A    between atoms: C_19  and  C_28
    6  A    between atoms: C_28  and  C_29
                            x       y       z     vdW  Elec       q    Type
                         _______ _______ _______ _____ _____    ______ ____

>  <TORSDO>
F 6

$$$$
