=
 OpenBabel11062410563D

 32 36  0  0  1  0  0  0  0  0999 V2000
  160.7100  210.1780  155.0570 C   0  0  0  0  0  0  0  0  0  0  0  0
  161.3550  206.5710  151.5880 C   0  0  0  0  0  0  0  0  0  0  0  0
  161.2920  204.0290  151.2860 C   0  0  0  0  0  0  0  0  0  0  0  0
  161.0070  202.9410  150.3370 C   0  0  0  0  0  0  0  0  0  0  0  0
  160.9800  207.7360  153.6890 C   0  0  0  0  0  0  0  0  0  0  0  0
  160.9080  208.9860  151.5410 C   0  0  0  0  0  3  0  0  0  0  0  0
  160.9960  200.8990  148.3660 C   0  0  0  0  0  3  0  0  0  0  0  0
  160.6370  210.1440  153.6540 O   0  0  0  0  0  0  0  0  0  0  0  0
  161.3140  207.8780  150.8950 C   0  0  0  0  0  0  0  0  0  0  0  0
  161.7560  207.9230  149.5190 N   0  0  0  0  0  0  0  0  0  0  0  0
  161.0780  205.6050  149.3400 C   0  0  1  0  0  3  0  0  0  0  0  0
  160.5050  200.5800  149.7560 C   0  0  0  0  0  2  0  0  0  0  0  0
  160.9450  209.0530  155.7360 C   0  0  0  0  0  3  0  0  0  0  0  0
  160.4020  208.9210  152.9540 C   0  0  2  0  0  3  0  0  0  0  0  0
  160.7830  201.6870  150.7400 C   0  0  0  0  0  3  0  0  0  0  0  0
  161.1600  207.7890  155.0090 C   0  0  0  0  0  3  0  0  0  0  0  0
  161.5780  206.8120  148.6510 N   0  0  0  0  0  0  0  0  0  0  0  0
  161.2370  204.4360  148.4670 N   0  0  0  0  0  0  0  0  0  0  0  0
  161.2750  206.5160  152.9280 C   0  0  0  0  0  3  0  0  0  0  0  0
  161.3080  203.7930  152.5250 O   0  0  0  0  0  0  0  0  0  0  0  0
  161.2330  202.1190  147.9850 N   0  0  0  0  0  0  0  0  0  0  0  0
  161.7120  205.3820  150.7330 C   0  0  1  0  0  3  0  0  0  0  0  0
  161.1240  203.2170  148.8970 C   0  0  0  0  0  0  0  0  0  0  0  0
  161.9900  210.1890  148.6320 C   0  0  0  0  0  2  0  0  0  0  0  0
  162.5230  209.0270  148.9950 C   0  0  0  0  0  3  0  0  0  0  0  0
  160.8610  206.5420  146.3430 C   0  0  0  0  0  1  0  0  0  0  0  0
  160.5560  207.1880  147.6790 C   0  0  0  0  0  2  0  0  0  0  0  0
  160.5660  211.3790  155.7470 O   0  0  0  0  0  0  0  0  0  0  0  0
  159.4530  212.2330  155.5200 C   0  0  0  0  0  2  0  0  0  0  0  0
  158.2230  211.4600  155.5730 N   0  0  0  0  0  0  0  0  0  0  0  0
  157.4330  211.8380  154.4150 C   0  0  0  0  0  1  0  0  0  0  0  0
  157.4950  211.9220  156.7400 C   0  0  0  0  0  1  0  0  0  0  0  0
  1 13  2  0  0  0  0
  1 28  1  0  0  0  0
  2 19  2  0  0  0  0
  3 20  2  0  0  0  0
  4 15  2  0  0  0  0
  4  3  1  0  0  0  0
  5 16  2  0  0  0  0
  7 12  1  0  0  0  0
  8  1  1  0  0  0  0
  9  6  2  0  0  0  0
  9  2  1  0  0  0  0
 10  9  1  0  0  0  0
 11 18  1  6  0  0  0
 11 22  1  0  0  0  0
 12 15  1  0  0  0  0
 14  6  1  6  0  0  0
 14  8  1  0  0  0  0
 14  5  1  0  0  0  0
 16 13  1  0  0  0  0
 17 11  1  0  0  0  0
 17 10  1  0  0  0  0
 18 23  2  0  0  0  0
 19  5  1  0  0  0  0
 21  7  2  0  0  0  0
 21 23  1  0  0  0  0
 22  3  1  1  0  0  0
 22  2  1  0  0  0  0
 23  4  1  0  0  0  0
 24 25  2  0  0  0  0
 25 10  1  0  0  0  0
 26 27  1  0  0  0  0
 27 17  1  0  0  0  0
 29 30  1  0  0  0  0
 29 28  1  0  0  0  0
 30 32  1  0  0  0  0
 31 30  1  0  0  0  0
M  END
>  <MODEL>
1

>  <REMARK>
 VINA RESULT:      -8.3      0.000      0.000
  Name = 
  5 active torsions:
  status: ('A' for Active; 'I' for Inactive)
    1  A    between atoms: N_1  and  C_10
    2  A    between atoms: C_2  and  O_24
    3  A    between atoms: C_10  and  O_24
    4  A    between atoms: C_13  and  N_15
    5  A    between atoms: C_25  and  N_26
                            x       y       z     vdW  Elec       q    Type
                         _______ _______ _______ _____ _____    ______ ____

>  <TORSDO>
F 5

$$$$
=
 OpenBabel11062410563D

 32 36  0  0  1  0  0  0  0  0999 V2000
  160.6420  209.4290  155.2080 C   0  0  0  0  0  0  0  0  0  0  0  0
  161.3550  206.1700  151.4220 C   0  0  0  0  0  0  0  0  0  0  0  0
  161.3680  203.6650  150.8930 C   0  0  0  0  0  0  0  0  0  0  0  0
  161.1050  202.6580  149.8520 C   0  0  0  0  0  0  0  0  0  0  0  0
  160.9720  207.1290  153.6230 C   0  0  0  0  0  0  0  0  0  0  0  0
  160.8310  208.5650  151.5980 C   0  0  0  0  0  3  0  0  0  0  0  0
  161.1320  200.8020  147.7050 C   0  0  0  0  0  3  0  0  0  0  0  0
  160.5520  209.5190  153.8090 O   0  0  0  0  0  0  0  0  0  0  0  0
  161.2630  207.5330  150.8500 C   0  0  0  0  0  0  0  0  0  0  0  0
  161.6860  207.7150  149.4790 N   0  0  0  0  0  0  0  0  0  0  0  0
  161.0790  205.4020  149.0980 C   0  0  1  0  0  3  0  0  0  0  0  0
  160.6700  200.3440  149.0660 C   0  0  0  0  0  2  0  0  0  0  0  0
  160.9220  208.2550  155.7810 C   0  0  0  0  0  3  0  0  0  0  0  0
  160.3460  208.3560  153.0040 C   0  0  2  0  0  3  0  0  0  0  0  0
  160.9260  201.3660  150.1430 C   0  0  0  0  0  3  0  0  0  0  0  0
  161.1670  207.0690  154.9400 C   0  0  0  0  0  3  0  0  0  0  0  0
  161.5310  206.6820  148.5160 N   0  0  0  0  0  0  0  0  0  0  0  0
  161.2630  204.3210  148.1220 N   0  0  0  0  0  0  0  0  0  0  0  0
  161.2940  205.9930  152.7520 C   0  0  0  0  0  3  0  0  0  0  0  0
  161.4080  203.3190  152.1050 O   0  0  0  0  0  0  0  0  0  0  0  0
  161.3260  202.0590  147.4340 N   0  0  0  0  0  0  0  0  0  0  0  0
  161.7380  205.0750  150.4600 C   0  0  1  0  0  3  0  0  0  0  0  0
  161.1940  203.0660  148.4420 C   0  0  0  0  0  0  0  0  0  0  0  0
  161.8370  210.0610  148.8080 C   0  0  0  0  0  2  0  0  0  0  0  0
  162.4110  208.8860  149.0490 C   0  0  0  0  0  3  0  0  0  0  0  0
  160.6980  206.4560  146.2430 C   0  0  0  0  0  1  0  0  0  0  0  0
  160.4850  207.1100  147.5930 C   0  0  0  0  0  2  0  0  0  0  0  0
  160.4690  210.5570  156.0060 O   0  0  0  0  0  0  0  0  0  0  0  0
  159.5100  211.5530  155.6790 C   0  0  0  0  0  2  0  0  0  0  0  0
  160.0730  212.8720  155.9110 N   0  0  0  0  0  0  0  0  0  0  0  0
  160.6170  212.8720  157.2580 C   0  0  0  0  0  1  0  0  0  0  0  0
  158.9600  213.8030  155.9130 C   0  0  0  0  0  1  0  0  0  0  0  0
  1 13  2  0  0  0  0
  1 28  1  0  0  0  0
  2 19  2  0  0  0  0
  3 20  2  0  0  0  0
  4 15  2  0  0  0  0
  4  3  1  0  0  0  0
  5 16  2  0  0  0  0
  7 12  1  0  0  0  0
  8  1  1  0  0  0  0
  9  2  1  0  0  0  0
  9  6  2  0  0  0  0
 10  9  1  0  0  0  0
 11 18  1  6  0  0  0
 11 22  1  0  0  0  0
 12 15  1  0  0  0  0
 14  6  1  6  0  0  0
 14  5  1  0  0  0  0
 14  8  1  0  0  0  0
 16 13  1  0  0  0  0
 17 11  1  0  0  0  0
 17 10  1  0  0  0  0
 18 23  2  0  0  0  0
 19  5  1  0  0  0  0
 21  7  2  0  0  0  0
 21 23  1  0  0  0  0
 22  3  1  1  0  0  0
 22  2  1  0  0  0  0
 23  4  1  0  0  0  0
 24 25  2  0  0  0  0
 25 10  1  0  0  0  0
 26 27  1  0  0  0  0
 27 17  1  0  0  0  0
 29 30  1  0  0  0  0
 29 28  1  0  0  0  0
 30 32  1  0  0  0  0
 30 31  1  0  0  0  0
M  END
>  <MODEL>
2

>  <REMARK>
 VINA RESULT:      -7.7      0.890      1.116
  Name = 
  5 active torsions:
  status: ('A' for Active; 'I' for Inactive)
    1  A    between atoms: N_1  and  C_10
    2  A    between atoms: C_2  and  O_24
    3  A    between atoms: C_10  and  O_24
    4  A    between atoms: C_13  and  N_15
    5  A    between atoms: C_25  and  N_26
                            x       y       z     vdW  Elec       q    Type
                         _______ _______ _______ _____ _____    ______ ____

>  <TORSDO>
F 5

$$$$
=
 OpenBabel11062410563D

 32 36  0  0  1  0  0  0  0  0999 V2000
  161.2310  200.9460  148.7390 C   0  0  0  0  0  0  0  0  0  0  0  0
  160.9450  205.6170  150.6250 C   0  0  0  0  0  0  0  0  0  0  0  0
  160.9080  206.8980  152.8420 C   0  0  0  0  0  0  0  0  0  0  0  0
  161.2790  208.1600  153.5040 C   0  0  0  0  0  0  0  0  0  0  0  0
  161.0430  203.1970  150.4140 C   0  0  0  0  0  0  0  0  0  0  0  0
  161.5340  204.6390  148.4490 C   0  0  0  0  0  3  0  0  0  0  0  0
  161.4900  210.7640  154.6130 C   0  0  0  0  0  3  0  0  0  0  0  0
  161.5270  202.2240  148.2380 O   0  0  0  0  0  0  0  0  0  0  0  0
  161.1740  205.7190  149.1660 C   0  0  0  0  0  0  0  0  0  0  0  0
  160.9630  207.0060  148.5420 N   0  0  0  0  0  0  0  0  0  0  0  0
  161.5250  208.0100  150.6730 C   0  0  1  0  0  3  0  0  0  0  0  0
  161.7300  209.5670  155.4990 C   0  0  0  0  0  2  0  0  0  0  0  0
  160.8240  200.8070  150.0040 C   0  0  0  0  0  3  0  0  0  0  0  0
  161.8000  203.3190  149.1140 C   0  0  2  0  0  3  0  0  0  0  0  0
  161.3620  208.2660  154.8330 C   0  0  0  0  0  3  0  0  0  0  0  0
  160.6560  202.0000  150.8550 C   0  0  0  0  0  3  0  0  0  0  0  0
  161.2140  208.2160  149.2440 N   0  0  0  0  0  0  0  0  0  0  0  0
  161.4420  209.2900  151.3870 N   0  0  0  0  0  0  0  0  0  0  0  0
  160.8050  204.4120  151.2010 C   0  0  0  0  0  3  0  0  0  0  0  0
  160.6790  205.8700  153.5340 O   0  0  0  0  0  0  0  0  0  0  0  0
  161.3880  210.6520  153.3210 N   0  0  0  0  0  0  0  0  0  0  0  0
  160.6620  206.9130  151.3410 C   0  0  1  0  0  3  0  0  0  0  0  0
  161.4120  209.3720  152.6810 C   0  0  0  0  0  0  0  0  0  0  0  0
  160.7020  206.4030  146.1880 C   0  0  0  0  0  2  0  0  0  0  0  0
  160.3560  207.1370  147.2400 C   0  0  0  0  0  3  0  0  0  0  0  0
  162.1950  210.3150  148.5070 C   0  0  0  0  0  1  0  0  0  0  0  0
  162.3990  208.8200  148.6450 C   0  0  0  0  0  2  0  0  0  0  0  0
  161.3310  199.8210  147.9250 O   0  0  0  0  0  0  0  0  0  0  0  0
  161.6700  199.9330  146.5500 C   0  0  0  0  0  2  0  0  0  0  0  0
  160.6180  199.3460  145.7360 N   0  0  0  0  0  0  0  0  0  0  0  0
  161.2330  198.3060  144.9310 C   0  0  0  0  0  1  0  0  0  0  0  0
  160.1810  200.3800  144.8160 C   0  0  0  0  0  1  0  0  0  0  0  0
  1 13  2  0  0  0  0
  2 19  2  0  0  0  0
  3  4  1  0  0  0  0
  3 20  2  0  0  0  0
  4 15  2  0  0  0  0
  5 16  2  0  0  0  0
  5 19  1  0  0  0  0
  6  9  2  0  0  0  0
  7 12  1  0  0  0  0
  8  1  1  0  0  0  0
  8 14  1  0  0  0  0
  9  2  1  0  0  0  0
 10  9  1  0  0  0  0
 10 17  1  0  0  0  0
 11 22  1  0  0  0  0
 11 18  1  1  0  0  0
 13 16  1  0  0  0  0
 14  6  1  6  0  0  0
 14  5  1  0  0  0  0
 15 12  1  0  0  0  0
 17 11  1  0  0  0  0
 18 23  2  0  0  0  0
 21  7  2  0  0  0  0
 22  2  1  6  0  0  0
 22  3  1  0  0  0  0
 23 21  1  0  0  0  0
 23  4  1  0  0  0  0
 24 25  2  0  0  0  0
 25 10  1  0  0  0  0
 26 27  1  0  0  0  0
 27 17  1  0  0  0  0
 28  1  1  0  0  0  0
 29 28  1  0  0  0  0
 30 29  1  0  0  0  0
 31 30  1  0  0  0  0
 32 30  1  0  0  0  0
M  END
>  <MODEL>
3

>  <REMARK>
 VINA RESULT:      -6.5      2.178      8.618
  Name = 
  5 active torsions:
  status: ('A' for Active; 'I' for Inactive)
    1  A    between atoms: N_1  and  C_10
    2  A    between atoms: C_2  and  O_24
    3  A    between atoms: C_10  and  O_24
    4  A    between atoms: C_13  and  N_15
    5  A    between atoms: C_25  and  N_26
                            x       y       z     vdW  Elec       q    Type
                         _______ _______ _______ _____ _____    ______ ____

>  <TORSDO>
F 5

$$$$
=
 OpenBabel11062410563D

 32 36  0  0  1  0  0  0  0  0999 V2000
  162.2540  212.1110  148.7110 C   0  0  0  0  0  0  0  0  0  0  0  0
  161.1530  207.3210  149.8530 C   0  0  0  0  0  0  0  0  0  0  0  0
  160.8890  205.0050  148.7940 C   0  0  0  0  0  0  0  0  0  0  0  0
  161.0320  203.5580  149.0230 C   0  0  0  0  0  0  0  0  0  0  0  0
  161.6730  209.3610  148.6350 C   0  0  0  0  0  0  0  0  0  0  0  0
  161.9070  209.2930  151.1090 C   0  0  0  0  0  3  0  0  0  0  0  0
  160.7820  200.8010  149.6510 C   0  0  0  0  0  3  0  0  0  0  0  0
  162.3230  211.3440  149.8850 O   0  0  0  0  0  0  0  0  0  0  0  0
  161.3630  208.0630  151.1160 C   0  0  0  0  0  0  0  0  0  0  0  0
  160.9310  207.4320  152.3440 N   0  0  0  0  0  0  0  0  0  0  0  0
  161.3050  205.3020  151.2550 C   0  0  1  0  0  3  0  0  0  0  0  0
  161.2270  201.2020  148.2660 C   0  0  0  0  0  2  0  0  0  0  0  0
  161.8760  211.5380  147.5650 C   0  0  0  0  0  3  0  0  0  0  0  0
  162.3990  209.9180  149.8350 C   0  0  2  0  0  3  0  0  0  0  0  0
  161.0920  202.6820  148.0160 C   0  0  0  0  0  3  0  0  0  0  0  0
  161.5010  210.1120  147.5480 C   0  0  0  0  0  3  0  0  0  0  0  0
  160.9650  206.0210  152.5000 N   0  0  0  0  0  0  0  0  0  0  0  0
  160.9980  203.8750  151.4070 N   0  0  0  0  0  0  0  0  0  0  0  0
  161.2240  207.9640  148.6750 C   0  0  0  0  0  3  0  0  0  0  0  0
  160.8420  205.4520  147.6150 O   0  0  0  0  0  0  0  0  0  0  0  0
  160.7040  201.6630  150.6220 N   0  0  0  0  0  0  0  0  0  0  0  0
  160.6470  205.9090  149.9930 C   0  0  1  0  0  3  0  0  0  0  0  0
  160.9530  203.0550  150.4030 C   0  0  0  0  0  0  0  0  0  0  0  0
  160.9950  208.8470  154.3360 C   0  0  0  0  0  2  0  0  0  0  0  0
  160.3120  208.1780  153.4130 C   0  0  0  0  0  3  0  0  0  0  0  0
  163.3720  205.7930  152.7600 C   0  0  0  0  0  1  0  0  0  0  0  0
  162.0280  205.7210  153.4540 C   0  0  0  0  0  2  0  0  0  0  0  0
  162.5510  213.4710  148.7310 O   0  0  0  0  0  0  0  0  0  0  0  0
  161.5260  214.4480  148.8470 C   0  0  0  0  0  2  0  0  0  0  0  0
  160.2990  213.8200  149.3070 N   0  0  0  0  0  0  0  0  0  0  0  0
  159.2390  214.2530  148.4150 C   0  0  0  0  0  1  0  0  0  0  0  0
  160.0050  214.3900  150.6090 C   0  0  0  0  0  1  0  0  0  0  0  0
  1 28  1  0  0  0  0
  1  8  1  0  0  0  0
  2 22  1  0  0  0  0
  2  9  1  0  0  0  0
  3  4  1  0  0  0  0
  4 23  1  0  0  0  0
  5 19  1  0  0  0  0
  5 14  1  0  0  0  0
  6  9  2  0  0  0  0
  7 21  2  0  0  0  0
  9 10  1  0  0  0  0
 10 17  1  0  0  0  0
 10 25  1  0  0  0  0
 11 18  1  1  0  0  0
 11 17  1  0  0  0  0
 12  7  1  0  0  0  0
 13  1  2  0  0  0  0
 14  8  1  0  0  0  0
 14  6  1  1  0  0  0
 15 12  1  0  0  0  0
 15  4  2  0  0  0  0
 16 13  1  0  0  0  0
 16  5  2  0  0  0  0
 17 27  1  0  0  0  0
 19  2  2  0  0  0  0
 20  3  2  0  0  0  0
 22  3  1  6  0  0  0
 22 11  1  0  0  0  0
 23 21  1  0  0  0  0
 23 18  2  0  0  0  0
 25 24  2  0  0  0  0
 26 27  1  0  0  0  0
 28 29  1  0  0  0  0
 29 30  1  0  0  0  0
 30 32  1  0  0  0  0
 31 30  1  0  0  0  0
M  END
>  <MODEL>
4

>  <REMARK>
 VINA RESULT:      -5.5      2.825      4.903
  Name = 
  5 active torsions:
  status: ('A' for Active; 'I' for Inactive)
    1  A    between atoms: N_1  and  C_10
    2  A    between atoms: C_2  and  O_24
    3  A    between atoms: C_10  and  O_24
    4  A    between atoms: C_13  and  N_15
    5  A    between atoms: C_25  and  N_26
                            x       y       z     vdW  Elec       q    Type
                         _______ _______ _______ _____ _____    ______ ____

>  <TORSDO>
F 5

$$$$
