=
 OpenBabel11062408123D

 34 38  0  0  1  0  0  0  0  0999 V2000
  161.1540  204.1690  151.0400 C   0  0  0  0  0  0  0  0  0  0  0  0
  160.8850  205.2560  148.8810 C   0  0  0  0  0  0  0  0  0  0  0  0
  161.2320  206.6140  150.9530 C   0  0  0  0  0  0  0  0  0  0  0  0
  161.2900  209.1030  150.9470 C   0  0  0  0  0  0  0  0  0  0  0  0
  161.1130  202.9230  150.4120 C   0  0  0  0  0  3  0  0  0  0  0  0
  160.8360  203.9990  148.2720 C   0  0  0  0  0  3  0  0  0  0  0  0
  162.5150  207.8670  149.1900 C   0  0  0  0  0  2  0  0  0  0  0  0
  161.1070  205.3660  150.2760 C   0  0  0  0  0  0  0  0  0  0  0  0
  162.3180  209.0740  148.2780 C   0  0  0  0  0  2  0  0  0  0  0  0
  161.2940  210.3840  150.1750 C   0  0  0  0  0  2  0  0  0  0  0  0
  160.9710  202.8380  149.0290 C   0  0  0  0  0  3  0  0  0  0  0  0
  161.1590  206.6470  152.3640 C   0  0  0  0  0  0  0  0  0  0  0  0
  161.2080  204.2200  152.4290 C   0  0  0  0  0  3  0  0  0  0  0  0
  160.5990  206.3350  148.1120 F   0  0  0  0  0  0  0  0  0  0  0  0
  161.0970  209.1320  152.2630 C   0  0  0  0  0  3  0  0  0  0  0  0
  161.0920  207.9260  153.0420 N   0  0  0  0  0  0  0  0  0  0  0  0
  162.3830  210.3570  149.1030 C   0  0  2  0  0  3  0  0  0  0  0  0
  161.5170  207.8540  150.2650 N   0  0  0  0  0  0  0  0  0  0  0  0
  161.1870  205.4460  153.0850 C   0  0  0  0  0  3  0  0  0  0  0  0
  161.0730  209.4150  156.4830 C   0  0  0  0  0  0  0  0  0  0  0  0
  160.5890  208.3480  157.2440 C   0  0  0  0  0  3  0  0  0  0  0  0
  160.9410  208.0540  154.4710 C   0  0  0  0  0  0  0  0  0  0  0  0
  160.2740  207.1360  156.6240 C   0  0  0  0  0  3  0  0  0  0  0  0
  161.2440  209.2700  155.1040 C   0  0  0  0  0  3  0  0  0  0  0  0
  160.4440  206.9920  155.2440 C   0  0  0  0  0  3  0  0  0  0  0  0
  161.4620  210.9350  157.2570 Cl  0  0  0  0  0  0  0  0  0  0  0  0
  162.3190  211.5960  148.2140 C   0  0  0  0  0  2  0  0  0  0  0  0
  161.4200  212.6800  148.7960 C   0  0  0  0  0  2  0  0  0  0  0  0
  159.1650  213.4090  148.4150 O   0  0  0  0  0  1  0  0  0  0  0  0
  160.3690  213.0980  147.7800 C   0  0  2  0  0  3  0  0  0  0  0  0
  160.1940  212.0890  146.7200 N   0  0  0  0  0  2  0  0  0  0  0  0
  158.9520  213.3590  144.9470 C   0  0  0  0  0  1  0  0  0  0  0  0
  160.2090  212.5950  145.3370 C   0  0  0  0  0  3  0  0  0  0  0  0
  161.4700  213.3830  145.0270 C   0  0  0  0  0  1  0  0  0  0  0  0
  1 13  1  0  0  0  0
  2  8  1  0  0  0  0
  3 12  2  0  0  0  0
  4 15  2  0  0  0  0
  5  1  1  0  0  0  0
  6  2  2  0  0  0  0
  6 11  1  0  0  0  0
  7 18  1  0  0  0  0
  8  3  1  0  0  0  0
  8  1  2  0  0  0  0
  9 17  1  0  0  0  0
  9  7  1  0  0  0  0
 10  4  1  0  0  0  0
 11  5  2  0  0  0  0
 12 16  1  0  0  0  0
 12 19  1  0  0  0  0
 13 19  2  0  0  0  0
 14  2  1  0  0  0  0
 15 16  1  0  0  0  0
 16 22  1  0  0  0  0
 17 27  1  6  0  0  0
 17 10  1  0  0  0  0
 18  4  1  0  0  0  0
 18  3  1  0  0  0  0
 20 21  1  0  0  0  0
 20 26  1  0  0  0  0
 22 24  1  0  0  0  0
 22 25  2  0  0  0  0
 23 21  2  0  0  0  0
 24 20  2  0  0  0  0
 25 23  1  0  0  0  0
 27 28  1  0  0  0  0
 30 29  1  1  0  0  0
 30 28  1  0  0  0  0
 31 30  1  0  0  0  0
 32 33  1  0  0  0  0
 33 31  1  0  0  0  0
 34 33  1  0  0  0  0
M  END
>  <MODEL>
1

>  <REMARK>
 VINA RESULT:      -8.9      0.000      0.000
  Name = 
  6 active torsions:
  status: ('A' for Active; 'I' for Inactive)
    1  A    between atoms: C_3  and  C_13
    2  A    between atoms: C_3  and  C_29
    3  A    between atoms: C_12  and  N_28
    4  A    between atoms: C_13  and  C_33
    5  A    between atoms: C_20  and  N_22
    6  A    between atoms: N_22  and  C_33
                            x       y       z     vdW  Elec       q    Type
                         _______ _______ _______ _____ _____    ______ ____

>  <TORSDO>
F 6

$$$$
=
 OpenBabel11062408123D

 34 38  0  0  1  0  0  0  0  0999 V2000
  160.9840  207.2870  153.8090 C   0  0  0  0  0  0  0  0  0  0  0  0
  161.6160  209.6210  154.0640 C   0  0  0  0  0  0  0  0  0  0  0  0
  161.3990  208.6050  151.7890 C   0  0  0  0  0  0  0  0  0  0  0  0
  161.8360  209.8730  149.6920 C   0  0  0  0  0  0  0  0  0  0  0  0
  160.8220  207.1840  155.1920 C   0  0  0  0  0  3  0  0  0  0  0  0
  161.4580  209.4970  155.4470 C   0  0  0  0  0  3  0  0  0  0  0  0
  160.5180  210.9410  151.4910 C   0  0  0  0  0  2  0  0  0  0  0  0
  161.3220  208.5300  153.2100 C   0  0  0  0  0  0  0  0  0  0  0  0
  161.0140  212.2910  150.9810 C   0  0  0  0  0  2  0  0  0  0  0  0
  162.1400  211.1740  149.0200 C   0  0  0  0  0  2  0  0  0  0  0  0
  161.0420  208.2910  156.0090 C   0  0  0  0  0  3  0  0  0  0  0  0
  161.3770  207.4130  151.0300 C   0  0  0  0  0  0  0  0  0  0  0  0
  160.8430  206.1430  153.0300 C   0  0  0  0  0  3  0  0  0  0  0  0
  162.1630  210.7710  153.5980 F   0  0  0  0  0  0  0  0  0  0  0  0
  161.9370  208.7410  149.0020 C   0  0  0  0  0  3  0  0  0  0  0  0
  161.6480  207.4710  149.6070 N   0  0  0  0  0  0  0  0  0  0  0  0
  161.1460  212.2480  149.4610 C   0  0  2  0  0  3  0  0  0  0  0  0
  161.4140  209.8590  151.0700 N   0  0  0  0  0  0  0  0  0  0  0  0
  161.0600  206.2000  151.6580 C   0  0  0  0  0  3  0  0  0  0  0  0
  161.2990  203.9260  148.4370 C   0  0  0  0  0  0  0  0  0  0  0  0
  161.7840  204.0170  147.1300 C   0  0  0  0  0  3  0  0  0  0  0  0
  161.7190  206.2990  148.7690 C   0  0  0  0  0  0  0  0  0  0  0  0
  162.2300  205.2450  146.6360 C   0  0  0  0  0  3  0  0  0  0  0  0
  161.2620  205.0620  149.2510 C   0  0  0  0  0  3  0  0  0  0  0  0
  162.1940  206.3810  147.4500 C   0  0  0  0  0  3  0  0  0  0  0  0
  160.7330  202.3900  149.0550 Cl  0  0  0  0  0  0  0  0  0  0  0  0
  161.5170  213.6160  148.8940 C   0  0  0  0  0  2  0  0  0  0  0  0
  162.4470  213.5110  147.6910 C   0  0  0  0  0  2  0  0  0  0  0  0
  162.4070  214.4440  145.4800 O   0  0  0  0  0  1  0  0  0  0  0  0
  161.6660  213.7000  146.4000 C   0  0  2  0  0  3  0  0  0  0  0  0
  160.3330  214.2830  146.6410 N   0  0  0  0  0  2  0  0  0  0  0  0
  159.5900  212.4060  145.1490 C   0  0  0  0  0  1  0  0  0  0  0  0
  159.1910  213.5310  146.0930 C   0  0  0  0  0  3  0  0  0  0  0  0
  158.2450  213.0510  147.1790 C   0  0  0  0  0  1  0  0  0  0  0  0
  1  5  2  0  0  0  0
  2  6  1  0  0  0  0
  3  8  1  0  0  0  0
  4 18  1  0  0  0  0
  5 11  1  0  0  0  0
  6 11  2  0  0  0  0
  8  1  1  0  0  0  0
  8  2  2  0  0  0  0
  9  7  1  0  0  0  0
 10 17  1  0  0  0  0
 10  4  1  0  0  0  0
 12 19  1  0  0  0  0
 12  3  2  0  0  0  0
 13  1  1  0  0  0  0
 14  2  1  0  0  0  0
 15 16  1  0  0  0  0
 15  4  2  0  0  0  0
 16 12  1  0  0  0  0
 17 27  1  1  0  0  0
 17  9  1  0  0  0  0
 18  7  1  0  0  0  0
 18  3  1  0  0  0  0
 19 13  2  0  0  0  0
 20 26  1  0  0  0  0
 20 24  1  0  0  0  0
 21 20  2  0  0  0  0
 22 24  2  0  0  0  0
 22 16  1  0  0  0  0
 23 21  1  0  0  0  0
 23 25  2  0  0  0  0
 25 22  1  0  0  0  0
 28 27  1  0  0  0  0
 30 29  1  6  0  0  0
 30 31  1  0  0  0  0
 30 28  1  0  0  0  0
 32 33  1  0  0  0  0
 33 31  1  0  0  0  0
 33 34  1  0  0  0  0
M  END
>  <MODEL>
2

>  <REMARK>
 VINA RESULT:      -8.2      2.817      5.691
  Name = 
  6 active torsions:
  status: ('A' for Active; 'I' for Inactive)
    1  A    between atoms: C_3  and  C_13
    2  A    between atoms: C_3  and  C_29
    3  A    between atoms: C_12  and  N_28
    4  A    between atoms: C_13  and  C_33
    5  A    between atoms: C_20  and  N_22
    6  A    between atoms: N_22  and  C_33
                            x       y       z     vdW  Elec       q    Type
                         _______ _______ _______ _____ _____    ______ ____

>  <TORSDO>
F 6

$$$$
=
 OpenBabel11062408123D

 34 38  0  0  1  0  0  0  0  0999 V2000
  160.9640  207.3570  153.8030 C   0  0  0  0  0  0  0  0  0  0  0  0
  161.7270  209.6650  153.8770 C   0  0  0  0  0  0  0  0  0  0  0  0
  161.4440  208.4890  151.6870 C   0  0  0  0  0  0  0  0  0  0  0  0
  161.9430  209.5650  149.4980 C   0  0  0  0  0  0  0  0  0  0  0  0
  160.8020  207.3710  155.1890 C   0  0  0  0  0  3  0  0  0  0  0  0
  161.5680  209.6570  155.2660 C   0  0  0  0  0  3  0  0  0  0  0  0
  160.6950  210.8420  151.2090 C   0  0  0  0  0  2  0  0  0  0  0  0
  161.3690  208.5290  153.1100 C   0  0  0  0  0  0  0  0  0  0  0  0
  161.2640  212.1180  150.5960 C   0  0  0  0  0  2  0  0  0  0  0  0
  162.3180  210.7910  148.7280 C   0  0  0  0  0  2  0  0  0  0  0  0
  161.0880  208.5240  155.9180 C   0  0  0  0  0  3  0  0  0  0  0  0
  161.3520  207.2450  151.0230 C   0  0  0  0  0  0  0  0  0  0  0  0
  160.7560  206.1660  153.1150 C   0  0  0  0  0  3  0  0  0  0  0  0
  162.3370  210.7420  153.3240 F   0  0  0  0  0  0  0  0  0  0  0  0
  161.9770  208.3790  148.8980 C   0  0  0  0  0  3  0  0  0  0  0  0
  161.6200  207.1780  149.6000 N   0  0  0  0  0  0  0  0  0  0  0  0
  161.3880  211.9510  149.0840 C   0  0  2  0  0  3  0  0  0  0  0  0
  161.5280  209.6820  150.8730 N   0  0  0  0  0  0  0  0  0  0  0  0
  160.9700  206.1050  151.7420 C   0  0  0  0  0  3  0  0  0  0  0  0
  161.0510  203.5830  148.7000 C   0  0  0  0  0  0  0  0  0  0  0  0
  161.5510  203.5420  147.3960 C   0  0  0  0  0  3  0  0  0  0  0  0
  161.6210  205.9430  148.8550 C   0  0  0  0  0  0  0  0  0  0  0  0
  162.0800  204.6970  146.8160 C   0  0  0  0  0  3  0  0  0  0  0  0
  161.0820  204.7780  149.4240 C   0  0  0  0  0  3  0  0  0  0  0  0
  162.1100  205.8920  147.5390 C   0  0  0  0  0  3  0  0  0  0  0  0
  160.3830  202.1390  149.4270 Cl  0  0  0  0  0  0  0  0  0  0  0  0
  161.8330  213.2470  148.4130 C   0  0  0  0  0  2  0  0  0  0  0  0
  162.2220  213.0400  146.9540 C   0  0  0  0  0  2  0  0  0  0  0  0
  160.2340  212.3330  145.8100 O   0  0  0  0  0  1  0  0  0  0  0  0
  161.0710  213.4270  146.0390 C   0  0  2  0  0  3  0  0  0  0  0  0
  161.5460  214.0370  144.7830 N   0  0  0  0  0  2  0  0  0  0  0  0
  162.2820  212.5070  142.9350 C   0  0  0  0  0  1  0  0  0  0  0  0
  162.6800  213.3640  144.1270 C   0  0  0  0  0  3  0  0  0  0  0  0
  163.7990  214.3300  143.7820 C   0  0  0  0  0  1  0  0  0  0  0  0
  1  5  2  0  0  0  0
  2  6  1  0  0  0  0
  3  8  1  0  0  0  0
  4 18  1  0  0  0  0
  5 11  1  0  0  0  0
  6 11  2  0  0  0  0
  8  1  1  0  0  0  0
  8  2  2  0  0  0  0
  9  7  1  0  0  0  0
 10 17  1  0  0  0  0
 10  4  1  0  0  0  0
 12  3  2  0  0  0  0
 12 19  1  0  0  0  0
 13  1  1  0  0  0  0
 14  2  1  0  0  0  0
 15  4  2  0  0  0  0
 15 16  1  0  0  0  0
 16 12  1  0  0  0  0
 17 27  1  6  0  0  0
 17  9  1  0  0  0  0
 18  7  1  0  0  0  0
 18  3  1  0  0  0  0
 19 13  2  0  0  0  0
 20 24  1  0  0  0  0
 20 26  1  0  0  0  0
 21 20  2  0  0  0  0
 22 24  2  0  0  0  0
 22 16  1  0  0  0  0
 23 21  1  0  0  0  0
 23 25  2  0  0  0  0
 25 22  1  0  0  0  0
 28 27  1  0  0  0  0
 30 29  1  6  0  0  0
 30 28  1  0  0  0  0
 31 30  1  0  0  0  0
 32 33  1  0  0  0  0
 33 31  1  0  0  0  0
 34 33  1  0  0  0  0
M  END
>  <MODEL>
3

>  <REMARK>
 VINA RESULT:      -8.2      2.771      5.669
  Name = 
  6 active torsions:
  status: ('A' for Active; 'I' for Inactive)
    1  A    between atoms: C_3  and  C_13
    2  A    between atoms: C_3  and  C_29
    3  A    between atoms: C_12  and  N_28
    4  A    between atoms: C_13  and  C_33
    5  A    between atoms: C_20  and  N_22
    6  A    between atoms: N_22  and  C_33
                            x       y       z     vdW  Elec       q    Type
                         _______ _______ _______ _____ _____    ______ ____

>  <TORSDO>
F 6

$$$$
=
 OpenBabel11062408123D

 34 38  0  0  1  0  0  0  0  0999 V2000
  161.5750  209.1930  154.6220 C   0  0  0  0  0  0  0  0  0  0  0  0
  160.5830  206.9720  154.5860 C   0  0  0  0  0  0  0  0  0  0  0  0
  161.2880  208.0830  152.4590 C   0  0  0  0  0  0  0  0  0  0  0  0
  160.9980  207.0310  150.2220 C   0  0  0  0  0  0  0  0  0  0  0  0
  161.5380  209.1820  156.0170 C   0  0  0  0  0  3  0  0  0  0  0  0
  160.5440  206.9840  155.9840 C   0  0  0  0  0  3  0  0  0  0  0  0
  161.8590  205.6620  152.0920 C   0  0  0  0  0  2  0  0  0  0  0  0
  161.1570  208.0560  153.8780 C   0  0  0  0  0  0  0  0  0  0  0  0
  161.2570  204.4400  151.4050 C   0  0  0  0  0  2  0  0  0  0  0  0
  160.6150  205.8380  149.4060 C   0  0  0  0  0  2  0  0  0  0  0  0
  161.0380  208.0730  156.6980 C   0  0  0  0  0  3  0  0  0  0  0  0
  161.5970  209.3030  151.8150 C   0  0  0  0  0  0  0  0  0  0  0  0
  161.9960  210.3470  153.9700 C   0  0  0  0  0  3  0  0  0  0  0  0
  159.9530  205.9530  153.9520 F   0  0  0  0  0  0  0  0  0  0  0  0
  161.1670  208.2070  149.6230 C   0  0  0  0  0  3  0  0  0  0  0  0
  161.5400  209.3760  150.3680 N   0  0  0  0  0  0  0  0  0  0  0  0
  161.3660  204.5970  149.8900 C   0  0  2  0  0  3  0  0  0  0  0  0
  161.2020  206.8940  151.6410 N   0  0  0  0  0  0  0  0  0  0  0  0
  161.9850  210.4100  152.5810 C   0  0  0  0  0  3  0  0  0  0  0  0
  161.2670  212.9450  149.2540 C   0  0  0  0  0  0  0  0  0  0  0  0
  162.2410  212.9990  148.2550 C   0  0  0  0  0  3  0  0  0  0  0  0
  161.7670  210.5950  149.6310 C   0  0  0  0  0  0  0  0  0  0  0  0
  162.9840  211.8580  147.9440 C   0  0  0  0  0  3  0  0  0  0  0  0
  161.0340  211.7510  149.9420 C   0  0  0  0  0  3  0  0  0  0  0  0
  162.7520  210.6630  148.6320 C   0  0  0  0  0  3  0  0  0  0  0  0
  160.3390  214.3760  149.6490 Cl  0  0  0  0  0  0  0  0  0  0  0  0
  160.8930  203.3420  149.1630 C   0  0  0  0  0  2  0  0  0  0  0  0
  161.7500  203.0220  147.9430 C   0  0  0  0  0  2  0  0  0  0  0  0
  160.8960  201.3570  146.4390 O   0  0  0  0  0  1  0  0  0  0  0  0
  160.8670  202.7210  146.7410 C   0  0  2  0  0  3  0  0  0  0  0  0
  161.2160  203.5560  145.5780 N   0  0  0  0  0  2  0  0  0  0  0  0
  162.7840  205.5080  145.7510 C   0  0  0  0  0  1  0  0  0  0  0  0
  161.3520  205.0000  145.8370 C   0  0  0  0  0  3  0  0  0  0  0  0
  160.4050  205.8280  144.9870 C   0  0  0  0  0  1  0  0  0  0  0  0
  1  5  2  0  0  0  0
  2  6  1  0  0  0  0
  3  8  1  0  0  0  0
  4 18  1  0  0  0  0
  5 11  1  0  0  0  0
  6 11  2  0  0  0  0
  8  2  2  0  0  0  0
  8  1  1  0  0  0  0
  9  7  1  0  0  0  0
 10 17  1  0  0  0  0
 10  4  1  0  0  0  0
 12  3  2  0  0  0  0
 12 19  1  0  0  0  0
 13  1  1  0  0  0  0
 14  2  1  0  0  0  0
 15  4  2  0  0  0  0
 15 16  1  0  0  0  0
 16 12  1  0  0  0  0
 17 27  1  6  0  0  0
 17  9  1  0  0  0  0
 18  7  1  0  0  0  0
 18  3  1  0  0  0  0
 19 13  2  0  0  0  0
 20 26  1  0  0  0  0
 20 24  1  0  0  0  0
 21 20  2  0  0  0  0
 22 24  2  0  0  0  0
 22 16  1  0  0  0  0
 23 21  1  0  0  0  0
 23 25  2  0  0  0  0
 25 22  1  0  0  0  0
 28 27  1  0  0  0  0
 30 29  1  6  0  0  0
 30 28  1  0  0  0  0
 31 33  1  0  0  0  0
 31 30  1  0  0  0  0
 32 33  1  0  0  0  0
 34 33  1  0  0  0  0
M  END
>  <MODEL>
4

>  <REMARK>
 VINA RESULT:      -8.2      3.275      7.129
  Name = 
  6 active torsions:
  status: ('A' for Active; 'I' for Inactive)
    1  A    between atoms: C_3  and  C_13
    2  A    between atoms: C_3  and  C_29
    3  A    between atoms: C_12  and  N_28
    4  A    between atoms: C_13  and  C_33
    5  A    between atoms: C_20  and  N_22
    6  A    between atoms: N_22  and  C_33
                            x       y       z     vdW  Elec       q    Type
                         _______ _______ _______ _____ _____    ______ ____

>  <TORSDO>
F 6

$$$$
=
 OpenBabel11062408123D

 34 38  0  0  1  0  0  0  0  0999 V2000
  161.2380  205.9540  149.2470 C   0  0  0  0  0  0  0  0  0  0  0  0
  161.6840  205.4660  151.5880 C   0  0  0  0  0  0  0  0  0  0  0  0
  161.5510  207.8310  150.7860 C   0  0  0  0  0  0  0  0  0  0  0  0
  161.8910  209.7900  152.2840 C   0  0  0  0  0  0  0  0  0  0  0  0
  161.0810  204.5890  148.9970 C   0  0  0  0  0  3  0  0  0  0  0  0
  161.5330  204.1030  151.3160 C   0  0  0  0  0  3  0  0  0  0  0  0
  160.4900  207.9070  153.0650 C   0  0  0  0  0  2  0  0  0  0  0  0
  161.4780  206.4250  150.5660 C   0  0  0  0  0  0  0  0  0  0  0  0
  160.8800  208.2780  154.4920 C   0  0  0  0  0  2  0  0  0  0  0  0
  162.0940  210.3290  153.6650 C   0  0  0  0  0  2  0  0  0  0  0  0
  161.2130  203.6660  150.0330 C   0  0  0  0  0  3  0  0  0  0  0  0
  161.6240  208.7030  149.6760 C   0  0  0  0  0  0  0  0  0  0  0  0
  161.1880  206.8430  148.1780 C   0  0  0  0  0  3  0  0  0  0  0  0
  162.1400  205.8110  152.8160 F   0  0  0  0  0  0  0  0  0  0  0  0
  162.0820  210.5860  151.2360 C   0  0  0  0  0  3  0  0  0  0  0  0
  161.8920  210.1110  149.8940 N   0  0  0  0  0  0  0  0  0  0  0  0
  161.0180  209.7940  154.6100 C   0  0  2  0  0  3  0  0  0  0  0  0
  161.4700  208.4240  152.1020 N   0  0  0  0  0  0  0  0  0  0  0  0
  161.4020  208.2000  148.3870 C   0  0  0  0  0  3  0  0  0  0  0  0
  161.0870  212.4140  147.0480 C   0  0  0  0  0  0  0  0  0  0  0  0
  162.3430  212.9560  146.7670 C   0  0  0  0  0  3  0  0  0  0  0  0
  162.0570  211.0590  148.8190 C   0  0  0  0  0  0  0  0  0  0  0  0
  163.4560  212.5590  147.5120 C   0  0  0  0  0  3  0  0  0  0  0  0
  160.9440  211.4740  148.0720 C   0  0  0  0  0  3  0  0  0  0  0  0
  163.3130  211.6190  148.5360 C   0  0  0  0  0  3  0  0  0  0  0  0
  159.6900  212.9160  146.1210 Cl  0  0  0  0  0  0  0  0  0  0  0  0
  161.2820  210.2210  156.0510 C   0  0  0  0  0  2  0  0  0  0  0  0
  160.0360  210.7870  156.7230 C   0  0  0  0  0  2  0  0  0  0  0  0
  160.0860  213.1120  156.1300 O   0  0  0  0  0  1  0  0  0  0  0  0
  159.4380  211.9010  155.8780 C   0  0  2  0  0  3  0  0  0  0  0  0
  157.9780  212.0040  156.0540 N   0  0  0  0  0  2  0  0  0  0  0  0
  157.9790  211.5890  153.5780 C   0  0  0  0  0  1  0  0  0  0  0  0
  157.1740  211.9380  154.8220 C   0  0  0  0  0  3  0  0  0  0  0  0
  155.9560  211.0440  154.9780 C   0  0  0  0  0  1  0  0  0  0  0  0
  1  8  1  0  0  0  0
  2 14  1  0  0  0  0
  3 18  1  0  0  0  0
  4 10  1  0  0  0  0
  5  1  2  0  0  0  0
  5 11  1  0  0  0  0
  6  2  1  0  0  0  0
  7  9  1  0  0  0  0
  8  3  1  0  0  0  0
  8  2  2  0  0  0  0
  9 17  1  0  0  0  0
 10 17  1  0  0  0  0
 11  6  2  0  0  0  0
 12 16  1  0  0  0  0
 12  3  2  0  0  0  0
 13 19  2  0  0  0  0
 13  1  1  0  0  0  0
 15  4  2  0  0  0  0
 16 15  1  0  0  0  0
 17 27  1  1  0  0  0
 18  4  1  0  0  0  0
 18  7  1  0  0  0  0
 19 12  1  0  0  0  0
 20 24  1  0  0  0  0
 21 20  2  0  0  0  0
 21 23  1  0  0  0  0
 22 16  1  0  0  0  0
 23 25  2  0  0  0  0
 24 22  2  0  0  0  0
 25 22  1  0  0  0  0
 26 20  1  0  0  0  0
 27 28  1  0  0  0  0
 30 31  1  0  0  0  0
 30 29  1  1  0  0  0
 30 28  1  0  0  0  0
 32 33  1  0  0  0  0
 33 34  1  0  0  0  0
 33 31  1  0  0  0  0
M  END
>  <MODEL>
5

>  <REMARK>
 VINA RESULT:      -8.1      3.333      6.816
  Name = 
  6 active torsions:
  status: ('A' for Active; 'I' for Inactive)
    1  A    between atoms: C_3  and  C_13
    2  A    between atoms: C_3  and  C_29
    3  A    between atoms: C_12  and  N_28
    4  A    between atoms: C_13  and  C_33
    5  A    between atoms: C_20  and  N_22
    6  A    between atoms: N_22  and  C_33
                            x       y       z     vdW  Elec       q    Type
                         _______ _______ _______ _____ _____    ______ ____

>  <TORSDO>
F 6

$$$$
=
 OpenBabel11062408123D

 34 38  0  0  1  0  0  0  0  0999 V2000
  160.9540  207.2930  153.9170 C   0  0  0  0  0  0  0  0  0  0  0  0
  161.7650  209.5850  153.9380 C   0  0  0  0  0  0  0  0  0  0  0  0
  161.4460  208.3710  151.7750 C   0  0  0  0  0  0  0  0  0  0  0  0
  161.9550  209.3900  149.5620 C   0  0  0  0  0  0  0  0  0  0  0  0
  160.8000  207.3390  155.3030 C   0  0  0  0  0  3  0  0  0  0  0  0
  161.6130  209.6100  155.3280 C   0  0  0  0  0  3  0  0  0  0  0  0
  160.7430  210.7280  151.2520 C   0  0  0  0  0  2  0  0  0  0  0  0
  161.3790  208.4420  153.1970 C   0  0  0  0  0  0  0  0  0  0  0  0
  161.3350  211.9790  150.6100 C   0  0  0  0  0  2  0  0  0  0  0  0
  162.3510  210.5920  148.7640 C   0  0  0  0  0  2  0  0  0  0  0  0
  161.1130  208.5010  156.0070 C   0  0  0  0  0  3  0  0  0  0  0  0
  161.3240  207.1150  151.1370 C   0  0  0  0  0  0  0  0  0  0  0  0
  160.7180  206.0920  153.2540 C   0  0  0  0  0  3  0  0  0  0  0  0
  162.3930  210.6380  153.3600 F   0  0  0  0  0  0  0  0  0  0  0  0
  161.9610  208.1910  148.9870 C   0  0  0  0  0  3  0  0  0  0  0  0
  161.5830  207.0130  149.7150 N   0  0  0  0  0  0  0  0  0  0  0  0
  161.4470  211.7770  149.1000 C   0  0  2  0  0  3  0  0  0  0  0  0
  161.5490  209.5440  150.9360 N   0  0  0  0  0  0  0  0  0  0  0  0
  160.9230  205.9980  151.8830 C   0  0  0  0  0  3  0  0  0  0  0  0
  161.9410  204.5080  146.9480 C   0  0  0  0  0  0  0  0  0  0  0  0
  161.5750  203.3260  147.5960 C   0  0  0  0  0  3  0  0  0  0  0  0
  161.5550  205.7620  148.9960 C   0  0  0  0  0  0  0  0  0  0  0  0
  161.2060  203.3550  148.9430 C   0  0  0  0  0  3  0  0  0  0  0  0
  161.9350  205.7190  147.6460 C   0  0  0  0  0  3  0  0  0  0  0  0
  161.2010  204.5660  149.6410 C   0  0  0  0  0  3  0  0  0  0  0  0
  162.4100  204.4730  145.2630 Cl  0  0  0  0  0  0  0  0  0  0  0  0
  161.9140  213.0500  148.4000 C   0  0  0  0  0  2  0  0  0  0  0  0
  161.7280  212.9810  146.8890 C   0  0  0  0  0  2  0  0  0  0  0  0
  160.1190  212.3000  145.2430 O   0  0  0  0  0  1  0  0  0  0  0  0
  160.2590  212.7860  146.5450 C   0  0  2  0  0  3  0  0  0  0  0  0
  159.4720  214.0120  146.7700 N   0  0  0  0  0  2  0  0  0  0  0  0
  157.4580  212.5790  147.2090 C   0  0  0  0  0  1  0  0  0  0  0  0
  158.2290  213.8480  147.5430 C   0  0  0  0  0  3  0  0  0  0  0  0
  158.4580  213.9950  149.0370 C   0  0  0  0  0  1  0  0  0  0  0  0
  1  5  2  0  0  0  0
  2  6  1  0  0  0  0
  3  8  1  0  0  0  0
  4 18  1  0  0  0  0
  5 11  1  0  0  0  0
  6 11  2  0  0  0  0
  8  1  1  0  0  0  0
  8  2  2  0  0  0  0
  9  7  1  0  0  0  0
 10 17  1  0  0  0  0
 10  4  1  0  0  0  0
 12  3  2  0  0  0  0
 12 19  1  0  0  0  0
 13  1  1  0  0  0  0
 14  2  1  0  0  0  0
 15  4  2  0  0  0  0
 15 16  1  0  0  0  0
 16 12  1  0  0  0  0
 17 27  1  6  0  0  0
 17  9  1  0  0  0  0
 18  7  1  0  0  0  0
 18  3  1  0  0  0  0
 19 13  2  0  0  0  0
 20 21  2  0  0  0  0
 20 24  1  0  0  0  0
 21 23  1  0  0  0  0
 22 25  1  0  0  0  0
 22 16  1  0  0  0  0
 23 25  2  0  0  0  0
 24 22  2  0  0  0  0
 26 20  1  0  0  0  0
 28 27  1  0  0  0  0
 30 29  1  6  0  0  0
 30 31  1  0  0  0  0
 30 28  1  0  0  0  0
 31 33  1  0  0  0  0
 32 33  1  0  0  0  0
 33 34  1  0  0  0  0
M  END
>  <MODEL>
6

>  <REMARK>
 VINA RESULT:      -8.0      2.998      5.742
  Name = 
  6 active torsions:
  status: ('A' for Active; 'I' for Inactive)
    1  A    between atoms: C_3  and  C_13
    2  A    between atoms: C_3  and  C_29
    3  A    between atoms: C_12  and  N_28
    4  A    between atoms: C_13  and  C_33
    5  A    between atoms: C_20  and  N_22
    6  A    between atoms: N_22  and  C_33
                            x       y       z     vdW  Elec       q    Type
                         _______ _______ _______ _____ _____    ______ ____

>  <TORSDO>
F 6

$$$$
=
 OpenBabel11062408123D

 34 38  0  0  1  0  0  0  0  0999 V2000
  161.7150  210.2130  150.1390 C   0  0  0  0  0  0  0  0  0  0  0  0
  162.5060  208.5010  148.6030 C   0  0  0  0  0  0  0  0  0  0  0  0
  161.5950  207.8730  150.8470 C   0  0  0  0  0  0  0  0  0  0  0  0
  161.4720  205.5190  151.6470 C   0  0  0  0  0  0  0  0  0  0  0  0
  161.9520  211.1870  149.1680 C   0  0  0  0  0  3  0  0  0  0  0  0
  162.7460  209.4920  147.6470 C   0  0  0  0  0  3  0  0  0  0  0  0
  160.7810  206.0390  149.3310 C   0  0  0  0  0  2  0  0  0  0  0  0
  161.9260  208.8380  149.8510 C   0  0  0  0  0  0  0  0  0  0  0  0
  161.1750  204.6150  148.9490 C   0  0  0  0  0  2  0  0  0  0  0  0
  161.6340  204.0590  151.3670 C   0  0  0  0  0  2  0  0  0  0  0  0
  162.4510  210.8260  147.9180 C   0  0  0  0  0  3  0  0  0  0  0  0
  161.2980  208.3050  152.1590 C   0  0  0  0  0  0  0  0  0  0  0  0
  161.3010  210.6130  151.4060 C   0  0  0  0  0  3  0  0  0  0  0  0
  162.9520  207.2500  148.3320 F   0  0  0  0  0  0  0  0  0  0  0  0
  161.3160  205.9310  152.9020 C   0  0  0  0  0  3  0  0  0  0  0  0
  161.1510  207.3230  153.2150 N   0  0  0  0  0  0  0  0  0  0  0  0
  160.8620  203.6690  150.1060 C   0  0  2  0  0  3  0  0  0  0  0  0
  161.4650  206.4620  150.5580 N   0  0  0  0  0  0  0  0  0  0  0  0
  161.1170  209.6720  152.4120 C   0  0  0  0  0  3  0  0  0  0  0  0
  161.2870  209.1880  156.4640 C   0  0  0  0  0  0  0  0  0  0  0  0
  160.4330  208.4210  157.2590 C   0  0  0  0  0  3  0  0  0  0  0  0
  160.9220  207.6760  154.5940 C   0  0  0  0  0  0  0  0  0  0  0  0
  159.8170  207.2860  156.7270 C   0  0  0  0  0  3  0  0  0  0  0  0
  161.5260  208.8210  155.1370 C   0  0  0  0  0  3  0  0  0  0  0  0
  160.0560  206.9180  155.4000 C   0  0  0  0  0  3  0  0  0  0  0  0
  162.0550  210.6140  157.1270 Cl  0  0  0  0  0  0  0  0  0  0  0  0
  161.1200  202.2140  149.7230 C   0  0  0  0  0  2  0  0  0  0  0  0
  160.0460  201.6610  148.7950 C   0  0  0  0  0  2  0  0  0  0  0  0
  161.5650  200.2300  147.6080 O   0  0  0  0  0  1  0  0  0  0  0  0
  160.6520  201.2760  147.4540 C   0  0  2  0  0  3  0  0  0  0  0  0
  161.2450  202.4360  146.7640 N   0  0  0  0  0  2  0  0  0  0  0  0
  159.6700  201.8030  144.9140 C   0  0  0  0  0  1  0  0  0  0  0  0
  160.9100  202.5780  145.3360 C   0  0  0  0  0  3  0  0  0  0  0  0
  160.8450  204.0320  144.9040 C   0  0  0  0  0  1  0  0  0  0  0  0
  1 13  1  0  0  0  0
  2  8  1  0  0  0  0
  3 12  2  0  0  0  0
  4 15  2  0  0  0  0
  5  1  1  0  0  0  0
  6 11  1  0  0  0  0
  6  2  2  0  0  0  0
  7 18  1  0  0  0  0
  8  1  2  0  0  0  0
  8  3  1  0  0  0  0
  9  7  1  0  0  0  0
  9 17  1  0  0  0  0
 10  4  1  0  0  0  0
 11  5  2  0  0  0  0
 12 19  1  0  0  0  0
 12 16  1  0  0  0  0
 13 19  2  0  0  0  0
 14  2  1  0  0  0  0
 15 16  1  0  0  0  0
 16 22  1  0  0  0  0
 17 27  1  6  0  0  0
 17 10  1  0  0  0  0
 18  3  1  0  0  0  0
 18  4  1  0  0  0  0
 20 26  1  0  0  0  0
 20 21  1  0  0  0  0
 22 24  1  0  0  0  0
 22 25  2  0  0  0  0
 23 21  2  0  0  0  0
 24 20  2  0  0  0  0
 25 23  1  0  0  0  0
 28 27  1  0  0  0  0
 30 29  1  1  0  0  0
 30 28  1  0  0  0  0
 31 30  1  0  0  0  0
 32 33  1  0  0  0  0
 33 31  1  0  0  0  0
 34 33  1  0  0  0  0
M  END
>  <MODEL>
7

>  <REMARK>
 VINA RESULT:      -7.7      3.074      6.428
  Name = 
  6 active torsions:
  status: ('A' for Active; 'I' for Inactive)
    1  A    between atoms: C_3  and  C_13
    2  A    between atoms: C_3  and  C_29
    3  A    between atoms: C_12  and  N_28
    4  A    between atoms: C_13  and  C_33
    5  A    between atoms: C_20  and  N_22
    6  A    between atoms: N_22  and  C_33
                            x       y       z     vdW  Elec       q    Type
                         _______ _______ _______ _____ _____    ______ ____

>  <TORSDO>
F 6

$$$$
=
 OpenBabel11062408123D

 34 38  0  0  1  0  0  0  0  0999 V2000
  160.5050  212.9040  150.3310 C   0  0  0  0  0  0  0  0  0  0  0  0
  162.0020  211.0430  149.8690 C   0  0  0  0  0  0  0  0  0  0  0  0
  160.6290  211.0820  151.9600 C   0  0  0  0  0  0  0  0  0  0  0  0
  160.7260  209.2820  153.6770 C   0  0  0  0  0  0  0  0  0  0  0  0
  160.8210  213.4600  149.0900 C   0  0  0  0  0  3  0  0  0  0  0  0
  162.3130  211.6200  148.6340 C   0  0  0  0  0  3  0  0  0  0  0  0
  160.6310  208.6590  151.2860 C   0  0  0  0  0  2  0  0  0  0  0  0
  161.0420  211.6470  150.7180 C   0  0  0  0  0  0  0  0  0  0  0  0
  161.3750  207.3760  151.6450 C   0  0  0  0  0  2  0  0  0  0  0  0
  161.2300  207.9380  154.1000 C   0  0  0  0  0  2  0  0  0  0  0  0
  161.7100  212.8110  148.2350 C   0  0  0  0  0  3  0  0  0  0  0  0
  159.8990  211.8750  152.8740 C   0  0  0  0  0  0  0  0  0  0  0  0
  159.6840  213.6180  151.1970 C   0  0  0  0  0  3  0  0  0  0  0  0
  162.7310  209.9690  150.2590 F   0  0  0  0  0  0  0  0  0  0  0  0
  160.1480  210.0760  154.5740 C   0  0  0  0  0  3  0  0  0  0  0  0
  159.6460  211.3710  154.2090 N   0  0  0  0  0  0  0  0  0  0  0  0
  160.9310  206.8940  153.0240 C   0  0  2  0  0  3  0  0  0  0  0  0
  160.8500  209.6940  152.3020 N   0  0  0  0  0  0  0  0  0  0  0  0
  159.4020  213.1200  152.4640 C   0  0  0  0  0  3  0  0  0  0  0  0
  157.0000  212.5570  156.5860 C   0  0  0  0  0  0  0  0  0  0  0  0
  157.6730  213.5790  157.2610 C   0  0  0  0  0  3  0  0  0  0  0  0
  158.9750  212.1400  155.2290 C   0  0  0  0  0  0  0  0  0  0  0  0
  158.9960  213.8800  156.9290 C   0  0  0  0  0  3  0  0  0  0  0  0
  157.6500  211.8390  155.5790 C   0  0  0  0  0  3  0  0  0  0  0  0
  159.6450  213.1610  155.9220 C   0  0  0  0  0  3  0  0  0  0  0  0
  155.3450  212.1740  157.0040 Cl  0  0  0  0  0  0  0  0  0  0  0  0
  161.5530  205.5440  153.3710 C   0  0  0  0  0  2  0  0  0  0  0  0
  162.0280  204.7910  152.1340 C   0  0  0  0  0  2  0  0  0  0  0  0
  161.6350  202.4480  151.7940 O   0  0  0  0  0  1  0  0  0  0  0  0
  161.0300  203.7070  151.7590 C   0  0  2  0  0  3  0  0  0  0  0  0
  160.3830  203.9770  150.4620 N   0  0  0  0  0  2  0  0  0  0  0  0
  161.0260  202.6890  148.4060 C   0  0  0  0  0  1  0  0  0  0  0  0
  161.2570  203.9140  149.2790 C   0  0  0  0  0  3  0  0  0  0  0  0
  161.2240  205.2000  148.4710 C   0  0  0  0  0  1  0  0  0  0  0  0
  1  8  2  0  0  0  0
  1 13  1  0  0  0  0
  2 14  1  0  0  0  0
  2  8  1  0  0  0  0
  3 18  1  0  0  0  0
  3 12  2  0  0  0  0
  4 10  1  0  0  0  0
  4 15  2  0  0  0  0
  5  1  1  0  0  0  0
  6  2  2  0  0  0  0
  7  9  1  0  0  0  0
  7 18  1  0  0  0  0
  8  3  1  0  0  0  0
  9 17  1  0  0  0  0
 11  6  1  0  0  0  0
 11  5  2  0  0  0  0
 12 16  1  0  0  0  0
 13 19  2  0  0  0  0
 16 15  1  0  0  0  0
 16 22  1  0  0  0  0
 17 27  1  1  0  0  0
 17 10  1  0  0  0  0
 18  4  1  0  0  0  0
 19 12  1  0  0  0  0
 20 26  1  0  0  0  0
 20 21  1  0  0  0  0
 22 24  1  0  0  0  0
 22 25  2  0  0  0  0
 23 21  2  0  0  0  0
 24 20  2  0  0  0  0
 25 23  1  0  0  0  0
 28 27  1  0  0  0  0
 30 29  1  6  0  0  0
 30 28  1  0  0  0  0
 31 30  1  0  0  0  0
 32 33  1  0  0  0  0
 33 31  1  0  0  0  0
 34 33  1  0  0  0  0
M  END
>  <MODEL>
8

>  <REMARK>
 VINA RESULT:      -7.4      3.520      7.186
  Name = 
  6 active torsions:
  status: ('A' for Active; 'I' for Inactive)
    1  A    between atoms: C_3  and  C_13
    2  A    between atoms: C_3  and  C_29
    3  A    between atoms: C_12  and  N_28
    4  A    between atoms: C_13  and  C_33
    5  A    between atoms: C_20  and  N_22
    6  A    between atoms: N_22  and  C_33
                            x       y       z     vdW  Elec       q    Type
                         _______ _______ _______ _____ _____    ______ ____

>  <TORSDO>
F 6

$$$$
=
 OpenBabel11062408123D

 34 38  0  0  1  0  0  0  0  0999 V2000
  161.2710  202.9730  150.7190 C   0  0  0  0  0  0  0  0  0  0  0  0
  160.5080  202.0950  148.5830 C   0  0  0  0  0  0  0  0  0  0  0  0
  161.1130  204.5100  148.8200 C   0  0  0  0  0  0  0  0  0  0  0  0
  160.9470  206.1380  146.9440 C   0  0  0  0  0  0  0  0  0  0  0  0
  161.2250  201.6870  151.2590 C   0  0  0  0  0  3  0  0  0  0  0  0
  160.4590  200.8150  149.1450 C   0  0  0  0  0  3  0  0  0  0  0  0
  161.9280  203.9080  146.5180 C   0  0  0  0  0  2  0  0  0  0  0  0
  160.9760  203.1920  149.3460 C   0  0  0  0  0  0  0  0  0  0  0  0
  161.4570  204.0350  145.0730 C   0  0  0  0  0  2  0  0  0  0  0  0
  160.6930  206.4020  145.4940 C   0  0  0  0  0  2  0  0  0  0  0  0
  160.8350  200.6070  150.4700 C   0  0  0  0  0  3  0  0  0  0  0  0
  161.3020  205.5940  149.7070 C   0  0  0  0  0  0  0  0  0  0  0  0
  161.5780  204.0420  151.5540 C   0  0  0  0  0  3  0  0  0  0  0  0
  159.9890  202.2520  147.3410 F   0  0  0  0  0  0  0  0  0  0  0  0
  161.0010  207.1580  147.7960 C   0  0  0  0  0  3  0  0  0  0  0  0
  161.2490  206.9490  149.1950 N   0  0  0  0  0  0  0  0  0  0  0  0
  161.5610  205.4920  144.6250 C   0  0  2  0  0  3  0  0  0  0  0  0
  161.1530  204.7870  147.4010 N   0  0  0  0  0  0  0  0  0  0  0  0
  161.5710  205.3420  151.0590 C   0  0  0  0  0  3  0  0  0  0  0  0
  161.0350  209.1820  152.1990 C   0  0  0  0  0  0  0  0  0  0  0  0
  161.6210  210.3540  151.7150 C   0  0  0  0  0  3  0  0  0  0  0  0
  161.3570  208.1150  150.0360 C   0  0  0  0  0  0  0  0  0  0  0  0
  162.0830  210.4100  150.3970 C   0  0  0  0  0  3  0  0  0  0  0  0
  160.9080  208.0670  151.3660 C   0  0  0  0  0  3  0  0  0  0  0  0
  161.9560  209.2950  149.5640 C   0  0  0  0  0  3  0  0  0  0  0  0
  160.4630  209.1080  153.8500 Cl  0  0  0  0  0  0  0  0  0  0  0  0
  161.2220  205.6470  143.1460 C   0  0  0  0  0  2  0  0  0  0  0  0
  162.3900  206.2040  142.3400 C   0  0  0  0  0  2  0  0  0  0  0  0
  162.9770  206.1930  140.0120 O   0  0  0  0  0  1  0  0  0  0  0  0
  161.9550  206.5010  140.9140 C   0  0  2  0  0  3  0  0  0  0  0  0
  161.4780  207.8870  140.7600 N   0  0  0  0  0  2  0  0  0  0  0  0
  160.7160  208.4640  138.4380 C   0  0  0  0  0  1  0  0  0  0  0  0
  161.8150  208.5490  139.4870 C   0  0  0  0  0  3  0  0  0  0  0  0
  162.2950  209.9750  139.6910 C   0  0  0  0  0  1  0  0  0  0  0  0
  1  5  1  0  0  0  0
  1 13  1  0  0  0  0
  2  6  2  0  0  0  0
  2  8  1  0  0  0  0
  3  8  1  0  0  0  0
  3 12  2  0  0  0  0
  4 18  1  0  0  0  0
  4 15  2  0  0  0  0
  6 11  1  0  0  0  0
  7 18  1  0  0  0  0
  8  1  2  0  0  0  0
  9  7  1  0  0  0  0
 10  4  1  0  0  0  0
 11  5  2  0  0  0  0
 12 19  1  0  0  0  0
 14  2  1  0  0  0  0
 15 16  1  0  0  0  0
 16 12  1  0  0  0  0
 16 22  1  0  0  0  0
 17 27  1  6  0  0  0
 17  9  1  0  0  0  0
 17 10  1  0  0  0  0
 18  3  1  0  0  0  0
 19 13  2  0  0  0  0
 20 26  1  0  0  0  0
 21 20  1  0  0  0  0
 22 24  1  0  0  0  0
 23 21  2  0  0  0  0
 24 20  2  0  0  0  0
 25 22  2  0  0  0  0
 25 23  1  0  0  0  0
 28 27  1  0  0  0  0
 30 29  1  6  0  0  0
 30 28  1  0  0  0  0
 31 30  1  0  0  0  0
 32 33  1  0  0  0  0
 33 34  1  0  0  0  0
 33 31  1  0  0  0  0
M  END
>  <MODEL>
9

>  <REMARK>
 VINA RESULT:      -7.3      4.242      5.677
  Name = 
  6 active torsions:
  status: ('A' for Active; 'I' for Inactive)
    1  A    between atoms: C_3  and  C_13
    2  A    between atoms: C_3  and  C_29
    3  A    between atoms: C_12  and  N_28
    4  A    between atoms: C_13  and  C_33
    5  A    between atoms: C_20  and  N_22
    6  A    between atoms: N_22  and  C_33
                            x       y       z     vdW  Elec       q    Type
                         _______ _______ _______ _____ _____    ______ ____

>  <TORSDO>
F 6

$$$$
