=
 OpenBabel11052422333D

 31 34  0  0  0  0  0  0  0  0999 V2000
  162.1820  209.5110  148.6440 C   0  0  0  0  0  3  0  0  0  0  0  0
  161.3490  205.5290  150.8740 C   0  0  0  0  0  0  0  0  0  0  0  0
  161.2440  204.3630  150.0240 C   0  0  0  0  0  0  0  0  0  0  0  0
  161.2260  203.2700  147.7990 C   0  0  0  0  0  3  0  0  0  0  0  0
  161.6360  206.8680  150.3970 C   0  0  0  0  0  0  0  0  0  0  0  0
  161.9350  209.9570  149.8310 N   0  0  0  0  0  0  0  0  0  0  0  0
  161.3500  204.4360  148.6870 C   0  0  0  0  0  2  0  0  0  0  0  0
  161.1620  206.4320  153.1630 C   0  0  0  0  0  0  0  0  0  0  0  0
  162.2950  208.1140  148.2580 C   0  0  0  0  0  3  0  0  0  0  0  0
  160.7870  202.9600  151.9610 C   0  0  0  0  0  3  0  0  0  0  0  0
  161.0050  202.0580  148.2960 C   0  0  0  0  0  0  0  0  0  0  0  0
  161.3440  207.7050  152.6600 C   0  0  0  0  0  3  0  0  0  0  0  0
  161.1350  205.3400  152.2770 C   0  0  0  0  0  0  0  0  0  0  0  0
  162.0650  207.0380  148.9930 C   0  0  0  0  0  3  0  0  0  0  0  0
  160.8970  201.0040  147.4510 F   0  0  0  0  0  0  0  0  0  0  0  0
  161.5750  207.9550  151.3150 C   0  0  0  0  0  0  0  0  0  0  0  0
  161.7090  209.2620  151.0600 C   0  0  0  0  0  3  0  0  0  0  0  0
  160.8540  204.0680  152.7820 C   0  0  0  0  0  3  0  0  0  0  0  0
  160.9800  203.0910  150.5960 C   0  0  0  0  0  0  0  0  0  0  0  0
  160.8870  201.8280  149.7730 C   0  0  0  0  0  3  0  0  0  0  0  0
  160.9700  206.3160  154.5460 O   0  0  0  0  0  0  0  0  0  0  0  0
  160.0440  207.1020  155.2830 C   0  0  0  0  0  2  0  0  0  0  0  0
  160.4390  207.1100  156.7460 C   0  0  0  0  0  2  0  0  0  0  0  0
  160.8340  208.5100  157.1990 C   0  0  0  0  0  2  0  0  0  0  0  0
  160.1540  209.6060  156.3770 C   0  0  0  0  0  2  0  0  0  0  0  0
  162.6510  210.6080  156.2100 S   0  0  0  0  0  0  0  0  0  0  0  0
  161.1380  210.4190  155.6050 C   0  0  0  0  0  0  0  0  0  0  0  0
  160.0870  212.0190  153.8810 C   0  0  0  0  0  0  0  0  0  0  0  0
  159.4520  212.7410  154.7430 N   0  0  0  0  0  2  0  0  0  0  0  0
  159.9390  212.3200  152.4340 C   0  0  0  0  0  1  0  0  0  0  0  0
  160.7890  210.8340  154.2760 N   0  0  0  0  0  2  0  0  0  0  0  0
  1  6  1  0  0  0  0
  2 13  1  0  0  0  0
  3 19  1  0  0  0  0
  3  2  2  0  0  0  0
  4 11  2  0  0  0  0
  4  7  1  0  0  0  0
  5  2  1  0  0  0  0
  5 16  1  0  0  0  0
  6 17  2  0  0  0  0
  7  3  1  0  0  0  0
  8 21  1  0  0  0  0
  9  1  2  0  0  0  0
  9 14  1  0  0  0  0
 10 18  2  0  0  0  0
 11 20  1  0  0  0  0
 12  8  1  0  0  0  0
 13 18  1  0  0  0  0
 13  8  2  0  0  0  0
 14  5  2  0  0  0  0
 15 11  1  0  0  0  0
 16 12  2  0  0  0  0
 17 16  1  0  0  0  0
 19 10  1  0  0  0  0
 20 19  2  0  0  0  0
 21 22  1  0  0  0  0
 22 23  1  0  0  0  0
 23 24  1  0  0  0  0
 25 24  1  0  0  0  0
 27 26  2  0  0  0  0
 27 25  1  0  0  0  0
 28 31  1  0  0  0  0
 28 29  2  0  0  0  0
 30 28  1  0  0  0  0
 31 27  1  0  0  0  0
M  END
>  <MODEL>
1

>  <REMARK>
 VINA RESULT:      -9.7      0.000      0.000
  Name = 
  7 active torsions:
  status: ('A' for Active; 'I' for Inactive)
    1  A    between atoms: C_3  and  C_19
    2  A    between atoms: C_3  and  C_22
    3  A    between atoms: C_7  and  C_9
    4  A    between atoms: C_7  and  C_22
    5  A    between atoms: C_9  and  O_23
    6  A    between atoms: C_15  and  O_23
    7  A    between atoms: C_19  and  N_24
                            x       y       z     vdW  Elec       q    Type
                         _______ _______ _______ _____ _____    ______ ____

>  <TORSDO>
F 7

$$$$
=
 OpenBabel11052422333D

 31 34  0  0  0  0  0  0  0  0999 V2000
  162.1540  209.7120  148.7110 C   0  0  0  0  0  3  0  0  0  0  0  0
  161.3650  205.6860  150.8760 C   0  0  0  0  0  0  0  0  0  0  0  0
  161.2360  204.5380  150.0050 C   0  0  0  0  0  0  0  0  0  0  0  0
  161.1600  203.4930  147.7580 C   0  0  0  0  0  3  0  0  0  0  0  0
  161.6440  207.0340  150.4210 C   0  0  0  0  0  0  0  0  0  0  0  0
  161.9380  210.1330  149.9130 N   0  0  0  0  0  0  0  0  0  0  0  0
  161.3090  204.6390  148.6670 C   0  0  0  0  0  2  0  0  0  0  0  0
  161.2370  206.5410  153.1870 C   0  0  0  0  0  0  0  0  0  0  0  0
  162.2530  208.3240  148.2930 C   0  0  0  0  0  3  0  0  0  0  0  0
  160.8230  203.0960  151.9220 C   0  0  0  0  0  3  0  0  0  0  0  0
  160.9470  202.2710  148.2340 C   0  0  0  0  0  0  0  0  0  0  0  0
  161.4110  207.8230  152.7080 C   0  0  0  0  0  3  0  0  0  0  0  0
  161.1860  205.4670  152.2800 C   0  0  0  0  0  0  0  0  0  0  0  0
  162.0390  207.2330  149.0100 C   0  0  0  0  0  3  0  0  0  0  0  0
  160.8160  201.2350  147.3700 F   0  0  0  0  0  0  0  0  0  0  0  0
  161.6090  208.1010  151.3630 C   0  0  0  0  0  0  0  0  0  0  0  0
  161.7400  209.4130  151.1320 C   0  0  0  0  0  3  0  0  0  0  0  0
  160.9140  204.1860  152.7650 C   0  0  0  0  0  3  0  0  0  0  0  0
  160.9820  203.2550  150.5560 C   0  0  0  0  0  0  0  0  0  0  0  0
  160.8660  202.0100  149.7090 C   0  0  0  0  0  3  0  0  0  0  0  0
  161.0790  206.3950  154.5720 O   0  0  0  0  0  0  0  0  0  0  0  0
  160.1680  207.1620  155.3470 C   0  0  0  0  0  2  0  0  0  0  0  0
  160.9390  208.0320  156.3200 C   0  0  0  0  0  2  0  0  0  0  0  0
  160.7620  209.5090  155.9910 C   0  0  0  0  0  2  0  0  0  0  0  0
  159.2940  209.9030  155.8330 C   0  0  0  0  0  2  0  0  0  0  0  0
  160.4190  211.5280  153.9990 S   0  0  0  0  0  0  0  0  0  0  0  0
  159.1130  211.0060  154.8440 C   0  0  0  0  0  0  0  0  0  0  0  0
  157.1540  212.6780  154.8330 C   0  0  0  0  0  0  0  0  0  0  0  0
  157.6750  213.4960  155.6860 N   0  0  0  0  0  2  0  0  0  0  0  0
  155.7970  212.9580  154.2960 C   0  0  0  0  0  1  0  0  0  0  0  0
  157.7780  211.4260  154.5250 N   0  0  0  0  0  2  0  0  0  0  0  0
  1  6  1  0  0  0  0
  2 13  1  0  0  0  0
  3 19  1  0  0  0  0
  3  2  2  0  0  0  0
  4 11  2  0  0  0  0
  4  7  1  0  0  0  0
  5  2  1  0  0  0  0
  5 16  1  0  0  0  0
  6 17  2  0  0  0  0
  7  3  1  0  0  0  0
  8 21  1  0  0  0  0
  9  1  2  0  0  0  0
  9 14  1  0  0  0  0
 10 18  2  0  0  0  0
 11 20  1  0  0  0  0
 12  8  1  0  0  0  0
 13 18  1  0  0  0  0
 13  8  2  0  0  0  0
 14  5  2  0  0  0  0
 15 11  1  0  0  0  0
 16 12  2  0  0  0  0
 17 16  1  0  0  0  0
 19 10  1  0  0  0  0
 20 19  2  0  0  0  0
 21 22  1  0  0  0  0
 22 23  1  0  0  0  0
 24 23  1  0  0  0  0
 25 24  1  0  0  0  0
 26 27  2  0  0  0  0
 27 25  1  0  0  0  0
 28 29  2  0  0  0  0
 30 28  1  0  0  0  0
 31 28  1  0  0  0  0
 31 27  1  0  0  0  0
M  END
>  <MODEL>
2

>  <REMARK>
 VINA RESULT:      -9.4      1.339      1.464
  Name = 
  7 active torsions:
  status: ('A' for Active; 'I' for Inactive)
    1  A    between atoms: C_3  and  C_19
    2  A    between atoms: C_3  and  C_22
    3  A    between atoms: C_7  and  C_9
    4  A    between atoms: C_7  and  C_22
    5  A    between atoms: C_9  and  O_23
    6  A    between atoms: C_15  and  O_23
    7  A    between atoms: C_19  and  N_24
                            x       y       z     vdW  Elec       q    Type
                         _______ _______ _______ _____ _____    ______ ____

>  <TORSDO>
F 7

$$$$
=
 OpenBabel11052422333D

 31 34  0  0  0  0  0  0  0  0999 V2000
  161.0620  204.8350  153.4960 C   0  0  0  0  0  3  0  0  0  0  0  0
  161.3210  205.4780  148.9090 C   0  0  0  0  0  0  0  0  0  0  0  0
  161.2140  204.2720  148.1150 C   0  0  0  0  0  0  0  0  0  0  0  0
  160.9890  201.8140  147.8890 C   0  0  0  0  0  3  0  0  0  0  0  0
  161.2360  205.5180  150.3550 C   0  0  0  0  0  0  0  0  0  0  0  0
  161.4130  206.0770  153.4550 N   0  0  0  0  0  0  0  0  0  0  0  0
  161.0790  203.0560  148.6700 C   0  0  0  0  0  3  0  0  0  0  0  0
  161.7200  207.9130  148.9100 C   0  0  0  0  0  0  0  0  0  0  0  0
  160.7170  204.0020  152.3550 C   0  0  0  0  0  3  0  0  0  0  0  0
  161.5010  205.5610  146.0710 C   0  0  0  0  0  3  0  0  0  0  0  0
  161.0300  201.8420  146.5600 C   0  0  0  0  0  0  0  0  0  0  0  0
  161.7260  207.8970  150.2890 C   0  0  0  0  0  3  0  0  0  0  0  0
  161.5450  206.7060  148.2080 C   0  0  0  0  0  0  0  0  0  0  0  0
  160.7960  204.2990  151.0680 C   0  0  0  0  0  3  0  0  0  0  0  0
  160.9440  200.6800  145.8690 F   0  0  0  0  0  0  0  0  0  0  0  0
  161.4960  206.7450  151.0290 C   0  0  0  0  0  0  0  0  0  0  0  0
  161.5640  206.9680  152.3460 C   0  0  0  0  0  3  0  0  0  0  0  0
  161.6360  206.7170  146.8140 C   0  0  0  0  0  2  0  0  0  0  0  0
  161.2900  204.3460  146.7000 C   0  0  0  0  0  0  0  0  0  0  0  0
  161.1560  203.1340  145.8100 C   0  0  0  0  0  3  0  0  0  0  0  0
  161.9330  209.1500  148.2860 O   0  0  0  0  0  0  0  0  0  0  0  0
  162.2520  210.3420  148.9900 C   0  0  0  0  0  2  0  0  0  0  0  0
  161.8230  211.5430  148.1690 C   0  0  0  0  0  2  0  0  0  0  0  0
  163.0120  212.4400  147.8500 C   0  0  0  0  0  2  0  0  0  0  0  0
  162.5900  213.8610  147.4740 C   0  0  0  0  0  2  0  0  0  0  0  0
  162.7030  213.4470  144.8120 S   0  0  0  0  0  0  0  0  0  0  0  0
  161.8860  213.9060  146.1590 C   0  0  0  0  0  0  0  0  0  0  0  0
  159.4210  213.2310  145.8310 C   0  0  0  0  0  0  0  0  0  0  0  0
  159.6700  212.1020  145.2540 N   0  0  0  0  0  2  0  0  0  0  0  0
  158.0100  213.6600  146.0070 C   0  0  0  0  0  1  0  0  0  0  0  0
  160.4720  214.1520  146.1490 N   0  0  0  0  0  2  0  0  0  0  0  0
  2  5  1  0  0  0  0
  3  7  1  0  0  0  0
  3  2  2  0  0  0  0
  4  7  2  0  0  0  0
  5 16  1  0  0  0  0
  5 14  2  0  0  0  0
  6  1  1  0  0  0  0
  8 12  1  0  0  0  0
  9  1  2  0  0  0  0
 10 19  2  0  0  0  0
 10 18  1  0  0  0  0
 11  4  1  0  0  0  0
 12 16  2  0  0  0  0
 13  2  1  0  0  0  0
 13  8  2  0  0  0  0
 14  9  1  0  0  0  0
 15 11  1  0  0  0  0
 16 17  1  0  0  0  0
 17  6  2  0  0  0  0
 18 13  1  0  0  0  0
 19  3  1  0  0  0  0
 20 11  2  0  0  0  0
 20 19  1  0  0  0  0
 21  8  1  0  0  0  0
 21 22  1  0  0  0  0
 23 22  1  0  0  0  0
 24 23  1  0  0  0  0
 25 24  1  0  0  0  0
 26 27  2  0  0  0  0
 27 25  1  0  0  0  0
 28 30  1  0  0  0  0
 28 31  1  0  0  0  0
 29 28  2  0  0  0  0
 31 27  1  0  0  0  0
M  END
>  <MODEL>
3

>  <REMARK>
 VINA RESULT:      -9.3      3.855      6.343
  Name = 
  7 active torsions:
  status: ('A' for Active; 'I' for Inactive)
    1  A    between atoms: C_3  and  C_19
    2  A    between atoms: C_3  and  C_22
    3  A    between atoms: C_7  and  C_9
    4  A    between atoms: C_7  and  C_22
    5  A    between atoms: C_9  and  O_23
    6  A    between atoms: C_15  and  O_23
    7  A    between atoms: C_19  and  N_24
                            x       y       z     vdW  Elec       q    Type
                         _______ _______ _______ _____ _____    ______ ____

>  <TORSDO>
F 7

$$$$
=
 OpenBabel11052422333D

 31 34  0  0  0  0  0  0  0  0999 V2000
  160.2250  209.5640  156.2810 C   0  0  0  0  0  3  0  0  0  0  0  0
  161.4650  208.0430  152.0770 C   0  0  0  0  0  0  0  0  0  0  0  0
  161.6290  209.0760  151.0770 C   0  0  0  0  0  0  0  0  0  0  0  0
  161.5480  211.4410  150.3390 C   0  0  0  0  0  3  0  0  0  0  0  0
  161.1130  208.2910  153.4610 C   0  0  0  0  0  0  0  0  0  0  0  0
  160.0900  208.2910  156.4450 N   0  0  0  0  0  0  0  0  0  0  0  0
  161.4100  210.3740  151.3420 C   0  0  0  0  0  3  0  0  0  0  0  0
  161.4470  205.6220  152.5520 C   0  0  0  0  0  0  0  0  0  0  0  0
  160.7730  210.2250  155.1070 C   0  0  0  0  0  3  0  0  0  0  0  0
  162.1670  207.3990  149.3960 C   0  0  0  0  0  3  0  0  0  0  0  0
  161.9160  211.1590  149.0930 C   0  0  0  0  0  0  0  0  0  0  0  0
  161.0210  205.8910  153.8370 C   0  0  0  0  0  3  0  0  0  0  0  0
  161.6470  206.6870  151.6560 C   0  0  0  0  0  0  0  0  0  0  0  0
  161.1330  209.6850  153.9540 C   0  0  0  0  0  3  0  0  0  0  0  0
  162.0360  212.1650  148.1930 F   0  0  0  0  0  0  0  0  0  0  0  0
  160.8440  207.1830  154.3140 C   0  0  0  0  0  0  0  0  0  0  0  0
  160.4140  207.1990  155.5810 C   0  0  0  0  0  3  0  0  0  0  0  0
  161.9840  206.3990  150.3310 C   0  0  0  0  0  2  0  0  0  0  0  0
  161.9970  208.7260  149.7510 C   0  0  0  0  0  0  0  0  0  0  0  0
  162.2150  209.7530  148.6660 C   0  0  0  0  0  3  0  0  0  0  0  0
  161.6160  204.2740  152.2080 O   0  0  0  0  0  0  0  0  0  0  0  0
  160.5530  203.4250  151.8000 C   0  0  0  0  0  2  0  0  0  0  0  0
  161.1100  202.0720  151.4030 C   0  0  0  0  0  2  0  0  0  0  0  0
  160.8370  201.7780  149.9320 C   0  0  0  0  0  2  0  0  0  0  0  0
  160.7220  203.0500  149.0920 C   0  0  0  0  0  2  0  0  0  0  0  0
  160.9430  201.5070  146.8920 S   0  0  0  0  0  0  0  0  0  0  0  0
  161.2990  202.8740  147.7270 C   0  0  0  0  0  0  0  0  0  0  0  0
  161.6640  204.6290  145.8770 C   0  0  0  0  0  0  0  0  0  0  0  0
  160.8660  204.0850  145.0210 N   0  0  0  0  0  2  0  0  0  0  0  0
  162.4140  205.8530  145.4940 C   0  0  0  0  0  1  0  0  0  0  0  0
  161.9720  203.9870  147.1210 N   0  0  0  0  0  2  0  0  0  0  0  0
  1  6  1  0  0  0  0
  2  5  1  0  0  0  0
  3  7  1  0  0  0  0
  3  2  2  0  0  0  0
  4  7  2  0  0  0  0
  5 14  2  0  0  0  0
  5 16  1  0  0  0  0
  8 12  1  0  0  0  0
  9  1  2  0  0  0  0
 10 19  2  0  0  0  0
 10 18  1  0  0  0  0
 11  4  1  0  0  0  0
 12 16  2  0  0  0  0
 13  2  1  0  0  0  0
 13  8  2  0  0  0  0
 14  9  1  0  0  0  0
 15 11  1  0  0  0  0
 16 17  1  0  0  0  0
 17  6  2  0  0  0  0
 18 13  1  0  0  0  0
 19  3  1  0  0  0  0
 20 11  2  0  0  0  0
 20 19  1  0  0  0  0
 21  8  1  0  0  0  0
 22 21  1  0  0  0  0
 23 22  1  0  0  0  0
 24 23  1  0  0  0  0
 25 24  1  0  0  0  0
 26 27  2  0  0  0  0
 27 25  1  0  0  0  0
 28 31  1  0  0  0  0
 29 28  2  0  0  0  0
 30 28  1  0  0  0  0
 31 27  1  0  0  0  0
M  END
>  <MODEL>
4

>  <REMARK>
 VINA RESULT:      -8.4      3.878      7.656
  Name = 
  7 active torsions:
  status: ('A' for Active; 'I' for Inactive)
    1  A    between atoms: C_3  and  C_19
    2  A    between atoms: C_3  and  C_22
    3  A    between atoms: C_7  and  C_9
    4  A    between atoms: C_7  and  C_22
    5  A    between atoms: C_9  and  O_23
    6  A    between atoms: C_15  and  O_23
    7  A    between atoms: C_19  and  N_24
                            x       y       z     vdW  Elec       q    Type
                         _______ _______ _______ _____ _____    ______ ____

>  <TORSDO>
F 7

$$$$
=
 OpenBabel11052422333D

 31 34  0  0  1  0  0  0  0  0999 V2000
  162.3080  210.0890  148.7080 C   0  0  0  0  0  3  0  0  0  0  0  0
  161.2300  208.0160  152.7150 C   0  0  0  0  0  0  0  0  0  0  0  0
  161.1990  208.8910  153.8670 C   0  0  2  0  0  3  0  0  0  0  0  0
  161.4880  211.1050  154.9420 C   0  0  0  0  0  3  0  0  0  0  0  0
  161.5110  208.4520  151.3620 C   0  0  0  0  0  0  0  0  0  0  0  0
  162.3450  208.8510  148.3460 N   0  0  0  0  0  0  0  0  0  0  0  0
  161.4910  210.2000  153.7840 C   0  0  0  0  0  3  0  0  0  0  0  0
  161.0510  205.7000  151.8840 C   0  0  0  0  0  0  0  0  0  0  0  0
  161.8810  210.5930  150.0030 C   0  0  0  0  0  3  0  0  0  0  0  0
  160.6520  207.0100  155.3130 C   0  0  0  0  0  3  0  0  0  0  0  0
  161.1800  210.6580  156.1550 C   0  0  0  0  0  0  0  0  0  0  0  0
  161.4150  206.1380  150.6270 C   0  0  0  0  0  3  0  0  0  0  0  0
  160.9820  206.6240  152.9420 C   0  0  0  0  0  0  0  0  0  0  0  0
  161.5570  209.9040  151.0850 C   0  0  0  0  0  3  0  0  0  0  0  0
  161.1850  211.5190  157.2020 F   0  0  0  0  0  0  0  0  0  0  0  0
  161.6500  207.4740  150.3360 C   0  0  0  0  0  0  0  0  0  0  0  0
  162.0010  207.6600  149.0580 C   0  0  0  0  0  3  0  0  0  0  0  0
  160.7070  206.1570  154.2290 C   0  0  0  0  0  3  0  0  0  0  0  0
  160.8910  208.3640  155.1490 C   0  0  0  0  0  0  0  0  0  0  0  0
  160.8120  209.2230  156.3880 C   0  0  0  0  0  3  0  0  0  0  0  0
  160.8110  204.3270  152.0350 O   0  0  0  0  0  0  0  0  0  0  0  0
  161.5870  203.3170  151.4050 C   0  0  0  0  0  2  0  0  0  0  0  0
  160.7100  202.5240  150.4560 C   0  0  0  0  0  2  0  0  0  0  0  0
  160.9410  202.9520  149.0120 C   0  0  0  0  0  2  0  0  0  0  0  0
  160.5470  201.8670  148.0090 C   0  0  0  0  0  2  0  0  0  0  0  0
  160.1210  201.4630  145.3780 S   0  0  0  0  0  0  0  0  0  0  0  0
  160.8580  202.2640  146.6050 C   0  0  0  0  0  0  0  0  0  0  0  0
  161.3640  204.5140  145.4560 C   0  0  0  0  0  0  0  0  0  0  0  0
  160.5020  204.3730  144.5040 N   0  0  0  0  0  2  0  0  0  0  0  0
  162.2250  205.7250  145.4800 C   0  0  0  0  0  1  0  0  0  0  0  0
  161.6280  203.4560  146.3860 N   0  0  0  0  0  2  0  0  0  0  0  0
  1  9  1  0  0  0  0
  2 13  1  0  0  0  0
  2  3  1  0  0  0  0
  3  7  1  1  0  0  0
  3 19  1  0  0  0  0
  4 11  1  0  0  0  0
  5  2  2  0  0  0  0
  6  1  2  0  0  0  0
  6 17  1  0  0  0  0
  7  4  2  0  0  0  0
  8 21  1  0  0  0  0
  8 13  1  0  0  0  0
  9 14  2  0  0  0  0
 11 20  2  0  0  0  0
 11 15  1  0  0  0  0
 12  8  2  0  0  0  0
 13 18  2  0  0  0  0
 14  5  1  0  0  0  0
 16 12  1  0  0  0  0
 16  5  1  0  0  0  0
 17 16  2  0  0  0  0
 18 10  1  0  0  0  0
 19 10  2  0  0  0  0
 19 20  1  0  0  0  0
 22 21  1  0  0  0  0
 23 22  1  0  0  0  0
 24 23  1  0  0  0  0
 25 24  1  0  0  0  0
 26 27  2  0  0  0  0
 27 25  1  0  0  0  0
 28 30  1  0  0  0  0
 28 31  1  0  0  0  0
 29 28  2  0  0  0  0
 31 27  1  0  0  0  0
M  END
>  <MODEL>
5

>  <REMARK>
 VINA RESULT:      -8.4      4.348      8.017
  Name = 
  7 active torsions:
  status: ('A' for Active; 'I' for Inactive)
    1  A    between atoms: C_3  and  C_19
    2  A    between atoms: C_3  and  C_22
    3  A    between atoms: C_7  and  C_9
    4  A    between atoms: C_7  and  C_22
    5  A    between atoms: C_9  and  O_23
    6  A    between atoms: C_15  and  O_23
    7  A    between atoms: C_19  and  N_24
                            x       y       z     vdW  Elec       q    Type
                         _______ _______ _______ _____ _____    ______ ____

>  <TORSDO>
F 7

$$$$
=
 OpenBabel11052422333D

 31 34  0  0  1  0  0  0  0  0999 V2000
  161.0620  203.9320  148.9140 C   0  0  0  0  0  3  0  0  0  0  0  0
  161.5050  207.9500  151.1910 C   0  0  0  0  0  0  0  0  0  0  0  0
  161.2230  207.8830  152.6090 C   0  0  2  0  0  3  0  0  0  0  0  0
  160.5220  206.6580  154.6460 C   0  0  0  0  0  3  0  0  0  0  0  0
  161.4600  206.8130  150.2920 C   0  0  0  0  0  0  0  0  0  0  0  0
  161.2130  204.7450  147.9230 N   0  0  0  0  0  0  0  0  0  0  0  0
  160.8340  206.7480  153.2120 C   0  0  0  0  0  3  0  0  0  0  0  0
  162.0590  209.3930  149.2670 C   0  0  0  0  0  0  0  0  0  0  0  0
  161.1740  204.2670  150.3240 C   0  0  0  0  0  3  0  0  0  0  0  0
  161.6410  210.2710  152.8300 C   0  0  0  0  0  3  0  0  0  0  0  0
  160.6210  207.7250  155.4320 C   0  0  0  0  0  0  0  0  0  0  0  0
  161.9150  208.3060  148.4290 C   0  0  0  0  0  3  0  0  0  0  0  0
  161.8300  209.2330  150.6460 C   0  0  0  0  0  0  0  0  0  0  0  0
  161.3370  205.4600  150.8740 C   0  0  0  0  0  3  0  0  0  0  0  0
  160.3270  207.6090  156.7500 F   0  0  0  0  0  0  0  0  0  0  0  0
  161.6200  207.0320  148.8940 C   0  0  0  0  0  0  0  0  0  0  0  0
  161.5170  206.1430  147.9000 C   0  0  0  0  0  3  0  0  0  0  0  0
  161.8830  210.3580  151.4740 C   0  0  0  0  0  3  0  0  0  0  0  0
  161.3160  209.0550  153.4050 C   0  0  0  0  0  0  0  0  0  0  0  0
  161.0660  209.0520  154.8940 C   0  0  0  0  0  3  0  0  0  0  0  0
  162.3900  210.6170  148.6710 O   0  0  0  0  0  0  0  0  0  0  0  0
  161.4570  211.4320  147.9750 C   0  0  0  0  0  2  0  0  0  0  0  0
  161.5510  212.8560  148.4850 C   0  0  0  0  0  2  0  0  0  0  0  0
  160.2030  213.3410  149.0060 C   0  0  0  0  0  2  0  0  0  0  0  0
  160.1830  213.4930  150.5270 C   0  0  0  0  0  2  0  0  0  0  0  0
  157.5410  213.6090  150.0010 S   0  0  0  0  0  0  0  0  0  0  0  0
  158.7980  213.6730  151.0530 C   0  0  0  0  0  0  0  0  0  0  0  0
  158.5410  212.5750  153.3690 C   0  0  0  0  0  0  0  0  0  0  0  0
  158.3960  211.3700  152.9280 N   0  0  0  0  0  2  0  0  0  0  0  0
  158.4610  212.8260  154.8320 C   0  0  0  0  0  1  0  0  0  0  0  0
  158.6050  213.6940  152.4750 N   0  0  0  0  0  2  0  0  0  0  0  0
  1  9  1  0  0  0  0
  2  3  1  0  0  0  0
  3  7  1  6  0  0  0
  3 19  1  0  0  0  0
  4 11  1  0  0  0  0
  5 14  1  0  0  0  0
  5  2  2  0  0  0  0
  6  1  2  0  0  0  0
  7  4  2  0  0  0  0
  8 13  1  0  0  0  0
  9 14  2  0  0  0  0
 10 19  2  0  0  0  0
 11 15  1  0  0  0  0
 12 16  1  0  0  0  0
 12  8  2  0  0  0  0
 13  2  1  0  0  0  0
 13 18  2  0  0  0  0
 16  5  1  0  0  0  0
 17  6  1  0  0  0  0
 17 16  2  0  0  0  0
 18 10  1  0  0  0  0
 19 20  1  0  0  0  0
 20 11  2  0  0  0  0
 21  8  1  0  0  0  0
 22 23  1  0  0  0  0
 22 21  1  0  0  0  0
 23 24  1  0  0  0  0
 24 25  1  0  0  0  0
 25 27  1  0  0  0  0
 26 27  2  0  0  0  0
 27 31  1  0  0  0  0
 28 30  1  0  0  0  0
 29 28  2  0  0  0  0
 31 28  1  0  0  0  0
M  END
>  <MODEL>
6

>  <REMARK>
 VINA RESULT:      -8.4      3.435      6.319
  Name = 
  7 active torsions:
  status: ('A' for Active; 'I' for Inactive)
    1  A    between atoms: C_3  and  C_19
    2  A    between atoms: C_3  and  C_22
    3  A    between atoms: C_7  and  C_9
    4  A    between atoms: C_7  and  C_22
    5  A    between atoms: C_9  and  O_23
    6  A    between atoms: C_15  and  O_23
    7  A    between atoms: C_19  and  N_24
                            x       y       z     vdW  Elec       q    Type
                         _______ _______ _______ _____ _____    ______ ____

>  <TORSDO>
F 7

$$$$
=
 OpenBabel11052422333D

 31 34  0  0  0  0  0  0  0  0999 V2000
  160.8790  203.0520  149.5370 C   0  0  0  0  0  3  0  0  0  0  0  0
  161.3340  207.2280  151.5040 C   0  0  0  0  0  0  0  0  0  0  0  0
  161.5760  208.3160  150.5810 C   0  0  0  0  0  0  0  0  0  0  0  0
  161.9550  209.2060  148.2990 C   0  0  0  0  0  3  0  0  0  0  0  0
  161.1300  205.8480  151.1100 C   0  0  0  0  0  0  0  0  0  0  0  0
  160.9290  202.7170  150.7830 N   0  0  0  0  0  0  0  0  0  0  0  0
  161.6890  208.1230  149.2560 C   0  0  0  0  0  2  0  0  0  0  0  0
  161.1460  206.5350  153.8650 C   0  0  0  0  0  0  0  0  0  0  0  0
  160.8300  204.4070  149.0140 C   0  0  0  0  0  3  0  0  0  0  0  0
  161.7090  209.8920  152.4320 C   0  0  0  0  0  3  0  0  0  0  0  0
  162.0920  210.4620  148.7140 C   0  0  0  0  0  0  0  0  0  0  0  0
  161.0490  205.2210  153.4570 C   0  0  0  0  0  3  0  0  0  0  0  0
  161.3160  207.5450  152.9000 C   0  0  0  0  0  0  0  0  0  0  0  0
  160.9350  205.5470  149.6760 C   0  0  0  0  0  3  0  0  0  0  0  0
  162.3350  211.4380  147.8060 F   0  0  0  0  0  0  0  0  0  0  0  0
  161.0410  204.8480  152.1200 C   0  0  0  0  0  0  0  0  0  0  0  0
  160.9520  203.5220  151.9650 C   0  0  0  0  0  3  0  0  0  0  0  0
  161.5100  208.8610  153.3280 C   0  0  0  0  0  3  0  0  0  0  0  0
  161.7420  209.6380  151.0710 C   0  0  0  0  0  0  0  0  0  0  0  0
  161.9670  210.8240  150.1640 C   0  0  0  0  0  3  0  0  0  0  0  0
  161.1100  206.7770  155.2450 O   0  0  0  0  0  0  0  0  0  0  0  0
  159.9890  207.3320  155.9190 C   0  0  0  0  0  2  0  0  0  0  0  0
  160.4600  208.0900  157.1440 C   0  0  0  0  0  2  0  0  0  0  0  0
  160.6630  209.5670  156.8290 C   0  0  0  0  0  2  0  0  0  0  0  0
  159.4660  210.1810  156.1030 C   0  0  0  0  0  2  0  0  0  0  0  0
  159.7010  212.6620  157.1330 S   0  0  0  0  0  0  0  0  0  0  0  0
  159.6530  211.6400  155.8510 C   0  0  0  0  0  0  0  0  0  0  0  0
  159.0840  212.3930  153.4530 C   0  0  0  0  0  0  0  0  0  0  0  0
  157.8320  212.0820  153.5120 N   0  0  0  0  0  2  0  0  0  0  0  0
  159.6370  212.9370  152.1870 C   0  0  0  0  0  1  0  0  0  0  0  0
  159.9830  212.0660  154.5200 N   0  0  0  0  0  2  0  0  0  0  0  0
  1  6  1  0  0  0  0
  2 13  1  0  0  0  0
  3 19  1  0  0  0  0
  3  2  2  0  0  0  0
  4 11  2  0  0  0  0
  4  7  1  0  0  0  0
  5  2  1  0  0  0  0
  5 16  1  0  0  0  0
  6 17  2  0  0  0  0
  7  3  1  0  0  0  0
  8 21  1  0  0  0  0
  9  1  2  0  0  0  0
  9 14  1  0  0  0  0
 10 18  2  0  0  0  0
 11 20  1  0  0  0  0
 12  8  1  0  0  0  0
 13 18  1  0  0  0  0
 13  8  2  0  0  0  0
 14  5  2  0  0  0  0
 15 11  1  0  0  0  0
 16 12  2  0  0  0  0
 17 16  1  0  0  0  0
 19 10  1  0  0  0  0
 20 19  2  0  0  0  0
 21 22  1  0  0  0  0
 22 23  1  0  0  0  0
 24 23  1  0  0  0  0
 25 24  1  0  0  0  0
 27 25  1  0  0  0  0
 27 26  2  0  0  0  0
 28 29  2  0  0  0  0
 28 31  1  0  0  0  0
 30 28  1  0  0  0  0
 31 27  1  0  0  0  0
M  END
>  <MODEL>
7

>  <REMARK>
 VINA RESULT:      -8.3      2.605      4.615
  Name = 
  7 active torsions:
  status: ('A' for Active; 'I' for Inactive)
    1  A    between atoms: C_3  and  C_19
    2  A    between atoms: C_3  and  C_22
    3  A    between atoms: C_7  and  C_9
    4  A    between atoms: C_7  and  C_22
    5  A    between atoms: C_9  and  O_23
    6  A    between atoms: C_15  and  O_23
    7  A    between atoms: C_19  and  N_24
                            x       y       z     vdW  Elec       q    Type
                         _______ _______ _______ _____ _____    ______ ____

>  <TORSDO>
F 7

$$$$
=
 OpenBabel11052422333D

 31 34  0  0  0  0  0  0  0  0999 V2000
  162.0290  210.9590  148.9100 C   0  0  0  0  0  3  0  0  0  0  0  0
  161.4210  206.6790  150.5940 C   0  0  0  0  0  0  0  0  0  0  0  0
  161.3760  205.6310  149.5970 C   0  0  0  0  0  0  0  0  0  0  0  0
  161.4110  204.8410  147.2480 C   0  0  0  0  0  3  0  0  0  0  0  0
  161.6330  208.0820  150.2980 C   0  0  0  0  0  0  0  0  0  0  0  0
  161.7620  211.2300  150.1440 N   0  0  0  0  0  0  0  0  0  0  0  0
  161.4750  205.8840  148.2820 C   0  0  0  0  0  2  0  0  0  0  0  0
  161.1920  207.2620  152.9810 C   0  0  0  0  0  0  0  0  0  0  0  0
  162.2160  209.6330  148.3440 C   0  0  0  0  0  3  0  0  0  0  0  0
  161.0030  203.9630  151.3310 C   0  0  0  0  0  3  0  0  0  0  0  0
  161.2580  203.5630  147.5800 C   0  0  0  0  0  0  0  0  0  0  0  0
  161.3030  208.5970  152.6500 C   0  0  0  0  0  3  0  0  0  0  0  0
  161.2220  206.2960  151.9590 C   0  0  0  0  0  0  0  0  0  0  0  0
  162.0480  208.4590  148.9300 C   0  0  0  0  0  3  0  0  0  0  0  0
  161.2050  202.6250  146.6040 F   0  0  0  0  0  0  0  0  0  0  0  0
  161.5160  209.0350  151.3510 C   0  0  0  0  0  0  0  0  0  0  0  0
  161.5780  210.3690  151.2700 C   0  0  0  0  0  3  0  0  0  0  0  0
  161.0120  204.9550  152.2910 C   0  0  0  0  0  3  0  0  0  0  0  0
  161.1840  204.2820  149.9960 C   0  0  0  0  0  0  0  0  0  0  0  0
  161.1570  203.1350  149.0140 C   0  0  0  0  0  3  0  0  0  0  0  0
  161.0110  206.9540  154.3360 O   0  0  0  0  0  0  0  0  0  0  0  0
  161.5660  207.7170  155.3980 C   0  0  0  0  0  2  0  0  0  0  0  0
  160.4920  208.0040  156.4290 C   0  0  0  0  0  2  0  0  0  0  0  0
  159.5370  209.0850  155.9360 C   0  0  0  0  0  2  0  0  0  0  0  0
  159.3930  210.2370  156.9310 C   0  0  0  0  0  2  0  0  0  0  0  0
  159.8080  212.7060  155.9310 S   0  0  0  0  0  0  0  0  0  0  0  0
  160.3580  211.3400  156.6530 C   0  0  0  0  0  0  0  0  0  0  0  0
  162.9110  211.0200  156.5060 C   0  0  0  0  0  0  0  0  0  0  0  0
  162.9220  210.6110  155.2810 N   0  0  0  0  0  2  0  0  0  0  0  0
  164.1890  211.0860  157.2600 C   0  0  0  0  0  1  0  0  0  0  0  0
  161.6800  211.2470  157.2050 N   0  0  0  0  0  2  0  0  0  0  0  0
  1  6  1  0  0  0  0
  2 13  1  0  0  0  0
  3 19  1  0  0  0  0
  3  2  2  0  0  0  0
  4 11  2  0  0  0  0
  4  7  1  0  0  0  0
  5  2  1  0  0  0  0
  5 16  1  0  0  0  0
  6 17  2  0  0  0  0
  7  3  1  0  0  0  0
  8 21  1  0  0  0  0
  9  1  2  0  0  0  0
  9 14  1  0  0  0  0
 10 18  2  0  0  0  0
 11 20  1  0  0  0  0
 12  8  1  0  0  0  0
 13 18  1  0  0  0  0
 13  8  2  0  0  0  0
 14  5  2  0  0  0  0
 15 11  1  0  0  0  0
 16 12  2  0  0  0  0
 17 16  1  0  0  0  0
 19 10  1  0  0  0  0
 20 19  2  0  0  0  0
 21 22  1  0  0  0  0
 22 23  1  0  0  0  0
 24 23  1  0  0  0  0
 24 25  1  0  0  0  0
 26 27  2  0  0  0  0
 27 25  1  0  0  0  0
 27 31  1  0  0  0  0
 28 31  1  0  0  0  0
 28 30  1  0  0  0  0
 29 28  2  0  0  0  0
M  END
>  <MODEL>
8

>  <REMARK>
 VINA RESULT:      -8.3      1.578      2.165
  Name = 
  7 active torsions:
  status: ('A' for Active; 'I' for Inactive)
    1  A    between atoms: C_3  and  C_19
    2  A    between atoms: C_3  and  C_22
    3  A    between atoms: C_7  and  C_9
    4  A    between atoms: C_7  and  C_22
    5  A    between atoms: C_9  and  O_23
    6  A    between atoms: C_15  and  O_23
    7  A    between atoms: C_19  and  N_24
                            x       y       z     vdW  Elec       q    Type
                         _______ _______ _______ _____ _____    ______ ____

>  <TORSDO>
F 7

$$$$
=
 OpenBabel11052422333D

 31 34  0  0  1  0  0  0  0  0999 V2000
  160.8240  203.2370  150.0850 C   0  0  0  0  0  3  0  0  0  0  0  0
  161.4460  207.5790  151.5950 C   0  0  0  0  0  0  0  0  0  0  0  0
  161.2010  207.7760  153.0080 C   0  0  2  0  0  3  0  0  0  0  0  0
  160.5190  206.9580  155.2460 C   0  0  0  0  0  3  0  0  0  0  0  0
  161.3440  206.3030  150.9160 C   0  0  0  0  0  0  0  0  0  0  0  0
  160.9720  203.8550  148.9610 N   0  0  0  0  0  0  0  0  0  0  0  0
  160.7960  206.7800  153.8130 C   0  0  0  0  0  3  0  0  0  0  0  0
  161.9900  208.6370  149.4330 C   0  0  0  0  0  0  0  0  0  0  0  0
  160.9840  203.8150  151.4090 C   0  0  0  0  0  3  0  0  0  0  0  0
  161.6950  210.1500  152.7890 C   0  0  0  0  0  3  0  0  0  0  0  0
  160.6710  208.1440  155.8260 C   0  0  0  0  0  0  0  0  0  0  0  0
  161.7920  207.4230  148.8060 C   0  0  0  0  0  3  0  0  0  0  0  0
  161.7940  208.7330  150.8230 C   0  0  0  0  0  0  0  0  0  0  0  0
  161.1960  205.0800  151.7330 C   0  0  0  0  0  3  0  0  0  0  0  0
  160.4100  208.2750  157.1490 F   0  0  0  0  0  0  0  0  0  0  0  0
  161.4730  206.2630  149.4980 C   0  0  0  0  0  0  0  0  0  0  0  0
  161.3160  205.2150  148.6820 C   0  0  0  0  0  3  0  0  0  0  0  0
  161.9030  209.9850  151.4340 C   0  0  0  0  0  3  0  0  0  0  0  0
  161.3500  209.0670  153.5790 C   0  0  0  0  0  0  0  0  0  0  0  0
  161.1400  209.3390  155.0500 C   0  0  0  0  0  3  0  0  0  0  0  0
  162.3410  209.7230  148.6200 O   0  0  0  0  0  0  0  0  0  0  0  0
  161.9570  211.0650  148.8890 C   0  0  0  0  0  2  0  0  0  0  0  0
  162.6650  211.9950  147.9250 C   0  0  0  0  0  2  0  0  0  0  0  0
  161.9690  213.3490  147.8610 C   0  0  0  0  0  2  0  0  0  0  0  0
  161.3570  213.6300  146.4880 C   0  0  0  0  0  2  0  0  0  0  0  0
  159.6790  212.2140  144.9230 S   0  0  0  0  0  0  0  0  0  0  0  0
  160.0200  212.9870  146.3290 C   0  0  0  0  0  0  0  0  0  0  0  0
  157.8040  213.3300  147.5990 C   0  0  0  0  0  0  0  0  0  0  0  0
  157.2680  214.1070  146.7190 N   0  0  0  0  0  2  0  0  0  0  0  0
  157.0580  213.0240  148.8470 C   0  0  0  0  0  1  0  0  0  0  0  0
  159.1650  212.8960  147.4790 N   0  0  0  0  0  2  0  0  0  0  0  0
  1  9  1  0  0  0  0
  2  3  1  0  0  0  0
  3 19  1  0  0  0  0
  3  7  1  6  0  0  0
  4 11  1  0  0  0  0
  5  2  2  0  0  0  0
  5 14  1  0  0  0  0
  6  1  2  0  0  0  0
  7  4  2  0  0  0  0
  8 13  1  0  0  0  0
  9 14  2  0  0  0  0
 10 19  2  0  0  0  0
 11 15  1  0  0  0  0
 12  8  2  0  0  0  0
 12 16  1  0  0  0  0
 13 18  2  0  0  0  0
 13  2  1  0  0  0  0
 16  5  1  0  0  0  0
 17  6  1  0  0  0  0
 17 16  2  0  0  0  0
 18 10  1  0  0  0  0
 19 20  1  0  0  0  0
 20 11  2  0  0  0  0
 21 22  1  0  0  0  0
 21  8  1  0  0  0  0
 23 22  1  0  0  0  0
 24 23  1  0  0  0  0
 25 24  1  0  0  0  0
 26 27  2  0  0  0  0
 27 25  1  0  0  0  0
 27 31  1  0  0  0  0
 28 30  1  0  0  0  0
 29 28  2  0  0  0  0
 31 28  1  0  0  0  0
M  END
>  <MODEL>
9

>  <REMARK>
 VINA RESULT:      -8.2      4.332      7.313
  Name = 
  7 active torsions:
  status: ('A' for Active; 'I' for Inactive)
    1  A    between atoms: C_3  and  C_19
    2  A    between atoms: C_3  and  C_22
    3  A    between atoms: C_7  and  C_9
    4  A    between atoms: C_7  and  C_22
    5  A    between atoms: C_9  and  O_23
    6  A    between atoms: C_15  and  O_23
    7  A    between atoms: C_19  and  N_24
                            x       y       z     vdW  Elec       q    Type
                         _______ _______ _______ _____ _____    ______ ____

>  <TORSDO>
F 7

$$$$
