=
 OpenBabel11062410463D

 32 36  0  0  1  0  0  0  0  0999 V2000
  161.2190  203.6560  150.0760 C   0  0  0  0  0  3  0  0  0  0  0  0
  160.8300  208.4550  152.2260 C   0  0  0  0  0  0  0  0  0  0  0  0
  160.6240  207.3750  156.9680 C   0  0  0  0  0  3  0  0  0  0  0  0
  160.5290  208.7360  157.2610 C   0  0  0  0  0  3  0  0  0  0  0  0
  161.0190  206.7570  150.5030 N   0  0  0  0  0  0  0  0  0  0  0  0
  160.9220  206.1670  152.9220 C   0  0  0  0  0  3  0  0  0  0  0  0
  161.1080  204.4240  151.3150 C   0  0  0  0  0  3  0  0  0  0  0  0
  160.7250  206.9500  155.6420 C   0  0  0  0  0  3  0  0  0  0  0  0
  160.8310  207.4680  153.2410 C   0  0  0  0  0  0  0  0  0  0  0  0
  160.7330  207.8820  154.5870 C   0  0  0  0  0  0  0  0  0  0  0  0
  160.6480  210.1980  153.8410 C   0  0  0  0  0  0  0  0  0  0  0  0
  161.2080  205.4670  148.3840 C   0  0  0  0  0  3  0  0  0  0  0  0
  161.0220  205.7350  151.5220 C   0  0  0  0  0  0  0  0  0  0  0  0
  161.1060  206.5920  149.0850 C   0  0  0  0  0  3  0  0  0  0  0  0
  161.2650  204.0630  148.8140 C   0  0  0  0  0  0  0  0  0  0  0  0
  160.5350  209.6740  156.2280 C   0  0  0  0  0  3  0  0  0  0  0  0
  160.6390  209.2630  154.8900 C   0  0  0  0  0  0  0  0  0  0  0  0
  160.9190  208.1230  150.9310 C   0  0  0  0  0  3  0  0  0  0  0  0
  160.7400  209.7690  152.5550 N   0  0  0  0  0  0  0  0  0  0  0  0
  160.8280  201.7060  147.8810 C   0  0  0  0  0  0  0  0  0  0  0  0
  161.3770  203.0290  147.8250 N   0  0  0  0  0  2  0  0  0  0  0  0
  160.1570  201.3170  148.8710 O   0  0  0  0  0  0  0  0  0  0  0  0
  161.0490  200.8150  146.7950 N   0  0  0  0  0  1  0  0  0  0  0  0
  160.5710  211.6720  154.1050 C   0  0  0  0  0  2  0  0  0  0  0  0
  158.8480  212.7730  152.6400 C   0  0  0  0  0  0  0  0  0  0  0  0
  158.0700  212.2330  154.6790 C   0  0  0  0  0  0  0  0  0  0  0  0
  157.0380  212.8140  154.0890 C   0  0  0  0  0  3  0  0  0  0  0  0
  157.4270  213.2250  152.7010 C   0  0  0  0  0  3  0  0  0  0  0  0
  158.0390  211.6950  156.0660 C   0  0  0  0  0  1  0  0  0  0  0  0
  159.2060  212.1970  153.7770 C   0  0  2  0  0  3  0  0  0  0  0  0
  159.7060  212.9630  151.5000 C   0  0  0  0  0  0  0  0  0  0  0  0
  160.3950  213.1130  150.5820 N   0  0  0  0  0  0  0  0  0  0  0  0
  1  7  1  0  0  0  0
  2 19  1  0  0  0  0
  2  9  1  0  0  0  0
  3  4  1  0  0  0  0
  5 18  1  0  0  0  0
  5 13  1  0  0  0  0
  6  9  2  0  0  0  0
  7 13  2  0  0  0  0
  8  3  2  0  0  0  0
  9 10  1  0  0  0  0
 10 17  2  0  0  0  0
 10  8  1  0  0  0  0
 11 24  1  0  0  0  0
 11 17  1  0  0  0  0
 12 15  1  0  0  0  0
 12 14  2  0  0  0  0
 13  6  1  0  0  0  0
 14  5  1  0  0  0  0
 15  1  2  0  0  0  0
 16  4  2  0  0  0  0
 17 16  1  0  0  0  0
 18  2  2  0  0  0  0
 19 11  2  0  0  0  0
 20 22  2  0  0  0  0
 21 20  1  0  0  0  0
 21 15  1  0  0  0  0
 23 20  1  0  0  0  0
 25 28  2  0  0  0  0
 25 30  1  0  0  0  0
 26 29  1  0  0  0  0
 27 26  2  0  0  0  0
 28 27  1  0  0  0  0
 30 24  1  1  0  0  0
 30 26  1  0  0  0  0
 31 25  1  0  0  0  0
 32 31  3  0  0  0  0
M  END
>  <MODEL>
1

>  <REMARK>
 VINA RESULT:      -9.3      0.000      0.000
  Name = 
  4 active torsions:
  status: ('A' for Active; 'I' for Inactive)
    1  A    between atoms: C_6  and  C_7
    2  A    between atoms: N_10  and  C_24
    3  A    between atoms: C_16  and  C_27
    4  A    between atoms: C_27  and  C_32
                            x       y       z     vdW  Elec       q    Type
                         _______ _______ _______ _____ _____    ______ ____

>  <TORSDO>
F 4

$$$$
=
 OpenBabel11062410463D

 32 36  0  0  1  0  0  0  0  0999 V2000
  160.8180  202.5840  149.7590 C   0  0  0  0  0  3  0  0  0  0  0  0
  161.2140  207.6340  151.2220 C   0  0  0  0  0  0  0  0  0  0  0  0
  160.5230  207.3030  156.0290 C   0  0  0  0  0  3  0  0  0  0  0  0
  160.6690  208.6870  156.1330 C   0  0  0  0  0  3  0  0  0  0  0  0
  161.1830  205.7000  149.7590 N   0  0  0  0  0  0  0  0  0  0  0  0
  160.8300  205.4910  152.2160 C   0  0  0  0  0  3  0  0  0  0  0  0
  160.7800  203.5310  150.8730 C   0  0  0  0  0  3  0  0  0  0  0  0
  160.6220  206.6810  154.7840 C   0  0  0  0  0  3  0  0  0  0  0  0
  160.9680  206.8200  152.3540 C   0  0  0  0  0  0  0  0  0  0  0  0
  160.8690  207.4340  153.6210 C   0  0  0  0  0  0  0  0  0  0  0  0
  161.2680  209.5970  152.5740 C   0  0  0  0  0  0  0  0  0  0  0  0
  161.2510  204.1050  147.8500 C   0  0  0  0  0  3  0  0  0  0  0  0
  160.9310  204.8510  150.8980 C   0  0  0  0  0  0  0  0  0  0  0  0
  161.3220  205.3200  148.3870 C   0  0  0  0  0  3  0  0  0  0  0  0
  161.0160  202.7910  148.4620 C   0  0  0  0  0  0  0  0  0  0  0  0
  160.9150  209.4500  154.9910 C   0  0  0  0  0  3  0  0  0  0  0  0
  161.0200  208.8390  153.7320 C   0  0  0  0  0  0  0  0  0  0  0  0
  161.3170  207.1090  149.9940 C   0  0  0  0  0  3  0  0  0  0  0  0
  161.3550  208.9770  151.3690 N   0  0  0  0  0  0  0  0  0  0  0  0
  160.8310  201.5680  146.2060 C   0  0  0  0  0  0  0  0  0  0  0  0
  160.9900  201.6220  147.6300 N   0  0  0  0  0  2  0  0  0  0  0  0
  160.6910  202.6150  145.5230 O   0  0  0  0  0  0  0  0  0  0  0  0
  160.8310  200.3050  145.5540 N   0  0  0  0  0  1  0  0  0  0  0  0
  161.4550  211.0820  152.6370 C   0  0  0  0  0  2  0  0  0  0  0  0
  160.1170  212.2960  150.8870 C   0  0  0  0  0  0  0  0  0  0  0  0
  159.0470  212.1090  152.8550 C   0  0  0  0  0  0  0  0  0  0  0  0
  158.2020  212.7890  152.0970 C   0  0  0  0  0  3  0  0  0  0  0  0
  158.8000  212.9820  150.7360 C   0  0  0  0  0  3  0  0  0  0  0  0
  158.7770  211.7310  154.2680 C   0  0  0  0  0  1  0  0  0  0  0  0
  160.2470  211.7910  152.1030 C   0  0  2  0  0  3  0  0  0  0  0  0
  161.1090  212.2210  149.8470 C   0  0  0  0  0  0  0  0  0  0  0  0
  161.9070  212.1620  149.0100 N   0  0  0  0  0  0  0  0  0  0  0  0
  1  7  1  0  0  0  0
  2 19  1  0  0  0  0
  2  9  1  0  0  0  0
  3  4  1  0  0  0  0
  5 18  1  0  0  0  0
  5 13  1  0  0  0  0
  6  9  2  0  0  0  0
  7 13  2  0  0  0  0
  8  3  2  0  0  0  0
  9 10  1  0  0  0  0
 10 17  2  0  0  0  0
 10  8  1  0  0  0  0
 11 24  1  0  0  0  0
 11 17  1  0  0  0  0
 12 14  2  0  0  0  0
 12 15  1  0  0  0  0
 13  6  1  0  0  0  0
 14  5  1  0  0  0  0
 15  1  2  0  0  0  0
 16  4  2  0  0  0  0
 17 16  1  0  0  0  0
 18  2  2  0  0  0  0
 19 11  2  0  0  0  0
 20 21  1  0  0  0  0
 21 15  1  0  0  0  0
 22 20  2  0  0  0  0
 23 20  1  0  0  0  0
 25 30  1  0  0  0  0
 26 29  1  0  0  0  0
 27 26  2  0  0  0  0
 28 25  2  0  0  0  0
 28 27  1  0  0  0  0
 30 24  1  1  0  0  0
 30 26  1  0  0  0  0
 31 25  1  0  0  0  0
 32 31  3  0  0  0  0
M  END
>  <MODEL>
2

>  <REMARK>
 VINA RESULT:      -8.8      1.336      1.698
  Name = 
  4 active torsions:
  status: ('A' for Active; 'I' for Inactive)
    1  A    between atoms: C_6  and  C_7
    2  A    between atoms: N_10  and  C_24
    3  A    between atoms: C_16  and  C_27
    4  A    between atoms: C_27  and  C_32
                            x       y       z     vdW  Elec       q    Type
                         _______ _______ _______ _____ _____    ______ ____

>  <TORSDO>
F 4

$$$$
=
 OpenBabel11062410463D

 32 36  0  0  1  0  0  0  0  0999 V2000
  160.8700  208.6720  153.4120 C   0  0  0  0  0  3  0  0  0  0  0  0
  161.7590  205.8160  149.0700 C   0  0  0  0  0  0  0  0  0  0  0  0
  160.5120  201.3580  150.5740 C   0  0  0  0  0  3  0  0  0  0  0  0
  160.8300  200.8560  149.3110 C   0  0  0  0  0  3  0  0  0  0  0  0
  161.6390  207.7650  150.5100 N   0  0  0  0  0  0  0  0  0  0  0  0
  160.9880  205.4980  151.3130 C   0  0  0  0  0  3  0  0  0  0  0  0
  160.8320  207.3420  152.8070 C   0  0  0  0  0  3  0  0  0  0  0  0
  160.6590  202.7200  150.8430 C   0  0  0  0  0  3  0  0  0  0  0  0
  161.2820  204.9820  150.1090 C   0  0  0  0  0  0  0  0  0  0  0  0
  161.1250  203.6020  149.8510 C   0  0  0  0  0  0  0  0  0  0  0  0
  161.9090  203.9660  147.5750 C   0  0  0  0  0  0  0  0  0  0  0  0
  161.7120  210.0360  151.5220 C   0  0  0  0  0  3  0  0  0  0  0  0
  161.1520  206.9330  151.5830 C   0  0  0  0  0  0  0  0  0  0  0  0
  161.8800  209.1750  150.5230 C   0  0  0  0  0  3  0  0  0  0  0  0
  161.2380  209.8390  152.8980 C   0  0  0  0  0  0  0  0  0  0  0  0
  161.2950  201.7170  148.3160 C   0  0  0  0  0  3  0  0  0  0  0  0
  161.4440  203.0890  148.5700 C   0  0  0  0  0  0  0  0  0  0  0  0
  161.9290  207.1320  149.2550 C   0  0  0  0  0  3  0  0  0  0  0  0
  162.0520  205.2870  147.8540 N   0  0  0  0  0  0  0  0  0  0  0  0
  159.9640  211.5860  154.2940 C   0  0  0  0  0  0  0  0  0  0  0  0
  161.1520  210.9680  153.7810 N   0  0  0  0  0  2  0  0  0  0  0  0
  158.8200  211.1590  153.9880 O   0  0  0  0  0  0  0  0  0  0  0  0
  160.0810  212.7040  155.1630 N   0  0  0  0  0  1  0  0  0  0  0  0
  162.2420  203.4800  146.1970 C   0  0  0  0  0  2  0  0  0  0  0  0
  160.1590  203.9980  144.8870 C   0  0  0  0  0  0  0  0  0  0  0  0
  160.4560  201.8000  145.2560 C   0  0  0  0  0  0  0  0  0  0  0  0
  159.3140  201.8590  144.5900 C   0  0  0  0  0  3  0  0  0  0  0  0
  158.9970  203.2900  144.2750 C   0  0  0  0  0  3  0  0  0  0  0  0
  161.0790  200.5340  145.7270 C   0  0  0  0  0  1  0  0  0  0  0  0
  160.9960  203.1350  145.4410 C   0  0  2  0  0  3  0  0  0  0  0  0
  160.3230  205.4280  144.8850 C   0  0  0  0  0  0  0  0  0  0  0  0
  160.4560  206.5780  144.8860 N   0  0  0  0  0  0  0  0  0  0  0  0
  2 18  2  0  0  0  0
  2  9  1  0  0  0  0
  3  8  1  0  0  0  0
  4  3  2  0  0  0  0
  5 14  1  0  0  0  0
  5 13  1  0  0  0  0
  6 13  1  0  0  0  0
  7  1  1  0  0  0  0
  9  6  2  0  0  0  0
 10  9  1  0  0  0  0
 10  8  2  0  0  0  0
 11 19  2  0  0  0  0
 11 17  1  0  0  0  0
 12 15  1  0  0  0  0
 13  7  2  0  0  0  0
 14 12  2  0  0  0  0
 15  1  2  0  0  0  0
 15 21  1  0  0  0  0
 16 17  2  0  0  0  0
 16  4  1  0  0  0  0
 17 10  1  0  0  0  0
 18  5  1  0  0  0  0
 19  2  1  0  0  0  0
 20 23  1  0  0  0  0
 21 20  1  0  0  0  0
 22 20  2  0  0  0  0
 24 11  1  0  0  0  0
 25 30  1  0  0  0  0
 26 30  1  0  0  0  0
 26 29  1  0  0  0  0
 27 26  2  0  0  0  0
 28 27  1  0  0  0  0
 28 25  2  0  0  0  0
 30 24  1  1  0  0  0
 31 32  3  0  0  0  0
 31 25  1  0  0  0  0
M  END
>  <MODEL>
3

>  <REMARK>
 VINA RESULT:      -8.7      3.012      9.362
  Name = 
  4 active torsions:
  status: ('A' for Active; 'I' for Inactive)
    1  A    between atoms: C_6  and  C_7
    2  A    between atoms: N_10  and  C_24
    3  A    between atoms: C_16  and  C_27
    4  A    between atoms: C_27  and  C_32
                            x       y       z     vdW  Elec       q    Type
                         _______ _______ _______ _____ _____    ______ ____

>  <TORSDO>
F 4

$$$$
=
 OpenBabel11062410463D

 32 36  0  0  1  0  0  0  0  0999 V2000
  160.8320  208.7900  153.6310 C   0  0  0  0  0  3  0  0  0  0  0  0
  161.7170  205.9940  149.2490 C   0  0  0  0  0  0  0  0  0  0  0  0
  160.5970  201.4950  150.7330 C   0  0  0  0  0  3  0  0  0  0  0  0
  160.9060  201.0110  149.4610 C   0  0  0  0  0  3  0  0  0  0  0  0
  161.5750  207.9270  150.7090 N   0  0  0  0  0  0  0  0  0  0  0  0
  160.9890  205.6390  151.5020 C   0  0  0  0  0  3  0  0  0  0  0  0
  160.8140  207.4650  153.0140 C   0  0  0  0  0  3  0  0  0  0  0  0
  160.7160  202.8570  151.0120 C   0  0  0  0  0  3  0  0  0  0  0  0
  161.2760  205.1390  150.2880 C   0  0  0  0  0  0  0  0  0  0  0  0
  161.1460  203.7590  150.0210 C   0  0  0  0  0  0  0  0  0  0  0  0
  161.8860  204.1600  147.7360 C   0  0  0  0  0  0  0  0  0  0  0  0
  161.6120  210.1900  151.7400 C   0  0  0  0  0  3  0  0  0  0  0  0
  161.1240  207.0740  151.7820 C   0  0  0  0  0  0  0  0  0  0  0  0
  161.7840  209.3420  150.7310 C   0  0  0  0  0  3  0  0  0  0  0  0
  161.1640  209.9710  153.1210 C   0  0  0  0  0  0  0  0  0  0  0  0
  161.3350  201.8910  148.4660 C   0  0  0  0  0  3  0  0  0  0  0  0
  161.4570  203.2640  148.7300 C   0  0  0  0  0  0  0  0  0  0  0  0
  161.8600  207.3110  149.4440 C   0  0  0  0  0  3  0  0  0  0  0  0
  162.0030  205.4820  148.0240 N   0  0  0  0  0  0  0  0  0  0  0  0
  159.8760  211.7680  154.4370 C   0  0  0  0  0  0  0  0  0  0  0  0
  161.0670  211.0890  154.0160 N   0  0  0  0  0  2  0  0  0  0  0  0
  158.7400  211.4130  154.0270 O   0  0  0  0  0  0  0  0  0  0  0  0
  159.9810  212.8640  155.3350 N   0  0  0  0  0  1  0  0  0  0  0  0
  162.2080  203.6940  146.3480 C   0  0  0  0  0  2  0  0  0  0  0  0
  160.3520  202.4720  145.1710 C   0  0  0  0  0  0  0  0  0  0  0  0
  160.2640  204.7020  144.8990 C   0  0  0  0  0  0  0  0  0  0  0  0
  159.2380  204.2550  144.1920 C   0  0  0  0  0  3  0  0  0  0  0  0
  159.1790  202.7610  144.2940 C   0  0  0  0  0  3  0  0  0  0  0  0
  160.6210  206.1410  145.0270 C   0  0  0  0  0  1  0  0  0  0  0  0
  160.9630  203.5930  145.5210 C   0  0  2  0  0  3  0  0  0  0  0  0
  160.7600  201.1480  145.5600 C   0  0  0  0  0  0  0  0  0  0  0  0
  161.0880  200.0820  145.8710 N   0  0  0  0  0  0  0  0  0  0  0  0
  2 18  2  0  0  0  0
  2  9  1  0  0  0  0
  3  8  1  0  0  0  0
  4  3  2  0  0  0  0
  5 14  1  0  0  0  0
  5 13  1  0  0  0  0
  6 13  1  0  0  0  0
  7  1  1  0  0  0  0
  9  6  2  0  0  0  0
 10  9  1  0  0  0  0
 10  8  2  0  0  0  0
 11 19  2  0  0  0  0
 11 17  1  0  0  0  0
 12 15  1  0  0  0  0
 13  7  2  0  0  0  0
 14 12  2  0  0  0  0
 15  1  2  0  0  0  0
 15 21  1  0  0  0  0
 16 17  2  0  0  0  0
 16  4  1  0  0  0  0
 17 10  1  0  0  0  0
 18  5  1  0  0  0  0
 19  2  1  0  0  0  0
 20 23  1  0  0  0  0
 21 20  1  0  0  0  0
 22 20  2  0  0  0  0
 24 11  1  0  0  0  0
 25 30  1  0  0  0  0
 25 31  1  0  0  0  0
 26 29  1  0  0  0  0
 26 30  1  0  0  0  0
 27 28  1  0  0  0  0
 27 26  2  0  0  0  0
 28 25  2  0  0  0  0
 30 24  1  6  0  0  0
 31 32  3  0  0  0  0
M  END
>  <MODEL>
4

>  <REMARK>
 VINA RESULT:      -8.5      2.984      9.437
  Name = 
  4 active torsions:
  status: ('A' for Active; 'I' for Inactive)
    1  A    between atoms: C_6  and  C_7
    2  A    between atoms: N_10  and  C_24
    3  A    between atoms: C_16  and  C_27
    4  A    between atoms: C_27  and  C_32
                            x       y       z     vdW  Elec       q    Type
                         _______ _______ _______ _____ _____    ______ ____

>  <TORSDO>
F 4

$$$$
=
 OpenBabel11062410463D

 32 36  0  0  1  0  0  0  0  0999 V2000
  161.3370  204.3470  149.5180 C   0  0  0  0  0  3  0  0  0  0  0  0
  160.9320  208.8300  152.2650 C   0  0  0  0  0  0  0  0  0  0  0  0
  160.3270  207.1390  156.7890 C   0  0  0  0  0  3  0  0  0  0  0  0
  160.2520  208.4520  157.2570 C   0  0  0  0  0  3  0  0  0  0  0  0
  161.2020  207.3700  150.3470 N   0  0  0  0  0  0  0  0  0  0  0  0
  160.8990  206.4680  152.6490 C   0  0  0  0  0  3  0  0  0  0  0  0
  161.1550  204.9480  150.8390 C   0  0  0  0  0  3  0  0  0  0  0  0
  160.5170  206.8900  155.4290 C   0  0  0  0  0  3  0  0  0  0  0  0
  160.8240  207.7180  153.1340 C   0  0  0  0  0  0  0  0  0  0  0  0
  160.6360  207.9530  154.5140 C   0  0  0  0  0  0  0  0  0  0  0  0
  160.6810  210.3490  154.0840 C   0  0  0  0  0  0  0  0  0  0  0  0
  161.5130  206.3660  148.0910 C   0  0  0  0  0  3  0  0  0  0  0  0
  161.0940  206.2220  151.2150 C   0  0  0  0  0  0  0  0  0  0  0  0
  161.3930  207.3920  148.9290 C   0  0  0  0  0  3  0  0  0  0  0  0
  161.4930  204.9170  148.3290 C   0  0  0  0  0  0  0  0  0  0  0  0
  160.3670  209.5180  156.3640 C   0  0  0  0  0  3  0  0  0  0  0  0
  160.5610  209.2840  154.9940 C   0  0  0  0  0  0  0  0  0  0  0  0
  161.1110  208.6700  150.9470 C   0  0  0  0  0  3  0  0  0  0  0  0
  160.8590  210.0920  152.7630 N   0  0  0  0  0  0  0  0  0  0  0  0
  161.2060  204.2150  145.8710 C   0  0  0  0  0  0  0  0  0  0  0  0
  161.6490  204.0200  147.2200 N   0  0  0  0  0  2  0  0  0  0  0  0
  160.6010  205.2640  145.5260 O   0  0  0  0  0  0  0  0  0  0  0  0
  161.4540  203.2040  144.9030 N   0  0  0  0  0  1  0  0  0  0  0  0
  160.6290  211.7760  154.5400 C   0  0  0  0  0  2  0  0  0  0  0  0
  158.2580  212.5740  154.7970 C   0  0  0  0  0  0  0  0  0  0  0  0
  159.1090  212.9540  152.7510 C   0  0  0  0  0  0  0  0  0  0  0  0
  157.8700  213.4130  152.6700 C   0  0  0  0  0  3  0  0  0  0  0  0
  157.1830  213.2210  153.9890 C   0  0  0  0  0  3  0  0  0  0  0  0
  160.0820  212.9890  151.6270 C   0  0  0  0  0  1  0  0  0  0  0  0
  159.3620  212.4330  154.0820 C   0  0  2  0  0  3  0  0  0  0  0  0
  158.0940  212.1500  156.1630 C   0  0  0  0  0  0  0  0  0  0  0  0
  157.9620  211.8060  157.2600 N   0  0  0  0  0  0  0  0  0  0  0  0
  1  7  1  0  0  0  0
  2 19  1  0  0  0  0
  2  9  1  0  0  0  0
  3  4  1  0  0  0  0
  5 18  1  0  0  0  0
  5 13  1  0  0  0  0
  6  9  2  0  0  0  0
  7 13  2  0  0  0  0
  8  3  2  0  0  0  0
  9 10  1  0  0  0  0
 10 17  2  0  0  0  0
 10  8  1  0  0  0  0
 11 24  1  0  0  0  0
 11 17  1  0  0  0  0
 12 15  1  0  0  0  0
 12 14  2  0  0  0  0
 13  6  1  0  0  0  0
 14  5  1  0  0  0  0
 15  1  2  0  0  0  0
 16  4  2  0  0  0  0
 17 16  1  0  0  0  0
 18  2  2  0  0  0  0
 19 11  2  0  0  0  0
 20 21  1  0  0  0  0
 21 15  1  0  0  0  0
 22 20  2  0  0  0  0
 23 20  1  0  0  0  0
 25 31  1  0  0  0  0
 26 30  1  0  0  0  0
 27 26  2  0  0  0  0
 27 28  1  0  0  0  0
 28 25  2  0  0  0  0
 29 26  1  0  0  0  0
 30 24  1  6  0  0  0
 30 25  1  0  0  0  0
 31 32  3  0  0  0  0
M  END
>  <MODEL>
5

>  <REMARK>
 VINA RESULT:      -8.4      1.637      2.325
  Name = 
  4 active torsions:
  status: ('A' for Active; 'I' for Inactive)
    1  A    between atoms: C_6  and  C_7
    2  A    between atoms: N_10  and  C_24
    3  A    between atoms: C_16  and  C_27
    4  A    between atoms: C_27  and  C_32
                            x       y       z     vdW  Elec       q    Type
                         _______ _______ _______ _____ _____    ______ ____

>  <TORSDO>
F 4

$$$$
=
 OpenBabel11062410463D

 32 36  0  0  1  0  0  0  0  0999 V2000
  160.8520  202.8830  148.6220 C   0  0  0  0  0  3  0  0  0  0  0  0
  161.7540  207.9970  149.5380 C   0  0  0  0  0  0  0  0  0  0  0  0
  160.7300  208.3220  154.2860 C   0  0  0  0  0  3  0  0  0  0  0  0
  161.0330  209.6840  154.2450 C   0  0  0  0  0  3  0  0  0  0  0  0
  161.5840  205.9160  148.3020 N   0  0  0  0  0  0  0  0  0  0  0  0
  161.0570  206.0440  150.7340 C   0  0  0  0  0  3  0  0  0  0  0  0
  160.8580  203.9540  149.6170 C   0  0  0  0  0  3  0  0  0  0  0  0
  160.8310  207.5480  153.1290 C   0  0  0  0  0  3  0  0  0  0  0  0
  161.3420  207.3560  150.7310 C   0  0  0  0  0  0  0  0  0  0  0  0
  161.2390  208.1250  151.9110 C   0  0  0  0  0  0  0  0  0  0  0  0
  161.9570  210.0880  150.6630 C   0  0  0  0  0  0  0  0  0  0  0  0
  161.5820  204.1070  146.5940 C   0  0  0  0  0  3  0  0  0  0  0  0
  161.1630  205.2430  149.5070 C   0  0  0  0  0  0  0  0  0  0  0  0
  161.7630  205.3620  146.9960 C   0  0  0  0  0  3  0  0  0  0  0  0
  161.1540  202.9100  147.3290 C   0  0  0  0  0  0  0  0  0  0  0  0
  161.4380  210.2730  153.0470 C   0  0  0  0  0  3  0  0  0  0  0  0
  161.5480  209.5070  151.8760 C   0  0  0  0  0  0  0  0  0  0  0  0
  161.8700  207.3200  148.3880 C   0  0  0  0  0  3  0  0  0  0  0  0
  162.0440  209.3230  149.5440 N   0  0  0  0  0  0  0  0  0  0  0  0
  160.3110  201.3940  145.4280 C   0  0  0  0  0  0  0  0  0  0  0  0
  161.0410  201.6590  146.6340 N   0  0  0  0  0  2  0  0  0  0  0  0
  159.6640  202.3010  144.8420 O   0  0  0  0  0  0  0  0  0  0  0  0
  160.3180  200.0810  144.8860 N   0  0  0  0  0  1  0  0  0  0  0  0
  162.3150  211.5410  150.5730 C   0  0  0  0  0  2  0  0  0  0  0  0
  160.2320  212.6950  149.7620 C   0  0  0  0  0  0  0  0  0  0  0  0
  161.7950  212.4520  148.1650 C   0  0  0  0  0  0  0  0  0  0  0  0
  160.7900  213.0440  147.5390 C   0  0  0  0  0  3  0  0  0  0  0  0
  159.6670  213.2690  148.5060 C   0  0  0  0  0  3  0  0  0  0  0  0
  163.0780  212.0820  147.5100 C   0  0  0  0  0  1  0  0  0  0  0  0
  161.4570  212.2360  149.5590 C   0  0  2  0  0  3  0  0  0  0  0  0
  159.5210  212.6370  151.0130 C   0  0  0  0  0  0  0  0  0  0  0  0
  158.9480  212.5920  152.0170 N   0  0  0  0  0  0  0  0  0  0  0  0
  1  7  1  0  0  0  0
  2 19  1  0  0  0  0
  2  9  1  0  0  0  0
  4  3  1  0  0  0  0
  5 18  1  0  0  0  0
  5 13  1  0  0  0  0
  8  3  2  0  0  0  0
  9  6  2  0  0  0  0
  9 10  1  0  0  0  0
 10  8  1  0  0  0  0
 11 17  1  0  0  0  0
 12 14  2  0  0  0  0
 12 15  1  0  0  0  0
 13  7  2  0  0  0  0
 13  6  1  0  0  0  0
 14  5  1  0  0  0  0
 15  1  2  0  0  0  0
 16  4  2  0  0  0  0
 17 10  2  0  0  0  0
 17 16  1  0  0  0  0
 18  2  2  0  0  0  0
 19 11  2  0  0  0  0
 20 21  1  0  0  0  0
 21 15  1  0  0  0  0
 22 20  2  0  0  0  0
 23 20  1  0  0  0  0
 24 11  1  0  0  0  0
 25 31  1  0  0  0  0
 26 30  1  0  0  0  0
 27 26  2  0  0  0  0
 27 28  1  0  0  0  0
 28 25  2  0  0  0  0
 29 26  1  0  0  0  0
 30 25  1  0  0  0  0
 30 24  1  6  0  0  0
 31 32  3  0  0  0  0
M  END
>  <MODEL>
6

>  <REMARK>
 VINA RESULT:      -8.4      2.279      3.773
  Name = 
  4 active torsions:
  status: ('A' for Active; 'I' for Inactive)
    1  A    between atoms: C_6  and  C_7
    2  A    between atoms: N_10  and  C_24
    3  A    between atoms: C_16  and  C_27
    4  A    between atoms: C_27  and  C_32
                            x       y       z     vdW  Elec       q    Type
                         _______ _______ _______ _____ _____    ______ ____

>  <TORSDO>
F 4

$$$$
=
 OpenBabel11062410463D

 32 36  0  0  1  0  0  0  0  0999 V2000
  160.9070  202.8950  148.1630 C   0  0  0  0  0  3  0  0  0  0  0  0
  161.7370  208.0790  148.6520 C   0  0  0  0  0  0  0  0  0  0  0  0
  161.0980  208.7120  153.4360 C   0  0  0  0  0  3  0  0  0  0  0  0
  161.3580  210.0740  153.2780 C   0  0  0  0  0  3  0  0  0  0  0  0
  161.5250  205.9140  147.5780 N   0  0  0  0  0  0  0  0  0  0  0  0
  161.1950  206.1990  150.0310 C   0  0  0  0  0  3  0  0  0  0  0  0
  160.9640  204.0330  149.0800 C   0  0  0  0  0  3  0  0  0  0  0  0
  161.1250  207.8610  152.3300 C   0  0  0  0  0  3  0  0  0  0  0  0
  161.4430  207.5140  149.9160 C   0  0  0  0  0  0  0  0  0  0  0  0
  161.4150  208.3610  151.0460 C   0  0  0  0  0  0  0  0  0  0  0  0
  161.9730  210.2480  149.6120 C   0  0  0  0  0  0  0  0  0  0  0  0
  161.4330  203.9900  146.0030 C   0  0  0  0  0  3  0  0  0  0  0  0
  161.2230  205.3180  148.8570 C   0  0  0  0  0  0  0  0  0  0  0  0
  161.6110  205.2730  146.3020 C   0  0  0  0  0  3  0  0  0  0  0  0
  161.1000  202.8380  146.8510 C   0  0  0  0  0  0  0  0  0  0  0  0
  161.6470  210.5860  152.0130 C   0  0  0  0  0  3  0  0  0  0  0  0
  161.6810  209.7440  150.8910 C   0  0  0  0  0  0  0  0  0  0  0  0
  161.7770  207.3260  147.5450 C   0  0  0  0  0  3  0  0  0  0  0  0
  161.9900  209.4090  148.5440 N   0  0  0  0  0  0  0  0  0  0  0  0
  161.4610  200.2920  146.7580 C   0  0  0  0  0  0  0  0  0  0  0  0
  160.9660  201.5400  146.2530 N   0  0  0  0  0  2  0  0  0  0  0  0
  162.0980  200.2310  147.8410 O   0  0  0  0  0  0  0  0  0  0  0  0
  161.2280  199.1010  146.0180 N   0  0  0  0  0  1  0  0  0  0  0  0
  162.2810  211.6980  149.3940 C   0  0  0  0  0  2  0  0  0  0  0  0
  160.7220  212.9110  147.8380 C   0  0  0  0  0  0  0  0  0  0  0  0
  160.0110  212.8870  149.9710 C   0  0  0  0  0  0  0  0  0  0  0  0
  159.0830  213.5830  149.3350 C   0  0  0  0  0  3  0  0  0  0  0  0
  159.4390  213.6730  147.8810 C   0  0  0  0  0  3  0  0  0  0  0  0
  159.9770  212.5940  151.4290 C   0  0  0  0  0  1  0  0  0  0  0  0
  161.0380  212.4570  149.0400 C   0  0  2  0  0  3  0  0  0  0  0  0
  161.5060  212.7230  146.6460 C   0  0  0  0  0  0  0  0  0  0  0  0
  162.1390  212.5700  145.6890 N   0  0  0  0  0  0  0  0  0  0  0  0
  1  7  1  0  0  0  0
  2  9  1  0  0  0  0
  4  3  1  0  0  0  0
  5 13  1  0  0  0  0
  8  3  2  0  0  0  0
  9  6  2  0  0  0  0
  9 10  1  0  0  0  0
 10  8  1  0  0  0  0
 11 17  1  0  0  0  0
 12 14  2  0  0  0  0
 12 15  1  0  0  0  0
 13  7  2  0  0  0  0
 13  6  1  0  0  0  0
 14  5  1  0  0  0  0
 15  1  2  0  0  0  0
 16  4  2  0  0  0  0
 17 10  2  0  0  0  0
 17 16  1  0  0  0  0
 18  5  1  0  0  0  0
 18  2  2  0  0  0  0
 19  2  1  0  0  0  0
 19 11  2  0  0  0  0
 20 22  2  0  0  0  0
 21 20  1  0  0  0  0
 21 15  1  0  0  0  0
 23 20  1  0  0  0  0
 24 11  1  0  0  0  0
 25 28  2  0  0  0  0
 25 30  1  0  0  0  0
 26 29  1  0  0  0  0
 27 26  2  0  0  0  0
 28 27  1  0  0  0  0
 30 24  1  1  0  0  0
 30 26  1  0  0  0  0
 31 25  1  0  0  0  0
 32 31  3  0  0  0  0
M  END
>  <MODEL>
7

>  <REMARK>
 VINA RESULT:      -7.3      2.508      3.895
  Name = 
  4 active torsions:
  status: ('A' for Active; 'I' for Inactive)
    1  A    between atoms: C_6  and  C_7
    2  A    between atoms: N_10  and  C_24
    3  A    between atoms: C_16  and  C_27
    4  A    between atoms: C_27  and  C_32
                            x       y       z     vdW  Elec       q    Type
                         _______ _______ _______ _____ _____    ______ ____

>  <TORSDO>
F 4

$$$$
=
 OpenBabel11062410463D

 32 36  0  0  0  0  0  0  0  0999 V2000
  161.2860  203.4790  147.4640 C   0  0  0  0  0  3  0  0  0  0  0  0
  161.6020  207.3340  151.0470 C   0  0  0  0  0  0  0  0  0  0  0  0
  161.9560  211.2690  148.2020 C   0  0  0  0  0  3  0  0  0  0  0  0
  162.0220  212.0710  149.3420 C   0  0  0  0  0  3  0  0  0  0  0  0
  161.4140  205.0860  150.1540 N   0  0  0  0  0  0  0  0  0  0  0  0
  161.5880  207.0780  148.6670 C   0  0  0  0  0  3  0  0  0  0  0  0
  161.4080  204.9180  147.6890 C   0  0  0  0  0  3  0  0  0  0  0  0
  161.8330  209.8840  148.3280 C   0  0  0  0  0  3  0  0  0  0  0  0
  161.6530  207.8810  149.7420 C   0  0  0  0  0  0  0  0  0  0  0  0
  161.7730  209.2800  149.5980 C   0  0  0  0  0  0  0  0  0  0  0  0
  161.7780  209.5020  152.0230 C   0  0  0  0  0  0  0  0  0  0  0  0
  161.2060  202.6340  149.7930 C   0  0  0  0  0  3  0  0  0  0  0  0
  161.4640  205.6220  148.8150 C   0  0  0  0  0  0  0  0  0  0  0  0
  161.2960  203.7180  150.5560 C   0  0  0  0  0  3  0  0  0  0  0  0
  161.1980  202.4780  148.3320 C   0  0  0  0  0  0  0  0  0  0  0  0
  161.9650  211.4890  150.6090 C   0  0  0  0  0  3  0  0  0  0  0  0
  161.8390  210.0990  150.7520 C   0  0  0  0  0  0  0  0  0  0  0  0
  161.4890  206.0140  151.2460 C   0  0  0  0  0  3  0  0  0  0  0  0
  161.6650  208.1520  152.1290 N   0  0  0  0  0  0  0  0  0  0  0  0
  160.9110  200.8230  146.3840 C   0  0  0  0  0  0  0  0  0  0  0  0
  161.0880  201.1640  147.7650 N   0  0  0  0  0  2  0  0  0  0  0  0
  160.8310  201.7100  145.4950 O   0  0  0  0  0  0  0  0  0  0  0  0
  160.8220  199.4540  146.0110 N   0  0  0  0  0  1  0  0  0  0  0  0
  161.8230  210.3220  153.2760 C   0  0  0  0  0  2  0  0  0  0  0  0
  159.4350  210.7090  153.9660 C   0  0  0  0  0  0  0  0  0  0  0  0
  160.5000  209.2030  155.2500 C   0  0  0  0  0  0  0  0  0  0  0  0
  159.2920  209.2800  155.7860 C   0  0  0  0  0  3  0  0  0  0  0  0
  158.4670  210.2620  155.0100 C   0  0  0  0  0  2  0  0  0  0  0  0
  161.5810  208.3180  155.7620 C   0  0  0  0  0  1  0  0  0  0  0  0
  160.5960  210.0900  154.1060 C   0  0  0  0  0  0  0  0  0  0  0  0
  159.1370  211.6960  152.9610 C   0  0  0  0  0  0  0  0  0  0  0  0
  158.8950  212.4890  152.1530 N   0  0  0  0  0  0  0  0  0  0  0  0
  1  7  1  0  0  0  0
  1 15  2  0  0  0  0
  2 18  2  0  0  0  0
  2 19  1  0  0  0  0
  3  8  2  0  0  0  0
  3  4  1  0  0  0  0
  4 16  2  0  0  0  0
  5 14  1  0  0  0  0
  5 18  1  0  0  0  0
  6 13  1  0  0  0  0
  6  9  2  0  0  0  0
  7 13  2  0  0  0  0
  8 10  1  0  0  0  0
  9  2  1  0  0  0  0
 10  9  1  0  0  0  0
 10 17  2  0  0  0  0
 11 19  2  0  0  0  0
 11 24  1  0  0  0  0
 12 14  2  0  0  0  0
 13  5  1  0  0  0  0
 15 12  1  0  0  0  0
 16 17  1  0  0  0  0
 17 11  1  0  0  0  0
 20 21  1  0  0  0  0
 21 15  1  0  0  0  0
 22 20  2  0  0  0  0
 23 20  1  0  0  0  0
 24 30  1  0  0  0  0
 25 30  2  0  0  0  0
 25 28  1  0  0  0  0
 26 29  1  0  0  0  0
 26 27  2  0  0  0  0
 28 27  1  0  0  0  0
 30 26  1  0  0  0  0
 31 25  1  0  0  0  0
 32 31  3  0  0  0  0
M  END
>  <MODEL>
8

>  <REMARK>
 VINA RESULT:      -7.1      1.862      4.119
  Name = 
  4 active torsions:
  status: ('A' for Active; 'I' for Inactive)
    1  A    between atoms: C_6  and  C_7
    2  A    between atoms: N_10  and  C_24
    3  A    between atoms: C_16  and  C_27
    4  A    between atoms: C_27  and  C_32
                            x       y       z     vdW  Elec       q    Type
                         _______ _______ _______ _____ _____    ______ ____

>  <TORSDO>
F 4

$$$$
=
 OpenBabel11062410463D

 32 36  0  0  0  0  0  0  0  0999 V2000
  161.2720  203.5270  147.5420 C   0  0  0  0  0  3  0  0  0  0  0  0
  161.5590  207.4210  151.0860 C   0  0  0  0  0  0  0  0  0  0  0  0
  161.9820  211.3200  148.2030 C   0  0  0  0  0  3  0  0  0  0  0  0
  162.0370  212.1350  149.3340 C   0  0  0  0  0  3  0  0  0  0  0  0
  161.3700  205.1640  150.2160 N   0  0  0  0  0  0  0  0  0  0  0  0
  161.5800  207.1370  148.7090 C   0  0  0  0  0  3  0  0  0  0  0  0
  161.4000  204.9680  147.7530 C   0  0  0  0  0  3  0  0  0  0  0  0
  161.8480  209.9380  148.3420 C   0  0  0  0  0  3  0  0  0  0  0  0
  161.6330  207.9520  149.7760 C   0  0  0  0  0  0  0  0  0  0  0  0
  161.7650  209.3490  149.6180 C   0  0  0  0  0  0  0  0  0  0  0  0
  161.7340  209.5980  152.0400 C   0  0  0  0  0  0  0  0  0  0  0  0
  161.1510  202.7090  149.8790 C   0  0  0  0  0  3  0  0  0  0  0  0
  161.4440  205.6840  148.8720 C   0  0  0  0  0  0  0  0  0  0  0  0
  161.2360  203.8020  150.6310 C   0  0  0  0  0  3  0  0  0  0  0  0
  161.1640  202.5370  148.4210 C   0  0  0  0  0  0  0  0  0  0  0  0
  161.9560  211.5680  150.6060 C   0  0  0  0  0  3  0  0  0  0  0  0
  161.8180  210.1810  150.7630 C   0  0  0  0  0  0  0  0  0  0  0  0
  161.4340  206.1040  151.2980 C   0  0  0  0  0  3  0  0  0  0  0  0
  161.6110  208.2510  152.1590 N   0  0  0  0  0  0  0  0  0  0  0  0
  160.9260  200.8600  146.4840 C   0  0  0  0  0  0  0  0  0  0  0  0
  161.0540  201.2170  147.8670 N   0  0  0  0  0  2  0  0  0  0  0  0
  160.8970  201.7360  145.5810 O   0  0  0  0  0  0  0  0  0  0  0  0
  160.8290  199.4870  146.1260 N   0  0  0  0  0  1  0  0  0  0  0  0
  161.7650  210.4330  153.2840 C   0  0  0  0  0  2  0  0  0  0  0  0
  160.0380  209.7370  154.9740 C   0  0  0  0  0  0  0  0  0  0  0  0
  159.2740  211.2380  153.4860 C   0  0  0  0  0  0  0  0  0  0  0  0
  158.2240  210.9890  154.2520 C   0  0  0  0  0  3  0  0  0  0  0  0
  158.6040  209.9910  155.3040 C   0  0  0  0  0  2  0  0  0  0  0  0
  159.2590  212.1880  152.3410 C   0  0  0  0  0  1  0  0  0  0  0  0
  160.4160  210.4640  153.9350 C   0  0  0  0  0  0  0  0  0  0  0  0
  160.8760  208.8100  155.6880 C   0  0  0  0  0  0  0  0  0  0  0  0
  161.5500  208.0630  156.2610 N   0  0  0  0  0  0  0  0  0  0  0  0
  1  7  1  0  0  0  0
  1 15  2  0  0  0  0
  2 18  2  0  0  0  0
  2 19  1  0  0  0  0
  3  8  2  0  0  0  0
  3  4  1  0  0  0  0
  4 16  2  0  0  0  0
  5 14  1  0  0  0  0
  5 18  1  0  0  0  0
  6 13  1  0  0  0  0
  6  9  2  0  0  0  0
  7 13  2  0  0  0  0
  8 10  1  0  0  0  0
  9  2  1  0  0  0  0
 10  9  1  0  0  0  0
 10 17  2  0  0  0  0
 11 19  2  0  0  0  0
 11 24  1  0  0  0  0
 12 14  2  0  0  0  0
 13  5  1  0  0  0  0
 15 12  1  0  0  0  0
 16 17  1  0  0  0  0
 17 11  1  0  0  0  0
 20 21  1  0  0  0  0
 21 15  1  0  0  0  0
 22 20  2  0  0  0  0
 23 20  1  0  0  0  0
 24 30  1  0  0  0  0
 25 28  1  0  0  0  0
 25 31  1  0  0  0  0
 26 30  1  0  0  0  0
 26 27  2  0  0  0  0
 27 28  1  0  0  0  0
 29 26  1  0  0  0  0
 30 25  2  0  0  0  0
 31 32  3  0  0  0  0
M  END
>  <MODEL>
9

>  <REMARK>
 VINA RESULT:      -7.1      1.936      4.331
  Name = 
  4 active torsions:
  status: ('A' for Active; 'I' for Inactive)
    1  A    between atoms: C_6  and  C_7
    2  A    between atoms: N_10  and  C_24
    3  A    between atoms: C_16  and  C_27
    4  A    between atoms: C_27  and  C_32
                            x       y       z     vdW  Elec       q    Type
                         _______ _______ _______ _____ _____    ______ ____

>  <TORSDO>
F 4

$$$$
