=
 OpenBabel11052422373D

 31 36  0  0  1  0  0  0  0  0999 V2000
  161.2460  205.5830  149.8770 C   0  0  0  0  0  0  0  0  0  0  0  0
  161.2000  204.2210  150.2510 C   0  0  0  0  0  0  0  0  0  0  0  0
  160.3960  201.9010  149.7970 C   0  0  0  0  0  0  0  0  0  0  0  0
  161.1440  206.0620  148.4820 C   0  0  0  0  0  0  0  0  0  0  0  0
  160.8720  206.3430  146.3560 C   0  0  0  0  0  0  0  0  0  0  0  0
  161.0940  203.1110  149.2330 C   0  0  0  0  0  2  0  0  0  0  0  0
  161.3640  208.0440  150.5320 C   0  0  1  0  0  3  0  0  0  0  0  0
  161.4590  204.8820  152.5660 C   0  0  0  0  0  3  0  0  0  0  0  0
  159.6790  201.0970  148.9710 F   0  0  0  0  0  0  0  0  0  0  0  0
  161.8770  208.3380  149.1120 C   0  0  0  0  0  2  0  0  0  0  0  0
  161.4150  206.5650  150.8810 C   0  0  0  0  0  0  0  0  0  0  0  0
  160.8010  205.3610  147.3370 C   0  0  0  0  0  3  0  0  0  0  0  0
  160.4930  201.5940  151.0990 C   0  0  0  0  0  3  0  0  0  0  0  0
  161.3790  207.3450  148.1710 N   0  0  0  0  0  0  0  0  0  0  0  0
  161.2430  207.5320  146.8730 N   0  0  0  0  0  0  0  0  0  0  0  0
  161.4940  206.1850  152.1870 N   0  0  0  0  0  0  0  0  0  0  0  0
  161.3100  203.8790  151.6110 C   0  0  0  0  0  0  0  0  0  0  0  0
  161.3150  202.4380  152.0360 C   0  0  0  0  0  2  0  0  0  0  0  0
  160.6420  206.1150  144.9040 C   0  0  0  0  0  2  0  0  0  0  0  0
  160.8380  204.6490  144.5730 C   0  0  0  0  0  1  0  0  0  0  0  0
  162.1340  208.8870  151.5410 C   0  0  0  0  0  2  0  0  0  0  0  0
  159.1570  210.8590  155.4480 C   0  0  0  0  0  0  0  0  0  0  0  0
  160.6430  209.2330  154.3710 C   0  0  0  0  0  3  0  0  0  0  0  0
  160.1550  211.8760  152.0540 N   0  0  0  0  0  0  0  0  0  0  0  0
  160.9570  211.1040  151.3240 N   0  0  0  0  0  0  0  0  0  0  0  0
  158.3490  211.2660  156.6270 C   0  0  0  0  0  1  0  0  0  0  0  0
  161.2870  210.0090  152.0470 C   0  0  0  0  0  0  0  0  0  0  0  0
  159.8720  209.6390  155.4760 C   0  0  0  0  0  3  0  0  0  0  0  0
  159.9750  211.2590  153.2360 C   0  0  2  0  0  3  0  0  0  0  0  0
  160.6650  210.0830  153.2680 C   0  0  0  0  0  0  0  0  0  0  0  0
  159.2020  211.6890  154.3110 C   0  0  0  0  0  3  0  0  0  0  0  0
  1  2  2  0  0  0  0
  1 11  1  0  0  0  0
  2 17  1  0  0  0  0
  3 13  2  0  0  0  0
  4  1  1  0  0  0  0
  5 15  2  0  0  0  0
  5 12  1  0  0  0  0
  6  3  1  0  0  0  0
  6  2  1  0  0  0  0
  7 11  1  0  0  0  0
  7 21  1  1  0  0  0
  9  3  1  0  0  0  0
 10  7  1  0  0  0  0
 11 16  2  0  0  0  0
 12  4  2  0  0  0  0
 13 18  1  0  0  0  0
 14  4  1  0  0  0  0
 14 10  1  0  0  0  0
 15 14  1  0  0  0  0
 16  8  1  0  0  0  0
 17 18  1  0  0  0  0
 17  8  2  0  0  0  0
 19  5  1  0  0  0  0
 20 19  1  0  0  0  0
 21 27  1  0  0  0  0
 22 28  1  0  0  0  0
 22 26  1  0  0  0  0
 23 28  2  0  0  0  0
 24 29  1  0  0  0  0
 25 27  1  0  0  0  0
 25 24  2  0  0  0  0
 27 30  2  0  0  0  0
 29 30  1  0  0  0  0
 29 31  1  6  0  0  0
 30 23  1  0  0  0  0
 31 22  2  0  0  0  0
M  END
>  <MODEL>
1

>  <REMARK>
 VINA RESULT:      -9.5      0.000      0.000
  Name = 
  3 active torsions:
  status: ('A' for Active; 'I' for Inactive)
    1  A    between atoms: C_2  and  C_13
    2  A    between atoms: C_9  and  C_23
    3  A    between atoms: C_15  and  C_23
                            x       y       z     vdW  Elec       q    Type
                         _______ _______ _______ _____ _____    ______ ____

>  <TORSDO>
F 3

$$$$
=
 OpenBabel11052422373D

 31 36  0  0  1  0  0  0  0  0999 V2000
  161.3710  207.9840  152.1230 C   0  0  0  0  0  0  0  0  0  0  0  0
  161.1870  208.4770  153.4340 C   0  0  0  0  0  0  0  0  0  0  0  0
  161.6670  210.2250  155.1520 C   0  0  0  0  0  0  0  0  0  0  0  0
  161.6390  208.8400  150.9480 C   0  0  0  0  0  0  0  0  0  0  0  0
  162.0960  210.4090  149.5330 C   0  0  0  0  0  0  0  0  0  0  0  0
  161.1970  209.9550  153.7460 C   0  0  0  0  0  2  0  0  0  0  0  0
  161.5750  206.0120  150.5200 C   0  0  1  0  0  3  0  0  0  0  0  0
  160.8690  206.2050  154.2090 C   0  0  0  0  0  3  0  0  0  0  0  0
  162.3110  211.3870  155.4300 F   0  0  0  0  0  0  0  0  0  0  0  0
  161.2120  206.9770  149.3780 C   0  0  0  0  0  2  0  0  0  0  0  0
  161.2800  206.5910  151.8950 C   0  0  0  0  0  0  0  0  0  0  0  0
  161.9530  210.1880  150.8970 C   0  0  0  0  0  3  0  0  0  0  0  0
  161.4350  209.3450  156.1370 C   0  0  0  0  0  3  0  0  0  0  0  0
  161.6200  208.3360  149.7050 N   0  0  0  0  0  0  0  0  0  0  0  0
  161.8720  209.2830  148.8240 N   0  0  0  0  0  0  0  0  0  0  0  0
  161.0550  205.7510  152.9440 N   0  0  0  0  0  0  0  0  0  0  0  0
  160.9330  207.5700  154.4790 C   0  0  0  0  0  0  0  0  0  0  0  0
  160.6840  208.0660  155.8750 C   0  0  0  0  0  2  0  0  0  0  0  0
  162.3910  211.7270  148.9090 C   0  0  0  0  0  2  0  0  0  0  0  0
  161.3590  212.0360  147.8430 C   0  0  0  0  0  1  0  0  0  0  0  0
  160.8710  204.6770  150.3080 C   0  0  0  0  0  2  0  0  0  0  0  0
  161.2440  200.6570  146.8850 C   0  0  0  0  0  0  0  0  0  0  0  0
  160.9560  201.7030  149.0840 C   0  0  0  0  0  3  0  0  0  0  0  0
  161.3110  204.3350  146.7310 N   0  0  0  0  0  0  0  0  0  0  0  0
  161.1740  205.0620  147.8380 N   0  0  0  0  0  2  0  0  0  0  0  0
  161.3450  199.4260  146.0600 C   0  0  0  0  0  1  0  0  0  0  0  0
  161.0070  204.2290  148.8910 C   0  0  0  0  0  0  0  0  0  0  0  0
  161.0540  200.5510  148.2830 C   0  0  0  0  0  3  0  0  0  0  0  0
  161.2370  203.0410  147.0910 C   0  0  0  0  0  0  0  0  0  0  0  0
  161.0520  202.9330  148.4390 C   0  0  0  0  0  0  0  0  0  0  0  0
  161.3410  201.9210  146.2710 C   0  0  0  0  0  3  0  0  0  0  0  0
  1  2  1  0  0  0  0
  2  6  1  0  0  0  0
  2 17  2  0  0  0  0
  3  9  1  0  0  0  0
  3 13  2  0  0  0  0
  4  1  1  0  0  0  0
  5 12  1  0  0  0  0
  6  3  1  0  0  0  0
  7 21  1  6  0  0  0
  7 11  1  0  0  0  0
  8 17  1  0  0  0  0
 10 14  1  0  0  0  0
 10  7  1  0  0  0  0
 11  1  2  0  0  0  0
 11 16  1  0  0  0  0
 12  4  2  0  0  0  0
 14  4  1  0  0  0  0
 15  5  2  0  0  0  0
 15 14  1  0  0  0  0
 16  8  2  0  0  0  0
 17 18  1  0  0  0  0
 18 13  1  0  0  0  0
 19  5  1  0  0  0  0
 20 19  1  0  0  0  0
 22 28  1  0  0  0  0
 24 29  2  0  0  0  0
 24 25  1  0  0  0  0
 25 27  1  0  0  0  0
 26 22  1  0  0  0  0
 27 21  1  0  0  0  0
 28 23  2  0  0  0  0
 29 30  1  0  0  0  0
 30 27  2  0  0  0  0
 30 23  1  0  0  0  0
 31 22  2  0  0  0  0
 31 29  1  0  0  0  0
M  END
>  <MODEL>
2

>  <REMARK>
 VINA RESULT:      -9.5      3.100      7.919
  Name = 
  3 active torsions:
  status: ('A' for Active; 'I' for Inactive)
    1  A    between atoms: C_2  and  C_13
    2  A    between atoms: C_9  and  C_23
    3  A    between atoms: C_15  and  C_23
                            x       y       z     vdW  Elec       q    Type
                         _______ _______ _______ _____ _____    ______ ____

>  <TORSDO>
F 3

$$$$
=
 OpenBabel11052422373D

 31 36  0  0  1  0  0  0  0  0999 V2000
  161.5970  206.9540  149.7070 C   0  0  0  0  0  0  0  0  0  0  0  0
  161.6440  206.0370  148.6330 C   0  0  0  0  0  0  0  0  0  0  0  0
  161.3250  205.5680  146.2010 C   0  0  0  0  0  0  0  0  0  0  0  0
  161.8120  208.4090  149.5610 C   0  0  0  0  0  0  0  0  0  0  0  0
  162.0890  210.4530  148.9120 C   0  0  0  0  0  0  0  0  0  0  0  0
  161.9740  206.4650  147.2230 C   0  0  0  0  0  2  0  0  0  0  0  0
  161.1880  207.4350  152.1760 C   0  0  1  0  0  3  0  0  0  0  0  0
  161.1700  204.2430  150.1890 C   0  0  0  0  0  3  0  0  0  0  0  0
  160.9780  206.0750  144.9900 F   0  0  0  0  0  0  0  0  0  0  0  0
  162.0200  208.7180  152.0060 C   0  0  0  0  0  2  0  0  0  0  0  0
  161.3490  206.4700  151.0120 C   0  0  0  0  0  0  0  0  0  0  0  0
  161.8930  209.1730  148.4070 C   0  0  0  0  0  3  0  0  0  0  0  0
  161.1080  204.2710  146.4620 C   0  0  0  0  0  3  0  0  0  0  0  0
  161.9400  209.2020  150.6350 N   0  0  0  0  0  0  0  0  0  0  0  0
  162.1350  210.4500  150.2600 N   0  0  0  0  0  0  0  0  0  0  0  0
  161.1240  205.1410  151.2050 N   0  0  0  0  0  0  0  0  0  0  0  0
  161.4270  204.6700  148.8890 C   0  0  0  0  0  0  0  0  0  0  0  0
  161.5190  203.6640  147.7770 C   0  0  0  0  0  2  0  0  0  0  0  0
  162.2950  211.6730  148.0850 C   0  0  0  0  0  2  0  0  0  0  0  0
  161.2590  212.7200  148.4420 C   0  0  0  0  0  1  0  0  0  0  0  0
  161.5310  206.7750  153.5070 C   0  0  0  0  0  2  0  0  0  0  0  0
  160.6610  211.0490  156.5050 C   0  0  0  0  0  0  0  0  0  0  0  0
  161.6890  209.7630  154.6880 C   0  0  0  0  0  3  0  0  0  0  0  0
  159.3980  207.5970  156.3150 N   0  0  0  0  0  0  0  0  0  0  0  0
  159.8550  206.7590  155.3870 N   0  0  0  0  0  0  0  0  0  0  0  0
  160.5440  212.3230  157.2610 C   0  0  0  0  0  1  0  0  0  0  0  0
  160.7630  207.4060  154.6210 C   0  0  0  0  0  0  0  0  0  0  0  0
  161.5610  210.9600  155.4180 C   0  0  0  0  0  3  0  0  0  0  0  0
  160.0260  208.7720  156.1350 C   0  0  0  0  0  0  0  0  0  0  0  0
  160.8950  208.6910  155.0850 C   0  0  0  0  0  0  0  0  0  0  0  0
  159.8780  209.9400  156.8790 C   0  0  0  0  0  2  0  0  0  0  0  0
  1 11  1  0  0  0  0
  2 17  1  0  0  0  0
  2  1  2  0  0  0  0
  3 13  2  0  0  0  0
  3  6  1  0  0  0  0
  4  1  1  0  0  0  0
  4 14  1  0  0  0  0
  5 15  2  0  0  0  0
  6  2  1  0  0  0  0
  7 21  1  1  0  0  0
  8 16  1  0  0  0  0
  9  3  1  0  0  0  0
 10  7  1  0  0  0  0
 11 16  2  0  0  0  0
 11  7  1  0  0  0  0
 12  5  1  0  0  0  0
 12  4  2  0  0  0  0
 13 18  1  0  0  0  0
 14 10  1  0  0  0  0
 15 14  1  0  0  0  0
 17  8  2  0  0  0  0
 18 17  1  0  0  0  0
 19 20  1  0  0  0  0
 19  5  1  0  0  0  0
 21 27  1  0  0  0  0
 22 31  1  0  0  0  0
 22 26  1  0  0  0  0
 23 30  2  0  0  0  0
 23 28  1  0  0  0  0
 25 24  1  0  0  0  0
 27 30  1  0  0  0  0
 27 25  2  0  0  0  0
 28 22  2  0  0  0  0
 29 24  2  0  0  0  0
 29 31  1  0  0  0  0
 30 29  1  0  0  0  0
M  END
>  <MODEL>
3

>  <REMARK>
 VINA RESULT:      -9.0      2.337      4.079
  Name = 
  3 active torsions:
  status: ('A' for Active; 'I' for Inactive)
    1  A    between atoms: C_2  and  C_13
    2  A    between atoms: C_9  and  C_23
    3  A    between atoms: C_15  and  C_23
                            x       y       z     vdW  Elec       q    Type
                         _______ _______ _______ _____ _____    ______ ____

>  <TORSDO>
F 3

$$$$
=
 OpenBabel11052422373D

 31 36  0  0  1  0  0  0  0  0999 V2000
  161.4340  207.1400  151.3270 C   0  0  0  0  0  0  0  0  0  0  0  0
  161.4850  205.9330  150.5940 C   0  0  0  0  0  0  0  0  0  0  0  0
  161.1950  204.7310  148.4240 C   0  0  0  0  0  0  0  0  0  0  0  0
  161.6670  208.4750  150.7380 C   0  0  0  0  0  0  0  0  0  0  0  0
  161.9770  210.2130  149.4890 C   0  0  0  0  0  0  0  0  0  0  0  0
  161.8390  205.8980  149.1260 C   0  0  0  0  0  2  0  0  0  0  0  0
  160.9950  208.3700  153.5160 C   0  0  1  0  0  3  0  0  0  0  0  0
  160.9690  204.7170  152.6230 C   0  0  0  0  0  3  0  0  0  0  0  0
  160.8710  204.8360  147.1100 F   0  0  0  0  0  0  0  0  0  0  0  0
  161.8440  209.5300  152.9680 C   0  0  0  0  0  2  0  0  0  0  0  0
  161.1610  207.0890  152.7140 C   0  0  0  0  0  0  0  0  0  0  0  0
  161.7730  208.8400  149.4050 C   0  0  0  0  0  3  0  0  0  0  0  0
  160.9590  203.5810  149.0730 C   0  0  0  0  0  3  0  0  0  0  0  0
  161.7890  209.5620  151.5130 N   0  0  0  0  0  0  0  0  0  0  0  0
  162.0040  210.6300  150.7710 N   0  0  0  0  0  0  0  0  0  0  0  0
  160.9180  205.8870  153.3080 N   0  0  0  0  0  0  0  0  0  0  0  0
  161.2490  204.7150  151.2590 C   0  0  0  0  0  0  0  0  0  0  0  0
  161.3450  203.4120  150.5190 C   0  0  0  0  0  2  0  0  0  0  0  0
  162.2080  211.1120  148.3270 C   0  0  0  0  0  2  0  0  0  0  0  0
  161.7860  212.5250  148.6750 C   0  0  0  0  0  1  0  0  0  0  0  0
  161.3110  208.1550  154.9910 C   0  0  0  0  0  2  0  0  0  0  0  0
  158.7590  212.4660  156.7000 C   0  0  0  0  0  0  0  0  0  0  0  0
  158.9710  210.2640  155.6440 C   0  0  0  0  0  3  0  0  0  0  0  0
  162.2160  211.1990  156.7320 N   0  0  0  0  0  0  0  0  0  0  0  0
  162.5080  210.0170  156.1930 N   0  0  0  0  0  0  0  0  0  0  0  0
  157.9050  213.6130  157.1040 C   0  0  0  0  0  1  0  0  0  0  0  0
  161.3720  209.4620  155.7120 C   0  0  0  0  0  0  0  0  0  0  0  0
  158.1800  211.3600  156.0360 C   0  0  0  0  0  3  0  0  0  0  0  0
  160.8930  211.3890  156.5820 C   0  0  0  0  0  0  0  0  0  0  0  0
  160.3290  210.3230  155.9430 C   0  0  0  0  0  0  0  0  0  0  0  0
  160.1400  212.4900  156.9800 C   0  0  0  0  0  2  0  0  0  0  0  0
  1 11  1  0  0  0  0
  2 17  1  0  0  0  0
  2  1  2  0  0  0  0
  3 13  2  0  0  0  0
  3  6  1  0  0  0  0
  4  1  1  0  0  0  0
  4 14  1  0  0  0  0
  5 15  2  0  0  0  0
  6  2  1  0  0  0  0
  7 21  1  1  0  0  0
  8 16  1  0  0  0  0
  9  3  1  0  0  0  0
 10  7  1  0  0  0  0
 11 16  2  0  0  0  0
 11  7  1  0  0  0  0
 12  5  1  0  0  0  0
 12  4  2  0  0  0  0
 13 18  1  0  0  0  0
 14 10  1  0  0  0  0
 15 14  1  0  0  0  0
 17  8  2  0  0  0  0
 18 17  1  0  0  0  0
 19 20  1  0  0  0  0
 19  5  1  0  0  0  0
 21 27  1  0  0  0  0
 22 31  1  0  0  0  0
 22 26  1  0  0  0  0
 23 30  2  0  0  0  0
 23 28  1  0  0  0  0
 25 24  1  0  0  0  0
 27 30  1  0  0  0  0
 27 25  2  0  0  0  0
 28 22  2  0  0  0  0
 29 24  2  0  0  0  0
 29 31  1  0  0  0  0
 30 29  1  0  0  0  0
M  END
>  <MODEL>
4

>  <REMARK>
 VINA RESULT:      -8.8      2.155      3.744
  Name = 
  3 active torsions:
  status: ('A' for Active; 'I' for Inactive)
    1  A    between atoms: C_2  and  C_13
    2  A    between atoms: C_9  and  C_23
    3  A    between atoms: C_15  and  C_23
                            x       y       z     vdW  Elec       q    Type
                         _______ _______ _______ _____ _____    ______ ____

>  <TORSDO>
F 3

$$$$
=
 OpenBabel11052422373D

 31 36  0  0  1  0  0  0  0  0999 V2000
  161.0500  210.1320  151.4560 C   0  0  0  0  0  0  0  0  0  0  0  0
  161.1790  211.1900  150.5280 C   0  0  0  0  0  0  0  0  0  0  0  0
  160.3330  213.3550  149.6170 C   0  0  0  0  0  0  0  0  0  0  0  0
  160.4470  210.2790  152.7980 C   0  0  0  0  0  0  0  0  0  0  0  0
  159.4320  210.8880  154.6060 C   0  0  0  0  0  0  0  0  0  0  0  0
  160.7510  212.6010  150.8520 C   0  0  0  0  0  2  0  0  0  0  0  0
  161.3210  207.6640  152.0340 C   0  0  1  0  0  3  0  0  0  0  0  0
  162.2220  209.6540  148.9730 C   0  0  0  0  0  3  0  0  0  0  0  0
  159.3940  214.3310  149.7150 F   0  0  0  0  0  0  0  0  0  0  0  0
  161.2890  208.0680  153.5190 C   0  0  0  0  0  2  0  0  0  0  0  0
  161.5350  208.8510  151.1070 C   0  0  0  0  0  0  0  0  0  0  0  0
  159.7410  211.3450  153.3310 C   0  0  0  0  0  3  0  0  0  0  0  0
  160.8940  213.0940  148.4270 C   0  0  0  0  0  3  0  0  0  0  0  0
  160.5190  209.2900  153.7010 N   0  0  0  0  0  0  0  0  0  0  0  0
  159.9270  209.6520  154.8220 N   0  0  0  0  0  0  0  0  0  0  0  0
  162.0830  208.6500  149.8760 N   0  0  0  0  0  0  0  0  0  0  0  0
  161.7740  210.9370  149.2780 C   0  0  0  0  0  0  0  0  0  0  0  0
  161.9710  212.0500  148.2890 C   0  0  0  0  0  2  0  0  0  0  0  0
  158.7080  211.6750  155.6410 C   0  0  0  0  0  2  0  0  0  0  0  0
  157.2210  211.3970  155.5560 C   0  0  0  0  0  1  0  0  0  0  0  0
  162.3750  206.5840  151.8190 C   0  0  0  0  0  2  0  0  0  0  0  0
  160.7530  202.6710  148.6440 C   0  0  0  0  0  0  0  0  0  0  0  0
  161.8230  204.8080  149.1940 C   0  0  0  0  0  3  0  0  0  0  0  0
  160.6750  203.4160  152.2490 N   0  0  0  0  0  0  0  0  0  0  0  0
  161.2090  204.5410  152.7190 N   0  0  0  0  0  0  0  0  0  0  0  0
  160.3490  201.6700  147.6240 C   0  0  0  0  0  1  0  0  0  0  0  0
  161.7330  205.2420  151.6880 C   0  0  0  0  0  0  0  0  0  0  0  0
  161.4320  203.8460  148.2440 C   0  0  0  0  0  3  0  0  0  0  0  0
  160.8600  203.4140  150.9170 C   0  0  0  0  0  0  0  0  0  0  0  0
  161.5150  204.5450  150.5260 C   0  0  0  0  0  0  0  0  0  0  0  0
  160.4560  202.4440  150.0020 C   0  0  0  0  0  2  0  0  0  0  0  0
  1  4  1  0  0  0  0
  2  6  1  0  0  0  0
  2  1  2  0  0  0  0
  3  9  1  0  0  0  0
  3  6  1  0  0  0  0
  4 12  2  0  0  0  0
  4 14  1  0  0  0  0
  5 15  2  0  0  0  0
  5 19  1  0  0  0  0
  7 21  1  1  0  0  0
  7 10  1  0  0  0  0
  8 17  2  0  0  0  0
  8 16  1  0  0  0  0
 10 14  1  0  0  0  0
 11  1  1  0  0  0  0
 11  7  1  0  0  0  0
 12  5  1  0  0  0  0
 13  3  2  0  0  0  0
 14 15  1  0  0  0  0
 16 11  2  0  0  0  0
 17  2  1  0  0  0  0
 18 13  1  0  0  0  0
 18 17  1  0  0  0  0
 20 19  1  0  0  0  0
 22 31  1  0  0  0  0
 23 30  2  0  0  0  0
 24 25  1  0  0  0  0
 26 22  1  0  0  0  0
 27 21  1  0  0  0  0
 27 25  2  0  0  0  0
 28 22  2  0  0  0  0
 28 23  1  0  0  0  0
 29 24  2  0  0  0  0
 30 29  1  0  0  0  0
 30 27  1  0  0  0  0
 31 29  1  0  0  0  0
M  END
>  <MODEL>
5

>  <REMARK>
 VINA RESULT:      -8.3      3.175      8.557
  Name = 
  3 active torsions:
  status: ('A' for Active; 'I' for Inactive)
    1  A    between atoms: C_2  and  C_13
    2  A    between atoms: C_9  and  C_23
    3  A    between atoms: C_15  and  C_23
                            x       y       z     vdW  Elec       q    Type
                         _______ _______ _______ _____ _____    ______ ____

>  <TORSDO>
F 3

$$$$
=
 OpenBabel11052422373D

 31 36  0  0  1  0  0  0  0  0999 V2000
  161.3720  207.9440  152.0360 C   0  0  0  0  0  0  0  0  0  0  0  0
  161.2440  208.3690  153.3770 C   0  0  0  0  0  0  0  0  0  0  0  0
  161.8520  209.9880  155.1790 C   0  0  0  0  0  0  0  0  0  0  0  0
  161.6540  208.8530  150.9050 C   0  0  0  0  0  0  0  0  0  0  0  0
  162.1570  210.4770  149.5700 C   0  0  0  0  0  0  0  0  0  0  0  0
  161.3360  209.8230  153.7730 C   0  0  0  0  0  2  0  0  0  0  0  0
  161.4390  206.0610  150.3190 C   0  0  1  0  0  3  0  0  0  0  0  0
  160.8320  206.0740  154.0300 C   0  0  0  0  0  3  0  0  0  0  0  0
  162.5600  211.0990  155.5060 F   0  0  0  0  0  0  0  0  0  0  0  0
  161.0970  207.1070  149.2430 C   0  0  0  0  0  2  0  0  0  0  0  0
  161.2070  206.5730  151.7320 C   0  0  0  0  0  0  0  0  0  0  0  0
  162.0340  210.1850  150.9230 C   0  0  0  0  0  3  0  0  0  0  0  0
  161.6000  209.0640  156.1180 C   0  0  0  0  0  3  0  0  0  0  0  0
  161.5810  208.4230  149.6370 N   0  0  0  0  0  0  0  0  0  0  0  0
  161.8590  209.4080  148.8050 N   0  0  0  0  0  0  0  0  0  0  0  0
  160.9650  205.6850  152.7360 N   0  0  0  0  0  0  0  0  0  0  0  0
  160.9710  207.4150  154.3760 C   0  0  0  0  0  0  0  0  0  0  0  0
  160.7800  207.8410  155.8040 C   0  0  0  0  0  2  0  0  0  0  0  0
  162.5020  211.8140  149.0140 C   0  0  0  0  0  2  0  0  0  0  0  0
  161.5780  212.1480  147.8600 C   0  0  0  0  0  1  0  0  0  0  0  0
  160.6640  204.7770  150.0500 C   0  0  0  0  0  2  0  0  0  0  0  0
  161.1810  205.1870  144.7980 C   0  0  0  0  0  0  0  0  0  0  0  0
  160.6230  205.9580  147.0570 C   0  0  0  0  0  3  0  0  0  0  0  0
  161.8350  202.6390  147.3730 N   0  0  0  0  0  0  0  0  0  0  0  0
  161.5820  202.8920  148.6550 N   0  0  0  0  0  2  0  0  0  0  0  0
  161.2500  205.4540  143.3380 C   0  0  0  0  0  1  0  0  0  0  0  0
  161.1070  204.1530  148.7680 C   0  0  0  0  0  0  0  0  0  0  0  0
  160.6970  206.1890  145.6710 C   0  0  0  0  0  3  0  0  0  0  0  0
  161.5100  203.7430  146.6770 C   0  0  0  0  0  0  0  0  0  0  0  0
  161.0450  204.7140  147.5160 C   0  0  0  0  0  0  0  0  0  0  0  0
  161.5950  203.9380  145.3010 C   0  0  0  0  0  3  0  0  0  0  0  0
  1  2  1  0  0  0  0
  2  6  1  0  0  0  0
  2 17  2  0  0  0  0
  3  9  1  0  0  0  0
  3 13  2  0  0  0  0
  4 12  2  0  0  0  0
  4  1  1  0  0  0  0
  5 12  1  0  0  0  0
  6  3  1  0  0  0  0
  7 21  1  6  0  0  0
  7 11  1  0  0  0  0
  8 17  1  0  0  0  0
 10 14  1  0  0  0  0
 10  7  1  0  0  0  0
 11  1  2  0  0  0  0
 11 16  1  0  0  0  0
 14  4  1  0  0  0  0
 15  5  2  0  0  0  0
 15 14  1  0  0  0  0
 16  8  2  0  0  0  0
 17 18  1  0  0  0  0
 18 13  1  0  0  0  0
 19  5  1  0  0  0  0
 20 19  1  0  0  0  0
 22 31  2  0  0  0  0
 22 28  1  0  0  0  0
 23 30  1  0  0  0  0
 24 25  1  0  0  0  0
 25 27  1  0  0  0  0
 26 22  1  0  0  0  0
 27 21  1  0  0  0  0
 28 23  2  0  0  0  0
 29 24  2  0  0  0  0
 29 30  1  0  0  0  0
 30 27  2  0  0  0  0
 31 29  1  0  0  0  0
M  END
>  <MODEL>
6

>  <REMARK>
 VINA RESULT:      -8.2      3.014      7.671
  Name = 
  3 active torsions:
  status: ('A' for Active; 'I' for Inactive)
    1  A    between atoms: C_2  and  C_13
    2  A    between atoms: C_9  and  C_23
    3  A    between atoms: C_15  and  C_23
                            x       y       z     vdW  Elec       q    Type
                         _______ _______ _______ _____ _____    ______ ____

>  <TORSDO>
F 3

$$$$
=
 OpenBabel11052422373D

 31 36  0  0  1  0  0  0  0  0999 V2000
  161.3630  208.8240  151.5640 C   0  0  0  0  0  0  0  0  0  0  0  0
  161.5010  210.0090  150.8080 C   0  0  0  0  0  0  0  0  0  0  0  0
  160.7780  212.3560  150.3520 C   0  0  0  0  0  0  0  0  0  0  0  0
  160.9110  208.7900  152.9710 C   0  0  0  0  0  0  0  0  0  0  0  0
  160.1390  209.1640  154.9560 C   0  0  0  0  0  0  0  0  0  0  0  0
  161.2420  211.3750  151.3970 C   0  0  0  0  0  2  0  0  0  0  0  0
  161.4560  206.2810  151.7110 C   0  0  1  0  0  3  0  0  0  0  0  0
  162.2370  208.6800  148.9220 C   0  0  0  0  0  3  0  0  0  0  0  0
  159.9500  213.3700  150.7070 F   0  0  0  0  0  0  0  0  0  0  0  0
  161.6060  206.4310  153.2340 C   0  0  0  0  0  2  0  0  0  0  0  0
  161.6890  207.5860  150.9650 C   0  0  0  0  0  0  0  0  0  0  0  0
  160.3640  209.8030  153.7420 C   0  0  0  0  0  3  0  0  0  0  0  0
  161.1940  212.2550  149.0800 C   0  0  0  0  0  3  0  0  0  0  0  0
  160.9770  207.6620  153.6930 N   0  0  0  0  0  0  0  0  0  0  0  0
  160.5340  207.8750  154.9160 N   0  0  0  0  0  0  0  0  0  0  0  0
  162.0920  207.5530  149.6640 N   0  0  0  0  0  0  0  0  0  0  0  0
  161.9440  209.9240  149.4740 C   0  0  0  0  0  0  0  0  0  0  0  0
  162.1480  211.1690  148.6590 C   0  0  0  0  0  2  0  0  0  0  0  0
  159.5970  209.8200  156.1770 C   0  0  0  0  0  2  0  0  0  0  0  0
  158.6520  210.9380  155.7860 C   0  0  0  0  0  1  0  0  0  0  0  0
  162.3760  205.1740  151.2110 C   0  0  0  0  0  2  0  0  0  0  0  0
  160.7090  202.4130  147.0130 C   0  0  0  0  0  0  0  0  0  0  0  0
  161.9730  204.1560  148.1850 C   0  0  0  0  0  3  0  0  0  0  0  0
  160.2080  202.3270  150.6600 N   0  0  0  0  0  0  0  0  0  0  0  0
  160.8180  203.2090  151.4480 N   0  0  0  0  0  0  0  0  0  0  0  0
  160.3230  201.7520  145.7400 C   0  0  0  0  0  1  0  0  0  0  0  0
  161.5800  204.0250  150.6840 C   0  0  0  0  0  0  0  0  0  0  0  0
  161.5950  203.5150  146.9910 C   0  0  0  0  0  3  0  0  0  0  0  0
  160.5830  202.5940  149.3960 C   0  0  0  0  0  0  0  0  0  0  0  0
  161.4400  203.6560  149.3690 C   0  0  0  0  0  0  0  0  0  0  0  0
  160.1870  201.9390  148.2330 C   0  0  0  0  0  2  0  0  0  0  0  0
  1  4  1  0  0  0  0
  2  6  1  0  0  0  0
  2  1  2  0  0  0  0
  3  9  1  0  0  0  0
  3  6  1  0  0  0  0
  4 14  1  0  0  0  0
  4 12  2  0  0  0  0
  5 19  1  0  0  0  0
  7 21  1  6  0  0  0
  7 10  1  0  0  0  0
  8 17  2  0  0  0  0
  8 16  1  0  0  0  0
 10 14  1  0  0  0  0
 11  1  1  0  0  0  0
 11  7  1  0  0  0  0
 12  5  1  0  0  0  0
 13  3  2  0  0  0  0
 14 15  1  0  0  0  0
 15  5  2  0  0  0  0
 16 11  2  0  0  0  0
 17  2  1  0  0  0  0
 18 13  1  0  0  0  0
 18 17  1  0  0  0  0
 20 19  1  0  0  0  0
 22 31  1  0  0  0  0
 23 30  2  0  0  0  0
 24 25  1  0  0  0  0
 26 22  1  0  0  0  0
 27 21  1  0  0  0  0
 27 25  2  0  0  0  0
 28 22  2  0  0  0  0
 28 23  1  0  0  0  0
 29 24  2  0  0  0  0
 30 29  1  0  0  0  0
 30 27  1  0  0  0  0
 31 29  1  0  0  0  0
M  END
>  <MODEL>
7

>  <REMARK>
 VINA RESULT:      -8.0      2.987      8.609
  Name = 
  3 active torsions:
  status: ('A' for Active; 'I' for Inactive)
    1  A    between atoms: C_2  and  C_13
    2  A    between atoms: C_9  and  C_23
    3  A    between atoms: C_15  and  C_23
                            x       y       z     vdW  Elec       q    Type
                         _______ _______ _______ _____ _____    ______ ____

>  <TORSDO>
F 3

$$$$
=
 OpenBabel11052422373D

 31 36  0  0  1  0  0  0  0  0999 V2000
  161.4390  207.9210  150.4620 C   0  0  0  0  0  0  0  0  0  0  0  0
  161.1600  206.5800  150.1140 C   0  0  0  0  0  0  0  0  0  0  0  0
  160.9470  204.1880  150.8000 C   0  0  0  0  0  0  0  0  0  0  0  0
  161.2030  208.4920  151.8040 C   0  0  0  0  0  0  0  0  0  0  0  0
  160.7990  208.9040  153.8880 C   0  0  0  0  0  0  0  0  0  0  0  0
  160.5360  205.6090  151.0870 C   0  0  0  0  0  2  0  0  0  0  0  0
  162.3720  210.2090  149.8380 C   0  0  1  0  0  3  0  0  0  0  0  0
  161.9510  207.0330  147.8700 C   0  0  0  0  0  3  0  0  0  0  0  0
  161.0270  203.2960  151.8190 F   0  0  0  0  0  0  0  0  0  0  0  0
  161.5270  210.8010  150.9800 C   0  0  0  0  0  2  0  0  0  0  0  0
  161.9610  208.7910  149.4770 C   0  0  0  0  0  0  0  0  0  0  0  0
  160.8790  207.8480  152.9880 C   0  0  0  0  0  3  0  0  0  0  0  0
  161.2110  203.7870  149.5480 C   0  0  0  0  0  3  0  0  0  0  0  0
  161.3120  209.8100  152.0250 N   0  0  0  0  0  0  0  0  0  0  0  0
  161.0440  210.0850  153.2860 N   0  0  0  0  0  0  0  0  0  0  0  0
  162.2190  208.3150  148.2270 N   0  0  0  0  0  0  0  0  0  0  0  0
  161.4220  206.1430  148.8010 C   0  0  0  0  0  0  0  0  0  0  0  0
  161.0910  204.7380  148.3860 C   0  0  0  0  0  2  0  0  0  0  0  0
  160.4250  208.7750  155.3220 C   0  0  0  0  0  2  0  0  0  0  0  0
  160.1410  207.3240  155.6530 C   0  0  0  0  0  1  0  0  0  0  0  0
  162.3210  211.1360  148.6290 C   0  0  0  0  0  2  0  0  0  0  0  0
  158.2040  213.6050  146.3990 C   0  0  0  0  0  0  0  0  0  0  0  0
  160.0610  212.0080  146.5120 C   0  0  0  0  0  3  0  0  0  0  0  0
  159.9570  213.6870  149.6350 N   0  0  0  0  0  0  0  0  0  0  0  0
  160.9960  212.8860  149.8630 N   0  0  0  0  0  0  0  0  0  0  0  0
  157.0880  214.2130  145.6310 C   0  0  0  0  0  1  0  0  0  0  0  0
  161.2090  212.1220  148.7670 C   0  0  0  0  0  0  0  0  0  0  0  0
  158.9990  212.5980  145.8030 C   0  0  0  0  0  3  0  0  0  0  0  0
  159.5220  213.4300  148.3890 C   0  0  0  0  0  0  0  0  0  0  0  0
  160.2840  212.4580  147.8100 C   0  0  0  0  0  0  0  0  0  0  0  0
  158.4650  214.0360  147.7150 C   0  0  0  0  0  2  0  0  0  0  0  0
  1  4  1  0  0  0  0
  2  1  1  0  0  0  0
  2  6  1  0  0  0  0
  3  6  1  0  0  0  0
  3  9  1  0  0  0  0
  4 14  1  0  0  0  0
  4 12  2  0  0  0  0
  5 19  1  0  0  0  0
  7 21  1  6  0  0  0
  7 10  1  0  0  0  0
  8 16  2  0  0  0  0
  8 17  1  0  0  0  0
 10 14  1  0  0  0  0
 11  7  1  0  0  0  0
 11  1  2  0  0  0  0
 12  5  1  0  0  0  0
 13  3  2  0  0  0  0
 14 15  1  0  0  0  0
 15  5  2  0  0  0  0
 16 11  1  0  0  0  0
 17  2  2  0  0  0  0
 18 17  1  0  0  0  0
 18 13  1  0  0  0  0
 19 20  1  0  0  0  0
 21 27  1  0  0  0  0
 22 31  1  0  0  0  0
 23 30  2  0  0  0  0
 24 25  1  0  0  0  0
 26 22  1  0  0  0  0
 27 25  2  0  0  0  0
 28 22  2  0  0  0  0
 28 23  1  0  0  0  0
 29 24  2  0  0  0  0
 30 29  1  0  0  0  0
 30 27  1  0  0  0  0
 31 29  1  0  0  0  0
M  END
>  <MODEL>
8

>  <REMARK>
 VINA RESULT:      -7.7      3.387      6.057
  Name = 
  3 active torsions:
  status: ('A' for Active; 'I' for Inactive)
    1  A    between atoms: C_2  and  C_13
    2  A    between atoms: C_9  and  C_23
    3  A    between atoms: C_15  and  C_23
                            x       y       z     vdW  Elec       q    Type
                         _______ _______ _______ _____ _____    ______ ____

>  <TORSDO>
F 3

$$$$
=
 OpenBabel11052422373D

 31 36  0  0  1  0  0  0  0  0999 V2000
  161.2730  207.8650  152.0740 C   0  0  0  0  0  0  0  0  0  0  0  0
  161.3070  208.4350  153.3660 C   0  0  0  0  0  0  0  0  0  0  0  0
  162.2860  210.1030  154.9460 C   0  0  0  0  0  0  0  0  0  0  0  0
  161.6150  208.5990  150.8370 C   0  0  0  0  0  0  0  0  0  0  0  0
  162.2710  209.9800  149.3090 C   0  0  0  0  0  0  0  0  0  0  0  0
  161.6530  209.8870  153.5960 C   0  0  0  0  0  2  0  0  0  0  0  0
  160.9240  205.8370  150.5700 C   0  0  1  0  0  3  0  0  0  0  0  0
  160.5870  206.3140  154.2850 C   0  0  0  0  0  3  0  0  0  0  0  0
  163.1810  211.1100  155.1120 F   0  0  0  0  0  0  0  0  0  0  0  0
  160.6760  206.8130  149.4070 C   0  0  0  0  0  2  0  0  0  0  0  0
  160.8740  206.5160  151.9290 C   0  0  0  0  0  0  0  0  0  0  0  0
  162.2000  209.8470  150.6900 C   0  0  0  0  0  3  0  0  0  0  0  0
  161.9580  209.3300  155.9920 C   0  0  0  0  0  3  0  0  0  0  0  0
  161.3870  208.0650  149.6290 N   0  0  0  0  0  0  0  0  0  0  0  0
  161.7570  208.9030  148.6820 N   0  0  0  0  0  0  0  0  0  0  0  0
  160.5660  205.7830  153.0360 N   0  0  0  0  0  0  0  0  0  0  0  0
  160.9580  207.6420  154.4750 C   0  0  0  0  0  0  0  0  0  0  0  0
  160.9360  208.2320  155.8570 C   0  0  0  0  0  2  0  0  0  0  0  0
  162.7820  211.1810  148.5940 C   0  0  0  0  0  2  0  0  0  0  0  0
  161.6870  212.2230  148.4850 C   0  0  0  0  0  1  0  0  0  0  0  0
  159.9400  204.6760  150.4840 C   0  0  0  0  0  2  0  0  0  0  0  0
  161.3510  200.5610  147.4680 C   0  0  0  0  0  0  0  0  0  0  0  0
  160.3210  202.7340  147.9470 C   0  0  0  0  0  3  0  0  0  0  0  0
  161.7810  201.5970  150.9740 N   0  0  0  0  0  0  0  0  0  0  0  0
  161.2770  202.7520  151.4060 N   0  0  0  0  0  0  0  0  0  0  0  0
  161.6560  199.4780  146.4980 C   0  0  0  0  0  1  0  0  0  0  0  0
  160.6660  203.3760  150.3730 C   0  0  0  0  0  0  0  0  0  0  0  0
  160.6210  201.6960  147.0450 C   0  0  0  0  0  3  0  0  0  0  0  0
  161.4790  201.4940  149.6680 C   0  0  0  0  0  0  0  0  0  0  0  0
  160.7760  202.5880  149.2540 C   0  0  0  0  0  0  0  0  0  0  0  0
  161.7900  200.4490  148.8020 C   0  0  0  0  0  2  0  0  0  0  0  0
  1  2  1  0  0  0  0
  2  6  1  0  0  0  0
  2 17  2  0  0  0  0
  3  9  1  0  0  0  0
  3 13  2  0  0  0  0
  4  1  1  0  0  0  0
  5 12  1  0  0  0  0
  6  3  1  0  0  0  0
  7 21  1  1  0  0  0
  7 11  1  0  0  0  0
  8 17  1  0  0  0  0
 10 14  1  0  0  0  0
 10  7  1  0  0  0  0
 11  1  2  0  0  0  0
 11 16  1  0  0  0  0
 12  4  2  0  0  0  0
 14  4  1  0  0  0  0
 15  5  2  0  0  0  0
 15 14  1  0  0  0  0
 16  8  2  0  0  0  0
 17 18  1  0  0  0  0
 18 13  1  0  0  0  0
 19  5  1  0  0  0  0
 20 19  1  0  0  0  0
 22 31  1  0  0  0  0
 23 30  2  0  0  0  0
 24 25  1  0  0  0  0
 26 22  1  0  0  0  0
 27 21  1  0  0  0  0
 27 25  2  0  0  0  0
 28 22  2  0  0  0  0
 28 23  1  0  0  0  0
 29 24  2  0  0  0  0
 30 29  1  0  0  0  0
 30 27  1  0  0  0  0
 31 29  1  0  0  0  0
M  END
>  <MODEL>
9

>  <REMARK>
 VINA RESULT:      -7.4      3.206      7.954
  Name = 
  3 active torsions:
  status: ('A' for Active; 'I' for Inactive)
    1  A    between atoms: C_2  and  C_13
    2  A    between atoms: C_9  and  C_23
    3  A    between atoms: C_15  and  C_23
                            x       y       z     vdW  Elec       q    Type
                         _______ _______ _______ _____ _____    ______ ____

>  <TORSDO>
F 3

$$$$
