=
 OpenBabel11052423203D

 27 31  0  0  1  0  0  0  0  0999 V2000
  162.0980  208.8620  148.6380 N   0  0  0  0  0  2  0  0  0  0  0  0
  161.9890  209.5320  151.0590 C   0  0  0  0  0  0  0  0  0  0  0  0
  160.5750  207.5580  150.7610 N   0  0  0  0  0  2  0  0  0  0  0  0
  161.8770  209.1050  155.2000 C   0  0  0  0  0  3  0  0  0  0  0  0
  161.0860  207.9700  157.1410 F   0  0  0  0  0  0  0  0  0  0  0  0
  162.6810  210.3530  151.9010 N   0  0  0  0  0  0  0  0  0  0  0  0
  160.3780  207.2120  154.9950 C   0  0  0  0  0  3  0  0  0  0  0  0
  161.1610  202.9070  148.4640 Cl  0  0  0  0  0  0  0  0  0  0  0  0
  160.4030  207.3370  153.6030 C   0  0  0  0  0  3  0  0  0  0  0  0
  161.3590  204.6460  148.5210 C   0  0  0  0  0  0  0  0  0  0  0  0
  161.1620  208.3520  153.0000 C   0  0  0  0  0  0  0  0  0  0  0  0
  161.9500  209.8380  149.6480 N   0  0  0  0  0  0  0  0  0  0  0  0
  161.1120  208.0950  155.7920 C   0  0  0  0  0  0  0  0  0  0  0  0
  161.9030  209.2350  153.8080 C   0  0  0  0  0  0  0  0  0  0  0  0
  161.9130  207.4410  148.7050 C   0  0  0  0  0  0  0  0  0  0  0  0
  161.2220  208.4960  151.6090 C   0  0  0  0  0  0  0  0  0  0  0  0
  160.6190  205.4480  149.5520 C   0  0  0  0  0  2  0  0  0  0  0  0
  162.6470  210.2060  153.2270 N   0  0  0  0  0  0  0  0  0  0  0  0
  162.0900  205.2620  147.5890 C   0  0  0  0  0  3  0  0  0  0  0  0
  162.2740  206.7240  147.6340 C   0  0  0  0  0  3  0  0  0  0  0  0
  161.4010  206.7110  149.9280 C   0  0  2  0  0  3  0  0  0  0  0  0
  161.7810  213.8810  148.3300 C   0  0  0  0  0  3  0  0  0  0  0  0
  161.9000  211.2160  149.2210 C   0  0  0  0  0  0  0  0  0  0  0  0
  160.9110  212.0900  149.7050 C   0  0  0  0  0  3  0  0  0  0  0  0
  160.8550  213.4150  149.2650 C   0  0  0  0  0  3  0  0  0  0  0  0
  162.7620  213.0210  147.8320 C   0  0  0  0  0  3  0  0  0  0  0  0
  162.8190  211.6950  148.2720 C   0  0  0  0  0  3  0  0  0  0  0  0
  1 15  1  0  0  0  0
  1 12  1  0  0  0  0
  2 16  2  0  0  0  0
  2  6  1  0  0  0  0
  3 16  1  0  0  0  0
  4 13  1  0  0  0  0
  6 18  2  0  0  0  0
  7 13  2  0  0  0  0
  8 10  1  0  0  0  0
  9  7  1  0  0  0  0
 10 17  1  0  0  0  0
 11  9  2  0  0  0  0
 11 14  1  0  0  0  0
 12  2  1  0  0  0  0
 13  5  1  0  0  0  0
 14  4  2  0  0  0  0
 15 21  1  0  0  0  0
 16 11  1  0  0  0  0
 18 14  1  0  0  0  0
 19 20  1  0  0  0  0
 19 10  2  0  0  0  0
 20 15  2  0  0  0  0
 21 17  1  6  0  0  0
 21  3  1  0  0  0  0
 22 25  1  0  0  0  0
 23 12  1  0  0  0  0
 23 24  1  0  0  0  0
 25 24  2  0  0  0  0
 26 27  1  0  0  0  0
 26 22  2  0  0  0  0
 27 23  2  0  0  0  0
M  END
>  <MODEL>
1

>  <REMARK>
 VINA RESULT:      -7.8      0.000      0.000
  Name = 
  1 active torsions:
  status: ('A' for Active; 'I' for Inactive)
    1  A    between atoms: C_9  and  N_15
                            x       y       z     vdW  Elec       q    Type
                         _______ _______ _______ _____ _____    ______ ____

>  <TORSDO>
F 1

$$$$
=
 OpenBabel11052423203D

 27 31  0  0  1  0  0  0  0  0999 V2000
  160.8330  206.8340  152.2760 N   0  0  0  0  0  2  0  0  0  0  0  0
  160.8220  209.3350  152.0100 C   0  0  0  0  0  0  0  0  0  0  0  0
  162.2320  208.3970  150.2440 N   0  0  0  0  0  2  0  0  0  0  0  0
  160.7140  213.0300  150.0930 C   0  0  0  0  0  3  0  0  0  0  0  0
  161.3930  214.4520  148.3050 F   0  0  0  0  0  0  0  0  0  0  0  0
  160.0940  210.3870  152.4840 N   0  0  0  0  0  0  0  0  0  0  0  0
  162.2050  212.2120  148.3660 C   0  0  0  0  0  3  0  0  0  0  0  0
  161.7270  204.5290  146.7760 Cl  0  0  0  0  0  0  0  0  0  0  0  0
  162.2540  210.9640  148.9940 C   0  0  0  0  0  3  0  0  0  0  0  0
  161.5410  205.2120  148.3780 C   0  0  0  0  0  0  0  0  0  0  0  0
  161.5360  210.7420  150.1790 C   0  0  0  0  0  0  0  0  0  0  0  0
  160.9360  208.1380  152.8100 N   0  0  0  0  0  0  0  0  0  0  0  0
  161.4380  213.2440  148.9150 C   0  0  0  0  0  0  0  0  0  0  0  0
  160.7620  211.7840  150.7240 C   0  0  0  0  0  0  0  0  0  0  0  0
  161.0030  206.3830  150.9250 C   0  0  0  0  0  0  0  0  0  0  0  0
  161.5500  209.5000  150.8240 C   0  0  0  0  0  0  0  0  0  0  0  0
  162.2340  206.4970  148.7250 C   0  0  0  0  0  2  0  0  0  0  0  0
  160.0570  211.5670  151.8600 N   0  0  0  0  0  0  0  0  0  0  0  0
  160.8650  204.5390  149.3110 C   0  0  0  0  0  3  0  0  0  0  0  0
  160.6920  205.1080  150.6600 C   0  0  0  0  0  3  0  0  0  0  0  0
  161.4440  207.2750  149.7840 C   0  0  2  0  0  3  0  0  0  0  0  0
  161.2270  208.4170  157.0470 C   0  0  0  0  0  3  0  0  0  0  0  0
  161.0200  208.2490  154.2470 C   0  0  0  0  0  0  0  0  0  0  0  0
  161.6840  209.3310  154.8520 C   0  0  0  0  0  3  0  0  0  0  0  0
  161.7830  209.4160  156.2440 C   0  0  0  0  0  3  0  0  0  0  0  0
  160.5750  207.3310  156.4580 C   0  0  0  0  0  3  0  0  0  0  0  0
  160.4760  207.2460  155.0660 C   0  0  0  0  0  3  0  0  0  0  0  0
  1 12  1  0  0  0  0
  2  6  1  0  0  0  0
  2 12  1  0  0  0  0
  3 16  1  0  0  0  0
  4 14  1  0  0  0  0
  5 13  1  0  0  0  0
  7 13  1  0  0  0  0
  7  9  2  0  0  0  0
  8 10  1  0  0  0  0
  9 11  1  0  0  0  0
 10 17  1  0  0  0  0
 10 19  2  0  0  0  0
 11 14  2  0  0  0  0
 11 16  1  0  0  0  0
 12 23  1  0  0  0  0
 13  4  2  0  0  0  0
 14 18  1  0  0  0  0
 15  1  1  0  0  0  0
 16  2  2  0  0  0  0
 18  6  2  0  0  0  0
 19 20  1  0  0  0  0
 20 15  2  0  0  0  0
 21 17  1  6  0  0  0
 21  3  1  0  0  0  0
 21 15  1  0  0  0  0
 23 24  2  0  0  0  0
 23 27  1  0  0  0  0
 24 25  1  0  0  0  0
 25 22  2  0  0  0  0
 26 22  1  0  0  0  0
 27 26  2  0  0  0  0
M  END
>  <MODEL>
2

>  <REMARK>
 VINA RESULT:      -7.5      2.499      5.766
  Name = 
  1 active torsions:
  status: ('A' for Active; 'I' for Inactive)
    1  A    between atoms: C_9  and  N_15
                            x       y       z     vdW  Elec       q    Type
                         _______ _______ _______ _____ _____    ______ ____

>  <TORSDO>
F 1

$$$$
=
 OpenBabel11052423203D

 27 31  0  0  1  0  0  0  0  0999 V2000
  161.3550  208.1910  153.6160 N   0  0  0  0  0  2  0  0  0  0  0  0
  161.5960  209.1060  151.2860 C   0  0  0  0  0  0  0  0  0  0  0  0
  160.2360  210.6790  152.5760 N   0  0  0  0  0  2  0  0  0  0  0  0
  162.1450  211.9140  148.2610 C   0  0  0  0  0  3  0  0  0  0  0  0
  161.7130  214.0670  147.3340 F   0  0  0  0  0  0  0  0  0  0  0  0
  162.3750  208.8650  150.1920 N   0  0  0  0  0  0  0  0  0  0  0  0
  160.7130  213.4880  149.4190 C   0  0  0  0  0  3  0  0  0  0  0  0
  160.6510  212.9430  157.2610 Cl  0  0  0  0  0  0  0  0  0  0  0  0
  160.5160  212.5610  150.4460 C   0  0  0  0  0  3  0  0  0  0  0  0
  160.7840  211.5690  156.1840 C   0  0  0  0  0  0  0  0  0  0  0  0
  161.1300  211.3000  150.3840 C   0  0  0  0  0  0  0  0  0  0  0  0
  161.3260  208.0310  152.2130 N   0  0  0  0  0  0  0  0  0  0  0  0
  161.5250  213.1660  148.3280 C   0  0  0  0  0  0  0  0  0  0  0  0
  161.9500  210.9830  149.2850 C   0  0  0  0  0  0  0  0  0  0  0  0
  161.2420  209.3840  154.4040 C   0  0  0  0  0  0  0  0  0  0  0  0
  160.9680  210.3530  151.4020 C   0  0  0  0  0  0  0  0  0  0  0  0
  160.1790  211.6360  154.8110 C   0  0  0  0  0  2  0  0  0  0  0  0
  162.5540  209.7720  149.2300 N   0  0  0  0  0  0  0  0  0  0  0  0
  161.3350  210.4340  156.6200 C   0  0  0  0  0  3  0  0  0  0  0  0
  161.4620  209.2740  155.7200 C   0  0  0  0  0  3  0  0  0  0  0  0
  160.9570  210.7540  153.8270 C   0  0  2  0  0  3  0  0  0  0  0  0
  160.8730  204.0790  150.7030 C   0  0  0  0  0  3  0  0  0  0  0  0
  161.1530  206.6880  151.7120 C   0  0  0  0  0  0  0  0  0  0  0  0
  161.3480  205.5730  152.5460 C   0  0  0  0  0  3  0  0  0  0  0  0
  161.2040  204.2770  152.0450 C   0  0  0  0  0  3  0  0  0  0  0  0
  160.6880  205.1770  149.8600 C   0  0  0  0  0  3  0  0  0  0  0  0
  160.8310  206.4740  150.3620 C   0  0  0  0  0  3  0  0  0  0  0  0
  1 15  1  0  0  0  0
  2 16  1  0  0  0  0
  2 12  1  0  0  0  0
  3 21  1  0  0  0  0
  4 13  2  0  0  0  0
  4 14  1  0  0  0  0
  5 13  1  0  0  0  0
  6  2  2  0  0  0  0
  7  9  2  0  0  0  0
 10 19  2  0  0  0  0
 10  8  1  0  0  0  0
 11  9  1  0  0  0  0
 11 16  2  0  0  0  0
 12  1  1  0  0  0  0
 13  7  1  0  0  0  0
 14 11  1  0  0  0  0
 15 20  2  0  0  0  0
 16  3  1  0  0  0  0
 17 10  1  0  0  0  0
 18 14  2  0  0  0  0
 18  6  1  0  0  0  0
 20 19  1  0  0  0  0
 21 15  1  0  0  0  0
 21 17  1  1  0  0  0
 22 25  1  0  0  0  0
 23 12  1  0  0  0  0
 23 24  1  0  0  0  0
 25 24  2  0  0  0  0
 26 27  1  0  0  0  0
 26 22  2  0  0  0  0
 27 23  2  0  0  0  0
M  END
>  <MODEL>
3

>  <REMARK>
 VINA RESULT:      -6.9      3.758      7.383
  Name = 
  1 active torsions:
  status: ('A' for Active; 'I' for Inactive)
    1  A    between atoms: C_9  and  N_15
                            x       y       z     vdW  Elec       q    Type
                         _______ _______ _______ _____ _____    ______ ____

>  <TORSDO>
F 1

$$$$
=
 OpenBabel11052423203D

 27 31  0  0  1  0  0  0  0  0999 V2000
  161.3880  206.7090  153.1230 N   0  0  0  0  0  2  0  0  0  0  0  0
  161.7770  207.8650  150.9240 C   0  0  0  0  0  0  0  0  0  0  0  0
  160.4430  209.3570  152.3320 N   0  0  0  0  0  2  0  0  0  0  0  0
  162.6020  210.9600  148.2630 C   0  0  0  0  0  3  0  0  0  0  0  0
  162.3200  213.2240  147.5730 F   0  0  0  0  0  0  0  0  0  0  0  0
  162.5910  207.7050  149.8410 N   0  0  0  0  0  0  0  0  0  0  0  0
  161.2010  212.4710  149.5380 C   0  0  0  0  0  3  0  0  0  0  0  0
  160.7640  211.0540  157.2580 Cl  0  0  0  0  0  0  0  0  0  0  0  0
  160.9120  211.4460  150.4440 C   0  0  0  0  0  3  0  0  0  0  0  0
  160.8740  209.8040  156.0370 C   0  0  0  0  0  0  0  0  0  0  0  0
  161.4630  210.1690  150.2610 C   0  0  0  0  0  0  0  0  0  0  0  0
  161.4120  206.7100  151.7110 N   0  0  0  0  0  0  0  0  0  0  0  0
  162.0430  212.2290  148.4490 C   0  0  0  0  0  0  0  0  0  0  0  0
  162.3140  209.9320  149.1660 C   0  0  0  0  0  0  0  0  0  0  0  0
  161.3000  207.8110  154.0370 C   0  0  0  0  0  0  0  0  0  0  0  0
  161.2080  209.1240  151.1580 C   0  0  0  0  0  0  0  0  0  0  0  0
  160.3360  210.0580  154.6590 C   0  0  0  0  0  2  0  0  0  0  0  0
  162.8580  208.7030  148.9960 N   0  0  0  0  0  0  0  0  0  0  0  0
  161.3480  208.5990  156.3610 C   0  0  0  0  0  3  0  0  0  0  0  0
  161.4560  207.5420  155.3390 C   0  0  0  0  0  3  0  0  0  0  0  0
  161.1110  209.2510  153.6110 C   0  0  2  0  0  3  0  0  0  0  0  0
  160.8300  202.9800  149.7470 C   0  0  0  0  0  3  0  0  0  0  0  0
  161.1940  205.4430  151.0540 C   0  0  0  0  0  0  0  0  0  0  0  0
  161.2020  204.2390  151.7800 C   0  0  0  0  0  3  0  0  0  0  0  0
  161.0170  203.0160  151.1300 C   0  0  0  0  0  3  0  0  0  0  0  0
  160.8310  204.1680  149.0110 C   0  0  0  0  0  3  0  0  0  0  0  0
  161.0160  205.3910  149.6610 C   0  0  0  0  0  3  0  0  0  0  0  0
  1 15  1  0  0  0  0
  2 16  1  0  0  0  0
  2 12  1  0  0  0  0
  3 21  1  0  0  0  0
  4 13  2  0  0  0  0
  4 14  1  0  0  0  0
  5 13  1  0  0  0  0
  6  2  2  0  0  0  0
  7  9  2  0  0  0  0
 10 19  2  0  0  0  0
 10  8  1  0  0  0  0
 11  9  1  0  0  0  0
 11 16  2  0  0  0  0
 12  1  1  0  0  0  0
 13  7  1  0  0  0  0
 14 11  1  0  0  0  0
 15 20  2  0  0  0  0
 16  3  1  0  0  0  0
 17 10  1  0  0  0  0
 18 14  2  0  0  0  0
 18  6  1  0  0  0  0
 20 19  1  0  0  0  0
 21 15  1  0  0  0  0
 21 17  1  1  0  0  0
 22 25  1  0  0  0  0
 23 12  1  0  0  0  0
 23 24  1  0  0  0  0
 25 24  2  0  0  0  0
 26 27  1  0  0  0  0
 26 22  2  0  0  0  0
 27 23  2  0  0  0  0
M  END
>  <MODEL>
4

>  <REMARK>
 VINA RESULT:      -6.4      3.460      7.152
  Name = 
  1 active torsions:
  status: ('A' for Active; 'I' for Inactive)
    1  A    between atoms: C_9  and  N_15
                            x       y       z     vdW  Elec       q    Type
                         _______ _______ _______ _____ _____    ______ ____

>  <TORSDO>
F 1

$$$$
=
 OpenBabel11052423203D

 27 31  0  0  1  0  0  0  0  0999 V2000
  160.9920  208.8350  153.4480 N   0  0  0  0  0  2  0  0  0  0  0  0
  160.7910  211.0550  152.2840 C   0  0  0  0  0  0  0  0  0  0  0  0
  162.1450  209.5870  150.8720 N   0  0  0  0  0  2  0  0  0  0  0  0
  160.3040  213.7670  149.1620 C   0  0  0  0  0  3  0  0  0  0  0  0
  160.7660  214.4500  146.9260 F   0  0  0  0  0  0  0  0  0  0  0  0
  160.0250  212.1790  152.4000 N   0  0  0  0  0  0  0  0  0  0  0  0
  161.7330  212.4280  147.7350 C   0  0  0  0  0  3  0  0  0  0  0  0
  161.6830  204.6900  149.1220 Cl  0  0  0  0  0  0  0  0  0  0  0  0
  161.9090  211.5050  148.7700 C   0  0  0  0  0  3  0  0  0  0  0  0
  161.5550  205.9110  150.3710 C   0  0  0  0  0  0  0  0  0  0  0  0
  161.2860  211.7100  150.0110 C   0  0  0  0  0  0  0  0  0  0  0  0
  161.0400  210.2460  153.4550 N   0  0  0  0  0  0  0  0  0  0  0  0
  160.9340  213.5580  147.9310 C   0  0  0  0  0  0  0  0  0  0  0  0
  160.4780  212.8470  150.2000 C   0  0  0  0  0  0  0  0  0  0  0  0
  161.1040  207.9220  152.3470 C   0  0  0  0  0  0  0  0  0  0  0  0
  161.4270  210.7970  151.0630 C   0  0  0  0  0  0  0  0  0  0  0  0
  162.1790  207.2600  150.1620 C   0  0  0  0  0  2  0  0  0  0  0  0
  159.8660  213.0390  151.3930 N   0  0  0  0  0  0  0  0  0  0  0  0
  160.9890  205.6060  151.5410 C   0  0  0  0  0  3  0  0  0  0  0  0
  160.8650  206.6280  152.5960 C   0  0  0  0  0  3  0  0  0  0  0  0
  161.4080  208.3430  150.9260 C   0  0  2  0  0  3  0  0  0  0  0  0
  161.4880  212.0990  157.2600 C   0  0  0  0  0  3  0  0  0  0  0  0
  161.2090  210.8870  154.7380 C   0  0  0  0  0  0  0  0  0  0  0  0
  162.2920  210.5610  155.5740 C   0  0  0  0  0  3  0  0  0  0  0  0
  162.4320  211.1670  156.8250 C   0  0  0  0  0  3  0  0  0  0  0  0
  160.4000  212.4230  156.4450 C   0  0  0  0  0  3  0  0  0  0  0  0
  160.2600  211.8170  155.1930 C   0  0  0  0  0  3  0  0  0  0  0  0
  1 12  1  0  0  0  0
  2  6  1  0  0  0  0
  2 12  1  0  0  0  0
  3 21  1  0  0  0  0
  3 16  1  0  0  0  0
  4 14  1  0  0  0  0
  5 13  1  0  0  0  0
  7 13  1  0  0  0  0
  7  9  2  0  0  0  0
  8 10  1  0  0  0  0
  9 11  1  0  0  0  0
 10 19  2  0  0  0  0
 11 14  2  0  0  0  0
 11 16  1  0  0  0  0
 12 23  1  0  0  0  0
 13  4  2  0  0  0  0
 14 18  1  0  0  0  0
 15 20  2  0  0  0  0
 15  1  1  0  0  0  0
 16  2  2  0  0  0  0
 17 10  1  0  0  0  0
 18  6  2  0  0  0  0
 19 20  1  0  0  0  0
 21 17  1  1  0  0  0
 21 15  1  0  0  0  0
 23 27  2  0  0  0  0
 23 24  1  0  0  0  0
 24 25  2  0  0  0  0
 25 22  1  0  0  0  0
 26 22  2  0  0  0  0
 27 26  1  0  0  0  0
M  END
>  <MODEL>
5

>  <REMARK>
 VINA RESULT:      -6.3      3.086      6.047
  Name = 
  1 active torsions:
  status: ('A' for Active; 'I' for Inactive)
    1  A    between atoms: C_9  and  N_15
                            x       y       z     vdW  Elec       q    Type
                         _______ _______ _______ _____ _____    ______ ____

>  <TORSDO>
F 1

$$$$
=
 OpenBabel11052423203D

 27 31  0  0  1  0  0  0  0  0999 V2000
  161.0470  209.5610  151.9110 N   0  0  0  0  0  2  0  0  0  0  0  0
  161.1700  207.7020  150.2220 C   0  0  0  0  0  0  0  0  0  0  0  0
  161.9090  206.8100  152.3760 N   0  0  0  0  0  2  0  0  0  0  0  0
  160.8140  203.8640  148.6460 C   0  0  0  0  0  3  0  0  0  0  0  0
  161.0520  201.5040  148.8780 F   0  0  0  0  0  0  0  0  0  0  0  0
  160.7080  207.4660  148.9600 N   0  0  0  0  0  0  0  0  0  0  0  0
  161.6520  202.9070  150.7090 C   0  0  0  0  0  3  0  0  0  0  0  0
  160.0720  206.9530  157.2600 Cl  0  0  0  0  0  0  0  0  0  0  0  0
  161.7780  204.1860  151.2570 C   0  0  0  0  0  3  0  0  0  0  0  0
  160.4270  207.6930  155.7140 C   0  0  0  0  0  0  0  0  0  0  0  0
  161.4270  205.3150  150.5000 C   0  0  0  0  0  0  0  0  0  0  0  0
  161.4140  209.0630  150.6420 N   0  0  0  0  0  0  0  0  0  0  0  0
  161.1720  202.7460  149.4060 C   0  0  0  0  0  0  0  0  0  0  0  0
  160.9400  205.1460  149.1900 C   0  0  0  0  0  0  0  0  0  0  0  0
  160.7690  208.8520  153.1270 C   0  0  0  0  0  0  0  0  0  0  0  0
  161.5250  206.6100  151.0240 C   0  0  0  0  0  0  0  0  0  0  0  0
  161.2980  206.9730  154.7250 C   0  0  0  0  0  2  0  0  0  0  0  0
  160.5880  206.2330  148.4640 N   0  0  0  0  0  0  0  0  0  0  0  0
  160.0030  208.9320  155.4580 C   0  0  0  0  0  3  0  0  0  0  0  0
  160.2870  209.5610  154.1540 C   0  0  0  0  0  3  0  0  0  0  0  0
  160.9270  207.3550  153.2880 C   0  0  2  0  0  3  0  0  0  0  0  0
  162.9720  211.9040  147.8830 C   0  0  0  0  0  3  0  0  0  0  0  0
  161.9290  210.0190  149.6900 C   0  0  0  0  0  0  0  0  0  0  0  0
  162.7890  209.6170  148.6530 C   0  0  0  0  0  3  0  0  0  0  0  0
  163.3040  210.5540  147.7530 C   0  0  0  0  0  3  0  0  0  0  0  0
  162.1280  212.3190  148.9160 C   0  0  0  0  0  3  0  0  0  0  0  0
  161.6130  211.3810  149.8160 C   0  0  0  0  0  3  0  0  0  0  0  0
  1 15  1  0  0  0  0
  2 12  1  0  0  0  0
  2 16  1  0  0  0  0
  3 21  1  0  0  0  0
  4 14  1  0  0  0  0
  4 13  2  0  0  0  0
  5 13  1  0  0  0  0
  6  2  2  0  0  0  0
  7  9  2  0  0  0  0
 10  8  1  0  0  0  0
 11 16  2  0  0  0  0
 11  9  1  0  0  0  0
 12  1  1  0  0  0  0
 13  7  1  0  0  0  0
 14 11  1  0  0  0  0
 15 21  1  0  0  0  0
 15 20  2  0  0  0  0
 16  3  1  0  0  0  0
 17 10  1  0  0  0  0
 18  6  1  0  0  0  0
 18 14  2  0  0  0  0
 19 10  2  0  0  0  0
 20 19  1  0  0  0  0
 21 17  1  1  0  0  0
 22 26  1  0  0  0  0
 23 27  1  0  0  0  0
 23 12  1  0  0  0  0
 24 23  2  0  0  0  0
 25 22  2  0  0  0  0
 25 24  1  0  0  0  0
 26 27  2  0  0  0  0
M  END
>  <MODEL>
6

>  <REMARK>
 VINA RESULT:      -5.4      3.134      5.606
  Name = 
  1 active torsions:
  status: ('A' for Active; 'I' for Inactive)
    1  A    between atoms: C_9  and  N_15
                            x       y       z     vdW  Elec       q    Type
                         _______ _______ _______ _____ _____    ______ ____

>  <TORSDO>
F 1

$$$$
