=
 OpenBabel11062410123D

 43 48  0  0  1  0  0  0  0  0999 V2000
  160.8200  202.0610  146.3360 C   0  0  0  0  0  0  0  0  0  0  0  0
  161.8710  206.6960  148.1010 C   0  0  0  0  0  0  0  0  0  0  0  0
  162.1500  206.3710  150.8560 C   0  0  0  0  0  0  0  0  0  0  0  0
  161.2950  204.4290  146.5270 C   0  0  0  0  0  0  0  0  0  0  0  0
  160.9330  201.9230  147.7220 C   0  0  0  0  0  3  0  0  0  0  0  0
  160.4510  200.6670  145.3450 Cl  0  0  0  0  0  0  0  0  0  0  0  0
  161.4110  204.2970  147.9310 C   0  0  0  0  0  0  0  0  0  0  0  0
  161.0020  203.3120  145.7390 C   0  0  0  0  0  3  0  0  0  0  0  0
  161.2280  203.0340  148.5170 C   0  0  0  0  0  3  0  0  0  0  0  0
  161.8480  205.3080  150.0640 N   0  0  0  0  0  0  0  0  0  0  0  0
  161.7080  205.4280  148.7150 C   0  0  0  0  0  0  0  0  0  0  0  0
  161.7640  206.7940  146.7050 C   0  0  0  0  0  3  0  0  0  0  0  0
  162.1620  207.8180  148.9160 C   0  0  0  0  0  0  0  0  0  0  0  0
  162.3090  207.6350  150.2920 C   0  0  0  0  0  3  0  0  0  0  0  0
  161.4780  205.6730  145.9260 C   0  0  0  0  0  3  0  0  0  0  0  0
  162.2990  206.2000  152.3340 C   0  0  1  0  0  3  0  0  0  0  0  0
  161.8550  207.4560  153.0650 C   0  0  0  0  0  2  0  0  0  0  0  0
  161.4170  205.0620  152.8310 C   0  0  0  0  0  2  0  0  0  0  0  0
  160.5020  207.1340  153.6550 C   0  0  1  0  0  3  0  0  0  0  0  0
  160.5190  205.6420  153.9040 C   0  0  0  0  0  2  0  0  0  0  0  0
  160.3020  207.8960  154.9540 C   0  0  0  0  0  2  0  0  0  0  0  0
  161.4840  208.7050  155.2510 N   0  0  0  0  0  0  0  0  0  0  0  0
  162.2410  210.7380  156.2300 C   0  0  0  0  0  2  0  0  0  0  0  0
  161.9580  208.3680  156.5850 C   0  0  0  0  0  2  0  0  0  0  0  0
  161.2130  210.1530  155.2800 C   0  0  1  0  0  0  0  0  0  0  0  0
  161.4270  210.7300  153.8900 C   0  0  0  0  0  1  0  0  0  0  0  0
  162.6410  209.6010  157.1450 C   0  0  0  0  0  2  0  0  0  0  0  0
  159.7980  210.4990  155.7920 C   0  0  0  0  0  2  0  0  0  0  0  0
  159.2800  211.7210  155.1740 N   0  0  0  0  0  0  0  0  0  0  0  0
  156.8820  211.2220  155.6250 C   0  0  0  0  0  2  0  0  0  0  0  0
  158.0690  212.5130  157.2010 C   0  0  0  0  0  2  0  0  0  0  0  0
  156.7960  212.3830  156.5020 N   0  0  0  0  0  2  0  0  0  0  0  0
  159.1890  212.7800  156.1890 C   0  0  0  0  0  2  0  0  0  0  0  0
  157.9680  211.4490  154.5690 C   0  0  0  0  0  2  0  0  0  0  0  0
  162.3260  209.1550  148.4120 N   0  0  0  0  0  2  0  0  0  0  0  0
  161.9250  210.3910  149.0720 C   0  0  1  0  0  3  0  0  0  0  0  0
  162.2350  210.3280  150.5590 C   0  0  0  0  0  1  0  0  0  0  0  0
  162.5900  211.5960  148.4080 C   0  0  0  0  0  2  0  0  0  0  0  0
  161.6520  212.7950  148.2650 C   0  0  2  0  0  3  0  0  0  0  0  0
  160.8210  212.8920  149.3820 O   0  0  0  0  0  1  0  0  0  0  0  0
  161.3900  212.7920  145.7760 O   0  0  0  0  0  0  0  0  0  0  0  0
  159.5950  212.3840  147.1410 O   0  0  0  0  0  1  0  0  0  0  0  0
  160.8200  212.6520  147.0370 C   0  0  0  0  0  0  0  0  0  0  0  0
  1  5  1  0  0  0  0
  2 11  1  0  0  0  0
  2 13  1  0  0  0  0
  4  7  1  0  0  0  0
  5  9  2  0  0  0  0
  6  1  1  0  0  0  0
  7  9  1  0  0  0  0
  7 11  2  0  0  0  0
  8  1  2  0  0  0  0
  8  4  1  0  0  0  0
 10  3  2  0  0  0  0
 11 10  1  0  0  0  0
 12  2  2  0  0  0  0
 13 14  2  0  0  0  0
 14  3  1  0  0  0  0
 15  4  2  0  0  0  0
 15 12  1  0  0  0  0
 16  3  1  6  0  0  0
 16 18  1  0  0  0  0
 16 17  1  0  0  0  0
 17 19  1  0  0  0  0
 18 20  1  0  0  0  0
 19 20  1  0  0  0  0
 19 21  1  1  0  0  0
 21 22  1  0  0  0  0
 22 25  1  0  0  0  0
 22 24  1  0  0  0  0
 23 27  1  0  0  0  0
 24 27  1  0  0  0  0
 25 26  1  6  0  0  0
 25 28  1  0  0  0  0
 25 23  1  0  0  0  0
 29 28  1  0  0  0  0
 29 33  1  0  0  0  0
 30 32  1  0  0  0  0
 32 31  1  0  0  0  0
 33 31  1  0  0  0  0
 34 29  1  0  0  0  0
 34 30  1  0  0  0  0
 35 13  1  0  0  0  0
 35 36  1  0  0  0  0
 36 37  1  1  0  0  0
 38 36  1  0  0  0  0
 39 38  1  0  0  0  0
 39 40  1  1  0  0  0
 41 43  2  0  0  0  0
 43 42  1  0  0  0  0
 43 39  1  0  0  0  0
M  END
>  <MODEL>
1

>  <REMARK>
 VINA RESULT:      -8.6      0.000      0.000
  Name = 
  10 active torsions:
  status: ('A' for Active; 'I' for Inactive)
    1  A    between atoms: C_1  and  C_9
    2  A    between atoms: C_1  and  N_35
    3  A    between atoms: C_2  and  C_13
    4  A    between atoms: C_3  and  N_4
    5  A    between atoms: C_3  and  C_12
    6  A    between atoms: C_9  and  C_32
    7  A    between atoms: N_11  and  C_14
    8  A    between atoms: C_14  and  C_22
    9  A    between atoms: C_32  and  C_37
   10  A    between atoms: C_34  and  N_35
                            x       y       z     vdW  Elec       q    Type
                         _______ _______ _______ _____ _____    ______ ____

>  <TORSDO>
F 10

$$$$
=
 OpenBabel11062410123D

 43 48  0  0  1  0  0  0  0  0999 V2000
  160.8220  202.9590  150.2270 C   0  0  0  0  0  0  0  0  0  0  0  0
  161.6090  207.9060  149.4440 C   0  0  0  0  0  0  0  0  0  0  0  0
  161.7880  209.0190  151.9950 C   0  0  0  0  0  0  0  0  0  0  0  0
  161.1910  205.1280  149.2110 C   0  0  0  0  0  0  0  0  0  0  0  0
  160.8830  203.5390  151.4970 C   0  0  0  0  0  3  0  0  0  0  0  0
  160.5500  201.2390  150.0640 Cl  0  0  0  0  0  0  0  0  0  0  0  0
  161.2540  205.7220  150.4940 C   0  0  0  0  0  0  0  0  0  0  0  0
  160.9760  203.7520  149.0860 C   0  0  0  0  0  3  0  0  0  0  0  0
  161.0990  204.9140  151.6310 C   0  0  0  0  0  3  0  0  0  0  0  0
  161.5620  207.6880  151.8380 N   0  0  0  0  0  0  0  0  0  0  0  0
  161.4720  207.1080  150.6090 C   0  0  0  0  0  0  0  0  0  0  0  0
  161.5540  207.2870  148.1860 C   0  0  0  0  0  3  0  0  0  0  0  0
  161.8190  209.3000  149.5900 C   0  0  0  0  0  0  0  0  0  0  0  0
  161.9180  209.8380  150.8750 C   0  0  0  0  0  3  0  0  0  0  0  0
  161.3460  205.9120  148.0700 C   0  0  0  0  0  3  0  0  0  0  0  0
  161.8830  209.6190  153.3610 C   0  0  1  0  0  3  0  0  0  0  0  0
  161.2610  211.0050  153.3820 C   0  0  0  0  0  2  0  0  0  0  0  0
  161.1160  208.7730  154.3690 C   0  0  0  0  0  2  0  0  0  0  0  0
  159.9270  210.8490  154.0740 C   0  0  1  0  0  3  0  0  0  0  0  0
  160.1050  209.6890  155.0280 C   0  0  0  0  0  2  0  0  0  0  0  0
  159.5760  212.1200  154.8280 C   0  0  0  0  0  2  0  0  0  0  0  0
  158.5690  211.8370  155.8510 N   0  0  0  0  0  0  0  0  0  0  0  0
  156.3240  212.2510  156.5240 C   0  0  0  0  0  2  0  0  0  0  0  0
  157.7950  210.6760  155.4370 C   0  0  0  0  0  2  0  0  0  0  0  0
  157.5910  212.9240  156.0300 C   0  0  1  0  0  0  0  0  0  0  0  0
  158.0980  213.8830  157.0950 C   0  0  0  0  0  1  0  0  0  0  0  0
  156.4120  210.8190  156.0420 C   0  0  0  0  0  2  0  0  0  0  0  0
  157.2810  213.6870  154.7240 C   0  0  0  0  0  2  0  0  0  0  0  0
  156.7690  212.7950  153.6830 N   0  0  0  0  0  0  0  0  0  0  0  0
  155.0600  214.3890  152.8200 C   0  0  0  0  0  2  0  0  0  0  0  0
  157.1860  214.3700  151.8000 C   0  0  0  0  0  2  0  0  0  0  0  0
  155.7540  214.4530  151.5390 N   0  0  0  0  0  2  0  0  0  0  0  0
  157.5190  213.0170  152.4380 C   0  0  0  0  0  2  0  0  0  0  0  0
  155.3320  213.0370  153.4890 C   0  0  0  0  0  2  0  0  0  0  0  0
  161.9490  210.2130  148.4870 N   0  0  0  0  0  2  0  0  0  0  0  0
  161.9390  211.6690  148.5530 C   0  0  1  0  0  3  0  0  0  0  0  0
  163.2760  212.2330  148.1010 C   0  0  0  0  0  1  0  0  0  0  0  0
  160.7810  212.2370  147.7340 C   0  0  0  0  0  2  0  0  0  0  0  0
  160.1310  213.4590  148.3830 C   0  0  2  0  0  3  0  0  0  0  0  0
  160.1630  213.3390  149.7730 O   0  0  0  0  0  1  0  0  0  0  0  0
  157.6700  213.1900  148.7470 O   0  0  0  0  0  1  0  0  0  0  0  0
  158.4730  214.0910  146.7990 O   0  0  0  0  0  0  0  0  0  0  0  0
  158.7190  213.5930  147.9270 C   0  0  0  0  0  0  0  0  0  0  0  0
  1  5  1  0  0  0  0
  2 13  2  0  0  0  0
  2 11  1  0  0  0  0
  4  7  2  0  0  0  0
  5  9  2  0  0  0  0
  6  1  1  0  0  0  0
  7 11  1  0  0  0  0
  7  9  1  0  0  0  0
  8  4  1  0  0  0  0
  8  1  2  0  0  0  0
 10  3  1  0  0  0  0
 11 10  2  0  0  0  0
 12  2  1  0  0  0  0
 13 14  1  0  0  0  0
 14  3  2  0  0  0  0
 15 12  2  0  0  0  0
 15  4  1  0  0  0  0
 16  3  1  6  0  0  0
 16 17  1  0  0  0  0
 16 18  1  0  0  0  0
 17 19  1  0  0  0  0
 18 20  1  0  0  0  0
 19 21  1  1  0  0  0
 19 20  1  0  0  0  0
 21 22  1  0  0  0  0
 22 25  1  0  0  0  0
 24 22  1  0  0  0  0
 24 27  1  0  0  0  0
 25 23  1  0  0  0  0
 25 26  1  1  0  0  0
 27 23  1  0  0  0  0
 28 25  1  0  0  0  0
 29 28  1  0  0  0  0
 30 34  1  0  0  0  0
 31 33  1  0  0  0  0
 32 31  1  0  0  0  0
 32 30  1  0  0  0  0
 33 29  1  0  0  0  0
 34 29  1  0  0  0  0
 35 36  1  0  0  0  0
 35 13  1  0  0  0  0
 36 37  1  6  0  0  0
 38 39  1  0  0  0  0
 38 36  1  0  0  0  0
 39 40  1  1  0  0  0
 42 43  2  0  0  0  0
 43 39  1  0  0  0  0
 43 41  1  0  0  0  0
M  END
>  <MODEL>
2

>  <REMARK>
 VINA RESULT:      -7.5      2.116      3.735
  Name = 
  10 active torsions:
  status: ('A' for Active; 'I' for Inactive)
    1  A    between atoms: C_1  and  C_9
    2  A    between atoms: C_1  and  N_35
    3  A    between atoms: C_2  and  C_13
    4  A    between atoms: C_3  and  N_4
    5  A    between atoms: C_3  and  C_12
    6  A    between atoms: C_9  and  C_32
    7  A    between atoms: N_11  and  C_14
    8  A    between atoms: C_14  and  C_22
    9  A    between atoms: C_32  and  C_37
   10  A    between atoms: C_34  and  N_35
                            x       y       z     vdW  Elec       q    Type
                         _______ _______ _______ _____ _____    ______ ____

>  <TORSDO>
F 10

$$$$
=
 OpenBabel11062410123D

 43 48  0  0  1  0  0  0  0  0999 V2000
  161.3360  204.4480  148.0530 C   0  0  0  0  0  0  0  0  0  0  0  0
  161.7630  208.6800  150.8110 C   0  0  0  0  0  0  0  0  0  0  0  0
  162.1700  210.7160  148.9480 C   0  0  0  0  0  0  0  0  0  0  0  0
  161.4230  206.0430  149.8750 C   0  0  0  0  0  0  0  0  0  0  0  0
  161.5720  205.4760  147.1360 C   0  0  0  0  0  3  0  0  0  0  0  0
  161.1350  202.8030  147.4900 Cl  0  0  0  0  0  0  0  0  0  0  0  0
  161.6620  207.0890  148.9520 C   0  0  0  0  0  0  0  0  0  0  0  0
  161.2610  204.7310  149.4200 C   0  0  0  0  0  3  0  0  0  0  0  0
  161.7330  206.7910  147.5820 C   0  0  0  0  0  3  0  0  0  0  0  0
  162.0260  209.4270  148.5400 N   0  0  0  0  0  0  0  0  0  0  0  0
  161.8220  208.4070  149.4200 C   0  0  0  0  0  0  0  0  0  0  0  0
  161.5120  207.6250  151.7000 C   0  0  0  0  0  3  0  0  0  0  0  0
  161.9360  210.0150  151.2540 C   0  0  0  0  0  0  0  0  0  0  0  0
  162.1270  211.0230  150.3070 C   0  0  0  0  0  3  0  0  0  0  0  0
  161.3450  206.3190  151.2380 C   0  0  0  0  0  3  0  0  0  0  0  0
  162.3890  211.8090  147.9520 C   0  0  1  0  0  3  0  0  0  0  0  0
  161.1070  212.1090  147.1960 C   0  0  0  0  0  2  0  0  0  0  0  0
  162.8030  213.0950  148.6540 C   0  0  0  0  0  2  0  0  0  0  0  0
  160.5810  213.4030  147.7720 C   0  0  1  0  0  3  0  0  0  0  0  0
  161.8050  214.1570  148.2410 C   0  0  0  0  0  2  0  0  0  0  0  0
  159.8390  214.1890  146.7040 C   0  0  0  0  0  2  0  0  0  0  0  0
  158.4340  213.7830  146.6650 N   0  0  0  0  0  0  0  0  0  0  0  0
  156.8700  212.3170  145.6310 C   0  0  0  0  0  2  0  0  0  0  0  0
  158.2420  212.6710  147.5850 C   0  0  0  0  0  2  0  0  0  0  0  0
  158.0010  213.2880  145.3470 C   0  0  1  0  0  0  0  0  0  0  0  0
  157.4700  214.4510  144.5250 C   0  0  0  0  0  1  0  0  0  0  0  0
  157.0950  211.8370  147.0480 C   0  0  0  0  0  2  0  0  0  0  0  0
  159.1180  212.5510  144.5750 C   0  0  0  0  0  2  0  0  0  0  0  0
  159.4330  213.2160  143.3100 N   0  0  0  0  0  0  0  0  0  0  0  0
  161.8990  213.2450  143.6600 C   0  0  0  0  0  2  0  0  0  0  0  0
  160.9600  211.4310  142.4830 C   0  0  0  0  0  2  0  0  0  0  0  0
  162.0810  212.3620  142.5140 N   0  0  0  0  0  2  0  0  0  0  0  0
  159.6520  212.2020  142.2680 C   0  0  0  0  0  2  0  0  0  0  0  0
  160.6180  214.0680  143.4820 C   0  0  0  0  0  2  0  0  0  0  0  0
  161.9200  210.4110  152.6370 N   0  0  0  0  0  2  0  0  0  0  0  0
  160.7760  210.9170  153.3860 C   0  0  1  0  0  3  0  0  0  0  0  0
  159.7910  211.6060  152.4560 C   0  0  0  0  0  1  0  0  0  0  0  0
  160.1110  209.7910  154.1770 C   0  0  0  0  0  2  0  0  0  0  0  0
  161.1130  208.9080  154.9210 C   0  0  2  0  0  3  0  0  0  0  0  0
  160.6580  207.5890  154.9570 O   0  0  0  0  0  1  0  0  0  0  0  0
  160.2920  209.2730  157.2560 O   0  0  0  0  0  1  0  0  0  0  0  0
  162.3960  209.9380  156.6390 O   0  0  0  0  0  0  0  0  0  0  0  0
  161.3040  209.4070  156.3120 C   0  0  0  0  0  0  0  0  0  0  0  0
  1  8  1  0  0  0  0
  2 13  1  0  0  0  0
  2 12  1  0  0  0  0
  3 14  1  0  0  0  0
  4 15  1  0  0  0  0
  5  9  1  0  0  0  0
  5  1  2  0  0  0  0
  6  1  1  0  0  0  0
  7 11  1  0  0  0  0
  7  4  1  0  0  0  0
  8  4  2  0  0  0  0
  9  7  2  0  0  0  0
 10  3  2  0  0  0  0
 10 11  1  0  0  0  0
 11  2  2  0  0  0  0
 13 35  1  0  0  0  0
 14 13  2  0  0  0  0
 15 12  2  0  0  0  0
 16 18  1  0  0  0  0
 16  3  1  1  0  0  0
 17 19  1  0  0  0  0
 17 16  1  0  0  0  0
 19 21  1  6  0  0  0
 19 20  1  0  0  0  0
 20 18  1  0  0  0  0
 22 21  1  0  0  0  0
 22 24  1  0  0  0  0
 23 27  1  0  0  0  0
 25 26  1  6  0  0  0
 25 23  1  0  0  0  0
 25 22  1  0  0  0  0
 27 24  1  0  0  0  0
 28 25  1  0  0  0  0
 29 34  1  0  0  0  0
 29 28  1  0  0  0  0
 31 32  1  0  0  0  0
 32 30  1  0  0  0  0
 33 31  1  0  0  0  0
 33 29  1  0  0  0  0
 34 30  1  0  0  0  0
 35 36  1  0  0  0  0
 36 37  1  6  0  0  0
 36 38  1  0  0  0  0
 38 39  1  0  0  0  0
 39 40  1  1  0  0  0
 39 43  1  0  0  0  0
 43 42  2  0  0  0  0
 43 41  1  0  0  0  0
M  END
>  <MODEL>
3

>  <REMARK>
 VINA RESULT:      -7.4      3.547      8.665
  Name = 
  10 active torsions:
  status: ('A' for Active; 'I' for Inactive)
    1  A    between atoms: C_1  and  C_9
    2  A    between atoms: C_1  and  N_35
    3  A    between atoms: C_2  and  C_13
    4  A    between atoms: C_3  and  N_4
    5  A    between atoms: C_3  and  C_12
    6  A    between atoms: C_9  and  C_32
    7  A    between atoms: N_11  and  C_14
    8  A    between atoms: C_14  and  C_22
    9  A    between atoms: C_32  and  C_37
   10  A    between atoms: C_34  and  N_35
                            x       y       z     vdW  Elec       q    Type
                         _______ _______ _______ _____ _____    ______ ____

>  <TORSDO>
F 10

$$$$
=
 OpenBabel11062410123D

 43 48  0  0  1  0  0  0  0  0999 V2000
  161.3880  204.0270  148.3230 C   0  0  0  0  0  0  0  0  0  0  0  0
  161.6310  208.4450  150.7970 C   0  0  0  0  0  0  0  0  0  0  0  0
  162.0910  210.3550  148.8180 C   0  0  0  0  0  0  0  0  0  0  0  0
  161.3710  205.7440  150.0320 C   0  0  0  0  0  0  0  0  0  0  0  0
  161.6490  204.9940  147.3480 C   0  0  0  0  0  3  0  0  0  0  0  0
  161.2360  202.3440  147.8660 Cl  0  0  0  0  0  0  0  0  0  0  0  0
  161.6360  206.7290  149.0500 C   0  0  0  0  0  0  0  0  0  0  0  0
  161.2480  204.4010  149.6620 C   0  0  0  0  0  3  0  0  0  0  0  0
  161.7720  206.3380  147.7090 C   0  0  0  0  0  3  0  0  0  0  0  0
  161.9840  209.0380  148.4940 N   0  0  0  0  0  0  0  0  0  0  0  0
  161.7560  208.0780  149.4320 C   0  0  0  0  0  0  0  0  0  0  0  0
  161.3560  207.4480  151.7460 C   0  0  0  0  0  3  0  0  0  0  0  0
  161.7650  209.8100  151.1540 C   0  0  0  0  0  0  0  0  0  0  0  0
  161.9840  210.7540  150.1480 C   0  0  0  0  0  3  0  0  0  0  0  0
  161.2280  206.1110  151.3680 C   0  0  0  0  0  3  0  0  0  0  0  0
  162.3390  211.3800  147.7590 C   0  0  1  0  0  3  0  0  0  0  0  0
  161.0300  211.8300  147.1330 C   0  0  0  0  0  2  0  0  0  0  0  0
  162.9940  212.6180  148.3580 C   0  0  0  0  0  2  0  0  0  0  0  0
  160.7470  213.1990  147.7070 C   0  0  1  0  0  3  0  0  0  0  0  0
  162.1040  213.7940  148.0110 C   0  0  0  0  0  2  0  0  0  0  0  0
  160.0000  214.0480  146.6940 C   0  0  0  0  0  2  0  0  0  0  0  0
  158.5790  213.6980  146.6920 N   0  0  0  0  0  0  0  0  0  0  0  0
  156.9270  212.3160  145.6790 C   0  0  0  0  0  2  0  0  0  0  0  0
  158.3730  212.5750  147.5940 C   0  0  0  0  0  2  0  0  0  0  0  0
  158.0850  213.2490  145.3790 C   0  0  1  0  0  0  0  0  0  0  0  0
  157.5740  214.4490  144.5980 C   0  0  0  0  0  1  0  0  0  0  0  0
  157.1780  211.7970  147.0790 C   0  0  0  0  0  2  0  0  0  0  0  0
  159.1470  212.4870  144.5560 C   0  0  0  0  0  2  0  0  0  0  0  0
  159.6070  213.2670  143.4070 N   0  0  0  0  0  0  0  0  0  0  0  0
  161.9990  212.6000  143.6040 C   0  0  0  0  0  2  0  0  0  0  0  0
  160.5990  211.3330  142.1920 C   0  0  0  0  0  2  0  0  0  0  0  0
  161.9260  211.9240  142.3140 N   0  0  0  0  0  2  0  0  0  0  0  0
  159.5370  212.4390  142.1940 C   0  0  0  0  0  2  0  0  0  0  0  0
  160.9780  213.7410  143.6500 C   0  0  0  0  0  2  0  0  0  0  0  0
  161.6820  210.2990  152.5040 N   0  0  0  0  0  2  0  0  0  0  0  0
  160.4670  210.5170  153.2790 C   0  0  1  0  0  3  0  0  0  0  0  0
  160.5100  209.7240  154.5750 C   0  0  0  0  0  1  0  0  0  0  0  0
  160.2540  212.0080  153.5380 C   0  0  0  0  0  2  0  0  0  0  0  0
  159.1300  212.6090  152.6940 C   0  0  2  0  0  3  0  0  0  0  0  0
  159.2850  213.9930  152.6030 O   0  0  0  0  0  1  0  0  0  0  0  0
  157.6250  211.1250  154.0340 O   0  0  0  0  0  1  0  0  0  0  0  0
  156.8520  213.1010  153.1680 O   0  0  0  0  0  0  0  0  0  0  0  0
  157.8070  212.2940  153.3020 C   0  0  0  0  0  0  0  0  0  0  0  0
  1  8  1  0  0  0  0
  2 13  1  0  0  0  0
  2 12  1  0  0  0  0
  3 14  1  0  0  0  0
  4 15  1  0  0  0  0
  5  9  1  0  0  0  0
  5  1  2  0  0  0  0
  6  1  1  0  0  0  0
  7 11  1  0  0  0  0
  7  4  1  0  0  0  0
  8  4  2  0  0  0  0
  9  7  2  0  0  0  0
 10  3  2  0  0  0  0
 10 11  1  0  0  0  0
 11  2  2  0  0  0  0
 13 35  1  0  0  0  0
 14 13  2  0  0  0  0
 15 12  2  0  0  0  0
 16 18  1  0  0  0  0
 16  3  1  1  0  0  0
 17 19  1  0  0  0  0
 17 16  1  0  0  0  0
 19 21  1  6  0  0  0
 19 20  1  0  0  0  0
 20 18  1  0  0  0  0
 22 21  1  0  0  0  0
 22 24  1  0  0  0  0
 23 27  1  0  0  0  0
 25 26  1  6  0  0  0
 25 23  1  0  0  0  0
 25 22  1  0  0  0  0
 27 24  1  0  0  0  0
 28 25  1  0  0  0  0
 29 34  1  0  0  0  0
 29 28  1  0  0  0  0
 30 34  1  0  0  0  0
 31 33  1  0  0  0  0
 31 32  1  0  0  0  0
 32 30  1  0  0  0  0
 33 29  1  0  0  0  0
 35 36  1  0  0  0  0
 36 38  1  0  0  0  0
 36 37  1  1  0  0  0
 39 40  1  1  0  0  0
 39 43  1  0  0  0  0
 39 38  1  0  0  0  0
 42 43  2  0  0  0  0
 43 41  1  0  0  0  0
M  END
>  <MODEL>
4

>  <REMARK>
 VINA RESULT:      -7.1      3.118      8.272
  Name = 
  10 active torsions:
  status: ('A' for Active; 'I' for Inactive)
    1  A    between atoms: C_1  and  C_9
    2  A    between atoms: C_1  and  N_35
    3  A    between atoms: C_2  and  C_13
    4  A    between atoms: C_3  and  N_4
    5  A    between atoms: C_3  and  C_12
    6  A    between atoms: C_9  and  C_32
    7  A    between atoms: N_11  and  C_14
    8  A    between atoms: C_14  and  C_22
    9  A    between atoms: C_32  and  C_37
   10  A    between atoms: C_34  and  N_35
                            x       y       z     vdW  Elec       q    Type
                         _______ _______ _______ _____ _____    ______ ____

>  <TORSDO>
F 10

$$$$
=
 OpenBabel11062410123D

 43 48  0  0  1  0  0  0  0  0999 V2000
  158.7840  211.2300  155.8420 C   0  0  0  0  0  0  0  0  0  0  0  0
  161.4160  208.3690  152.5890 C   0  0  0  0  0  0  0  0  0  0  0  0
  162.1020  210.0920  150.5060 C   0  0  0  0  0  0  0  0  0  0  0  0
  159.9370  209.3960  154.7580 C   0  0  0  0  0  0  0  0  0  0  0  0
  159.1100  212.0710  154.7750 C   0  0  0  0  0  3  0  0  0  0  0  0
  157.8560  211.8480  157.1910 Cl  0  0  0  0  0  0  0  0  0  0  0  0
  160.2710  210.2420  153.6740 C   0  0  0  0  0  0  0  0  0  0  0  0
  159.1970  209.8940  155.8340 C   0  0  0  0  0  3  0  0  0  0  0  0
  159.8510  211.5810  153.6960 C   0  0  0  0  0  3  0  0  0  0  0  0
  161.3690  210.5410  151.5590 N   0  0  0  0  0  0  0  0  0  0  0  0
  161.0180  209.7300  152.5950 C   0  0  0  0  0  0  0  0  0  0  0  0
  161.0810  207.5570  153.6830 C   0  0  0  0  0  3  0  0  0  0  0  0
  162.1600  207.8790  151.4860 C   0  0  0  0  0  0  0  0  0  0  0  0
  162.5040  208.7590  150.4580 C   0  0  0  0  0  3  0  0  0  0  0  0
  160.3480  208.0640  154.7560 C   0  0  0  0  0  3  0  0  0  0  0  0
  162.4710  211.0130  149.3880 C   0  0  1  0  0  3  0  0  0  0  0  0
  161.8700  210.5320  148.0780 C   0  0  0  0  0  2  0  0  0  0  0  0
  161.9190  212.4090  149.6430 C   0  0  0  0  0  2  0  0  0  0  0  0
  160.7010  211.4470  147.7990 C   0  0  1  0  0  3  0  0  0  0  0  0
  161.0630  212.7660  148.4450 C   0  0  0  0  0  2  0  0  0  0  0  0
  160.5130  211.6140  146.3010 C   0  0  0  0  0  2  0  0  0  0  0  0
  159.9040  212.9130  146.0110 N   0  0  0  0  0  0  0  0  0  0  0  0
  159.3520  214.4480  144.2790 C   0  0  0  0  0  2  0  0  0  0  0  0
  158.4920  212.7130  145.7190 C   0  0  0  0  0  2  0  0  0  0  0  0
  160.4670  213.5740  144.8210 C   0  0  1  0  0  0  0  0  0  0  0  0
  161.6350  214.4520  145.2400 C   0  0  0  0  0  1  0  0  0  0  0  0
  158.0670  213.8220  144.7760 C   0  0  0  0  0  2  0  0  0  0  0  0
  160.9080  212.5810  143.7240 C   0  0  0  0  0  2  0  0  0  0  0  0
  160.6650  213.1120  142.3820 N   0  0  0  0  0  0  0  0  0  0  0  0
  162.8630  212.4090  141.4430 C   0  0  0  0  0  2  0  0  0  0  0  0
  161.0290  210.9470  141.2050 C   0  0  0  0  0  2  0  0  0  0  0  0
  162.1900  211.5030  140.5200 N   0  0  0  0  0  2  0  0  0  0  0  0
  160.0440  212.0710  141.5500 C   0  0  0  0  0  2  0  0  0  0  0  0
  161.9330  213.5740  141.7970 C   0  0  0  0  0  2  0  0  0  0  0  0
  162.5980  206.5150  151.3550 N   0  0  0  0  0  2  0  0  0  0  0  0
  161.7780  205.3660  150.9930 C   0  0  1  0  0  3  0  0  0  0  0  0
  160.9230  204.9280  152.1710 C   0  0  0  0  0  1  0  0  0  0  0  0
  160.9260  205.6790  149.7640 C   0  0  0  0  0  2  0  0  0  0  0  0
  160.8660  204.5230  148.7660 C   0  0  2  0  0  3  0  0  0  0  0  0
  161.5470  203.4150  149.2730 O   0  0  0  0  0  1  0  0  0  0  0  0
  162.1330  206.1520  147.3510 O   0  0  0  0  0  1  0  0  0  0  0  0
  161.4130  204.1590  146.4790 O   0  0  0  0  0  0  0  0  0  0  0  0
  161.4760  204.9320  147.4690 C   0  0  0  0  0  0  0  0  0  0  0  0
  1  6  1  0  0  0  0
  2 11  1  0  0  0  0
  2 12  1  0  0  0  0
  3 10  1  0  0  0  0
  4  8  2  0  0  0  0
  5  1  2  0  0  0  0
  7  9  2  0  0  0  0
  7  4  1  0  0  0  0
  8  1  1  0  0  0  0
  9  5  1  0  0  0  0
 10 11  2  0  0  0  0
 11  7  1  0  0  0  0
 12 15  2  0  0  0  0
 13  2  2  0  0  0  0
 14  3  2  0  0  0  0
 14 13  1  0  0  0  0
 15  4  1  0  0  0  0
 16 18  1  0  0  0  0
 16  3  1  1  0  0  0
 17 16  1  0  0  0  0
 19 21  1  6  0  0  0
 19 17  1  0  0  0  0
 19 20  1  0  0  0  0
 20 18  1  0  0  0  0
 22 21  1  0  0  0  0
 23 27  1  0  0  0  0
 23 25  1  0  0  0  0
 24 22  1  0  0  0  0
 25 26  1  1  0  0  0
 25 22  1  0  0  0  0
 27 24  1  0  0  0  0
 28 25  1  0  0  0  0
 29 28  1  0  0  0  0
 30 34  1  0  0  0  0
 31 33  1  0  0  0  0
 32 31  1  0  0  0  0
 32 30  1  0  0  0  0
 33 29  1  0  0  0  0
 34 29  1  0  0  0  0
 35 13  1  0  0  0  0
 36 35  1  0  0  0  0
 36 37  1  1  0  0  0
 38 36  1  0  0  0  0
 39 40  1  1  0  0  0
 39 38  1  0  0  0  0
 41 43  1  0  0  0  0
 42 43  2  0  0  0  0
 43 39  1  0  0  0  0
M  END
>  <MODEL>
5

>  <REMARK>
 VINA RESULT:      -6.4      4.487     10.120
  Name = 
  10 active torsions:
  status: ('A' for Active; 'I' for Inactive)
    1  A    between atoms: C_1  and  C_9
    2  A    between atoms: C_1  and  N_35
    3  A    between atoms: C_2  and  C_13
    4  A    between atoms: C_3  and  N_4
    5  A    between atoms: C_3  and  C_12
    6  A    between atoms: C_9  and  C_32
    7  A    between atoms: N_11  and  C_14
    8  A    between atoms: C_14  and  C_22
    9  A    between atoms: C_32  and  C_37
   10  A    between atoms: C_34  and  N_35
                            x       y       z     vdW  Elec       q    Type
                         _______ _______ _______ _____ _____    ______ ____

>  <TORSDO>
F 10

$$$$
=
 OpenBabel11062410123D

 43 48  0  0  1  0  0  0  0  0999 V2000
  160.5740  209.4880  155.5130 C   0  0  0  0  0  0  0  0  0  0  0  0
  161.5770  208.0860  150.7460 C   0  0  0  0  0  0  0  0  0  0  0  0
  161.9120  210.4760  149.3470 C   0  0  0  0  0  0  0  0  0  0  0  0
  161.0120  208.2050  153.5050 C   0  0  0  0  0  0  0  0  0  0  0  0
  160.7140  210.6760  154.7900 C   0  0  0  0  0  3  0  0  0  0  0  0
  160.2100  209.5440  157.2240 Cl  0  0  0  0  0  0  0  0  0  0  0  0
  161.1550  209.4040  152.7660 C   0  0  0  0  0  0  0  0  0  0  0  0
  160.7230  208.2550  154.8720 C   0  0  0  0  0  3  0  0  0  0  0  0
  161.0040  210.6350  153.4230 C   0  0  0  0  0  3  0  0  0  0  0  0
  161.6140  210.4890  150.6740 N   0  0  0  0  0  0  0  0  0  0  0  0
  161.4470  209.3430  151.3900 C   0  0  0  0  0  0  0  0  0  0  0  0
  161.4430  206.9150  151.5070 C   0  0  0  0  0  3  0  0  0  0  0  0
  161.8630  208.0550  149.3580 C   0  0  0  0  0  0  0  0  0  0  0  0
  162.0390  209.2610  148.6760 C   0  0  0  0  0  3  0  0  0  0  0  0
  161.1620  206.9730  152.8720 C   0  0  0  0  0  3  0  0  0  0  0  0
  162.0900  211.7550  148.5950 C   0  0  1  0  0  3  0  0  0  0  0  0
  161.5570  211.6230  147.1790 C   0  0  0  0  0  2  0  0  0  0  0  0
  161.3080  212.8790  149.2610 C   0  0  0  0  0  2  0  0  0  0  0  0
  160.2400  212.3630  147.1630 C   0  0  1  0  0  3  0  0  0  0  0  0
  160.3790  213.4480  148.2080 C   0  0  0  0  0  2  0  0  0  0  0  0
  159.9940  212.9660  145.7900 C   0  0  0  0  0  2  0  0  0  0  0  0
  161.2240  212.9340  144.9980 N   0  0  0  0  0  0  0  0  0  0  0  0
  162.1950  213.5240  142.9070 C   0  0  0  0  0  2  0  0  0  0  0  0
  161.9550  214.1730  145.2190 C   0  0  0  0  0  2  0  0  0  0  0  0
  160.9860  212.8660  143.5460 C   0  0  1  0  0  0  0  0  0  0  0  0
  160.9220  211.4090  143.1170 C   0  0  0  0  0  1  0  0  0  0  0  0
  162.7550  214.4530  143.9620 C   0  0  0  0  0  2  0  0  0  0  0  0
  159.7110  213.6130  143.1010 C   0  0  0  0  0  2  0  0  0  0  0  0
  159.8390  214.1460  141.7440 N   0  0  0  0  0  0  0  0  0  0  0  0
  159.6840  211.9380  140.6010 C   0  0  0  0  0  2  0  0  0  0  0  0
  157.7020  213.1780  140.9090 C   0  0  0  0  0  2  0  0  0  0  0  0
  158.4370  212.3450  139.9650 N   0  0  0  0  0  2  0  0  0  0  0  0
  158.5030  214.4500  141.2100 C   0  0  0  0  0  2  0  0  0  0  0  0
  160.5430  213.1730  140.8960 C   0  0  0  0  0  2  0  0  0  0  0  0
  161.9950  206.8450  148.5920 N   0  0  0  0  0  2  0  0  0  0  0  0
  160.9170  205.9680  148.1540 C   0  0  1  0  0  3  0  0  0  0  0  0
  160.4340  206.3640  146.7680 C   0  0  0  0  0  1  0  0  0  0  0  0
  161.3610  204.5060  148.2010 C   0  0  0  0  0  2  0  0  0  0  0  0
  160.8060  203.7490  149.4070 C   0  0  2  0  0  3  0  0  0  0  0  0
  161.6510  203.9110  150.5060 O   0  0  0  0  0  1  0  0  0  0  0  0
  160.5500  201.8750  147.7700 O   0  0  0  0  0  0  0  0  0  0  0  0
  160.6970  201.4520  150.0170 O   0  0  0  0  0  1  0  0  0  0  0  0
  160.6750  202.2990  149.0880 C   0  0  0  0  0  0  0  0  0  0  0  0
  1  6  1  0  0  0  0
  2 11  1  0  0  0  0
  2 12  1  0  0  0  0
  3 10  1  0  0  0  0
  4  8  2  0  0  0  0
  5  1  2  0  0  0  0
  7  9  2  0  0  0  0
  7  4  1  0  0  0  0
  8  1  1  0  0  0  0
  9  5  1  0  0  0  0
 10 11  2  0  0  0  0
 11  7  1  0  0  0  0
 12 15  2  0  0  0  0
 13  2  2  0  0  0  0
 14  3  2  0  0  0  0
 14 13  1  0  0  0  0
 15  4  1  0  0  0  0
 16 18  1  0  0  0  0
 16  3  1  1  0  0  0
 17 16  1  0  0  0  0
 19 21  1  6  0  0  0
 19 17  1  0  0  0  0
 19 20  1  0  0  0  0
 20 18  1  0  0  0  0
 22 24  1  0  0  0  0
 22 21  1  0  0  0  0
 23 25  1  0  0  0  0
 23 27  1  0  0  0  0
 25 26  1  6  0  0  0
 25 22  1  0  0  0  0
 27 24  1  0  0  0  0
 28 25  1  0  0  0  0
 29 28  1  0  0  0  0
 30 34  1  0  0  0  0
 31 33  1  0  0  0  0
 32 30  1  0  0  0  0
 32 31  1  0  0  0  0
 33 29  1  0  0  0  0
 34 29  1  0  0  0  0
 35 13  1  0  0  0  0
 36 37  1  6  0  0  0
 36 38  1  0  0  0  0
 36 35  1  0  0  0  0
 38 39  1  0  0  0  0
 39 40  1  1  0  0  0
 41 43  2  0  0  0  0
 43 39  1  0  0  0  0
 43 42  1  0  0  0  0
M  END
>  <MODEL>
6

>  <REMARK>
 VINA RESULT:      -6.2      4.927     10.252
  Name = 
  10 active torsions:
  status: ('A' for Active; 'I' for Inactive)
    1  A    between atoms: C_1  and  C_9
    2  A    between atoms: C_1  and  N_35
    3  A    between atoms: C_2  and  C_13
    4  A    between atoms: C_3  and  N_4
    5  A    between atoms: C_3  and  C_12
    6  A    between atoms: C_9  and  C_32
    7  A    between atoms: N_11  and  C_14
    8  A    between atoms: C_14  and  C_22
    9  A    between atoms: C_32  and  C_37
   10  A    between atoms: C_34  and  N_35
                            x       y       z     vdW  Elec       q    Type
                         _______ _______ _______ _____ _____    ______ ____

>  <TORSDO>
F 10

$$$$
