=
 OpenBabel11062408223D

 32 38  0  0  1  0  0  0  0  0999 V2000
  161.2620  208.2510  149.7940 C   0  0  1  0  0  3  0  0  0  0  0  0
  162.4220  206.4000  151.0860 C   0  0  2  0  0  3  0  0  0  0  0  0
  162.3400  208.3450  148.8030 N   0  0  0  0  0  0  0  0  0  0  0  0
  161.1610  206.8490  150.2930 C   0  0  2  0  0  3  0  0  0  0  0  0
  162.0830  205.1550  151.8850 C   0  0  1  0  0  3  0  0  0  0  0  0
  162.2180  206.5450  152.5900 C   0  0  2  0  0  3  0  0  0  0  0  0
  160.8880  205.8840  149.1820 C   0  0  2  0  0  3  0  0  0  0  0  0
  160.8310  204.4600  149.7950 C   0  0  0  0  0  2  0  0  0  0  0  0
  161.9420  206.0540  148.1740 N   0  0  0  0  0  2  0  0  0  0  0  0
  161.9090  208.8820  152.1790 O   0  0  0  0  0  0  0  0  0  0  0  0
  161.2500  209.2650  150.9760 C   0  0  1  0  0  3  0  0  0  0  0  0
  161.2650  207.7520  152.7530 C   0  0  2  0  0  3  0  0  0  0  0  0
  160.7720  204.5100  151.3580 C   0  0  1  0  0  3  0  0  0  0  0  0
  162.6210  207.3280  148.0220 C   0  0  0  0  0  3  0  0  0  0  0  0
  160.9540  213.0860  150.4920 C   0  0  2  0  0  3  0  0  0  0  0  0
  162.3010  214.1550  147.7420 N   0  0  0  0  0  2  0  0  0  0  0  0
  160.0590  214.1960  150.0070 C   0  0  0  0  0  2  0  0  0  0  0  0
  162.7350  211.8940  148.5270 C   0  0  0  0  0  2  0  0  0  0  0  0
  161.5810  210.6990  150.5500 C   0  0  1  0  0  3  0  0  0  0  0  0
  160.5330  213.1380  149.0320 C   0  0  1  0  0  3  0  0  0  0  0  0
  161.9490  210.6650  149.0460 C   0  0  0  0  0  2  0  0  0  0  0  0
  160.4560  211.7210  150.8970 C   0  0  1  0  0  3  0  0  0  0  0  0
  160.1540  211.7430  152.3850 C   0  0  0  0  0  1  0  0  0  0  0  0
  161.8760  213.1330  148.3890 C   0  0  0  0  0  0  0  0  0  0  0  0
  160.4560  206.9530  154.9750 C   0  0  0  0  0  3  0  0  0  0  0  0
  160.4170  208.4070  156.9110 C   0  0  0  0  0  3  0  0  0  0  0  0
  161.2060  209.2480  154.7830 C   0  0  0  0  0  3  0  0  0  0  0  0
  160.9310  209.4530  156.1370 C   0  0  0  0  0  3  0  0  0  0  0  0
  160.1810  207.1580  156.3300 C   0  0  0  0  0  3  0  0  0  0  0  0
  160.9660  207.9970  154.1950 C   0  0  0  0  0  0  0  0  0  0  0  0
  160.6520  203.2160  151.8650 O   0  0  0  0  0  0  0  0  0  0  0  0
  160.8310  202.3840  150.7590 C   0  0  0  0  0  1  0  0  0  0  0  0
  1  3  1  1  0  0  0
  1  4  1  0  0  0  0
  1 11  1  0  0  0  0
  2  5  1  0  0  0  0
  2  6  1  0  0  0  0
  4  2  1  0  0  0  0
  5  6  1  0  0  0  0
  6 12  1  0  0  0  0
  7  8  1  0  0  0  0
  7  4  1  0  0  0  0
  8 13  1  0  0  0  0
  9  7  1  0  0  0  0
 10 12  1  0  0  0  0
 11 10  1  0  0  0  0
 12 30  1  0  0  0  0
 13 31  1  0  0  0  0
 13  5  1  0  0  0  0
 14  9  1  0  0  0  0
 14  3  2  0  0  0  0
 15 22  1  0  0  0  0
 16 24  2  0  0  0  0
 17 15  1  0  0  0  0
 18 21  1  0  0  0  0
 19 22  1  0  0  0  0
 19 11  1  0  0  0  0
 20 17  1  0  0  0  0
 20 15  1  0  0  0  0
 21 19  1  0  0  0  0
 22 23  1  0  0  0  0
 24 18  1  0  0  0  0
 24 20  1  0  0  0  0
 25 29  1  0  0  0  0
 27 28  2  0  0  0  0
 28 26  1  0  0  0  0
 29 26  2  0  0  0  0
 30 27  1  0  0  0  0
 30 25  2  0  0  0  0
 32 31  1  0  0  0  0
M  END
>  <MODEL>
1

>  <REMARK>
 VINA RESULT:      -8.3      0.000      0.000
  Name = 
  3 active torsions:
  status: ('A' for Active; 'I' for Inactive)
    1  A    between atoms: O_13  and  C_29
    2  A    between atoms: C_16  and  C_27
    3  A    between atoms: C_28  and  C_32
                            x       y       z     vdW  Elec       q    Type
                         _______ _______ _______ _____ _____    ______ ____

>  <TORSDO>
F 3

$$$$
=
 OpenBabel11062408223D

 32 38  0  0  1  0  0  0  0  0999 V2000
  160.8260  207.3940  152.3750 C   0  0  1  0  0  3  0  0  0  0  0  0
  161.9830  209.3510  153.5020 C   0  0  2  0  0  3  0  0  0  0  0  0
  161.6750  206.4010  153.0460 N   0  0  0  0  0  0  0  0  0  0  0  0
  160.6530  208.5830  153.2570 C   0  0  2  0  0  3  0  0  0  0  0  0
  161.6630  210.7310  154.0470 C   0  0  1  0  0  3  0  0  0  0  0  0
  162.1210  210.5440  152.5630 C   0  0  2  0  0  3  0  0  0  0  0  0
  160.0290  208.2150  154.5680 C   0  0  2  0  0  3  0  0  0  0  0  0
  159.9190  209.5070  155.4190 C   0  0  0  0  0  2  0  0  0  0  0  0
  160.8600  207.1700  155.1790 N   0  0  0  0  0  2  0  0  0  0  0  0
  162.0370  208.9630  150.7700 O   0  0  0  0  0  0  0  0  0  0  0  0
  161.1950  207.8250  150.9240 C   0  0  1  0  0  3  0  0  0  0  0  0
  161.3880  210.1250  151.2670 C   0  0  2  0  0  3  0  0  0  0  0  0
  160.1980  210.7860  154.5610 C   0  0  1  0  0  3  0  0  0  0  0  0
  161.6510  206.2760  154.3520 C   0  0  0  0  0  3  0  0  0  0  0  0
  162.1490  205.8010  147.7760 C   0  0  2  0  0  3  0  0  0  0  0  0
  161.2450  202.6880  147.9100 N   0  0  0  0  0  2  0  0  0  0  0  0
  161.7300  205.4400  146.3750 C   0  0  0  0  0  2  0  0  0  0  0  0
  161.1930  204.0720  149.9090 C   0  0  0  0  0  2  0  0  0  0  0  0
  161.6110  206.6530  150.0290 C   0  0  1  0  0  3  0  0  0  0  0  0
  160.8520  205.0410  147.5430 C   0  0  1  0  0  3  0  0  0  0  0  0
  160.6780  205.4620  150.3570 C   0  0  0  0  0  2  0  0  0  0  0  0
  161.6530  207.0180  148.5140 C   0  0  1  0  0  3  0  0  0  0  0  0
  162.6060  208.1680  148.2380 C   0  0  0  0  0  1  0  0  0  0  0  0
  161.1010  203.8580  148.4130 C   0  0  0  0  0  0  0  0  0  0  0  0
  160.6290  212.3540  150.4380 C   0  0  0  0  0  3  0  0  0  0  0  0
  161.5100  213.3170  148.3980 C   0  0  0  0  0  3  0  0  0  0  0  0
  162.2830  211.1470  149.1420 C   0  0  0  0  0  3  0  0  0  0  0  0
  162.3190  212.1910  148.2140 C   0  0  0  0  0  3  0  0  0  0  0  0
  160.6660  213.3980  149.5100 C   0  0  0  0  0  3  0  0  0  0  0  0
  161.4340  211.2230  150.2570 C   0  0  0  0  0  0  0  0  0  0  0  0
  160.0210  211.9250  155.3460 O   0  0  0  0  0  0  0  0  0  0  0  0
  160.8150  211.7060  156.4720 C   0  0  0  0  0  1  0  0  0  0  0  0
  1  3  1  1  0  0  0
  1  4  1  0  0  0  0
  2  5  1  0  0  0  0
  3 14  2  0  0  0  0
  4  2  1  0  0  0  0
  4  7  1  0  0  0  0
  5 13  1  0  0  0  0
  6  2  1  0  0  0  0
  6  5  1  0  0  0  0
  7  9  1  0  0  0  0
  7  8  1  0  0  0  0
 10 11  1  0  0  0  0
 10 12  1  0  0  0  0
 11  1  1  0  0  0  0
 12  6  1  0  0  0  0
 13 31  1  0  0  0  0
 13  8  1  0  0  0  0
 14  9  1  0  0  0  0
 15 22  1  0  0  0  0
 16 24  2  0  0  0  0
 17 20  1  0  0  0  0
 17 15  1  0  0  0  0
 18 21  1  0  0  0  0
 19 21  1  0  0  0  0
 19 11  1  0  0  0  0
 20 15  1  0  0  0  0
 20 24  1  0  0  0  0
 22 19  1  0  0  0  0
 23 22  1  0  0  0  0
 24 18  1  0  0  0  0
 26 29  1  0  0  0  0
 27 30  2  0  0  0  0
 28 26  2  0  0  0  0
 28 27  1  0  0  0  0
 29 25  2  0  0  0  0
 30 25  1  0  0  0  0
 30 12  1  0  0  0  0
 31 32  1  0  0  0  0
M  END
>  <MODEL>
2

>  <REMARK>
 VINA RESULT:      -7.8      2.527      6.966
  Name = 
  3 active torsions:
  status: ('A' for Active; 'I' for Inactive)
    1  A    between atoms: O_13  and  C_29
    2  A    between atoms: C_16  and  C_27
    3  A    between atoms: C_28  and  C_32
                            x       y       z     vdW  Elec       q    Type
                         _______ _______ _______ _____ _____    ______ ____

>  <TORSDO>
F 3

$$$$
=
 OpenBabel11062408223D

 32 38  0  0  1  0  0  0  0  0999 V2000
  160.4620  207.7000  153.8640 C   0  0  1  0  0  3  0  0  0  0  0  0
  161.5930  209.8350  154.6420 C   0  0  2  0  0  3  0  0  0  0  0  0
  161.2830  206.8520  154.7370 N   0  0  0  0  0  0  0  0  0  0  0  0
  160.2670  209.0340  154.5020 C   0  0  2  0  0  3  0  0  0  0  0  0
  161.2620  211.2920  154.9090 C   0  0  1  0  0  3  0  0  0  0  0  0
  161.7680  210.8310  153.5020 C   0  0  2  0  0  3  0  0  0  0  0  0
  159.5990  208.9170  155.8370 C   0  0  2  0  0  3  0  0  0  0  0  0
  159.4680  210.3460  156.4270 C   0  0  0  0  0  2  0  0  0  0  0  0
  160.4030  208.0060  156.6600 N   0  0  0  0  0  2  0  0  0  0  0  0
  161.7340  208.9420  152.0350 O   0  0  0  0  0  0  0  0  0  0  0  0
  160.8810  207.8520  152.3710 C   0  0  1  0  0  3  0  0  0  0  0  0
  161.0750  210.1760  152.2840 C   0  0  2  0  0  3  0  0  0  0  0  0
  159.7820  211.4420  155.3550 C   0  0  1  0  0  3  0  0  0  0  0  0
  161.2160  206.9740  156.0420 C   0  0  0  0  0  3  0  0  0  0  0  0
  161.5950  205.1650  149.6900 C   0  0  2  0  0  3  0  0  0  0  0  0
  161.2320  202.1270  150.7670 N   0  0  0  0  0  2  0  0  0  0  0  0
  161.0070  204.3940  148.5370 C   0  0  0  0  0  2  0  0  0  0  0  0
  161.3010  203.9880  152.3320 C   0  0  0  0  0  2  0  0  0  0  0  0
  161.3190  206.5340  151.7260 C   0  0  1  0  0  3  0  0  0  0  0  0
  160.4150  204.2350  149.9230 C   0  0  1  0  0  3  0  0  0  0  0  0
  160.6560  205.3820  152.5200 C   0  0  0  0  0  2  0  0  0  0  0  0
  161.0450  206.4770  150.1920 C   0  0  1  0  0  3  0  0  0  0  0  0
  161.7430  207.6040  149.4530 C   0  0  0  0  0  1  0  0  0  0  0  0
  160.9920  203.3680  150.9860 C   0  0  0  0  0  0  0  0  0  0  0  0
  160.3990  212.2390  151.0520 C   0  0  0  0  0  3  0  0  0  0  0  0
  161.3110  212.7740  148.8740 C   0  0  0  0  0  3  0  0  0  0  0  0
  162.0030  210.7530  150.0110 C   0  0  0  0  0  3  0  0  0  0  0  0
  162.0770  211.6050  148.9060 C   0  0  0  0  0  3  0  0  0  0  0  0
  160.4730  213.0910  149.9470 C   0  0  0  0  0  3  0  0  0  0  0  0
  161.1600  211.0660  151.0880 C   0  0  0  0  0  0  0  0  0  0  0  0
  159.5860  212.7080  155.9060 O   0  0  0  0  0  0  0  0  0  0  0  0
  160.4080  212.7350  157.0330 C   0  0  0  0  0  1  0  0  0  0  0  0
  1  4  1  0  0  0  0
  1  3  1  1  0  0  0
  2  5  1  0  0  0  0
  3 14  2  0  0  0  0
  4  2  1  0  0  0  0
  4  7  1  0  0  0  0
  5 13  1  0  0  0  0
  6  2  1  0  0  0  0
  6  5  1  0  0  0  0
  7  8  1  0  0  0  0
  7  9  1  0  0  0  0
 10 12  1  0  0  0  0
 10 11  1  0  0  0  0
 11  1  1  0  0  0  0
 12  6  1  0  0  0  0
 13 31  1  0  0  0  0
 13  8  1  0  0  0  0
 14  9  1  0  0  0  0
 15 20  1  0  0  0  0
 15 22  1  0  0  0  0
 16 24  2  0  0  0  0
 17 15  1  0  0  0  0
 17 20  1  0  0  0  0
 18 21  1  0  0  0  0
 19 11  1  0  0  0  0
 19 21  1  0  0  0  0
 20 24  1  0  0  0  0
 22 19  1  0  0  0  0
 23 22  1  0  0  0  0
 24 18  1  0  0  0  0
 25 30  1  0  0  0  0
 26 28  2  0  0  0  0
 26 29  1  0  0  0  0
 27 30  2  0  0  0  0
 28 27  1  0  0  0  0
 29 25  2  0  0  0  0
 30 12  1  0  0  0  0
 31 32  1  0  0  0  0
M  END
>  <MODEL>
3

>  <REMARK>
 VINA RESULT:      -7.4      2.684      7.469
  Name = 
  3 active torsions:
  status: ('A' for Active; 'I' for Inactive)
    1  A    between atoms: O_13  and  C_29
    2  A    between atoms: C_16  and  C_27
    3  A    between atoms: C_28  and  C_32
                            x       y       z     vdW  Elec       q    Type
                         _______ _______ _______ _____ _____    ______ ____

>  <TORSDO>
F 3

$$$$
=
 OpenBabel11062408223D

 32 38  0  0  1  0  0  0  0  0999 V2000
  160.8760  207.0690  151.1910 C   0  0  1  0  0  3  0  0  0  0  0  0
  162.5040  208.6680  152.3020 C   0  0  2  0  0  3  0  0  0  0  0  0
  161.6930  205.8910  151.5070 N   0  0  0  0  0  0  0  0  0  0  0  0
  161.0560  208.1020  152.2520 C   0  0  2  0  0  3  0  0  0  0  0  0
  162.5000  209.9600  153.0980 C   0  0  1  0  0  3  0  0  0  0  0  0
  162.6170  209.9830  151.5380 C   0  0  2  0  0  3  0  0  0  0  0  0
  160.6650  207.5840  153.6010 C   0  0  2  0  0  3  0  0  0  0  0  0
  160.9140  208.7160  154.6330 C   0  0  0  0  0  2  0  0  0  0  0  0
  161.4450  206.3670  153.8550 N   0  0  0  0  0  2  0  0  0  0  0  0
  161.9480  208.7500  149.6000 O   0  0  0  0  0  0  0  0  0  0  0  0
  161.0020  207.7000  149.7720 C   0  0  1  0  0  3  0  0  0  0  0  0
  161.5850  209.8730  150.3910 C   0  0  2  0  0  3  0  0  0  0  0  0
  161.1930  210.0850  153.9270 C   0  0  1  0  0  3  0  0  0  0  0  0
  161.9170  205.5470  152.7530 C   0  0  0  0  0  3  0  0  0  0  0  0
  160.9630  204.2950  147.9480 C   0  0  2  0  0  3  0  0  0  0  0  0
  162.8590  204.2090  145.3180 N   0  0  0  0  0  2  0  0  0  0  0  0
  161.5550  202.9110  147.9210 C   0  0  0  0  0  2  0  0  0  0  0  0
  162.3310  206.3300  146.3850 C   0  0  0  0  0  2  0  0  0  0  0  0
  161.0570  206.6610  148.6480 C   0  0  1  0  0  3  0  0  0  0  0  0
  162.4510  204.1110  147.6950 C   0  0  1  0  0  3  0  0  0  0  0  0
  162.3190  206.9560  147.8020 C   0  0  0  0  0  2  0  0  0  0  0  0
  160.9760  205.1910  149.1610 C   0  0  1  0  0  3  0  0  0  0  0  0
  159.7060  204.9410  149.9560 C   0  0  0  0  0  1  0  0  0  0  0  0
  162.5700  204.8350  146.3990 C   0  0  0  0  0  0  0  0  0  0  0  0
  160.8310  212.2180  149.9900 C   0  0  0  0  0  3  0  0  0  0  0  0
  161.5680  213.4760  148.0570 C   0  0  0  0  0  3  0  0  0  0  0  0
  162.3310  211.2020  148.3820 C   0  0  0  0  0  3  0  0  0  0  0  0
  162.3230  212.3800  147.6290 C   0  0  0  0  0  3  0  0  0  0  0  0
  160.8230  213.3960  149.2370 C   0  0  0  0  0  3  0  0  0  0  0  0
  161.5810  211.1160  149.5650 C   0  0  0  0  0  0  0  0  0  0  0  0
  161.3420  211.0860  154.8880 O   0  0  0  0  0  0  0  0  0  0  0  0
  162.4560  210.6970  155.6340 C   0  0  0  0  0  1  0  0  0  0  0  0
  1  3  1  1  0  0  0
  1  4  1  0  0  0  0
  2  5  1  0  0  0  0
  3 14  2  0  0  0  0
  4  2  1  0  0  0  0
  4  7  1  0  0  0  0
  5 13  1  0  0  0  0
  6  2  1  0  0  0  0
  6  5  1  0  0  0  0
  7  9  1  0  0  0  0
  7  8  1  0  0  0  0
 10 11  1  0  0  0  0
 10 12  1  0  0  0  0
 11  1  1  0  0  0  0
 12  6  1  0  0  0  0
 13  8  1  0  0  0  0
 13 31  1  0  0  0  0
 14  9  1  0  0  0  0
 15 22  1  0  0  0  0
 16 24  2  0  0  0  0
 17 15  1  0  0  0  0
 18 24  1  0  0  0  0
 18 21  1  0  0  0  0
 19 22  1  0  0  0  0
 19 11  1  0  0  0  0
 20 17  1  0  0  0  0
 20 15  1  0  0  0  0
 21 19  1  0  0  0  0
 22 23  1  0  0  0  0
 24 20  1  0  0  0  0
 26 29  1  0  0  0  0
 27 30  2  0  0  0  0
 28 26  2  0  0  0  0
 28 27  1  0  0  0  0
 29 25  2  0  0  0  0
 30 25  1  0  0  0  0
 30 12  1  0  0  0  0
 31 32  1  0  0  0  0
M  END
>  <MODEL>
4

>  <REMARK>
 VINA RESULT:      -5.5      2.519      6.793
  Name = 
  3 active torsions:
  status: ('A' for Active; 'I' for Inactive)
    1  A    between atoms: O_13  and  C_29
    2  A    between atoms: C_16  and  C_27
    3  A    between atoms: C_28  and  C_32
                            x       y       z     vdW  Elec       q    Type
                         _______ _______ _______ _____ _____    ______ ____

>  <TORSDO>
F 3

$$$$
