=
 OpenBabel11052422323D

 31 35  0  0  1  0  0  0  0  0999 V2000
  161.3340  200.8410  148.5750 C   0  0  0  0  0  0  0  0  0  0  0  0
  161.6040  204.6570  148.4980 C   0  0  2  0  0  3  0  0  0  0  0  0
  161.3100  205.0100  147.0590 C   0  0  0  0  0  0  0  0  0  0  0  0
  161.0010  205.0850  153.7640 O   0  0  0  0  0  0  0  0  0  0  0  0
  160.8590  206.2350  153.2660 C   0  0  0  0  0  0  0  0  0  0  0  0
  160.1570  204.6820  144.9460 C   0  0  0  0  0  0  0  0  0  0  0  0
  161.3140  203.2430  148.9500 C   0  0  0  0  0  0  0  0  0  0  0  0
  161.0110  200.6240  149.9160 C   0  0  0  0  0  3  0  0  0  0  0  0
  160.5080  204.2220  146.2190 C   0  0  0  0  0  3  0  0  0  0  0  0
  160.9690  205.3590  150.8630 C   0  0  0  0  0  0  0  0  0  0  0  0
  161.5100  199.6860  147.6560 C   0  0  0  0  0  1  0  0  0  0  0  0
  162.6340  207.3320  147.7570 S   0  0  0  0  0  0  0  0  0  0  0  0
  159.3990  203.9100  144.1320 F   0  0  0  0  0  0  0  0  0  0  0  0
  160.9500  204.1110  151.2310 N   0  0  0  0  0  0  0  0  0  0  0  0
  160.9350  205.7170  149.3960 C   0  0  1  0  0  3  0  0  0  0  0  0
  160.8570  206.4040  151.8410 N   0  0  0  0  0  2  0  0  0  0  0  0
  161.5050  202.1440  148.0990 C   0  0  0  0  0  3  0  0  0  0  0  0
  160.5670  205.9510  144.5230 C   0  0  0  0  0  3  0  0  0  0  0  0
  161.0280  203.0150  150.3110 C   0  0  0  0  0  0  0  0  0  0  0  0
  160.8690  201.7100  150.7840 C   0  0  0  0  0  3  0  0  0  0  0  0
  161.4060  207.1650  149.1180 C   0  0  0  0  0  2  0  0  0  0  0  0
  161.7110  206.2830  146.6290 C   0  0  0  0  0  0  0  0  0  0  0  0
  161.3350  206.7560  145.3690 C   0  0  0  0  0  3  0  0  0  0  0  0
  160.3670  209.5930  155.9090 C   0  0  0  0  0  0  0  0  0  0  0  0
  160.3270  207.2170  155.4770 C   0  0  0  0  0  3  0  0  0  0  0  0
  161.3130  209.0940  152.2980 C   0  0  0  0  0  1  0  0  0  0  0  0
  160.1590  210.9380  157.0080 Cl  0  0  0  0  0  0  0  0  0  0  0  0
  160.1600  208.2890  156.3550 C   0  0  0  0  0  3  0  0  0  0  0  0
  160.9120  208.7580  153.6950 C   0  0  0  0  0  0  0  0  0  0  0  0
  160.7020  207.4270  154.1400 C   0  0  0  0  0  0  0  0  0  0  0  0
  160.7410  209.8240  154.5850 C   0  0  0  0  0  3  0  0  0  0  0  0
  1  8  1  0  0  0  0
  2  3  1  6  0  0  0
  2  7  1  0  0  0  0
  2 15  1  0  0  0  0
  5  4  2  0  0  0  0
  5 30  1  0  0  0  0
  6  9  1  0  0  0  0
  7 19  2  0  0  0  0
  8 20  2  0  0  0  0
  9  3  2  0  0  0  0
 10 14  2  0  0  0  0
 10 16  1  0  0  0  0
 11  1  1  0  0  0  0
 12 21  1  0  0  0  0
 13  6  1  0  0  0  0
 15 21  1  1  0  0  0
 15 10  1  0  0  0  0
 16  5  1  0  0  0  0
 17  1  2  0  0  0  0
 17  7  1  0  0  0  0
 18  6  2  0  0  0  0
 18 23  1  0  0  0  0
 19 20  1  0  0  0  0
 19 14  1  0  0  0  0
 22  3  1  0  0  0  0
 22 12  1  0  0  0  0
 23 22  2  0  0  0  0
 24 28  1  0  0  0  0
 24 27  1  0  0  0  0
 25 28  2  0  0  0  0
 26 29  1  0  0  0  0
 29 30  2  0  0  0  0
 29 31  1  0  0  0  0
 30 25  1  0  0  0  0
 31 24  2  0  0  0  0
M  END
>  <MODEL>
1

>  <REMARK>
 VINA RESULT:      -8.7      0.000      0.000
  Name = 
  1 active torsions:
  status: ('A' for Active; 'I' for Inactive)
    1  A    between atoms: C_9  and  C_22
                            x       y       z     vdW  Elec       q    Type
                         _______ _______ _______ _____ _____    ______ ____

>  <TORSDO>
F 1

$$$$
=
 OpenBabel11052422323D

 31 35  0  0  1  0  0  0  0  0999 V2000
  161.8070  212.9790  148.9020 C   0  0  0  0  0  0  0  0  0  0  0  0
  161.5000  209.8910  151.1410 C   0  0  2  0  0  3  0  0  0  0  0  0
  160.8450  210.4200  152.3950 C   0  0  0  0  0  0  0  0  0  0  0  0
  162.0270  206.5300  147.0530 O   0  0  0  0  0  0  0  0  0  0  0  0
  161.6140  205.8690  148.0440 C   0  0  0  0  0  0  0  0  0  0  0  0
  159.3110  211.8840  153.5800 C   0  0  0  0  0  0  0  0  0  0  0  0
  161.5250  210.7920  149.9260 C   0  0  0  0  0  0  0  0  0  0  0  0
  161.8250  212.3900  147.6360 C   0  0  0  0  0  3  0  0  0  0  0  0
  159.9980  211.5390  152.4120 C   0  0  0  0  0  3  0  0  0  0  0  0
  161.3120  207.9600  149.4900 C   0  0  0  0  0  0  0  0  0  0  0  0
  161.9390  214.4530  149.0380 C   0  0  0  0  0  1  0  0  0  0  0  0
  161.9420  208.1260  153.4750 S   0  0  0  0  0  0  0  0  0  0  0  0
  158.5110  212.9760  153.5960 F   0  0  0  0  0  0  0  0  0  0  0  0
  161.5560  208.7750  148.5050 N   0  0  0  0  0  0  0  0  0  0  0  0
  160.9010  208.5030  150.8380 C   0  0  1  0  0  3  0  0  0  0  0  0
  161.2710  206.5430  149.2640 N   0  0  0  0  0  2  0  0  0  0  0  0
  161.6780  212.1820  150.0420 C   0  0  0  0  0  3  0  0  0  0  0  0
  159.4290  211.0870  154.7230 C   0  0  0  0  0  3  0  0  0  0  0  0
  161.5840  210.2010  148.6480 C   0  0  0  0  0  0  0  0  0  0  0  0
  161.7240  211.0010  147.5110 C   0  0  0  0  0  3  0  0  0  0  0  0
  161.0850  207.4760  151.9820 C   0  0  0  0  0  2  0  0  0  0  0  0
  160.9530  209.6230  153.5440 C   0  0  0  0  0  0  0  0  0  0  0  0
  160.2420  209.9500  154.7020 C   0  0  0  0  0  3  0  0  0  0  0  0
  161.2700  201.5970  147.6800 C   0  0  0  0  0  0  0  0  0  0  0  0
  161.6670  203.7760  146.7190 C   0  0  0  0  0  3  0  0  0  0  0  0
  160.9810  204.1180  150.4630 C   0  0  0  0  0  1  0  0  0  0  0  0
  161.1360  199.8620  147.5000 Cl  0  0  0  0  0  0  0  0  0  0  0  0
  161.5600  202.3930  146.5730 C   0  0  0  0  0  3  0  0  0  0  0  0
  161.1910  203.5720  149.0910 C   0  0  0  0  0  0  0  0  0  0  0  0
  161.4860  204.3900  147.9690 C   0  0  0  0  0  0  0  0  0  0  0  0
  161.0870  202.1850  148.9320 C   0  0  0  0  0  3  0  0  0  0  0  0
  1 11  1  0  0  0  0
  1 17  1  0  0  0  0
  2  7  1  6  0  0  0
  2  3  1  0  0  0  0
  3  9  2  0  0  0  0
  3 22  1  0  0  0  0
  4  5  2  0  0  0  0
  5 16  1  0  0  0  0
  6 13  1  0  0  0  0
  6 18  2  0  0  0  0
  7 17  2  0  0  0  0
  8  1  2  0  0  0  0
  9  6  1  0  0  0  0
 10 15  1  0  0  0  0
 12 22  1  0  0  0  0
 14 19  1  0  0  0  0
 14 10  2  0  0  0  0
 15  2  1  0  0  0  0
 15 21  1  1  0  0  0
 16 10  1  0  0  0  0
 19  7  1  0  0  0  0
 20  8  1  0  0  0  0
 20 19  2  0  0  0  0
 21 12  1  0  0  0  0
 22 23  2  0  0  0  0
 23 18  1  0  0  0  0
 24 31  1  0  0  0  0
 25 30  2  0  0  0  0
 27 24  1  0  0  0  0
 28 25  1  0  0  0  0
 28 24  2  0  0  0  0
 29 26  1  0  0  0  0
 30  5  1  0  0  0  0
 30 29  1  0  0  0  0
 31 29  2  0  0  0  0
M  END
>  <MODEL>
2

>  <REMARK>
 VINA RESULT:      -6.4      4.676      9.085
  Name = 
  1 active torsions:
  status: ('A' for Active; 'I' for Inactive)
    1  A    between atoms: C_9  and  C_22
                            x       y       z     vdW  Elec       q    Type
                         _______ _______ _______ _____ _____    ______ ____

>  <TORSDO>
F 1

$$$$
=
 OpenBabel11052422323D

 31 35  0  0  1  0  0  0  0  0999 V2000
  161.7670  212.9790  149.0100 C   0  0  0  0  0  0  0  0  0  0  0  0
  161.4950  209.8140  151.1440 C   0  0  2  0  0  3  0  0  0  0  0  0
  160.8300  210.2920  152.4130 C   0  0  0  0  0  0  0  0  0  0  0  0
  162.0760  206.5990  146.9480 O   0  0  0  0  0  0  0  0  0  0  0  0
  161.6690  205.8990  147.9150 C   0  0  0  0  0  0  0  0  0  0  0  0
  159.2740  211.6960  153.6420 C   0  0  0  0  0  0  0  0  0  0  0  0
  161.5110  210.7550  149.9600 C   0  0  0  0  0  0  0  0  0  0  0  0
  161.7960  212.4320  147.7260 C   0  0  0  0  0  3  0  0  0  0  0  0
  159.9690  211.3990  152.4650 C   0  0  0  0  0  3  0  0  0  0  0  0
  161.3370  207.9370  149.4300 C   0  0  0  0  0  0  0  0  0  0  0  0
  161.8790  214.4490  149.1950 C   0  0  0  0  0  1  0  0  0  0  0  0
  161.9540  207.9780  153.4200 S   0  0  0  0  0  0  0  0  0  0  0  0
  158.4600  212.7770  153.6920 F   0  0  0  0  0  0  0  0  0  0  0  0
  161.5720  208.7880  148.4730 N   0  0  0  0  0  0  0  0  0  0  0  0
  160.9150  208.4290  150.7940 C   0  0  1  0  0  3  0  0  0  0  0  0
  161.3140  206.5280  149.1560 N   0  0  0  0  0  2  0  0  0  0  0  0
  161.6460  212.1420  150.1230 C   0  0  0  0  0  3  0  0  0  0  0  0
  159.4000  210.8630  154.7580 C   0  0  0  0  0  3  0  0  0  0  0  0
  161.5810  210.2080  148.6630 C   0  0  0  0  0  0  0  0  0  0  0  0
  161.7140  211.0480  147.5540 C   0  0  0  0  0  3  0  0  0  0  0  0
  161.1090  207.3670  151.9040 C   0  0  0  0  0  2  0  0  0  0  0  0
  160.9460  209.4590  153.5350 C   0  0  0  0  0  0  0  0  0  0  0  0
  160.2280  209.7380  154.7010 C   0  0  0  0  0  3  0  0  0  0  0  0
  161.3310  201.6170  147.7050 C   0  0  0  0  0  0  0  0  0  0  0  0
  161.3170  203.6800  148.9580 C   0  0  0  0  0  3  0  0  0  0  0  0
  161.9460  204.4160  145.2620 C   0  0  0  0  0  1  0  0  0  0  0  0
  161.1890  199.8730  147.6520 Cl  0  0  0  0  0  0  0  0  0  0  0  0
  161.2040  202.2910  148.9180 C   0  0  0  0  0  3  0  0  0  0  0  0
  161.6880  203.7280  146.5600 C   0  0  0  0  0  0  0  0  0  0  0  0
  161.5600  204.4220  147.7910 C   0  0  0  0  0  0  0  0  0  0  0  0
  161.5720  202.3330  146.5330 C   0  0  0  0  0  3  0  0  0  0  0  0
  1 11  1  0  0  0  0
  1 17  1  0  0  0  0
  2  7  1  6  0  0  0
  2  3  1  0  0  0  0
  3  9  2  0  0  0  0
  3 22  1  0  0  0  0
  4  5  2  0  0  0  0
  5 16  1  0  0  0  0
  6 13  1  0  0  0  0
  6 18  2  0  0  0  0
  7 17  2  0  0  0  0
  8  1  2  0  0  0  0
  9  6  1  0  0  0  0
 10 15  1  0  0  0  0
 12 22  1  0  0  0  0
 14 19  1  0  0  0  0
 14 10  2  0  0  0  0
 15  2  1  0  0  0  0
 15 21  1  1  0  0  0
 16 10  1  0  0  0  0
 19  7  1  0  0  0  0
 20  8  1  0  0  0  0
 20 19  2  0  0  0  0
 21 12  1  0  0  0  0
 22 23  2  0  0  0  0
 23 18  1  0  0  0  0
 24 28  1  0  0  0  0
 26 29  1  0  0  0  0
 27 24  1  0  0  0  0
 28 25  2  0  0  0  0
 29 30  2  0  0  0  0
 30  5  1  0  0  0  0
 30 25  1  0  0  0  0
 31 29  1  0  0  0  0
 31 24  2  0  0  0  0
M  END
>  <MODEL>
3

>  <REMARK>
 VINA RESULT:      -6.2      4.657      9.120
  Name = 
  1 active torsions:
  status: ('A' for Active; 'I' for Inactive)
    1  A    between atoms: C_9  and  C_22
                            x       y       z     vdW  Elec       q    Type
                         _______ _______ _______ _____ _____    ______ ____

>  <TORSDO>
F 1

$$$$
=
 OpenBabel11052422323D

 31 35  0  0  1  0  0  0  0  0999 V2000
  161.9770  212.9840  148.6590 C   0  0  0  0  0  0  0  0  0  0  0  0
  161.4830  210.3280  151.3690 C   0  0  2  0  0  3  0  0  0  0  0  0
  160.8250  211.0850  152.4980 C   0  0  0  0  0  0  0  0  0  0  0  0
  161.9500  206.3130  147.9130 O   0  0  0  0  0  0  0  0  0  0  0  0
  161.4860  205.8440  148.9870 C   0  0  0  0  0  0  0  0  0  0  0  0
  159.3320  212.7870  153.3780 C   0  0  0  0  0  0  0  0  0  0  0  0
  161.5750  211.0120  150.0230 C   0  0  0  0  0  0  0  0  0  0  0  0
  161.9970  212.1910  147.5100 C   0  0  0  0  0  3  0  0  0  0  0  0
  160.0290  212.2240  152.3050 C   0  0  0  0  0  3  0  0  0  0  0  0
  161.2460  208.1570  150.0570 C   0  0  0  0  0  0  0  0  0  0  0  0
  162.1720  214.4530  148.5520 C   0  0  0  0  0  1  0  0  0  0  0  0
  161.7940  208.9610  153.9760 S   0  0  0  0  0  0  0  0  0  0  0  0
  158.5810  213.8980  153.1900 F   0  0  0  0  0  0  0  0  0  0  0  0
  161.5470  208.7860  148.9580 N   0  0  0  0  0  0  0  0  0  0  0  0
  160.8300  208.9340  151.2840 C   0  0  1  0  0  3  0  0  0  0  0  0
  161.1460  206.7260  150.0680 N   0  0  0  0  0  2  0  0  0  0  0  0
  161.7880  212.3940  149.9120 C   0  0  0  0  0  3  0  0  0  0  0  0
  159.3890  212.1880  154.6410 C   0  0  0  0  0  3  0  0  0  0  0  0
  161.6360  210.2140  148.8630 C   0  0  0  0  0  0  0  0  0  0  0  0
  161.8370  210.8060  147.6140 C   0  0  0  0  0  3  0  0  0  0  0  0
  160.9420  208.1060  152.5870 C   0  0  0  0  0  2  0  0  0  0  0  0
  160.8710  210.4870  153.7660 C   0  0  0  0  0  0  0  0  0  0  0  0
  160.1510  211.0310  154.8330 C   0  0  0  0  0  3  0  0  0  0  0  0
  160.9070  201.6290  149.6210 C   0  0  0  0  0  0  0  0  0  0  0  0
  161.0290  203.8950  150.4470 C   0  0  0  0  0  3  0  0  0  0  0  0
  161.6330  203.8580  146.6740 C   0  0  0  0  0  1  0  0  0  0  0  0
  160.6680  199.9200  149.9110 Cl  0  0  0  0  0  0  0  0  0  0  0  0
  160.8380  202.5330  150.6800 C   0  0  0  0  0  3  0  0  0  0  0  0
  161.3610  203.4520  148.0830 C   0  0  0  0  0  0  0  0  0  0  0  0
  161.2930  204.3800  149.1550 C   0  0  0  0  0  0  0  0  0  0  0  0
  161.1670  202.0880  148.3300 C   0  0  0  0  0  3  0  0  0  0  0  0
  1 17  1  0  0  0  0
  2  7  1  6  0  0  0
  2  3  1  0  0  0  0
  3 22  1  0  0  0  0
  4  5  2  0  0  0  0
  5 30  1  0  0  0  0
  5 16  1  0  0  0  0
  6 18  2  0  0  0  0
  8 20  1  0  0  0  0
  8  1  2  0  0  0  0
  9  3  2  0  0  0  0
  9  6  1  0  0  0  0
 10 16  1  0  0  0  0
 10 15  1  0  0  0  0
 11  1  1  0  0  0  0
 13  6  1  0  0  0  0
 14 10  2  0  0  0  0
 15  2  1  0  0  0  0
 15 21  1  1  0  0  0
 17  7  2  0  0  0  0
 18 23  1  0  0  0  0
 19 14  1  0  0  0  0
 19  7  1  0  0  0  0
 20 19  2  0  0  0  0
 21 12  1  0  0  0  0
 22 12  1  0  0  0  0
 22 23  2  0  0  0  0
 24 27  1  0  0  0  0
 24 28  1  0  0  0  0
 25 28  2  0  0  0  0
 26 29  1  0  0  0  0
 29 31  1  0  0  0  0
 29 30  2  0  0  0  0
 30 25  1  0  0  0  0
 31 24  2  0  0  0  0
M  END
>  <MODEL>
4

>  <REMARK>
 VINA RESULT:      -5.9      4.591      8.926
  Name = 
  1 active torsions:
  status: ('A' for Active; 'I' for Inactive)
    1  A    between atoms: C_9  and  C_22
                            x       y       z     vdW  Elec       q    Type
                         _______ _______ _______ _____ _____    ______ ____

>  <TORSDO>
F 1

$$$$
