=
 OpenBabel11052421583D

 30 33  0  0  1  0  0  0  0  0999 V2000
  160.1500  204.9360  149.9610 C   0  0  0  0  0  2  0  0  0  0  0  0
  160.6710  202.6260  150.8570 C   0  0  0  0  0  0  0  0  0  0  0  0
  161.7230  203.8520  146.1070 C   0  0  0  0  0  3  0  0  0  0  0  0
  160.7180  206.0600  149.0780 C   0  0  2  0  0  3  0  0  0  0  0  0
  161.9580  204.8230  145.1300 C   0  0  0  0  0  3  0  0  0  0  0  0
  160.8240  201.3210  150.5730 C   0  0  0  0  0  3  0  0  0  0  0  0
  160.3760  203.0790  152.5310 Cl  0  0  0  0  0  0  0  0  0  0  0  0
  161.3360  204.2230  147.4040 C   0  0  0  0  0  0  0  0  0  0  0  0
  161.1330  200.8170  149.1830 C   0  0  0  0  0  2  0  0  0  0  0  0
  161.0140  203.6880  149.8370 C   0  0  1  0  0  3  0  0  0  0  0  0
  161.1420  205.5940  147.7020 C   0  0  0  0  0  0  0  0  0  0  0  0
  161.7800  206.1740  145.4310 C   0  0  0  0  0  3  0  0  0  0  0  0
  161.3690  206.5560  146.7090 C   0  0  0  0  0  3  0  0  0  0  0  0
  161.7850  201.8900  148.3120 C   0  0  0  0  0  2  0  0  0  0  0  0
  160.9450  203.1610  148.4030 C   0  0  2  0  0  3  0  0  0  0  0  0
  161.8050  206.9110  149.7640 C   0  0  2  0  0  3  0  0  0  0  0  0
  161.9330  206.7330  153.5810 C   0  0  0  0  0  3  0  0  0  0  0  0
  163.0940  205.3140  151.9080 C   0  0  0  0  0  1  0  0  0  0  0  0
  161.5770  207.2260  151.2260 C   0  0  0  0  0  0  0  0  0  0  0  0
  160.7450  208.2950  151.5990 C   0  0  0  0  0  3  0  0  0  0  0  0
  162.1780  206.4440  152.2340 C   0  0  0  0  0  0  0  0  0  0  0  0
  161.0980  207.7930  153.9360 C   0  0  0  0  0  3  0  0  0  0  0  0
  160.5060  208.5760  152.9450 C   0  0  0  0  0  3  0  0  0  0  0  0
  162.2470  208.0890  148.9400 C   0  0  0  0  0  3  0  0  0  0  0  0
  161.8970  209.3430  149.2400 C   0  0  0  0  0  3  0  0  0  0  0  0
  162.3540  210.4830  148.3950 C   0  0  0  0  0  2  0  0  0  0  0  0
  161.8480  211.7360  148.9360 N   0  0  0  0  0  2  0  0  0  0  0  0
  162.5810  213.0170  147.1250 O   0  0  0  0  0  0  0  0  0  0  0  0
  161.9980  212.9730  148.2410 C   0  0  0  0  0  0  0  0  0  0  0  0
  161.4610  214.2220  148.8400 C   0  0  0  0  0  1  0  0  0  0  0  0
  2  7  1  0  0  0  0
  3  8  1  0  0  0  0
  4 16  1  1  0  0  0
  4  1  1  0  0  0  0
  5 12  1  0  0  0  0
  5  3  2  0  0  0  0
  6  2  2  0  0  0  0
  8 11  2  0  0  0  0
  8 15  1  0  0  0  0
  9  6  1  0  0  0  0
 10  1  1  6  0  0  0
 10  2  1  0  0  0  0
 11  4  1  0  0  0  0
 12 13  2  0  0  0  0
 13 11  1  0  0  0  0
 14  9  1  0  0  0  0
 15 14  1  1  0  0  0
 15 10  1  0  0  0  0
 16 24  1  6  0  0  0
 16 19  1  0  0  0  0
 17 22  1  0  0  0  0
 18 21  1  0  0  0  0
 19 20  2  0  0  0  0
 19 21  1  0  0  0  0
 20 23  1  0  0  0  0
 21 17  2  0  0  0  0
 23 22  2  0  0  0  0
 24 25  2  0  0  0  0
 26 27  1  0  0  0  0
 26 25  1  0  0  0  0
 28 29  2  0  0  0  0
 29 30  1  0  0  0  0
 29 27  1  0  0  0  0
M  END
>  <MODEL>
1

>  <REMARK>
 VINA RESULT:      -9.1      0.000      0.000
  Name = 
  5 active torsions:
  status: ('A' for Active; 'I' for Inactive)
    1  A    between atoms: C_4  and  C_13
    2  A    between atoms: N_7  and  C_16
    3  A    between atoms: C_8  and  C_13
    4  A    between atoms: C_13  and  C_27
    5  A    between atoms: C_16  and  C_30
                            x       y       z     vdW  Elec       q    Type
                         _______ _______ _______ _____ _____    ______ ____

>  <TORSDO>
F 5

$$$$
=
 OpenBabel11052421583D

 30 33  0  0  1  0  0  0  0  0999 V2000
  159.9480  206.9300  150.1110 C   0  0  0  0  0  2  0  0  0  0  0  0
  160.9220  207.6520  152.3340 C   0  0  0  0  0  0  0  0  0  0  0  0
  161.4430  202.9390  150.6920 C   0  0  0  0  0  3  0  0  0  0  0  0
  160.2530  206.0910  148.8590 C   0  0  2  0  0  3  0  0  0  0  0  0
  161.4420  202.0140  149.6450 C   0  0  0  0  0  3  0  0  0  0  0  0
  161.2850  207.2790  153.5730 C   0  0  0  0  0  3  0  0  0  0  0  0
  160.6570  209.3630  152.0290 Cl  0  0  0  0  0  0  0  0  0  0  0  0
  161.0790  204.2750  150.4650 C   0  0  0  0  0  0  0  0  0  0  0  0
  161.5890  205.8460  153.9400 C   0  0  0  0  0  2  0  0  0  0  0  0
  161.0090  206.6840  151.1760 C   0  0  1  0  0  3  0  0  0  0  0  0
  160.6660  204.6680  149.1680 C   0  0  0  0  0  0  0  0  0  0  0  0
  161.0480  202.4080  148.3660 C   0  0  0  0  0  3  0  0  0  0  0  0
  160.6570  203.7270  148.1310 C   0  0  0  0  0  3  0  0  0  0  0  0
  161.9870  205.0110  152.7240 C   0  0  0  0  0  2  0  0  0  0  0  0
  160.9440  205.2250  151.6310 C   0  0  2  0  0  3  0  0  0  0  0  0
  161.2150  206.7710  147.8640 C   0  0  2  0  0  3  0  0  0  0  0  0
  162.0610  204.6440  144.8020 C   0  0  0  0  0  3  0  0  0  0  0  0
  160.0870  206.0920  145.2040 C   0  0  0  0  0  1  0  0  0  0  0  0
  161.9440  205.8510  146.9110 C   0  0  0  0  0  0  0  0  0  0  0  0
  163.1850  205.2980  147.2700 C   0  0  0  0  0  3  0  0  0  0  0  0
  161.3850  205.5190  145.6590 C   0  0  0  0  0  0  0  0  0  0  0  0
  163.2890  204.0960  145.1760 C   0  0  0  0  0  3  0  0  0  0  0  0
  163.8530  204.4260  146.4090 C   0  0  0  0  0  3  0  0  0  0  0  0
  162.0870  207.8180  148.5000 C   0  0  0  0  0  3  0  0  0  0  0  0
  161.7460  209.1090  148.5330 C   0  0  0  0  0  3  0  0  0  0  0  0
  162.6410  210.1160  149.1720 C   0  0  0  0  0  2  0  0  0  0  0  0
  162.0060  211.4260  149.1560 N   0  0  0  0  0  2  0  0  0  0  0  0
  163.4790  212.3150  147.5760 O   0  0  0  0  0  0  0  0  0  0  0  0
  162.4820  212.4860  148.3270 C   0  0  0  0  0  0  0  0  0  0  0  0
  161.7950  213.8020  148.3520 C   0  0  0  0  0  1  0  0  0  0  0  0
  2  6  2  0  0  0  0
  4 16  1  1  0  0  0
  4 11  1  0  0  0  0
  4  1  1  0  0  0  0
  5  3  2  0  0  0  0
  6  9  1  0  0  0  0
  7  2  1  0  0  0  0
  8  3  1  0  0  0  0
  8 15  1  0  0  0  0
 10  1  1  6  0  0  0
 10 15  1  0  0  0  0
 10  2  1  0  0  0  0
 11  8  2  0  0  0  0
 12  5  1  0  0  0  0
 13 12  2  0  0  0  0
 13 11  1  0  0  0  0
 14  9  1  0  0  0  0
 15 14  1  1  0  0  0
 16 24  1  1  0  0  0
 17 22  2  0  0  0  0
 17 21  1  0  0  0  0
 18 21  1  0  0  0  0
 19 20  1  0  0  0  0
 19 16  1  0  0  0  0
 21 19  2  0  0  0  0
 22 23  1  0  0  0  0
 23 20  2  0  0  0  0
 24 25  2  0  0  0  0
 25 26  1  0  0  0  0
 27 26  1  0  0  0  0
 28 29  2  0  0  0  0
 29 30  1  0  0  0  0
 29 27  1  0  0  0  0
M  END
>  <MODEL>
2

>  <REMARK>
 VINA RESULT:      -7.3      1.614      4.919
  Name = 
  5 active torsions:
  status: ('A' for Active; 'I' for Inactive)
    1  A    between atoms: C_4  and  C_13
    2  A    between atoms: N_7  and  C_16
    3  A    between atoms: C_8  and  C_13
    4  A    between atoms: C_13  and  C_27
    5  A    between atoms: C_16  and  C_30
                            x       y       z     vdW  Elec       q    Type
                         _______ _______ _______ _____ _____    ______ ____

>  <TORSDO>
F 5

$$$$
=
 OpenBabel11052421583D

 30 33  0  0  1  0  0  0  0  0999 V2000
  162.1000  210.3160  152.7330 C   0  0  0  0  0  2  0  0  0  0  0  0
  161.8220  208.7570  150.7580 C   0  0  0  0  0  0  0  0  0  0  0  0
  160.4250  207.3580  155.3700 C   0  0  0  0  0  3  0  0  0  0  0  0
  161.3950  210.8100  154.0070 C   0  0  2  0  0  3  0  0  0  0  0  0
  160.0590  207.6880  156.6770 C   0  0  0  0  0  3  0  0  0  0  0  0
  161.7640  207.4820  150.3340 C   0  0  0  0  0  3  0  0  0  0  0  0
  162.1640  210.0080  149.5710 Cl  0  0  0  0  0  0  0  0  0  0  0  0
  160.8470  208.3520  154.4730 C   0  0  0  0  0  0  0  0  0  0  0  0
  161.4270  206.3300  151.2510 C   0  0  0  0  0  2  0  0  0  0  0  0
  161.3380  209.1380  152.1380 C   0  0  1  0  0  3  0  0  0  0  0  0
  160.9400  209.6930  154.9220 C   0  0  0  0  0  0  0  0  0  0  0  0
  160.1390  209.0120  157.1110 C   0  0  0  0  0  3  0  0  0  0  0  0
  160.5820  210.0070  156.2380 C   0  0  0  0  0  3  0  0  0  0  0  0
  160.6430  206.7820  152.4820 C   0  0  0  0  0  2  0  0  0  0  0  0
  161.3770  207.9620  153.1140 C   0  0  2  0  0  3  0  0  0  0  0  0
  160.2770  211.8400  153.7490 C   0  0  2  0  0  3  0  0  0  0  0  0
  157.8240  212.3880  156.6290 C   0  0  0  0  0  3  0  0  0  0  0  0
  159.9890  213.5140  156.1830 C   0  0  0  0  0  1  0  0  0  0  0  0
  159.0580  211.7340  154.6380 C   0  0  0  0  0  0  0  0  0  0  0  0
  158.0260  210.8350  154.3220 C   0  0  0  0  0  3  0  0  0  0  0  0
  158.9450  212.5200  155.8040 C   0  0  0  0  0  0  0  0  0  0  0  0
  156.8100  211.4850  156.3060 C   0  0  0  0  0  3  0  0  0  0  0  0
  156.9110  210.7100  155.1500 C   0  0  0  0  0  3  0  0  0  0  0  0
  159.9630  212.0240  152.2890 C   0  0  0  0  0  3  0  0  0  0  0  0
  159.7220  213.2240  151.7550 C   0  0  0  0  0  3  0  0  0  0  0  0
  159.4120  213.3620  150.3040 C   0  0  0  0  0  2  0  0  0  0  0  0
  160.6420  213.3220  149.5270 N   0  0  0  0  0  2  0  0  0  0  0  0
  159.5670  212.7900  147.5220 O   0  0  0  0  0  0  0  0  0  0  0  0
  160.6440  213.0270  148.1310 C   0  0  0  0  0  0  0  0  0  0  0  0
  161.9300  212.9990  147.3880 C   0  0  0  0  0  1  0  0  0  0  0  0
  1  4  1  0  0  0  0
  2 10  1  0  0  0  0
  3  5  1  0  0  0  0
  4 16  1  6  0  0  0
  4 11  1  0  0  0  0
  5 12  2  0  0  0  0
  6  2  2  0  0  0  0
  6  9  1  0  0  0  0
  7  2  1  0  0  0  0
  8 11  1  0  0  0  0
  8  3  2  0  0  0  0
  9 14  1  0  0  0  0
 10  1  1  1  0  0  0
 10 15  1  0  0  0  0
 11 13  2  0  0  0  0
 13 12  1  0  0  0  0
 15 14  1  6  0  0  0
 15  8  1  0  0  0  0
 16 24  1  6  0  0  0
 16 19  1  0  0  0  0
 19 21  1  0  0  0  0
 20 19  2  0  0  0  0
 20 23  1  0  0  0  0
 21 18  1  0  0  0  0
 21 17  2  0  0  0  0
 22 17  1  0  0  0  0
 23 22  2  0  0  0  0
 25 24  2  0  0  0  0
 26 25  1  0  0  0  0
 27 26  1  0  0  0  0
 28 29  2  0  0  0  0
 29 27  1  0  0  0  0
 30 29  1  0  0  0  0
M  END
>  <MODEL>
3

>  <REMARK>
 VINA RESULT:      -6.9      3.552      7.044
  Name = 
  5 active torsions:
  status: ('A' for Active; 'I' for Inactive)
    1  A    between atoms: C_4  and  C_13
    2  A    between atoms: N_7  and  C_16
    3  A    between atoms: C_8  and  C_13
    4  A    between atoms: C_13  and  C_27
    5  A    between atoms: C_16  and  C_30
                            x       y       z     vdW  Elec       q    Type
                         _______ _______ _______ _____ _____    ______ ____

>  <TORSDO>
F 5

$$$$
=
 OpenBabel11052421583D

 30 33  0  0  1  0  0  0  0  0999 V2000
  161.9350  206.6330  152.3350 C   0  0  0  0  0  2  0  0  0  0  0  0
  160.8380  207.8660  154.2550 C   0  0  0  0  0  0  0  0  0  0  0  0
  162.0260  210.2440  149.9980 C   0  0  0  0  0  3  0  0  0  0  0  0
  161.9170  206.4950  150.8030 C   0  0  2  0  0  3  0  0  0  0  0  0
  162.3310  210.2090  148.6360 C   0  0  0  0  0  3  0  0  0  0  0  0
  160.6790  209.0410  154.8880 C   0  0  0  0  0  3  0  0  0  0  0  0
  160.4480  206.3940  155.1330 Cl  0  0  0  0  0  0  0  0  0  0  0  0
  161.8680  209.0550  150.7270 C   0  0  0  0  0  0  0  0  0  0  0  0
  160.9330  210.3720  154.2190 C   0  0  0  0  0  2  0  0  0  0  0  0
  161.0740  207.8150  152.7620 C   0  0  1  0  0  3  0  0  0  0  0  0
  162.0650  207.8130  150.0730 C   0  0  0  0  0  0  0  0  0  0  0  0
  162.5110  208.9840  147.9920 C   0  0  0  0  0  3  0  0  0  0  0  0
  162.3830  207.7930  148.7100 C   0  0  0  0  0  3  0  0  0  0  0  0
  160.8290  210.2820  152.6970 C   0  0  0  0  0  2  0  0  0  0  0  0
  161.6840  209.1100  152.2240 C   0  0  2  0  0  3  0  0  0  0  0  0
  160.7410  205.6590  150.2600 C   0  0  2  0  0  3  0  0  0  0  0  0
  161.2060  202.0360  151.3870 C   0  0  0  0  0  3  0  0  0  0  0  0
  160.7750  204.0580  152.7580 C   0  0  0  0  0  1  0  0  0  0  0  0
  160.9480  204.1610  150.2320 C   0  0  0  0  0  0  0  0  0  0  0  0
  161.1270  203.4930  149.0090 C   0  0  0  0  0  3  0  0  0  0  0  0
  160.9850  203.4160  151.4300 C   0  0  0  0  0  0  0  0  0  0  0  0
  161.3890  201.3870  150.1650 C   0  0  0  0  0  3  0  0  0  0  0  0
  161.3470  202.1150  148.9750 C   0  0  0  0  0  3  0  0  0  0  0  0
  160.1420  206.2230  149.0000 C   0  0  0  0  0  3  0  0  0  0  0  0
  160.4650  205.7650  147.7880 C   0  0  0  0  0  3  0  0  0  0  0  0
  159.8490  206.3530  146.5640 C   0  0  0  0  0  2  0  0  0  0  0  0
  160.8280  206.3990  145.4880 N   0  0  0  0  0  2  0  0  0  0  0  0
  160.1800  204.3490  144.5740 O   0  0  0  0  0  0  0  0  0  0  0  0
  160.9380  205.3540  144.5220 C   0  0  0  0  0  0  0  0  0  0  0  0
  161.9560  205.4530  143.4460 C   0  0  0  0  0  1  0  0  0  0  0  0
  2  6  2  0  0  0  0
  2  7  1  0  0  0  0
  3  8  1  0  0  0  0
  4 16  1  1  0  0  0
  4  1  1  0  0  0  0
  5  3  2  0  0  0  0
  8 15  1  0  0  0  0
  9  6  1  0  0  0  0
 10  1  1  1  0  0  0
 10  2  1  0  0  0  0
 11  8  2  0  0  0  0
 11  4  1  0  0  0  0
 12  5  1  0  0  0  0
 12 13  2  0  0  0  0
 13 11  1  0  0  0  0
 14  9  1  0  0  0  0
 15 14  1  6  0  0  0
 15 10  1  0  0  0  0
 16 24  1  6  0  0  0
 17 21  1  0  0  0  0
 19 16  1  0  0  0  0
 19 21  2  0  0  0  0
 20 19  1  0  0  0  0
 21 18  1  0  0  0  0
 22 17  2  0  0  0  0
 23 20  2  0  0  0  0
 23 22  1  0  0  0  0
 25 24  2  0  0  0  0
 26 25  1  0  0  0  0
 27 26  1  0  0  0  0
 29 28  2  0  0  0  0
 29 27  1  0  0  0  0
 30 29  1  0  0  0  0
M  END
>  <MODEL>
4

>  <REMARK>
 VINA RESULT:      -6.5      2.604      6.226
  Name = 
  5 active torsions:
  status: ('A' for Active; 'I' for Inactive)
    1  A    between atoms: C_4  and  C_13
    2  A    between atoms: N_7  and  C_16
    3  A    between atoms: C_8  and  C_13
    4  A    between atoms: C_13  and  C_27
    5  A    between atoms: C_16  and  C_30
                            x       y       z     vdW  Elec       q    Type
                         _______ _______ _______ _____ _____    ______ ____

>  <TORSDO>
F 5

$$$$
=
 OpenBabel11052421583D

 30 33  0  0  1  0  0  0  0  0999 V2000
  162.2660  206.8730  151.9970 C   0  0  0  0  0  2  0  0  0  0  0  0
  160.9850  207.4250  154.1090 C   0  0  0  0  0  0  0  0  0  0  0  0
  161.5870  210.8420  150.4840 C   0  0  0  0  0  3  0  0  0  0  0  0
  162.2450  207.0630  150.4710 C   0  0  2  0  0  3  0  0  0  0  0  0
  161.8650  211.1590  149.1530 C   0  0  0  0  0  3  0  0  0  0  0  0
  160.6070  208.3830  154.9740 C   0  0  0  0  0  3  0  0  0  0  0  0
  160.9140  205.7520  154.6460 Cl  0  0  0  0  0  0  0  0  0  0  0  0
  161.6840  209.5180  150.9390 C   0  0  0  0  0  0  0  0  0  0  0  0
  160.5760  209.8480  154.6090 C   0  0  0  0  0  2  0  0  0  0  0  0
  161.1960  207.7410  152.6460 C   0  0  1  0  0  3  0  0  0  0  0  0
  162.1120  208.5090  150.0420 C   0  0  0  0  0  0  0  0  0  0  0  0
  162.2730  210.1600  148.2680 C   0  0  0  0  0  3  0  0  0  0  0  0
  162.4000  208.8430  148.7130 C   0  0  0  0  0  3  0  0  0  0  0  0
  160.4620  210.0660  153.1010 C   0  0  0  0  0  2  0  0  0  0  0  0
  161.5230  209.2150  152.4100 C   0  0  2  0  0  3  0  0  0  0  0  0
  161.2480  206.1450  149.7350 C   0  0  2  0  0  3  0  0  0  0  0  0
  161.0840  202.3340  149.9920 C   0  0  0  0  0  3  0  0  0  0  0  0
  161.6260  203.7480  148.0260 C   0  0  0  0  0  1  0  0  0  0  0  0
  161.0970  204.7480  150.2940 C   0  0  0  0  0  0  0  0  0  0  0  0
  160.7750  204.5570  151.6480 C   0  0  0  0  0  3  0  0  0  0  0  0
  161.2570  203.6180  149.4640 C   0  0  0  0  0  0  0  0  0  0  0  0
  160.7570  202.1610  151.3380 C   0  0  0  0  0  3  0  0  0  0  0  0
  160.6050  203.2730  152.1670 C   0  0  0  0  0  3  0  0  0  0  0  0
  161.3820  206.2000  148.2380 C   0  0  0  0  0  3  0  0  0  0  0  0
  160.3840  206.5990  147.4450 C   0  0  0  0  0  3  0  0  0  0  0  0
  160.5570  206.6370  145.9650 C   0  0  0  0  0  2  0  0  0  0  0  0
  159.8230  205.5400  145.3510 N   0  0  0  0  0  2  0  0  0  0  0  0
  161.7460  204.3810  144.7060 O   0  0  0  0  0  0  0  0  0  0  0  0
  160.4880  204.4380  144.7360 C   0  0  0  0  0  0  0  0  0  0  0  0
  159.6880  203.3460  144.1250 C   0  0  0  0  0  1  0  0  0  0  0  0
  2  7  1  0  0  0  0
  2  6  2  0  0  0  0
  3  8  1  0  0  0  0
  4 16  1  1  0  0  0
  4  1  1  0  0  0  0
  5  3  2  0  0  0  0
  8 15  1  0  0  0  0
  9  6  1  0  0  0  0
 10  1  1  1  0  0  0
 10  2  1  0  0  0  0
 11  4  1  0  0  0  0
 11  8  2  0  0  0  0
 12 13  2  0  0  0  0
 12  5  1  0  0  0  0
 13 11  1  0  0  0  0
 14  9  1  0  0  0  0
 15 10  1  0  0  0  0
 15 14  1  6  0  0  0
 16 24  1  6  0  0  0
 16 19  1  0  0  0  0
 17 22  1  0  0  0  0
 18 21  1  0  0  0  0
 19 20  2  0  0  0  0
 20 23  1  0  0  0  0
 21 17  2  0  0  0  0
 21 19  1  0  0  0  0
 22 23  2  0  0  0  0
 25 24  2  0  0  0  0
 26 25  1  0  0  0  0
 27 26  1  0  0  0  0
 28 29  2  0  0  0  0
 29 27  1  0  0  0  0
 30 29  1  0  0  0  0
M  END
>  <MODEL>
5

>  <REMARK>
 VINA RESULT:      -6.4      2.553      6.312
  Name = 
  5 active torsions:
  status: ('A' for Active; 'I' for Inactive)
    1  A    between atoms: C_4  and  C_13
    2  A    between atoms: N_7  and  C_16
    3  A    between atoms: C_8  and  C_13
    4  A    between atoms: C_13  and  C_27
    5  A    between atoms: C_16  and  C_30
                            x       y       z     vdW  Elec       q    Type
                         _______ _______ _______ _____ _____    ______ ____

>  <TORSDO>
F 5

$$$$
=
 OpenBabel11052421583D

 30 33  0  0  1  0  0  0  0  0999 V2000
  160.6400  207.1540  149.0970 C   0  0  0  0  0  2  0  0  0  0  0  0
  161.9070  209.2020  149.8770 C   0  0  0  0  0  0  0  0  0  0  0  0
  161.1510  205.3050  152.9470 C   0  0  0  0  0  3  0  0  0  0  0  0
  160.6470  205.6170  149.1580 C   0  0  2  0  0  3  0  0  0  0  0  0
  160.8550  203.9530  153.1380 C   0  0  0  0  0  3  0  0  0  0  0  0
  162.2490  209.9790  150.9190 C   0  0  0  0  0  3  0  0  0  0  0  0
  162.0480  209.8770  148.2600 Cl  0  0  0  0  0  0  0  0  0  0  0  0
  161.1100  205.8710  151.6640 C   0  0  0  0  0  0  0  0  0  0  0  0
  162.2190  209.4920  152.3490 C   0  0  0  0  0  2  0  0  0  0  0  0
  161.6770  207.7190  150.0590 C   0  0  1  0  0  3  0  0  0  0  0  0
  160.7190  205.0660  150.5650 C   0  0  0  0  0  0  0  0  0  0  0  0
  160.4850  203.1600  152.0520 C   0  0  0  0  0  3  0  0  0  0  0  0
  160.4130  203.7160  150.7730 C   0  0  0  0  0  3  0  0  0  0  0  0
  162.3180  207.9700  152.4420 C   0  0  0  0  0  2  0  0  0  0  0  0
  161.2890  207.3610  151.4940 C   0  0  2  0  0  3  0  0  0  0  0  0
  161.6770  204.9540  148.2200 C   0  0  2  0  0  3  0  0  0  0  0  0
  162.3960  205.2660  144.4790 C   0  0  0  0  0  3  0  0  0  0  0  0
  163.8380  204.3500  146.2780 C   0  0  0  0  0  1  0  0  0  0  0  0
  161.5120  205.2400  146.7440 C   0  0  0  0  0  0  0  0  0  0  0  0
  160.3170  205.7990  146.2600 C   0  0  0  0  0  3  0  0  0  0  0  0
  162.5560  204.9690  145.8360 C   0  0  0  0  0  0  0  0  0  0  0  0
  161.2060  205.8280  144.0140 C   0  0  0  0  0  3  0  0  0  0  0  0
  160.1660  206.0920  144.9040 C   0  0  0  0  0  3  0  0  0  0  0  0
  161.9320  203.5080  148.5440 C   0  0  0  0  0  3  0  0  0  0  0  0
  161.2110  202.5180  148.0120 C   0  0  0  0  0  3  0  0  0  0  0  0
  161.4950  201.0970  148.3610 C   0  0  0  0  0  2  0  0  0  0  0  0
  161.1390  200.2300  147.2470 N   0  0  0  0  0  2  0  0  0  0  0  0
  160.8220  201.9940  145.7480 O   0  0  0  0  0  0  0  0  0  0  0  0
  160.8120  200.7520  145.9600 C   0  0  0  0  0  0  0  0  0  0  0  0
  160.4550  199.8210  144.8590 C   0  0  0  0  0  1  0  0  0  0  0  0
  1  4  1  0  0  0  0
  2 10  1  0  0  0  0
  2  6  2  0  0  0  0
  3  5  1  0  0  0  0
  4 16  1  6  0  0  0
  4 11  1  0  0  0  0
  6  9  1  0  0  0  0
  7  2  1  0  0  0  0
  8  3  2  0  0  0  0
  9 14  1  0  0  0  0
 10  1  1  6  0  0  0
 10 15  1  0  0  0  0
 11 13  2  0  0  0  0
 11  8  1  0  0  0  0
 12  5  2  0  0  0  0
 13 12  1  0  0  0  0
 15  8  1  0  0  0  0
 15 14  1  1  0  0  0
 16 24  1  6  0  0  0
 17 21  1  0  0  0  0
 19 16  1  0  0  0  0
 20 19  1  0  0  0  0
 21 18  1  0  0  0  0
 21 19  2  0  0  0  0
 22 17  2  0  0  0  0
 22 23  1  0  0  0  0
 23 20  2  0  0  0  0
 25 26  1  0  0  0  0
 25 24  2  0  0  0  0
 27 26  1  0  0  0  0
 28 29  2  0  0  0  0
 29 27  1  0  0  0  0
 30 29  1  0  0  0  0
M  END
>  <MODEL>
6

>  <REMARK>
 VINA RESULT:      -6.4      3.713      7.761
  Name = 
  5 active torsions:
  status: ('A' for Active; 'I' for Inactive)
    1  A    between atoms: C_4  and  C_13
    2  A    between atoms: N_7  and  C_16
    3  A    between atoms: C_8  and  C_13
    4  A    between atoms: C_13  and  C_27
    5  A    between atoms: C_16  and  C_30
                            x       y       z     vdW  Elec       q    Type
                         _______ _______ _______ _____ _____    ______ ____

>  <TORSDO>
F 5

$$$$
=
 OpenBabel11052421583D

 30 33  0  0  1  0  0  0  0  0999 V2000
  159.2190  212.1860  155.0120 C   0  0  0  0  0  2  0  0  0  0  0  0
  156.8390  212.5530  155.7950 C   0  0  0  0  0  0  0  0  0  0  0  0
  158.2510  213.8000  151.1440 C   0  0  0  0  0  3  0  0  0  0  0  0
  160.0480  211.7070  153.8080 C   0  0  2  0  0  3  0  0  0  0  0  0
  159.1370  213.6710  150.0710 C   0  0  0  0  0  3  0  0  0  0  0  0
  155.7170  213.2820  155.6690 C   0  0  0  0  0  3  0  0  0  0  0  0
  157.0500  211.6050  157.2610 Cl  0  0  0  0  0  0  0  0  0  0  0  0
  158.5100  213.1600  152.3650 C   0  0  0  0  0  0  0  0  0  0  0  0
  155.4030  214.0940  154.4340 C   0  0  0  0  0  2  0  0  0  0  0  0
  157.7560  212.3290  154.6130 C   0  0  1  0  0  3  0  0  0  0  0  0
  159.7060  212.4150  152.5150 C   0  0  0  0  0  0  0  0  0  0  0  0
  160.3070  212.9250  150.2180 C   0  0  0  0  0  3  0  0  0  0  0  0
  160.5910  212.3050  151.4360 C   0  0  0  0  0  3  0  0  0  0  0  0
  156.1450  213.5800  153.2010 C   0  0  0  0  0  2  0  0  0  0  0  0
  157.6210  213.4260  153.5560 C   0  0  2  0  0  3  0  0  0  0  0  0
  160.0860  210.1750  153.6400 C   0  0  2  0  0  3  0  0  0  0  0  0
  161.9350  208.8450  156.7100 C   0  0  0  0  0  3  0  0  0  0  0  0
  162.5850  210.6720  155.1630 C   0  0  0  0  0  1  0  0  0  0  0  0
  160.4240  209.3790  154.8810 C   0  0  0  0  0  0  0  0  0  0  0  0
  159.5490  208.3810  155.3420 C   0  0  0  0  0  3  0  0  0  0  0  0
  161.6260  209.6110  155.5810 C   0  0  0  0  0  0  0  0  0  0  0  0
  161.0590  207.8520  157.1530 C   0  0  0  0  0  3  0  0  0  0  0  0
  159.8650  207.6220  156.4700 C   0  0  0  0  0  3  0  0  0  0  0  0
  160.8180  209.7300  152.4030 C   0  0  0  0  0  3  0  0  0  0  0  0
  160.8310  208.4570  151.9990 C   0  0  0  0  0  3  0  0  0  0  0  0
  161.5710  208.0580  150.7680 C   0  0  0  0  0  2  0  0  0  0  0  0
  161.5940  206.6070  150.6510 N   0  0  0  0  0  2  0  0  0  0  0  0
  160.2710  206.5650  148.7270 O   0  0  0  0  0  0  0  0  0  0  0  0
  160.9170  205.9230  149.5980 C   0  0  0  0  0  0  0  0  0  0  0  0
  160.9740  204.4410  149.5280 C   0  0  0  0  0  1  0  0  0  0  0  0
  2  7  1  0  0  0  0
  3  8  1  0  0  0  0
  4 16  1  6  0  0  0
  4  1  1  0  0  0  0
  5 12  1  0  0  0  0
  5  3  2  0  0  0  0
  6  2  2  0  0  0  0
  8 11  2  0  0  0  0
  8 15  1  0  0  0  0
  9  6  1  0  0  0  0
 10  1  1  1  0  0  0
 10  2  1  0  0  0  0
 11  4  1  0  0  0  0
 12 13  2  0  0  0  0
 13 11  1  0  0  0  0
 14  9  1  0  0  0  0
 15 14  1  6  0  0  0
 15 10  1  0  0  0  0
 16 24  1  6  0  0  0
 16 19  1  0  0  0  0
 17 22  1  0  0  0  0
 18 21  1  0  0  0  0
 19 20  2  0  0  0  0
 19 21  1  0  0  0  0
 20 23  1  0  0  0  0
 21 17  2  0  0  0  0
 23 22  2  0  0  0  0
 25 24  2  0  0  0  0
 26 25  1  0  0  0  0
 27 26  1  0  0  0  0
 28 29  2  0  0  0  0
 29 27  1  0  0  0  0
 30 29  1  0  0  0  0
M  END
>  <MODEL>
7

>  <REMARK>
 VINA RESULT:      -6.3      4.482      8.640
  Name = 
  5 active torsions:
  status: ('A' for Active; 'I' for Inactive)
    1  A    between atoms: C_4  and  C_13
    2  A    between atoms: N_7  and  C_16
    3  A    between atoms: C_8  and  C_13
    4  A    between atoms: C_13  and  C_27
    5  A    between atoms: C_16  and  C_30
                            x       y       z     vdW  Elec       q    Type
                         _______ _______ _______ _____ _____    ______ ____

>  <TORSDO>
F 5

$$$$
