=
 OpenBabel11062408313D

 32 35  0  0  0  0  0  0  0  0999 V2000
  161.6130  208.7510  148.3060 N   0  0  0  0  0  0  0  0  0  0  0  0
  161.8010  209.8160  149.0710 N   0  0  0  0  0  0  0  0  0  0  0  0
  161.7790  207.6470  149.0680 C   0  0  0  0  0  0  0  0  0  0  0  0
  162.0950  208.0370  150.3640 C   0  0  0  0  0  0  0  0  0  0  0  0
  162.3700  210.3180  151.4870 C   0  0  0  0  0  1  0  0  0  0  0  0
  161.6930  211.1620  148.5780 C   0  0  0  0  0  0  0  0  0  0  0  0
  161.9370  212.1450  149.3280 O   0  0  0  0  0  0  0  0  0  0  0  0
  162.0950  209.4160  150.3280 C   0  0  0  0  0  0  0  0  0  0  0  0
  161.6440  206.2740  148.5350 C   0  0  0  0  0  0  0  0  0  0  0  0
  161.8940  205.9860  147.1840 C   0  0  0  0  0  3  0  0  0  0  0  0
  160.0530  201.6700  149.0910 C   0  0  0  0  0  2  0  0  0  0  0  0
  161.2450  205.2370  149.3910 C   0  0  0  0  0  3  0  0  0  0  0  0
  161.1940  202.3550  147.0590 O   0  0  0  0  0  0  0  0  0  0  0  0
  161.3570  203.6550  147.5530 C   0  0  0  0  0  0  0  0  0  0  0  0
  161.7510  204.6830  146.6950 C   0  0  0  0  0  3  0  0  0  0  0  0
  161.0920  203.9350  148.9060 C   0  0  0  0  0  0  0  0  0  0  0  0
  160.9510  201.2480  147.9280 C   0  0  0  0  0  2  0  0  0  0  0  0
  160.7060  202.8300  149.8450 C   0  0  0  0  0  2  0  0  0  0  0  0
  161.2420  211.4110  147.1750 C   0  0  0  0  0  2  0  0  0  0  0  0
  161.2640  212.8370  146.8900 N   0  0  0  0  0  0  0  0  0  0  0  0
  160.1430  213.6430  147.2690 C   0  0  0  0  0  0  0  0  0  0  0  0
  159.0580  214.4520  146.9200 C   0  0  0  0  0  2  0  0  0  0  0  0
  159.2870  214.2230  148.2790 C   0  0  0  0  0  0  0  0  0  0  0  0
  158.9470  214.4090  149.6110 O   0  0  0  0  0  1  0  0  0  0  0  0
  163.6370  213.4940  144.0810 O   0  0  0  0  0  1  0  0  0  0  0  0
  162.3260  213.3560  146.1290 N   0  0  0  0  0  2  0  0  0  0  0  0
  161.4130  212.9590  144.0120 O   0  0  0  0  0  0  0  0  0  0  0  0
  162.4250  213.2360  144.7070 C   0  0  0  0  0  0  0  0  0  0  0  0
  162.3430  207.1800  151.5650 C   0  0  0  0  0  2  0  0  0  0  0  0
  161.1850  207.2640  152.5550 C   0  0  0  0  0  2  0  0  0  0  0  0
  161.2140  204.7850  152.8590 C   0  0  0  0  0  1  0  0  0  0  0  0
  161.2190  206.1270  153.5670 C   0  0  0  0  0  2  0  0  0  0  0  0
  1  3  2  0  0  0  0
  1  2  1  0  0  0  0
  2  8  1  0  0  0  0
  3  4  1  0  0  0  0
  4 29  1  0  0  0  0
  6  2  1  0  0  0  0
  6  7  2  0  0  0  0
  8  4  2  0  0  0  0
  8  5  1  0  0  0  0
  9  3  1  0  0  0  0
  9 12  1  0  0  0  0
 10  9  2  0  0  0  0
 11 18  1  0  0  0  0
 13 14  1  0  0  0  0
 13 17  1  0  0  0  0
 14 16  1  0  0  0  0
 15 10  1  0  0  0  0
 15 14  2  0  0  0  0
 16 12  2  0  0  0  0
 16 18  1  0  0  0  0
 17 11  1  0  0  0  0
 19  6  1  0  0  0  0
 20 19  1  0  0  0  0
 20 21  1  0  0  0  0
 21 23  2  0  0  0  0
 22 21  1  0  0  0  0
 22 23  1  0  0  0  0
 23 24  1  0  0  0  0
 25 28  1  0  0  0  0
 26 20  1  0  0  0  0
 27 28  2  0  0  0  0
 28 26  1  0  0  0  0
 29 30  1  0  0  0  0
 30 32  1  0  0  0  0
 31 32  1  0  0  0  0
M  END
>  <MODEL>
1

>  <REMARK>
 VINA RESULT:      -8.7      0.000      0.000
  Name = 
  8 active torsions:
  status: ('A' for Active; 'I' for Inactive)
    1  A    between atoms: C_2  and  C_5
    2  A    between atoms: C_3  and  N_20
    3  A    between atoms: C_13  and  C_18
    4  A    between atoms: C_13  and  C_29
    5  A    between atoms: C_14  and  C_18
    6  A    between atoms: N_15  and  N_20
    7  A    between atoms: C_16  and  N_20
    8  A    between atoms: C_16  and  C_24
                            x       y       z     vdW  Elec       q    Type
                         _______ _______ _______ _____ _____    ______ ____

>  <TORSDO>
F 8

$$$$
=
 OpenBabel11062408313D

 32 35  0  0  0  0  0  0  0  0999 V2000
  160.8170  207.6070  152.6320 N   0  0  0  0  0  0  0  0  0  0  0  0
  161.0780  208.9010  152.5110 N   0  0  0  0  0  0  0  0  0  0  0  0
  161.2850  206.9760  151.5330 C   0  0  0  0  0  0  0  0  0  0  0  0
  161.8560  207.9160  150.6820 C   0  0  0  0  0  0  0  0  0  0  0  0
  162.1750  210.4490  150.8350 C   0  0  0  0  0  1  0  0  0  0  0  0
  160.7190  209.8670  153.5140 C   0  0  0  0  0  0  0  0  0  0  0  0
  160.9350  211.0950  153.3310 O   0  0  0  0  0  0  0  0  0  0  0  0
  161.7100  209.1210  151.3380 C   0  0  0  0  0  0  0  0  0  0  0  0
  161.1630  205.5160  151.3300 C   0  0  0  0  0  0  0  0  0  0  0  0
  161.1610  204.6250  152.4140 C   0  0  0  0  0  3  0  0  0  0  0  0
  161.2760  201.6510  148.3150 C   0  0  0  0  0  2  0  0  0  0  0  0
  161.0580  205.0060  150.0270 C   0  0  0  0  0  3  0  0  0  0  0  0
  160.8620  201.3640  150.6920 O   0  0  0  0  0  0  0  0  0  0  0  0
  160.9480  202.7460  150.9040 C   0  0  0  0  0  0  0  0  0  0  0  0
  161.0550  203.2460  152.2030 C   0  0  0  0  0  3  0  0  0  0  0  0
  160.9610  203.6290  149.8090 C   0  0  0  0  0  0  0  0  0  0  0  0
  160.5900  200.8200  149.3990 C   0  0  0  0  0  2  0  0  0  0  0  0
  160.8060  203.1040  148.4130 C   0  0  0  0  0  2  0  0  0  0  0  0
  160.1240  209.4180  154.8090 C   0  0  0  0  0  2  0  0  0  0  0  0
  159.4500  210.5290  155.4610 N   0  0  0  0  0  0  0  0  0  0  0  0
  160.2110  211.4230  156.2800 C   0  0  0  0  0  0  0  0  0  0  0  0
  161.2720  211.6560  157.1600 C   0  0  0  0  0  2  0  0  0  0  0  0
  160.4640  212.7420  156.8150 C   0  0  0  0  0  0  0  0  0  0  0  0
  160.1420  214.0880  156.9090 O   0  0  0  0  0  1  0  0  0  0  0  0
  155.9950  211.7980  154.8280 O   0  0  0  0  0  1  0  0  0  0  0  0
  158.0500  210.6120  155.3770 N   0  0  0  0  0  2  0  0  0  0  0  0
  157.9350  212.2350  153.6950 O   0  0  0  0  0  0  0  0  0  0  0  0
  157.3510  211.5950  154.6080 C   0  0  0  0  0  0  0  0  0  0  0  0
  162.5260  207.6990  149.3620 C   0  0  0  0  0  2  0  0  0  0  0  0
  161.5170  207.7120  148.2190 C   0  0  0  0  0  2  0  0  0  0  0  0
  160.6360  206.2690  146.3810 C   0  0  0  0  0  1  0  0  0  0  0  0
  161.8790  206.7100  147.1300 C   0  0  0  0  0  2  0  0  0  0  0  0
  2  1  1  0  0  0  0
  2  6  1  0  0  0  0
  3  1  2  0  0  0  0
  4  8  2  0  0  0  0
  4  3  1  0  0  0  0
  5  8  1  0  0  0  0
  6 19  1  0  0  0  0
  7  6  2  0  0  0  0
  8  2  1  0  0  0  0
  9  3  1  0  0  0  0
  9 10  1  0  0  0  0
 11 18  1  0  0  0  0
 11 17  1  0  0  0  0
 12  9  2  0  0  0  0
 13 14  1  0  0  0  0
 14 15  1  0  0  0  0
 15 10  2  0  0  0  0
 16 12  1  0  0  0  0
 16 14  2  0  0  0  0
 17 13  1  0  0  0  0
 18 16  1  0  0  0  0
 19 20  1  0  0  0  0
 20 21  1  0  0  0  0
 21 23  2  0  0  0  0
 21 22  1  0  0  0  0
 23 24  1  0  0  0  0
 23 22  1  0  0  0  0
 26 20  1  0  0  0  0
 27 28  2  0  0  0  0
 28 25  1  0  0  0  0
 28 26  1  0  0  0  0
 29  4  1  0  0  0  0
 30 29  1  0  0  0  0
 31 32  1  0  0  0  0
 32 30  1  0  0  0  0
M  END
>  <MODEL>
2

>  <REMARK>
 VINA RESULT:      -8.5      4.207      6.388
  Name = 
  8 active torsions:
  status: ('A' for Active; 'I' for Inactive)
    1  A    between atoms: C_2  and  C_5
    2  A    between atoms: C_3  and  N_20
    3  A    between atoms: C_13  and  C_18
    4  A    between atoms: C_13  and  C_29
    5  A    between atoms: C_14  and  C_18
    6  A    between atoms: N_15  and  N_20
    7  A    between atoms: C_16  and  N_20
    8  A    between atoms: C_16  and  C_24
                            x       y       z     vdW  Elec       q    Type
                         _______ _______ _______ _____ _____    ______ ____

>  <TORSDO>
F 8

$$$$
=
 OpenBabel11062408313D

 32 35  0  0  0  0  0  0  0  0999 V2000
  160.9490  207.5860  152.3790 N   0  0  0  0  0  0  0  0  0  0  0  0
  161.1820  208.8780  152.1990 N   0  0  0  0  0  0  0  0  0  0  0  0
  161.3330  206.9260  151.2650 C   0  0  0  0  0  0  0  0  0  0  0  0
  161.8190  207.8450  150.3420 C   0  0  0  0  0  0  0  0  0  0  0  0
  162.1170  210.3850  150.3920 C   0  0  0  0  0  1  0  0  0  0  0  0
  160.8950  209.8710  153.1980 C   0  0  0  0  0  0  0  0  0  0  0  0
  161.0790  211.0950  152.9610 O   0  0  0  0  0  0  0  0  0  0  0  0
  161.7120  209.0680  150.9710 C   0  0  0  0  0  0  0  0  0  0  0  0
  161.2130  205.4590  151.1170 C   0  0  0  0  0  0  0  0  0  0  0  0
  161.2720  204.6050  152.2280 C   0  0  0  0  0  3  0  0  0  0  0  0
  161.2110  201.4960  148.2300 C   0  0  0  0  0  2  0  0  0  0  0  0
  161.0490  204.9050  149.8390 C   0  0  0  0  0  3  0  0  0  0  0  0
  160.9160  201.2860  150.6330 O   0  0  0  0  0  0  0  0  0  0  0  0
  161.0010  202.6750  150.7940 C   0  0  0  0  0  0  0  0  0  0  0  0
  161.1670  203.2190  152.0690 C   0  0  0  0  0  3  0  0  0  0  0  0
  160.9520  203.5210  149.6720 C   0  0  0  0  0  0  0  0  0  0  0  0
  160.5850  200.6970  149.3740 C   0  0  0  0  0  2  0  0  0  0  0  0
  160.7340  202.9480  148.3020 C   0  0  0  0  0  2  0  0  0  0  0  0
  160.4150  209.4560  154.5510 C   0  0  0  0  0  2  0  0  0  0  0  0
  160.6330  210.5280  155.5090 N   0  0  0  0  0  0  0  0  0  0  0  0
  159.5050  211.2280  156.0420 C   0  0  0  0  0  0  0  0  0  0  0  0
  158.8530  211.8370  157.1190 C   0  0  0  0  0  2  0  0  0  0  0  0
  158.2010  211.8330  155.8840 C   0  0  0  0  0  0  0  0  0  0  0  0
  157.1140  212.1650  155.0880 O   0  0  0  0  0  1  0  0  0  0  0  0
  163.9360  211.0050  157.1860 O   0  0  0  0  0  0  0  0  0  0  0  0
  161.9520  210.9350  155.7760 N   0  0  0  0  0  2  0  0  0  0  0  0
  162.5120  209.2140  157.2590 O   0  0  0  0  0  1  0  0  0  0  0  0
  162.7820  210.3470  156.7820 C   0  0  0  0  0  0  0  0  0  0  0  0
  162.3810  207.5940  148.9780 C   0  0  0  0  0  2  0  0  0  0  0  0
  161.2730  207.3880  147.9510 C   0  0  0  0  0  2  0  0  0  0  0  0
  160.5380  206.1830  145.8900 C   0  0  0  0  0  1  0  0  0  0  0  0
  161.6810  206.4040  146.8630 C   0  0  0  0  0  2  0  0  0  0  0  0
  2  1  1  0  0  0  0
  2  6  1  0  0  0  0
  3  1  2  0  0  0  0
  4  8  2  0  0  0  0
  4  3  1  0  0  0  0
  5  8  1  0  0  0  0
  6 19  1  0  0  0  0
  7  6  2  0  0  0  0
  8  2  1  0  0  0  0
  9  3  1  0  0  0  0
  9 10  1  0  0  0  0
 11 18  1  0  0  0  0
 11 17  1  0  0  0  0
 12  9  2  0  0  0  0
 13 14  1  0  0  0  0
 14 15  1  0  0  0  0
 15 10  2  0  0  0  0
 16 12  1  0  0  0  0
 16 14  2  0  0  0  0
 17 13  1  0  0  0  0
 18 16  1  0  0  0  0
 19 20  1  0  0  0  0
 20 26  1  0  0  0  0
 20 21  1  0  0  0  0
 21 22  1  0  0  0  0
 23 21  2  0  0  0  0
 23 22  1  0  0  0  0
 24 23  1  0  0  0  0
 26 28  1  0  0  0  0
 28 25  2  0  0  0  0
 28 27  1  0  0  0  0
 29  4  1  0  0  0  0
 30 29  1  0  0  0  0
 31 32  1  0  0  0  0
 32 30  1  0  0  0  0
M  END
>  <MODEL>
3

>  <REMARK>
 VINA RESULT:      -8.5      4.050      6.516
  Name = 
  8 active torsions:
  status: ('A' for Active; 'I' for Inactive)
    1  A    between atoms: C_2  and  C_5
    2  A    between atoms: C_3  and  N_20
    3  A    between atoms: C_13  and  C_18
    4  A    between atoms: C_13  and  C_29
    5  A    between atoms: C_14  and  C_18
    6  A    between atoms: N_15  and  N_20
    7  A    between atoms: C_16  and  N_20
    8  A    between atoms: C_16  and  C_24
                            x       y       z     vdW  Elec       q    Type
                         _______ _______ _______ _____ _____    ______ ____

>  <TORSDO>
F 8

$$$$
=
 OpenBabel11062408313D

 32 35  0  0  0  0  0  0  0  0999 V2000
  160.6650  208.7320  151.9500 N   0  0  0  0  0  0  0  0  0  0  0  0
  160.4750  208.6990  153.2610 N   0  0  0  0  0  0  0  0  0  0  0  0
  161.1720  207.5410  151.5640 C   0  0  0  0  0  0  0  0  0  0  0  0
  161.3150  206.7290  152.6840 C   0  0  0  0  0  0  0  0  0  0  0  0
  160.7980  207.0630  155.1660 C   0  0  0  0  0  1  0  0  0  0  0  0
  159.9370  209.8080  154.0010 C   0  0  0  0  0  0  0  0  0  0  0  0
  159.8280  209.7530  155.2550 O   0  0  0  0  0  0  0  0  0  0  0  0
  160.8590  207.4940  153.7370 C   0  0  0  0  0  0  0  0  0  0  0  0
  161.5090  207.2270  150.1590 C   0  0  0  0  0  0  0  0  0  0  0  0
  162.0060  208.2090  149.2890 C   0  0  0  0  0  3  0  0  0  0  0  0
  161.2550  204.1570  146.3440 C   0  0  0  0  0  2  0  0  0  0  0  0
  161.3180  205.9230  149.6780 C   0  0  0  0  0  3  0  0  0  0  0  0
  162.4050  206.2880  146.1520 O   0  0  0  0  0  0  0  0  0  0  0  0
  162.1200  206.5960  147.4880 C   0  0  0  0  0  0  0  0  0  0  0  0
  162.3100  207.8970  147.9600 C   0  0  0  0  0  3  0  0  0  0  0  0
  161.6110  205.6060  148.3480 C   0  0  0  0  0  0  0  0  0  0  0  0
  162.3800  204.9430  145.6710 C   0  0  0  0  0  2  0  0  0  0  0  0
  161.4410  204.1970  147.8620 C   0  0  0  0  0  2  0  0  0  0  0  0
  159.4570  211.0270  153.2820 C   0  0  0  0  0  2  0  0  0  0  0  0
  158.8580  211.9590  154.2240 N   0  0  0  0  0  0  0  0  0  0  0  0
  157.4370  211.9550  154.4010 C   0  0  0  0  0  0  0  0  0  0  0  0
  156.2030  212.6070  154.3180 C   0  0  0  0  0  2  0  0  0  0  0  0
  156.2130  211.2910  154.7890 C   0  0  0  0  0  0  0  0  0  0  0  0
  155.5470  210.1730  155.2690 O   0  0  0  0  0  1  0  0  0  0  0  0
  160.2860  214.3640  156.6980 O   0  0  0  0  0  0  0  0  0  0  0  0
  159.6780  212.9260  154.8290 N   0  0  0  0  0  2  0  0  0  0  0  0
  159.2230  212.3690  157.0550 O   0  0  0  0  0  1  0  0  0  0  0  0
  159.6900  213.2000  156.2330 C   0  0  0  0  0  0  0  0  0  0  0  0
  161.8080  205.3180  152.7600 C   0  0  0  0  0  2  0  0  0  0  0  0
  160.7140  204.3260  152.3790 C   0  0  0  0  0  2  0  0  0  0  0  0
  160.7950  202.4410  150.7430 C   0  0  0  0  0  1  0  0  0  0  0  0
  161.2770  202.9410  152.0920 C   0  0  0  0  0  2  0  0  0  0  0  0
  1  2  1  0  0  0  0
  2  8  1  0  0  0  0
  2  6  1  0  0  0  0
  3  1  2  0  0  0  0
  3  4  1  0  0  0  0
  4 29  1  0  0  0  0
  4  8  2  0  0  0  0
  6  7  2  0  0  0  0
  8  5  1  0  0  0  0
  9  3  1  0  0  0  0
 10  9  2  0  0  0  0
 11 18  1  0  0  0  0
 12  9  1  0  0  0  0
 13 14  1  0  0  0  0
 14 15  2  0  0  0  0
 14 16  1  0  0  0  0
 15 10  1  0  0  0  0
 16 12  2  0  0  0  0
 17 13  1  0  0  0  0
 17 11  1  0  0  0  0
 18 16  1  0  0  0  0
 19  6  1  0  0  0  0
 19 20  1  0  0  0  0
 20 21  1  0  0  0  0
 20 26  1  0  0  0  0
 21 23  2  0  0  0  0
 22 21  1  0  0  0  0
 22 23  1  0  0  0  0
 23 24  1  0  0  0  0
 26 28  1  0  0  0  0
 28 25  2  0  0  0  0
 28 27  1  0  0  0  0
 30 29  1  0  0  0  0
 31 32  1  0  0  0  0
 32 30  1  0  0  0  0
M  END
>  <MODEL>
4

>  <REMARK>
 VINA RESULT:      -8.2      4.219      6.192
  Name = 
  8 active torsions:
  status: ('A' for Active; 'I' for Inactive)
    1  A    between atoms: C_2  and  C_5
    2  A    between atoms: C_3  and  N_20
    3  A    between atoms: C_13  and  C_18
    4  A    between atoms: C_13  and  C_29
    5  A    between atoms: C_14  and  C_18
    6  A    between atoms: N_15  and  N_20
    7  A    between atoms: C_16  and  N_20
    8  A    between atoms: C_16  and  C_24
                            x       y       z     vdW  Elec       q    Type
                         _______ _______ _______ _____ _____    ______ ____

>  <TORSDO>
F 8

$$$$
=
 OpenBabel11062408313D

 32 35  0  0  0  0  0  0  0  0999 V2000
  161.6520  208.4800  148.5220 N   0  0  0  0  0  0  0  0  0  0  0  0
  161.8160  209.5700  149.2570 N   0  0  0  0  0  0  0  0  0  0  0  0
  161.7400  207.4030  149.3340 C   0  0  0  0  0  0  0  0  0  0  0  0
  161.9790  207.8380  150.6330 C   0  0  0  0  0  0  0  0  0  0  0  0
  162.2370  210.1550  151.6850 C   0  0  0  0  0  1  0  0  0  0  0  0
  161.7740  210.8980  148.7070 C   0  0  0  0  0  0  0  0  0  0  0  0
  161.9920  211.9030  149.4330 O   0  0  0  0  0  0  0  0  0  0  0  0
  162.0160  209.2140  150.5450 C   0  0  0  0  0  0  0  0  0  0  0  0
  161.6070  206.0140  148.8460 C   0  0  0  0  0  0  0  0  0  0  0  0
  161.8140  205.6900  147.4960 C   0  0  0  0  0  3  0  0  0  0  0  0
  160.1030  201.4070  149.5900 C   0  0  0  0  0  2  0  0  0  0  0  0
  161.2530  204.9970  149.7450 C   0  0  0  0  0  3  0  0  0  0  0  0
  161.1630  202.0480  147.5000 O   0  0  0  0  0  0  0  0  0  0  0  0
  161.3230  203.3640  147.9500 C   0  0  0  0  0  0  0  0  0  0  0  0
  161.6730  204.3720  147.0500 C   0  0  0  0  0  3  0  0  0  0  0  0
  161.1020  203.6800  149.3030 C   0  0  0  0  0  0  0  0  0  0  0  0
  160.9660  200.9630  148.4080 C   0  0  0  0  0  2  0  0  0  0  0  0
  160.7650  202.5970  150.2860 C   0  0  0  0  0  2  0  0  0  0  0  0
  161.4230  211.1010  147.2690 C   0  0  0  0  0  2  0  0  0  0  0  0
  160.8320  212.4170  147.0810 N   0  0  0  0  0  0  0  0  0  0  0  0
  161.5600  213.4120  146.3540 C   0  0  0  0  0  0  0  0  0  0  0  0
  162.4940  214.4520  146.3240 C   0  0  0  0  0  2  0  0  0  0  0  0
  161.8840  214.0920  145.1200 C   0  0  0  0  0  0  0  0  0  0  0  0
  161.7160  214.2560  143.7520 O   0  0  0  0  0  1  0  0  0  0  0  0
  157.3140  213.4830  147.7410 O   0  0  0  0  0  1  0  0  0  0  0  0
  159.6240  212.7130  147.7360 N   0  0  0  0  0  2  0  0  0  0  0  0
  158.2040  212.4690  145.8920 O   0  0  0  0  0  0  0  0  0  0  0  0
  158.3730  212.8930  147.0650 C   0  0  0  0  0  0  0  0  0  0  0  0
  162.1260  207.0240  151.8800 C   0  0  0  0  0  2  0  0  0  0  0  0
  160.8520  207.0570  152.7170 C   0  0  0  0  0  2  0  0  0  0  0  0
  161.1630  207.7640  155.0920 C   0  0  0  0  0  1  0  0  0  0  0  0
  161.0960  206.5820  154.1440 C   0  0  0  0  0  2  0  0  0  0  0  0
  1  2  1  0  0  0  0
  1  3  2  0  0  0  0
  2  8  1  0  0  0  0
  3  4  1  0  0  0  0
  4 29  1  0  0  0  0
  6  2  1  0  0  0  0
  6  7  2  0  0  0  0
  8  4  2  0  0  0  0
  8  5  1  0  0  0  0
  9  3  1  0  0  0  0
  9 12  1  0  0  0  0
 10  9  2  0  0  0  0
 11 18  1  0  0  0  0
 13 14  1  0  0  0  0
 13 17  1  0  0  0  0
 14 16  1  0  0  0  0
 15 10  1  0  0  0  0
 15 14  2  0  0  0  0
 16 12  2  0  0  0  0
 16 18  1  0  0  0  0
 17 11  1  0  0  0  0
 19  6  1  0  0  0  0
 20 19  1  0  0  0  0
 20 26  1  0  0  0  0
 21 20  1  0  0  0  0
 22 21  1  0  0  0  0
 23 22  1  0  0  0  0
 23 21  2  0  0  0  0
 24 23  1  0  0  0  0
 27 28  2  0  0  0  0
 28 26  1  0  0  0  0
 28 25  1  0  0  0  0
 29 30  1  0  0  0  0
 30 32  1  0  0  0  0
 32 31  1  0  0  0  0
M  END
>  <MODEL>
5

>  <REMARK>
 VINA RESULT:      -8.1      1.214      2.451
  Name = 
  8 active torsions:
  status: ('A' for Active; 'I' for Inactive)
    1  A    between atoms: C_2  and  C_5
    2  A    between atoms: C_3  and  N_20
    3  A    between atoms: C_13  and  C_18
    4  A    between atoms: C_13  and  C_29
    5  A    between atoms: C_14  and  C_18
    6  A    between atoms: N_15  and  N_20
    7  A    between atoms: C_16  and  N_20
    8  A    between atoms: C_16  and  C_24
                            x       y       z     vdW  Elec       q    Type
                         _______ _______ _______ _____ _____    ______ ____

>  <TORSDO>
F 8

$$$$
=
 OpenBabel11062408313D

 32 35  0  0  0  0  0  0  0  0999 V2000
  161.6040  207.5630  151.0730 N   0  0  0  0  0  0  0  0  0  0  0  0
  161.7290  208.7750  150.5520 N   0  0  0  0  0  0  0  0  0  0  0  0
  161.3890  206.6880  150.0660 C   0  0  0  0  0  0  0  0  0  0  0  0
  161.3690  207.3840  148.8620 C   0  0  0  0  0  0  0  0  0  0  0  0
  161.6730  209.8510  148.2610 C   0  0  0  0  0  1  0  0  0  0  0  0
  161.9740  209.9460  151.3490 C   0  0  0  0  0  0  0  0  0  0  0  0
  162.0290  211.0870  150.8170 O   0  0  0  0  0  0  0  0  0  0  0  0
  161.5930  208.7000  149.2100 C   0  0  0  0  0  0  0  0  0  0  0  0
  161.2010  205.2380  150.2850 C   0  0  0  0  0  0  0  0  0  0  0  0
  161.1220  204.6980  151.5780 C   0  0  0  0  0  3  0  0  0  0  0  0
  161.2140  200.6660  148.5150 C   0  0  0  0  0  2  0  0  0  0  0  0
  161.1100  204.3780  149.1810 C   0  0  0  0  0  3  0  0  0  0  0  0
  160.7140  201.0930  150.8540 O   0  0  0  0  0  0  0  0  0  0  0  0
  160.8620  202.4730  150.6640 C   0  0  0  0  0  0  0  0  0  0  0  0
  160.9540  203.3230  151.7680 C   0  0  0  0  0  3  0  0  0  0  0  0
  160.9520  203.0020  149.3630 C   0  0  0  0  0  0  0  0  0  0  0  0
  160.4550  200.2100  149.7610 C   0  0  0  0  0  2  0  0  0  0  0  0
  160.8140  202.1020  148.1710 C   0  0  0  0  0  2  0  0  0  0  0  0
  162.2130  209.8160  152.8180 C   0  0  0  0  0  2  0  0  0  0  0  0
  160.9550  209.5830  153.5100 N   0  0  0  0  0  0  0  0  0  0  0  0
  160.8290  208.4400  154.3630 C   0  0  0  0  0  0  0  0  0  0  0  0
  160.8380  207.0530  154.5420 C   0  0  0  0  0  2  0  0  0  0  0  0
  160.6050  207.8520  155.6640 C   0  0  0  0  0  0  0  0  0  0  0  0
  160.3520  207.9880  157.0220 O   0  0  0  0  0  1  0  0  0  0  0  0
  158.1910  212.0730  153.8290 O   0  0  0  0  0  0  0  0  0  0  0  0
  159.8590  210.4100  153.2120 N   0  0  0  0  0  2  0  0  0  0  0  0
  160.2320  212.0250  154.8630 O   0  0  0  0  0  1  0  0  0  0  0  0
  159.4470  211.5150  154.0220 C   0  0  0  0  0  0  0  0  0  0  0  0
  161.1910  206.8510  147.4760 C   0  0  0  0  0  2  0  0  0  0  0  0
  162.4890  206.2560  146.9390 C   0  0  0  0  0  2  0  0  0  0  0  0
  161.8830  204.2820  145.5340 C   0  0  0  0  0  1  0  0  0  0  0  0
  162.3300  205.7320  145.5180 C   0  0  0  0  0  2  0  0  0  0  0  0
  2  1  1  0  0  0  0
  2  6  1  0  0  0  0
  3  9  1  0  0  0  0
  3  1  2  0  0  0  0
  4  8  2  0  0  0  0
  4  3  1  0  0  0  0
  5  8  1  0  0  0  0
  6 19  1  0  0  0  0
  7  6  2  0  0  0  0
  8  2  1  0  0  0  0
  9 10  1  0  0  0  0
 10 15  2  0  0  0  0
 11 17  1  0  0  0  0
 12 16  1  0  0  0  0
 12  9  2  0  0  0  0
 14 13  1  0  0  0  0
 14 15  1  0  0  0  0
 16 14  2  0  0  0  0
 17 13  1  0  0  0  0
 18 11  1  0  0  0  0
 18 16  1  0  0  0  0
 19 20  1  0  0  0  0
 20 21  1  0  0  0  0
 21 22  1  0  0  0  0
 21 23  2  0  0  0  0
 22 23  1  0  0  0  0
 23 24  1  0  0  0  0
 25 28  2  0  0  0  0
 26 20  1  0  0  0  0
 26 28  1  0  0  0  0
 28 27  1  0  0  0  0
 29  4  1  0  0  0  0
 30 29  1  0  0  0  0
 32 31  1  0  0  0  0
 32 30  1  0  0  0  0
M  END
>  <MODEL>
6

>  <REMARK>
 VINA RESULT:      -7.9      3.320      6.123
  Name = 
  8 active torsions:
  status: ('A' for Active; 'I' for Inactive)
    1  A    between atoms: C_2  and  C_5
    2  A    between atoms: C_3  and  N_20
    3  A    between atoms: C_13  and  C_18
    4  A    between atoms: C_13  and  C_29
    5  A    between atoms: C_14  and  C_18
    6  A    between atoms: N_15  and  N_20
    7  A    between atoms: C_16  and  N_20
    8  A    between atoms: C_16  and  C_24
                            x       y       z     vdW  Elec       q    Type
                         _______ _______ _______ _____ _____    ______ ____

>  <TORSDO>
F 8

$$$$
=
 OpenBabel11062408313D

 32 35  0  0  0  0  0  0  0  0999 V2000
  161.3530  208.3130  151.4990 N   0  0  0  0  0  0  0  0  0  0  0  0
  161.1140  208.2870  152.8020 N   0  0  0  0  0  0  0  0  0  0  0  0
  161.2240  207.0560  151.0190 C   0  0  0  0  0  0  0  0  0  0  0  0
  160.8990  206.2050  152.0690 C   0  0  0  0  0  0  0  0  0  0  0  0
  160.5050  206.5790  154.5680 C   0  0  0  0  0  1  0  0  0  0  0  0
  161.1600  209.4630  153.6280 C   0  0  0  0  0  0  0  0  0  0  0  0
  160.9830  209.3830  154.8730 O   0  0  0  0  0  0  0  0  0  0  0  0
  160.8340  207.0210  153.1800 C   0  0  0  0  0  0  0  0  0  0  0  0
  161.4240  206.7150  149.5950 C   0  0  0  0  0  0  0  0  0  0  0  0
  161.6270  207.7090  148.6250 C   0  0  0  0  0  3  0  0  0  0  0  0
  161.2060  203.4120  145.9780 C   0  0  0  0  0  2  0  0  0  0  0  0
  161.3990  205.3700  149.1970 C   0  0  0  0  0  3  0  0  0  0  0  0
  161.9380  205.6870  145.5430 O   0  0  0  0  0  0  0  0  0  0  0  0
  161.7810  206.0270  146.8920 C   0  0  0  0  0  0  0  0  0  0  0  0
  161.8040  207.3680  147.2800 C   0  0  0  0  0  3  0  0  0  0  0  0
  161.5660  205.0230  147.8530 C   0  0  0  0  0  0  0  0  0  0  0  0
  162.0830  204.3290  145.1240 C   0  0  0  0  0  2  0  0  0  0  0  0
  161.5790  203.5770  147.4520 C   0  0  0  0  0  2  0  0  0  0  0  0
  161.3750  210.8060  153.0090 C   0  0  0  0  0  2  0  0  0  0  0  0
  160.1010  211.3770  152.6000 N   0  0  0  0  0  0  0  0  0  0  0  0
  160.0850  212.4120  151.6120 C   0  0  0  0  0  0  0  0  0  0  0  0
  159.6980  213.6910  151.2010 C   0  0  0  0  0  2  0  0  0  0  0  0
  160.4510  212.9230  150.3100 C   0  0  0  0  0  0  0  0  0  0  0  0
  161.0850  212.7640  149.0860 O   0  0  0  0  0  1  0  0  0  0  0  0
  157.4280  211.1070  155.1940 O   0  0  0  0  0  1  0  0  0  0  0  0
  158.9380  210.9900  153.2870 N   0  0  0  0  0  2  0  0  0  0  0  0
  158.6940  212.9160  154.5920 O   0  0  0  0  0  0  0  0  0  0  0  0
  158.3790  211.7150  154.3870 C   0  0  0  0  0  0  0  0  0  0  0  0
  160.6300  204.7340  152.0320 C   0  0  0  0  0  2  0  0  0  0  0  0
  161.8830  203.9500  151.6520 C   0  0  0  0  0  2  0  0  0  0  0  0
  160.8310  202.0160  150.4730 C   0  0  0  0  0  1  0  0  0  0  0  0
  161.6430  202.4460  151.6790 C   0  0  0  0  0  2  0  0  0  0  0  0
  1  2  1  0  0  0  0
  2  8  1  0  0  0  0
  2  6  1  0  0  0  0
  3  1  2  0  0  0  0
  3  4  1  0  0  0  0
  4  8  2  0  0  0  0
  6  7  2  0  0  0  0
  8  5  1  0  0  0  0
  9  3  1  0  0  0  0
 10  9  2  0  0  0  0
 11 18  1  0  0  0  0
 12  9  1  0  0  0  0
 13 14  1  0  0  0  0
 14 15  2  0  0  0  0
 14 16  1  0  0  0  0
 15 10  1  0  0  0  0
 16 12  2  0  0  0  0
 17 13  1  0  0  0  0
 17 11  1  0  0  0  0
 18 16  1  0  0  0  0
 19  6  1  0  0  0  0
 20 19  1  0  0  0  0
 20 26  1  0  0  0  0
 21 20  1  0  0  0  0
 22 21  1  0  0  0  0
 23 22  1  0  0  0  0
 23 21  2  0  0  0  0
 24 23  1  0  0  0  0
 26 28  1  0  0  0  0
 28 27  2  0  0  0  0
 28 25  1  0  0  0  0
 29  4  1  0  0  0  0
 30 32  1  0  0  0  0
 30 29  1  0  0  0  0
 31 32  1  0  0  0  0
M  END
>  <MODEL>
7

>  <REMARK>
 VINA RESULT:      -7.6      3.093      5.218
  Name = 
  8 active torsions:
  status: ('A' for Active; 'I' for Inactive)
    1  A    between atoms: C_2  and  C_5
    2  A    between atoms: C_3  and  N_20
    3  A    between atoms: C_13  and  C_18
    4  A    between atoms: C_13  and  C_29
    5  A    between atoms: C_14  and  C_18
    6  A    between atoms: N_15  and  N_20
    7  A    between atoms: C_16  and  N_20
    8  A    between atoms: C_16  and  C_24
                            x       y       z     vdW  Elec       q    Type
                         _______ _______ _______ _____ _____    ______ ____

>  <TORSDO>
F 8

$$$$
=
 OpenBabel11062408313D

 32 35  0  0  0  0  0  0  0  0999 V2000
  161.3710  208.2680  151.6260 N   0  0  0  0  0  0  0  0  0  0  0  0
  161.1300  208.2020  152.9280 N   0  0  0  0  0  0  0  0  0  0  0  0
  161.2290  207.0300  151.1050 C   0  0  0  0  0  0  0  0  0  0  0  0
  160.8950  206.1470  152.1260 C   0  0  0  0  0  0  0  0  0  0  0  0
  160.5020  206.4420  154.6360 C   0  0  0  0  0  1  0  0  0  0  0  0
  161.1870  209.3490  153.7930 C   0  0  0  0  0  0  0  0  0  0  0  0
  161.0080  209.2300  155.0340 O   0  0  0  0  0  0  0  0  0  0  0  0
  160.8370  206.9270  153.2630 C   0  0  0  0  0  0  0  0  0  0  0  0
  161.4270  206.7340  149.6700 C   0  0  0  0  0  0  0  0  0  0  0  0
  161.6270  207.7580  148.7320 C   0  0  0  0  0  3  0  0  0  0  0  0
  161.2070  203.5470  145.9510 C   0  0  0  0  0  2  0  0  0  0  0  0
  161.4030  205.4020  149.2300 C   0  0  0  0  0  3  0  0  0  0  0  0
  161.9350  205.8360  145.5860 O   0  0  0  0  0  0  0  0  0  0  0  0
  161.7800  206.1330  146.9460 C   0  0  0  0  0  0  0  0  0  0  0  0
  161.8020  207.4610  147.3760 C   0  0  0  0  0  3  0  0  0  0  0  0
  161.5680  205.0980  147.8760 C   0  0  0  0  0  0  0  0  0  0  0  0
  162.0800  204.4920  145.1240 C   0  0  0  0  0  2  0  0  0  0  0  0
  161.5830  203.6660  147.4290 C   0  0  0  0  0  2  0  0  0  0  0  0
  161.4160  210.7100  153.2180 C   0  0  0  0  0  2  0  0  0  0  0  0
  160.1900  211.4900  153.2790 N   0  0  0  0  0  0  0  0  0  0  0  0
  159.6940  211.9130  154.5540 C   0  0  0  0  0  0  0  0  0  0  0  0
  159.8760  212.5940  155.7610 C   0  0  0  0  0  2  0  0  0  0  0  0
  158.6480  211.9630  155.5490 C   0  0  0  0  0  0  0  0  0  0  0  0
  157.3690  211.6320  155.9740 O   0  0  0  0  0  1  0  0  0  0  0  0
  157.9520  212.9880  150.6920 O   0  0  0  0  0  0  0  0  0  0  0  0
  159.4580  211.6870  152.0960 N   0  0  0  0  0  2  0  0  0  0  0  0
  159.3350  214.0220  152.1940 O   0  0  0  0  0  1  0  0  0  0  0  0
  158.9120  212.9470  151.6940 C   0  0  0  0  0  0  0  0  0  0  0  0
  160.6110  204.6810  152.0390 C   0  0  0  0  0  2  0  0  0  0  0  0
  161.8990  203.8720  151.9290 C   0  0  0  0  0  2  0  0  0  0  0  0
  160.8240  202.1270  150.5030 C   0  0  0  0  0  1  0  0  0  0  0  0
  161.6240  202.3830  151.7650 C   0  0  0  0  0  2  0  0  0  0  0  0
  1  2  1  0  0  0  0
  2  8  1  0  0  0  0
  2  6  1  0  0  0  0
  3  1  2  0  0  0  0
  3  4  1  0  0  0  0
  4  8  2  0  0  0  0
  6  7  2  0  0  0  0
  8  5  1  0  0  0  0
  9  3  1  0  0  0  0
 10  9  2  0  0  0  0
 11 18  1  0  0  0  0
 12  9  1  0  0  0  0
 13 14  1  0  0  0  0
 14 15  2  0  0  0  0
 14 16  1  0  0  0  0
 15 10  1  0  0  0  0
 16 12  2  0  0  0  0
 17 13  1  0  0  0  0
 17 11  1  0  0  0  0
 18 16  1  0  0  0  0
 19 20  1  0  0  0  0
 19  6  1  0  0  0  0
 20 21  1  0  0  0  0
 21 23  2  0  0  0  0
 21 22  1  0  0  0  0
 23 22  1  0  0  0  0
 23 24  1  0  0  0  0
 25 28  2  0  0  0  0
 26 20  1  0  0  0  0
 28 26  1  0  0  0  0
 28 27  1  0  0  0  0
 29  4  1  0  0  0  0
 30 29  1  0  0  0  0
 31 32  1  0  0  0  0
 32 30  1  0  0  0  0
M  END
>  <MODEL>
8

>  <REMARK>
 VINA RESULT:      -7.6      3.596      5.238
  Name = 
  8 active torsions:
  status: ('A' for Active; 'I' for Inactive)
    1  A    between atoms: C_2  and  C_5
    2  A    between atoms: C_3  and  N_20
    3  A    between atoms: C_13  and  C_18
    4  A    between atoms: C_13  and  C_29
    5  A    between atoms: C_14  and  C_18
    6  A    between atoms: N_15  and  N_20
    7  A    between atoms: C_16  and  N_20
    8  A    between atoms: C_16  and  C_24
                            x       y       z     vdW  Elec       q    Type
                         _______ _______ _______ _____ _____    ______ ____

>  <TORSDO>
F 8

$$$$
=
 OpenBabel11062408313D

 32 35  0  0  0  0  0  0  0  0999 V2000
  160.5880  207.9480  152.0470 N   0  0  0  0  0  0  0  0  0  0  0  0
  160.8760  209.2230  151.8300 N   0  0  0  0  0  0  0  0  0  0  0  0
  161.2190  207.2050  151.1110 C   0  0  0  0  0  0  0  0  0  0  0  0
  161.9260  208.0520  150.2650 C   0  0  0  0  0  0  0  0  0  0  0  0
  162.2410  210.5890  150.1910 C   0  0  0  0  0  1  0  0  0  0  0  0
  160.3720  210.2900  152.6510 C   0  0  0  0  0  0  0  0  0  0  0  0
  160.6260  211.4920  152.3730 O   0  0  0  0  0  0  0  0  0  0  0  0
  161.6890  209.3200  150.7540 C   0  0  0  0  0  0  0  0  0  0  0  0
  161.1160  205.7310  151.0510 C   0  0  0  0  0  0  0  0  0  0  0  0
  161.1590  204.9470  152.2140 C   0  0  0  0  0  3  0  0  0  0  0  0
  161.2180  201.5990  148.4150 C   0  0  0  0  0  2  0  0  0  0  0  0
  160.9860  205.0980  149.8060 C   0  0  0  0  0  3  0  0  0  0  0  0
  160.8710  201.5330  150.8180 O   0  0  0  0  0  0  0  0  0  0  0  0
  160.9390  202.9290  150.8960 C   0  0  0  0  0  0  0  0  0  0  0  0
  161.0710  203.5530  152.1380 C   0  0  0  0  0  3  0  0  0  0  0  0
  160.9070  203.7050  149.7230 C   0  0  0  0  0  0  0  0  0  0  0  0
  160.5750  200.8640  149.5910 C   0  0  0  0  0  2  0  0  0  0  0  0
  160.7260  203.0470  148.3870 C   0  0  0  0  0  2  0  0  0  0  0  0
  159.5750  209.9790  153.8760 C   0  0  0  0  0  2  0  0  0  0  0  0
  160.4600  209.5890  154.9620 N   0  0  0  0  0  0  0  0  0  0  0  0
  161.1650  210.6030  155.6860 C   0  0  0  0  0  0  0  0  0  0  0  0
  161.1820  211.8410  156.3350 C   0  0  0  0  0  2  0  0  0  0  0  0
  162.3740  211.1140  156.2910 C   0  0  0  0  0  0  0  0  0  0  0  0
  163.7200  210.9770  156.6020 O   0  0  0  0  0  1  0  0  0  0  0  0
  160.9670  206.2890  156.6360 O   0  0  0  0  0  0  0  0  0  0  0  0
  160.7000  208.2210  155.1780 N   0  0  0  0  0  2  0  0  0  0  0  0
  159.6280  208.0420  157.2500 O   0  0  0  0  0  1  0  0  0  0  0  0
  160.4170  207.5430  156.4050 C   0  0  0  0  0  0  0  0  0  0  0  0
  162.7960  207.6980  149.1000 C   0  0  0  0  0  2  0  0  0  0  0  0
  162.0170  207.7530  147.7900 C   0  0  0  0  0  2  0  0  0  0  0  0
  160.8640  206.1380  146.2730 C   0  0  0  0  0  1  0  0  0  0  0  0
  162.1620  206.4660  146.9880 C   0  0  0  0  0  2  0  0  0  0  0  0
  2  1  1  0  0  0  0
  2  6  1  0  0  0  0
  3  1  2  0  0  0  0
  4  8  2  0  0  0  0
  4  3  1  0  0  0  0
  5  8  1  0  0  0  0
  6 19  1  0  0  0  0
  7  6  2  0  0  0  0
  8  2  1  0  0  0  0
  9  3  1  0  0  0  0
  9 10  1  0  0  0  0
 11 17  1  0  0  0  0
 12  9  2  0  0  0  0
 13 14  1  0  0  0  0
 14 15  1  0  0  0  0
 15 10  2  0  0  0  0
 16 12  1  0  0  0  0
 16 14  2  0  0  0  0
 17 13  1  0  0  0  0
 18 11  1  0  0  0  0
 18 16  1  0  0  0  0
 19 20  1  0  0  0  0
 20 26  1  0  0  0  0
 20 21  1  0  0  0  0
 21 23  2  0  0  0  0
 21 22  1  0  0  0  0
 23 22  1  0  0  0  0
 23 24  1  0  0  0  0
 26 28  1  0  0  0  0
 28 25  2  0  0  0  0
 28 27  1  0  0  0  0
 29  4  1  0  0  0  0
 30 29  1  0  0  0  0
 31 32  1  0  0  0  0
 32 30  1  0  0  0  0
M  END
>  <MODEL>
9

>  <REMARK>
 VINA RESULT:      -7.5      3.850      6.753
  Name = 
  8 active torsions:
  status: ('A' for Active; 'I' for Inactive)
    1  A    between atoms: C_2  and  C_5
    2  A    between atoms: C_3  and  N_20
    3  A    between atoms: C_13  and  C_18
    4  A    between atoms: C_13  and  C_29
    5  A    between atoms: C_14  and  C_18
    6  A    between atoms: N_15  and  N_20
    7  A    between atoms: C_16  and  N_20
    8  A    between atoms: C_16  and  C_24
                            x       y       z     vdW  Elec       q    Type
                         _______ _______ _______ _____ _____    ______ ____

>  <TORSDO>
F 8

$$$$
