=
 OpenBabel11062407523D

 34 40  0  0  1  0  0  0  0  0999 V2000
  161.6050  208.7590  148.8060 C   0  0  0  0  0  0  0  0  0  0  0  0
  162.4040  209.8960  150.7820 C   0  0  0  0  0  0  0  0  0  0  0  0
  161.8820  207.4540  150.8560 C   0  0  0  0  0  0  0  0  0  0  0  0
  161.8640  206.0830  153.0830 C   0  0  1  0  0  0  0  0  0  0  0  0
  162.0730  211.0590  148.7320 N   0  0  0  0  0  0  0  0  0  0  0  0
  162.4470  211.0710  150.0360 C   0  0  0  0  0  3  0  0  0  0  0  0
  160.8350  207.2810  153.0600 C   0  0  2  0  0  0  0  0  0  0  0  0
  161.9680  208.6990  150.1730 C   0  0  0  0  0  0  0  0  0  0  0  0
  160.6680  206.1020  153.9750 C   0  0  0  0  0  2  0  0  0  0  0  0
  161.6680  209.9380  148.1360 N   0  0  0  0  0  0  0  0  0  0  0  0
  161.4980  206.2990  150.1520 C   0  0  0  0  0  0  0  0  0  0  0  0
  161.1850  207.6150  148.1350 C   0  0  0  0  0  3  0  0  0  0  0  0
  162.8170  209.9470  152.0720 F   0  0  0  0  0  0  0  0  0  0  0  0
  161.5990  204.9730  152.1580 N   0  0  0  0  0  0  0  0  0  0  0  0
  161.4320  205.0030  150.8670 C   0  0  0  0  0  0  0  0  0  0  0  0
  162.1620  207.3670  152.3360 C   0  0  2  0  0  3  0  0  0  0  0  0
  161.1330  206.3970  148.8040 C   0  0  0  0  0  3  0  0  0  0  0  0
  161.0110  202.3890  148.1360 C   0  0  0  0  0  0  0  0  0  0  0  0
  160.7850  201.2390  148.8960 C   0  0  0  0  0  3  0  0  0  0  0  0
  161.1870  203.7130  150.1720 C   0  0  0  0  0  0  0  0  0  0  0  0
  160.7670  201.3180  150.2910 C   0  0  0  0  0  3  0  0  0  0  0  0
  161.2150  203.6180  148.7710 C   0  0  0  0  0  3  0  0  0  0  0  0
  160.9710  202.5470  150.9250 C   0  0  0  0  0  3  0  0  0  0  0  0
  161.0340  202.3120  146.7500 O   0  0  0  0  0  1  0  0  0  0  0  0
  160.9570  208.3410  154.0010 O   0  0  0  0  0  0  0  0  0  0  0  0
  160.7770  210.6200  154.3580 N   0  0  0  0  0  0  0  0  0  0  0  0
  160.3440  209.5620  153.8000 N   0  0  0  0  0  0  0  0  0  0  0  0
  159.5970  212.3020  151.8370 O   0  0  0  0  0  1  0  0  0  0  0  0
  160.1200  211.8980  154.1420 C   0  0  1  0  0  3  0  0  0  0  0  0
  159.0880  211.7500  153.0120 C   0  0  1  0  0  3  0  0  0  0  0  0
  157.3010  211.6000  154.3660 C   0  0  0  0  0  2  0  0  0  0  0  0
  158.0940  211.7380  155.6750 C   0  0  0  0  0  2  0  0  0  0  0  0
  159.4640  212.3860  155.4420 C   0  0  0  0  0  2  0  0  0  0  0  0
  157.8700  212.3740  153.3380 O   0  0  0  0  0  0  0  0  0  0  0  0
  1  8  1  0  0  0  0
  2 13  1  0  0  0  0
  4  9  1  1  0  0  0
  5  6  1  0  0  0  0
  6  2  2  0  0  0  0
  7  4  1  0  0  0  0
  7  9  1  0  0  0  0
  7 25  1  1  0  0  0
  8  2  1  0  0  0  0
  8  3  2  0  0  0  0
 10  5  2  0  0  0  0
 10  1  1  0  0  0  0
 11  3  1  0  0  0  0
 11 15  1  0  0  0  0
 12 17  1  0  0  0  0
 12  1  2  0  0  0  0
 14  4  1  0  0  0  0
 15 14  2  0  0  0  0
 16  3  1  6  0  0  0
 16  7  1  0  0  0  0
 16  4  1  0  0  0  0
 17 11  2  0  0  0  0
 18 22  2  0  0  0  0
 18 19  1  0  0  0  0
 19 21  2  0  0  0  0
 20 15  1  0  0  0  0
 20 23  2  0  0  0  0
 21 23  1  0  0  0  0
 22 20  1  0  0  0  0
 24 18  1  0  0  0  0
 27 25  1  0  0  0  0
 27 26  2  0  0  0  0
 29 26  1  1  0  0  0
 29 33  1  0  0  0  0
 30 28  1  6  0  0  0
 30 34  1  0  0  0  0
 30 29  1  0  0  0  0
 31 32  1  0  0  0  0
 33 32  1  0  0  0  0
 34 31  1  0  0  0  0
M  END
>  <MODEL>
1

>  <REMARK>
 VINA RESULT:     -10.0      0.000      0.000
  Name = 
  4 active torsions:
  status: ('A' for Active; 'I' for Inactive)
    1  A    between atoms: N_3  and  C_13
    2  A    between atoms: C_10  and  O_29
    3  A    between atoms: C_12  and  C_28
    4  A    between atoms: N_17  and  O_29
                            x       y       z     vdW  Elec       q    Type
                         _______ _______ _______ _____ _____    ______ ____

>  <TORSDO>
F 4

$$$$
=
 OpenBabel11062407523D

 34 40  0  0  1  0  0  0  0  0999 V2000
  161.5580  208.1170  148.6230 C   0  0  0  0  0  0  0  0  0  0  0  0
  162.2790  208.7060  150.8520 C   0  0  0  0  0  0  0  0  0  0  0  0
  161.8140  206.3230  150.2660 C   0  0  0  0  0  0  0  0  0  0  0  0
  161.7720  204.4140  152.0520 C   0  0  1  0  0  0  0  0  0  0  0  0
  161.9720  210.3630  149.1710 N   0  0  0  0  0  0  0  0  0  0  0  0
  162.3120  210.0370  150.4430 C   0  0  0  0  0  3  0  0  0  0  0  0
  160.7160  205.5580  152.3130 C   0  0  2  0  0  0  0  0  0  0  0  0
  161.8870  207.7050  149.9360 C   0  0  0  0  0  0  0  0  0  0  0  0
  160.5540  204.1770  152.8800 C   0  0  0  0  0  2  0  0  0  0  0  0
  161.6090  209.4320  148.2890 N   0  0  0  0  0  0  0  0  0  0  0  0
  161.4770  205.3880  149.2710 C   0  0  0  0  0  0  0  0  0  0  0  0
  161.1830  207.1830  147.6620 C   0  0  0  0  0  3  0  0  0  0  0  0
  162.6580  208.4220  152.1220 F   0  0  0  0  0  0  0  0  0  0  0  0
  161.5580  203.5820  150.8600 N   0  0  0  0  0  0  0  0  0  0  0  0
  161.4230  203.9490  149.6180 C   0  0  0  0  0  0  0  0  0  0  0  0
  162.0590  205.8530  151.6780 C   0  0  2  0  0  3  0  0  0  0  0  0
  161.1430  205.8320  147.9850 C   0  0  0  0  0  3  0  0  0  0  0  0
  160.8690  202.1750  146.3000 C   0  0  0  0  0  0  0  0  0  0  0  0
  160.9280  200.8360  146.6960 C   0  0  0  0  0  3  0  0  0  0  0  0
  161.2270  202.8840  148.6010 C   0  0  0  0  0  0  0  0  0  0  0  0
  161.1430  200.5160  148.0380 C   0  0  0  0  0  3  0  0  0  0  0  0
  161.0230  203.1910  147.2460 C   0  0  0  0  0  3  0  0  0  0  0  0
  161.2960  201.5340  148.9850 C   0  0  0  0  0  3  0  0  0  0  0  0
  160.6610  202.4940  144.9650 O   0  0  0  0  0  1  0  0  0  0  0  0
  160.7880  206.3340  153.5030 O   0  0  0  0  0  0  0  0  0  0  0  0
  160.5690  208.3760  154.5700 N   0  0  0  0  0  0  0  0  0  0  0  0
  160.5630  207.6970  153.4940 N   0  0  0  0  0  0  0  0  0  0  0  0
  158.3000  210.4310  155.6670 O   0  0  0  0  0  1  0  0  0  0  0  0
  160.3260  209.8090  154.5460 C   0  0  1  0  0  3  0  0  0  0  0  0
  159.6650  210.2300  155.8680 C   0  0  1  0  0  3  0  0  0  0  0  0
  161.5400  211.0470  156.7990 C   0  0  0  0  0  2  0  0  0  0  0  0
  162.4480  210.7420  155.5970 C   0  0  0  0  0  2  0  0  0  0  0  0
  161.6390  210.5690  154.3070 C   0  0  0  0  0  2  0  0  0  0  0  0
  160.2440  211.4040  156.3850 O   0  0  0  0  0  0  0  0  0  0  0  0
  1  8  1  0  0  0  0
  2 13  1  0  0  0  0
  4  7  1  0  0  0  0
  4  9  1  1  0  0  0
  5  6  2  0  0  0  0
  6  2  1  0  0  0  0
  7  9  1  0  0  0  0
  7 25  1  1  0  0  0
  8  3  1  0  0  0  0
  8  2  2  0  0  0  0
 10  1  2  0  0  0  0
 10  5  1  0  0  0  0
 11 15  1  0  0  0  0
 11  3  2  0  0  0  0
 12 17  2  0  0  0  0
 12  1  1  0  0  0  0
 14  4  1  0  0  0  0
 15 14  2  0  0  0  0
 16  3  1  6  0  0  0
 16  4  1  0  0  0  0
 16  7  1  0  0  0  0
 17 11  1  0  0  0  0
 18 19  2  0  0  0  0
 18 22  1  0  0  0  0
 19 21  1  0  0  0  0
 20 23  1  0  0  0  0
 20 15  1  0  0  0  0
 21 23  2  0  0  0  0
 22 20  2  0  0  0  0
 24 18  1  0  0  0  0
 27 25  1  0  0  0  0
 27 26  2  0  0  0  0
 29 26  1  1  0  0  0
 29 30  1  0  0  0  0
 30 28  1  6  0  0  0
 30 34  1  0  0  0  0
 32 31  1  0  0  0  0
 33 29  1  0  0  0  0
 33 32  1  0  0  0  0
 34 31  1  0  0  0  0
M  END
>  <MODEL>
2

>  <REMARK>
 VINA RESULT:      -8.8      1.781      2.297
  Name = 
  4 active torsions:
  status: ('A' for Active; 'I' for Inactive)
    1  A    between atoms: N_3  and  C_13
    2  A    between atoms: C_10  and  O_29
    3  A    between atoms: C_12  and  C_28
    4  A    between atoms: N_17  and  O_29
                            x       y       z     vdW  Elec       q    Type
                         _______ _______ _______ _____ _____    ______ ____

>  <TORSDO>
F 4

$$$$
=
 OpenBabel11062407523D

 34 40  0  0  1  0  0  0  0  0999 V2000
  160.8850  209.1800  153.4070 C   0  0  0  0  0  0  0  0  0  0  0  0
  161.4260  206.8390  153.1580 C   0  0  0  0  0  0  0  0  0  0  0  0
  161.6580  208.3990  151.2210 C   0  0  0  0  0  0  0  0  0  0  0  0
  162.1790  207.5690  148.7970 C   0  0  1  0  0  0  0  0  0  0  0  0
  160.6430  207.7160  155.2270 N   0  0  0  0  0  0  0  0  0  0  0  0
  161.0730  206.6600  154.4930 C   0  0  0  0  0  3  0  0  0  0  0  0
  160.8420  206.9850  149.3990 C   0  0  2  0  0  0  0  0  0  0  0  0
  161.3290  208.1230  152.5770 C   0  0  0  0  0  0  0  0  0  0  0  0
  161.0870  207.0570  147.9200 C   0  0  0  0  0  2  0  0  0  0  0  0
  160.5540  208.9380  154.7010 N   0  0  0  0  0  0  0  0  0  0  0  0
  161.5940  209.7210  150.7450 C   0  0  0  0  0  0  0  0  0  0  0  0
  160.7850  210.4750  152.9080 C   0  0  0  0  0  3  0  0  0  0  0  0
  161.8800  205.7620  152.4710 F   0  0  0  0  0  0  0  0  0  0  0  0
  162.2020  209.0140  148.5270 N   0  0  0  0  0  0  0  0  0  0  0  0
  161.9580  210.0030  149.3370 C   0  0  0  0  0  0  0  0  0  0  0  0
  162.0380  207.2850  150.2780 C   0  0  2  0  0  3  0  0  0  0  0  0
  161.1360  210.7410  151.5900 C   0  0  0  0  0  3  0  0  0  0  0  0
  161.1160  213.5810  148.3610 C   0  0  0  0  0  0  0  0  0  0  0  0
  162.3320  214.0070  147.8220 C   0  0  0  0  0  3  0  0  0  0  0  0
  162.0660  211.3820  148.7960 C   0  0  0  0  0  0  0  0  0  0  0  0
  163.4190  213.1300  147.7760 C   0  0  0  0  0  3  0  0  0  0  0  0
  160.9860  212.2780  148.8490 C   0  0  0  0  0  3  0  0  0  0  0  0
  163.2870  211.8270  148.2640 C   0  0  0  0  0  3  0  0  0  0  0  0
  160.0370  214.4530  148.4130 O   0  0  0  0  0  1  0  0  0  0  0  0
  160.6990  205.5820  149.5850 O   0  0  0  0  0  0  0  0  0  0  0  0
  160.8440  203.6740  148.2840 N   0  0  0  0  0  0  0  0  0  0  0  0
  161.4130  204.6750  148.8260 N   0  0  0  0  0  0  0  0  0  0  0  0
  161.3110  200.4560  148.2100 O   0  0  0  0  0  1  0  0  0  0  0  0
  161.6080  202.7240  147.4920 C   0  0  1  0  0  3  0  0  0  0  0  0
  160.8010  201.4240  147.3470 C   0  0  1  0  0  3  0  0  0  0  0  0
  160.0750  201.8500  145.2630 C   0  0  0  0  0  2  0  0  0  0  0  0
  160.7940  203.2020  145.1290 C   0  0  0  0  0  2  0  0  0  0  0  0
  161.9530  203.3280  146.1230 C   0  0  0  0  0  2  0  0  0  0  0  0
  160.8320  200.9410  146.0250 O   0  0  0  0  0  0  0  0  0  0  0  0
  1 10  2  0  0  0  0
  2  6  1  0  0  0  0
  3  8  1  0  0  0  0
  4  9  1  6  0  0  0
  4  7  1  0  0  0  0
  4 16  1  0  0  0  0
  6  5  2  0  0  0  0
  7 25  1  6  0  0  0
  7 16  1  0  0  0  0
  8  2  2  0  0  0  0
  8  1  1  0  0  0  0
  9  7  1  0  0  0  0
 10  5  1  0  0  0  0
 11  3  2  0  0  0  0
 11 17  1  0  0  0  0
 12  1  1  0  0  0  0
 13  2  1  0  0  0  0
 14  4  1  0  0  0  0
 14 15  2  0  0  0  0
 15 11  1  0  0  0  0
 16  3  1  1  0  0  0
 17 12  2  0  0  0  0
 18 24  1  0  0  0  0
 18 22  1  0  0  0  0
 19 18  2  0  0  0  0
 20 22  2  0  0  0  0
 20 15  1  0  0  0  0
 21 19  1  0  0  0  0
 21 23  2  0  0  0  0
 23 20  1  0  0  0  0
 26 27  2  0  0  0  0
 27 25  1  0  0  0  0
 29 26  1  1  0  0  0
 30 29  1  0  0  0  0
 30 28  1  1  0  0  0
 31 34  1  0  0  0  0
 32 31  1  0  0  0  0
 32 33  1  0  0  0  0
 33 29  1  0  0  0  0
 34 30  1  0  0  0  0
M  END
>  <MODEL>
3

>  <REMARK>
 VINA RESULT:      -8.2      2.567      8.705
  Name = 
  4 active torsions:
  status: ('A' for Active; 'I' for Inactive)
    1  A    between atoms: N_3  and  C_13
    2  A    between atoms: C_10  and  O_29
    3  A    between atoms: C_12  and  C_28
    4  A    between atoms: N_17  and  O_29
                            x       y       z     vdW  Elec       q    Type
                         _______ _______ _______ _____ _____    ______ ____

>  <TORSDO>
F 4

$$$$
=
 OpenBabel11062407523D

 34 40  0  0  1  0  0  0  0  0999 V2000
  160.9410  205.7080  153.3380 C   0  0  0  0  0  0  0  0  0  0  0  0
  162.1650  205.5150  151.2650 C   0  0  0  0  0  0  0  0  0  0  0  0
  161.9240  207.7350  152.3840 C   0  0  0  0  0  0  0  0  0  0  0  0
  162.6840  209.9710  151.2610 C   0  0  1  0  0  0  0  0  0  0  0  0
  161.1440  203.6210  152.2810 N   0  0  0  0  0  0  0  0  0  0  0  0
  161.8770  204.1530  151.2720 C   0  0  0  0  0  3  0  0  0  0  0  0
  161.5830  209.1860  150.4450 C   0  0  2  0  0  0  0  0  0  0  0  0
  161.6880  206.3340  152.3120 C   0  0  0  0  0  0  0  0  0  0  0  0
  161.8020  210.6620  150.2760 C   0  0  0  0  0  2  0  0  0  0  0  0
  160.6930  204.3750  153.2840 N   0  0  0  0  0  0  0  0  0  0  0  0
  161.4660  208.4610  153.4980 C   0  0  0  0  0  0  0  0  0  0  0  0
  160.4560  206.4490  154.4110 C   0  0  0  0  0  3  0  0  0  0  0  0
  162.9280  205.9980  150.2530 F   0  0  0  0  0  0  0  0  0  0  0  0
  162.2700  210.5250  152.5580 N   0  0  0  0  0  0  0  0  0  0  0  0
  161.7340  209.9160  153.5750 C   0  0  0  0  0  0  0  0  0  0  0  0
  162.6280  208.4570  151.2630 C   0  0  2  0  0  3  0  0  0  0  0  0
  160.7170  207.8130  154.4890 C   0  0  0  0  0  3  0  0  0  0  0  0
  160.0010  212.2930  155.9860 C   0  0  0  0  0  0  0  0  0  0  0  0
  160.8310  212.1960  157.1050 C   0  0  0  0  0  3  0  0  0  0  0  0
  161.4230  210.7270  154.7800 C   0  0  0  0  0  0  0  0  0  0  0  0
  161.9510  211.3620  157.0710 C   0  0  0  0  0  3  0  0  0  0  0  0
  160.2930  211.5590  154.8320 C   0  0  0  0  0  3  0  0  0  0  0  0
  162.2420  210.6290  155.9170 C   0  0  0  0  0  3  0  0  0  0  0  0
  158.8840  213.1180  156.0200 O   0  0  0  0  0  1  0  0  0  0  0  0
  161.8700  208.7160  149.1340 O   0  0  0  0  0  0  0  0  0  0  0  0
  161.6550  206.9240  147.6850 N   0  0  0  0  0  0  0  0  0  0  0  0
  161.1390  207.6990  148.5530 N   0  0  0  0  0  0  0  0  0  0  0  0
  160.0810  206.4170  144.8850 O   0  0  0  0  0  1  0  0  0  0  0  0
  160.8730  205.8600  147.0780 C   0  0  1  0  0  3  0  0  0  0  0  0
  161.1470  205.8320  145.5660 C   0  0  1  0  0  3  0  0  0  0  0  0
  162.5720  204.0960  145.6360 C   0  0  0  0  0  2  0  0  0  0  0  0
  162.4790  203.8880  147.1550 C   0  0  0  0  0  2  0  0  0  0  0  0
  161.2060  204.5130  147.7360 C   0  0  0  0  0  2  0  0  0  0  0  0
  161.3420  204.5190  145.1000 O   0  0  0  0  0  0  0  0  0  0  0  0
  1 12  1  0  0  0  0
  2  6  2  0  0  0  0
  2  8  1  0  0  0  0
  3 11  2  0  0  0  0
  4  9  1  6  0  0  0
  4 16  1  0  0  0  0
  4 14  1  0  0  0  0
  5 10  2  0  0  0  0
  6  5  1  0  0  0  0
  7 25  1  6  0  0  0
  7  4  1  0  0  0  0
  7 16  1  0  0  0  0
  8  3  1  0  0  0  0
  8  1  2  0  0  0  0
  9  7  1  0  0  0  0
 10  1  1  0  0  0  0
 11 15  1  0  0  0  0
 11 17  1  0  0  0  0
 12 17  2  0  0  0  0
 13  2  1  0  0  0  0
 14 15  2  0  0  0  0
 15 20  1  0  0  0  0
 16  3  1  1  0  0  0
 18 24  1  0  0  0  0
 18 19  1  0  0  0  0
 20 22  1  0  0  0  0
 20 23  2  0  0  0  0
 21 19  2  0  0  0  0
 22 18  2  0  0  0  0
 23 21  1  0  0  0  0
 26 27  2  0  0  0  0
 27 25  1  0  0  0  0
 29 26  1  1  0  0  0
 29 33  1  0  0  0  0
 30 28  1  6  0  0  0
 30 29  1  0  0  0  0
 31 32  1  0  0  0  0
 32 33  1  0  0  0  0
 34 30  1  0  0  0  0
 34 31  1  0  0  0  0
M  END
>  <MODEL>
4

>  <REMARK>
 VINA RESULT:      -7.5      2.325      8.416
  Name = 
  4 active torsions:
  status: ('A' for Active; 'I' for Inactive)
    1  A    between atoms: N_3  and  C_13
    2  A    between atoms: C_10  and  O_29
    3  A    between atoms: C_12  and  C_28
    4  A    between atoms: N_17  and  O_29
                            x       y       z     vdW  Elec       q    Type
                         _______ _______ _______ _____ _____    ______ ____

>  <TORSDO>
F 4

$$$$
=
 OpenBabel11062407523D

 34 40  0  0  1  0  0  0  0  0999 V2000
  161.0460  205.3660  149.5670 C   0  0  0  0  0  0  0  0  0  0  0  0
  162.4160  206.6520  148.0480 C   0  0  0  0  0  0  0  0  0  0  0  0
  161.8900  207.5330  150.3260 C   0  0  0  0  0  0  0  0  0  0  0  0
  162.5040  209.9620  151.0730 C   0  0  1  0  0  0  0  0  0  0  0  0
  161.5170  204.5390  147.4200 N   0  0  0  0  0  0  0  0  0  0  0  0
  162.2590  205.6320  147.1130 C   0  0  0  0  0  3  0  0  0  0  0  0
  161.5390  209.9010  149.8250 C   0  0  2  0  0  0  0  0  0  0  0  0
  161.7950  206.5400  149.3120 C   0  0  0  0  0  0  0  0  0  0  0  0
  161.6250  211.1120  150.7090 C   0  0  0  0  0  2  0  0  0  0  0  0
  160.9310  204.4100  148.6100 N   0  0  0  0  0  0  0  0  0  0  0  0
  161.2930  207.3080  151.5790 C   0  0  0  0  0  0  0  0  0  0  0  0
  160.4240  205.1790  150.7970 C   0  0  0  0  0  3  0  0  0  0  0  0
  163.1920  207.7100  147.7100 F   0  0  0  0  0  0  0  0  0  0  0  0
  161.9550  209.4880  152.3510 N   0  0  0  0  0  0  0  0  0  0  0  0
  161.4150  208.3390  152.6350 C   0  0  0  0  0  0  0  0  0  0  0  0
  162.5930  208.8410  150.0590 C   0  0  2  0  0  3  0  0  0  0  0  0
  160.5470  206.1410  151.7920 C   0  0  0  0  0  3  0  0  0  0  0  0
  160.1040  208.9630  156.1510 C   0  0  0  0  0  0  0  0  0  0  0  0
  160.0090  207.6580  156.6390 C   0  0  0  0  0  3  0  0  0  0  0  0
  160.9500  208.1200  154.0290 C   0  0  0  0  0  0  0  0  0  0  0  0
  160.3740  206.5820  155.8270 C   0  0  0  0  0  3  0  0  0  0  0  0
  160.5670  209.1920  154.8520 C   0  0  0  0  0  3  0  0  0  0  0  0
  160.8370  206.8110  154.5280 C   0  0  0  0  0  3  0  0  0  0  0  0
  159.7370  210.0330  156.9550 O   0  0  0  0  0  1  0  0  0  0  0  0
  161.9540  210.4440  148.5780 O   0  0  0  0  0  0  0  0  0  0  0  0
  161.6260  212.3240  147.2680 N   0  0  0  0  0  0  0  0  0  0  0  0
  161.1470  211.3020  147.8560 N   0  0  0  0  0  0  0  0  0  0  0  0
  159.8390  212.2010  144.5530 O   0  0  0  0  0  1  0  0  0  0  0  0
  160.7650  213.2210  146.5160 C   0  0  1  0  0  3  0  0  0  0  0  0
  159.6030  212.4160  145.9100 C   0  0  1  0  0  3  0  0  0  0  0  0
  158.0880  213.0250  147.4540 C   0  0  0  0  0  2  0  0  0  0  0  0
  159.0450  213.9180  148.2580 C   0  0  0  0  0  2  0  0  0  0  0  0
  160.2530  214.3510  147.4210 C   0  0  0  0  0  2  0  0  0  0  0  0
  158.3730  213.0770  146.0770 O   0  0  0  0  0  0  0  0  0  0  0  0
  1 12  1  0  0  0  0
  2  8  1  0  0  0  0
  3 11  2  0  0  0  0
  4  9  1  1  0  0  0
  4 14  1  0  0  0  0
  5 10  2  0  0  0  0
  6  5  1  0  0  0  0
  6  2  2  0  0  0  0
  7 25  1  6  0  0  0
  7 16  1  0  0  0  0
  7  9  1  0  0  0  0
  7  4  1  0  0  0  0
  8  1  2  0  0  0  0
  8  3  1  0  0  0  0
 10  1  1  0  0  0  0
 11 17  1  0  0  0  0
 11 15  1  0  0  0  0
 12 17  2  0  0  0  0
 13  2  1  0  0  0  0
 14 15  2  0  0  0  0
 15 20  1  0  0  0  0
 16  3  1  1  0  0  0
 16  4  1  0  0  0  0
 18 19  1  0  0  0  0
 18 24  1  0  0  0  0
 20 23  2  0  0  0  0
 20 22  1  0  0  0  0
 21 19  2  0  0  0  0
 22 18  2  0  0  0  0
 23 21  1  0  0  0  0
 26 27  2  0  0  0  0
 27 25  1  0  0  0  0
 29 26  1  1  0  0  0
 29 33  1  0  0  0  0
 30 28  1  6  0  0  0
 30 34  1  0  0  0  0
 30 29  1  0  0  0  0
 31 32  1  0  0  0  0
 33 32  1  0  0  0  0
 34 31  1  0  0  0  0
M  END
>  <MODEL>
5

>  <REMARK>
 VINA RESULT:      -7.1      3.282      6.441
  Name = 
  4 active torsions:
  status: ('A' for Active; 'I' for Inactive)
    1  A    between atoms: N_3  and  C_13
    2  A    between atoms: C_10  and  O_29
    3  A    between atoms: C_12  and  C_28
    4  A    between atoms: N_17  and  O_29
                            x       y       z     vdW  Elec       q    Type
                         _______ _______ _______ _____ _____    ______ ____

>  <TORSDO>
F 4

$$$$
