=
 OpenBabel11062408273D

 32 36  0  0  0  0  0  0  0  0999 V2000
  161.5330  207.1860  150.0390 C   0  0  0  0  0  0  0  0  0  0  0  0
  161.0340  207.7000  152.7350 C   0  0  0  0  0  0  0  0  0  0  0  0
  161.8290  206.8980  148.6990 C   0  0  0  0  0  3  0  0  0  0  0  0
  161.6210  208.5280  150.5100 C   0  0  0  0  0  0  0  0  0  0  0  0
  161.4260  210.0390  152.4030 N   0  0  0  0  0  0  0  0  0  0  0  0
  160.2200  207.1770  156.3310 C   0  0  0  0  0  3  0  0  0  0  0  0
  161.3590  208.7800  151.8810 C   0  0  0  0  0  0  0  0  0  0  0  0
  160.6240  209.5330  155.9370 C   0  0  0  0  0  3  0  0  0  0  0  0
  160.8670  209.2660  154.5870 C   0  0  0  0  0  0  0  0  0  0  0  0
  161.9780  209.5540  149.5870 C   0  0  0  0  0  0  0  0  0  0  0  0
  161.1890  210.3020  153.7140 C   0  0  0  0  0  3  0  0  0  0  0  0
  162.2540  209.2230  148.2540 C   0  0  0  0  0  3  0  0  0  0  0  0
  160.9590  206.4390  152.2380 N   0  0  0  0  0  0  0  0  0  0  0  0
  161.1790  206.1500  150.9300 C   0  0  0  0  0  0  0  0  0  0  0  0
  160.7870  207.9450  154.0960 C   0  0  0  0  0  0  0  0  0  0  0  0
  162.1840  207.9080  147.8110 C   0  0  0  0  0  3  0  0  0  0  0  0
  160.3000  208.4880  156.8080 C   0  0  0  0  0  3  0  0  0  0  0  0
  160.4610  206.9050  154.9800 C   0  0  0  0  0  3  0  0  0  0  0  0
  160.8340  202.3700  151.0030 C   0  0  0  0  0  0  0  0  0  0  0  0
  160.6960  201.3620  151.8980 F   0  0  0  0  0  0  0  0  0  0  0  0
  161.0620  204.7390  150.5060 C   0  0  0  0  0  0  0  0  0  0  0  0
  160.9000  202.0780  149.6380 C   0  0  0  0  0  3  0  0  0  0  0  0
  161.1440  204.4320  149.1420 C   0  0  0  0  0  3  0  0  0  0  0  0
  160.9220  203.6960  151.4420 C   0  0  0  0  0  0  0  0  0  0  0  0
  160.9080  203.9570  152.7740 F   0  0  0  0  0  0  0  0  0  0  0  0
  161.0590  203.1090  148.7000 C   0  0  0  0  0  0  0  0  0  0  0  0
  161.5790  203.8170  146.3880 C   0  0  0  0  0  1  0  0  0  0  0  0
  161.1370  202.8480  147.3290 O   0  0  0  0  0  0  0  0  0  0  0  0
  162.0680  210.9250  149.9950 N   0  0  0  0  0  2  0  0  0  0  0  0
  161.6800  212.0430  149.1470 C   0  0  0  0  0  2  0  0  0  0  0  0
  162.7980  212.5190  148.4650 O   0  0  0  0  0  0  0  0  0  0  0  0
  162.3310  212.8060  147.1840 C   0  0  0  0  0  1  0  0  0  0  0  0
  1  4  2  0  0  0  0
  1 14  1  0  0  0  0
  2 15  1  0  0  0  0
  3  1  1  0  0  0  0
  4  7  1  0  0  0  0
  5 11  2  0  0  0  0
  6 17  1  0  0  0  0
  7  5  1  0  0  0  0
  7  2  2  0  0  0  0
  8 17  2  0  0  0  0
  9  8  1  0  0  0  0
 10 29  1  0  0  0  0
 10  4  1  0  0  0  0
 11  9  1  0  0  0  0
 12 10  2  0  0  0  0
 13  2  1  0  0  0  0
 14 13  2  0  0  0  0
 15  9  2  0  0  0  0
 15 18  1  0  0  0  0
 16 12  1  0  0  0  0
 16  3  2  0  0  0  0
 18  6  2  0  0  0  0
 19 24  1  0  0  0  0
 19 20  1  0  0  0  0
 21 14  1  0  0  0  0
 21 24  2  0  0  0  0
 22 19  2  0  0  0  0
 23 21  1  0  0  0  0
 24 25  1  0  0  0  0
 26 23  2  0  0  0  0
 26 22  1  0  0  0  0
 27 28  1  0  0  0  0
 28 26  1  0  0  0  0
 30 29  1  0  0  0  0
 31 30  1  0  0  0  0
 32 31  1  0  0  0  0
M  END
>  <MODEL>
1

>  <REMARK>
 VINA RESULT:      -9.3      0.000      0.000
  Name = 
  5 active torsions:
  status: ('A' for Active; 'I' for Inactive)
    1  A    between atoms: O_13  and  C_18
    2  A    between atoms: C_14  and  N_29
    3  A    between atoms: O_15  and  C_26
    4  A    between atoms: C_16  and  C_27
    5  A    between atoms: C_18  and  N_29
                            x       y       z     vdW  Elec       q    Type
                         _______ _______ _______ _____ _____    ______ ____

>  <TORSDO>
F 5

$$$$
=
 OpenBabel11062408273D

 32 36  0  0  0  0  0  0  0  0999 V2000
  161.3180  205.1160  150.2200 C   0  0  0  0  0  0  0  0  0  0  0  0
  161.6390  207.8500  149.7710 C   0  0  0  0  0  0  0  0  0  0  0  0
  161.1050  203.7440  150.4210 C   0  0  0  0  0  3  0  0  0  0  0  0
  161.4170  205.9890  151.3420 C   0  0  0  0  0  0  0  0  0  0  0  0
  161.6870  208.2720  152.1270 N   0  0  0  0  0  0  0  0  0  0  0  0
  162.0070  211.1150  148.0180 C   0  0  0  0  0  3  0  0  0  0  0  0
  161.5860  207.3770  151.1030 C   0  0  0  0  0  0  0  0  0  0  0  0
  162.0520  211.4840  150.4120 C   0  0  0  0  0  3  0  0  0  0  0  0
  161.8960  210.1110  150.6270 C   0  0  0  0  0  0  0  0  0  0  0  0
  161.3300  205.4320  152.6510 C   0  0  0  0  0  0  0  0  0  0  0  0
  161.8400  209.6060  151.9230 C   0  0  0  0  0  3  0  0  0  0  0  0
  161.1290  204.0540  152.8060 C   0  0  0  0  0  3  0  0  0  0  0  0
  161.5440  206.9790  148.7350 N   0  0  0  0  0  0  0  0  0  0  0  0
  161.4030  205.6400  148.9110 C   0  0  0  0  0  0  0  0  0  0  0  0
  161.7940  209.2260  149.5320 C   0  0  0  0  0  0  0  0  0  0  0  0
  161.0140  203.2150  151.7040 C   0  0  0  0  0  3  0  0  0  0  0  0
  162.1080  211.9840  149.1080 C   0  0  0  0  0  3  0  0  0  0  0  0
  161.8520  209.7410  148.2280 C   0  0  0  0  0  3  0  0  0  0  0  0
  161.1050  204.5090  145.2990 C   0  0  0  0  0  0  0  0  0  0  0  0
  161.0010  205.0390  144.0570 F   0  0  0  0  0  0  0  0  0  0  0  0
  161.3160  204.7900  147.7050 C   0  0  0  0  0  0  0  0  0  0  0  0
  161.1000  203.1220  145.4620 C   0  0  0  0  0  3  0  0  0  0  0  0
  161.2920  203.3980  147.8560 C   0  0  0  0  0  3  0  0  0  0  0  0
  161.2050  205.3470  146.4160 C   0  0  0  0  0  0  0  0  0  0  0  0
  161.1560  206.6930  146.2440 F   0  0  0  0  0  0  0  0  0  0  0  0
  161.1900  202.5590  146.7440 C   0  0  0  0  0  0  0  0  0  0  0  0
  161.3170  200.5810  148.2240 C   0  0  0  0  0  1  0  0  0  0  0  0
  161.1790  201.1750  146.9400 O   0  0  0  0  0  0  0  0  0  0  0  0
  161.4380  206.2540  153.8190 N   0  0  0  0  0  2  0  0  0  0  0  0
  160.3180  206.5520  154.7000 C   0  0  0  0  0  2  0  0  0  0  0  0
  160.6710  207.5800  155.5710 O   0  0  0  0  0  0  0  0  0  0  0  0
  160.0630  207.2410  156.7780 C   0  0  0  0  0  1  0  0  0  0  0  0
  1  3  2  0  0  0  0
  1  4  1  0  0  0  0
  2  7  1  0  0  0  0
  3 16  1  0  0  0  0
  4 10  2  0  0  0  0
  6 18  2  0  0  0  0
  6 17  1  0  0  0  0
  7  4  1  0  0  0  0
  7  5  2  0  0  0  0
  8  9  1  0  0  0  0
  9 11  2  0  0  0  0
 10 12  1  0  0  0  0
 10 29  1  0  0  0  0
 11  5  1  0  0  0  0
 13 14  2  0  0  0  0
 13  2  1  0  0  0  0
 14  1  1  0  0  0  0
 15  2  2  0  0  0  0
 15  9  1  0  0  0  0
 16 12  2  0  0  0  0
 17  8  2  0  0  0  0
 18 15  1  0  0  0  0
 19 22  2  0  0  0  0
 19 24  1  0  0  0  0
 20 19  1  0  0  0  0
 21 23  1  0  0  0  0
 21 14  1  0  0  0  0
 22 26  1  0  0  0  0
 24 21  2  0  0  0  0
 25 24  1  0  0  0  0
 26 28  1  0  0  0  0
 26 23  2  0  0  0  0
 28 27  1  0  0  0  0
 29 30  1  0  0  0  0
 30 31  1  0  0  0  0
 31 32  1  0  0  0  0
M  END
>  <MODEL>
2

>  <REMARK>
 VINA RESULT:      -9.3      2.852      5.643
  Name = 
  5 active torsions:
  status: ('A' for Active; 'I' for Inactive)
    1  A    between atoms: O_13  and  C_18
    2  A    between atoms: C_14  and  N_29
    3  A    between atoms: O_15  and  C_26
    4  A    between atoms: C_16  and  C_27
    5  A    between atoms: C_18  and  N_29
                            x       y       z     vdW  Elec       q    Type
                         _______ _______ _______ _____ _____    ______ ____

>  <TORSDO>
F 5

$$$$
=
 OpenBabel11062408273D

 32 36  0  0  0  0  0  0  0  0999 V2000
  161.4000  209.6840  150.4600 C   0  0  0  0  0  0  0  0  0  0  0  0
  161.5190  207.3850  148.8860 C   0  0  0  0  0  0  0  0  0  0  0  0
  161.3940  210.8510  151.2380 C   0  0  0  0  0  3  0  0  0  0  0  0
  161.2600  208.4140  151.0890 C   0  0  0  0  0  0  0  0  0  0  0  0
  161.1910  206.0010  150.8120 N   0  0  0  0  0  0  0  0  0  0  0  0
  161.8510  205.1570  145.9200 C   0  0  0  0  0  3  0  0  0  0  0  0
  161.3160  207.2500  150.2790 C   0  0  0  0  0  0  0  0  0  0  0  0
  161.5140  203.8050  147.9020 C   0  0  0  0  0  3  0  0  0  0  0  0
  161.4500  204.9630  148.6820 C   0  0  0  0  0  0  0  0  0  0  0  0
  161.0820  208.3670  152.5030 C   0  0  0  0  0  0  0  0  0  0  0  0
  161.2510  204.8730  150.0570 C   0  0  0  0  0  3  0  0  0  0  0  0
  161.0700  209.5580  153.2400 C   0  0  0  0  0  3  0  0  0  0  0  0
  161.6430  208.6170  148.3320 N   0  0  0  0  0  0  0  0  0  0  0  0
  161.5750  209.7610  149.0610 C   0  0  0  0  0  0  0  0  0  0  0  0
  161.5870  206.2330  148.0830 C   0  0  0  0  0  0  0  0  0  0  0  0
  161.2280  210.7900  152.6170 C   0  0  0  0  0  3  0  0  0  0  0  0
  161.7140  203.9030  146.5230 C   0  0  0  0  0  3  0  0  0  0  0  0
  161.7880  206.3190  146.6960 C   0  0  0  0  0  3  0  0  0  0  0  0
  162.9330  213.0940  147.8510 C   0  0  0  0  0  0  0  0  0  0  0  0
  164.0130  213.8930  148.0250 F   0  0  0  0  0  0  0  0  0  0  0  0
  161.7180  211.0460  148.3440 C   0  0  0  0  0  0  0  0  0  0  0  0
  161.9050  213.4970  146.9970 C   0  0  0  0  0  3  0  0  0  0  0  0
  160.6860  211.4700  147.4990 C   0  0  0  0  0  3  0  0  0  0  0  0
  162.8420  211.8740  148.5330 C   0  0  0  0  0  0  0  0  0  0  0  0
  163.8260  211.5210  149.3980 F   0  0  0  0  0  0  0  0  0  0  0  0
  160.7720  212.6880  146.8190 C   0  0  0  0  0  0  0  0  0  0  0  0
  159.4020  212.3650  144.7850 C   0  0  0  0  0  1  0  0  0  0  0  0
  159.7230  213.0690  145.9780 O   0  0  0  0  0  0  0  0  0  0  0  0
  160.9190  207.1210  153.1920 N   0  0  0  0  0  2  0  0  0  0  0  0
  161.1380  206.9600  154.6220 C   0  0  0  0  0  2  0  0  0  0  0  0
  159.9130  206.9880  155.2860 O   0  0  0  0  0  0  0  0  0  0  0  0
  160.2300  207.3660  156.5890 C   0  0  0  0  0  1  0  0  0  0  0  0
  1  4  1  0  0  0  0
  1  3  2  0  0  0  0
  2  7  1  0  0  0  0
  3 16  1  0  0  0  0
  4 10  2  0  0  0  0
  6 17  1  0  0  0  0
  6 18  2  0  0  0  0
  7  5  2  0  0  0  0
  7  4  1  0  0  0  0
  8  9  1  0  0  0  0
  9 11  2  0  0  0  0
 10 29  1  0  0  0  0
 10 12  1  0  0  0  0
 11  5  1  0  0  0  0
 13  2  1  0  0  0  0
 13 14  2  0  0  0  0
 14  1  1  0  0  0  0
 15  9  1  0  0  0  0
 15  2  2  0  0  0  0
 16 12  2  0  0  0  0
 17  8  2  0  0  0  0
 18 15  1  0  0  0  0
 19 20  1  0  0  0  0
 19 24  1  0  0  0  0
 21 24  2  0  0  0  0
 21 14  1  0  0  0  0
 22 19  2  0  0  0  0
 23 21  1  0  0  0  0
 24 25  1  0  0  0  0
 26 22  1  0  0  0  0
 26 23  2  0  0  0  0
 27 28  1  0  0  0  0
 28 26  1  0  0  0  0
 29 30  1  0  0  0  0
 30 31  1  0  0  0  0
 31 32  1  0  0  0  0
M  END
>  <MODEL>
3

>  <REMARK>
 VINA RESULT:      -7.7      3.372      7.910
  Name = 
  5 active torsions:
  status: ('A' for Active; 'I' for Inactive)
    1  A    between atoms: O_13  and  C_18
    2  A    between atoms: C_14  and  N_29
    3  A    between atoms: O_15  and  C_26
    4  A    between atoms: C_16  and  C_27
    5  A    between atoms: C_18  and  N_29
                            x       y       z     vdW  Elec       q    Type
                         _______ _______ _______ _____ _____    ______ ____

>  <TORSDO>
F 5

$$$$
=
 OpenBabel11062408273D

 32 36  0  0  0  0  0  0  0  0999 V2000
  161.4920  207.4710  150.4120 C   0  0  0  0  0  0  0  0  0  0  0  0
  161.1590  204.7030  150.3330 C   0  0  0  0  0  0  0  0  0  0  0  0
  161.6050  208.8680  150.4660 C   0  0  0  0  0  3  0  0  0  0  0  0
  161.6350  206.7980  149.1650 C   0  0  0  0  0  0  0  0  0  0  0  0
  161.5900  204.6780  147.9780 N   0  0  0  0  0  0  0  0  0  0  0  0
  160.5030  201.1990  151.4130 C   0  0  0  0  0  3  0  0  0  0  0  0
  161.4690  205.3890  149.1370 C   0  0  0  0  0  0  0  0  0  0  0  0
  160.9490  201.2320  149.0320 C   0  0  0  0  0  3  0  0  0  0  0  0
  161.1200  202.6190  149.0820 C   0  0  0  0  0  0  0  0  0  0  0  0
  161.9240  207.5680  148.0010 C   0  0  0  0  0  0  0  0  0  0  0  0
  161.4270  203.3310  147.9260 C   0  0  0  0  0  3  0  0  0  0  0  0
  162.0410  208.9610  148.1030 C   0  0  0  0  0  3  0  0  0  0  0  0
  161.0370  205.3880  151.4980 N   0  0  0  0  0  0  0  0  0  0  0  0
  161.2070  206.7320  151.5810 C   0  0  0  0  0  0  0  0  0  0  0  0
  160.9820  203.3090  150.3050 C   0  0  0  0  0  0  0  0  0  0  0  0
  161.8800  209.6090  149.3220 C   0  0  0  0  0  3  0  0  0  0  0  0
  160.6420  200.5240  150.1970 C   0  0  0  0  0  3  0  0  0  0  0  0
  160.6730  202.5870  151.4680 C   0  0  0  0  0  3  0  0  0  0  0  0
  160.7530  207.2380  155.3170 C   0  0  0  0  0  0  0  0  0  0  0  0
  160.6210  206.5060  156.4490 F   0  0  0  0  0  0  0  0  0  0  0  0
  161.0540  207.3670  152.9080 C   0  0  0  0  0  0  0  0  0  0  0  0
  160.7140  208.6330  155.3860 C   0  0  0  0  0  3  0  0  0  0  0  0
  160.9960  208.7640  152.9890 C   0  0  0  0  0  3  0  0  0  0  0  0
  160.9140  206.6010  154.0810 C   0  0  0  0  0  0  0  0  0  0  0  0
  160.8980  205.2450  154.0250 F   0  0  0  0  0  0  0  0  0  0  0  0
  160.8320  209.4040  154.2200 C   0  0  0  0  0  0  0  0  0  0  0  0
  160.3760  211.5830  153.1440 C   0  0  0  0  0  1  0  0  0  0  0  0
  160.7880  210.8000  154.2560 O   0  0  0  0  0  0  0  0  0  0  0  0
  162.0960  206.9490  146.7200 N   0  0  0  0  0  2  0  0  0  0  0  0
  160.9880  206.5010  145.8900 C   0  0  0  0  0  2  0  0  0  0  0  0
  161.4850  205.8630  144.7550 O   0  0  0  0  0  0  0  0  0  0  0  0
  160.6530  204.7590  144.5810 C   0  0  0  0  0  1  0  0  0  0  0  0
  1  3  1  0  0  0  0
  1 14  1  0  0  0  0
  2 13  1  0  0  0  0
  4  1  2  0  0  0  0
  5  7  1  0  0  0  0
  6 18  1  0  0  0  0
  7  4  1  0  0  0  0
  7  2  2  0  0  0  0
  8  9  2  0  0  0  0
  8 17  1  0  0  0  0
  9 15  1  0  0  0  0
 10 12  2  0  0  0  0
 10  4  1  0  0  0  0
 11  5  2  0  0  0  0
 11  9  1  0  0  0  0
 12 16  1  0  0  0  0
 13 14  2  0  0  0  0
 14 21  1  0  0  0  0
 15  2  1  0  0  0  0
 15 18  2  0  0  0  0
 16  3  2  0  0  0  0
 17  6  2  0  0  0  0
 19 22  1  0  0  0  0
 19 20  1  0  0  0  0
 21 23  2  0  0  0  0
 21 24  1  0  0  0  0
 23 26  1  0  0  0  0
 24 19  2  0  0  0  0
 25 24  1  0  0  0  0
 26 28  1  0  0  0  0
 26 22  2  0  0  0  0
 27 28  1  0  0  0  0
 29 10  1  0  0  0  0
 30 29  1  0  0  0  0
 31 30  1  0  0  0  0
 32 31  1  0  0  0  0
M  END
>  <MODEL>
4

>  <REMARK>
 VINA RESULT:      -7.6      2.296      6.466
  Name = 
  5 active torsions:
  status: ('A' for Active; 'I' for Inactive)
    1  A    between atoms: O_13  and  C_18
    2  A    between atoms: C_14  and  N_29
    3  A    between atoms: O_15  and  C_26
    4  A    between atoms: C_16  and  C_27
    5  A    between atoms: C_18  and  N_29
                            x       y       z     vdW  Elec       q    Type
                         _______ _______ _______ _____ _____    ______ ____

>  <TORSDO>
F 5

$$$$
=
 OpenBabel11062408273D

 32 36  0  0  0  0  0  0  0  0999 V2000
  161.5310  208.5290  150.0320 C   0  0  0  0  0  0  0  0  0  0  0  0
  161.1540  208.6240  152.7930 C   0  0  0  0  0  0  0  0  0  0  0  0
  161.6690  208.5040  148.6360 C   0  0  0  0  0  3  0  0  0  0  0  0
  161.4720  207.3050  150.7580 C   0  0  0  0  0  0  0  0  0  0  0  0
  161.2190  206.2340  152.9250 N   0  0  0  0  0  0  0  0  0  0  0  0
  160.6270  209.9430  156.2360 C   0  0  0  0  0  3  0  0  0  0  0  0
  161.2860  207.3650  152.1640 C   0  0  0  0  0  0  0  0  0  0  0  0
  160.7030  207.5230  156.3110 C   0  0  0  0  0  3  0  0  0  0  0  0
  160.8970  207.4860  154.9260 C   0  0  0  0  0  0  0  0  0  0  0  0
  161.5900  206.0790  150.0430 C   0  0  0  0  0  0  0  0  0  0  0  0
  161.0320  206.2660  154.2690 C   0  0  0  0  0  3  0  0  0  0  0  0
  161.7380  206.1000  148.6490 C   0  0  0  0  0  3  0  0  0  0  0  0
  161.2210  209.7620  152.0590 N   0  0  0  0  0  0  0  0  0  0  0  0
  161.4190  209.7590  150.7160 C   0  0  0  0  0  0  0  0  0  0  0  0
  160.9580  208.6840  154.1840 C   0  0  0  0  0  0  0  0  0  0  0  0
  161.7750  207.3000  147.9490 C   0  0  0  0  0  3  0  0  0  0  0  0
  160.5690  208.7510  156.9640 C   0  0  0  0  0  3  0  0  0  0  0  0
  160.8220  209.9110  154.8510 C   0  0  0  0  0  3  0  0  0  0  0  0
  160.7970  213.3850  149.7730 C   0  0  0  0  0  0  0  0  0  0  0  0
  160.0790  214.4530  150.1960 F   0  0  0  0  0  0  0  0  0  0  0  0
  161.4800  211.0650  150.0240 C   0  0  0  0  0  0  0  0  0  0  0  0
  161.5980  213.4970  148.6350 C   0  0  0  0  0  3  0  0  0  0  0  0
  162.2660  211.1850  148.8710 C   0  0  0  0  0  3  0  0  0  0  0  0
  160.7280  212.1700  150.4660 C   0  0  0  0  0  0  0  0  0  0  0  0
  159.9050  212.0640  151.5400 F   0  0  0  0  0  0  0  0  0  0  0  0
  162.3350  212.3950  148.1750 C   0  0  0  0  0  0  0  0  0  0  0  0
  162.7700  213.2290  145.8880 C   0  0  0  0  0  1  0  0  0  0  0  0
  163.1380  212.4740  147.0340 O   0  0  0  0  0  0  0  0  0  0  0  0
  161.5550  204.8150  150.7180 N   0  0  0  0  0  2  0  0  0  0  0  0
  160.7040  203.7070  150.3070 C   0  0  0  0  0  2  0  0  0  0  0  0
  161.0390  202.5690  151.0360 O   0  0  0  0  0  0  0  0  0  0  0  0
  160.8240  201.5120  150.1530 C   0  0  0  0  0  1  0  0  0  0  0  0
  1 14  2  0  0  0  0
  1  4  1  0  0  0  0
  2 15  1  0  0  0  0
  3  1  1  0  0  0  0
  4  7  2  0  0  0  0
  5 11  2  0  0  0  0
  6 17  1  0  0  0  0
  7  2  1  0  0  0  0
  7  5  1  0  0  0  0
  8 17  2  0  0  0  0
  9  8  1  0  0  0  0
 10 29  1  0  0  0  0
 10  4  1  0  0  0  0
 11  9  1  0  0  0  0
 12 10  2  0  0  0  0
 13  2  2  0  0  0  0
 14 13  1  0  0  0  0
 15 18  1  0  0  0  0
 15  9  2  0  0  0  0
 16  3  2  0  0  0  0
 16 12  1  0  0  0  0
 18  6  2  0  0  0  0
 19 20  1  0  0  0  0
 19 24  1  0  0  0  0
 21 24  2  0  0  0  0
 21 14  1  0  0  0  0
 22 19  2  0  0  0  0
 23 21  1  0  0  0  0
 24 25  1  0  0  0  0
 26 22  1  0  0  0  0
 26 23  2  0  0  0  0
 27 28  1  0  0  0  0
 28 26  1  0  0  0  0
 30 29  1  0  0  0  0
 30 31  1  0  0  0  0
 32 31  1  0  0  0  0
M  END
>  <MODEL>
5

>  <REMARK>
 VINA RESULT:      -7.5      2.738      6.622
  Name = 
  5 active torsions:
  status: ('A' for Active; 'I' for Inactive)
    1  A    between atoms: O_13  and  C_18
    2  A    between atoms: C_14  and  N_29
    3  A    between atoms: O_15  and  C_26
    4  A    between atoms: C_16  and  C_27
    5  A    between atoms: C_18  and  N_29
                            x       y       z     vdW  Elec       q    Type
                         _______ _______ _______ _____ _____    ______ ____

>  <TORSDO>
F 5

$$$$
=
 OpenBabel11062408273D

 32 36  0  0  0  0  0  0  0  0999 V2000
  161.0870  209.4190  152.1000 C   0  0  0  0  0  0  0  0  0  0  0  0
  161.0990  206.8910  150.9210 C   0  0  0  0  0  0  0  0  0  0  0  0
  161.0260  210.6830  152.7040 C   0  0  0  0  0  3  0  0  0  0  0  0
  161.3450  209.3140  150.7030 C   0  0  0  0  0  0  0  0  0  0  0  0
  161.5930  207.8470  148.7820 N   0  0  0  0  0  0  0  0  0  0  0  0
  160.8510  203.2000  150.4940 C   0  0  0  0  0  3  0  0  0  0  0  0
  161.3550  208.0230  150.1140 C   0  0  0  0  0  0  0  0  0  0  0  0
  161.3530  204.2200  148.3550 C   0  0  0  0  0  3  0  0  0  0  0  0
  161.3500  205.4830  148.9560 C   0  0  0  0  0  0  0  0  0  0  0  0
  161.5690  210.5090  149.9580 C   0  0  0  0  0  0  0  0  0  0  0  0
  161.5980  206.6220  148.1950 C   0  0  0  0  0  3  0  0  0  0  0  0
  161.5100  211.7510  150.6040 C   0  0  0  0  0  3  0  0  0  0  0  0
  160.8620  207.0410  152.2490 N   0  0  0  0  0  0  0  0  0  0  0  0
  160.8640  208.2520  152.8630 C   0  0  0  0  0  0  0  0  0  0  0  0
  161.0960  205.6130  150.3380 C   0  0  0  0  0  0  0  0  0  0  0  0
  161.2380  211.8410  151.9640 C   0  0  0  0  0  3  0  0  0  0  0  0
  161.1040  203.0810  149.1240 C   0  0  0  0  0  3  0  0  0  0  0  0
  160.8470  204.4610  151.1000 C   0  0  0  0  0  3  0  0  0  0  0  0
  160.4260  207.2050  156.4870 C   0  0  0  0  0  0  0  0  0  0  0  0
  160.5290  206.0980  157.2610 F   0  0  0  0  0  0  0  0  0  0  0  0
  160.5990  208.2890  154.3170 C   0  0  0  0  0  0  0  0  0  0  0  0
  160.0290  208.4150  157.0590 C   0  0  0  0  0  3  0  0  0  0  0  0
  160.1840  209.4930  154.9000 C   0  0  0  0  0  3  0  0  0  0  0  0
  160.7040  207.1340  155.1160 C   0  0  0  0  0  0  0  0  0  0  0  0
  161.0370  205.9390  154.5660 F   0  0  0  0  0  0  0  0  0  0  0  0
  159.9030  209.5660  156.2670 C   0  0  0  0  0  0  0  0  0  0  0  0
  160.0840  212.0280  156.4270 C   0  0  0  0  0  1  0  0  0  0  0  0
  159.5000  210.7900  156.8100 O   0  0  0  0  0  0  0  0  0  0  0  0
  161.8490  210.4690  148.5530 N   0  0  0  0  0  2  0  0  0  0  0  0
  161.6990  211.6170  147.6710 C   0  0  0  0  0  2  0  0  0  0  0  0
  162.9160  212.2890  147.5710 O   0  0  0  0  0  0  0  0  0  0  0  0
  162.5670  213.6360  147.4990 C   0  0  0  0  0  1  0  0  0  0  0  0
  1  3  1  0  0  0  0
  1 14  1  0  0  0  0
  2 13  1  0  0  0  0
  4  1  2  0  0  0  0
  5  7  1  0  0  0  0
  6 18  1  0  0  0  0
  7  4  1  0  0  0  0
  7  2  2  0  0  0  0
  8  9  2  0  0  0  0
  8 17  1  0  0  0  0
  9 15  1  0  0  0  0
 10 12  2  0  0  0  0
 10  4  1  0  0  0  0
 11  5  2  0  0  0  0
 11  9  1  0  0  0  0
 12 16  1  0  0  0  0
 13 14  2  0  0  0  0
 14 21  1  0  0  0  0
 15  2  1  0  0  0  0
 15 18  2  0  0  0  0
 16  3  2  0  0  0  0
 17  6  2  0  0  0  0
 19 22  1  0  0  0  0
 19 20  1  0  0  0  0
 21 23  2  0  0  0  0
 21 24  1  0  0  0  0
 23 26  1  0  0  0  0
 24 19  2  0  0  0  0
 25 24  1  0  0  0  0
 26 28  1  0  0  0  0
 26 22  2  0  0  0  0
 27 28  1  0  0  0  0
 29 10  1  0  0  0  0
 30 29  1  0  0  0  0
 31 30  1  0  0  0  0
 32 31  1  0  0  0  0
M  END
>  <MODEL>
6

>  <REMARK>
 VINA RESULT:      -7.3      2.281      6.206
  Name = 
  5 active torsions:
  status: ('A' for Active; 'I' for Inactive)
    1  A    between atoms: O_13  and  C_18
    2  A    between atoms: C_14  and  N_29
    3  A    between atoms: O_15  and  C_26
    4  A    between atoms: C_16  and  C_27
    5  A    between atoms: C_18  and  N_29
                            x       y       z     vdW  Elec       q    Type
                         _______ _______ _______ _____ _____    ______ ____

>  <TORSDO>
F 5

$$$$
=
 OpenBabel11062408273D

 32 36  0  0  0  0  0  0  0  0999 V2000
  160.9680  210.2940  153.5200 C   0  0  0  0  0  0  0  0  0  0  0  0
  160.9920  207.9600  151.9920 C   0  0  0  0  0  0  0  0  0  0  0  0
  161.0010  211.4860  154.2580 C   0  0  0  0  0  3  0  0  0  0  0  0
  161.2520  209.0550  154.1640 C   0  0  0  0  0  0  0  0  0  0  0  0
  161.5190  206.6520  153.9270 N   0  0  0  0  0  0  0  0  0  0  0  0
  160.7730  205.6530  149.0770 C   0  0  0  0  0  3  0  0  0  0  0  0
  161.2550  207.8730  153.3790 C   0  0  0  0  0  0  0  0  0  0  0  0
  161.3040  204.3780  151.0670 C   0  0  0  0  0  3  0  0  0  0  0  0
  161.2840  205.5530  151.8260 C   0  0  0  0  0  0  0  0  0  0  0  0
  161.5300  209.0590  155.5620 C   0  0  0  0  0  0  0  0  0  0  0  0
  161.5380  205.5080  153.1940 C   0  0  0  0  0  3  0  0  0  0  0  0
  161.5400  210.2720  156.2630 C   0  0  0  0  0  3  0  0  0  0  0  0
  160.7240  209.1630  151.4250 N   0  0  0  0  0  0  0  0  0  0  0  0
  160.6870  210.3190  152.1360 C   0  0  0  0  0  0  0  0  0  0  0  0
  161.0080  206.7920  151.2110 C   0  0  0  0  0  0  0  0  0  0  0  0
  161.2820  211.4760  155.6200 C   0  0  0  0  0  3  0  0  0  0  0  0
  161.0480  204.4300  149.6940 C   0  0  0  0  0  3  0  0  0  0  0  0
  160.7520  206.8310  149.8310 C   0  0  0  0  0  3  0  0  0  0  0  0
  158.9950  213.5310  151.0240 C   0  0  0  0  0  0  0  0  0  0  0  0
  157.9290  214.3020  151.3480 F   0  0  0  0  0  0  0  0  0  0  0  0
  160.3770  211.5680  151.4090 C   0  0  0  0  0  0  0  0  0  0  0  0
  159.8140  213.8980  149.9540 C   0  0  0  0  0  3  0  0  0  0  0  0
  161.1810  211.9380  150.3230 C   0  0  0  0  0  3  0  0  0  0  0  0
  159.2660  212.3640  151.7480 C   0  0  0  0  0  0  0  0  0  0  0  0
  158.4300  211.9950  152.7520 F   0  0  0  0  0  0  0  0  0  0  0  0
  160.9120  213.1000  149.5960 C   0  0  0  0  0  0  0  0  0  0  0  0
  162.8730  212.6540  148.1560 C   0  0  0  0  0  1  0  0  0  0  0  0
  161.7450  213.4360  148.5250 O   0  0  0  0  0  0  0  0  0  0  0  0
  161.8060  207.8440  156.2700 N   0  0  0  0  0  2  0  0  0  0  0  0
  160.9080  207.2690  157.2610 C   0  0  0  0  0  2  0  0  0  0  0  0
  159.6160  207.7450  157.0480 O   0  0  0  0  0  0  0  0  0  0  0  0
  159.0440  206.8260  156.1710 C   0  0  0  0  0  1  0  0  0  0  0  0
  1  4  1  0  0  0  0
  1  3  2  0  0  0  0
  2  7  1  0  0  0  0
  3 16  1  0  0  0  0
  4 10  2  0  0  0  0
  6 17  1  0  0  0  0
  6 18  2  0  0  0  0
  7  5  2  0  0  0  0
  7  4  1  0  0  0  0
  8  9  1  0  0  0  0
  9 11  2  0  0  0  0
 10 12  1  0  0  0  0
 10 29  1  0  0  0  0
 11  5  1  0  0  0  0
 13  2  1  0  0  0  0
 13 14  2  0  0  0  0
 14  1  1  0  0  0  0
 15  9  1  0  0  0  0
 15  2  2  0  0  0  0
 16 12  2  0  0  0  0
 17  8  2  0  0  0  0
 18 15  1  0  0  0  0
 19 20  1  0  0  0  0
 19 24  1  0  0  0  0
 21 24  2  0  0  0  0
 21 14  1  0  0  0  0
 22 19  2  0  0  0  0
 23 21  1  0  0  0  0
 24 25  1  0  0  0  0
 26 22  1  0  0  0  0
 26 23  2  0  0  0  0
 27 28  1  0  0  0  0
 28 26  1  0  0  0  0
 29 30  1  0  0  0  0
 31 30  1  0  0  0  0
 32 31  1  0  0  0  0
M  END
>  <MODEL>
7

>  <REMARK>
 VINA RESULT:      -7.2      3.499      7.772
  Name = 
  5 active torsions:
  status: ('A' for Active; 'I' for Inactive)
    1  A    between atoms: O_13  and  C_18
    2  A    between atoms: C_14  and  N_29
    3  A    between atoms: O_15  and  C_26
    4  A    between atoms: C_16  and  C_27
    5  A    between atoms: C_18  and  N_29
                            x       y       z     vdW  Elec       q    Type
                         _______ _______ _______ _____ _____    ______ ____

>  <TORSDO>
F 5

$$$$
=
 OpenBabel11062408273D

 32 36  0  0  0  0  0  0  0  0999 V2000
  161.4340  206.9110  151.1090 C   0  0  0  0  0  0  0  0  0  0  0  0
  161.4450  209.4520  149.9610 C   0  0  0  0  0  0  0  0  0  0  0  0
  161.3800  205.6220  151.6590 C   0  0  0  0  0  3  0  0  0  0  0  0
  161.3060  208.0480  151.9580 C   0  0  0  0  0  0  0  0  0  0  0  0
  161.1990  210.4700  152.1140 N   0  0  0  0  0  0  0  0  0  0  0  0
  161.5670  212.1720  147.4190 C   0  0  0  0  0  3  0  0  0  0  0  0
  161.3190  209.3370  151.3640 C   0  0  0  0  0  0  0  0  0  0  0  0
  161.3200  213.1480  149.6230 C   0  0  0  0  0  3  0  0  0  0  0  0
  161.3210  211.8700  150.1900 C   0  0  0  0  0  0  0  0  0  0  0  0
  161.1580  207.8410  153.3600 C   0  0  0  0  0  0  0  0  0  0  0  0
  161.1990  211.7130  151.5670 C   0  0  0  0  0  3  0  0  0  0  0  0
  161.1210  206.5350  153.8690 C   0  0  0  0  0  3  0  0  0  0  0  0
  161.5690  208.3400  149.1940 N   0  0  0  0  0  0  0  0  0  0  0  0
  161.5840  207.0860  149.7160 C   0  0  0  0  0  0  0  0  0  0  0  0
  161.4460  210.7280  149.3700 C   0  0  0  0  0  0  0  0  0  0  0  0
  161.2280  205.4340  153.0280 C   0  0  0  0  0  3  0  0  0  0  0  0
  161.4440  213.2970  148.2390 C   0  0  0  0  0  3  0  0  0  0  0  0
  161.5690  210.8910  147.9810 C   0  0  0  0  0  3  0  0  0  0  0  0
  162.4290  205.0140  146.6480 C   0  0  0  0  0  0  0  0  0  0  0  0
  163.0050  205.1600  145.4310 F   0  0  0  0  0  0  0  0  0  0  0  0
  161.7300  205.9510  148.7800 C   0  0  0  0  0  0  0  0  0  0  0  0
  161.9270  203.7690  147.0310 C   0  0  0  0  0  3  0  0  0  0  0  0
  161.2150  204.7010  149.1460 C   0  0  0  0  0  3  0  0  0  0  0  0
  162.3260  206.1100  147.5150 C   0  0  0  0  0  0  0  0  0  0  0  0
  162.7730  207.3250  147.1060 F   0  0  0  0  0  0  0  0  0  0  0  0
  161.3130  203.6060  148.2830 C   0  0  0  0  0  0  0  0  0  0  0  0
  160.3880  202.1190  150.0290 C   0  0  0  0  0  1  0  0  0  0  0  0
  160.7940  202.3740  148.6910 O   0  0  0  0  0  0  0  0  0  0  0  0
  161.0410  208.9430  154.2680 N   0  0  0  0  0  2  0  0  0  0  0  0
  160.2910  208.8820  155.5140 C   0  0  0  0  0  2  0  0  0  0  0  0
  161.0310  209.4810  156.5320 O   0  0  0  0  0  0  0  0  0  0  0  0
  160.5500  210.7870  156.5910 C   0  0  0  0  0  1  0  0  0  0  0  0
  1  3  2  0  0  0  0
  1  4  1  0  0  0  0
  2  7  1  0  0  0  0
  3 16  1  0  0  0  0
  4 10  2  0  0  0  0
  6 18  2  0  0  0  0
  6 17  1  0  0  0  0
  7  4  1  0  0  0  0
  7  5  2  0  0  0  0
  8  9  1  0  0  0  0
  9 11  2  0  0  0  0
 10 12  1  0  0  0  0
 10 29  1  0  0  0  0
 11  5  1  0  0  0  0
 13 14  2  0  0  0  0
 13  2  1  0  0  0  0
 14  1  1  0  0  0  0
 15  2  2  0  0  0  0
 15  9  1  0  0  0  0
 16 12  2  0  0  0  0
 17  8  2  0  0  0  0
 18 15  1  0  0  0  0
 19 22  2  0  0  0  0
 19 24  1  0  0  0  0
 20 19  1  0  0  0  0
 21 23  1  0  0  0  0
 21 14  1  0  0  0  0
 22 26  1  0  0  0  0
 24 21  2  0  0  0  0
 25 24  1  0  0  0  0
 26 28  1  0  0  0  0
 26 23  2  0  0  0  0
 28 27  1  0  0  0  0
 29 30  1  0  0  0  0
 30 31  1  0  0  0  0
 31 32  1  0  0  0  0
M  END
>  <MODEL>
8

>  <REMARK>
 VINA RESULT:      -7.2      2.751      5.494
  Name = 
  5 active torsions:
  status: ('A' for Active; 'I' for Inactive)
    1  A    between atoms: O_13  and  C_18
    2  A    between atoms: C_14  and  N_29
    3  A    between atoms: O_15  and  C_26
    4  A    between atoms: C_16  and  C_27
    5  A    between atoms: C_18  and  N_29
                            x       y       z     vdW  Elec       q    Type
                         _______ _______ _______ _____ _____    ______ ____

>  <TORSDO>
F 5

$$$$
=
 OpenBabel11062408273D

 32 36  0  0  0  0  0  0  0  0999 V2000
  160.7520  208.7350  153.1800 C   0  0  0  0  0  0  0  0  0  0  0  0
  161.2890  210.2750  150.9170 C   0  0  0  0  0  0  0  0  0  0  0  0
  160.5230  207.9890  154.3450 C   0  0  0  0  0  3  0  0  0  0  0  0
  161.2560  208.0890  152.0140 C   0  0  0  0  0  0  0  0  0  0  0  0
  162.0040  208.3320  149.7150 N   0  0  0  0  0  0  0  0  0  0  0  0
  161.6270  213.2100  148.6500 C   0  0  0  0  0  3  0  0  0  0  0  0
  161.5200  208.8810  150.8660 C   0  0  0  0  0  0  0  0  0  0  0  0
  162.3370  211.2110  147.4810 C   0  0  0  0  0  3  0  0  0  0  0  0
  162.0600  210.4460  148.6180 C   0  0  0  0  0  0  0  0  0  0  0  0
  161.4830  206.6830  152.0560 C   0  0  0  0  0  0  0  0  0  0  0  0
  162.2730  209.0710  148.6080 C   0  0  0  0  0  3  0  0  0  0  0  0
  161.2290  205.9740  153.2370 C   0  0  0  0  0  3  0  0  0  0  0  0
  160.8040  210.8440  152.0500 N   0  0  0  0  0  0  0  0  0  0  0  0
  160.5150  210.1270  153.1660 C   0  0  0  0  0  0  0  0  0  0  0  0
  161.5620  211.0620  149.7850 C   0  0  0  0  0  0  0  0  0  0  0  0
  160.7560  206.6180  154.3740 C   0  0  0  0  0  3  0  0  0  0  0  0
  162.1200  212.5910  147.4980 C   0  0  0  0  0  3  0  0  0  0  0  0
  161.3480  212.4500  149.7900 C   0  0  0  0  0  3  0  0  0  0  0  0
  160.3050  212.1540  156.3700 C   0  0  0  0  0  0  0  0  0  0  0  0
  161.1220  212.7650  157.2610 F   0  0  0  0  0  0  0  0  0  0  0  0
  159.9860  210.8580  154.3380 C   0  0  0  0  0  0  0  0  0  0  0  0
  158.9220  212.1800  156.5690 C   0  0  0  0  0  3  0  0  0  0  0  0
  158.6040  210.8770  154.5580 C   0  0  0  0  0  3  0  0  0  0  0  0
  160.8420  211.4880  155.2620 C   0  0  0  0  0  0  0  0  0  0  0  0
  162.1900  211.4280  155.1120 F   0  0  0  0  0  0  0  0  0  0  0  0
  158.0640  211.5380  155.6640 C   0  0  0  0  0  0  0  0  0  0  0  0
  155.8190  210.6230  155.1740 C   0  0  0  0  0  1  0  0  0  0  0  0
  156.6770  211.5390  155.8410 O   0  0  0  0  0  0  0  0  0  0  0  0
  161.9730  205.9730  150.9110 N   0  0  0  0  0  2  0  0  0  0  0  0
  161.2740  204.8510  150.3020 C   0  0  0  0  0  2  0  0  0  0  0  0
  160.4630  205.3130  149.2680 O   0  0  0  0  0  0  0  0  0  0  0  0
  161.2260  205.1310  148.1170 C   0  0  0  0  0  1  0  0  0  0  0  0
  1  3  2  0  0  0  0
  2 13  1  0  0  0  0
  3 16  1  0  0  0  0
  4 10  2  0  0  0  0
  4  1  1  0  0  0  0
  5  7  2  0  0  0  0
  6 18  2  0  0  0  0
  7  2  1  0  0  0  0
  7  4  1  0  0  0  0
  8 17  2  0  0  0  0
  8  9  1  0  0  0  0
  9 15  1  0  0  0  0
 10 12  1  0  0  0  0
 11  9  2  0  0  0  0
 11  5  1  0  0  0  0
 12 16  2  0  0  0  0
 13 14  2  0  0  0  0
 14  1  1  0  0  0  0
 14 21  1  0  0  0  0
 15 18  1  0  0  0  0
 15  2  2  0  0  0  0
 17  6  1  0  0  0  0
 19 22  1  0  0  0  0
 19 20  1  0  0  0  0
 21 23  2  0  0  0  0
 21 24  1  0  0  0  0
 23 26  1  0  0  0  0
 24 19  2  0  0  0  0
 25 24  1  0  0  0  0
 26 28  1  0  0  0  0
 26 22  2  0  0  0  0
 27 28  1  0  0  0  0
 29 10  1  0  0  0  0
 30 29  1  0  0  0  0
 31 30  1  0  0  0  0
 32 31  1  0  0  0  0
M  END
>  <MODEL>
9

>  <REMARK>
 VINA RESULT:      -7.2      3.367      7.913
  Name = 
  5 active torsions:
  status: ('A' for Active; 'I' for Inactive)
    1  A    between atoms: O_13  and  C_18
    2  A    between atoms: C_14  and  N_29
    3  A    between atoms: O_15  and  C_26
    4  A    between atoms: C_16  and  C_27
    5  A    between atoms: C_18  and  N_29
                            x       y       z     vdW  Elec       q    Type
                         _______ _______ _______ _____ _____    ______ ____

>  <TORSDO>
F 5

$$$$
