=
 OpenBabel11052421443D

 30 35  0  0  1  0  0  0  0  0999 V2000
  160.5690  209.3410  151.4510 C   0  0  1  0  0  3  0  0  0  0  0  0
  160.7860  206.8580  150.7140 C   0  0  2  0  0  3  0  0  0  0  0  0
  161.6260  207.8200  154.1460 C   0  0  1  0  0  3  0  0  0  0  0  0
  160.5160  210.3510  152.6590 C   0  0  1  0  0  3  0  0  0  0  0  0
  161.5000  209.8780  150.3400 C   0  0  0  0  0  2  0  0  0  0  0  0
  160.8920  213.4640  150.5230 N   0  0  0  0  0  0  0  0  0  0  0  0
  160.7950  212.2080  150.9880 C   0  0  2  0  0  3  0  0  0  0  0  0
  161.8460  212.0150  149.0510 N   0  0  0  0  0  0  0  0  0  0  0  0
  160.8760  208.4000  155.3640 C   0  0  2  0  0  3  0  0  0  0  0  0
  161.3420  211.3390  150.0940 C   0  0  0  0  0  0  0  0  0  0  0  0
  160.0950  211.7850  152.2340 C   0  0  1  0  0  3  0  0  0  0  0  0
  161.9480  205.8760  150.5960 C   0  0  0  0  0  2  0  0  0  0  0  0
  161.8950  214.4370  148.4570 C   0  0  0  0  0  1  0  0  0  0  0  0
  160.5430  207.4110  149.4680 F   0  0  0  0  0  0  0  0  0  0  0  0
  161.4390  206.3380  153.8490 C   0  0  2  0  0  3  0  0  0  0  0  0
  162.1040  204.9980  151.8350 C   0  0  0  0  0  2  0  0  0  0  0  0
  161.5410  213.3000  149.3470 C   0  0  0  0  0  0  0  0  0  0  0  0
  161.0960  207.9170  151.7830 C   0  0  2  0  0  3  0  0  0  0  0  0
  159.6470  209.9160  153.8640 C   0  0  0  0  0  2  0  0  0  0  0  0
  159.7820  207.5220  155.9680 C   0  0  0  0  0  1  0  0  0  0  0  0
  160.3840  209.7710  155.1420 N   0  0  2  0  0  0  0  0  0  0  0  0
  162.6090  205.8080  153.0230 C   0  0  0  0  0  2  0  0  0  0  0  0
  160.6000  207.3890  153.1170 C   0  0  2  0  0  3  0  0  0  0  0  0
  162.1870  210.5320  156.6120 C   0  0  2  0  0  3  0  0  0  0  0  0
  161.4890  210.7270  155.2780 C   0  0  2  0  0  3  0  0  0  0  0  0
  161.2670  211.7200  156.4230 C   0  0  1  0  0  3  0  0  0  0  0  0
  160.0670  211.4860  157.0990 O   0  0  0  0  0  1  0  0  0  0  0  0
  163.6240  210.9920  156.4900 C   0  0  0  0  0  1  0  0  0  0  0  0
  158.0770  213.2010  152.8880 C   0  0  0  0  0  1  0  0  0  0  0  0
  158.5780  211.9930  152.1090 C   0  0  0  0  0  2  0  0  0  0  0  0
  1  5  1  6  0  0  0
  1 18  1  0  0  0  0
  1  4  1  0  0  0  0
  2 14  1  6  0  0  0
  2 18  1  0  0  0  0
  3  9  1  0  0  0  0
  4 19  1  0  0  0  0
  6  7  1  0  0  0  0
  7 11  1  0  0  0  0
  8 17  1  0  0  0  0
  8 10  2  0  0  0  0
  9 20  1  0  0  0  0
 10  5  1  0  0  0  0
 10  7  1  0  0  0  0
 11  4  1  0  0  0  0
 12  2  1  0  0  0  0
 12 16  1  0  0  0  0
 13 17  1  0  0  0  0
 15  3  1  0  0  0  0
 16 22  1  0  0  0  0
 17  6  2  0  0  0  0
 18 23  1  0  0  0  0
 19 21  1  0  0  0  0
 21 25  1  0  0  0  0
 21  9  1  0  0  0  0
 22 15  1  0  0  0  0
 23 15  1  0  0  0  0
 23  3  1  0  0  0  0
 25 26  1  0  0  0  0
 25 24  1  0  0  0  0
 26 24  1  0  0  0  0
 26 27  1  0  0  0  0
 28 24  1  0  0  0  0
 30 11  1  0  0  0  0
 30 29  1  0  0  0  0
M  END
>  <MODEL>
1

>  <REMARK>
 VINA RESULT:      -4.2      0.000      0.000
  Name = 
  2 active torsions:
  status: ('A' for Active; 'I' for Inactive)
    1  A    between atoms: C_10  and  N_25
    2  A    between atoms: C_13  and  C_30
                            x       y       z     vdW  Elec       q    Type
                         _______ _______ _______ _____ _____    ______ ____

>  <TORSDO>
F 2

$$$$
=
 OpenBabel11052421443D

 30 35  0  0  1  0  0  0  0  0999 V2000
  160.3470  210.9810  152.9150 C   0  0  1  0  0  3  0  0  0  0  0  0
  160.5870  212.7400  151.0170 C   0  0  2  0  0  3  0  0  0  0  0  0
  157.6700  212.8320  153.2280 C   0  0  1  0  0  3  0  0  0  0  0  0
  159.6030  210.5780  154.2440 C   0  0  1  0  0  3  0  0  0  0  0  0
  160.4520  209.7650  151.9660 C   0  0  0  0  0  2  0  0  0  0  0  0
  160.9230  207.0210  154.3140 N   0  0  0  0  0  0  0  0  0  0  0  0
  160.6220  208.2920  154.0030 C   0  0  2  0  0  3  0  0  0  0  0  0
  161.1720  207.3530  152.0770 N   0  0  0  0  0  0  0  0  0  0  0  0
  157.4080  213.0670  154.7300 C   0  0  2  0  0  3  0  0  0  0  0  0
  160.7980  208.4980  152.6690 C   0  0  0  0  0  0  0  0  0  0  0  0
  160.2610  209.3710  154.9670 C   0  0  1  0  0  3  0  0  0  0  0  0
  159.7790  213.0820  149.7680 C   0  0  0  0  0  2  0  0  0  0  0  0
  161.6460  205.0640  152.9480 C   0  0  0  0  0  1  0  0  0  0  0  0
  161.6400  211.9170  150.6550 F   0  0  0  0  0  0  0  0  0  0  0  0
  157.9450  214.0550  152.3650 C   0  0  2  0  0  3  0  0  0  0  0  0
  158.7800  214.2120  150.0050 C   0  0  0  0  0  2  0  0  0  0  0  0
  161.2470  206.4870  153.1150 C   0  0  0  0  0  0  0  0  0  0  0  0
  159.6750  212.1040  152.0780 C   0  0  2  0  0  3  0  0  0  0  0  0
  159.3930  211.7170  155.2720 C   0  0  0  0  0  2  0  0  0  0  0  0
  157.7550  214.4530  155.2710 C   0  0  0  0  0  1  0  0  0  0  0  0
  157.9770  212.0130  155.5900 N   0  0  2  0  0  0  0  0  0  0  0  0
  157.6360  213.7550  150.9000 C   0  0  0  0  0  2  0  0  0  0  0  0
  159.1020  213.2250  152.9280 C   0  0  2  0  0  3  0  0  0  0  0  0
  155.7270  211.1960  155.0820 C   0  0  2  0  0  3  0  0  0  0  0  0
  157.1190  210.8230  155.5550 C   0  0  2  0  0  3  0  0  0  0  0  0
  155.9580  210.9090  156.5500 C   0  0  1  0  0  3  0  0  0  0  0  0
  155.9590  212.1120  157.2610 O   0  0  0  0  0  1  0  0  0  0  0  0
  155.0840  209.9880  154.4340 C   0  0  0  0  0  1  0  0  0  0  0  0
  161.8620  208.6160  156.8040 C   0  0  0  0  0  1  0  0  0  0  0  0
  161.4610  209.7360  155.8550 C   0  0  0  0  0  2  0  0  0  0  0  0
  1  5  1  6  0  0  0
  1  4  1  0  0  0  0
  2 14  1  6  0  0  0
  2 18  1  0  0  0  0
  3  9  1  0  0  0  0
  4 11  1  0  0  0  0
  4 19  1  0  0  0  0
  5 10  1  0  0  0  0
  7  6  1  0  0  0  0
  7 11  1  0  0  0  0
  8 10  2  0  0  0  0
  8 17  1  0  0  0  0
  9 20  1  0  0  0  0
  9 21  1  0  0  0  0
 10  7  1  0  0  0  0
 11 30  1  0  0  0  0
 12 16  1  0  0  0  0
 12  2  1  0  0  0  0
 13 17  1  0  0  0  0
 15 23  1  0  0  0  0
 15  3  1  0  0  0  0
 16 22  1  0  0  0  0
 17  6  2  0  0  0  0
 18  1  1  0  0  0  0
 18 23  1  0  0  0  0
 19 21  1  0  0  0  0
 22 15  1  0  0  0  0
 23  3  1  0  0  0  0
 24 25  1  0  0  0  0
 24 26  1  0  0  0  0
 25 21  1  0  0  0  0
 25 26  1  0  0  0  0
 26 27  1  0  0  0  0
 28 24  1  0  0  0  0
 30 29  1  0  0  0  0
M  END
>  <MODEL>
2

>  <REMARK>
 VINA RESULT:      -3.8      2.521      6.240
  Name = 
  2 active torsions:
  status: ('A' for Active; 'I' for Inactive)
    1  A    between atoms: C_10  and  N_25
    2  A    between atoms: C_13  and  C_30
                            x       y       z     vdW  Elec       q    Type
                         _______ _______ _______ _____ _____    ______ ____

>  <TORSDO>
F 2

$$$$
=
 OpenBabel11052421443D

 30 35  0  0  1  0  0  0  0  0999 V2000
  157.9670  213.1730  152.4380 C   0  0  1  0  0  3  0  0  0  0  0  0
  156.4860  213.4860  154.5510 C   0  0  2  0  0  3  0  0  0  0  0  0
  158.8200  210.6700  154.3620 C   0  0  1  0  0  3  0  0  0  0  0  0
  159.2160  212.4490  151.8060 C   0  0  1  0  0  3  0  0  0  0  0  0
  156.7730  213.1430  151.4580 C   0  0  0  0  0  2  0  0  0  0  0  0
  158.4410  213.4740  148.2370 N   0  0  0  0  0  0  0  0  0  0  0  0
  158.4290  213.2670  149.5630 C   0  0  2  0  0  3  0  0  0  0  0  0
  156.3190  213.6660  149.0350 N   0  0  0  0  0  0  0  0  0  0  0  0
  160.3490  210.4850  154.2780 C   0  0  2  0  0  3  0  0  0  0  0  0
  157.1640  213.4090  150.0450 C   0  0  0  0  0  0  0  0  0  0  0  0
  159.6230  213.0320  150.4260 C   0  0  1  0  0  3  0  0  0  0  0  0
  155.3870  212.6620  155.2170 C   0  0  0  0  0  2  0  0  0  0  0  0
  156.6450  213.9830  146.5820 C   0  0  0  0  0  1  0  0  0  0  0  0
  155.8970  214.4530  153.7550 F   0  0  0  0  0  0  0  0  0  0  0  0
  158.2290  211.0130  155.7220 C   0  0  2  0  0  3  0  0  0  0  0  0
  155.9170  211.7690  156.3360 C   0  0  0  0  0  2  0  0  0  0  0  0
  157.1380  213.7090  147.9580 C   0  0  0  0  0  0  0  0  0  0  0  0
  157.4320  212.5650  153.7640 C   0  0  2  0  0  3  0  0  0  0  0  0
  160.4760  212.3710  152.7030 C   0  0  0  0  0  2  0  0  0  0  0  0
  161.1580  210.9640  155.4830 C   0  0  0  0  0  1  0  0  0  0  0  0
  160.9280  210.9980  153.0230 N   0  0  2  0  0  0  0  0  0  0  0  0
  156.7530  210.6260  155.7760 C   0  0  0  0  0  2  0  0  0  0  0  0
  158.5350  212.1180  154.7080 C   0  0  2  0  0  3  0  0  0  0  0  0
  161.4080  208.7400  152.2080 C   0  0  2  0  0  3  0  0  0  0  0  0
  160.6820  210.0440  151.9350 C   0  0  2  0  0  3  0  0  0  0  0  0
  161.9590  209.6900  151.1660 C   0  0  1  0  0  3  0  0  0  0  0  0
  163.0830  210.3390  151.6830 O   0  0  0  0  0  1  0  0  0  0  0  0
  160.6760  207.6120  151.5130 C   0  0  0  0  0  1  0  0  0  0  0  0
  161.4100  214.4530  149.2890 C   0  0  0  0  0  1  0  0  0  0  0  0
  160.5020  214.2910  150.4990 C   0  0  0  0  0  2  0  0  0  0  0  0
  1  5  1  6  0  0  0
  1 18  1  0  0  0  0
  2 14  1  6  0  0  0
  2 12  1  0  0  0  0
  3 23  1  0  0  0  0
  3 15  1  0  0  0  0
  4  1  1  0  0  0  0
  4 19  1  0  0  0  0
  6  7  1  0  0  0  0
  7 10  1  0  0  0  0
  7 11  1  0  0  0  0
  8 10  2  0  0  0  0
  9  3  1  0  0  0  0
  9 20  1  0  0  0  0
 10  5  1  0  0  0  0
 11 30  1  0  0  0  0
 11  4  1  0  0  0  0
 12 16  1  0  0  0  0
 13 17  1  0  0  0  0
 15 22  1  0  0  0  0
 17  6  2  0  0  0  0
 17  8  1  0  0  0  0
 18  2  1  0  0  0  0
 18 23  1  0  0  0  0
 19 21  1  0  0  0  0
 21  9  1  0  0  0  0
 22 16  1  0  0  0  0
 23 15  1  0  0  0  0
 25 24  1  0  0  0  0
 25 21  1  0  0  0  0
 26 27  1  0  0  0  0
 26 25  1  0  0  0  0
 26 24  1  0  0  0  0
 28 24  1  0  0  0  0
 29 30  1  0  0  0  0
M  END
>  <MODEL>
3

>  <REMARK>
 VINA RESULT:      -3.4      3.262      5.734
  Name = 
  2 active torsions:
  status: ('A' for Active; 'I' for Inactive)
    1  A    between atoms: C_10  and  N_25
    2  A    between atoms: C_13  and  C_30
                            x       y       z     vdW  Elec       q    Type
                         _______ _______ _______ _____ _____    ______ ____

>  <TORSDO>
F 2

$$$$
=
 OpenBabel11052421443D

 30 35  0  0  1  0  0  0  0  0999 V2000
  160.9410  210.4820  152.3430 C   0  0  1  0  0  3  0  0  0  0  0  0
  161.4190  212.0580  150.3320 C   0  0  2  0  0  3  0  0  0  0  0  0
  158.5800  212.7350  152.5430 C   0  0  1  0  0  3  0  0  0  0  0  0
  160.1630  210.2830  153.6980 C   0  0  1  0  0  3  0  0  0  0  0  0
  160.8470  209.2060  151.4760 C   0  0  0  0  0  2  0  0  0  0  0  0
  160.9290  206.5800  153.9980 N   0  0  0  0  0  0  0  0  0  0  0  0
  160.8200  207.8590  153.6040 C   0  0  2  0  0  3  0  0  0  0  0  0
  161.1950  206.7240  151.7430 N   0  0  0  0  0  0  0  0  0  0  0  0
  158.3770  213.1040  154.0280 C   0  0  2  0  0  3  0  0  0  0  0  0
  161.0070  207.9480  152.2590 C   0  0  0  0  0  0  0  0  0  0  0  0
  160.6400  209.0400  154.4970 C   0  0  1  0  0  3  0  0  0  0  0  0
  160.6550  212.4370  149.0670 C   0  0  0  0  0  2  0  0  0  0  0  0
  161.3280  204.4510  152.7610 C   0  0  0  0  0  1  0  0  0  0  0  0
  162.3290  211.0630  150.0210 F   0  0  0  0  0  0  0  0  0  0  0  0
  159.0260  213.8440  151.6010 C   0  0  2  0  0  3  0  0  0  0  0  0
  159.8420  213.7190  149.2320 C   0  0  0  0  0  2  0  0  0  0  0  0
  161.1520  205.9260  152.8350 C   0  0  0  0  0  0  0  0  0  0  0  0
  160.4360  211.6380  151.4360 C   0  0  2  0  0  3  0  0  0  0  0  0
  160.1420  211.5050  154.6490 C   0  0  0  0  0  2  0  0  0  0  0  0
  158.9380  214.4530  154.4740 C   0  0  0  0  0  1  0  0  0  0  0  0
  158.7920  212.0340  154.9530 N   0  0  2  0  0  0  0  0  0  0  0  0
  158.6540  213.5010  150.1600 C   0  0  0  0  0  2  0  0  0  0  0  0
  160.0510  212.8860  152.2130 C   0  0  2  0  0  3  0  0  0  0  0  0
  156.3950  211.6100  155.2070 C   0  0  2  0  0  3  0  0  0  0  0  0
  157.7630  210.9880  155.0000 C   0  0  2  0  0  3  0  0  0  0  0  0
  157.0720  210.9080  156.3640 C   0  0  1  0  0  3  0  0  0  0  0  0
  157.5600  211.8620  157.2610 O   0  0  0  0  0  1  0  0  0  0  0  0
  155.3420  210.6960  154.6180 C   0  0  0  0  0  1  0  0  0  0  0  0
  161.7450  208.7640  156.7800 C   0  0  0  0  0  1  0  0  0  0  0  0
  161.8940  209.2750  155.3540 C   0  0  0  0  0  2  0  0  0  0  0  0
  1  5  1  6  0  0  0
  1  4  1  0  0  0  0
  2 14  1  6  0  0  0
  2 18  1  0  0  0  0
  3  9  1  0  0  0  0
  4 11  1  0  0  0  0
  4 19  1  0  0  0  0
  5 10  1  0  0  0  0
  7  6  1  0  0  0  0
  7 11  1  0  0  0  0
  8 10  2  0  0  0  0
  8 17  1  0  0  0  0
  9 20  1  0  0  0  0
  9 21  1  0  0  0  0
 10  7  1  0  0  0  0
 11 30  1  0  0  0  0
 12 16  1  0  0  0  0
 12  2  1  0  0  0  0
 13 17  1  0  0  0  0
 15 23  1  0  0  0  0
 15  3  1  0  0  0  0
 16 22  1  0  0  0  0
 17  6  2  0  0  0  0
 18 23  1  0  0  0  0
 18  1  1  0  0  0  0
 19 21  1  0  0  0  0
 21 25  1  0  0  0  0
 22 15  1  0  0  0  0
 23  3  1  0  0  0  0
 24 26  1  0  0  0  0
 25 24  1  0  0  0  0
 25 26  1  0  0  0  0
 26 27  1  0  0  0  0
 28 24  1  0  0  0  0
 30 29  1  0  0  0  0
M  END
>  <MODEL>
4

>  <REMARK>
 VINA RESULT:      -3.3      2.220      5.971
  Name = 
  2 active torsions:
  status: ('A' for Active; 'I' for Inactive)
    1  A    between atoms: C_10  and  N_25
    2  A    between atoms: C_13  and  C_30
                            x       y       z     vdW  Elec       q    Type
                         _______ _______ _______ _____ _____    ______ ____

>  <TORSDO>
F 2

$$$$
=
 OpenBabel11052421443D

 30 35  0  0  1  0  0  0  0  0999 V2000
  160.5750  212.3910  150.4070 C   0  0  1  0  0  3  0  0  0  0  0  0
  159.6710  213.2660  152.6820 C   0  0  2  0  0  3  0  0  0  0  0  0
  160.1900  209.6750  152.1870 C   0  0  1  0  0  3  0  0  0  0  0  0
  161.2050  211.1780  149.6250 C   0  0  1  0  0  3  0  0  0  0  0  0
  159.4500  213.0440  149.5720 C   0  0  0  0  0  2  0  0  0  0  0  0
  160.7410  212.7050  146.1830 N   0  0  0  0  0  0  0  0  0  0  0  0
  160.7480  212.4400  147.4990 C   0  0  2  0  0  3  0  0  0  0  0  0
  159.1070  213.8970  147.2250 N   0  0  0  0  0  0  0  0  0  0  0  0
  161.3890  208.7410  151.9230 C   0  0  2  0  0  3  0  0  0  0  0  0
  159.7890  213.1730  148.1260 C   0  0  0  0  0  0  0  0  0  0  0  0
  161.7240  211.5680  148.2140 C   0  0  1  0  0  3  0  0  0  0  0  0
  158.3730  213.0750  153.4600 C   0  0  0  0  0  2  0  0  0  0  0  0
  159.3200  214.1760  144.7560 C   0  0  0  0  0  1  0  0  0  0  0  0
  159.5940  214.4520  151.9720 F   0  0  0  0  0  0  0  0  0  0  0  0
  159.9900  210.1740  153.6110 C   0  0  2  0  0  3  0  0  0  0  0  0
  158.4680  211.9600  154.4990 C   0  0  0  0  0  2  0  0  0  0  0  0
  159.7270  213.5910  146.0610 C   0  0  0  0  0  0  0  0  0  0  0  0
  159.9290  212.0500  151.7780 C   0  0  2  0  0  3  0  0  0  0  0  0
  162.3230  210.4040  150.3670 C   0  0  0  0  0  2  0  0  0  0  0  0
  162.4370  208.6530  153.0310 C   0  0  0  0  0  1  0  0  0  0  0  0
  162.0290  208.9740  150.6150 N   0  0  2  0  0  0  0  0  0  0  0  0
  158.5380  210.5920  153.8310 C   0  0  0  0  0  2  0  0  0  0  0  0
  160.7260  211.0360  152.5820 C   0  0  2  0  0  3  0  0  0  0  0  0
  161.3930  206.8510  149.5750 C   0  0  2  0  0  3  0  0  0  0  0  0
  161.2270  208.3590  149.5510 C   0  0  2  0  0  3  0  0  0  0  0  0
  162.0900  207.6570  148.4980 C   0  0  1  0  0  3  0  0  0  0  0  0
  163.4530  207.7390  148.7930 O   0  0  0  0  0  1  0  0  0  0  0  0
  160.1540  206.2080  148.9900 C   0  0  0  0  0  1  0  0  0  0  0  0
  163.1090  213.6970  147.9790 C   0  0  0  0  0  1  0  0  0  0  0  0
  163.1290  212.1910  148.2010 C   0  0  0  0  0  2  0  0  0  0  0  0
  1  5  1  6  0  0  0
  1 18  1  0  0  0  0
  2 14  1  6  0  0  0
  2 12  1  0  0  0  0
  3 23  1  0  0  0  0
  3 15  1  0  0  0  0
  4 19  1  0  0  0  0
  4  1  1  0  0  0  0
  6  7  1  0  0  0  0
  7 10  1  0  0  0  0
  7 11  1  0  0  0  0
  8 10  2  0  0  0  0
  9  3  1  0  0  0  0
  9 20  1  0  0  0  0
 10  5  1  0  0  0  0
 11  4  1  0  0  0  0
 12 16  1  0  0  0  0
 13 17  1  0  0  0  0
 15 22  1  0  0  0  0
 17  6  2  0  0  0  0
 17  8  1  0  0  0  0
 18 23  1  0  0  0  0
 18  2  1  0  0  0  0
 19 21  1  0  0  0  0
 21  9  1  0  0  0  0
 22 16  1  0  0  0  0
 23 15  1  0  0  0  0
 25 24  1  0  0  0  0
 25 21  1  0  0  0  0
 26 27  1  0  0  0  0
 26 25  1  0  0  0  0
 26 24  1  0  0  0  0
 28 24  1  0  0  0  0
 29 30  1  0  0  0  0
 30 11  1  0  0  0  0
M  END
>  <MODEL>
5

>  <REMARK>
 VINA RESULT:      -2.4      3.241      5.813
  Name = 
  2 active torsions:
  status: ('A' for Active; 'I' for Inactive)
    1  A    between atoms: C_10  and  N_25
    2  A    between atoms: C_13  and  C_30
                            x       y       z     vdW  Elec       q    Type
                         _______ _______ _______ _____ _____    ______ ____

>  <TORSDO>
F 2

$$$$
=
 OpenBabel11052421443D

 30 35  0  0  1  0  0  0  0  0999 V2000
  161.0530  210.1820  152.6780 C   0  0  1  0  0  3  0  0  0  0  0  0
  160.9260  209.6940  155.2280 C   0  0  2  0  0  3  0  0  0  0  0  0
  161.0260  206.9170  152.8430 C   0  0  1  0  0  3  0  0  0  0  0  0
  161.3390  209.5980  151.2430 C   0  0  1  0  0  3  0  0  0  0  0  0
  159.7790  211.0580  152.6590 C   0  0  0  0  0  2  0  0  0  0  0  0
  159.9820  212.6060  149.3700 N   0  0  0  0  0  0  0  0  0  0  0  0
  160.3600  211.7130  150.2980 C   0  0  2  0  0  3  0  0  0  0  0  0
  158.8160  212.9430  151.2940 N   0  0  0  0  0  0  0  0  0  0  0  0
  162.0270  206.3640  151.8060 C   0  0  2  0  0  3  0  0  0  0  0  0
  159.6830  211.9320  151.4570 C   0  0  0  0  0  0  0  0  0  0  0  0
  161.4420  210.6970  150.1490 C   0  0  1  0  0  3  0  0  0  0  0  0
  159.9070  209.0120  156.1350 C   0  0  0  0  0  2  0  0  0  0  0  0
  158.3060  214.4530  149.3750 C   0  0  0  0  0  1  0  0  0  0  0  0
  160.7240  211.0620  155.2810 F   0  0  0  0  0  0  0  0  0  0  0  0
  161.2930  206.6040  154.3080 C   0  0  2  0  0  3  0  0  0  0  0  0
  160.2290  207.5390  156.3790 C   0  0  0  0  0  2  0  0  0  0  0  0
  159.0400  213.3300  150.0160 C   0  0  0  0  0  0  0  0  0  0  0  0
  160.8210  209.1340  153.8000 C   0  0  2  0  0  3  0  0  0  0  0  0
  162.5700  208.6660  151.1260 C   0  0  0  0  0  2  0  0  0  0  0  0
  163.3470  205.8280  152.3560 C   0  0  0  0  0  1  0  0  0  0  0  0
  162.2650  207.2870  150.6810 N   0  0  2  0  0  0  0  0  0  0  0  0
  160.0040  206.7120  155.1200 C   0  0  0  0  0  2  0  0  0  0  0  0
  161.7480  207.9340  153.7040 C   0  0  2  0  0  3  0  0  0  0  0  0
  161.3940  206.1450  148.6990 C   0  0  2  0  0  3  0  0  0  0  0  0
  161.1430  207.2230  149.7370 C   0  0  2  0  0  3  0  0  0  0  0  0
  161.5560  207.5990  148.3110 C   0  0  1  0  0  3  0  0  0  0  0  0
  162.9160  207.9020  148.2180 O   0  0  0  0  0  1  0  0  0  0  0  0
  160.0650  205.6370  148.1830 C   0  0  0  0  0  1  0  0  0  0  0  0
  163.1550  211.8370  148.6420 C   0  0  0  0  0  1  0  0  0  0  0  0
  162.8190  211.3720  150.0510 C   0  0  0  0  0  2  0  0  0  0  0  0
  1  5  1  6  0  0  0
  1 18  1  0  0  0  0
  2 14  1  6  0  0  0
  2 12  1  0  0  0  0
  3 23  1  0  0  0  0
  3 15  1  0  0  0  0
  4  1  1  0  0  0  0
  6 17  2  0  0  0  0
  6  7  1  0  0  0  0
  7 10  1  0  0  0  0
  8 10  2  0  0  0  0
  9 20  1  0  0  0  0
  9  3  1  0  0  0  0
 10  5  1  0  0  0  0
 11  7  1  0  0  0  0
 11  4  1  0  0  0  0
 12 16  1  0  0  0  0
 13 17  1  0  0  0  0
 15 22  1  0  0  0  0
 17  8  1  0  0  0  0
 18  2  1  0  0  0  0
 19  4  1  0  0  0  0
 21 19  1  0  0  0  0
 21  9  1  0  0  0  0
 22 16  1  0  0  0  0
 23 18  1  0  0  0  0
 23 15  1  0  0  0  0
 24 25  1  0  0  0  0
 25 21  1  0  0  0  0
 26 24  1  0  0  0  0
 26 25  1  0  0  0  0
 27 26  1  0  0  0  0
 28 24  1  0  0  0  0
 29 30  1  0  0  0  0
 30 11  1  0  0  0  0
M  END
>  <MODEL>
6

>  <REMARK>
 VINA RESULT:      -1.4      2.847      5.233
  Name = 
  2 active torsions:
  status: ('A' for Active; 'I' for Inactive)
    1  A    between atoms: C_10  and  N_25
    2  A    between atoms: C_13  and  C_30
                            x       y       z     vdW  Elec       q    Type
                         _______ _______ _______ _____ _____    ______ ____

>  <TORSDO>
F 2

$$$$
