=
 OpenBabel11062409553D

 43 49  0  0  1  0  0  0  0  0999 V2000
  161.0660  204.4530  149.5220 C   0  0  0  0  0  0  0  0  0  0  0  0
  161.7960  208.5320  151.3220 C   0  0  0  0  0  0  0  0  0  0  0  0
  161.8870  210.3780  149.2310 C   0  0  0  0  0  0  0  0  0  0  0  0
  161.5020  206.4420  151.4170 C   0  0  0  0  0  0  0  0  0  0  0  0
  161.1640  206.1360  147.6430 C   0  0  0  0  0  1  0  0  0  0  0  0
  160.8490  203.4630  148.6210 F   0  0  0  0  0  0  0  0  0  0  0  0
  161.4460  206.7590  150.0740 C   0  0  0  0  0  0  0  0  0  0  0  0
  161.1250  204.1340  150.8970 C   0  0  0  0  0  3  0  0  0  0  0  0
  161.2300  205.7860  149.0920 C   0  0  0  0  0  0  0  0  0  0  0  0
  161.6800  209.0110  148.9480 C   0  0  0  0  0  3  0  0  0  0  0  0
  161.6400  208.1200  150.0170 C   0  0  0  0  0  0  0  0  0  0  0  0
  161.7120  207.5140  152.1540 O   0  0  0  0  0  0  0  0  0  0  0  0
  162.0130  209.8740  151.6350 C   0  0  0  0  0  0  0  0  0  0  0  0
  162.0500  210.7980  150.5760 C   0  0  0  0  0  3  0  0  0  0  0  0
  161.3470  205.1330  151.8630 C   0  0  0  0  0  3  0  0  0  0  0  0
  161.9170  211.3380  148.1640 N   0  0  0  0  0  0  0  0  0  0  0  0
  160.8380  211.5020  147.2100 C   0  0  0  0  0  2  0  0  0  0  0  0
  163.0050  212.2760  147.9600 C   0  0  0  0  0  2  0  0  0  0  0  0
  161.2050  212.7160  146.3730 C   0  0  1  0  0  3  0  0  0  0  0  0
  162.6530  213.0530  146.7050 C   0  0  0  0  0  2  0  0  0  0  0  0
  161.0830  212.4060  144.8900 C   0  0  0  0  0  2  0  0  0  0  0  0
  160.3000  213.4930  144.1690 C   0  0  2  0  0  3  0  0  0  0  0  0
  158.4310  213.7690  142.1960 S   0  0  0  0  0  0  0  0  0  0  0  0
  158.9610  213.7030  144.8370 C   0  0  0  0  0  2  0  0  0  0  0  0
  160.0260  213.0700  142.7380 C   0  0  1  0  0  3  0  0  0  0  0  0
  158.1010  214.4530  143.8470 C   0  0  0  0  0  2  0  0  0  0  0  0
  161.4050  212.8070  140.6110 N   0  0  0  0  0  0  0  0  0  0  0  0
  161.1470  213.5030  141.8390 C   0  0  0  0  0  0  0  0  0  0  0  0
  163.3830  211.9860  139.4400 C   0  0  0  0  0  2  0  0  0  0  0  0
  161.4220  210.4840  139.8710 C   0  0  0  0  0  2  0  0  0  0  0  0
  162.5200  210.8580  138.8770 C   0  0  0  0  0  2  0  0  0  0  0  0
  160.5560  211.7030  140.1710 C   0  0  0  0  0  2  0  0  0  0  0  0
  162.5180  213.2030  139.7520 C   0  0  0  0  0  2  0  0  0  0  0  0
  161.9030  214.4480  142.1980 O   0  0  0  0  0  0  0  0  0  0  0  0
  162.1540  210.3280  153.0520 C   0  0  0  0  0  2  0  0  0  0  0  0
  158.9110  212.2120  153.6110 C   0  0  0  0  0  3  0  0  0  0  0  0
  158.3650  211.5150  154.6950 C   0  0  0  0  0  0  0  0  0  0  0  0
  160.2920  210.0370  154.6970 C   0  0  0  0  0  3  0  0  0  0  0  0
  160.1420  211.8230  153.0710 C   0  0  0  0  0  3  0  0  0  0  0  0
  160.8320  210.7320  153.6110 C   0  0  0  0  0  0  0  0  0  0  0  0
  159.0620  210.4220  155.2350 C   0  0  0  0  0  3  0  0  0  0  0  0
  155.9570  211.2250  155.0910 C   0  0  0  0  0  2  0  0  0  0  0  0
  157.0660  211.9440  155.2310 C   0  0  0  0  0  3  0  0  0  0  0  0
  1  8  1  0  0  0  0
  2 13  1  0  0  0  0
  2 12  1  0  0  0  0
  3 14  1  0  0  0  0
  4 15  1  0  0  0  0
  4 12  1  0  0  0  0
  5  9  1  0  0  0  0
  6  1  1  0  0  0  0
  7  4  2  0  0  0  0
  8 15  2  0  0  0  0
  9  1  2  0  0  0  0
  9  7  1  0  0  0  0
 10  3  2  0  0  0  0
 10 11  1  0  0  0  0
 11  7  1  0  0  0  0
 11  2  2  0  0  0  0
 13 35  1  0  0  0  0
 14 13  2  0  0  0  0
 16  3  1  0  0  0  0
 17 16  1  0  0  0  0
 18 16  1  0  0  0  0
 19 21  1  6  0  0  0
 19 20  1  0  0  0  0
 19 17  1  0  0  0  0
 20 18  1  0  0  0  0
 22 24  1  0  0  0  0
 22 21  1  1  0  0  0
 23 25  1  0  0  0  0
 23 26  1  0  0  0  0
 25 28  1  6  0  0  0
 25 22  1  0  0  0  0
 26 24  1  0  0  0  0
 27 28  1  0  0  0  0
 28 34  2  0  0  0  0
 29 33  1  0  0  0  0
 30 32  1  0  0  0  0
 31 29  1  0  0  0  0
 31 30  1  0  0  0  0
 32 27  1  0  0  0  0
 33 27  1  0  0  0  0
 35 40  1  0  0  0  0
 36 37  1  0  0  0  0
 37 43  1  0  0  0  0
 37 41  2  0  0  0  0
 38 41  1  0  0  0  0
 39 36  2  0  0  0  0
 39 40  1  0  0  0  0
 40 38  2  0  0  0  0
 42 43  2  0  0  0  0
M  END
>  <MODEL>
1

>  <REMARK>
 VINA RESULT:      -8.8      0.000      0.000
  Name = 
  7 active torsions:
  status: ('A' for Active; 'I' for Inactive)
    1  A    between atoms: C_1  and  C_34
    2  A    between atoms: C_1  and  C_35
    3  A    between atoms: N_2  and  C_13
    4  A    between atoms: C_3  and  C_4
    5  A    between atoms: C_3  and  C_12
    6  A    between atoms: C_14  and  C_22
    7  A    between atoms: C_19  and  C_37
                            x       y       z     vdW  Elec       q    Type
                         _______ _______ _______ _____ _____    ______ ____

>  <TORSDO>
F 7

$$$$
=
 OpenBabel11062409553D

 43 49  0  0  1  0  0  0  0  0999 V2000
  161.4350  204.2550  147.6000 C   0  0  0  0  0  0  0  0  0  0  0  0
  162.0130  208.2320  149.6630 C   0  0  0  0  0  0  0  0  0  0  0  0
  161.1460  207.9540  152.3010 C   0  0  0  0  0  0  0  0  0  0  0  0
  162.1150  206.9200  148.0100 C   0  0  0  0  0  0  0  0  0  0  0  0
  160.6430  204.0260  149.9860 C   0  0  0  0  0  1  0  0  0  0  0  0
  161.1150  202.9560  147.3730 F   0  0  0  0  0  0  0  0  0  0  0  0
  161.5750  206.1720  149.0380 C   0  0  0  0  0  0  0  0  0  0  0  0
  161.9850  205.0240  146.5520 C   0  0  0  0  0  3  0  0  0  0  0  0
  161.2200  204.8300  148.8700 C   0  0  0  0  0  0  0  0  0  0  0  0
  161.0670  206.8550  151.4200 C   0  0  0  0  0  3  0  0  0  0  0  0
  161.5090  207.0310  150.1120 C   0  0  0  0  0  0  0  0  0  0  0  0
  162.3730  208.1530  148.3980 O   0  0  0  0  0  0  0  0  0  0  0  0
  162.0950  209.3410  150.5050 C   0  0  0  0  0  0  0  0  0  0  0  0
  161.6630  209.1890  151.8350 C   0  0  0  0  0  3  0  0  0  0  0  0
  162.3320  206.3730  146.7490 C   0  0  0  0  0  3  0  0  0  0  0  0
  160.7200  207.8160  153.6650 N   0  0  0  0  0  0  0  0  0  0  0  0
  160.1590  208.9060  154.4370 C   0  0  0  0  0  2  0  0  0  0  0  0
  160.7600  206.5620  154.3940 C   0  0  0  0  0  2  0  0  0  0  0  0
  159.6980  208.2920  155.7490 C   0  0  1  0  0  3  0  0  0  0  0  0
  160.2750  206.8830  155.7970 C   0  0  0  0  0  2  0  0  0  0  0  0
  160.2170  209.0920  156.9320 C   0  0  0  0  0  2  0  0  0  0  0  0
  161.3360  210.0310  156.5060 C   0  0  2  0  0  3  0  0  0  0  0  0
  162.4920  212.3880  157.2610 S   0  0  0  0  0  0  0  0  0  0  0  0
  162.6090  209.6970  157.2490 C   0  0  0  0  0  2  0  0  0  0  0  0
  160.9730  211.4620  156.8600 C   0  0  1  0  0  3  0  0  0  0  0  0
  163.5170  210.8950  157.1050 C   0  0  0  0  0  2  0  0  0  0  0  0
  158.8960  212.6180  155.9410 N   0  0  0  0  0  0  0  0  0  0  0  0
  160.2200  212.1050  155.7320 C   0  0  0  0  0  0  0  0  0  0  0  0
  156.7760  212.5500  154.7350 C   0  0  0  0  0  2  0  0  0  0  0  0
  156.9030  211.9120  157.1560 C   0  0  0  0  0  2  0  0  0  0  0  0
  156.0630  212.6040  156.0850 C   0  0  0  0  0  2  0  0  0  0  0  0
  158.2680  212.5850  157.2600 C   0  0  0  0  0  2  0  0  0  0  0  0
  158.1460  213.2130  154.8380 C   0  0  0  0  0  2  0  0  0  0  0  0
  160.7340  212.1400  154.5810 O   0  0  0  0  0  0  0  0  0  0  0  0
  162.6680  210.6360  150.0300 C   0  0  0  0  0  2  0  0  0  0  0  0
  160.3360  212.5080  147.6980 C   0  0  0  0  0  3  0  0  0  0  0  0
  159.5900  213.2730  148.6020 C   0  0  0  0  0  0  0  0  0  0  0  0
  160.8510  212.3060  150.4390 C   0  0  0  0  0  3  0  0  0  0  0  0
  161.3350  211.6450  148.1610 C   0  0  0  0  0  3  0  0  0  0  0  0
  161.5910  211.5400  149.5330 C   0  0  0  0  0  0  0  0  0  0  0  0
  159.8510  213.1660  149.9780 C   0  0  0  0  0  3  0  0  0  0  0  0
  157.5290  213.7250  147.3420 C   0  0  0  0  0  2  0  0  0  0  0  0
  158.5420  214.1630  148.0820 C   0  0  0  0  0  3  0  0  0  0  0  0
  1  9  1  0  0  0  0
  2 11  2  0  0  0  0
  2 13  1  0  0  0  0
  3 16  1  0  0  0  0
  4 12  1  0  0  0  0
  4  7  1  0  0  0  0
  6  1  1  0  0  0  0
  7 11  1  0  0  0  0
  8 15  1  0  0  0  0
  8  1  2  0  0  0  0
  9  7  2  0  0  0  0
  9  5  1  0  0  0  0
 10  3  2  0  0  0  0
 11 10  1  0  0  0  0
 12  2  1  0  0  0  0
 13 14  2  0  0  0  0
 14  3  1  0  0  0  0
 15  4  2  0  0  0  0
 16 18  1  0  0  0  0
 16 17  1  0  0  0  0
 17 19  1  0  0  0  0
 18 20  1  0  0  0  0
 19 20  1  0  0  0  0
 19 21  1  1  0  0  0
 22 25  1  0  0  0  0
 22 21  1  1  0  0  0
 22 24  1  0  0  0  0
 25 28  1  6  0  0  0
 25 23  1  0  0  0  0
 26 24  1  0  0  0  0
 26 23  1  0  0  0  0
 27 32  1  0  0  0  0
 28 27  1  0  0  0  0
 29 33  1  0  0  0  0
 29 31  1  0  0  0  0
 30 32  1  0  0  0  0
 31 30  1  0  0  0  0
 33 27  1  0  0  0  0
 34 28  2  0  0  0  0
 35 13  1  0  0  0  0
 36 39  2  0  0  0  0
 36 37  1  0  0  0  0
 37 41  2  0  0  0  0
 39 40  1  0  0  0  0
 40 35  1  0  0  0  0
 40 38  2  0  0  0  0
 41 38  1  0  0  0  0
 42 43  2  0  0  0  0
 43 37  1  0  0  0  0
M  END
>  <MODEL>
2

>  <REMARK>
 VINA RESULT:      -8.4      5.034      9.791
  Name = 
  7 active torsions:
  status: ('A' for Active; 'I' for Inactive)
    1  A    between atoms: C_1  and  C_34
    2  A    between atoms: C_1  and  C_35
    3  A    between atoms: N_2  and  C_13
    4  A    between atoms: C_3  and  C_4
    5  A    between atoms: C_3  and  C_12
    6  A    between atoms: C_14  and  C_22
    7  A    between atoms: C_19  and  C_37
                            x       y       z     vdW  Elec       q    Type
                         _______ _______ _______ _____ _____    ______ ____

>  <TORSDO>
F 7

$$$$
=
 OpenBabel11062409553D

 43 49  0  0  1  0  0  0  0  0999 V2000
  160.8830  202.0590  147.9550 C   0  0  0  0  0  0  0  0  0  0  0  0
  161.1720  204.9800  151.3880 C   0  0  0  0  0  0  0  0  0  0  0  0
  161.5620  207.5230  150.3090 C   0  0  0  0  0  0  0  0  0  0  0  0
  160.9300  203.0550  150.5510 C   0  0  0  0  0  0  0  0  0  0  0  0
  161.2480  204.3650  146.9970 C   0  0  0  0  0  1  0  0  0  0  0  0
  160.8530  201.5450  146.6990 F   0  0  0  0  0  0  0  0  0  0  0  0
  161.0940  203.9050  149.4740 C   0  0  0  0  0  0  0  0  0  0  0  0
  160.7170  201.1930  149.0580 C   0  0  0  0  0  3  0  0  0  0  0  0
  161.0770  203.4410  148.1550 C   0  0  0  0  0  0  0  0  0  0  0  0
  161.4470  206.4090  149.4500 C   0  0  0  0  0  3  0  0  0  0  0  0
  161.2530  205.1570  150.0250 C   0  0  0  0  0  0  0  0  0  0  0  0
  160.9790  203.7120  151.6920 O   0  0  0  0  0  0  0  0  0  0  0  0
  161.2920  206.0580  152.2660 C   0  0  0  0  0  0  0  0  0  0  0  0
  161.4810  207.3370  151.7120 C   0  0  0  0  0  3  0  0  0  0  0  0
  160.7410  201.6880  150.3760 C   0  0  0  0  0  3  0  0  0  0  0  0
  161.7440  208.8380  149.7620 N   0  0  0  0  0  0  0  0  0  0  0  0
  161.8530  210.0310  150.5780 C   0  0  0  0  0  2  0  0  0  0  0  0
  161.8880  209.1030  148.3430 C   0  0  0  0  0  2  0  0  0  0  0  0
  162.1980  211.1590  149.6210 C   0  0  1  0  0  3  0  0  0  0  0  0
  162.0020  210.6120  148.2130 C   0  0  0  0  0  2  0  0  0  0  0  0
  161.2780  212.3500  149.8350 C   0  0  0  0  0  2  0  0  0  0  0  0
  160.3030  212.5000  148.6770 C   0  0  2  0  0  3  0  0  0  0  0  0
  159.0550  214.4530  147.2300 S   0  0  0  0  0  0  0  0  0  0  0  0
  161.0560  212.6550  147.3770 C   0  0  0  0  0  2  0  0  0  0  0  0
  159.4690  213.7540  148.8640 C   0  0  1  0  0  3  0  0  0  0  0  0
  160.0730  213.2140  146.3750 C   0  0  0  0  0  2  0  0  0  0  0  0
  158.1800  213.7370  151.0620 N   0  0  0  0  0  0  0  0  0  0  0  0
  158.2330  213.4480  149.6570 C   0  0  0  0  0  0  0  0  0  0  0  0
  157.3940  212.5810  153.0640 C   0  0  0  0  0  2  0  0  0  0  0  0
  159.7030  213.5540  152.9580 C   0  0  0  0  0  2  0  0  0  0  0  0
  158.4880  213.3040  153.8490 C   0  0  0  0  0  2  0  0  0  0  0  0
  159.2950  214.3860  151.7460 C   0  0  0  0  0  2  0  0  0  0  0  0
  156.9920  213.4070  151.8450 C   0  0  0  0  0  2  0  0  0  0  0  0
  157.2570  212.8780  149.0950 O   0  0  0  0  0  0  0  0  0  0  0  0
  161.1760  205.8730  153.7440 C   0  0  0  0  0  2  0  0  0  0  0  0
  161.0140  209.5640  154.5980 C   0  0  0  0  0  3  0  0  0  0  0  0
  160.1410  209.5610  155.6920 C   0  0  0  0  0  0  0  0  0  0  0  0
  159.9380  207.1480  155.5050 C   0  0  0  0  0  3  0  0  0  0  0  0
  161.3480  208.3650  153.9590 C   0  0  0  0  0  3  0  0  0  0  0  0
  160.8070  207.1550  154.4090 C   0  0  0  0  0  0  0  0  0  0  0  0
  159.6020  208.3440  156.1420 C   0  0  0  0  0  3  0  0  0  0  0  0
  160.7190  211.7480  156.6520 C   0  0  0  0  0  2  0  0  0  0  0  0
  159.8040  210.8390  156.3340 C   0  0  0  0  0  3  0  0  0  0  0  0
  1  9  2  0  0  0  0
  1  8  1  0  0  0  0
  2 12  1  0  0  0  0
  2 13  1  0  0  0  0
  3 14  1  0  0  0  0
  4 12  1  0  0  0  0
  5  9  1  0  0  0  0
  6  1  1  0  0  0  0
  7 11  1  0  0  0  0
  7  4  2  0  0  0  0
  8 15  2  0  0  0  0
  9  7  1  0  0  0  0
 10 11  1  0  0  0  0
 10  3  2  0  0  0  0
 11  2  2  0  0  0  0
 13 35  1  0  0  0  0
 14 13  2  0  0  0  0
 15  4  1  0  0  0  0
 16  3  1  0  0  0  0
 16 17  1  0  0  0  0
 18 16  1  0  0  0  0
 19 21  1  1  0  0  0
 19 17  1  0  0  0  0
 20 18  1  0  0  0  0
 20 19  1  0  0  0  0
 22 25  1  0  0  0  0
 22 21  1  1  0  0  0
 23 25  1  0  0  0  0
 24 22  1  0  0  0  0
 25 28  1  6  0  0  0
 26 23  1  0  0  0  0
 26 24  1  0  0  0  0
 27 32  1  0  0  0  0
 27 33  1  0  0  0  0
 28 27  1  0  0  0  0
 29 31  1  0  0  0  0
 30 31  1  0  0  0  0
 32 30  1  0  0  0  0
 33 29  1  0  0  0  0
 34 28  2  0  0  0  0
 35 40  1  0  0  0  0
 36 37  1  0  0  0  0
 37 41  2  0  0  0  0
 37 43  1  0  0  0  0
 38 41  1  0  0  0  0
 39 40  1  0  0  0  0
 39 36  2  0  0  0  0
 40 38  2  0  0  0  0
 43 42  2  0  0  0  0
M  END
>  <MODEL>
3

>  <REMARK>
 VINA RESULT:      -8.4      3.772      6.288
  Name = 
  7 active torsions:
  status: ('A' for Active; 'I' for Inactive)
    1  A    between atoms: C_1  and  C_34
    2  A    between atoms: C_1  and  C_35
    3  A    between atoms: N_2  and  C_13
    4  A    between atoms: C_3  and  C_4
    5  A    between atoms: C_3  and  C_12
    6  A    between atoms: C_14  and  C_22
    7  A    between atoms: C_19  and  C_37
                            x       y       z     vdW  Elec       q    Type
                         _______ _______ _______ _____ _____    ______ ____

>  <TORSDO>
F 7

$$$$
=
 OpenBabel11062409553D

 43 49  0  0  1  0  0  0  0  0999 V2000
  161.3670  204.3530  148.1130 C   0  0  0  0  0  0  0  0  0  0  0  0
  161.9480  208.5450  149.6950 C   0  0  0  0  0  0  0  0  0  0  0  0
  161.0740  208.5810  152.3440 C   0  0  0  0  0  0  0  0  0  0  0  0
  162.0520  207.0470  148.2080 C   0  0  0  0  0  0  0  0  0  0  0  0
  160.5690  204.4090  150.5070 C   0  0  0  0  0  1  0  0  0  0  0  0
  161.0450  203.0380  148.0390 F   0  0  0  0  0  0  0  0  0  0  0  0
  161.5080  206.4260  149.3150 C   0  0  0  0  0  0  0  0  0  0  0  0
  161.9220  204.9920  146.9830 C   0  0  0  0  0  3  0  0  0  0  0  0
  161.1500  205.0740  149.3050 C   0  0  0  0  0  0  0  0  0  0  0  0
  160.9950  207.3860  151.5980 C   0  0  0  0  0  3  0  0  0  0  0  0
  161.4410  207.4060  150.2800 C   0  0  0  0  0  0  0  0  0  0  0  0
  162.3120  208.3160  148.4480 O   0  0  0  0  0  0  0  0  0  0  0  0
  162.0310  209.7450  150.4000 C   0  0  0  0  0  0  0  0  0  0  0  0
  161.5950  209.7520  151.7370 C   0  0  0  0  0  3  0  0  0  0  0  0
  162.2700  206.3550  147.0210 C   0  0  0  0  0  3  0  0  0  0  0  0
  160.6440  208.6060  153.7140 N   0  0  0  0  0  0  0  0  0  0  0  0
  160.0330  209.7630  154.3350 C   0  0  0  0  0  2  0  0  0  0  0  0
  160.7290  207.4610  154.6010 C   0  0  0  0  0  2  0  0  0  0  0  0
  159.5890  209.3080  155.7150 C   0  0  1  0  0  3  0  0  0  0  0  0
  160.2210  207.9420  155.9480 C   0  0  0  0  0  2  0  0  0  0  0  0
  160.0660  210.2780  156.7840 C   0  0  0  0  0  2  0  0  0  0  0  0
  159.8450  211.7180  156.3510 C   0  0  2  0  0  3  0  0  0  0  0  0
  158.6990  214.0260  157.2600 S   0  0  0  0  0  0  0  0  0  0  0  0
  160.9520  212.5990  156.8810 C   0  0  0  0  0  2  0  0  0  0  0  0
  158.5430  212.2390  156.9310 C   0  0  1  0  0  3  0  0  0  0  0  0
  160.4530  214.0220  156.7850 C   0  0  0  0  0  2  0  0  0  0  0  0
  157.4370  212.4160  154.6410 N   0  0  0  0  0  0  0  0  0  0  0  0
  157.4020  211.9510  155.9990 C   0  0  0  0  0  0  0  0  0  0  0  0
  155.8640  213.4830  153.1100 C   0  0  0  0  0  2  0  0  0  0  0  0
  158.1480  214.4450  153.4900 C   0  0  0  0  0  2  0  0  0  0  0  0
  157.0530  214.1850  152.4570 C   0  0  0  0  0  2  0  0  0  0  0  0
  158.5980  213.1260  154.1110 C   0  0  0  0  0  2  0  0  0  0  0  0
  156.3130  212.1680  153.7420 C   0  0  0  0  0  2  0  0  0  0  0  0
  156.3820  211.3470  156.4310 O   0  0  0  0  0  0  0  0  0  0  0  0
  162.6070  210.9750  149.7770 C   0  0  0  0  0  2  0  0  0  0  0  0
  159.7330  213.4420  149.6040 C   0  0  0  0  0  3  0  0  0  0  0  0
  159.4680  213.4690  148.2300 C   0  0  0  0  0  0  0  0  0  0  0  0
  161.2620  211.8720  147.8670 C   0  0  0  0  0  3  0  0  0  0  0  0
  160.7590  212.6350  150.1090 C   0  0  0  0  0  3  0  0  0  0  0  0
  161.5270  211.8520  149.2410 C   0  0  0  0  0  0  0  0  0  0  0  0
  160.2410  212.6790  147.3620 C   0  0  0  0  0  3  0  0  0  0  0  0
  157.1110  213.9780  147.7560 C   0  0  0  0  0  2  0  0  0  0  0  0
  158.3910  214.3350  147.7320 C   0  0  0  0  0  3  0  0  0  0  0  0
  1  9  1  0  0  0  0
  2 11  2  0  0  0  0
  2 13  1  0  0  0  0
  3 16  1  0  0  0  0
  4 12  1  0  0  0  0
  4  7  1  0  0  0  0
  6  1  1  0  0  0  0
  7 11  1  0  0  0  0
  8 15  1  0  0  0  0
  8  1  2  0  0  0  0
  9  7  2  0  0  0  0
  9  5  1  0  0  0  0
 10  3  2  0  0  0  0
 11 10  1  0  0  0  0
 12  2  1  0  0  0  0
 13 14  2  0  0  0  0
 14  3  1  0  0  0  0
 15  4  2  0  0  0  0
 16 17  1  0  0  0  0
 16 18  1  0  0  0  0
 17 19  1  0  0  0  0
 18 20  1  0  0  0  0
 19 20  1  0  0  0  0
 19 21  1  1  0  0  0
 22 21  1  1  0  0  0
 22 24  1  0  0  0  0
 22 25  1  0  0  0  0
 25 28  1  6  0  0  0
 25 23  1  0  0  0  0
 26 24  1  0  0  0  0
 26 23  1  0  0  0  0
 27 28  1  0  0  0  0
 28 34  2  0  0  0  0
 29 33  1  0  0  0  0
 30 32  1  0  0  0  0
 31 29  1  0  0  0  0
 31 30  1  0  0  0  0
 32 27  1  0  0  0  0
 33 27  1  0  0  0  0
 35 13  1  0  0  0  0
 36 39  1  0  0  0  0
 37 36  2  0  0  0  0
 38 40  1  0  0  0  0
 40 35  1  0  0  0  0
 40 39  2  0  0  0  0
 41 38  2  0  0  0  0
 41 37  1  0  0  0  0
 43 42  2  0  0  0  0
 43 37  1  0  0  0  0
M  END
>  <MODEL>
4

>  <REMARK>
 VINA RESULT:      -8.2      4.869      9.273
  Name = 
  7 active torsions:
  status: ('A' for Active; 'I' for Inactive)
    1  A    between atoms: C_1  and  C_34
    2  A    between atoms: C_1  and  C_35
    3  A    between atoms: N_2  and  C_13
    4  A    between atoms: C_3  and  C_4
    5  A    between atoms: C_3  and  C_12
    6  A    between atoms: C_14  and  C_22
    7  A    between atoms: C_19  and  C_37
                            x       y       z     vdW  Elec       q    Type
                         _______ _______ _______ _____ _____    ______ ____

>  <TORSDO>
F 7

$$$$
=
 OpenBabel11062409553D

 43 49  0  0  1  0  0  0  0  0999 V2000
  161.1260  202.6690  147.2740 C   0  0  0  0  0  0  0  0  0  0  0  0
  161.2520  205.1550  151.0440 C   0  0  0  0  0  0  0  0  0  0  0  0
  161.5750  207.8220  150.2910 C   0  0  0  0  0  0  0  0  0  0  0  0
  161.0910  203.3410  149.9720 C   0  0  0  0  0  0  0  0  0  0  0  0
  161.4310  205.0860  146.6130 C   0  0  0  0  0  1  0  0  0  0  0  0
  161.1370  202.3120  145.9650 F   0  0  0  0  0  0  0  0  0  0  0  0
  161.2460  204.3210  149.0110 C   0  0  0  0  0  0  0  0  0  0  0  0
  160.9690  201.6700  148.2600 C   0  0  0  0  0  3  0  0  0  0  0  0
  161.2700  204.0210  147.6450 C   0  0  0  0  0  0  0  0  0  0  0  0
  161.5150  206.8190  149.3010 C   0  0  0  0  0  3  0  0  0  0  0  0
  161.3530  205.5000  149.7140 C   0  0  0  0  0  0  0  0  0  0  0  0
  161.0960  203.8540  151.1860 O   0  0  0  0  0  0  0  0  0  0  0  0
  161.3200  206.1200  152.0480 C   0  0  0  0  0  0  0  0  0  0  0  0
  161.4750  207.4630  151.6590 C   0  0  0  0  0  3  0  0  0  0  0  0
  160.9520  202.0000  149.6280 C   0  0  0  0  0  3  0  0  0  0  0  0
  161.7230  209.1990  149.9130 N   0  0  0  0  0  0  0  0  0  0  0  0
  161.2780  209.7270  148.6390 C   0  0  0  0  0  2  0  0  0  0  0  0
  162.2860  210.2130  150.7840 C   0  0  0  0  0  2  0  0  0  0  0  0
  161.4730  211.2310  148.7210 C   0  0  1  0  0  3  0  0  0  0  0  0
  162.3010  211.4960  149.9720 C   0  0  0  0  0  2  0  0  0  0  0  0
  162.2180  211.7480  147.5010 C   0  0  0  0  0  2  0  0  0  0  0  0
  161.5800  213.0230  146.9730 C   0  0  2  0  0  3  0  0  0  0  0  0
  159.4980  213.8260  145.3970 S   0  0  0  0  0  0  0  0  0  0  0  0
  160.4610  213.4650  147.8860 C   0  0  0  0  0  2  0  0  0  0  0  0
  160.9690  212.7690  145.6070 C   0  0  1  0  0  3  0  0  0  0  0  0
  159.6270  214.4490  147.1000 C   0  0  0  0  0  2  0  0  0  0  0  0
  161.6480  212.7770  143.1500 N   0  0  0  0  0  0  0  0  0  0  0  0
  161.9810  213.0150  144.5260 C   0  0  0  0  0  0  0  0  0  0  0  0
  162.7410  211.7260  141.2370 C   0  0  0  0  0  2  0  0  0  0  0  0
  160.4100  211.0860  141.9040 C   0  0  0  0  0  2  0  0  0  0  0  0
  161.3560  211.3270  140.7290 C   0  0  0  0  0  2  0  0  0  0  0  0
  160.3090  212.3470  142.7570 C   0  0  0  0  0  2  0  0  0  0  0  0
  162.6410  212.9810  142.1000 C   0  0  0  0  0  2  0  0  0  0  0  0
  163.1480  213.3780  144.8380 O   0  0  0  0  0  0  0  0  0  0  0  0
  161.1830  205.7520  153.4900 C   0  0  0  0  0  2  0  0  0  0  0  0
  160.6680  209.3410  154.6000 C   0  0  0  0  0  3  0  0  0  0  0  0
  160.0720  209.1640  155.8540 C   0  0  0  0  0  0  0  0  0  0  0  0
  160.1940  206.7570  155.5570 C   0  0  0  0  0  3  0  0  0  0  0  0
  161.0250  208.2310  153.8270 C   0  0  0  0  0  3  0  0  0  0  0  0
  160.7850  206.9370  154.3020 C   0  0  0  0  0  0  0  0  0  0  0  0
  159.8340  207.8640  156.3290 C   0  0  0  0  0  3  0  0  0  0  0  0
  159.0210  211.3690  156.1210 C   0  0  0  0  0  2  0  0  0  0  0  0
  159.7010  210.3510  156.6370 C   0  0  0  0  0  3  0  0  0  0  0  0
  1  9  2  0  0  0  0
  1  8  1  0  0  0  0
  2 12  1  0  0  0  0
  2 13  1  0  0  0  0
  3 14  1  0  0  0  0
  4 12  1  0  0  0  0
  5  9  1  0  0  0  0
  6  1  1  0  0  0  0
  7 11  1  0  0  0  0
  7  4  2  0  0  0  0
  8 15  2  0  0  0  0
  9  7  1  0  0  0  0
 10 11  1  0  0  0  0
 10  3  2  0  0  0  0
 11  2  2  0  0  0  0
 13 35  1  0  0  0  0
 14 13  2  0  0  0  0
 15  4  1  0  0  0  0
 16  3  1  0  0  0  0
 16 18  1  0  0  0  0
 17 19  1  0  0  0  0
 17 16  1  0  0  0  0
 19 21  1  6  0  0  0
 19 20  1  0  0  0  0
 20 18  1  0  0  0  0
 22 21  1  1  0  0  0
 22 24  1  0  0  0  0
 23 25  1  0  0  0  0
 23 26  1  0  0  0  0
 25 28  1  6  0  0  0
 25 22  1  0  0  0  0
 26 24  1  0  0  0  0
 27 28  1  0  0  0  0
 28 34  2  0  0  0  0
 29 33  1  0  0  0  0
 30 32  1  0  0  0  0
 31 29  1  0  0  0  0
 31 30  1  0  0  0  0
 32 27  1  0  0  0  0
 33 27  1  0  0  0  0
 35 40  1  0  0  0  0
 36 37  1  0  0  0  0
 37 41  2  0  0  0  0
 37 43  1  0  0  0  0
 38 41  1  0  0  0  0
 39 40  1  0  0  0  0
 39 36  2  0  0  0  0
 40 38  2  0  0  0  0
 42 43  2  0  0  0  0
M  END
>  <MODEL>
5

>  <REMARK>
 VINA RESULT:      -8.1      1.951      3.130
  Name = 
  7 active torsions:
  status: ('A' for Active; 'I' for Inactive)
    1  A    between atoms: C_1  and  C_34
    2  A    between atoms: C_1  and  C_35
    3  A    between atoms: N_2  and  C_13
    4  A    between atoms: C_3  and  C_4
    5  A    between atoms: C_3  and  C_12
    6  A    between atoms: C_14  and  C_22
    7  A    between atoms: C_19  and  C_37
                            x       y       z     vdW  Elec       q    Type
                         _______ _______ _______ _____ _____    ______ ____

>  <TORSDO>
F 7

$$$$
=
 OpenBabel11062409553D

 43 49  0  0  1  0  0  0  0  0999 V2000
  161.1510  208.2150  155.0540 C   0  0  0  0  0  0  0  0  0  0  0  0
  161.9050  210.0180  150.9810 C   0  0  0  0  0  0  0  0  0  0  0  0
  161.5380  208.0070  149.0810 C   0  0  0  0  0  0  0  0  0  0  0  0
  161.7630  210.0840  153.0880 C   0  0  0  0  0  0  0  0  0  0  0  0
  160.8360  206.4060  153.3220 C   0  0  0  0  0  1  0  0  0  0  0  0
  160.8530  207.3240  156.0340 F   0  0  0  0  0  0  0  0  0  0  0  0
  161.4700  208.7790  152.7430 C   0  0  0  0  0  0  0  0  0  0  0  0
  161.4530  209.5490  155.4030 C   0  0  0  0  0  3  0  0  0  0  0  0
  161.1580  207.8110  153.7030 C   0  0  0  0  0  0  0  0  0  0  0  0
  161.3740  207.7120  150.4520 C   0  0  0  0  0  3  0  0  0  0  0  0
  161.5650  208.7410  151.3700 C   0  0  0  0  0  0  0  0  0  0  0  0
  162.0220  210.8160  152.0240 O   0  0  0  0  0  0  0  0  0  0  0  0
  162.0850  210.3400  149.6360 C   0  0  0  0  0  0  0  0  0  0  0  0
  161.8910  209.3220  148.6850 C   0  0  0  0  0  3  0  0  0  0  0  0
  161.7660  210.5020  154.4150 C   0  0  0  0  0  3  0  0  0  0  0  0
  161.3340  206.9840  148.0950 N   0  0  0  0  0  0  0  0  0  0  0  0
  161.5360  205.5730  148.3580 C   0  0  0  0  0  2  0  0  0  0  0  0
  160.8570  207.2500  146.7510 C   0  0  0  0  0  2  0  0  0  0  0  0
  161.0540  204.8460  147.1150 C   0  0  1  0  0  3  0  0  0  0  0  0
  160.8400  205.9070  146.0430 C   0  0  0  0  0  2  0  0  0  0  0  0
  162.0940  203.8450  146.6370 C   0  0  0  0  0  2  0  0  0  0  0  0
  161.4410  202.5350  146.2260 C   0  0  2  0  0  3  0  0  0  0  0  0
  159.0180  201.2780  146.3360 S   0  0  0  0  0  0  0  0  0  0  0  0
  160.7910  202.6780  144.8700 C   0  0  0  0  0  2  0  0  0  0  0  0
  160.3450  202.1720  147.2110 C   0  0  1  0  0  3  0  0  0  0  0  0
  159.8310  201.5200  144.7290 C   0  0  0  0  0  2  0  0  0  0  0  0
  160.7070  201.7650  149.7010 N   0  0  0  0  0  0  0  0  0  0  0  0
  160.9050  201.3560  148.3400 C   0  0  0  0  0  0  0  0  0  0  0  0
  162.0900  201.9150  151.7070 C   0  0  0  0  0  2  0  0  0  0  0  0
  160.7290  203.8720  150.9290 C   0  0  0  0  0  2  0  0  0  0  0  0
  161.2350  203.1010  152.1470 C   0  0  0  0  0  2  0  0  0  0  0  0
  159.9140  202.9460  150.0320 C   0  0  0  0  0  2  0  0  0  0  0  0
  161.2810  200.9920  150.8000 C   0  0  0  0  0  2  0  0  0  0  0  0
  161.6020  200.3360  148.0840 O   0  0  0  0  0  0  0  0  0  0  0  0
  162.4260  211.7310  149.2100 C   0  0  0  0  0  2  0  0  0  0  0  0
  159.2610  213.8180  149.1100 C   0  0  0  0  0  3  0  0  0  0  0  0
  158.9160  213.7390  147.7560 C   0  0  0  0  0  0  0  0  0  0  0  0
  160.8700  212.3550  147.3520 C   0  0  0  0  0  3  0  0  0  0  0  0
  160.4070  213.1690  149.5840 C   0  0  0  0  0  3  0  0  0  0  0  0
  161.2160  212.4400  148.7040 C   0  0  0  0  0  0  0  0  0  0  0  0
  159.7290  213.0040  146.8770 C   0  0  0  0  0  3  0  0  0  0  0  0
  156.5430  214.3590  147.9170 C   0  0  0  0  0  2  0  0  0  0  0  0
  157.7120  214.4400  147.2890 C   0  0  0  0  0  3  0  0  0  0  0  0
  1  8  1  0  0  0  0
  1  6  1  0  0  0  0
  2 11  1  0  0  0  0
  2 12  1  0  0  0  0
  3 10  1  0  0  0  0
  4 15  1  0  0  0  0
  5  9  1  0  0  0  0
  7  4  2  0  0  0  0
  7  9  1  0  0  0  0
  9  1  2  0  0  0  0
 10 11  2  0  0  0  0
 11  7  1  0  0  0  0
 12  4  1  0  0  0  0
 13  2  2  0  0  0  0
 14  3  2  0  0  0  0
 14 13  1  0  0  0  0
 15  8  2  0  0  0  0
 16 17  1  0  0  0  0
 16  3  1  0  0  0  0
 18 16  1  0  0  0  0
 19 21  1  6  0  0  0
 19 17  1  0  0  0  0
 20 18  1  0  0  0  0
 20 19  1  0  0  0  0
 22 21  1  1  0  0  0
 22 25  1  0  0  0  0
 23 25  1  0  0  0  0
 24 22  1  0  0  0  0
 25 28  1  1  0  0  0
 26 24  1  0  0  0  0
 26 23  1  0  0  0  0
 27 32  1  0  0  0  0
 27 33  1  0  0  0  0
 28 27  1  0  0  0  0
 29 31  1  0  0  0  0
 30 31  1  0  0  0  0
 32 30  1  0  0  0  0
 33 29  1  0  0  0  0
 34 28  2  0  0  0  0
 35 13  1  0  0  0  0
 36 39  1  0  0  0  0
 37 36  2  0  0  0  0
 38 40  1  0  0  0  0
 40 35  1  0  0  0  0
 40 39  2  0  0  0  0
 41 38  2  0  0  0  0
 41 37  1  0  0  0  0
 43 37  1  0  0  0  0
 43 42  2  0  0  0  0
M  END
>  <MODEL>
6

>  <REMARK>
 VINA RESULT:      -7.3      4.770      8.987
  Name = 
  7 active torsions:
  status: ('A' for Active; 'I' for Inactive)
    1  A    between atoms: C_1  and  C_34
    2  A    between atoms: C_1  and  C_35
    3  A    between atoms: N_2  and  C_13
    4  A    between atoms: C_3  and  C_4
    5  A    between atoms: C_3  and  C_12
    6  A    between atoms: C_14  and  C_22
    7  A    between atoms: C_19  and  C_37
                            x       y       z     vdW  Elec       q    Type
                         _______ _______ _______ _____ _____    ______ ____

>  <TORSDO>
F 7

$$$$
=
 OpenBabel11062409553D

 43 49  0  0  1  0  0  0  0  0999 V2000
  159.5910  209.5940  156.5780 C   0  0  0  0  0  0  0  0  0  0  0  0
  161.5790  207.1870  153.3130 C   0  0  0  0  0  0  0  0  0  0  0  0
  161.8270  208.8360  151.0750 C   0  0  0  0  0  0  0  0  0  0  0  0
  160.7910  207.4630  155.2530 C   0  0  0  0  0  0  0  0  0  0  0  0
  159.8130  211.0660  154.5400 C   0  0  0  0  0  1  0  0  0  0  0  0
  159.0050  210.6170  157.2500 F   0  0  0  0  0  0  0  0  0  0  0  0
  160.6050  208.6700  154.6080 C   0  0  0  0  0  0  0  0  0  0  0  0
  159.7820  208.3580  157.2340 C   0  0  0  0  0  3  0  0  0  0  0  0
  160.0050  209.7630  155.2410 C   0  0  0  0  0  0  0  0  0  0  0  0
  161.2240  209.3360  152.2480 C   0  0  0  0  0  3  0  0  0  0  0  0
  161.1180  208.4850  153.3440 C   0  0  0  0  0  0  0  0  0  0  0  0
  161.3760  206.5830  154.4660 O   0  0  0  0  0  0  0  0  0  0  0  0
  162.1700  206.6580  152.1650 C   0  0  0  0  0  0  0  0  0  0  0  0
  162.2980  207.4980  151.0450 C   0  0  0  0  0  3  0  0  0  0  0  0
  160.3870  207.2730  156.5710 C   0  0  0  0  0  3  0  0  0  0  0  0
  161.9760  209.6810  149.9240 N   0  0  0  0  0  0  0  0  0  0  0  0
  162.4060  211.0630  150.0020 C   0  0  0  0  0  2  0  0  0  0  0  0
  161.7610  209.2280  148.5630 C   0  0  0  0  0  2  0  0  0  0  0  0
  162.5850  211.5250  148.5660 C   0  0  1  0  0  3  0  0  0  0  0  0
  161.9720  210.4460  147.6820 C   0  0  0  0  0  2  0  0  0  0  0  0
  161.8670  212.8440  148.3290 C   0  0  0  0  0  2  0  0  0  0  0  0
  160.9640  212.7600  147.1090 C   0  0  2  0  0  3  0  0  0  0  0  0
  159.5390  214.3910  145.4430 S   0  0  0  0  0  0  0  0  0  0  0  0
  161.7730  212.9400  145.8460 C   0  0  0  0  0  2  0  0  0  0  0  0
  159.9390  213.8790  147.1470 C   0  0  1  0  0  3  0  0  0  0  0  0
  160.7890  213.2690  144.7480 C   0  0  0  0  0  2  0  0  0  0  0  0
  158.5760  213.7030  149.2940 N   0  0  0  0  0  0  0  0  0  0  0  0
  158.7110  213.4390  147.8890 C   0  0  0  0  0  0  0  0  0  0  0  0
  157.8360  212.4500  151.2520 C   0  0  0  0  0  2  0  0  0  0  0  0
  160.0370  213.6510  151.2450 C   0  0  0  0  0  2  0  0  0  0  0  0
  158.8200  213.2680  152.0860 C   0  0  0  0  0  2  0  0  0  0  0  0
  159.5930  214.4530  150.0260 C   0  0  0  0  0  2  0  0  0  0  0  0
  157.3990  213.2450  150.0260 C   0  0  0  0  0  2  0  0  0  0  0  0
  157.8200  212.7810  147.2840 O   0  0  0  0  0  0  0  0  0  0  0  0
  162.6970  205.2600  152.1380 C   0  0  0  0  0  2  0  0  0  0  0  0
  160.7450  202.4030  150.5880 C   0  0  0  0  0  3  0  0  0  0  0  0
  160.5710  202.8600  149.2760 C   0  0  0  0  0  0  0  0  0  0  0  0
  161.7790  204.8900  149.8390 C   0  0  0  0  0  3  0  0  0  0  0  0
  161.4320  203.1850  151.5220 C   0  0  0  0  0  3  0  0  0  0  0  0
  161.9470  204.4320  151.1500 C   0  0  0  0  0  0  0  0  0  0  0  0
  161.0910  204.1110  148.9060 C   0  0  0  0  0  3  0  0  0  0  0  0
  160.3740  201.5730  147.1920 C   0  0  0  0  0  2  0  0  0  0  0  0
  159.8360  202.0170  148.3230 C   0  0  0  0  0  3  0  0  0  0  0  0
  1  8  1  0  0  0  0
  1  6  1  0  0  0  0
  2 11  1  0  0  0  0
  2 12  1  0  0  0  0
  3 10  1  0  0  0  0
  4 15  1  0  0  0  0
  5  9  1  0  0  0  0
  7  9  1  0  0  0  0
  7  4  2  0  0  0  0
  9  1  2  0  0  0  0
 10 11  2  0  0  0  0
 11  7  1  0  0  0  0
 12  4  1  0  0  0  0
 13  2  2  0  0  0  0
 14  3  2  0  0  0  0
 14 13  1  0  0  0  0
 15  8  2  0  0  0  0
 16 17  1  0  0  0  0
 16  3  1  0  0  0  0
 18 16  1  0  0  0  0
 19 21  1  1  0  0  0
 19 17  1  0  0  0  0
 20 18  1  0  0  0  0
 20 19  1  0  0  0  0
 22 25  1  0  0  0  0
 22 21  1  1  0  0  0
 23 25  1  0  0  0  0
 24 22  1  0  0  0  0
 25 28  1  6  0  0  0
 26 23  1  0  0  0  0
 26 24  1  0  0  0  0
 27 33  1  0  0  0  0
 27 32  1  0  0  0  0
 28 27  1  0  0  0  0
 29 31  1  0  0  0  0
 30 31  1  0  0  0  0
 32 30  1  0  0  0  0
 33 29  1  0  0  0  0
 34 28  2  0  0  0  0
 35 13  1  0  0  0  0
 36 39  1  0  0  0  0
 37 36  2  0  0  0  0
 38 40  1  0  0  0  0
 40 39  2  0  0  0  0
 40 35  1  0  0  0  0
 41 37  1  0  0  0  0
 41 38  2  0  0  0  0
 42 43  2  0  0  0  0
 43 37  1  0  0  0  0
M  END
>  <MODEL>
7

>  <REMARK>
 VINA RESULT:      -7.0      3.529      7.464
  Name = 
  7 active torsions:
  status: ('A' for Active; 'I' for Inactive)
    1  A    between atoms: C_1  and  C_34
    2  A    between atoms: C_1  and  C_35
    3  A    between atoms: N_2  and  C_13
    4  A    between atoms: C_3  and  C_4
    5  A    between atoms: C_3  and  C_12
    6  A    between atoms: C_14  and  C_22
    7  A    between atoms: C_19  and  C_37
                            x       y       z     vdW  Elec       q    Type
                         _______ _______ _______ _____ _____    ______ ____

>  <TORSDO>
F 7

$$$$
=
 OpenBabel11062409553D

 43 49  0  0  1  0  0  0  0  0999 V2000
  160.4200  207.3970  156.5630 C   0  0  0  0  0  0  0  0  0  0  0  0
  160.6180  210.4630  153.2500 C   0  0  0  0  0  0  0  0  0  0  0  0
  161.3510  209.1350  150.9070 C   0  0  0  0  0  0  0  0  0  0  0  0
  160.2890  209.8420  155.2420 C   0  0  0  0  0  0  0  0  0  0  0  0
  161.0940  206.2160  154.4370 C   0  0  0  0  0  1  0  0  0  0  0  0
  160.4740  206.2180  157.2320 F   0  0  0  0  0  0  0  0  0  0  0  0
  160.6410  208.6960  154.5560 C   0  0  0  0  0  0  0  0  0  0  0  0
  160.0620  208.5710  157.2610 C   0  0  0  0  0  3  0  0  0  0  0  0
  160.7190  207.4500  155.1860 C   0  0  0  0  0  0  0  0  0  0  0  0
  161.2240  208.4100  152.1120 C   0  0  0  0  0  3  0  0  0  0  0  0
  160.8570  209.1060  153.2590 C   0  0  0  0  0  0  0  0  0  0  0  0
  160.2780  210.8930  154.4480 O   0  0  0  0  0  0  0  0  0  0  0  0
  160.7450  211.2110  152.0790 C   0  0  0  0  0  0  0  0  0  0  0  0
  161.1070  210.5320  150.9020 C   0  0  0  0  0  3  0  0  0  0  0  0
  159.9940  209.8130  156.6020 C   0  0  0  0  0  3  0  0  0  0  0  0
  161.7090  208.4570  149.6930 N   0  0  0  0  0  0  0  0  0  0  0  0
  161.3610  207.0780  149.4190 C   0  0  0  0  0  2  0  0  0  0  0  0
  162.4120  209.0970  148.5970 C   0  0  0  0  0  2  0  0  0  0  0  0
  161.7810  206.8210  147.9820 C   0  0  1  0  0  3  0  0  0  0  0  0
  162.6290  208.0130  147.5560 C   0  0  0  0  0  2  0  0  0  0  0  0
  162.6070  205.5490  147.8790 C   0  0  0  0  0  2  0  0  0  0  0  0
  162.3120  204.8110  146.5830 C   0  0  2  0  0  3  0  0  0  0  0  0
  160.2090  204.2190  144.9420 S   0  0  0  0  0  0  0  0  0  0  0  0
  162.3620  205.7680  145.4140 C   0  0  0  0  0  2  0  0  0  0  0  0
  160.9110  204.2300  146.6260 C   0  0  1  0  0  3  0  0  0  0  0  0
  161.6590  205.0810  144.2660 C   0  0  0  0  0  2  0  0  0  0  0  0
  160.6320  202.6520  148.6080 N   0  0  0  0  0  0  0  0  0  0  0  0
  160.9340  202.8520  147.2190 C   0  0  0  0  0  0  0  0  0  0  0  0
  161.5740  201.3420  150.4390 C   0  0  0  0  0  2  0  0  0  0  0  0
  161.1330  203.7960  150.7020 C   0  0  0  0  0  2  0  0  0  0  0  0
  161.1060  202.4360  151.3970 C   0  0  0  0  0  2  0  0  0  0  0  0
  160.2390  203.7660  149.4670 C   0  0  0  0  0  2  0  0  0  0  0  0
  160.6880  201.3170  149.1970 C   0  0  0  0  0  2  0  0  0  0  0  0
  161.2780  201.8710  146.5030 O   0  0  0  0  0  0  0  0  0  0  0  0
  160.4590  212.6770  152.0600 C   0  0  0  0  0  2  0  0  0  0  0  0
  159.3850  213.7240  148.5780 C   0  0  0  0  0  3  0  0  0  0  0  0
  157.9910  213.7440  148.7080 C   0  0  0  0  0  0  0  0  0  0  0  0
  158.2120  213.0570  151.0270 C   0  0  0  0  0  3  0  0  0  0  0  0
  160.1900  213.3710  149.6660 C   0  0  0  0  0  3  0  0  0  0  0  0
  159.6040  213.0330  150.8920 C   0  0  0  0  0  0  0  0  0  0  0  0
  157.4080  213.4060  149.9400 C   0  0  0  0  0  3  0  0  0  0  0  0
  157.6250  214.0290  146.2950 C   0  0  0  0  0  2  0  0  0  0  0  0
  157.1750  214.1090  147.5420 C   0  0  0  0  0  3  0  0  0  0  0  0
  1  6  1  0  0  0  0
  1  8  1  0  0  0  0
  2 11  1  0  0  0  0
  2 12  1  0  0  0  0
  3 10  1  0  0  0  0
  4 15  1  0  0  0  0
  5  9  1  0  0  0  0
  7  9  1  0  0  0  0
  7  4  2  0  0  0  0
  9  1  2  0  0  0  0
 10 11  2  0  0  0  0
 11  7  1  0  0  0  0
 12  4  1  0  0  0  0
 13  2  2  0  0  0  0
 14  3  2  0  0  0  0
 14 13  1  0  0  0  0
 15  8  2  0  0  0  0
 16  3  1  0  0  0  0
 17 16  1  0  0  0  0
 18 16  1  0  0  0  0
 19 21  1  1  0  0  0
 19 17  1  0  0  0  0
 20 19  1  0  0  0  0
 20 18  1  0  0  0  0
 22 25  1  0  0  0  0
 22 21  1  1  0  0  0
 23 25  1  0  0  0  0
 24 22  1  0  0  0  0
 25 28  1  6  0  0  0
 26 23  1  0  0  0  0
 26 24  1  0  0  0  0
 27 33  1  0  0  0  0
 27 32  1  0  0  0  0
 28 27  1  0  0  0  0
 29 31  1  0  0  0  0
 30 31  1  0  0  0  0
 32 30  1  0  0  0  0
 33 29  1  0  0  0  0
 34 28  2  0  0  0  0
 35 13  1  0  0  0  0
 36 37  2  0  0  0  0
 36 39  1  0  0  0  0
 37 41  1  0  0  0  0
 39 40  2  0  0  0  0
 40 38  1  0  0  0  0
 40 35  1  0  0  0  0
 41 38  2  0  0  0  0
 42 43  2  0  0  0  0
 43 37  1  0  0  0  0
M  END
>  <MODEL>
8

>  <REMARK>
 VINA RESULT:      -6.9      4.805      8.206
  Name = 
  7 active torsions:
  status: ('A' for Active; 'I' for Inactive)
    1  A    between atoms: C_1  and  C_34
    2  A    between atoms: C_1  and  C_35
    3  A    between atoms: N_2  and  C_13
    4  A    between atoms: C_3  and  C_4
    5  A    between atoms: C_3  and  C_12
    6  A    between atoms: C_14  and  C_22
    7  A    between atoms: C_19  and  C_37
                            x       y       z     vdW  Elec       q    Type
                         _______ _______ _______ _____ _____    ______ ____

>  <TORSDO>
F 7

$$$$
=
 OpenBabel11062409553D

 43 49  0  0  1  0  0  0  0  0999 V2000
  161.2960  203.2060  146.5220 C   0  0  0  0  0  0  0  0  0  0  0  0
  162.0650  207.2530  148.3770 C   0  0  0  0  0  0  0  0  0  0  0  0
  161.4740  207.0650  151.0980 C   0  0  0  0  0  0  0  0  0  0  0  0
  162.0020  205.8850  146.7680 C   0  0  0  0  0  0  0  0  0  0  0  0
  160.7540  203.0590  148.9830 C   0  0  0  0  0  1  0  0  0  0  0  0
  160.9600  201.9000  146.3730 F   0  0  0  0  0  0  0  0  0  0  0  0
  161.5740  205.1720  147.8710 C   0  0  0  0  0  0  0  0  0  0  0  0
  161.7330  203.9390  145.3970 C   0  0  0  0  0  3  0  0  0  0  0  0
  161.2100  203.8240  147.7860 C   0  0  0  0  0  0  0  0  0  0  0  0
  161.3100  205.9360  150.2670 C   0  0  0  0  0  3  0  0  0  0  0  0
  161.6150  206.0680  148.9160 C   0  0  0  0  0  0  0  0  0  0  0  0
  162.2940  207.1300  147.0850 O   0  0  0  0  0  0  0  0  0  0  0  0
  162.2280  208.3900  149.1680 C   0  0  0  0  0  0  0  0  0  0  0  0
  161.9350  208.2840  150.5390 C   0  0  0  0  0  3  0  0  0  0  0  0
  162.0910  205.2950  145.5110 C   0  0  0  0  0  3  0  0  0  0  0  0
  161.1900  206.9740  152.5020 N   0  0  0  0  0  0  0  0  0  0  0  0
  160.9710  208.1310  153.3470 C   0  0  0  0  0  2  0  0  0  0  0  0
  161.0430  205.7160  153.2100 C   0  0  0  0  0  2  0  0  0  0  0  0
  160.5450  207.5840  154.6990 C   0  0  1  0  0  3  0  0  0  0  0  0
  160.8060  206.0840  154.6640 C   0  0  0  0  0  2  0  0  0  0  0  0
  161.3590  208.2140  155.8170 C   0  0  0  0  0  2  0  0  0  0  0  0
  161.3080  209.7320  155.7390 C   0  0  2  0  0  3  0  0  0  0  0  0
  160.5870  211.8840  157.2600 S   0  0  0  0  0  0  0  0  0  0  0  0
  162.5720  210.3280  156.3140 C   0  0  0  0  0  2  0  0  0  0  0  0
  160.1490  210.2540  156.5690 C   0  0  1  0  0  3  0  0  0  0  0  0
  162.2740  211.7830  156.5910 C   0  0  0  0  0  2  0  0  0  0  0  0
  158.6860  211.4320  154.8460 N   0  0  0  0  0  0  0  0  0  0  0  0
  158.9020  210.3280  155.7380 C   0  0  0  0  0  0  0  0  0  0  0  0
  156.8140  212.8920  154.2810 C   0  0  0  0  0  2  0  0  0  0  0  0
  159.0480  213.8430  154.9050 C   0  0  0  0  0  2  0  0  0  0  0  0
  157.8270  214.0000  154.0010 C   0  0  0  0  0  2  0  0  0  0  0  0
  159.6910  212.4780  154.6760 C   0  0  0  0  0  2  0  0  0  0  0  0
  157.4570  211.5260  154.0630 C   0  0  0  0  0  2  0  0  0  0  0  0
  158.0120  209.4430  155.8710 O   0  0  0  0  0  0  0  0  0  0  0  0
  162.7430  209.6690  148.5920 C   0  0  0  0  0  2  0  0  0  0  0  0
  160.8060  212.9290  148.6450 C   0  0  0  0  0  3  0  0  0  0  0  0
  160.4610  213.0280  149.9980 C   0  0  0  0  0  0  0  0  0  0  0  0
  161.6000  210.9260  150.4290 C   0  0  0  0  0  3  0  0  0  0  0  0
  161.5440  211.8330  148.1850 C   0  0  0  0  0  3  0  0  0  0  0  0
  161.9390  210.8280  149.0750 C   0  0  0  0  0  0  0  0  0  0  0  0
  160.8600  212.0180  150.8890 C   0  0  0  0  0  3  0  0  0  0  0  0
  158.4270  214.4060  150.0530 C   0  0  0  0  0  2  0  0  0  0  0  0
  159.6770  214.1870  150.4470 C   0  0  0  0  0  3  0  0  0  0  0  0
  1  9  1  0  0  0  0
  2 11  2  0  0  0  0
  2 13  1  0  0  0  0
  3 16  1  0  0  0  0
  4 12  1  0  0  0  0
  4  7  1  0  0  0  0
  6  1  1  0  0  0  0
  7 11  1  0  0  0  0
  8 15  1  0  0  0  0
  8  1  2  0  0  0  0
  9  7  2  0  0  0  0
  9  5  1  0  0  0  0
 10  3  2  0  0  0  0
 11 10  1  0  0  0  0
 12  2  1  0  0  0  0
 13 14  2  0  0  0  0
 14  3  1  0  0  0  0
 15  4  2  0  0  0  0
 16 18  1  0  0  0  0
 16 17  1  0  0  0  0
 17 19  1  0  0  0  0
 18 20  1  0  0  0  0
 19 21  1  1  0  0  0
 20 19  1  0  0  0  0
 22 21  1  1  0  0  0
 22 24  1  0  0  0  0
 22 25  1  0  0  0  0
 24 26  1  0  0  0  0
 25 28  1  6  0  0  0
 25 23  1  0  0  0  0
 26 23  1  0  0  0  0
 27 28  1  0  0  0  0
 28 34  2  0  0  0  0
 31 29  1  0  0  0  0
 31 30  1  0  0  0  0
 32 27  1  0  0  0  0
 32 30  1  0  0  0  0
 33 29  1  0  0  0  0
 33 27  1  0  0  0  0
 35 40  1  0  0  0  0
 35 13  1  0  0  0  0
 36 37  1  0  0  0  0
 37 43  1  0  0  0  0
 37 41  2  0  0  0  0
 38 41  1  0  0  0  0
 39 36  2  0  0  0  0
 39 40  1  0  0  0  0
 40 38  2  0  0  0  0
 42 43  2  0  0  0  0
M  END
>  <MODEL>
9

>  <REMARK>
 VINA RESULT:      -6.6      5.122      9.355
  Name = 
  7 active torsions:
  status: ('A' for Active; 'I' for Inactive)
    1  A    between atoms: C_1  and  C_34
    2  A    between atoms: C_1  and  C_35
    3  A    between atoms: N_2  and  C_13
    4  A    between atoms: C_3  and  C_4
    5  A    between atoms: C_3  and  C_12
    6  A    between atoms: C_14  and  C_22
    7  A    between atoms: C_19  and  C_37
                            x       y       z     vdW  Elec       q    Type
                         _______ _______ _______ _____ _____    ______ ____

>  <TORSDO>
F 7

$$$$
