=
 OpenBabel11052422133D

 25 28  0  0  1  0  0  0  0  0999 V2000
  161.4050  203.6640  148.2710 C   0  0  0  0  0  0  0  0  0  0  0  0
  161.3380  203.5980  149.6740 C   0  0  0  0  0  0  0  0  0  0  0  0
  161.0220  201.2820  148.0620 C   0  0  0  0  0  3  0  0  0  0  0  0
  161.6320  204.8080  147.3450 C   0  0  1  0  0  3  0  0  0  0  0  0
  160.5630  206.0260  144.9930 C   0  0  0  0  0  3  0  0  0  0  0  0
  160.8850  201.1990  149.4560 C   0  0  0  0  0  3  0  0  0  0  0  0
  161.5170  204.0990  146.0260 C   0  0  0  0  0  0  0  0  0  0  0  0
  161.2050  204.8650  144.8200 C   0  0  0  0  0  3  0  0  0  0  0  0
  160.4380  203.4500  152.3710 C   0  0  0  0  0  2  0  0  0  0  0  0
  160.7990  202.2810  151.6310 O   0  0  0  0  0  0  0  0  0  0  0  0
  161.5840  204.7450  150.5950 C   0  0  0  0  0  0  0  0  0  0  0  0
  160.1610  206.4600  146.3120 N   0  0  0  0  0  0  0  0  0  0  0  0
  161.2830  202.5290  147.4990 C   0  0  0  0  0  0  0  0  0  0  0  0
  161.3250  202.8200  146.1120 N   0  0  0  0  0  0  0  0  0  0  0  0
  161.1790  204.6580  151.8660 C   0  0  0  0  0  3  0  0  0  0  0  0
  160.5850  205.8870  147.4060 C   0  0  0  0  0  3  0  0  0  0  0  0
  161.0110  202.3530  150.2520 C   0  0  0  0  0  0  0  0  0  0  0  0
  162.2990  205.8870  150.2190 O   0  0  0  0  0  0  0  0  0  0  0  0
  162.4090  207.0390  151.0470 C   0  0  0  0  0  2  0  0  0  0  0  0
  161.1950  207.9520  150.8820 C   0  0  0  0  0  2  0  0  0  0  0  0
  160.8530  208.7490  152.1430 C   0  0  1  0  0  3  0  0  0  0  0  0
  160.9450  207.9000  153.4030 C   0  0  0  0  0  1  0  0  0  0  0  0
  161.6280  210.0260  152.2520 C   0  0  0  0  0  0  0  0  0  0  0  0
  162.2970  210.4620  151.2780 O   0  0  0  0  0  0  0  0  0  0  0  0
  161.5720  210.7600  153.4290 O   0  0  0  0  0  1  0  0  0  0  0  0
  1  2  1  0  0  0  0
  2 17  2  0  0  0  0
  2 11  1  0  0  0  0
  3  6  2  0  0  0  0
  4 16  1  6  0  0  0
  4  1  1  0  0  0  0
  5 12  1  0  0  0  0
  6 17  1  0  0  0  0
  7 14  2  0  0  0  0
  7  4  1  0  0  0  0
  8  5  2  0  0  0  0
  8  7  1  0  0  0  0
 10  9  1  0  0  0  0
 11 15  2  0  0  0  0
 12 16  2  0  0  0  0
 13  3  1  0  0  0  0
 13  1  2  0  0  0  0
 14 13  1  0  0  0  0
 15  9  1  0  0  0  0
 17 10  1  0  0  0  0
 18 11  1  0  0  0  0
 18 19  1  0  0  0  0
 20 19  1  0  0  0  0
 20 21  1  0  0  0  0
 21 23  1  0  0  0  0
 21 22  1  1  0  0  0
 23 25  1  0  0  0  0
 24 23  2  0  0  0  0
M  END
>  <MODEL>
1

>  <REMARK>
 VINA RESULT:      -8.5      0.000      0.000
  Name = 
  5 active torsions:
  status: ('A' for Active; 'I' for Inactive)
    1  A    between atoms: C_2  and  C_21
    2  A    between atoms: C_6  and  C_15
    3  A    between atoms: C_6  and  O_23
    4  A    between atoms: C_15  and  C_21
    5  A    between atoms: C_16  and  O_23
                            x       y       z     vdW  Elec       q    Type
                         _______ _______ _______ _____ _____    ______ ____

>  <TORSDO>
F 5

$$$$
=
 OpenBabel11052422133D

 25 28  0  0  1  0  0  0  0  0999 V2000
  161.4170  203.7210  148.4670 C   0  0  0  0  0  0  0  0  0  0  0  0
  161.3460  203.6640  149.8700 C   0  0  0  0  0  0  0  0  0  0  0  0
  161.0090  201.3420  148.2710 C   0  0  0  0  0  3  0  0  0  0  0  0
  161.6580  204.8560  147.5350 C   0  0  1  0  0  3  0  0  0  0  0  0
  160.6070  206.0720  145.1740 C   0  0  0  0  0  3  0  0  0  0  0  0
  160.8680  201.2680  149.6660 C   0  0  0  0  0  3  0  0  0  0  0  0
  161.5380  204.1410  146.2200 C   0  0  2  0  0  3  0  0  0  0  0  0
  161.2370  204.9030  145.0080 C   0  0  0  0  0  3  0  0  0  0  0  0
  160.4380  203.5410  152.5660 C   0  0  0  0  0  2  0  0  0  0  0  0
  160.7890  202.3640  151.8340 O   0  0  0  0  0  0  0  0  0  0  0  0
  161.6020  204.8140  150.7850 C   0  0  0  0  0  0  0  0  0  0  0  0
  160.2070  206.5180  146.4890 N   0  0  0  0  0  0  0  0  0  0  0  0
  161.2840  202.5830  147.7010 C   0  0  0  0  0  0  0  0  0  0  0  0
  161.3330  202.8640  146.3130 N   0  0  0  0  0  2  0  0  0  0  0  0
  161.1930  204.7380  152.0550 C   0  0  0  0  0  3  0  0  0  0  0  0
  160.6220  205.9470  147.5870 C   0  0  0  0  0  3  0  0  0  0  0  0
  161.0050  202.4250  150.4550 C   0  0  0  0  0  0  0  0  0  0  0  0
  162.3300  205.9450  150.4040 O   0  0  0  0  0  0  0  0  0  0  0  0
  162.3760  207.1360  151.1830 C   0  0  0  0  0  2  0  0  0  0  0  0
  161.2010  208.0540  150.8530 C   0  0  0  0  0  2  0  0  0  0  0  0
  161.6000  209.5210  150.6820 C   0  0  1  0  0  3  0  0  0  0  0  0
  162.6000  209.9730  151.7360 C   0  0  0  0  0  1  0  0  0  0  0  0
  162.0490  209.8440  149.2900 C   0  0  0  0  0  0  0  0  0  0  0  0
  162.3280  208.9270  148.4710 O   0  0  0  0  0  0  0  0  0  0  0  0
  162.1160  211.1690  148.8830 O   0  0  0  0  0  1  0  0  0  0  0  0
  1  2  1  0  0  0  0
  2 17  2  0  0  0  0
  2 11  1  0  0  0  0
  3  6  2  0  0  0  0
  4 16  1  6  0  0  0
  4  1  1  0  0  0  0
  5 12  1  0  0  0  0
  6 17  1  0  0  0  0
  7  8  1  1  0  0  0
  7 14  1  0  0  0  0
  7  4  1  0  0  0  0
  8  5  2  0  0  0  0
 10  9  1  0  0  0  0
 11 15  2  0  0  0  0
 12 16  2  0  0  0  0
 13  3  1  0  0  0  0
 13  1  2  0  0  0  0
 14 13  1  0  0  0  0
 15  9  1  0  0  0  0
 17 10  1  0  0  0  0
 18 11  1  0  0  0  0
 18 19  1  0  0  0  0
 20 19  1  0  0  0  0
 21 20  1  0  0  0  0
 21 22  1  1  0  0  0
 23 21  1  0  0  0  0
 24 23  2  0  0  0  0
 25 23  1  0  0  0  0
M  END
>  <MODEL>
2

>  <REMARK>
 VINA RESULT:      -8.3      1.237      1.473
  Name = 
  5 active torsions:
  status: ('A' for Active; 'I' for Inactive)
    1  A    between atoms: C_2  and  C_21
    2  A    between atoms: C_6  and  C_15
    3  A    between atoms: C_6  and  O_23
    4  A    between atoms: C_15  and  C_21
    5  A    between atoms: C_16  and  O_23
                            x       y       z     vdW  Elec       q    Type
                         _______ _______ _______ _____ _____    ______ ____

>  <TORSDO>
F 5

$$$$
=
 OpenBabel11052422133D

 25 28  0  0  1  0  0  0  0  0999 V2000
  161.5440  205.9850  151.8670 C   0  0  0  0  0  0  0  0  0  0  0  0
  161.6440  207.3790  151.7200 C   0  0  0  0  0  0  0  0  0  0  0  0
  160.9440  206.1940  154.2030 C   0  0  0  0  0  3  0  0  0  0  0  0
  161.7490  204.8720  150.8990 C   0  0  1  0  0  3  0  0  0  0  0  0
  160.5030  202.4890  149.9380 C   0  0  0  0  0  3  0  0  0  0  0  0
  160.9730  207.5920  154.0680 C   0  0  0  0  0  3  0  0  0  0  0  0
  161.4150  203.7010  151.7780 C   0  0  0  0  0  0  0  0  0  0  0  0
  161.0220  202.4300  151.1700 C   0  0  0  0  0  3  0  0  0  0  0  0
  161.0730  210.1480  151.3820 C   0  0  0  0  0  2  0  0  0  0  0  0
  161.2440  209.5660  152.6760 O   0  0  0  0  0  0  0  0  0  0  0  0
  162.0950  208.0770  150.4810 C   0  0  0  0  0  0  0  0  0  0  0  0
  160.3030  203.7590  149.2770 N   0  0  0  0  0  0  0  0  0  0  0  0
  161.2350  205.4180  153.0850 C   0  0  0  0  0  0  0  0  0  0  0  0
  161.1310  204.0060  153.0060 N   0  0  0  0  0  0  0  0  0  0  0  0
  161.8430  209.3820  150.3410 C   0  0  0  0  0  3  0  0  0  0  0  0
  160.8090  204.8760  149.7240 C   0  0  0  0  0  3  0  0  0  0  0  0
  161.2900  208.1780  152.8290 C   0  0  0  0  0  0  0  0  0  0  0  0
  162.8500  207.4510  149.4840 O   0  0  0  0  0  0  0  0  0  0  0  0
  162.6750  207.7190  148.0970 C   0  0  0  0  0  2  0  0  0  0  0  0
  161.6420  206.7760  147.4820 C   0  0  0  0  0  2  0  0  0  0  0  0
  162.1510  206.0340  146.2440 C   0  0  1  0  0  3  0  0  0  0  0  0
  162.8630  204.7370  146.6020 C   0  0  0  0  0  1  0  0  0  0  0  0
  161.0900  205.8390  145.2050 C   0  0  0  0  0  0  0  0  0  0  0  0
  159.9110  206.2400  145.4010 O   0  0  0  0  0  1  0  0  0  0  0  0
  161.4200  205.2470  143.9940 O   0  0  0  0  0  0  0  0  0  0  0  0
  1 13  1  0  0  0  0
  2  1  2  0  0  0  0
  2 17  1  0  0  0  0
  4 16  1  6  0  0  0
  4  7  1  0  0  0  0
  4  1  1  0  0  0  0
  5  8  2  0  0  0  0
  6  3  1  0  0  0  0
  7 14  2  0  0  0  0
  8  7  1  0  0  0  0
  9 10  1  0  0  0  0
 10 17  1  0  0  0  0
 11  2  1  0  0  0  0
 12 16  2  0  0  0  0
 12  5  1  0  0  0  0
 13  3  2  0  0  0  0
 14 13  1  0  0  0  0
 15 11  2  0  0  0  0
 15  9  1  0  0  0  0
 17  6  2  0  0  0  0
 18 11  1  0  0  0  0
 19 18  1  0  0  0  0
 20 19  1  0  0  0  0
 21 22  1  1  0  0  0
 21 20  1  0  0  0  0
 23 24  1  0  0  0  0
 23 21  1  0  0  0  0
 25 23  2  0  0  0  0
M  END
>  <MODEL>
3

>  <REMARK>
 VINA RESULT:      -8.0      2.601      6.175
  Name = 
  5 active torsions:
  status: ('A' for Active; 'I' for Inactive)
    1  A    between atoms: C_2  and  C_21
    2  A    between atoms: C_6  and  C_15
    3  A    between atoms: C_6  and  O_23
    4  A    between atoms: C_15  and  C_21
    5  A    between atoms: C_16  and  O_23
                            x       y       z     vdW  Elec       q    Type
                         _______ _______ _______ _____ _____    ______ ____

>  <TORSDO>
F 5

$$$$
=
 OpenBabel11052422133D

 25 28  0  0  1  0  0  0  0  0999 V2000
  161.5270  205.3570  149.0290 C   0  0  0  0  0  0  0  0  0  0  0  0
  161.4780  206.1820  150.1670 C   0  0  0  0  0  0  0  0  0  0  0  0
  161.0980  203.3740  150.3510 C   0  0  0  0  0  3  0  0  0  0  0  0
  161.7610  205.6690  147.5920 C   0  0  1  0  0  3  0  0  0  0  0  0
  160.6810  205.1790  144.9940 C   0  0  0  0  0  3  0  0  0  0  0  0
  160.9790  204.1820  151.4930 C   0  0  0  0  0  3  0  0  0  0  0  0
  161.6150  204.2950  147.0030 C   0  0  2  0  0  3  0  0  0  0  0  0
  161.2990  204.1480  145.5820 C   0  0  0  0  0  3  0  0  0  0  0  0
  160.6150  207.7680  152.3670 C   0  0  0  0  0  2  0  0  0  0  0  0
  160.9440  206.3850  152.5180 O   0  0  0  0  0  0  0  0  0  0  0  0
  161.7590  207.6470  150.1710 C   0  0  0  0  0  0  0  0  0  0  0  0
  160.3060  206.3500  145.7540 N   0  0  0  0  0  0  0  0  0  0  0  0
  161.3730  203.9920  149.1330 C   0  0  0  0  0  0  0  0  0  0  0  0
  161.4010  203.3530  147.8680 N   0  0  0  0  0  2  0  0  0  0  0  0
  161.3700  208.3800  151.2190 C   0  0  0  0  0  3  0  0  0  0  0  0
  160.7350  206.5740  146.9670 C   0  0  0  0  0  3  0  0  0  0  0  0
  161.1380  205.5760  151.3960 C   0  0  0  0  0  0  0  0  0  0  0  0
  162.4890  208.2880  149.1660 O   0  0  0  0  0  0  0  0  0  0  0  0
  161.9730  209.3760  148.4080 C   0  0  0  0  0  2  0  0  0  0  0  0
  162.2770  210.7110  149.0850 C   0  0  0  0  0  2  0  0  0  0  0  0
  161.7520  211.9230  148.3130 C   0  0  1  0  0  3  0  0  0  0  0  0
  160.9640  212.8750  149.2020 C   0  0  0  0  0  1  0  0  0  0  0  0
  162.8200  212.6220  147.5300 C   0  0  0  0  0  0  0  0  0  0  0  0
  164.0370  212.3470  147.7080 O   0  0  0  0  0  1  0  0  0  0  0  0
  162.4630  213.5530  146.5650 O   0  0  0  0  0  0  0  0  0  0  0  0
  1 13  2  0  0  0  0
  1  2  1  0  0  0  0
  2 11  1  0  0  0  0
  2 17  2  0  0  0  0
  3  6  2  0  0  0  0
  4 16  1  6  0  0  0
  4  1  1  0  0  0  0
  5  8  2  0  0  0  0
  5 12  1  0  0  0  0
  7  8  1  6  0  0  0
  7  4  1  0  0  0  0
  7 14  1  0  0  0  0
  9 10  1  0  0  0  0
 11 15  2  0  0  0  0
 12 16  2  0  0  0  0
 13  3  1  0  0  0  0
 14 13  1  0  0  0  0
 15  9  1  0  0  0  0
 17  6  1  0  0  0  0
 17 10  1  0  0  0  0
 18 11  1  0  0  0  0
 19 20  1  0  0  0  0
 19 18  1  0  0  0  0
 21 20  1  0  0  0  0
 21 22  1  1  0  0  0
 23 24  1  0  0  0  0
 23 21  1  0  0  0  0
 25 23  2  0  0  0  0
M  END
>  <MODEL>
4

>  <REMARK>
 VINA RESULT:      -7.9      2.597      3.588
  Name = 
  5 active torsions:
  status: ('A' for Active; 'I' for Inactive)
    1  A    between atoms: C_2  and  C_21
    2  A    between atoms: C_6  and  C_15
    3  A    between atoms: C_6  and  O_23
    4  A    between atoms: C_15  and  C_21
    5  A    between atoms: C_16  and  O_23
                            x       y       z     vdW  Elec       q    Type
                         _______ _______ _______ _____ _____    ______ ____

>  <TORSDO>
F 5

$$$$
=
 OpenBabel11052422133D

 25 28  0  0  1  0  0  0  0  0999 V2000
  160.9290  206.3210  151.1880 C   0  0  0  0  0  0  0  0  0  0  0  0
  160.8830  205.1230  150.4540 C   0  0  0  0  0  0  0  0  0  0  0  0
  161.0820  205.1230  153.2870 C   0  0  0  0  0  3  0  0  0  0  0  0
  160.8910  207.7460  150.7570 C   0  0  1  0  0  3  0  0  0  0  0  0
  162.2540  210.2290  151.1220 C   0  0  0  0  0  3  0  0  0  0  0  0
  161.1030  203.9130  152.5750 C   0  0  0  0  0  3  0  0  0  0  0  0
  161.0330  208.4230  152.0890 C   0  0  0  0  0  0  0  0  0  0  0  0
  161.5120  209.8030  152.1510 C   0  0  0  0  0  3  0  0  0  0  0  0
  161.5550  202.7140  149.0940 C   0  0  0  0  0  2  0  0  0  0  0  0
  161.1340  202.7160  150.4600 O   0  0  0  0  0  0  0  0  0  0  0  0
  160.6860  205.0320  148.9780 C   0  0  0  0  0  0  0  0  0  0  0  0
  162.5970  209.3370  150.0370 N   0  0  0  0  0  0  0  0  0  0  0  0
  160.9930  206.3110  152.5640 C   0  0  0  0  0  0  0  0  0  0  0  0
  161.0860  207.6180  153.1050 N   0  0  0  0  0  0  0  0  0  0  0  0
  160.9820  203.8900  148.3510 C   0  0  0  0  0  3  0  0  0  0  0  0
  162.0350  208.1700  149.8760 C   0  0  0  0  0  3  0  0  0  0  0  0
  161.0360  203.9150  151.1690 C   0  0  0  0  0  0  0  0  0  0  0  0
  160.1210  206.0620  148.2190 O   0  0  0  0  0  0  0  0  0  0  0  0
  160.4980  206.3270  146.8720 C   0  0  0  0  0  2  0  0  0  0  0  0
  162.0160  206.4200  146.7340 C   0  0  0  0  0  2  0  0  0  0  0  0
  162.5770  205.6020  145.5700 C   0  0  1  0  0  3  0  0  0  0  0  0
  163.5080  204.4940  146.0410 C   0  0  0  0  0  1  0  0  0  0  0  0
  161.5110  205.1010  144.6440 C   0  0  0  0  0  0  0  0  0  0  0  0
  161.2010  205.7460  143.6060 O   0  0  0  0  0  0  0  0  0  0  0  0
  160.8880  203.8900  144.9100 O   0  0  0  0  0  1  0  0  0  0  0  0
  1 13  1  0  0  0  0
  2 17  1  0  0  0  0
  2  1  2  0  0  0  0
  4 16  1  6  0  0  0
  4  1  1  0  0  0  0
  4  7  1  0  0  0  0
  5  8  2  0  0  0  0
  6  3  1  0  0  0  0
  7  8  1  0  0  0  0
  7 14  2  0  0  0  0
  9 10  1  0  0  0  0
 10 17  1  0  0  0  0
 11  2  1  0  0  0  0
 12  5  1  0  0  0  0
 13 14  1  0  0  0  0
 13  3  2  0  0  0  0
 15 11  2  0  0  0  0
 15  9  1  0  0  0  0
 16 12  2  0  0  0  0
 17  6  2  0  0  0  0
 18 11  1  0  0  0  0
 19 18  1  0  0  0  0
 20 19  1  0  0  0  0
 21 22  1  1  0  0  0
 21 20  1  0  0  0  0
 23 25  1  0  0  0  0
 23 21  1  0  0  0  0
 24 23  2  0  0  0  0
M  END
>  <MODEL>
5

>  <REMARK>
 VINA RESULT:      -7.9      2.899      6.139
  Name = 
  5 active torsions:
  status: ('A' for Active; 'I' for Inactive)
    1  A    between atoms: C_2  and  C_21
    2  A    between atoms: C_6  and  C_15
    3  A    between atoms: C_6  and  O_23
    4  A    between atoms: C_15  and  C_21
    5  A    between atoms: C_16  and  O_23
                            x       y       z     vdW  Elec       q    Type
                         _______ _______ _______ _____ _____    ______ ____

>  <TORSDO>
F 5

$$$$
=
 OpenBabel11052422133D

 25 28  0  0  1  0  0  0  0  0999 V2000
  161.0260  204.2590  149.6750 C   0  0  0  0  0  0  0  0  0  0  0  0
  161.1950  204.2990  148.2790 C   0  0  0  0  0  0  0  0  0  0  0  0
  160.8370  201.8450  149.6620 C   0  0  0  0  0  3  0  0  0  0  0  0
  160.9890  205.3400  150.6970 C   0  0  1  0  0  3  0  0  0  0  0  0
  162.1070  206.0680  153.2220 C   0  0  0  0  0  3  0  0  0  0  0  0
  161.0680  201.8500  148.2770 C   0  0  0  0  0  3  0  0  0  0  0  0
  160.8280  204.5150  151.9400 C   0  0  0  0  0  0  0  0  0  0  0  0
  161.2040  205.0800  153.2360 C   0  0  0  0  0  3  0  0  0  0  0  0
  162.2600  204.1730  145.6420 C   0  0  0  0  0  2  0  0  0  0  0  0
  161.5810  203.0630  146.2340 O   0  0  0  0  0  0  0  0  0  0  0  0
  161.2950  205.5460  147.4670 C   0  0  0  0  0  0  0  0  0  0  0  0
  162.7060  206.5070  151.9820 N   0  0  0  0  0  0  0  0  0  0  0  0
  160.8210  203.0650  150.3320 C   0  0  0  0  0  0  0  0  0  0  0  0
  160.7300  203.2380  151.7370 N   0  0  0  0  0  0  0  0  0  0  0  0
  161.7750  205.4740  146.2210 C   0  0  0  0  0  3  0  0  0  0  0  0
  162.2560  206.1440  150.8110 C   0  0  0  0  0  3  0  0  0  0  0  0
  161.2760  203.0650  147.5980 C   0  0  0  0  0  0  0  0  0  0  0  0
  160.8300  206.7870  147.9130 O   0  0  0  0  0  0  0  0  0  0  0  0
  161.4210  208.0210  147.5220 C   0  0  0  0  0  2  0  0  0  0  0  0
  162.3010  208.5860  148.6360 C   0  0  0  0  0  2  0  0  0  0  0  0
  161.7160  209.8290  149.3080 C   0  0  1  0  0  3  0  0  0  0  0  0
  162.1410  209.9500  150.7640 C   0  0  0  0  0  1  0  0  0  0  0  0
  161.9670  211.0840  148.5300 C   0  0  0  0  0  0  0  0  0  0  0  0
  163.0650  211.6960  148.6260 O   0  0  0  0  0  1  0  0  0  0  0  0
  160.9950  211.5550  147.6590 O   0  0  0  0  0  0  0  0  0  0  0  0
  1 13  1  0  0  0  0
  1  4  1  0  0  0  0
  2  1  2  0  0  0  0
  3 13  2  0  0  0  0
  4 16  1  1  0  0  0
  4  7  1  0  0  0  0
  5  8  2  0  0  0  0
  6  3  1  0  0  0  0
  7  8  1  0  0  0  0
  9 15  1  0  0  0  0
  9 10  1  0  0  0  0
 10 17  1  0  0  0  0
 11 18  1  0  0  0  0
 11  2  1  0  0  0  0
 12  5  1  0  0  0  0
 13 14  1  0  0  0  0
 14  7  2  0  0  0  0
 15 11  2  0  0  0  0
 16 12  2  0  0  0  0
 17  6  2  0  0  0  0
 17  2  1  0  0  0  0
 19 18  1  0  0  0  0
 19 20  1  0  0  0  0
 20 21  1  0  0  0  0
 21 22  1  1  0  0  0
 23 24  1  0  0  0  0
 23 21  1  0  0  0  0
 25 23  2  0  0  0  0
M  END
>  <MODEL>
6

>  <REMARK>
 VINA RESULT:      -7.8      2.673      4.617
  Name = 
  5 active torsions:
  status: ('A' for Active; 'I' for Inactive)
    1  A    between atoms: C_2  and  C_21
    2  A    between atoms: C_6  and  C_15
    3  A    between atoms: C_6  and  O_23
    4  A    between atoms: C_15  and  C_21
    5  A    between atoms: C_16  and  O_23
                            x       y       z     vdW  Elec       q    Type
                         _______ _______ _______ _____ _____    ______ ____

>  <TORSDO>
F 5

$$$$
=
 OpenBabel11052422133D

 25 28  0  0  1  0  0  0  0  0999 V2000
  161.0290  206.3510  150.2460 C   0  0  0  0  0  0  0  0  0  0  0  0
  161.3090  207.6170  150.7900 C   0  0  0  0  0  0  0  0  0  0  0  0
  161.4410  207.1400  147.9940 C   0  0  0  0  0  3  0  0  0  0  0  0
  160.6350  205.0660  150.8860 C   0  0  1  0  0  3  0  0  0  0  0  0
  161.3040  202.2900  150.9230 C   0  0  0  0  0  3  0  0  0  0  0  0
  161.7890  208.3960  148.5160 C   0  0  0  0  0  3  0  0  0  0  0  0
  160.5690  204.1840  149.6730 C   0  0  0  0  0  0  0  0  0  0  0  0
  160.6740  202.7330  149.8280 C   0  0  0  0  0  3  0  0  0  0  0  0
  162.6090  209.9470  151.7850 C   0  0  0  0  0  2  0  0  0  0  0  0
  162.1720  209.8490  150.4270 O   0  0  0  0  0  0  0  0  0  0  0  0
  161.1730  207.9760  152.2320 C   0  0  0  0  0  0  0  0  0  0  0  0
  161.8870  203.2150  151.8680 N   0  0  0  0  0  0  0  0  0  0  0  0
  161.0650  206.1380  148.8850 C   0  0  0  0  0  0  0  0  0  0  0  0
  160.8060  204.7850  148.5490 N   0  0  0  0  0  0  0  0  0  0  0  0
  161.7680  209.0840  152.6850 C   0  0  0  0  0  3  0  0  0  0  0  0
  161.6490  204.4980  151.8410 C   0  0  0  0  0  3  0  0  0  0  0  0
  161.7530  208.6230  149.9040 C   0  0  0  0  0  0  0  0  0  0  0  0
  160.3790  207.2520  153.1270 O   0  0  0  0  0  0  0  0  0  0  0  0
  160.8230  206.8740  154.4250 C   0  0  0  0  0  2  0  0  0  0  0  0
  159.8320  207.3230  155.4970 C   0  0  0  0  0  2  0  0  0  0  0  0
  160.3570  208.4560  156.3810 C   0  0  1  0  0  3  0  0  0  0  0  0
  161.8470  208.3240  156.6600 C   0  0  0  0  0  1  0  0  0  0  0  0
  159.9860  209.8130  155.8700 C   0  0  0  0  0  0  0  0  0  0  0  0
  158.7890  210.0980  155.5980 O   0  0  0  0  0  0  0  0  0  0  0  0
  160.9690  210.7840  155.7330 O   0  0  0  0  0  1  0  0  0  0  0  0
  1  2  1  0  0  0  0
  1  4  1  0  0  0  0
  2 11  1  0  0  0  0
  3  6  2  0  0  0  0
  3 13  1  0  0  0  0
  4 16  1  1  0  0  0
  5 12  1  0  0  0  0
  6 17  1  0  0  0  0
  7  8  1  0  0  0  0
  7  4  1  0  0  0  0
  8  5  2  0  0  0  0
  9 15  1  0  0  0  0
 10  9  1  0  0  0  0
 11 15  2  0  0  0  0
 11 18  1  0  0  0  0
 13  1  2  0  0  0  0
 14 13  1  0  0  0  0
 14  7  2  0  0  0  0
 16 12  2  0  0  0  0
 17 10  1  0  0  0  0
 17  2  2  0  0  0  0
 18 19  1  0  0  0  0
 19 20  1  0  0  0  0
 20 21  1  0  0  0  0
 21 22  1  6  0  0  0
 23 21  1  0  0  0  0
 24 23  2  0  0  0  0
 25 23  1  0  0  0  0
M  END
>  <MODEL>
7

>  <REMARK>
 VINA RESULT:      -7.7      2.360      5.028
  Name = 
  5 active torsions:
  status: ('A' for Active; 'I' for Inactive)
    1  A    between atoms: C_2  and  C_21
    2  A    between atoms: C_6  and  C_15
    3  A    between atoms: C_6  and  O_23
    4  A    between atoms: C_15  and  C_21
    5  A    between atoms: C_16  and  O_23
                            x       y       z     vdW  Elec       q    Type
                         _______ _______ _______ _____ _____    ______ ____

>  <TORSDO>
F 5

$$$$
=
 OpenBabel11052422133D

 25 28  0  0  1  0  0  0  0  0999 V2000
  161.1290  204.3970  149.5070 C   0  0  0  0  0  0  0  0  0  0  0  0
  161.4450  204.5370  148.1440 C   0  0  0  0  0  0  0  0  0  0  0  0
  160.7780  202.0140  149.2630 C   0  0  0  0  0  3  0  0  0  0  0  0
  161.0580  205.3930  150.6120 C   0  0  1  0  0  3  0  0  0  0  0  0
  161.9510  205.8260  153.2900 C   0  0  0  0  0  3  0  0  0  0  0  0
  161.1530  202.1140  147.9140 C   0  0  0  0  0  3  0  0  0  0  0  0
  160.7110  204.4850  151.7560 C   0  0  2  0  0  3  0  0  0  0  0  0
  160.9860  204.9120  153.1270 C   0  0  0  0  0  3  0  0  0  0  0  0
  162.7710  204.5430  145.6250 C   0  0  0  0  0  2  0  0  0  0  0  0
  161.9590  203.4450  146.0460 O   0  0  0  0  0  0  0  0  0  0  0  0
  161.7150  205.8340  147.4590 C   0  0  0  0  0  0  0  0  0  0  0  0
  162.7060  206.3160  152.1590 N   0  0  0  0  0  0  0  0  0  0  0  0
  160.7750  203.1740  150.0330 C   0  0  0  0  0  0  0  0  0  0  0  0
  160.5480  203.2400  151.4310 N   0  0  0  0  0  2  0  0  0  0  0  0
  162.3170  205.8260  146.2650 C   0  0  0  0  0  3  0  0  0  0  0  0
  162.3580  206.0850  150.9220 C   0  0  0  0  0  3  0  0  0  0  0  0
  161.5130  203.3600  147.3680 C   0  0  0  0  0  0  0  0  0  0  0  0
  161.2910  207.0670  147.9640 O   0  0  0  0  0  0  0  0  0  0  0  0
  162.1920  208.0520  148.4600 C   0  0  0  0  0  2  0  0  0  0  0  0
  161.5830  209.4490  148.3680 C   0  0  0  0  0  2  0  0  0  0  0  0
  162.3210  210.4950  149.2060 C   0  0  1  0  0  3  0  0  0  0  0  0
  162.1720  211.8980  148.6360 C   0  0  0  0  0  1  0  0  0  0  0  0
  161.9730  210.4260  150.6610 C   0  0  0  0  0  0  0  0  0  0  0  0
  161.0040  211.0840  151.1260 O   0  0  0  0  0  0  0  0  0  0  0  0
  162.7010  209.5940  151.4990 O   0  0  0  0  0  1  0  0  0  0  0  0
  1 13  1  0  0  0  0
  1  4  1  0  0  0  0
  2  1  2  0  0  0  0
  3 13  2  0  0  0  0
  4 16  1  1  0  0  0
  4  7  1  0  0  0  0
  6  3  1  0  0  0  0
  7  8  1  1  0  0  0
  8  5  2  0  0  0  0
  9 10  1  0  0  0  0
  9 15  1  0  0  0  0
 10 17  1  0  0  0  0
 11 18  1  0  0  0  0
 11  2  1  0  0  0  0
 12  5  1  0  0  0  0
 13 14  1  0  0  0  0
 14  7  1  0  0  0  0
 15 11  2  0  0  0  0
 16 12  2  0  0  0  0
 17  6  2  0  0  0  0
 17  2  1  0  0  0  0
 18 19  1  0  0  0  0
 20 19  1  0  0  0  0
 20 21  1  0  0  0  0
 21 22  1  6  0  0  0
 21 23  1  0  0  0  0
 23 24  2  0  0  0  0
 23 25  1  0  0  0  0
M  END
>  <MODEL>
8

>  <REMARK>
 VINA RESULT:      -7.6      2.578      4.551
  Name = 
  5 active torsions:
  status: ('A' for Active; 'I' for Inactive)
    1  A    between atoms: C_2  and  C_21
    2  A    between atoms: C_6  and  C_15
    3  A    between atoms: C_6  and  O_23
    4  A    between atoms: C_15  and  C_21
    5  A    between atoms: C_16  and  O_23
                            x       y       z     vdW  Elec       q    Type
                         _______ _______ _______ _____ _____    ______ ____

>  <TORSDO>
F 5

$$$$
=
 OpenBabel11052422133D

 25 28  0  0  1  0  0  0  0  0999 V2000
  161.0800  206.0720  150.0310 C   0  0  0  0  0  0  0  0  0  0  0  0
  161.3780  207.3710  150.4790 C   0  0  0  0  0  0  0  0  0  0  0  0
  161.5000  206.6840  147.7270 C   0  0  0  0  0  3  0  0  0  0  0  0
  160.6690  204.8440  150.7650 C   0  0  1  0  0  3  0  0  0  0  0  0
  161.3010  202.0690  151.0100 C   0  0  0  0  0  3  0  0  0  0  0  0
  161.8660  207.9710  148.1530 C   0  0  0  0  0  3  0  0  0  0  0  0
  160.5900  203.8740  149.6220 C   0  0  0  0  0  0  0  0  0  0  0  0
  160.6760  202.4380  149.8860 C   0  0  0  0  0  3  0  0  0  0  0  0
  162.7100  209.7510  151.2960 C   0  0  0  0  0  2  0  0  0  0  0  0
  162.2710  209.5580  149.9500 O   0  0  0  0  0  0  0  0  0  0  0  0
  161.2490  207.8380  151.8900 C   0  0  0  0  0  0  0  0  0  0  0  0
  161.8980  203.0550  151.8830 N   0  0  0  0  0  0  0  0  0  0  0  0
  161.1110  205.7570  148.6900 C   0  0  0  0  0  0  0  0  0  0  0  0
  160.8340  204.3860  148.4560 N   0  0  0  0  0  0  0  0  0  0  0  0
  161.8590  208.9690  152.2590 C   0  0  0  0  0  3  0  0  0  0  0  0
  161.6770  204.3360  151.7610 C   0  0  0  0  0  3  0  0  0  0  0  0
  161.8340  208.3010  149.5200 C   0  0  0  0  0  0  0  0  0  0  0  0
  160.4460  207.1950  152.8360 O   0  0  0  0  0  0  0  0  0  0  0  0
  160.9110  206.8410  154.1340 C   0  0  0  0  0  2  0  0  0  0  0  0
  160.1210  207.5710  155.2190 C   0  0  0  0  0  2  0  0  0  0  0  0
  160.4200  209.0700  155.2910 C   0  0  1  0  0  3  0  0  0  0  0  0
  159.2170  209.8750  155.7610 C   0  0  0  0  0  1  0  0  0  0  0  0
  161.6590  209.3790  156.0740 C   0  0  0  0  0  0  0  0  0  0  0  0
  162.4620  210.2710  155.6900 O   0  0  0  0  0  0  0  0  0  0  0  0
  161.9040  208.7020  157.2610 O   0  0  0  0  0  1  0  0  0  0  0  0
  1  2  1  0  0  0  0
  1  4  1  0  0  0  0
  2 11  1  0  0  0  0
  3  6  2  0  0  0  0
  3 13  1  0  0  0  0
  4 16  1  1  0  0  0
  5 12  1  0  0  0  0
  6 17  1  0  0  0  0
  7  8  1  0  0  0  0
  7  4  1  0  0  0  0
  8  5  2  0  0  0  0
  9 15  1  0  0  0  0
 10  9  1  0  0  0  0
 11 15  2  0  0  0  0
 11 18  1  0  0  0  0
 13  1  2  0  0  0  0
 14 13  1  0  0  0  0
 14  7  2  0  0  0  0
 16 12  2  0  0  0  0
 17 10  1  0  0  0  0
 17  2  2  0  0  0  0
 18 19  1  0  0  0  0
 19 20  1  0  0  0  0
 20 21  1  0  0  0  0
 21 22  1  1  0  0  0
 21 23  1  0  0  0  0
 23 25  1  0  0  0  0
 24 23  2  0  0  0  0
M  END
>  <MODEL>
9

>  <REMARK>
 VINA RESULT:      -7.5      2.344      4.867
  Name = 
  5 active torsions:
  status: ('A' for Active; 'I' for Inactive)
    1  A    between atoms: C_2  and  C_21
    2  A    between atoms: C_6  and  C_15
    3  A    between atoms: C_6  and  O_23
    4  A    between atoms: C_15  and  C_21
    5  A    between atoms: C_16  and  O_23
                            x       y       z     vdW  Elec       q    Type
                         _______ _______ _______ _____ _____    ______ ____

>  <TORSDO>
F 5

$$$$
