=
 OpenBabel11052422103D

 25 28  0  0  0  0  0  0  0  0999 V2000
  161.2530  204.4320  149.6430 C   0  0  0  0  0  0  0  0  0  0  0  0
  161.3810  205.5160  150.5390 C   0  0  0  0  0  0  0  0  0  0  0  0
  160.7710  202.9070  151.4850 C   0  0  0  0  0  3  0  0  0  0  0  0
  161.3930  204.4320  148.2410 C   0  0  0  0  0  0  0  0  0  0  0  0
  161.7500  209.1980  150.7540 C   0  0  0  0  0  0  0  0  0  0  0  0
  161.5870  204.0420  145.4780 C   0  0  0  0  0  3  0  0  0  0  0  0
  160.8960  203.9740  152.3790 C   0  0  0  0  0  3  0  0  0  0  0  0
  161.1980  203.1720  147.6770 C   0  0  0  0  0  0  0  0  0  0  0  0
  161.2890  202.9500  146.3060 C   0  0  0  0  0  3  0  0  0  0  0  0
  161.3070  206.3880  152.8890 C   0  0  0  0  0  0  0  0  0  0  0  0
  161.1610  206.1000  154.6160 Cl  0  0  0  0  0  0  0  0  0  0  0  0
  161.8880  210.4490  150.4070 C   0  0  0  0  0  3  0  0  0  0  0  0
  161.7620  206.8880  150.0470 C   0  0  0  0  0  2  0  0  0  0  0  0
  161.7860  205.3210  146.0290 C   0  0  0  0  0  3  0  0  0  0  0  0
  160.9510  203.1600  150.1310 C   0  0  0  0  0  0  0  0  0  0  0  0
  160.8530  202.0400  148.8750 S   0  0  0  0  0  0  0  0  0  0  0  0
  161.4850  207.6070  152.4790 N   0  0  0  0  0  0  0  0  0  0  0  0
  161.6900  205.5230  147.4140 C   0  0  0  0  0  3  0  0  0  0  0  0
  161.6150  207.9480  151.0960 C   0  0  0  0  0  0  0  0  0  0  0  0
  161.2000  205.2720  151.9230 C   0  0  0  0  0  0  0  0  0  0  0  0
  162.0260  210.8540  149.0010 C   0  0  0  0  0  0  0  0  0  0  0  0
  161.9820  209.9920  148.0800 O   0  0  0  0  0  0  0  0  0  0  0  0
  162.2200  212.2700  148.6630 C   0  0  0  0  0  0  0  0  0  0  0  0
  163.3500  212.6780  147.9660 O   0  0  0  0  0  0  0  0  0  0  0  0
  161.3620  213.1260  149.0050 O   0  0  0  0  0  1  0  0  0  0  0  0
  1 15  1  0  0  0  0
  1  2  2  0  0  0  0
  2 20  1  0  0  0  0
  3  7  1  0  0  0  0
  4  1  1  0  0  0  0
  5 19  2  0  0  0  0
  6 14  2  0  0  0  0
  6  9  1  0  0  0  0
  8  4  1  0  0  0  0
  8 16  1  0  0  0  0
  9  8  2  0  0  0  0
 10 11  1  0  0  0  0
 12  5  2  0  0  0  0
 13  2  1  0  0  0  0
 13 19  1  0  0  0  0
 14 18  1  0  0  0  0
 15  3  2  0  0  0  0
 16 15  1  0  0  0  0
 17 10  2  0  0  0  0
 18  4  2  0  0  0  0
 19 17  1  0  0  0  0
 20  7  2  0  0  0  0
 20 10  1  0  0  0  0
 21 12  1  0  0  0  0
 22 21  2  0  0  0  0
 23 21  1  0  0  0  0
 23 25  1  0  0  0  0
 24 23  2  0  0  0  0
M  END
>  <MODEL>
1

>  <REMARK>
 VINA RESULT:     -10.2      0.000      0.000
  Name = 
  2 active torsions:
  status: ('A' for Active; 'I' for Inactive)
    1  A    between atoms: C_2  and  C_21
    2  A    between atoms: C_15  and  C_21
                            x       y       z     vdW  Elec       q    Type
                         _______ _______ _______ _____ _____    ______ ____

>  <TORSDO>
F 2

$$$$
=
 OpenBabel11052422103D

 25 28  0  0  0  0  0  0  0  0999 V2000
  161.4030  205.1530  148.7440 C   0  0  0  0  0  0  0  0  0  0  0  0
  161.4200  206.4090  149.3890 C   0  0  0  0  0  0  0  0  0  0  0  0
  162.0110  206.1850  146.6190 C   0  0  0  0  0  3  0  0  0  0  0  0
  161.1140  203.8890  149.2950 C   0  0  0  0  0  0  0  0  0  0  0  0
  161.2400  208.0850  152.6910 C   0  0  0  0  0  0  0  0  0  0  0  0
  160.6100  201.2360  150.0210 C   0  0  0  0  0  3  0  0  0  0  0  0
  162.0290  207.4330  147.2490 C   0  0  0  0  0  3  0  0  0  0  0  0
  161.1920  202.8600  148.3570 C   0  0  0  0  0  0  0  0  0  0  0  0
  160.9450  201.5310  148.6920 C   0  0  0  0  0  3  0  0  0  0  0  0
  161.7830  208.8880  149.2680 C   0  0  0  0  0  0  0  0  0  0  0  0
  162.1000  210.3370  148.3250 Cl  0  0  0  0  0  0  0  0  0  0  0  0
  161.1230  208.2720  153.9770 C   0  0  0  0  0  3  0  0  0  0  0  0
  161.0510  206.5400  150.8440 C   0  0  0  0  0  2  0  0  0  0  0  0
  160.5280  202.2610  150.9810 C   0  0  0  0  0  3  0  0  0  0  0  0
  161.6980  205.0680  147.3830 C   0  0  0  0  0  0  0  0  0  0  0  0
  161.6120  203.4720  146.8460 S   0  0  0  0  0  0  0  0  0  0  0  0
  161.6170  209.0090  150.5500 N   0  0  0  0  0  0  0  0  0  0  0  0
  160.7800  203.5940  150.6220 C   0  0  0  0  0  3  0  0  0  0  0  0
  161.3550  207.8940  151.4070 C   0  0  0  0  0  0  0  0  0  0  0  0
  161.7360  207.5580  148.6210 C   0  0  0  0  0  0  0  0  0  0  0  0
  160.8530  207.1620  154.9020 C   0  0  0  0  0  0  0  0  0  0  0  0
  160.7400  205.9820  154.4680 O   0  0  0  0  0  0  0  0  0  0  0  0
  160.7130  207.4250  156.3390 C   0  0  0  0  0  0  0  0  0  0  0  0
  161.6880  208.1440  157.0200 O   0  0  0  0  0  1  0  0  0  0  0  0
  159.7060  207.0000  156.9660 O   0  0  0  0  0  0  0  0  0  0  0  0
  1  4  1  0  0  0  0
  1  2  1  0  0  0  0
  2 13  1  0  0  0  0
  3  7  2  0  0  0  0
  3 15  1  0  0  0  0
  4 18  1  0  0  0  0
  5 12  2  0  0  0  0
  6 14  1  0  0  0  0
  7 20  1  0  0  0  0
  8  9  1  0  0  0  0
  8  4  2  0  0  0  0
  9  6  2  0  0  0  0
 10 17  2  0  0  0  0
 11 10  1  0  0  0  0
 12 21  1  0  0  0  0
 13 19  1  0  0  0  0
 15  1  2  0  0  0  0
 16 15  1  0  0  0  0
 16  8  1  0  0  0  0
 17 19  1  0  0  0  0
 18 14  2  0  0  0  0
 19  5  2  0  0  0  0
 20 10  1  0  0  0  0
 20  2  2  0  0  0  0
 21 23  1  0  0  0  0
 22 21  2  0  0  0  0
 23 25  2  0  0  0  0
 23 24  1  0  0  0  0
M  END
>  <MODEL>
2

>  <REMARK>
 VINA RESULT:      -9.7      3.764      5.344
  Name = 
  2 active torsions:
  status: ('A' for Active; 'I' for Inactive)
    1  A    between atoms: C_2  and  C_21
    2  A    between atoms: C_15  and  C_21
                            x       y       z     vdW  Elec       q    Type
                         _______ _______ _______ _____ _____    ______ ____

>  <TORSDO>
F 2

$$$$
=
 OpenBabel11052422103D

 25 28  0  0  0  0  0  0  0  0999 V2000
  161.4150  206.0420  149.6300 C   0  0  0  0  0  0  0  0  0  0  0  0
  161.4800  207.3240  150.2170 C   0  0  0  0  0  0  0  0  0  0  0  0
  161.8500  206.9810  147.4210 C   0  0  0  0  0  3  0  0  0  0  0  0
  161.1730  204.8020  150.2550 C   0  0  0  0  0  0  0  0  0  0  0  0
  161.5590  209.1390  153.4490 C   0  0  0  0  0  0  0  0  0  0  0  0
  160.7330  202.1830  151.1310 C   0  0  0  0  0  3  0  0  0  0  0  0
  161.9160  208.2550  147.9940 C   0  0  0  0  0  3  0  0  0  0  0  0
  161.1780  203.7340  149.3590 C   0  0  0  0  0  0  0  0  0  0  0  0
  160.9620  202.4220  149.7680 C   0  0  0  0  0  3  0  0  0  0  0  0
  161.8270  209.7950  149.9630 C   0  0  0  0  0  0  0  0  0  0  0  0
  162.0660  211.2020  148.9370 Cl  0  0  0  0  0  0  0  0  0  0  0  0
  161.5440  209.3810  154.7310 C   0  0  0  0  0  3  0  0  0  0  0  0
  161.2270  207.5170  151.6900 C   0  0  0  0  0  2  0  0  0  0  0  0
  160.7250  203.2480  152.0500 C   0  0  0  0  0  3  0  0  0  0  0  0
  161.6010  205.8990  148.2550 C   0  0  0  0  0  0  0  0  0  0  0  0
  161.4760  204.2810  147.7950 S   0  0  0  0  0  0  0  0  0  0  0  0
  161.7630  209.9710  151.2480 N   0  0  0  0  0  0  0  0  0  0  0  0
  160.9460  204.5640  151.6160 C   0  0  0  0  0  3  0  0  0  0  0  0
  161.5730  208.8930  152.1690 C   0  0  0  0  0  0  0  0  0  0  0  0
  161.7330  208.4390  149.3790 C   0  0  0  0  0  0  0  0  0  0  0  0
  161.3510  208.3110  155.7210 C   0  0  0  0  0  0  0  0  0  0  0  0
  162.0350  208.2910  156.7810 O   0  0  0  0  0  0  0  0  0  0  0  0
  160.3580  207.2570  155.4740 C   0  0  0  0  0  0  0  0  0  0  0  0
  160.6520  206.2010  154.6200 O   0  0  0  0  0  0  0  0  0  0  0  0
  159.2310  207.3050  156.0340 O   0  0  0  0  0  1  0  0  0  0  0  0
  1  2  1  0  0  0  0
  1  4  1  0  0  0  0
  2 13  1  0  0  0  0
  3  7  2  0  0  0  0
  3 15  1  0  0  0  0
  4 18  1  0  0  0  0
  5 12  2  0  0  0  0
  6 14  1  0  0  0  0
  7 20  1  0  0  0  0
  8  9  1  0  0  0  0
  8  4  2  0  0  0  0
  9  6  2  0  0  0  0
 10 17  2  0  0  0  0
 11 10  1  0  0  0  0
 12 21  1  0  0  0  0
 13 19  1  0  0  0  0
 15  1  2  0  0  0  0
 16 15  1  0  0  0  0
 16  8  1  0  0  0  0
 17 19  1  0  0  0  0
 18 14  2  0  0  0  0
 19  5  2  0  0  0  0
 20 10  1  0  0  0  0
 20  2  2  0  0  0  0
 21 22  2  0  0  0  0
 23 21  1  0  0  0  0
 23 25  1  0  0  0  0
 24 23  2  0  0  0  0
M  END
>  <MODEL>
3

>  <REMARK>
 VINA RESULT:      -9.2      3.773      5.429
  Name = 
  2 active torsions:
  status: ('A' for Active; 'I' for Inactive)
    1  A    between atoms: C_2  and  C_21
    2  A    between atoms: C_15  and  C_21
                            x       y       z     vdW  Elec       q    Type
                         _______ _______ _______ _____ _____    ______ ____

>  <TORSDO>
F 2

$$$$
=
 OpenBabel11052422103D

 25 28  0  0  0  0  0  0  0  0999 V2000
  161.2970  206.0900  151.3080 C   0  0  0  0  0  0  0  0  0  0  0  0
  161.1680  204.9600  150.4730 C   0  0  0  0  0  0  0  0  0  0  0  0
  160.8950  204.7280  153.2910 C   0  0  0  0  0  3  0  0  0  0  0  0
  161.5560  207.4260  150.9410 C   0  0  0  0  0  0  0  0  0  0  0  0
  161.5820  203.7390  146.9960 C   0  0  0  0  0  0  0  0  0  0  0  0
  162.0580  210.1570  150.6060 C   0  0  0  0  0  3  0  0  0  0  0  0
  160.7660  203.6020  152.4720 C   0  0  0  0  0  3  0  0  0  0  0  0
  161.6150  208.2860  152.0380 C   0  0  0  0  0  0  0  0  0  0  0  0
  161.8630  209.6480  151.8990 C   0  0  0  0  0  3  0  0  0  0  0  0
  160.7760  202.4940  150.2290 C   0  0  0  0  0  0  0  0  0  0  0  0
  160.3680  200.9400  150.9400 Cl  0  0  0  0  0  0  0  0  0  0  0  0
  161.8280  203.7190  145.7150 C   0  0  0  0  0  3  0  0  0  0  0  0
  161.2540  205.0880  148.9740 C   0  0  0  0  0  2  0  0  0  0  0  0
  162.0030  209.3040  149.4890 C   0  0  0  0  0  3  0  0  0  0  0  0
  161.1600  205.9510  152.6900 C   0  0  0  0  0  0  0  0  0  0  0  0
  161.3530  207.4350  153.4670 S   0  0  0  0  0  0  0  0  0  0  0  0
  160.9960  202.5500  148.9510 N   0  0  0  0  0  0  0  0  0  0  0  0
  161.7510  207.9330  149.6510 C   0  0  0  0  0  3  0  0  0  0  0  0
  161.3350  203.7650  148.2760 C   0  0  0  0  0  0  0  0  0  0  0  0
  160.8980  203.7040  151.0720 C   0  0  0  0  0  0  0  0  0  0  0  0
  162.1800  204.9380  144.9720 C   0  0  0  0  0  0  0  0  0  0  0  0
  163.3690  205.3610  144.9650 O   0  0  0  0  0  0  0  0  0  0  0  0
  161.1430  205.6700  144.2350 C   0  0  0  0  0  0  0  0  0  0  0  0
  160.0440  206.1970  144.9040 O   0  0  0  0  0  1  0  0  0  0  0  0
  161.2400  205.8250  142.9890 O   0  0  0  0  0  0  0  0  0  0  0  0
  1 15  2  0  0  0  0
  2 20  2  0  0  0  0
  2  1  1  0  0  0  0
  4  1  1  0  0  0  0
  4  8  1  0  0  0  0
  5 19  2  0  0  0  0
  6  9  1  0  0  0  0
  7  3  2  0  0  0  0
  8 16  1  0  0  0  0
  9  8  2  0  0  0  0
 10 11  1  0  0  0  0
 10 20  1  0  0  0  0
 12  5  2  0  0  0  0
 13  2  1  0  0  0  0
 14 18  1  0  0  0  0
 14  6  2  0  0  0  0
 15  3  1  0  0  0  0
 15 16  1  0  0  0  0
 17 10  2  0  0  0  0
 18  4  2  0  0  0  0
 19 17  1  0  0  0  0
 19 13  1  0  0  0  0
 20  7  1  0  0  0  0
 21 12  1  0  0  0  0
 22 21  2  0  0  0  0
 23 24  1  0  0  0  0
 23 21  1  0  0  0  0
 25 23  2  0  0  0  0
M  END
>  <MODEL>
4

>  <REMARK>
 VINA RESULT:      -9.1      3.527      5.882
  Name = 
  2 active torsions:
  status: ('A' for Active; 'I' for Inactive)
    1  A    between atoms: C_2  and  C_21
    2  A    between atoms: C_15  and  C_21
                            x       y       z     vdW  Elec       q    Type
                         _______ _______ _______ _____ _____    ______ ____

>  <TORSDO>
F 2

$$$$
=
 OpenBabel11052422103D

 25 28  0  0  0  0  0  0  0  0999 V2000
  161.0930  203.3140  148.2850 C   0  0  0  0  0  0  0  0  0  0  0  0
  161.2060  204.5470  147.6070 C   0  0  0  0  0  0  0  0  0  0  0  0
  161.1060  202.0980  146.1700 C   0  0  0  0  0  3  0  0  0  0  0  0
  161.0130  203.0810  149.6720 C   0  0  0  0  0  0  0  0  0  0  0  0
  161.7620  208.1830  148.0720 C   0  0  0  0  0  0  0  0  0  0  0  0
  160.8360  202.2290  152.3300 C   0  0  0  0  0  3  0  0  0  0  0  0
  161.2170  203.3140  145.4900 C   0  0  0  0  0  3  0  0  0  0  0  0
  160.9080  201.7270  149.9870 C   0  0  0  0  0  0  0  0  0  0  0  0
  160.8180  201.2760  151.3010 C   0  0  0  0  0  3  0  0  0  0  0  0
  161.4030  205.8080  145.4480 C   0  0  0  0  0  0  0  0  0  0  0  0
  161.4060  205.8290  143.6910 Cl  0  0  0  0  0  0  0  0  0  0  0  0
  161.9560  209.3400  148.6430 C   0  0  0  0  0  3  0  0  0  0  0  0
  161.2010  205.8510  148.3610 C   0  0  0  0  0  2  0  0  0  0  0  0
  160.9420  203.5990  152.0310 C   0  0  0  0  0  3  0  0  0  0  0  0
  161.0480  202.1240  147.5570 C   0  0  0  0  0  0  0  0  0  0  0  0
  160.9120  200.7940  148.5850 S   0  0  0  0  0  0  0  0  0  0  0  0
  161.5530  206.9330  146.0780 N   0  0  0  0  0  0  0  0  0  0  0  0
  161.0310  204.0320  150.6990 C   0  0  0  0  0  3  0  0  0  0  0  0
  161.5660  207.0250  147.5060 C   0  0  0  0  0  0  0  0  0  0  0  0
  161.2660  204.5360  146.1910 C   0  0  0  0  0  0  0  0  0  0  0  0
  161.9790  209.4910  150.1050 C   0  0  0  0  0  0  0  0  0  0  0  0
  162.2020  210.6180  150.6280 O   0  0  0  0  0  0  0  0  0  0  0  0
  161.7430  208.3230  150.9640 C   0  0  0  0  0  0  0  0  0  0  0  0
  162.7070  207.3290  151.0770 O   0  0  0  0  0  0  0  0  0  0  0  0
  160.6640  208.2150  151.6040 O   0  0  0  0  0  1  0  0  0  0  0  0
  1  4  1  0  0  0  0
  2  1  1  0  0  0  0
  2 13  1  0  0  0  0
  3 15  1  0  0  0  0
  4  8  2  0  0  0  0
  4 18  1  0  0  0  0
  5 12  2  0  0  0  0
  7  3  2  0  0  0  0
  7 20  1  0  0  0  0
  8  9  1  0  0  0  0
  9  6  2  0  0  0  0
 10 17  2  0  0  0  0
 10 20  1  0  0  0  0
 11 10  1  0  0  0  0
 12 21  1  0  0  0  0
 14  6  1  0  0  0  0
 15  1  2  0  0  0  0
 15 16  1  0  0  0  0
 16  8  1  0  0  0  0
 17 19  1  0  0  0  0
 18 14  2  0  0  0  0
 19  5  2  0  0  0  0
 19 13  1  0  0  0  0
 20  2  2  0  0  0  0
 21 22  2  0  0  0  0
 21 23  1  0  0  0  0
 23 24  2  0  0  0  0
 23 25  1  0  0  0  0
M  END
>  <MODEL>
5

>  <REMARK>
 VINA RESULT:      -8.0      3.021      4.997
  Name = 
  2 active torsions:
  status: ('A' for Active; 'I' for Inactive)
    1  A    between atoms: C_2  and  C_21
    2  A    between atoms: C_15  and  C_21
                            x       y       z     vdW  Elec       q    Type
                         _______ _______ _______ _____ _____    ______ ____

>  <TORSDO>
F 2

$$$$
=
 OpenBabel11052422103D

 25 28  0  0  0  0  0  0  0  0999 V2000
  161.0490  207.9280  153.1250 C   0  0  0  0  0  0  0  0  0  0  0  0
  161.2360  207.8430  151.7290 C   0  0  0  0  0  0  0  0  0  0  0  0
  161.0490  205.4960  153.3190 C   0  0  0  0  0  3  0  0  0  0  0  0
  160.9280  209.0810  153.9260 C   0  0  0  0  0  0  0  0  0  0  0  0
  161.9560  209.8200  148.6770 C   0  0  0  0  0  0  0  0  0  0  0  0
  160.6530  211.1180  155.8220 C   0  0  0  0  0  3  0  0  0  0  0  0
  161.2330  205.4020  151.9360 C   0  0  0  0  0  3  0  0  0  0  0  0
  160.7510  208.7860  155.2770 C   0  0  0  0  0  0  0  0  0  0  0  0
  160.6110  209.7800  156.2410 C   0  0  0  0  0  3  0  0  0  0  0  0
  161.5400  206.4320  149.6780 C   0  0  0  0  0  0  0  0  0  0  0  0
  161.5810  204.8530  148.9070 Cl  0  0  0  0  0  0  0  0  0  0  0  0
  162.1930  210.8320  147.8870 C   0  0  0  0  0  3  0  0  0  0  0  0
  161.2770  209.0840  150.8750 C   0  0  0  0  0  2  0  0  0  0  0  0
  160.8310  211.4340  154.4640 C   0  0  0  0  0  3  0  0  0  0  0  0
  160.9620  206.7600  153.8860 C   0  0  0  0  0  0  0  0  0  0  0  0
  160.7400  207.1200  155.5180 S   0  0  0  0  0  0  0  0  0  0  0  0
  161.7300  207.4840  148.9410 N   0  0  0  0  0  0  0  0  0  0  0  0
  160.9700  210.4160  153.5080 C   0  0  0  0  0  3  0  0  0  0  0  0
  161.7170  208.8130  149.4690 C   0  0  0  0  0  0  0  0  0  0  0  0
  161.3250  206.5590  151.1360 C   0  0  0  0  0  0  0  0  0  0  0  0
  162.1920  212.2170  148.3780 C   0  0  0  0  0  0  0  0  0  0  0  0
  163.2210  212.9380  148.2610 O   0  0  0  0  0  0  0  0  0  0  0  0
  160.9860  212.7670  149.0100 C   0  0  0  0  0  0  0  0  0  0  0  0
  160.7590  212.5830  150.3690 O   0  0  0  0  0  1  0  0  0  0  0  0
  160.1470  213.4090  148.3250 O   0  0  0  0  0  0  0  0  0  0  0  0
  1 15  2  0  0  0  0
  1  4  1  0  0  0  0
  2  1  1  0  0  0  0
  3 15  1  0  0  0  0
  4  8  1  0  0  0  0
  5 19  2  0  0  0  0
  6  9  1  0  0  0  0
  7  3  2  0  0  0  0
  8 16  1  0  0  0  0
  8  9  2  0  0  0  0
 10 20  1  0  0  0  0
 11 10  1  0  0  0  0
 12 21  1  0  0  0  0
 12  5  2  0  0  0  0
 13  2  1  0  0  0  0
 14  6  2  0  0  0  0
 15 16  1  0  0  0  0
 17 19  1  0  0  0  0
 17 10  2  0  0  0  0
 18  4  2  0  0  0  0
 18 14  1  0  0  0  0
 19 13  1  0  0  0  0
 20  2  2  0  0  0  0
 20  7  1  0  0  0  0
 21 23  1  0  0  0  0
 22 21  2  0  0  0  0
 23 24  1  0  0  0  0
 25 23  2  0  0  0  0
M  END
>  <MODEL>
6

>  <REMARK>
 VINA RESULT:      -7.3      3.140      5.893
  Name = 
  2 active torsions:
  status: ('A' for Active; 'I' for Inactive)
    1  A    between atoms: C_2  and  C_21
    2  A    between atoms: C_15  and  C_21
                            x       y       z     vdW  Elec       q    Type
                         _______ _______ _______ _____ _____    ______ ____

>  <TORSDO>
F 2

$$$$
=
 OpenBabel11052422103D

 25 28  0  0  0  0  0  0  0  0999 V2000
  160.9410  208.0020  153.7950 C   0  0  0  0  0  0  0  0  0  0  0  0
  161.1420  207.7630  152.4180 C   0  0  0  0  0  0  0  0  0  0  0  0
  160.9700  205.6070  154.2600 C   0  0  0  0  0  3  0  0  0  0  0  0
  160.7970  209.2360  154.4590 C   0  0  0  0  0  0  0  0  0  0  0  0
  161.8660  209.3940  149.1690 C   0  0  0  0  0  0  0  0  0  0  0  0
  160.4770  211.4690  156.1120 C   0  0  0  0  0  3  0  0  0  0  0  0
  161.1680  205.3610  152.8990 C   0  0  0  0  0  3  0  0  0  0  0  0
  160.6110  209.0920  155.8330 C   0  0  0  0  0  0  0  0  0  0  0  0
  160.4490  210.1860  156.6790 C   0  0  0  0  0  3  0  0  0  0  0  0
  161.4840  206.1350  150.5410 C   0  0  0  0  0  0  0  0  0  0  0  0
  161.5530  204.4800  149.9540 Cl  0  0  0  0  0  0  0  0  0  0  0  0
  162.0980  210.3140  148.2720 C   0  0  0  0  0  3  0  0  0  0  0  0
  161.1750  208.9000  151.4300 C   0  0  0  0  0  2  0  0  0  0  0  0
  160.6640  211.6330  154.7280 C   0  0  0  0  0  3  0  0  0  0  0  0
  160.8610  206.9260  154.6810 C   0  0  0  0  0  0  0  0  0  0  0  0
  160.6190  207.4630  156.2610 S   0  0  0  0  0  0  0  0  0  0  0  0
  161.6680  207.1000  149.6920 N   0  0  0  0  0  0  0  0  0  0  0  0
  160.8250  210.5160  153.8940 C   0  0  0  0  0  3  0  0  0  0  0  0
  161.6320  208.4800  150.0670 C   0  0  0  0  0  0  0  0  0  0  0  0
  161.2540  206.4220  151.9740 C   0  0  0  0  0  0  0  0  0  0  0  0
  162.0730  211.7460  148.6040 C   0  0  0  0  0  0  0  0  0  0  0  0
  161.2620  212.1890  149.4620 O   0  0  0  0  0  0  0  0  0  0  0  0
  162.9980  212.6680  147.9310 C   0  0  0  0  0  0  0  0  0  0  0  0
  164.2090  212.2070  147.4300 O   0  0  0  0  0  0  0  0  0  0  0  0
  162.6990  213.8850  147.8050 O   0  0  0  0  0  1  0  0  0  0  0  0
  1  4  1  0  0  0  0
  1 15  2  0  0  0  0
  2  1  1  0  0  0  0
  3 15  1  0  0  0  0
  4  8  1  0  0  0  0
  5 19  2  0  0  0  0
  6  9  1  0  0  0  0
  7  3  2  0  0  0  0
  8 16  1  0  0  0  0
  8  9  2  0  0  0  0
 10 20  1  0  0  0  0
 11 10  1  0  0  0  0
 12 21  1  0  0  0  0
 12  5  2  0  0  0  0
 13  2  1  0  0  0  0
 14  6  2  0  0  0  0
 15 16  1  0  0  0  0
 17 19  1  0  0  0  0
 17 10  2  0  0  0  0
 18  4  2  0  0  0  0
 18 14  1  0  0  0  0
 19 13  1  0  0  0  0
 20  2  2  0  0  0  0
 20  7  1  0  0  0  0
 21 22  2  0  0  0  0
 23 21  1  0  0  0  0
 24 23  2  0  0  0  0
 25 23  1  0  0  0  0
M  END
>  <MODEL>
7

>  <REMARK>
 VINA RESULT:      -7.2      3.307      6.074
  Name = 
  2 active torsions:
  status: ('A' for Active; 'I' for Inactive)
    1  A    between atoms: C_2  and  C_21
    2  A    between atoms: C_15  and  C_21
                            x       y       z     vdW  Elec       q    Type
                         _______ _______ _______ _____ _____    ______ ____

>  <TORSDO>
F 2

$$$$
