=
 OpenBabel11062408003D

 34 38  0  0  1  0  0  0  0  0999 V2000
  161.0700  204.9980  149.4750 C   0  0  0  0  0  0  0  0  0  0  0  0
  161.6120  206.2050  151.5260 C   0  0  0  0  0  0  0  0  0  0  0  0
  161.5630  207.3770  149.3900 C   0  0  0  0  0  0  0  0  0  0  0  0
  161.5430  209.8510  149.6440 N   0  0  0  0  0  0  0  0  0  0  0  0
  161.1500  203.8260  151.5940 C   0  0  0  0  0  3  0  0  0  0  0  0
  161.4700  205.0200  152.2530 C   0  0  0  0  0  3  0  0  0  0  0  0
  161.9890  208.5550  151.5350 C   0  0  0  0  0  0  0  0  0  0  0  0
  161.4230  206.1910  150.1310 C   0  0  0  0  0  0  0  0  0  0  0  0
  161.6860  210.7490  150.8010 C   0  0  0  0  0  2  0  0  0  0  0  0
  160.9440  203.8160  150.2090 C   0  0  0  0  0  3  0  0  0  0  0  0
  160.9950  206.2130  147.3920 C   0  0  0  0  0  3  0  0  0  0  0  0
  160.8460  205.0130  148.0960 C   0  0  0  0  0  3  0  0  0  0  0  0
  161.7860  207.4580  152.2040 N   0  0  0  0  0  0  0  0  0  0  0  0
  161.8010  209.9140  152.0790 C   0  0  1  0  0  3  0  0  0  0  0  0
  162.1500  208.5950  150.0620 C   0  0  1  0  0  3  0  0  0  0  0  0
  161.3610  207.3520  148.0430 N   0  0  0  0  0  0  0  0  0  0  0  0
  160.4890  210.0300  152.8510 C   0  0  0  0  0  2  0  0  0  0  0  0
  160.6750  210.8730  154.1030 C   0  0  0  0  0  2  0  0  0  0  0  0
  161.9750  210.6110  154.6940 N   0  0  0  0  0  2  0  0  0  0  0  0
  161.8270  210.7900  156.1280 C   0  0  0  0  0  2  0  0  0  0  0  0
  160.4730  210.2600  156.5860 C   0  0  0  0  0  2  0  0  0  0  0  0
  160.5180  208.7860  156.9880 C   0  0  2  0  0  3  0  0  0  0  0  0
  161.8230  208.2900  156.9130 O   0  0  0  0  0  1  0  0  0  0  0  0
  160.5290  207.2090  155.4320 C   0  0  0  0  0  1  0  0  0  0  0  0
  159.6720  208.0260  156.1720 O   0  0  0  0  0  0  0  0  0  0  0  0
  162.3760  210.3960  148.5860 C   0  0  0  0  0  2  0  0  0  0  0  0
  162.3830  211.9110  148.6690 C   0  0  0  0  0  2  0  0  0  0  0  0
  161.0520  213.3880  144.5640 C   0  0  0  0  0  3  0  0  0  0  0  0
  162.1750  213.6340  145.2400 C   0  0  0  0  0  3  0  0  0  0  0  0
  161.7600  212.4850  147.4450 C   0  0  0  0  0  0  0  0  0  0  0  0
  162.5750  212.9800  146.5030 C   0  0  0  0  0  3  0  0  0  0  0  0
  159.5260  212.5650  146.3230 C   0  0  0  0  0  3  0  0  0  0  0  0
  160.2840  212.5900  147.4190 C   0  0  0  0  0  3  0  0  0  0  0  0
  160.0760  212.3290  144.9550 C   0  0  0  0  0  2  0  0  0  0  0  0
  1  8  1  0  0  0  0
  1 10  2  0  0  0  0
  2 13  1  0  0  0  0
  2  6  1  0  0  0  0
  3  8  1  0  0  0  0
  4 15  1  0  0  0  0
  4  9  1  0  0  0  0
  5  6  2  0  0  0  0
  7 14  1  0  0  0  0
  7 13  2  0  0  0  0
  8  2  2  0  0  0  0
  9 14  1  0  0  0  0
 10  5  1  0  0  0  0
 11 16  1  0  0  0  0
 11 12  2  0  0  0  0
 12  1  1  0  0  0  0
 14 17  1  6  0  0  0
 15  3  1  6  0  0  0
 15  7  1  0  0  0  0
 16  3  2  0  0  0  0
 17 18  1  0  0  0  0
 18 19  1  0  0  0  0
 19 20  1  0  0  0  0
 20 21  1  0  0  0  0
 21 22  1  0  0  0  0
 22 23  1  6  0  0  0
 24 25  1  0  0  0  0
 25 22  1  0  0  0  0
 26 27  1  0  0  0  0
 26  4  1  0  0  0  0
 28 34  1  0  0  0  0
 28 29  2  0  0  0  0
 29 31  1  0  0  0  0
 30 27  1  0  0  0  0
 31 30  2  0  0  0  0
 32 33  2  0  0  0  0
 33 30  1  0  0  0  0
 34 32  1  0  0  0  0
M  END
>  <MODEL>
1

>  <REMARK>
 VINA RESULT:      -7.7      0.000      0.000
  Name = 
  10 active torsions:
  status: ('A' for Active; 'I' for Inactive)
    1  A    between atoms: C_3  and  N_13
    2  A    between atoms: C_3  and  C_17
    3  A    between atoms: N_5  and  C_26
    4  A    between atoms: C_12  and  C_28
    5  A    between atoms: N_13  and  C_33
    6  A    between atoms: O_14  and  C_20
    7  A    between atoms: C_17  and  C_29
    8  A    between atoms: C_20  and  C_34
    9  A    between atoms: C_26  and  C_28
   10  A    between atoms: C_33  and  C_34
                            x       y       z     vdW  Elec       q    Type
                         _______ _______ _______ _____ _____    ______ ____

>  <TORSDO>
F 10

$$$$
=
 OpenBabel11062408003D

 34 38  0  0  1  0  0  0  0  0999 V2000
  161.0740  204.7570  148.9630 C   0  0  0  0  0  0  0  0  0  0  0  0
  161.6170  205.7160  151.1410 C   0  0  0  0  0  0  0  0  0  0  0  0
  161.5710  207.1290  149.1550 C   0  0  0  0  0  0  0  0  0  0  0  0
  161.5560  209.5560  149.6950 N   0  0  0  0  0  0  0  0  0  0  0  0
  161.1510  203.3470  150.9330 C   0  0  0  0  0  3  0  0  0  0  0  0
  161.4720  204.4550  151.7260 C   0  0  0  0  0  3  0  0  0  0  0  0
  161.9980  208.0500  151.4230 C   0  0  0  0  0  0  0  0  0  0  0  0
  161.4290  205.8650  149.7540 C   0  0  0  0  0  0  0  0  0  0  0  0
  161.7000  210.3140  150.9480 C   0  0  0  0  0  2  0  0  0  0  0  0
  160.9450  203.4980  149.5560 C   0  0  0  0  0  3  0  0  0  0  0  0
  161.0030  206.2050  147.0360 C   0  0  0  0  0  3  0  0  0  0  0  0
  160.8510  204.9310  147.5960 C   0  0  0  0  0  3  0  0  0  0  0  0
  161.7930  206.8830  151.9600 N   0  0  0  0  0  0  0  0  0  0  0  0
  161.8120  209.3370  152.1210 C   0  0  1  0  0  3  0  0  0  0  0  0
  162.1610  208.2590  149.9650 C   0  0  1  0  0  3  0  0  0  0  0  0
  161.3710  207.2610  147.8150 N   0  0  0  0  0  0  0  0  0  0  0  0
  160.5000  209.3640  152.9000 C   0  0  0  0  0  2  0  0  0  0  0  0
  160.7640  209.5040  154.3920 C   0  0  0  0  0  2  0  0  0  0  0  0
  159.8460  210.4660  154.9740 N   0  0  0  0  0  2  0  0  0  0  0  0
  160.3670  211.7860  154.6610 C   0  0  0  0  0  2  0  0  0  0  0  0
  159.2180  212.7590  154.4190 C   0  0  0  0  0  2  0  0  0  0  0  0
  158.1160  212.1680  153.5400 C   0  0  2  0  0  3  0  0  0  0  0  0
  158.5120  212.1380  152.2000 O   0  0  0  0  0  1  0  0  0  0  0  0
  157.1500  214.0640  152.9220 C   0  0  0  0  0  1  0  0  0  0  0  0
  156.9330  212.9050  153.6700 O   0  0  0  0  0  0  0  0  0  0  0  0
  162.3910  210.2190  148.7080 C   0  0  0  0  0  2  0  0  0  0  0  0
  162.3390  211.7210  148.9190 C   0  0  0  0  0  2  0  0  0  0  0  0
  161.3190  213.4770  144.8350 C   0  0  0  0  0  3  0  0  0  0  0  0
  162.3990  213.6540  145.5970 C   0  0  0  0  0  3  0  0  0  0  0  0
  161.8120  212.3830  147.6940 C   0  0  0  0  0  0  0  0  0  0  0  0
  162.6990  212.9150  146.8410 C   0  0  0  0  0  3  0  0  0  0  0  0
  159.6610  212.5860  146.4330 C   0  0  0  0  0  3  0  0  0  0  0  0
  160.3440  212.5250  147.5770 C   0  0  0  0  0  3  0  0  0  0  0  0
  160.2980  212.4200  145.0930 C   0  0  0  0  0  2  0  0  0  0  0  0
  1 10  2  0  0  0  0
  1  8  1  0  0  0  0
  2  6  1  0  0  0  0
  2 13  1  0  0  0  0
  3  8  1  0  0  0  0
  4 15  1  0  0  0  0
  4  9  1  0  0  0  0
  5  6  2  0  0  0  0
  7 13  2  0  0  0  0
  7 14  1  0  0  0  0
  8  2  2  0  0  0  0
  9 14  1  0  0  0  0
 10  5  1  0  0  0  0
 11 12  2  0  0  0  0
 11 16  1  0  0  0  0
 12  1  1  0  0  0  0
 14 17  1  6  0  0  0
 15  3  1  6  0  0  0
 15  7  1  0  0  0  0
 16  3  2  0  0  0  0
 17 18  1  0  0  0  0
 18 19  1  0  0  0  0
 20 19  1  0  0  0  0
 21 20  1  0  0  0  0
 22 23  1  6  0  0  0
 22 25  1  0  0  0  0
 22 21  1  0  0  0  0
 24 25  1  0  0  0  0
 26 27  1  0  0  0  0
 26  4  1  0  0  0  0
 28 34  1  0  0  0  0
 28 29  2  0  0  0  0
 29 31  1  0  0  0  0
 30 27  1  0  0  0  0
 31 30  2  0  0  0  0
 32 33  2  0  0  0  0
 33 30  1  0  0  0  0
 34 32  1  0  0  0  0
M  END
>  <MODEL>
2

>  <REMARK>
 VINA RESULT:      -7.5      1.907      2.484
  Name = 
  10 active torsions:
  status: ('A' for Active; 'I' for Inactive)
    1  A    between atoms: C_3  and  N_13
    2  A    between atoms: C_3  and  C_17
    3  A    between atoms: N_5  and  C_26
    4  A    between atoms: C_12  and  C_28
    5  A    between atoms: N_13  and  C_33
    6  A    between atoms: O_14  and  C_20
    7  A    between atoms: C_17  and  C_29
    8  A    between atoms: C_20  and  C_34
    9  A    between atoms: C_26  and  C_28
   10  A    between atoms: C_33  and  C_34
                            x       y       z     vdW  Elec       q    Type
                         _______ _______ _______ _____ _____    ______ ____

>  <TORSDO>
F 10

$$$$
=
 OpenBabel11062408003D

 34 38  0  0  1  0  0  0  0  0999 V2000
  161.1030  207.2860  153.9510 C   0  0  0  0  0  0  0  0  0  0  0  0
  161.7540  209.5350  153.2580 C   0  0  0  0  0  0  0  0  0  0  0  0
  161.6710  207.7250  151.6280 C   0  0  0  0  0  0  0  0  0  0  0  0
  161.7410  208.5360  149.2780 N   0  0  0  0  0  0  0  0  0  0  0  0
  161.2160  209.0790  155.5780 C   0  0  0  0  0  3  0  0  0  0  0  0
  161.5970  209.9780  154.5740 C   0  0  0  0  0  3  0  0  0  0  0  0
  162.2070  210.0630  150.9820 C   0  0  0  0  0  0  0  0  0  0  0  0
  161.5180  208.1830  152.9480 C   0  0  0  0  0  0  0  0  0  0  0  0
  161.9520  209.8600  148.6720 C   0  0  0  0  0  2  0  0  0  0  0  0
  160.9630  207.7370  155.2660 C   0  0  0  0  0  3  0  0  0  0  0  0
  160.9980  205.5400  152.2910 C   0  0  0  0  0  3  0  0  0  0  0  0
  160.8340  205.9580  153.6160 C   0  0  0  0  0  3  0  0  0  0  0  0
  161.9910  210.4730  152.1970 N   0  0  0  0  0  0  0  0  0  0  0  0
  162.0820  210.9090  149.7790 C   0  0  1  0  0  3  0  0  0  0  0  0
  162.3200  208.6330  150.6110 C   0  0  1  0  0  3  0  0  0  0  0  0
  161.4240  206.4170  151.3390 N   0  0  0  0  0  0  0  0  0  0  0  0
  160.8020  211.7390  149.8110 C   0  0  0  0  0  2  0  0  0  0  0  0
  161.0010  213.0620  149.0880 C   0  0  0  0  0  2  0  0  0  0  0  0
  160.0870  213.1620  147.9660 N   0  0  0  0  0  2  0  0  0  0  0  0
  160.8690  212.9240  146.7650 C   0  0  0  0  0  2  0  0  0  0  0  0
  160.0040  212.2590  145.6990 C   0  0  0  0  0  2  0  0  0  0  0  0
  160.3760  212.6890  144.2800 C   0  0  2  0  0  3  0  0  0  0  0  0
  160.1420  211.6530  143.3700 O   0  0  0  0  0  1  0  0  0  0  0  0
  162.1930  212.5430  143.0230 C   0  0  0  0  0  1  0  0  0  0  0  0
  161.7170  213.0830  144.2180 O   0  0  0  0  0  0  0  0  0  0  0  0
  162.5560  207.5970  148.5260 C   0  0  0  0  0  2  0  0  0  0  0  0
  161.7920  207.1220  147.3040 C   0  0  0  0  0  2  0  0  0  0  0  0
  161.2600  202.5930  147.3760 C   0  0  0  0  0  3  0  0  0  0  0  0
  161.2320  203.4740  148.3760 C   0  0  0  0  0  3  0  0  0  0  0  0
  161.8370  205.6360  147.2290 C   0  0  0  0  0  0  0  0  0  0  0  0
  161.2640  204.9430  148.2240 C   0  0  0  0  0  3  0  0  0  0  0  0
  162.4000  203.8440  145.5770 C   0  0  0  0  0  3  0  0  0  0  0  0
  162.6280  205.0340  146.1330 C   0  0  0  0  0  3  0  0  0  0  0  0
  161.2310  202.9860  145.9360 C   0  0  0  0  0  2  0  0  0  0  0  0
  1 10  2  0  0  0  0
  2  6  1  0  0  0  0
  3  8  1  0  0  0  0
  4 15  1  0  0  0  0
  6  5  2  0  0  0  0
  7 13  2  0  0  0  0
  8  2  2  0  0  0  0
  8  1  1  0  0  0  0
  9  4  1  0  0  0  0
  9 14  1  0  0  0  0
 10  5  1  0  0  0  0
 11 12  2  0  0  0  0
 12  1  1  0  0  0  0
 13  2  1  0  0  0  0
 14 17  1  1  0  0  0
 14  7  1  0  0  0  0
 15  7  1  1  0  0  0
 15  3  1  0  0  0  0
 16  3  2  0  0  0  0
 16 11  1  0  0  0  0
 18 17  1  0  0  0  0
 19 18  1  0  0  0  0
 20 19  1  0  0  0  0
 21 20  1  0  0  0  0
 22 23  1  6  0  0  0
 22 21  1  0  0  0  0
 24 25  1  0  0  0  0
 25 22  1  0  0  0  0
 26  4  1  0  0  0  0
 27 26  1  0  0  0  0
 28 29  2  0  0  0  0
 30 27  1  0  0  0  0
 30 31  2  0  0  0  0
 31 29  1  0  0  0  0
 32 34  1  0  0  0  0
 32 33  2  0  0  0  0
 33 30  1  0  0  0  0
 34 28  1  0  0  0  0
M  END
>  <MODEL>
3

>  <REMARK>
 VINA RESULT:      -7.4      3.620      7.546
  Name = 
  10 active torsions:
  status: ('A' for Active; 'I' for Inactive)
    1  A    between atoms: C_3  and  N_13
    2  A    between atoms: C_3  and  C_17
    3  A    between atoms: N_5  and  C_26
    4  A    between atoms: C_12  and  C_28
    5  A    between atoms: N_13  and  C_33
    6  A    between atoms: O_14  and  C_20
    7  A    between atoms: C_17  and  C_29
    8  A    between atoms: C_20  and  C_34
    9  A    between atoms: C_26  and  C_28
   10  A    between atoms: C_33  and  C_34
                            x       y       z     vdW  Elec       q    Type
                         _______ _______ _______ _____ _____    ______ ____

>  <TORSDO>
F 10

$$$$
=
 OpenBabel11062408003D

 34 38  0  0  1  0  0  0  0  0999 V2000
  161.0410  204.1970  152.2800 C   0  0  0  0  0  0  0  0  0  0  0  0
  160.7510  204.2760  149.8580 C   0  0  0  0  0  0  0  0  0  0  0  0
  161.2450  206.3130  151.1010 C   0  0  0  0  0  0  0  0  0  0  0  0
  161.9490  208.1950  149.6340 N   0  0  0  0  0  0  0  0  0  0  0  0
  160.5190  202.1770  151.0480 C   0  0  0  0  0  3  0  0  0  0  0  0
  160.5130  202.8990  149.8480 C   0  0  0  0  0  3  0  0  0  0  0  0
  161.0530  206.2900  148.6240 C   0  0  0  0  0  0  0  0  0  0  0  0
  161.0040  204.9290  151.0780 C   0  0  0  0  0  0  0  0  0  0  0  0
  162.0020  208.3730  148.1750 C   0  0  0  0  0  2  0  0  0  0  0  0
  160.7890  202.8230  152.2600 C   0  0  0  0  0  3  0  0  0  0  0  0
  161.5700  206.2350  153.4580 C   0  0  0  0  0  3  0  0  0  0  0  0
  161.3350  204.8550  153.4760 C   0  0  0  0  0  3  0  0  0  0  0  0
  160.9010  204.9980  148.6250 N   0  0  0  0  0  0  0  0  0  0  0  0
  161.5870  207.0680  147.4890 C   0  0  1  0  0  3  0  0  0  0  0  0
  160.9900  207.1200  149.8500 C   0  0  1  0  0  3  0  0  0  0  0  0
  161.5040  206.9290  152.2880 N   0  0  0  0  0  0  0  0  0  0  0  0
  162.8340  206.4140  146.9010 C   0  0  0  0  0  2  0  0  0  0  0  0
  162.4980  205.6810  145.6110 C   0  0  0  0  0  2  0  0  0  0  0  0
  161.0770  205.7800  145.3350 N   0  0  0  0  0  2  0  0  0  0  0  0
  160.6520  204.4770  144.8530 C   0  0  0  0  0  2  0  0  0  0  0  0
  161.4810  203.3790  145.5110 C   0  0  0  0  0  2  0  0  0  0  0  0
  160.7760  202.0220  145.5100 C   0  0  2  0  0  3  0  0  0  0  0  0
  159.5940  202.0770  144.7660 O   0  0  0  0  0  1  0  0  0  0  0  0
  161.2890  200.4780  147.0140 C   0  0  0  0  0  1  0  0  0  0  0  0
  160.4960  201.6110  146.8180 O   0  0  0  0  0  0  0  0  0  0  0  0
  161.3620  209.4060  150.1820 C   0  0  0  0  0  2  0  0  0  0  0  0
  162.2560  209.9570  151.2780 C   0  0  0  0  0  2  0  0  0  0  0  0
  159.1650  210.8400  154.5130 C   0  0  0  0  0  3  0  0  0  0  0  0
  159.2020  211.2240  153.2370 C   0  0  0  0  0  3  0  0  0  0  0  0
  161.4300  210.3410  152.4550 C   0  0  0  0  0  0  0  0  0  0  0  0
  160.1740  210.7550  152.2290 C   0  0  0  0  0  3  0  0  0  0  0  0
  161.5010  210.1670  154.9500 C   0  0  0  0  0  3  0  0  0  0  0  0
  162.0990  210.3670  153.7750 C   0  0  0  0  0  3  0  0  0  0  0  0
  160.0620  209.7900  155.0790 C   0  0  0  0  0  2  0  0  0  0  0  0
  1 12  1  0  0  0  0
  2  8  1  0  0  0  0
  3 16  2  0  0  0  0
  4 15  1  0  0  0  0
  4 26  1  0  0  0  0
  5 10  2  0  0  0  0
  6  2  2  0  0  0  0
  6  5  1  0  0  0  0
  7 13  2  0  0  0  0
  8  3  1  0  0  0  0
  8  1  2  0  0  0  0
  9  4  1  0  0  0  0
 10  1  1  0  0  0  0
 11 12  2  0  0  0  0
 13  2  1  0  0  0  0
 14 17  1  1  0  0  0
 14  9  1  0  0  0  0
 14  7  1  0  0  0  0
 15  7  1  6  0  0  0
 15  3  1  0  0  0  0
 16 11  1  0  0  0  0
 18 17  1  0  0  0  0
 19 18  1  0  0  0  0
 20 19  1  0  0  0  0
 20 21  1  0  0  0  0
 22 23  1  6  0  0  0
 22 21  1  0  0  0  0
 22 25  1  0  0  0  0
 25 24  1  0  0  0  0
 26 27  1  0  0  0  0
 27 30  1  0  0  0  0
 28 34  1  0  0  0  0
 29 28  2  0  0  0  0
 30 33  1  0  0  0  0
 31 30  2  0  0  0  0
 31 29  1  0  0  0  0
 32 34  1  0  0  0  0
 33 32  2  0  0  0  0
M  END
>  <MODEL>
4

>  <REMARK>
 VINA RESULT:      -7.4      3.991      7.572
  Name = 
  10 active torsions:
  status: ('A' for Active; 'I' for Inactive)
    1  A    between atoms: C_3  and  N_13
    2  A    between atoms: C_3  and  C_17
    3  A    between atoms: N_5  and  C_26
    4  A    between atoms: C_12  and  C_28
    5  A    between atoms: N_13  and  C_33
    6  A    between atoms: O_14  and  C_20
    7  A    between atoms: C_17  and  C_29
    8  A    between atoms: C_20  and  C_34
    9  A    between atoms: C_26  and  C_28
   10  A    between atoms: C_33  and  C_34
                            x       y       z     vdW  Elec       q    Type
                         _______ _______ _______ _____ _____    ______ ____

>  <TORSDO>
F 10

$$$$
=
 OpenBabel11062408003D

 34 38  0  0  1  0  0  0  0  0999 V2000
  161.0550  201.8220  148.0430 C   0  0  0  0  0  0  0  0  0  0  0  0
  160.8700  204.0970  147.1770 C   0  0  0  0  0  0  0  0  0  0  0  0
  160.9850  203.7050  149.5790 C   0  0  0  0  0  0  0  0  0  0  0  0
  161.4580  205.7740  150.8750 N   0  0  0  0  0  0  0  0  0  0  0  0
  160.9090  202.2100  145.6550 C   0  0  0  0  0  3  0  0  0  0  0  0
  160.8490  203.5920  145.8730 C   0  0  0  0  0  3  0  0  0  0  0  0
  160.9160  205.9930  148.6150 C   0  0  0  0  0  0  0  0  0  0  0  0
  160.9610  203.2090  148.2640 C   0  0  0  0  0  0  0  0  0  0  0  0
  161.5520  207.1960  150.5090 C   0  0  0  0  0  2  0  0  0  0  0  0
  161.0180  201.3270  146.7360 C   0  0  0  0  0  3  0  0  0  0  0  0
  161.2060  201.4910  150.4270 C   0  0  0  0  0  3  0  0  0  0  0  0
  161.1860  200.9590  149.1330 C   0  0  0  0  0  3  0  0  0  0  0  0
  160.9660  205.5110  147.4080 N   0  0  0  0  0  0  0  0  0  0  0  0
  161.3760  207.3430  148.9960 C   0  0  1  0  0  3  0  0  0  0  0  0
  160.6670  205.1620  149.8160 C   0  0  1  0  0  3  0  0  0  0  0  0
  161.0890  202.8350  150.6220 N   0  0  0  0  0  0  0  0  0  0  0  0
  162.7350  207.6630  148.3810 C   0  0  0  0  0  2  0  0  0  0  0  0
  163.0020  209.1600  148.4170 C   0  0  0  0  0  2  0  0  0  0  0  0
  161.7510  209.8890  148.5180 N   0  0  0  0  0  2  0  0  0  0  0  0
  162.0230  211.0830  149.2990 C   0  0  0  0  0  2  0  0  0  0  0  0
  161.5200  212.3190  148.5600 C   0  0  0  0  0  2  0  0  0  0  0  0
  162.5030  212.8180  147.5000 C   0  0  2  0  0  3  0  0  0  0  0  0
  163.0220  214.0670  147.8540 O   0  0  0  0  0  1  0  0  0  0  0  0
  160.5240  212.7140  146.5110 C   0  0  0  0  0  1  0  0  0  0  0  0
  161.8820  212.8960  146.2490 O   0  0  0  0  0  0  0  0  0  0  0  0
  160.6660  205.7060  152.0910 C   0  0  0  0  0  2  0  0  0  0  0  0
  161.5500  205.9820  153.2940 C   0  0  0  0  0  2  0  0  0  0  0  0
  160.0440  209.0620  156.3030 C   0  0  0  0  0  3  0  0  0  0  0  0
  159.7300  207.7730  156.1670 C   0  0  0  0  0  3  0  0  0  0  0  0
  160.9870  207.1120  154.0840 C   0  0  0  0  0  0  0  0  0  0  0  0
  160.3920  206.8220  155.2510 C   0  0  0  0  0  3  0  0  0  0  0  0
  161.0540  209.6120  154.1170 C   0  0  0  0  0  3  0  0  0  0  0  0
  161.0040  208.4530  153.4600 C   0  0  0  0  0  3  0  0  0  0  0  0
  161.1950  209.7030  155.6010 C   0  0  0  0  0  2  0  0  0  0  0  0
  1  8  2  0  0  0  0
  1 12  1  0  0  0  0
  2 13  1  0  0  0  0
  2  8  1  0  0  0  0
  3 15  1  0  0  0  0
  3 16  2  0  0  0  0
  4 26  1  0  0  0  0
  5  6  1  0  0  0  0
  5 10  2  0  0  0  0
  6  2  2  0  0  0  0
  7 14  1  0  0  0  0
  8  3  1  0  0  0  0
  9  4  1  0  0  0  0
 10  1  1  0  0  0  0
 11 16  1  0  0  0  0
 12 11  2  0  0  0  0
 13  7  2  0  0  0  0
 14 17  1  6  0  0  0
 14  9  1  0  0  0  0
 15  7  1  6  0  0  0
 15  4  1  0  0  0  0
 17 18  1  0  0  0  0
 18 19  1  0  0  0  0
 19 20  1  0  0  0  0
 21 20  1  0  0  0  0
 22 23  1  1  0  0  0
 22 21  1  0  0  0  0
 25 24  1  0  0  0  0
 25 22  1  0  0  0  0
 26 27  1  0  0  0  0
 27 30  1  0  0  0  0
 29 28  2  0  0  0  0
 30 31  2  0  0  0  0
 31 29  1  0  0  0  0
 32 34  1  0  0  0  0
 33 30  1  0  0  0  0
 33 32  2  0  0  0  0
 34 28  1  0  0  0  0
M  END
>  <MODEL>
5

>  <REMARK>
 VINA RESULT:      -7.2      3.293      7.447
  Name = 
  10 active torsions:
  status: ('A' for Active; 'I' for Inactive)
    1  A    between atoms: C_3  and  N_13
    2  A    between atoms: C_3  and  C_17
    3  A    between atoms: N_5  and  C_26
    4  A    between atoms: C_12  and  C_28
    5  A    between atoms: N_13  and  C_33
    6  A    between atoms: O_14  and  C_20
    7  A    between atoms: C_17  and  C_29
    8  A    between atoms: C_20  and  C_34
    9  A    between atoms: C_26  and  C_28
   10  A    between atoms: C_33  and  C_34
                            x       y       z     vdW  Elec       q    Type
                         _______ _______ _______ _____ _____    ______ ____

>  <TORSDO>
F 10

$$$$
=
 OpenBabel11062408003D

 34 38  0  0  1  0  0  0  0  0999 V2000
  161.0750  204.6140  152.4090 C   0  0  0  0  0  0  0  0  0  0  0  0
  160.7280  204.4010  150.0020 C   0  0  0  0  0  0  0  0  0  0  0  0
  161.2130  206.5790  150.9830 C   0  0  0  0  0  0  0  0  0  0  0  0
  161.8490  208.2830  149.2870 N   0  0  0  0  0  0  0  0  0  0  0  0
  160.5610  202.4540  151.4370 C   0  0  0  0  0  3  0  0  0  0  0  0
  160.5160  203.0280  150.1610 C   0  0  0  0  0  3  0  0  0  0  0  0
  160.9660  206.2580  148.5320 C   0  0  0  0  0  0  0  0  0  0  0  0
  160.9970  205.1980  151.1300 C   0  0  0  0  0  0  0  0  0  0  0  0
  161.8650  208.2880  147.8160 C   0  0  0  0  0  2  0  0  0  0  0  0
  160.8470  203.2440  152.5580 C   0  0  0  0  0  3  0  0  0  0  0  0
  161.5920  206.7850  153.3240 C   0  0  0  0  0  3  0  0  0  0  0  0
  161.3830  205.4140  153.5110 C   0  0  0  0  0  3  0  0  0  0  0  0
  160.8380  204.9730  148.6900 N   0  0  0  0  0  0  0  0  0  0  0  0
  161.4590  206.9050  147.3000 C   0  0  1  0  0  3  0  0  0  0  0  0
  160.9150  207.2270  149.6520 C   0  0  1  0  0  3  0  0  0  0  0  0
  161.4880  207.3350  152.0820 N   0  0  0  0  0  0  0  0  0  0  0  0
  162.7050  206.2050  146.7630 C   0  0  0  0  0  2  0  0  0  0  0  0
  162.4030  205.5100  145.4440 C   0  0  0  0  0  2  0  0  0  0  0  0
  160.9820  205.5750  145.1570 N   0  0  0  0  0  2  0  0  0  0  0  0
  160.5590  204.2250  144.8270 C   0  0  0  0  0  2  0  0  0  0  0  0
  161.4950  203.2100  145.4730 C   0  0  0  0  0  2  0  0  0  0  0  0
  160.8320  201.8510  145.6990 C   0  0  2  0  0  3  0  0  0  0  0  0
  159.7020  201.7090  144.8870 O   0  0  0  0  0  1  0  0  0  0  0  0
  161.2110  200.5890  147.4800 C   0  0  0  0  0  1  0  0  0  0  0  0
  160.4750  201.6920  147.0430 O   0  0  0  0  0  0  0  0  0  0  0  0
  161.2520  209.5410  149.7020 C   0  0  0  0  0  2  0  0  0  0  0  0
  162.3270  210.6070  149.8080 C   0  0  0  0  0  2  0  0  0  0  0  0
  161.4630  213.7640  146.6320 C   0  0  0  0  0  3  0  0  0  0  0  0
  162.6090  213.1630  146.9520 C   0  0  0  0  0  3  0  0  0  0  0  0
  161.9670  211.7720  148.9540 C   0  0  0  0  0  0  0  0  0  0  0  0
  162.7510  212.0380  147.8990 C   0  0  0  0  0  3  0  0  0  0  0  0
  160.0550  213.3490  148.6180 C   0  0  0  0  0  3  0  0  0  0  0  0
  160.8520  212.6300  149.4100 C   0  0  0  0  0  3  0  0  0  0  0  0
  160.1320  213.3060  147.1270 C   0  0  0  0  0  2  0  0  0  0  0  0
  1 10  1  0  0  0  0
  1 12  1  0  0  0  0
  2  6  2  0  0  0  0
  2  8  1  0  0  0  0
  3  8  1  0  0  0  0
  3 16  2  0  0  0  0
  4 15  1  0  0  0  0
  4 26  1  0  0  0  0
  5 10  2  0  0  0  0
  6  5  1  0  0  0  0
  7 13  2  0  0  0  0
  8  1  2  0  0  0  0
  9  4  1  0  0  0  0
 11 12  2  0  0  0  0
 13  2  1  0  0  0  0
 14 17  1  1  0  0  0
 14  9  1  0  0  0  0
 14  7  1  0  0  0  0
 15  7  1  6  0  0  0
 15  3  1  0  0  0  0
 16 11  1  0  0  0  0
 18 17  1  0  0  0  0
 19 18  1  0  0  0  0
 20 19  1  0  0  0  0
 20 21  1  0  0  0  0
 21 22  1  0  0  0  0
 22 23  1  6  0  0  0
 22 25  1  0  0  0  0
 25 24  1  0  0  0  0
 26 27  1  0  0  0  0
 28 29  2  0  0  0  0
 28 34  1  0  0  0  0
 29 31  1  0  0  0  0
 30 33  1  0  0  0  0
 30 27  1  0  0  0  0
 31 30  2  0  0  0  0
 32 33  2  0  0  0  0
 34 32  1  0  0  0  0
M  END
>  <MODEL>
6

>  <REMARK>
 VINA RESULT:      -7.2      3.560      6.577
  Name = 
  10 active torsions:
  status: ('A' for Active; 'I' for Inactive)
    1  A    between atoms: C_3  and  N_13
    2  A    between atoms: C_3  and  C_17
    3  A    between atoms: N_5  and  C_26
    4  A    between atoms: C_12  and  C_28
    5  A    between atoms: N_13  and  C_33
    6  A    between atoms: O_14  and  C_20
    7  A    between atoms: C_17  and  C_29
    8  A    between atoms: C_20  and  C_34
    9  A    between atoms: C_26  and  C_28
   10  A    between atoms: C_33  and  C_34
                            x       y       z     vdW  Elec       q    Type
                         _______ _______ _______ _____ _____    ______ ____

>  <TORSDO>
F 10

$$$$
=
 OpenBabel11062408003D

 34 38  0  0  1  0  0  0  0  0999 V2000
  160.5340  208.7670  156.1220 C   0  0  0  0  0  0  0  0  0  0  0  0
  161.7300  210.2370  154.5840 C   0  0  0  0  0  0  0  0  0  0  0  0
  161.0290  208.0170  153.8630 C   0  0  0  0  0  0  0  0  0  0  0  0
  161.1490  207.7180  151.3960 N   0  0  0  0  0  0  0  0  0  0  0  0
  161.2590  210.9620  156.8480 C   0  0  0  0  0  3  0  0  0  0  0  0
  161.8000  211.2130  155.5810 C   0  0  0  0  0  3  0  0  0  0  0  0
  162.1440  209.6160  152.3230 C   0  0  0  0  0  0  0  0  0  0  0  0
  161.1060  209.0060  154.8580 C   0  0  0  0  0  0  0  0  0  0  0  0
  161.6750  208.5500  150.3030 C   0  0  0  0  0  2  0  0  0  0  0  0
  160.6210  209.7440  157.1160 C   0  0  0  0  0  3  0  0  0  0  0  0
  159.8260  206.5950  155.3460 C   0  0  0  0  0  3  0  0  0  0  0  0
  159.8820  207.5550  156.3620 C   0  0  0  0  0  3  0  0  0  0  0  0
  162.1400  210.5380  153.2410 N   0  0  0  0  0  0  0  0  0  0  0  0
  162.1720  209.8810  150.8710 C   0  0  1  0  0  3  0  0  0  0  0  0
  161.8290  208.1940  152.5940 C   0  0  1  0  0  3  0  0  0  0  0  0
  160.4080  206.8360  154.1380 N   0  0  0  0  0  0  0  0  0  0  0  0
  161.1780  210.9730  150.4840 C   0  0  0  0  0  2  0  0  0  0  0  0
  161.6540  211.7180  149.2470 C   0  0  0  0  0  2  0  0  0  0  0  0
  161.0780  213.0500  149.2130 N   0  0  0  0  0  2  0  0  0  0  0  0
  161.9070  213.8430  148.3210 C   0  0  0  0  0  2  0  0  0  0  0  0
  162.2680  213.0310  147.0820 C   0  0  0  0  0  2  0  0  0  0  0  0
  162.0040  213.7870  145.7800 C   0  0  2  0  0  3  0  0  0  0  0  0
  160.7240  214.3510  145.7850 O   0  0  0  0  0  1  0  0  0  0  0  0
  163.3050  213.3730  144.0350 C   0  0  0  0  0  1  0  0  0  0  0  0
  162.1450  212.9360  144.6780 O   0  0  0  0  0  0  0  0  0  0  0  0
  161.6140  206.3630  151.1530 C   0  0  0  0  0  2  0  0  0  0  0  0
  161.1190  205.8890  149.7980 C   0  0  0  0  0  2  0  0  0  0  0  0
  160.7800  201.3550  150.1640 C   0  0  0  0  0  3  0  0  0  0  0  0
  161.1450  202.2620  151.0710 C   0  0  0  0  0  3  0  0  0  0  0  0
  161.1670  204.4020  149.7380 C   0  0  0  0  0  0  0  0  0  0  0  0
  161.0740  203.7270  150.8930 C   0  0  0  0  0  3  0  0  0  0  0  0
  161.0420  202.5760  148.0330 C   0  0  0  0  0  3  0  0  0  0  0  0
  161.4490  203.7840  148.4240 C   0  0  0  0  0  3  0  0  0  0  0  0
  160.1480  201.7090  148.8590 C   0  0  0  0  0  2  0  0  0  0  0  0
  1 12  1  0  0  0  0
  1 10  2  0  0  0  0
  2  8  2  0  0  0  0
  2  6  1  0  0  0  0
  3 16  2  0  0  0  0
  3  8  1  0  0  0  0
  4 15  1  0  0  0  0
  5 10  1  0  0  0  0
  6  5  2  0  0  0  0
  7 13  2  0  0  0  0
  8  1  1  0  0  0  0
  9 14  1  0  0  0  0
  9  4  1  0  0  0  0
 11 12  2  0  0  0  0
 13  2  1  0  0  0  0
 14 17  1  1  0  0  0
 14  7  1  0  0  0  0
 15  7  1  6  0  0  0
 15  3  1  0  0  0  0
 16 11  1  0  0  0  0
 18 17  1  0  0  0  0
 19 18  1  0  0  0  0
 20 19  1  0  0  0  0
 21 20  1  0  0  0  0
 22 23  1  1  0  0  0
 22 21  1  0  0  0  0
 24 25  1  0  0  0  0
 25 22  1  0  0  0  0
 26  4  1  0  0  0  0
 27 26  1  0  0  0  0
 28 29  2  0  0  0  0
 30 27  1  0  0  0  0
 30 31  2  0  0  0  0
 31 29  1  0  0  0  0
 32 33  2  0  0  0  0
 32 34  1  0  0  0  0
 33 30  1  0  0  0  0
 34 28  1  0  0  0  0
M  END
>  <MODEL>
7

>  <REMARK>
 VINA RESULT:      -7.1      3.363      8.307
  Name = 
  10 active torsions:
  status: ('A' for Active; 'I' for Inactive)
    1  A    between atoms: C_3  and  N_13
    2  A    between atoms: C_3  and  C_17
    3  A    between atoms: N_5  and  C_26
    4  A    between atoms: C_12  and  C_28
    5  A    between atoms: N_13  and  C_33
    6  A    between atoms: O_14  and  C_20
    7  A    between atoms: C_17  and  C_29
    8  A    between atoms: C_20  and  C_34
    9  A    between atoms: C_26  and  C_28
   10  A    between atoms: C_33  and  C_34
                            x       y       z     vdW  Elec       q    Type
                         _______ _______ _______ _____ _____    ______ ____

>  <TORSDO>
F 10

$$$$
=
 OpenBabel11062408003D

 34 38  0  0  1  0  0  0  0  0999 V2000
  161.0370  204.3450  147.7300 C   0  0  0  0  0  0  0  0  0  0  0  0
  161.6340  204.7800  150.0570 C   0  0  0  0  0  0  0  0  0  0  0  0
  161.5500  206.6100  148.4490 C   0  0  0  0  0  0  0  0  0  0  0  0
  161.5590  208.8500  149.5300 N   0  0  0  0  0  0  0  0  0  0  0  0
  161.1510  202.5210  149.3220 C   0  0  0  0  0  3  0  0  0  0  0  0
  161.4960  203.4190  150.3400 C   0  0  0  0  0  3  0  0  0  0  0  0
  162.0330  206.9870  150.8560 C   0  0  0  0  0  0  0  0  0  0  0  0
  161.4160  205.2430  148.7460 C   0  0  0  0  0  0  0  0  0  0  0  0
  161.7350  209.2990  150.9200 C   0  0  0  0  0  2  0  0  0  0  0  0
  160.9150  202.9840  148.0220 C   0  0  0  0  0  3  0  0  0  0  0  0
  160.9290  206.1960  146.1880 C   0  0  0  0  0  3  0  0  0  0  0  0
  160.7840  204.8280  146.4450 C   0  0  0  0  0  3  0  0  0  0  0  0
  161.8340  205.7280  151.1170 N   0  0  0  0  0  0  0  0  0  0  0  0
  161.8690  208.0800  151.8350 C   0  0  1  0  0  3  0  0  0  0  0  0
  162.1630  207.5250  149.4820 C   0  0  1  0  0  3  0  0  0  0  0  0
  161.3200  207.0450  147.1790 N   0  0  0  0  0  0  0  0  0  0  0  0
  160.5750  207.9280  152.6300 C   0  0  0  0  0  2  0  0  0  0  0  0
  160.8470  207.2800  153.9790 C   0  0  0  0  0  2  0  0  0  0  0  0
  161.5690  208.1980  154.8400 N   0  0  0  0  0  2  0  0  0  0  0  0
  160.5960  209.1540  155.3420 C   0  0  0  0  0  2  0  0  0  0  0  0
  161.1200  210.5750  155.1660 C   0  0  0  0  0  2  0  0  0  0  0  0
  160.1640  211.4650  154.3710 C   0  0  2  0  0  3  0  0  0  0  0  0
  158.9160  210.8510  154.2290 O   0  0  0  0  0  1  0  0  0  0  0  0
  159.5900  211.8350  152.2640 C   0  0  0  0  0  1  0  0  0  0  0  0
  160.6970  211.7590  153.1110 O   0  0  0  0  0  0  0  0  0  0  0  0
  162.3750  209.7200  148.7020 C   0  0  0  0  0  2  0  0  0  0  0  0
  162.3150  211.1390  149.2370 C   0  0  0  0  0  2  0  0  0  0  0  0
  161.9290  213.8640  145.5990 C   0  0  0  0  0  3  0  0  0  0  0  0
  162.8250  213.8750  146.5860 C   0  0  0  0  0  3  0  0  0  0  0  0
  161.9700  212.0790  148.1350 C   0  0  0  0  0  0  0  0  0  0  0  0
  162.9510  212.8480  147.6410 C   0  0  0  0  0  3  0  0  0  0  0  0
  160.0850  212.5230  146.5510 C   0  0  0  0  0  3  0  0  0  0  0  0
  160.5440  212.1910  147.7590 C   0  0  0  0  0  3  0  0  0  0  0  0
  160.9760  212.7380  145.3710 C   0  0  0  0  0  2  0  0  0  0  0  0
  1 10  2  0  0  0  0
  1  8  1  0  0  0  0
  2  6  1  0  0  0  0
  2 13  1  0  0  0  0
  3  8  1  0  0  0  0
  4  9  1  0  0  0  0
  5  6  2  0  0  0  0
  7 13  2  0  0  0  0
  7 14  1  0  0  0  0
  8  2  2  0  0  0  0
  9 14  1  0  0  0  0
 10  5  1  0  0  0  0
 11 12  2  0  0  0  0
 11 16  1  0  0  0  0
 12  1  1  0  0  0  0
 14 17  1  6  0  0  0
 15  3  1  6  0  0  0
 15  4  1  0  0  0  0
 15  7  1  0  0  0  0
 16  3  2  0  0  0  0
 17 18  1  0  0  0  0
 18 19  1  0  0  0  0
 19 20  1  0  0  0  0
 21 20  1  0  0  0  0
 22 23  1  6  0  0  0
 22 21  1  0  0  0  0
 24 25  1  0  0  0  0
 25 22  1  0  0  0  0
 26 27  1  0  0  0  0
 26  4  1  0  0  0  0
 28 29  2  0  0  0  0
 29 31  1  0  0  0  0
 30 27  1  0  0  0  0
 31 30  2  0  0  0  0
 32 33  2  0  0  0  0
 33 30  1  0  0  0  0
 34 28  1  0  0  0  0
 34 32  1  0  0  0  0
M  END
>  <MODEL>
8

>  <REMARK>
 VINA RESULT:      -6.7      1.608      2.328
  Name = 
  10 active torsions:
  status: ('A' for Active; 'I' for Inactive)
    1  A    between atoms: C_3  and  N_13
    2  A    between atoms: C_3  and  C_17
    3  A    between atoms: N_5  and  C_26
    4  A    between atoms: C_12  and  C_28
    5  A    between atoms: N_13  and  C_33
    6  A    between atoms: O_14  and  C_20
    7  A    between atoms: C_17  and  C_29
    8  A    between atoms: C_20  and  C_34
    9  A    between atoms: C_26  and  C_28
   10  A    between atoms: C_33  and  C_34
                            x       y       z     vdW  Elec       q    Type
                         _______ _______ _______ _____ _____    ______ ____

>  <TORSDO>
F 10

$$$$
=
 OpenBabel11062408003D

 34 38  0  0  1  0  0  0  0  0999 V2000
  160.4820  212.7800  150.3730 C   0  0  0  0  0  0  0  0  0  0  0  0
  161.6320  211.3470  148.7670 C   0  0  0  0  0  0  0  0  0  0  0  0
  161.1180  210.5190  151.0000 C   0  0  0  0  0  0  0  0  0  0  0  0
  161.3570  208.0510  151.1960 N   0  0  0  0  0  0  0  0  0  0  0  0
  161.0210  213.6140  148.1620 C   0  0  0  0  0  3  0  0  0  0  0  0
  161.5930  212.3810  147.8260 C   0  0  0  0  0  3  0  0  0  0  0  0
  162.1790  209.0850  149.2710 C   0  0  0  0  0  0  0  0  0  0  0  0
  161.0860  211.5510  150.0470 C   0  0  0  0  0  0  0  0  0  0  0  0
  161.8670  207.0110  150.2890 C   0  0  0  0  0  2  0  0  0  0  0  0
  160.4600  213.8110  149.4300 C   0  0  0  0  0  3  0  0  0  0  0  0
  159.9600  211.8990  152.5570 C   0  0  0  0  0  3  0  0  0  0  0  0
  159.9070  212.9500  151.6340 C   0  0  0  0  0  3  0  0  0  0  0  0
  162.0740  210.0340  148.3870 N   0  0  0  0  0  0  0  0  0  0  0  0
  162.2460  207.6460  148.9500 C   0  0  1  0  0  3  0  0  0  0  0  0
  161.9530  209.2920  150.7210 C   0  0  1  0  0  3  0  0  0  0  0  0
  160.5710  210.7260  152.2300 N   0  0  0  0  0  0  0  0  0  0  0  0
  161.1940  207.2560  147.9150 C   0  0  0  0  0  2  0  0  0  0  0  0
  161.8440  206.5810  146.7170 C   0  0  0  0  0  2  0  0  0  0  0  0
  162.5730  205.4010  147.1420 N   0  0  0  0  0  2  0  0  0  0  0  0
  161.7000  204.2630  146.9120 C   0  0  0  0  0  2  0  0  0  0  0  0
  161.3350  203.6060  148.2380 C   0  0  0  0  0  2  0  0  0  0  0  0
  161.1400  202.0940  148.1180 C   0  0  2  0  0  3  0  0  0  0  0  0
  160.8260  201.7370  146.8030 O   0  0  0  0  0  1  0  0  0  0  0  0
  160.8030  201.2730  150.1470 C   0  0  0  0  0  1  0  0  0  0  0  0
  160.1320  201.6560  148.9840 O   0  0  0  0  0  0  0  0  0  0  0  0
  161.9250  207.7800  152.5050 C   0  0  0  0  0  2  0  0  0  0  0  0
  160.8300  207.3280  153.4540 C   0  0  0  0  0  2  0  0  0  0  0  0
  161.2490  210.0380  157.0990 C   0  0  0  0  0  3  0  0  0  0  0  0
  161.9750  209.9870  155.9820 C   0  0  0  0  0  3  0  0  0  0  0  0
  160.9910  208.0090  154.7680 C   0  0  0  0  0  0  0  0  0  0  0  0
  161.6600  209.1710  154.7920 C   0  0  0  0  0  3  0  0  0  0  0  0
  160.0910  207.8560  157.0980 C   0  0  0  0  0  3  0  0  0  0  0  0
  160.5190  207.2870  155.9700 C   0  0  0  0  0  3  0  0  0  0  0  0
  159.9430  209.3340  157.2600 C   0  0  0  0  0  2  0  0  0  0  0  0
  1 12  1  0  0  0  0
  2  8  1  0  0  0  0
  3 16  2  0  0  0  0
  4 26  1  0  0  0  0
  5 10  2  0  0  0  0
  6  5  1  0  0  0  0
  6  2  2  0  0  0  0
  8  1  2  0  0  0  0
  8  3  1  0  0  0  0
  9  4  1  0  0  0  0
 10  1  1  0  0  0  0
 12 11  2  0  0  0  0
 13  2  1  0  0  0  0
 13  7  2  0  0  0  0
 14 17  1  6  0  0  0
 14  7  1  0  0  0  0
 14  9  1  0  0  0  0
 15  7  1  6  0  0  0
 15  3  1  0  0  0  0
 15  4  1  0  0  0  0
 16 11  1  0  0  0  0
 18 19  1  0  0  0  0
 18 17  1  0  0  0  0
 20 19  1  0  0  0  0
 20 21  1  0  0  0  0
 22 23  1  6  0  0  0
 22 21  1  0  0  0  0
 22 25  1  0  0  0  0
 25 24  1  0  0  0  0
 26 27  1  0  0  0  0
 27 30  1  0  0  0  0
 28 34  1  0  0  0  0
 29 28  2  0  0  0  0
 30 31  2  0  0  0  0
 30 33  1  0  0  0  0
 31 29  1  0  0  0  0
 32 34  1  0  0  0  0
 33 32  2  0  0  0  0
M  END
>  <MODEL>
9

>  <REMARK>
 VINA RESULT:      -6.3      3.024      8.458
  Name = 
  10 active torsions:
  status: ('A' for Active; 'I' for Inactive)
    1  A    between atoms: C_3  and  N_13
    2  A    between atoms: C_3  and  C_17
    3  A    between atoms: N_5  and  C_26
    4  A    between atoms: C_12  and  C_28
    5  A    between atoms: N_13  and  C_33
    6  A    between atoms: O_14  and  C_20
    7  A    between atoms: C_17  and  C_29
    8  A    between atoms: C_20  and  C_34
    9  A    between atoms: C_26  and  C_28
   10  A    between atoms: C_33  and  C_34
                            x       y       z     vdW  Elec       q    Type
                         _______ _______ _______ _____ _____    ______ ____

>  <TORSDO>
F 10

$$$$
