=
 OpenBabel11052422183D

 25 28  0  0  1  0  0  0  0  0999 V2000
  161.1240  204.7830  148.9440 N   0  0  0  0  0  0  0  0  0  0  0  0
  161.4590  205.8810  149.8410 C   0  0  2  0  0  3  0  0  0  0  0  0
  161.4380  206.2780  147.0450 C   0  0  0  0  0  2  0  0  0  0  0  0
  161.0930  203.4570  149.1320 C   0  0  0  0  0  0  0  0  0  0  0  0
  161.1400  206.9470  152.1310 C   0  0  2  0  0  3  0  0  0  0  0  0
  161.0970  200.6990  148.9600 C   0  0  0  0  0  3  0  0  0  0  0  0
  160.7430  207.2410  147.8130 O   0  0  0  0  0  0  0  0  0  0  0  0
  161.0820  202.8470  147.9060 C   0  0  0  0  0  0  0  0  0  0  0  0
  161.0850  201.4610  147.7760 C   0  0  0  0  0  3  0  0  0  0  0  0
  162.2920  208.2530  149.4830 C   0  0  1  0  0  3  0  0  0  0  0  0
  162.1460  209.5120  148.6460 C   0  0  0  0  0  1  0  0  0  0  0  0
  160.7940  205.7640  151.2100 C   0  0  0  0  0  2  0  0  0  0  0  0
  161.1220  201.3310  150.2240 C   0  0  0  0  0  3  0  0  0  0  0  0
  161.1770  204.9290  147.6120 C   0  0  0  0  0  0  0  0  0  0  0  0
  161.1540  203.7630  146.9170 N   0  0  0  0  0  0  0  0  0  0  0  0
  162.2620  208.6590  150.9600 C   0  0  0  0  0  2  0  0  0  0  0  0
  161.1300  202.7340  150.3240 C   0  0  0  0  0  3  0  0  0  0  0  0
  162.4580  207.5110  151.8430 N   0  0  0  0  0  2  0  0  0  0  0  0
  161.1680  207.2550  149.1800 C   0  0  2  0  0  3  0  0  0  0  0  0
  161.0130  206.5610  153.6030 C   0  0  0  0  0  2  0  0  0  0  0  0
  160.5740  209.0000  153.8350 C   0  0  0  0  0  1  0  0  0  0  0  0
  160.3350  207.6370  154.4520 C   0  0  2  0  0  3  0  0  0  0  0  0
  160.8200  207.6150  155.8700 C   0  0  0  0  0  0  0  0  0  0  0  0
  161.8980  208.1170  156.1430 O   0  0  0  0  0  0  0  0  0  0  0  0
  160.0100  206.9840  156.9550 C   0  0  0  0  0  1  0  0  0  0  0  0
  1  4  1  0  0  0  0
  1  2  1  0  0  0  0
  2 12  1  1  0  0  0
  3 14  1  0  0  0  0
  3  7  1  0  0  0  0
  4 17  1  0  0  0  0
  5 20  1  1  0  0  0
  6 13  1  0  0  0  0
  8  4  2  0  0  0  0
  9  8  1  0  0  0  0
  9  6  2  0  0  0  0
 10 11  1  6  0  0  0
 10 16  1  0  0  0  0
 12  5  1  0  0  0  0
 13 17  2  0  0  0  0
 14  1  1  0  0  0  0
 15 14  2  0  0  0  0
 15  8  1  0  0  0  0
 16 18  1  0  0  0  0
 18  5  1  0  0  0  0
 19  7  1  6  0  0  0
 19 10  1  0  0  0  0
 19  2  1  0  0  0  0
 20 22  1  0  0  0  0
 22 21  1  6  0  0  0
 22 23  1  0  0  0  0
 23 24  2  0  0  0  0
 23 25  1  0  0  0  0
M  END
>  <MODEL>
1

>  <REMARK>
 VINA RESULT:      -9.3      0.000      0.000
  Name = 
  3 active torsions:
  status: ('A' for Active; 'I' for Inactive)
    1  A    between atoms: C_2  and  C_25
    2  A    between atoms: C_6  and  C_15
    3  A    between atoms: C_15  and  C_25
                            x       y       z     vdW  Elec       q    Type
                         _______ _______ _______ _____ _____    ______ ____

>  <TORSDO>
F 3

$$$$
=
 OpenBabel11052422183D

 25 28  0  0  1  0  0  0  0  0999 V2000
  161.1270  205.0520  149.2260 N   0  0  0  0  0  0  0  0  0  0  0  0
  161.4070  206.2230  150.0460 C   0  0  2  0  0  3  0  0  0  0  0  0
  161.5770  206.3780  147.2320 C   0  0  0  0  0  2  0  0  0  0  0  0
  161.0770  203.7470  149.5260 C   0  0  0  0  0  0  0  0  0  0  0  0
  160.9390  207.4820  152.2090 C   0  0  2  0  0  3  0  0  0  0  0  0
  161.0770  200.9850  149.5910 C   0  0  0  0  0  3  0  0  0  0  0  0
  160.8370  207.4040  147.8650 O   0  0  0  0  0  0  0  0  0  0  0  0
  161.1450  203.0350  148.3580 C   0  0  0  0  0  0  0  0  0  0  0  0
  161.1500  201.6420  148.3490 C   0  0  0  0  0  3  0  0  0  0  0  0
  162.2740  208.5570  149.5430 C   0  0  1  0  0  3  0  0  0  0  0  0
  162.1930  209.7390  148.5930 C   0  0  0  0  0  1  0  0  0  0  0  0
  160.6500  206.2250  151.3730 C   0  0  0  0  0  2  0  0  0  0  0  0
  161.0210  201.7230  150.7960 C   0  0  0  0  0  3  0  0  0  0  0  0
  161.2710  205.0830  147.8940 C   0  0  0  0  0  0  0  0  0  0  0  0
  161.2880  203.8610  147.3020 N   0  0  0  0  0  0  0  0  0  0  0  0
  162.1470  209.0880  150.9750 C   0  0  0  0  0  2  0  0  0  0  0  0
  161.0280  203.1300  150.7750 C   0  0  0  0  0  3  0  0  0  0  0  0
  162.2770  208.0210  151.9640 N   0  0  0  0  0  2  0  0  0  0  0  0
  161.1680  207.5360  149.2520 C   0  0  2  0  0  3  0  0  0  0  0  0
  160.7110  207.2250  153.6980 C   0  0  0  0  0  2  0  0  0  0  0  0
  161.4970  207.7770  155.9950 C   0  0  0  0  0  1  0  0  0  0  0  0
  161.2910  208.3190  154.5940 C   0  0  2  0  0  3  0  0  0  0  0  0
  160.4110  209.5330  154.6310 C   0  0  0  0  0  0  0  0  0  0  0  0
  159.3840  209.5100  155.2900 O   0  0  0  0  0  0  0  0  0  0  0  0
  160.7640  210.7680  153.8690 C   0  0  0  0  0  1  0  0  0  0  0  0
  1  4  1  0  0  0  0
  1  2  1  0  0  0  0
  2 12  1  1  0  0  0
  3  7  1  0  0  0  0
  3 14  1  0  0  0  0
  4 17  1  0  0  0  0
  5 20  1  1  0  0  0
  6 13  1  0  0  0  0
  8  4  2  0  0  0  0
  9  8  1  0  0  0  0
  9  6  2  0  0  0  0
 10 11  1  6  0  0  0
 10 16  1  0  0  0  0
 12  5  1  0  0  0  0
 14  1  1  0  0  0  0
 15 14  2  0  0  0  0
 15  8  1  0  0  0  0
 16 18  1  0  0  0  0
 17 13  2  0  0  0  0
 18  5  1  0  0  0  0
 19  7  1  6  0  0  0
 19 10  1  0  0  0  0
 19  2  1  0  0  0  0
 20 22  1  0  0  0  0
 22 23  1  0  0  0  0
 22 21  1  1  0  0  0
 23 24  2  0  0  0  0
 25 23  1  0  0  0  0
M  END
>  <MODEL>
2

>  <REMARK>
 VINA RESULT:      -9.2      0.891      1.442
  Name = 
  3 active torsions:
  status: ('A' for Active; 'I' for Inactive)
    1  A    between atoms: C_2  and  C_25
    2  A    between atoms: C_6  and  C_15
    3  A    between atoms: C_15  and  C_25
                            x       y       z     vdW  Elec       q    Type
                         _______ _______ _______ _____ _____    ______ ____

>  <TORSDO>
F 3

$$$$
=
 OpenBabel11052422183D

 25 28  0  0  1  0  0  0  0  0999 V2000
  161.3380  208.0270  152.8260 N   0  0  0  0  0  0  0  0  0  0  0  0
  161.1920  207.2170  151.6240 C   0  0  2  0  0  3  0  0  0  0  0  0
  161.8110  209.9650  151.4250 C   0  0  0  0  0  2  0  0  0  0  0  0
  160.9430  207.8240  154.0890 C   0  0  0  0  0  0  0  0  0  0  0  0
  161.4110  204.9170  150.5540 C   0  0  2  0  0  3  0  0  0  0  0  0
  160.1560  207.9690  156.7350 C   0  0  0  0  0  3  0  0  0  0  0  0
  162.6160  209.0920  150.6570 O   0  0  0  0  0  0  0  0  0  0  0  0
  160.9860  209.0220  154.7520 C   0  0  0  0  0  0  0  0  0  0  0  0
  160.5960  209.1380  156.0840 C   0  0  0  0  0  3  0  0  0  0  0  0
  161.1710  207.7430  149.1390 C   0  0  1  0  0  3  0  0  0  0  0  0
  161.8230  208.5510  148.0310 C   0  0  0  0  0  1  0  0  0  0  0  0
  161.5460  205.7480  151.8410 C   0  0  0  0  0  2  0  0  0  0  0  0
  160.1000  206.7370  156.0440 C   0  0  0  0  0  3  0  0  0  0  0  0
  161.5610  209.3470  152.7540 C   0  0  0  0  0  0  0  0  0  0  0  0
  161.3590  210.0150  153.9190 N   0  0  0  0  0  0  0  0  0  0  0  0
  161.0630  206.2890  148.6680 C   0  0  0  0  0  2  0  0  0  0  0  0
  160.4900  206.6530  154.6950 C   0  0  0  0  0  3  0  0  0  0  0  0
  160.3880  205.4470  149.6520 N   0  0  0  0  0  2  0  0  0  0  0  0
  161.9850  207.8250  150.4360 C   0  0  2  0  0  3  0  0  0  0  0  0
  161.1620  203.4430  150.8670 C   0  0  0  0  0  2  0  0  0  0  0  0
  159.5760  201.5750  150.4240 C   0  0  0  0  0  1  0  0  0  0  0  0
  160.3300  202.7320  149.7990 C   0  0  2  0  0  3  0  0  0  0  0  0
  161.1800  202.2460  148.6630 C   0  0  0  0  0  0  0  0  0  0  0  0
  161.5940  203.0440  147.8390 O   0  0  0  0  0  0  0  0  0  0  0  0
  161.5240  200.7990  148.5190 C   0  0  0  0  0  1  0  0  0  0  0  0
  1  4  1  0  0  0  0
  2 12  1  1  0  0  0
  2  1  1  0  0  0  0
  3 14  1  0  0  0  0
  4 17  2  0  0  0  0
  4  8  1  0  0  0  0
  5 20  1  1  0  0  0
  5 12  1  0  0  0  0
  7  3  1  0  0  0  0
  8  9  2  0  0  0  0
  9  6  1  0  0  0  0
 10 11  1  6  0  0  0
 10 19  1  0  0  0  0
 13  6  2  0  0  0  0
 14  1  1  0  0  0  0
 14 15  2  0  0  0  0
 15  8  1  0  0  0  0
 16 10  1  0  0  0  0
 16 18  1  0  0  0  0
 17 13  1  0  0  0  0
 18  5  1  0  0  0  0
 19  7  1  1  0  0  0
 19  2  1  0  0  0  0
 22 21  1  1  0  0  0
 22 20  1  0  0  0  0
 23 22  1  0  0  0  0
 24 23  2  0  0  0  0
 25 23  1  0  0  0  0
M  END
>  <MODEL>
3

>  <REMARK>
 VINA RESULT:      -8.0      1.859      6.753
  Name = 
  3 active torsions:
  status: ('A' for Active; 'I' for Inactive)
    1  A    between atoms: C_2  and  C_25
    2  A    between atoms: C_6  and  C_15
    3  A    between atoms: C_15  and  C_25
                            x       y       z     vdW  Elec       q    Type
                         _______ _______ _______ _____ _____    ______ ____

>  <TORSDO>
F 3

$$$$
=
 OpenBabel11052422183D

 25 28  0  0  1  0  0  0  0  0999 V2000
  161.4660  205.4830  150.4290 N   0  0  0  0  0  0  0  0  0  0  0  0
  161.3520  206.7350  151.1630 C   0  0  2  0  0  3  0  0  0  0  0  0
  160.7530  204.2810  152.4260 C   0  0  0  0  0  2  0  0  0  0  0  0
  161.5230  205.2220  149.1160 C   0  0  0  0  0  0  0  0  0  0  0  0
  162.1850  209.1220  151.4660 C   0  0  2  0  0  3  0  0  0  0  0  0
  161.4500  204.1740  146.5600 C   0  0  0  0  0  3  0  0  0  0  0  0
  161.6130  205.1510  153.1370 O   0  0  0  0  0  0  0  0  0  0  0  0
  161.2540  203.8930  148.9280 C   0  0  0  0  0  0  0  0  0  0  0  0
  161.2060  203.3270  147.6570 C   0  0  0  0  0  3  0  0  0  0  0  0
  160.4870  207.3490  153.4710 C   0  0  1  0  0  3  0  0  0  0  0  0
  160.4570  206.9520  154.9370 C   0  0  0  0  0  1  0  0  0  0  0  0
  162.3040  207.8180  150.6600 C   0  0  0  0  0  2  0  0  0  0  0  0
  161.7130  205.5500  146.7560 C   0  0  0  0  0  3  0  0  0  0  0  0
  161.1190  204.3130  150.9860 C   0  0  0  0  0  0  0  0  0  0  0  0
  160.9740  203.2910  150.1030 N   0  0  0  0  0  0  0  0  0  0  0  0
  160.8490  208.8360  153.3890 C   0  0  0  0  0  2  0  0  0  0  0  0
  161.7450  206.0960  148.0520 C   0  0  0  0  0  3  0  0  0  0  0  0
  160.8420  209.3220  152.0110 N   0  0  0  0  0  2  0  0  0  0  0  0
  161.5040  206.5070  152.6910 C   0  0  2  0  0  3  0  0  0  0  0  0
  162.6320  210.3280  150.6420 C   0  0  0  0  0  2  0  0  0  0  0  0
  161.9560  209.6540  148.3430 C   0  0  0  0  0  1  0  0  0  0  0  0
  161.7000  210.6350  149.4700 C   0  0  2  0  0  3  0  0  0  0  0  0
  161.8650  212.0430  148.9810 C   0  0  0  0  0  0  0  0  0  0  0  0
  161.0780  212.9010  149.3440 O   0  0  0  0  0  0  0  0  0  0  0  0
  162.9740  212.4130  148.0500 C   0  0  0  0  0  1  0  0  0  0  0  0
  1 14  1  0  0  0  0
  1  2  1  0  0  0  0
  2 12  1  6  0  0  0
  2 19  1  0  0  0  0
  3  7  1  0  0  0  0
  4  1  1  0  0  0  0
  5 20  1  6  0  0  0
  5 18  1  0  0  0  0
  6 13  2  0  0  0  0
  6  9  1  0  0  0  0
  8  4  1  0  0  0  0
  8 15  1  0  0  0  0
  9  8  2  0  0  0  0
 10 11  1  1  0  0  0
 12  5  1  0  0  0  0
 13 17  1  0  0  0  0
 14  3  1  0  0  0  0
 15 14  2  0  0  0  0
 16 10  1  0  0  0  0
 17  4  2  0  0  0  0
 18 16  1  0  0  0  0
 19  7  1  6  0  0  0
 19 10  1  0  0  0  0
 22 21  1  6  0  0  0
 22 20  1  0  0  0  0
 23 24  2  0  0  0  0
 23 22  1  0  0  0  0
 25 23  1  0  0  0  0
M  END
>  <MODEL>
4

>  <REMARK>
 VINA RESULT:      -7.9      2.118      5.006
  Name = 
  3 active torsions:
  status: ('A' for Active; 'I' for Inactive)
    1  A    between atoms: C_2  and  C_25
    2  A    between atoms: C_6  and  C_15
    3  A    between atoms: C_15  and  C_25
                            x       y       z     vdW  Elec       q    Type
                         _______ _______ _______ _____ _____    ______ ____

>  <TORSDO>
F 3

$$$$
=
 OpenBabel11052422183D

 25 28  0  0  1  0  0  0  0  0999 V2000
  161.1470  206.3510  151.0780 N   0  0  0  0  0  0  0  0  0  0  0  0
  161.2640  205.4070  149.9750 C   0  0  2  0  0  3  0  0  0  0  0  0
  160.9810  204.4760  152.6260 C   0  0  0  0  0  2  0  0  0  0  0  0
  161.4450  207.6540  151.1700 C   0  0  0  0  0  0  0  0  0  0  0  0
  160.8380  204.9320  147.5100 C   0  0  2  0  0  3  0  0  0  0  0  0
  162.0960  210.2340  151.9150 C   0  0  0  0  0  3  0  0  0  0  0  0
  160.1230  203.8870  151.6680 O   0  0  0  0  0  0  0  0  0  0  0  0
  161.5050  207.9890  152.4960 C   0  0  0  0  0  0  0  0  0  0  0  0
  161.8320  209.2770  152.9130 C   0  0  0  0  0  3  0  0  0  0  0  0
  161.4830  202.8800  149.8370 C   0  0  1  0  0  3  0  0  0  0  0  0
  160.9910  201.5540  150.3920 C   0  0  0  0  0  1  0  0  0  0  0  0
  160.7290  205.9550  148.6540 C   0  0  0  0  0  2  0  0  0  0  0  0
  162.0460  209.8810  150.5460 C   0  0  0  0  0  3  0  0  0  0  0  0
  161.0830  205.9330  152.3500 C   0  0  0  0  0  0  0  0  0  0  0  0
  161.2970  206.9060  153.2730 N   0  0  0  0  0  0  0  0  0  0  0  0
  161.4470  202.7980  148.3080 C   0  0  0  0  0  2  0  0  0  0  0  0
  161.7240  208.5680  150.1560 C   0  0  0  0  0  3  0  0  0  0  0  0
  161.9640  204.0150  147.6860 N   0  0  0  0  0  2  0  0  0  0  0  0
  160.6130  204.0430  150.3310 C   0  0  2  0  0  3  0  0  0  0  0  0
  160.8960  205.6240  146.1490 C   0  0  0  0  0  2  0  0  0  0  0  0
  161.5880  205.4940  143.7610 C   0  0  0  0  0  1  0  0  0  0  0  0
  161.3140  204.6880  145.0150 C   0  0  2  0  0  3  0  0  0  0  0  0
  160.2730  203.6430  144.7440 C   0  0  0  0  0  0  0  0  0  0  0  0
  159.2390  203.9580  144.1790 O   0  0  0  0  0  0  0  0  0  0  0  0
  160.4770  202.2220  145.1590 C   0  0  0  0  0  1  0  0  0  0  0  0
  1  4  1  0  0  0  0
  1 14  1  0  0  0  0
  2 12  1  6  0  0  0
  2 19  1  0  0  0  0
  2  1  1  0  0  0  0
  4  8  1  0  0  0  0
  5 20  1  6  0  0  0
  5 18  1  0  0  0  0
  5 12  1  0  0  0  0
  6  9  1  0  0  0  0
  7  3  1  0  0  0  0
  8  9  2  0  0  0  0
  8 15  1  0  0  0  0
 10 19  1  0  0  0  0
 10 11  1  1  0  0  0
 13  6  2  0  0  0  0
 14  3  1  0  0  0  0
 14 15  2  0  0  0  0
 16 10  1  0  0  0  0
 17 13  1  0  0  0  0
 17  4  2  0  0  0  0
 18 16  1  0  0  0  0
 19  7  1  1  0  0  0
 22 21  1  6  0  0  0
 22 20  1  0  0  0  0
 23 22  1  0  0  0  0
 23 25  1  0  0  0  0
 24 23  2  0  0  0  0
M  END
>  <MODEL>
5

>  <REMARK>
 VINA RESULT:      -7.6      2.354      7.646
  Name = 
  3 active torsions:
  status: ('A' for Active; 'I' for Inactive)
    1  A    between atoms: C_2  and  C_25
    2  A    between atoms: C_6  and  C_15
    3  A    between atoms: C_15  and  C_25
                            x       y       z     vdW  Elec       q    Type
                         _______ _______ _______ _____ _____    ______ ____

>  <TORSDO>
F 3

$$$$
=
 OpenBabel11052422183D

 25 28  0  0  1  0  0  0  0  0999 V2000
  161.3800  206.8770  151.1290 N   0  0  0  0  0  0  0  0  0  0  0  0
  161.2430  208.3210  151.2570 C   0  0  2  0  0  3  0  0  0  0  0  0
  160.8660  206.6470  153.5000 C   0  0  0  0  0  2  0  0  0  0  0  0
  161.3660  206.0730  150.0580 C   0  0  0  0  0  0  0  0  0  0  0  0
  161.9590  210.6200  150.4300 C   0  0  2  0  0  3  0  0  0  0  0  0
  161.1880  204.0160  148.2200 C   0  0  0  0  0  3  0  0  0  0  0  0
  161.7190  207.7590  153.6930 O   0  0  0  0  0  0  0  0  0  0  0  0
  161.1610  204.7880  150.4850 C   0  0  0  0  0  0  0  0  0  0  0  0
  161.0630  203.7250  149.5910 C   0  0  0  0  0  3  0  0  0  0  0  0
  160.4960  209.8580  153.1360 C   0  0  1  0  0  3  0  0  0  0  0  0
  160.5820  210.1370  154.6270 C   0  0  0  0  0  1  0  0  0  0  0  0
  162.0980  209.0980  150.2590 C   0  0  0  0  0  2  0  0  0  0  0  0
  161.3860  205.3460  147.7800 C   0  0  0  0  0  3  0  0  0  0  0  0
  161.1360  206.0580  152.1630 C   0  0  0  0  0  0  0  0  0  0  0  0
  160.9920  204.7510  151.8230 N   0  0  0  0  0  0  0  0  0  0  0  0
  160.7680  211.1680  152.3910 C   0  0  0  0  0  2  0  0  0  0  0  0
  161.4700  206.4020  148.7070 C   0  0  0  0  0  3  0  0  0  0  0  0
  160.6450  211.0070  150.9440 N   0  0  0  0  0  2  0  0  0  0  0  0
  161.5060  208.7840  152.7160 C   0  0  2  0  0  3  0  0  0  0  0  0
  162.2840  211.3580  149.1330 C   0  0  0  0  0  2  0  0  0  0  0  0
  160.7830  211.9820  147.2470 C   0  0  0  0  0  1  0  0  0  0  0  0
  161.1670  212.2980  148.6790 C   0  0  2  0  0  3  0  0  0  0  0  0
  161.5660  213.7380  148.8040 C   0  0  0  0  0  0  0  0  0  0  0  0
  160.9900  214.4530  149.6080 O   0  0  0  0  0  0  0  0  0  0  0  0
  162.6530  214.3160  147.9580 C   0  0  0  0  0  1  0  0  0  0  0  0
  1  2  1  0  0  0  0
  1 14  1  0  0  0  0
  2 12  1  6  0  0  0
  2 19  1  0  0  0  0
  3  7  1  0  0  0  0
  4  8  1  0  0  0  0
  4  1  1  0  0  0  0
  5 20  1  6  0  0  0
  5 18  1  0  0  0  0
  6  9  1  0  0  0  0
  8 15  1  0  0  0  0
  9  8  2  0  0  0  0
 10 11  1  1  0  0  0
 12  5  1  0  0  0  0
 13  6  2  0  0  0  0
 13 17  1  0  0  0  0
 14  3  1  0  0  0  0
 15 14  2  0  0  0  0
 16 10  1  0  0  0  0
 17  4  2  0  0  0  0
 18 16  1  0  0  0  0
 19 10  1  0  0  0  0
 19  7  1  1  0  0  0
 22 21  1  6  0  0  0
 22 23  1  0  0  0  0
 22 20  1  0  0  0  0
 23 24  2  0  0  0  0
 25 23  1  0  0  0  0
M  END
>  <MODEL>
6

>  <REMARK>
 VINA RESULT:      -7.4      2.654      5.710
  Name = 
  3 active torsions:
  status: ('A' for Active; 'I' for Inactive)
    1  A    between atoms: C_2  and  C_25
    2  A    between atoms: C_6  and  C_15
    3  A    between atoms: C_15  and  C_25
                            x       y       z     vdW  Elec       q    Type
                         _______ _______ _______ _____ _____    ______ ____

>  <TORSDO>
F 3

$$$$
=
 OpenBabel11052422183D

 25 28  0  0  1  0  0  0  0  0999 V2000
  161.4440  204.2990  149.0170 N   0  0  0  0  0  0  0  0  0  0  0  0
  161.3100  205.5460  149.7570 C   0  0  2  0  0  3  0  0  0  0  0  0
  161.3180  203.0720  151.1180 C   0  0  0  0  0  2  0  0  0  0  0  0
  161.2700  204.0110  147.7200 C   0  0  0  0  0  0  0  0  0  0  0  0
  161.8540  208.0300  149.8820 C   0  0  2  0  0  3  0  0  0  0  0  0
  160.8280  202.8900  145.2330 C   0  0  0  0  0  3  0  0  0  0  0  0
  162.1760  204.0680  151.6390 O   0  0  0  0  0  0  0  0  0  0  0  0
  161.1530  202.6530  147.5920 C   0  0  0  0  0  0  0  0  0  0  0  0
  160.9270  202.0490  146.3580 C   0  0  0  0  0  3  0  0  0  0  0  0
  160.8520  206.1060  152.1920 C   0  0  1  0  0  3  0  0  0  0  0  0
  161.1710  205.7500  153.6340 C   0  0  0  0  0  1  0  0  0  0  0  0
  161.9840  206.7310  149.0700 C   0  0  0  0  0  2  0  0  0  0  0  0
  160.9360  204.2930  145.3700 C   0  0  0  0  0  3  0  0  0  0  0  0
  161.3790  203.1110  149.6340 C   0  0  0  0  0  0  0  0  0  0  0  0
  161.1990  202.0540  148.8000 N   0  0  0  0  0  0  0  0  0  0  0  0
  160.9840  207.6240  152.0360 C   0  0  0  0  0  2  0  0  0  0  0  0
  161.1520  204.8750  146.6320 C   0  0  0  0  0  3  0  0  0  0  0  0
  160.6330  208.0650  150.6880 N   0  0  0  0  0  2  0  0  0  0  0  0
  161.7960  205.3850  151.2230 C   0  0  2  0  0  3  0  0  0  0  0  0
  161.9570  209.2610  148.9830 C   0  0  0  0  0  2  0  0  0  0  0  0
  161.5810  210.6230  151.0320 C   0  0  0  0  0  1  0  0  0  0  0  0
  162.3650  210.5260  149.7390 C   0  0  2  0  0  3  0  0  0  0  0  0
  162.1590  211.7590  148.9110 C   0  0  0  0  0  0  0  0  0  0  0  0
  161.1740  212.4540  149.1040 O   0  0  0  0  0  0  0  0  0  0  0  0
  163.1340  212.1510  147.8500 C   0  0  0  0  0  1  0  0  0  0  0  0
  1 14  1  0  0  0  0
  1  2  1  0  0  0  0
  2 12  1  6  0  0  0
  2 19  1  0  0  0  0
  3  7  1  0  0  0  0
  4  1  1  0  0  0  0
  5 20  1  6  0  0  0
  5 18  1  0  0  0  0
  6 13  2  0  0  0  0
  6  9  1  0  0  0  0
  8  4  1  0  0  0  0
  8 15  1  0  0  0  0
  9  8  2  0  0  0  0
 10 11  1  1  0  0  0
 12  5  1  0  0  0  0
 13 17  1  0  0  0  0
 14  3  1  0  0  0  0
 15 14  2  0  0  0  0
 16 10  1  0  0  0  0
 17  4  2  0  0  0  0
 18 16  1  0  0  0  0
 19  7  1  1  0  0  0
 19 10  1  0  0  0  0
 20 22  1  0  0  0  0
 22 21  1  1  0  0  0
 23 24  2  0  0  0  0
 23 22  1  0  0  0  0
 25 23  1  0  0  0  0
M  END
>  <MODEL>
7

>  <REMARK>
 VINA RESULT:      -7.0      2.255      4.725
  Name = 
  3 active torsions:
  status: ('A' for Active; 'I' for Inactive)
    1  A    between atoms: C_2  and  C_25
    2  A    between atoms: C_6  and  C_15
    3  A    between atoms: C_15  and  C_25
                            x       y       z     vdW  Elec       q    Type
                         _______ _______ _______ _____ _____    ______ ____

>  <TORSDO>
F 3

$$$$
=
 OpenBabel11052422183D

 25 28  0  0  1  0  0  0  0  0999 V2000
  161.2770  207.3650  152.5340 N   0  0  0  0  0  0  0  0  0  0  0  0
  161.0610  208.7790  152.2580 C   0  0  2  0  0  3  0  0  0  0  0  0
  160.9770  207.8130  154.9110 C   0  0  0  0  0  2  0  0  0  0  0  0
  161.2250  206.2860  151.7420 C   0  0  0  0  0  0  0  0  0  0  0  0
  161.5610  210.7650  150.7460 C   0  0  2  0  0  3  0  0  0  0  0  0
  161.0230  203.7810  150.5920 C   0  0  0  0  0  3  0  0  0  0  0  0
  161.7720  208.9630  154.6950 O   0  0  0  0  0  0  0  0  0  0  0  0
  161.1360  205.1730  152.5350 C   0  0  0  0  0  0  0  0  0  0  0  0
  161.0310  203.8940  151.9950 C   0  0  0  0  0  3  0  0  0  0  0  0
  160.3790  210.7660  153.6860 C   0  0  1  0  0  3  0  0  0  0  0  0
  160.5700  211.4660  155.0200 C   0  0  0  0  0  1  0  0  0  0  0  0
  161.7810  209.2650  151.0020 C   0  0  0  0  0  2  0  0  0  0  0  0
  161.1010  204.9330  149.7750 C   0  0  0  0  0  3  0  0  0  0  0  0
  161.1710  206.8720  153.7760 C   0  0  0  0  0  0  0  0  0  0  0  0
  161.0810  205.5190  153.8380 N   0  0  0  0  0  0  0  0  0  0  0  0
  160.5050  211.8130  152.5760 C   0  0  0  0  0  2  0  0  0  0  0  0
  161.1950  206.2140  150.3500 C   0  0  0  0  0  3  0  0  0  0  0  0
  160.2720  211.2360  151.2540 N   0  0  0  0  0  2  0  0  0  0  0  0
  161.4150  209.6530  153.4920 C   0  0  2  0  0  3  0  0  0  0  0  0
  161.7300  211.1070  149.2660 C   0  0  0  0  0  2  0  0  0  0  0  0
  160.4600  213.1690  148.6880 C   0  0  0  0  0  1  0  0  0  0  0  0
  161.8330  212.6100  149.0040 C   0  0  2  0  0  3  0  0  0  0  0  0
  162.7890  212.9170  147.8900 C   0  0  0  0  0  0  0  0  0  0  0  0
  163.9520  212.5600  147.9820 O   0  0  0  0  0  0  0  0  0  0  0  0
  162.3440  213.6570  146.6710 C   0  0  0  0  0  1  0  0  0  0  0  0
  1 14  1  0  0  0  0
  2 12  1  6  0  0  0
  2  1  1  0  0  0  0
  2 19  1  0  0  0  0
  4  1  1  0  0  0  0
  4  8  1  0  0  0  0
  5 20  1  6  0  0  0
  5 12  1  0  0  0  0
  5 18  1  0  0  0  0
  6  9  1  0  0  0  0
  7  3  1  0  0  0  0
  8 15  1  0  0  0  0
  9  8  2  0  0  0  0
 10 11  1  1  0  0  0
 13 17  1  0  0  0  0
 13  6  2  0  0  0  0
 14 15  2  0  0  0  0
 14  3  1  0  0  0  0
 16 10  1  0  0  0  0
 17  4  2  0  0  0  0
 18 16  1  0  0  0  0
 19 10  1  0  0  0  0
 19  7  1  1  0  0  0
 22 21  1  6  0  0  0
 22 20  1  0  0  0  0
 23 24  2  0  0  0  0
 23 22  1  0  0  0  0
 25 23  1  0  0  0  0
M  END
>  <MODEL>
8

>  <REMARK>
 VINA RESULT:      -6.9      2.719      6.298
  Name = 
  3 active torsions:
  status: ('A' for Active; 'I' for Inactive)
    1  A    between atoms: C_2  and  C_25
    2  A    between atoms: C_6  and  C_15
    3  A    between atoms: C_15  and  C_25
                            x       y       z     vdW  Elec       q    Type
                         _______ _______ _______ _____ _____    ______ ____

>  <TORSDO>
F 3

$$$$
=
 OpenBabel11052422183D

 25 28  0  0  1  0  0  0  0  0999 V2000
  161.4100  204.5310  150.5600 N   0  0  0  0  0  0  0  0  0  0  0  0
  161.4920  205.7640  149.7890 C   0  0  2  0  0  3  0  0  0  0  0  0
  161.5680  205.8380  152.6110 C   0  0  0  0  0  2  0  0  0  0  0  0
  160.9950  203.3010  150.2310 C   0  0  0  0  0  0  0  0  0  0  0  0
  162.2170  206.8890  147.6230 C   0  0  2  0  0  3  0  0  0  0  0  0
  160.0530  200.7050  150.1080 C   0  0  0  0  0  3  0  0  0  0  0  0
  162.5700  206.5820  151.9440 O   0  0  0  0  0  0  0  0  0  0  0  0
  160.7650  202.6000  151.3850 C   0  0  0  0  0  0  0  0  0  0  0  0
  160.2890  201.2920  151.3660 C   0  0  0  0  0  3  0  0  0  0  0  0
  161.5030  208.2270  150.4060 C   0  0  1  0  0  3  0  0  0  0  0  0
  162.0430  209.2680  151.3710 C   0  0  0  0  0  1  0  0  0  0  0  0
  162.1160  205.5710  148.4090 C   0  0  0  0  0  2  0  0  0  0  0  0
  160.2780  201.4360  148.9180 C   0  0  0  0  0  3  0  0  0  0  0  0
  161.3730  204.5480  151.9000 C   0  0  0  0  0  0  0  0  0  0  0  0
  160.9800  203.3770  152.4660 N   0  0  0  0  0  0  0  0  0  0  0  0
  161.7090  208.7490  148.9800 C   0  0  0  0  0  2  0  0  0  0  0  0
  160.7490  202.7610  148.9690 C   0  0  0  0  0  3  0  0  0  0  0  0
  161.1600  207.8350  147.9810 N   0  0  0  0  0  2  0  0  0  0  0  0
  162.2130  206.8810  150.5900 C   0  0  2  0  0  3  0  0  0  0  0  0
  162.2460  206.6380  146.1160 C   0  0  0  0  0  2  0  0  0  0  0  0
  163.4510  204.5460  145.5060 C   0  0  0  0  0  1  0  0  0  0  0  0
  162.0880  205.1620  145.7490 C   0  0  2  0  0  3  0  0  0  0  0  0
  161.2130  204.9790  144.5450 C   0  0  0  0  0  0  0  0  0  0  0  0
  161.3640  205.7060  143.5770 O   0  0  0  0  0  0  0  0  0  0  0  0
  160.1530  203.9270  144.5110 C   0  0  0  0  0  1  0  0  0  0  0  0
  1 14  1  0  0  0  0
  2 12  1  6  0  0  0
  2  1  1  0  0  0  0
  2 19  1  0  0  0  0
  4  1  1  0  0  0  0
  4  8  1  0  0  0  0
  5 20  1  6  0  0  0
  5 18  1  0  0  0  0
  5 12  1  0  0  0  0
  6  9  1  0  0  0  0
  7  3  1  0  0  0  0
  8 15  1  0  0  0  0
  9  8  2  0  0  0  0
 10 19  1  0  0  0  0
 10 11  1  1  0  0  0
 13 17  1  0  0  0  0
 13  6  2  0  0  0  0
 14 15  2  0  0  0  0
 14  3  1  0  0  0  0
 16 10  1  0  0  0  0
 17  4  2  0  0  0  0
 18 16  1  0  0  0  0
 19  7  1  1  0  0  0
 22 21  1  6  0  0  0
 22 20  1  0  0  0  0
 23 22  1  0  0  0  0
 24 23  2  0  0  0  0
 25 23  1  0  0  0  0
M  END
>  <MODEL>
9

>  <REMARK>
 VINA RESULT:      -6.9      2.397      6.020
  Name = 
  3 active torsions:
  status: ('A' for Active; 'I' for Inactive)
    1  A    between atoms: C_2  and  C_25
    2  A    between atoms: C_6  and  C_15
    3  A    between atoms: C_15  and  C_25
                            x       y       z     vdW  Elec       q    Type
                         _______ _______ _______ _____ _____    ______ ____

>  <TORSDO>
F 3

$$$$
