=
 OpenBabel11052421553D

 30 33  0  0  1  0  0  0  0  0999 V2000
  161.2780  206.2710  147.6080 C   0  0  0  0  0  2  0  0  0  0  0  0
  162.5740  205.1150  145.7790 C   0  0  2  0  0  3  0  0  0  0  0  0
  160.8550  202.3630  150.1040 S   0  0  0  0  0  0  0  0  0  0  0  0
  160.9780  206.3230  149.1160 C   0  0  1  0  0  3  0  0  0  0  0  0
  160.1830  203.4040  151.4530 C   0  0  1  0  0  3  0  0  0  0  0  0
  161.4960  204.4220  144.9390 C   0  0  0  0  0  2  0  0  0  0  0  0
  163.9210  204.4500  145.5590 C   0  0  0  0  0  1  0  0  0  0  0  0
  161.1650  203.8310  149.1390 C   0  0  0  0  0  0  0  0  0  0  0  0
  161.0470  203.1300  145.6220 C   0  0  0  0  0  2  0  0  0  0  0  0
  162.2250  205.1180  147.2700 C   0  0  2  0  0  3  0  0  0  0  0  0
  160.8020  204.9580  149.7340 C   0  0  0  0  0  0  0  0  0  0  0  0
  160.9710  203.2080  152.6560 N   0  0  0  0  0  1  0  0  0  0  0  0
  160.2690  204.7930  151.0370 N   0  0  0  0  0  2  0  0  0  0  0  0
  160.5240  203.4260  146.8910 O   0  0  0  0  0  0  0  0  0  0  0  0
  161.6180  203.7680  147.7090 C   0  0  2  0  0  3  0  0  0  0  0  0
  161.9680  207.1780  149.9230 C   0  0  2  0  0  3  0  0  0  0  0  0
  160.7000  208.4340  152.3240 C   0  0  0  0  0  2  0  0  0  0  0  0
  162.9760  205.6760  151.4920 O   0  0  0  0  0  0  0  0  0  0  0  0
  162.2170  206.6680  151.3140 C   0  0  0  0  0  0  0  0  0  0  0  0
  161.7720  206.8450  153.8000 C   0  0  0  0  0  2  0  0  0  0  0  0
  161.5860  207.2940  152.4360 N   0  0  0  0  0  0  0  0  0  0  0  0
  160.3720  208.8370  153.7490 C   0  0  0  0  0  2  0  0  0  0  0  0
  160.8360  207.6930  154.6400 C   0  0  0  0  0  2  0  0  0  0  0  0
  161.7560  208.6670  149.8390 C   0  0  0  0  0  2  0  0  0  0  0  0
  162.2910  209.5640  148.6060 S   0  0  0  0  0  0  0  0  0  0  0  0
  161.9360  211.2490  149.1270 C   0  0  0  0  0  2  0  0  0  0  0  0
  162.6620  212.2270  148.2230 C   0  0  0  0  0  2  0  0  0  0  0  0
  160.4360  212.2820  147.1090 O   0  0  0  0  0  1  0  0  0  0  0  0
  161.7830  212.6170  147.0890 C   0  0  0  0  0  0  0  0  0  0  0  0
  162.2530  213.2760  146.1260 O   0  0  0  0  0  0  0  0  0  0  0  0
  1  4  1  0  0  0  0
  2  7  1  1  0  0  0
  2 10  1  0  0  0  0
  3  5  1  0  0  0  0
  4 11  1  0  0  0  0
  4 16  1  1  0  0  0
  5 12  1  1  0  0  0
  6  9  1  0  0  0  0
  6  2  1  0  0  0  0
  8 11  2  0  0  0  0
  8  3  1  0  0  0  0
  9 14  1  0  0  0  0
 10  1  1  6  0  0  0
 10 15  1  0  0  0  0
 11 13  1  0  0  0  0
 13  5  1  0  0  0  0
 15 14  1  6  0  0  0
 15  8  1  0  0  0  0
 16 24  1  1  0  0  0
 16 19  1  0  0  0  0
 17 21  1  0  0  0  0
 17 22  1  0  0  0  0
 19 18  2  0  0  0  0
 19 21  1  0  0  0  0
 20 23  1  0  0  0  0
 21 20  1  0  0  0  0
 22 23  1  0  0  0  0
 25 26  1  0  0  0  0
 25 24  1  0  0  0  0
 27 26  1  0  0  0  0
 29 28  1  0  0  0  0
 29 27  1  0  0  0  0
 30 29  2  0  0  0  0
M  END
>  <MODEL>
1

>  <REMARK>
 VINA RESULT:      -7.1      0.000      0.000
  Name = 
  6 active torsions:
  status: ('A' for Active; 'I' for Inactive)
    1  A    between atoms: C_4  and  C_13
    2  A    between atoms: C_7  and  C_15
    3  A    between atoms: C_7  and  C_16
    4  A    between atoms: C_8  and  C_13
    5  A    between atoms: C_13  and  C_27
    6  A    between atoms: C_16  and  S_30
                            x       y       z     vdW  Elec       q    Type
                         _______ _______ _______ _____ _____    ______ ____

>  <TORSDO>
F 6

$$$$
=
 OpenBabel11052421553D

 30 33  0  0  1  0  0  0  0  0999 V2000
  161.8280  210.2580  151.6230 C   0  0  0  0  0  2  0  0  0  0  0  0
  160.0540  211.3280  153.0610 C   0  0  2  0  0  3  0  0  0  0  0  0
  161.1170  206.0420  153.4680 S   0  0  0  0  0  0  0  0  0  0  0  0
  162.2640  208.9830  150.8780 C   0  0  1  0  0  3  0  0  0  0  0  0
  162.2240  205.3840  152.1660 C   0  0  1  0  0  3  0  0  0  0  0  0
  160.7490  211.5470  154.4090 C   0  0  0  0  0  2  0  0  0  0  0  0
  158.5470  211.3110  153.2430 C   0  0  0  0  0  1  0  0  0  0  0  0
  161.2400  207.6660  152.7390 C   0  0  2  0  0  3  0  0  0  0  0  0
  160.7910  210.2390  155.1980 C   0  0  0  0  0  2  0  0  0  0  0  0
  160.5180  210.0370  152.3800 C   0  0  2  0  0  3  0  0  0  0  0  0
  162.0190  207.7210  151.6670 C   0  0  0  0  0  0  0  0  0  0  0  0
  161.5300  204.3570  151.4110 N   0  0  0  0  0  1  0  0  0  0  0  0
  162.5800  206.4790  151.2790 N   0  0  0  0  0  0  0  0  0  0  0  0
  161.4960  209.2700  154.4670 O   0  0  0  0  0  0  0  0  0  0  0  0
  160.6650  208.8850  153.3980 C   0  0  2  0  0  3  0  0  0  0  0  0
  161.7030  208.8680  149.4520 C   0  0  2  0  0  3  0  0  0  0  0  0
  160.6250  206.2200  148.5700 C   0  0  0  0  0  2  0  0  0  0  0  0
  163.6340  208.2830  148.1630 O   0  0  0  0  0  0  0  0  0  0  0  0
  162.4880  207.9440  148.5640 C   0  0  0  0  0  0  0  0  0  0  0  0
  162.6280  205.7570  147.2950 C   0  0  0  0  0  2  0  0  0  0  0  0
  161.9330  206.6880  148.1590 N   0  0  0  0  0  0  0  0  0  0  0  0
  160.5050  204.8110  148.0210 C   0  0  0  0  0  2  0  0  0  0  0  0
  161.6420  204.6380  147.0240 C   0  0  0  0  0  2  0  0  0  0  0  0
  161.3160  210.1700  148.8010 C   0  0  0  0  0  2  0  0  0  0  0  0
  162.3440  211.4030  148.6170 S   0  0  0  0  0  0  0  0  0  0  0  0
  161.3040  212.7260  147.9780 C   0  0  0  0  0  2  0  0  0  0  0  0
  161.1570  212.5780  146.4760 C   0  0  0  0  0  2  0  0  0  0  0  0
  158.7450  212.5990  147.0930 O   0  0  0  0  0  1  0  0  0  0  0  0
  159.7210  212.4350  146.1190 C   0  0  0  0  0  0  0  0  0  0  0  0
  159.3880  212.1960  144.9300 O   0  0  0  0  0  0  0  0  0  0  0  0
  2  7  1  1  0  0  0
  2  6  1  0  0  0  0
  4 16  1  6  0  0  0
  4  1  1  0  0  0  0
  4 11  1  0  0  0  0
  5 12  1  6  0  0  0
  5  3  1  0  0  0  0
  6  9  1  0  0  0  0
  8 11  1  1  0  0  0
  8 15  1  0  0  0  0
  8  3  1  0  0  0  0
 10  1  1  1  0  0  0
 10  2  1  0  0  0  0
 10 15  1  0  0  0  0
 13 11  2  0  0  0  0
 13  5  1  0  0  0  0
 14  9  1  0  0  0  0
 15 14  1  1  0  0  0
 16 24  1  6  0  0  0
 18 19  2  0  0  0  0
 19 16  1  0  0  0  0
 20 21  1  0  0  0  0
 21 19  1  0  0  0  0
 21 17  1  0  0  0  0
 22 17  1  0  0  0  0
 23 20  1  0  0  0  0
 23 22  1  0  0  0  0
 25 24  1  0  0  0  0
 26 25  1  0  0  0  0
 27 26  1  0  0  0  0
 29 27  1  0  0  0  0
 29 28  1  0  0  0  0
 30 29  2  0  0  0  0
M  END
>  <MODEL>
2

>  <REMARK>
 VINA RESULT:      -6.7      2.289      6.099
  Name = 
  6 active torsions:
  status: ('A' for Active; 'I' for Inactive)
    1  A    between atoms: C_4  and  C_13
    2  A    between atoms: C_7  and  C_15
    3  A    between atoms: C_7  and  C_16
    4  A    between atoms: C_8  and  C_13
    5  A    between atoms: C_13  and  C_27
    6  A    between atoms: C_16  and  S_30
                            x       y       z     vdW  Elec       q    Type
                         _______ _______ _______ _____ _____    ______ ____

>  <TORSDO>
F 6

$$$$
=
 OpenBabel11052421553D

 30 33  0  0  1  0  0  0  0  0999 V2000
  162.1030  210.7090  151.4110 C   0  0  0  0  0  2  0  0  0  0  0  0
  160.6730  210.3730  153.4620 C   0  0  2  0  0  3  0  0  0  0  0  0
  161.0320  206.5180  149.6870 S   0  0  0  0  0  0  0  0  0  0  0  0
  162.2690  210.4030  149.9120 C   0  0  1  0  0  3  0  0  0  0  0  0
  161.8790  207.0350  148.1480 C   0  0  1  0  0  3  0  0  0  0  0  0
  161.5430  209.5150  154.3860 C   0  0  0  0  0  2  0  0  0  0  0  0
  159.2100  210.2370  153.8410 C   0  0  0  0  0  1  0  0  0  0  0  0
  161.2940  208.1470  150.3660 C   0  0  2  0  0  3  0  0  0  0  0  0
  161.4940  208.0520  153.9470 C   0  0  0  0  0  2  0  0  0  0  0  0
  160.8710  210.0080  151.9870 C   0  0  2  0  0  3  0  0  0  0  0  0
  161.9440  208.9730  149.5580 C   0  0  0  0  0  0  0  0  0  0  0  0
  160.9660  206.9100  147.0260 N   0  0  0  0  0  1  0  0  0  0  0  0
  162.2790  208.4240  148.2960 N   0  0  0  0  0  0  0  0  0  0  0  0
  161.9690  207.9390  152.6310 O   0  0  0  0  0  0  0  0  0  0  0  0
  160.9740  208.4800  151.7940 C   0  0  2  0  0  3  0  0  0  0  0  0
  161.5360  211.3880  148.9870 C   0  0  2  0  0  3  0  0  0  0  0  0
  160.5200  212.3850  146.3560 C   0  0  0  0  0  2  0  0  0  0  0  0
  163.6530  212.2410  148.2640 O   0  0  0  0  0  0  0  0  0  0  0  0
  162.4340  212.0690  147.9940 C   0  0  0  0  0  0  0  0  0  0  0  0
  162.7110  213.2140  145.7520 C   0  0  0  0  0  2  0  0  0  0  0  0
  161.9060  212.5380  146.7470 N   0  0  0  0  0  0  0  0  0  0  0  0
  160.4400  212.9020  144.9320 C   0  0  0  0  0  2  0  0  0  0  0  0
  161.7430  213.6430  144.6670 C   0  0  0  0  0  2  0  0  0  0  0  0
  160.5550  212.3070  149.6660 C   0  0  0  0  0  2  0  0  0  0  0  0
  160.7480  213.9100  149.7290 S   0  0  0  0  0  0  0  0  0  0  0  0
  159.4130  214.4530  150.8060 C   0  0  0  0  0  2  0  0  0  0  0  0
  158.7760  213.2500  151.4740 C   0  0  0  0  0  2  0  0  0  0  0  0
  158.7430  213.8170  153.8990 O   0  0  0  0  0  1  0  0  0  0  0  0
  158.0540  213.6770  152.7020 C   0  0  0  0  0  0  0  0  0  0  0  0
  156.8240  213.9400  152.6490 O   0  0  0  0  0  0  0  0  0  0  0  0
  2  7  1  1  0  0  0
  2  6  1  0  0  0  0
  3  8  1  0  0  0  0
  4 16  1  6  0  0  0
  4  1  1  0  0  0  0
  5 12  1  6  0  0  0
  5 13  1  0  0  0  0
  5  3  1  0  0  0  0
  8 11  1  1  0  0  0
  8 15  1  0  0  0  0
  9  6  1  0  0  0  0
 10  1  1  1  0  0  0
 10  2  1  0  0  0  0
 11  4  1  0  0  0  0
 13 11  2  0  0  0  0
 14  9  1  0  0  0  0
 15 10  1  0  0  0  0
 15 14  1  1  0  0  0
 16 24  1  1  0  0  0
 17 21  1  0  0  0  0
 19 18  2  0  0  0  0
 19 16  1  0  0  0  0
 20 21  1  0  0  0  0
 21 19  1  0  0  0  0
 22 17  1  0  0  0  0
 23 22  1  0  0  0  0
 23 20  1  0  0  0  0
 24 25  1  0  0  0  0
 25 26  1  0  0  0  0
 26 27  1  0  0  0  0
 27 29  1  0  0  0  0
 29 28  1  0  0  0  0
 30 29  2  0  0  0  0
M  END
>  <MODEL>
3

>  <REMARK>
 VINA RESULT:      -6.4      3.463      7.272
  Name = 
  6 active torsions:
  status: ('A' for Active; 'I' for Inactive)
    1  A    between atoms: C_4  and  C_13
    2  A    between atoms: C_7  and  C_15
    3  A    between atoms: C_7  and  C_16
    4  A    between atoms: C_8  and  C_13
    5  A    between atoms: C_13  and  C_27
    6  A    between atoms: C_16  and  S_30
                            x       y       z     vdW  Elec       q    Type
                         _______ _______ _______ _____ _____    ______ ____

>  <TORSDO>
F 6

$$$$
=
 OpenBabel11052421553D

 30 33  0  0  1  0  0  0  0  0999 V2000
  162.0320  210.3260  152.8870 C   0  0  0  0  0  2  0  0  0  0  0  0
  160.1420  211.0550  154.3890 C   0  0  2  0  0  3  0  0  0  0  0  0
  160.9940  205.8130  153.3750 S   0  0  0  0  0  0  0  0  0  0  0  0
  162.5100  209.2870  151.8570 C   0  0  1  0  0  3  0  0  0  0  0  0
  162.2190  205.4810  152.0550 C   0  0  1  0  0  3  0  0  0  0  0  0
  160.6890  210.8450  155.8050 C   0  0  0  0  0  2  0  0  0  0  0  0
  158.6240  211.0780  154.4090 C   0  0  0  0  0  1  0  0  0  0  0  0
  161.2460  207.5650  153.1550 C   0  0  2  0  0  3  0  0  0  0  0  0
  160.6030  209.3690  156.1890 C   0  0  0  0  0  2  0  0  0  0  0  0
  160.6400  209.9810  153.4170 C   0  0  2  0  0  3  0  0  0  0  0  0
  162.1410  207.8720  152.2260 C   0  0  0  0  0  0  0  0  0  0  0  0
  161.5830  204.7490  150.9740 N   0  0  0  0  0  1  0  0  0  0  0  0
  162.7050  206.7570  151.5570 N   0  0  0  0  0  0  0  0  0  0  0  0
  161.3560  208.6030  155.2850 O   0  0  0  0  0  0  0  0  0  0  0  0
  160.6380  208.5830  154.0740 C   0  0  2  0  0  3  0  0  0  0  0  0
  162.1090  209.6100  150.4090 C   0  0  2  0  0  3  0  0  0  0  0  0
  162.9000  211.5580  148.2810 C   0  0  0  0  0  2  0  0  0  0  0  0
  160.4810  211.2540  151.0250 O   0  0  0  0  0  0  0  0  0  0  0  0
  161.4240  210.9380  150.2510 C   0  0  0  0  0  0  0  0  0  0  0  0
  161.2050  213.1270  148.9980 C   0  0  0  0  0  2  0  0  0  0  0  0
  161.8290  211.8400  149.2150 N   0  0  0  0  0  0  0  0  0  0  0  0
  163.0660  212.8220  147.4580 C   0  0  0  0  0  2  0  0  0  0  0  0
  161.8450  213.6860  147.7420 C   0  0  0  0  0  2  0  0  0  0  0  0
  161.4560  208.4840  149.6510 C   0  0  0  0  0  2  0  0  0  0  0  0
  162.1160  207.8050  148.3420 S   0  0  0  0  0  0  0  0  0  0  0  0
  160.8350  206.6840  147.7570 C   0  0  0  0  0  2  0  0  0  0  0  0
  161.2900  206.0140  146.4750 C   0  0  0  0  0  2  0  0  0  0  0  0
  161.6130  203.8240  147.6150 O   0  0  0  0  0  1  0  0  0  0  0  0
  162.1200  204.8230  146.7940 C   0  0  0  0  0  0  0  0  0  0  0  0
  163.2690  204.7040  146.2950 O   0  0  0  0  0  0  0  0  0  0  0  0
  2  7  1  1  0  0  0
  2  6  1  0  0  0  0
  4 16  1  6  0  0  0
  4 11  1  0  0  0  0
  4  1  1  0  0  0  0
  5 12  1  6  0  0  0
  5  3  1  0  0  0  0
  6  9  1  0  0  0  0
  8 11  1  1  0  0  0
  8  3  1  0  0  0  0
  8 15  1  0  0  0  0
 10  1  1  1  0  0  0
 10 15  1  0  0  0  0
 10  2  1  0  0  0  0
 13  5  1  0  0  0  0
 13 11  2  0  0  0  0
 14  9  1  0  0  0  0
 15 14  1  1  0  0  0
 16 24  1  1  0  0  0
 17 21  1  0  0  0  0
 19 16  1  0  0  0  0
 19 18  2  0  0  0  0
 20 21  1  0  0  0  0
 21 19  1  0  0  0  0
 22 23  1  0  0  0  0
 22 17  1  0  0  0  0
 23 20  1  0  0  0  0
 25 24  1  0  0  0  0
 26 25  1  0  0  0  0
 27 29  1  0  0  0  0
 27 26  1  0  0  0  0
 29 28  1  0  0  0  0
 30 29  2  0  0  0  0
M  END
>  <MODEL>
4

>  <REMARK>
 VINA RESULT:      -6.3      2.386      7.247
  Name = 
  6 active torsions:
  status: ('A' for Active; 'I' for Inactive)
    1  A    between atoms: C_4  and  C_13
    2  A    between atoms: C_7  and  C_15
    3  A    between atoms: C_7  and  C_16
    4  A    between atoms: C_8  and  C_13
    5  A    between atoms: C_13  and  C_27
    6  A    between atoms: C_16  and  S_30
                            x       y       z     vdW  Elec       q    Type
                         _______ _______ _______ _____ _____    ______ ____

>  <TORSDO>
F 6

$$$$
=
 OpenBabel11052421553D

 30 33  0  0  1  0  0  0  0  0999 V2000
  162.3290  208.1150  151.1410 C   0  0  0  0  0  2  0  0  0  0  0  0
  161.2260  206.1800  149.9570 C   0  0  2  0  0  3  0  0  0  0  0  0
  161.5000  211.0500  147.6220 S   0  0  0  0  0  0  0  0  0  0  0  0
  162.3280  209.6380  151.3630 C   0  0  1  0  0  3  0  0  0  0  0  0
  162.0750  212.3930  148.7250 C   0  0  1  0  0  3  0  0  0  0  0  0
  162.2980  205.6800  148.9830 C   0  0  0  0  0  2  0  0  0  0  0  0
  159.8490  205.7410  149.4940 C   0  0  0  0  0  1  0  0  0  0  0  0
  161.6710  209.8870  148.9640 C   0  0  0  0  0  0  0  0  0  0  0  0
  162.3500  206.5800  147.7490 C   0  0  0  0  0  2  0  0  0  0  0  0
  161.2670  207.7030  150.1200 C   0  0  2  0  0  3  0  0  0  0  0  0
  162.1160  210.4230  150.0920 C   0  0  0  0  0  0  0  0  0  0  0  0
  161.0420  213.4060  148.8380 N   0  0  0  0  0  1  0  0  0  0  0  0
  162.3380  211.8210  150.0350 N   0  0  0  0  0  2  0  0  0  0  0  0
  162.6560  207.8940  148.1380 O   0  0  0  0  0  0  0  0  0  0  0  0
  161.5080  208.4080  148.7680 C   0  0  2  0  0  3  0  0  0  0  0  0
  161.3780  210.1080  152.4750 C   0  0  2  0  0  3  0  0  0  0  0  0
  162.3100  210.4750  155.2940 C   0  0  0  0  0  2  0  0  0  0  0  0
  160.5020  208.0190  153.2510 O   0  0  0  0  0  0  0  0  0  0  0  0
  161.1290  209.0750  153.5380 C   0  0  0  0  0  0  0  0  0  0  0  0
  161.3680  208.3460  155.9510 C   0  0  0  0  0  2  0  0  0  0  0  0
  161.5860  209.2920  154.8770 N   0  0  0  0  0  0  0  0  0  0  0  0
  162.7010  210.2250  156.7390 C   0  0  0  0  0  2  0  0  0  0  0  0
  161.8930  209.0210  157.2030 C   0  0  0  0  0  2  0  0  0  0  0  0
  160.1390  210.8260  152.0090 C   0  0  0  0  0  2  0  0  0  0  0  0
  159.7230  212.2970  152.5340 S   0  0  0  0  0  0  0  0  0  0  0  0
  158.0970  212.5590  151.8100 C   0  0  0  0  0  2  0  0  0  0  0  0
  158.1810  213.6340  150.7430 C   0  0  0  0  0  2  0  0  0  0  0  0
  155.8130  213.7100  149.9760 O   0  0  0  0  0  1  0  0  0  0  0  0
  157.1410  213.4010  149.7080 C   0  0  0  0  0  0  0  0  0  0  0  0
  157.4660  212.9540  148.5770 O   0  0  0  0  0  0  0  0  0  0  0  0
  1  4  1  0  0  0  0
  2  7  1  6  0  0  0
  2 10  1  0  0  0  0
  3  5  1  0  0  0  0
  3  8  1  0  0  0  0
  4 16  1  1  0  0  0
  5 12  1  1  0  0  0
  5 13  1  0  0  0  0
  6  2  1  0  0  0  0
  8 11  2  0  0  0  0
  9 14  1  0  0  0  0
  9  6  1  0  0  0  0
 10  1  1  1  0  0  0
 11  4  1  0  0  0  0
 13 11  1  0  0  0  0
 15 14  1  1  0  0  0
 15  8  1  0  0  0  0
 15 10  1  0  0  0  0
 16 24  1  6  0  0  0
 16 19  1  0  0  0  0
 17 22  1  0  0  0  0
 18 19  2  0  0  0  0
 19 21  1  0  0  0  0
 20 23  1  0  0  0  0
 21 17  1  0  0  0  0
 21 20  1  0  0  0  0
 22 23  1  0  0  0  0
 24 25  1  0  0  0  0
 26 25  1  0  0  0  0
 27 26  1  0  0  0  0
 29 28  1  0  0  0  0
 29 27  1  0  0  0  0
 30 29  2  0  0  0  0
M  END
>  <MODEL>
5

>  <REMARK>
 VINA RESULT:      -5.4      3.420      5.445
  Name = 
  6 active torsions:
  status: ('A' for Active; 'I' for Inactive)
    1  A    between atoms: C_4  and  C_13
    2  A    between atoms: C_7  and  C_15
    3  A    between atoms: C_7  and  C_16
    4  A    between atoms: C_8  and  C_13
    5  A    between atoms: C_13  and  C_27
    6  A    between atoms: C_16  and  S_30
                            x       y       z     vdW  Elec       q    Type
                         _______ _______ _______ _____ _____    ______ ____

>  <TORSDO>
F 6

$$$$
=
 OpenBabel11052421553D

 30 33  0  0  1  0  0  0  0  0999 V2000
  158.8780  213.5320  154.0720 C   0  0  0  0  0  2  0  0  0  0  0  0
  156.4650  213.6380  154.8000 C   0  0  2  0  0  3  0  0  0  0  0  0
  159.8390  209.9990  156.9480 S   0  0  0  0  0  0  0  0  0  0  0  0
  160.0950  212.6220  153.8290 C   0  0  1  0  0  3  0  0  0  0  0  0
  161.4630  209.8770  156.1100 C   0  0  1  0  0  3  0  0  0  0  0  0
  156.5080  214.4190  156.1180 C   0  0  0  0  0  2  0  0  0  0  0  0
  155.1970  212.8090  154.7210 C   0  0  0  0  0  1  0  0  0  0  0  0
  159.3520  211.2720  155.7970 C   0  0  2  0  0  3  0  0  0  0  0  0
  156.9520  213.5040  157.2580 C   0  0  0  0  0  2  0  0  0  0  0  0
  157.6940  212.7390  154.6270 C   0  0  2  0  0  3  0  0  0  0  0  0
  160.2840  211.5830  154.9070 C   0  0  0  0  0  0  0  0  0  0  0  0
  161.6430  208.5320  155.5920 N   0  0  0  0  0  1  0  0  0  0  0  0
  161.4770  210.8260  155.0100 N   0  0  0  0  0  0  0  0  0  0  0  0
  158.2310  212.9950  156.9820 O   0  0  0  0  0  0  0  0  0  0  0  0
  158.0760  212.0460  155.9530 C   0  0  2  0  0  3  0  0  0  0  0  0
  160.1330  211.9880  152.4300 C   0  0  2  0  0  3  0  0  0  0  0  0
  160.9230  213.5470  150.0010 C   0  0  0  0  0  2  0  0  0  0  0  0
  157.8870  212.3650  151.6930 O   0  0  0  0  0  0  0  0  0  0  0  0
  159.1150  212.5520  151.4800 C   0  0  0  0  0  0  0  0  0  0  0  0
  158.6090  213.8450  149.3620 C   0  0  0  0  0  2  0  0  0  0  0  0
  159.5350  213.2870  150.3250 N   0  0  0  0  0  0  0  0  0  0  0  0
  160.8950  214.4530  148.7850 C   0  0  0  0  0  2  0  0  0  0  0  0
  159.4690  214.4190  148.2530 C   0  0  0  0  0  2  0  0  0  0  0  0
  160.2400  210.4860  152.4020 C   0  0  0  0  0  2  0  0  0  0  0  0
  161.4450  209.7020  151.6620 S   0  0  0  0  0  0  0  0  0  0  0  0
  160.9580  207.9740  151.7800 C   0  0  0  0  0  2  0  0  0  0  0  0
  161.9820  207.1070  151.0730 C   0  0  0  0  0  2  0  0  0  0  0  0
  162.5720  207.5330  148.6910 O   0  0  0  0  0  0  0  0  0  0  0  0
  161.6690  207.0350  149.6220 C   0  0  0  0  0  0  0  0  0  0  0  0
  160.6010  206.4950  149.2340 O   0  0  0  0  0  1  0  0  0  0  0  0
  2  7  1  1  0  0  0
  2  6  1  0  0  0  0
  4 16  1  6  0  0  0
  4  1  1  0  0  0  0
  4 11  1  0  0  0  0
  5 12  1  6  0  0  0
  5  3  1  0  0  0  0
  6  9  1  0  0  0  0
  8 11  1  1  0  0  0
  8 15  1  0  0  0  0
  8  3  1  0  0  0  0
 10  1  1  1  0  0  0
 10  2  1  0  0  0  0
 10 15  1  0  0  0  0
 11 13  2  0  0  0  0
 13  5  1  0  0  0  0
 14  9  1  0  0  0  0
 15 14  1  1  0  0  0
 16 24  1  1  0  0  0
 17 21  1  0  0  0  0
 19 18  2  0  0  0  0
 19 16  1  0  0  0  0
 20 21  1  0  0  0  0
 21 19  1  0  0  0  0
 22 17  1  0  0  0  0
 23 22  1  0  0  0  0
 23 20  1  0  0  0  0
 25 26  1  0  0  0  0
 25 24  1  0  0  0  0
 27 26  1  0  0  0  0
 28 29  2  0  0  0  0
 29 27  1  0  0  0  0
 30 29  1  0  0  0  0
M  END
>  <MODEL>
6

>  <REMARK>
 VINA RESULT:      -5.2      4.753      9.414
  Name = 
  6 active torsions:
  status: ('A' for Active; 'I' for Inactive)
    1  A    between atoms: C_4  and  C_13
    2  A    between atoms: C_7  and  C_15
    3  A    between atoms: C_7  and  C_16
    4  A    between atoms: C_8  and  C_13
    5  A    between atoms: C_13  and  C_27
    6  A    between atoms: C_16  and  S_30
                            x       y       z     vdW  Elec       q    Type
                         _______ _______ _______ _____ _____    ______ ____

>  <TORSDO>
F 6

$$$$
=
 OpenBabel11052421553D

 30 33  0  0  1  0  0  0  0  0999 V2000
  158.8750  213.6360  141.1950 C   0  0  0  0  0  2  0  0  0  0  0  0
  159.4340  212.9760  143.5650 C   0  0  2  0  0  3  0  0  0  0  0  0
  163.2520  213.0060  139.7360 S   0  0  0  0  0  0  0  0  0  0  0  0
  159.1890  213.4140  139.7050 C   0  0  1  0  0  3  0  0  0  0  0  0
  162.6210  213.2350  138.0320 C   0  0  1  0  0  3  0  0  0  0  0  0
  160.0600  214.2390  144.1650 C   0  0  0  0  0  2  0  0  0  0  0  0
  159.8590  211.7520  144.3540 C   0  0  0  0  0  1  0  0  0  0  0  0
  161.5820  213.1100  140.3570 C   0  0  0  0  0  0  0  0  0  0  0  0
  161.5150  214.3700  143.7160 C   0  0  0  0  0  2  0  0  0  0  0  0
  159.7980  212.8030  142.0870 C   0  0  2  0  0  3  0  0  0  0  0  0
  160.6660  213.3050  139.4190 C   0  0  0  0  0  0  0  0  0  0  0  0
  162.9700  212.0790  137.2250 N   0  0  0  0  0  1  0  0  0  0  0  0
  161.1750  213.3610  138.0980 N   0  0  0  0  0  2  0  0  0  0  0  0
  161.5700  214.4490  142.3150 O   0  0  0  0  0  0  0  0  0  0  0  0
  161.2770  213.1620  141.8260 C   0  0  2  0  0  3  0  0  0  0  0  0
  158.4100  212.2520  139.0680 C   0  0  2  0  0  3  0  0  0  0  0  0
  156.6730  209.8420  138.7200 C   0  0  0  0  0  2  0  0  0  0  0  0
  156.3950  213.3570  139.7400 O   0  0  0  0  0  0  0  0  0  0  0  0
  156.9330  212.2880  139.3430 C   0  0  0  0  0  0  0  0  0  0  0  0
  154.7150  211.0710  139.4300 C   0  0  0  0  0  2  0  0  0  0  0  0
  156.1380  211.1100  139.1700 N   0  0  0  0  0  0  0  0  0  0  0  0
  155.4730  208.9270  138.5610 C   0  0  0  0  0  2  0  0  0  0  0  0
  154.3050  209.6230  139.2450 C   0  0  0  0  0  2  0  0  0  0  0  0
  159.0350  210.8910  139.2230 C   0  0  0  0  0  2  0  0  0  0  0  0
  160.0120  210.2380  138.1130 S   0  0  0  0  0  0  0  0  0  0  0  0
  160.2860  208.5680  138.7230 C   0  0  0  0  0  2  0  0  0  0  0  0
  161.6200  208.5010  139.4440 C   0  0  0  0  0  2  0  0  0  0  0  0
  162.0500  206.5170  140.8860 O   0  0  0  0  0  1  0  0  0  0  0  0
  162.0300  207.0830  139.6180 C   0  0  0  0  0  0  0  0  0  0  0  0
  162.3290  206.3860  138.6140 O   0  0  0  0  0  0  0  0  0  0  0  0
  2  6  1  0  0  0  0
  2  7  1  1  0  0  0
  3  8  1  0  0  0  0
  4 16  1  1  0  0  0
  4  1  1  0  0  0  0
  5 12  1  6  0  0  0
  5 13  1  0  0  0  0
  5  3  1  0  0  0  0
  9  6  1  0  0  0  0
 10  1  1  6  0  0  0
 10  2  1  0  0  0  0
 11  4  1  0  0  0  0
 11  8  2  0  0  0  0
 13 11  1  0  0  0  0
 14  9  1  0  0  0  0
 15  8  1  6  0  0  0
 15 10  1  0  0  0  0
 15 14  1  0  0  0  0
 16 24  1  1  0  0  0
 16 19  1  0  0  0  0
 17 21  1  0  0  0  0
 19 18  2  0  0  0  0
 21 19  1  0  0  0  0
 21 20  1  0  0  0  0
 22 17  1  0  0  0  0
 22 23  1  0  0  0  0
 23 20  1  0  0  0  0
 25 26  1  0  0  0  0
 25 24  1  0  0  0  0
 26 27  1  0  0  0  0
 27 29  1  0  0  0  0
 29 28  1  0  0  0  0
 30 29  2  0  0  0  0
M  END
>  <MODEL>
7

>  <REMARK>
 VINA RESULT:      -5.1      9.194     12.833
  Name = 
  6 active torsions:
  status: ('A' for Active; 'I' for Inactive)
    1  A    between atoms: C_4  and  C_13
    2  A    between atoms: C_7  and  C_15
    3  A    between atoms: C_7  and  C_16
    4  A    between atoms: C_8  and  C_13
    5  A    between atoms: C_13  and  C_27
    6  A    between atoms: C_16  and  S_30
                            x       y       z     vdW  Elec       q    Type
                         _______ _______ _______ _____ _____    ______ ____

>  <TORSDO>
F 6

$$$$
=
 OpenBabel11052421553D

 30 33  0  0  1  0  0  0  0  0999 V2000
  161.1270  206.2110  147.7030 C   0  0  0  0  0  2  0  0  0  0  0  0
  162.4640  205.3040  145.7660 C   0  0  2  0  0  3  0  0  0  0  0  0
  160.8390  202.0440  149.7620 S   0  0  0  0  0  0  0  0  0  0  0  0
  160.8230  206.0900  149.2060 C   0  0  1  0  0  3  0  0  0  0  0  0
  160.1300  202.9100  151.2120 C   0  0  1  0  0  3  0  0  0  0  0  0
  161.4120  204.6680  144.8520 C   0  0  0  0  0  2  0  0  0  0  0  0
  163.8340  204.7140  145.4830 C   0  0  0  0  0  1  0  0  0  0  0  0
  161.0980  203.6180  148.9620 C   0  0  0  0  0  0  0  0  0  0  0  0
  161.0080  203.2960  145.3890 C   0  0  0  0  0  2  0  0  0  0  0  0
  162.1140  205.1350  147.2480 C   0  0  2  0  0  3  0  0  0  0  0  0
  160.6950  204.6610  149.6740 C   0  0  0  0  0  0  0  0  0  0  0  0
  160.9230  202.6140  152.3910 N   0  0  0  0  0  1  0  0  0  0  0  0
  160.1670  204.3390  150.9480 N   0  0  0  0  0  2  0  0  0  0  0  0
  160.4750  203.4350  146.6800 O   0  0  0  0  0  0  0  0  0  0  0  0
  161.5540  203.7250  147.5360 C   0  0  2  0  0  3  0  0  0  0  0  0
  161.7820  206.8870  150.1050 C   0  0  2  0  0  3  0  0  0  0  0  0
  160.6780  207.7280  152.7550 C   0  0  0  0  0  2  0  0  0  0  0  0
  162.9360  205.1980  151.3490 O   0  0  0  0  0  0  0  0  0  0  0  0
  162.1470  206.1810  151.3800 C   0  0  0  0  0  0  0  0  0  0  0  0
  161.8900  205.9690  153.8900 C   0  0  0  0  0  2  0  0  0  0  0  0
  161.5910  206.6120  152.6280 N   0  0  0  0  0  0  0  0  0  0  0  0
  160.4520  207.9020  154.2450 C   0  0  0  0  0  2  0  0  0  0  0  0
  161.0040  206.6520  154.9150 C   0  0  0  0  0  2  0  0  0  0  0  0
  161.4450  208.3440  150.2800 C   0  0  0  0  0  2  0  0  0  0  0  0
  162.0400  209.5070  149.3270 S   0  0  0  0  0  0  0  0  0  0  0  0
  161.4690  211.0240  150.1070 C   0  0  0  0  0  2  0  0  0  0  0  0
  161.6900  210.9410  151.6050 C   0  0  0  0  0  2  0  0  0  0  0  0
  160.4470  212.2850  153.2940 O   0  0  0  0  0  1  0  0  0  0  0  0
  160.4360  211.2930  152.3220 C   0  0  0  0  0  0  0  0  0  0  0  0
  159.3580  210.7140  152.0270 O   0  0  0  0  0  0  0  0  0  0  0  0
  1  4  1  0  0  0  0
  2  7  1  1  0  0  0
  2 10  1  0  0  0  0
  3  5  1  0  0  0  0
  4 11  1  0  0  0  0
  4 16  1  1  0  0  0
  5 12  1  1  0  0  0
  6  9  1  0  0  0  0
  6  2  1  0  0  0  0
  8 11  2  0  0  0  0
  8  3  1  0  0  0  0
  9 14  1  0  0  0  0
 10 15  1  0  0  0  0
 10  1  1  6  0  0  0
 11 13  1  0  0  0  0
 13  5  1  0  0  0  0
 15 14  1  6  0  0  0
 15  8  1  0  0  0  0
 16 24  1  1  0  0  0
 16 19  1  0  0  0  0
 17 22  1  0  0  0  0
 18 19  2  0  0  0  0
 19 21  1  0  0  0  0
 20 23  1  0  0  0  0
 21 17  1  0  0  0  0
 21 20  1  0  0  0  0
 22 23  1  0  0  0  0
 25 26  1  0  0  0  0
 25 24  1  0  0  0  0
 26 27  1  0  0  0  0
 27 29  1  0  0  0  0
 29 28  1  0  0  0  0
 30 29  2  0  0  0  0
M  END
>  <MODEL>
8

>  <REMARK>
 VINA RESULT:      -4.9      1.861      2.176
  Name = 
  6 active torsions:
  status: ('A' for Active; 'I' for Inactive)
    1  A    between atoms: C_4  and  C_13
    2  A    between atoms: C_7  and  C_15
    3  A    between atoms: C_7  and  C_16
    4  A    between atoms: C_8  and  C_13
    5  A    between atoms: C_13  and  C_27
    6  A    between atoms: C_16  and  S_30
                            x       y       z     vdW  Elec       q    Type
                         _______ _______ _______ _____ _____    ______ ____

>  <TORSDO>
F 6

$$$$
=
 OpenBabel11052421553D

 30 33  0  0  1  0  0  0  0  0999 V2000
  158.4710  211.0320  154.1240 C   0  0  0  0  0  2  0  0  0  0  0  0
  158.4530  212.5370  156.1480 C   0  0  2  0  0  3  0  0  0  0  0  0
  159.9540  214.4340  151.3120 S   0  0  0  0  0  0  0  0  0  0  0  0
  159.1560  210.7100  152.7840 C   0  0  1  0  0  3  0  0  0  0  0  0
  160.1770  213.1500  150.0250 C   0  0  1  0  0  3  0  0  0  0  0  0
  157.1410  213.3180  156.0190 C   0  0  0  0  0  2  0  0  0  0  0  0
  159.4260  213.2860  157.0400 C   0  0  0  0  0  1  0  0  0  0  0  0
  159.4990  213.1670  152.4820 C   0  0  2  0  0  3  0  0  0  0  0  0
  157.3010  214.4530  155.0090 C   0  0  0  0  0  2  0  0  0  0  0  0
  159.0930  212.2640  154.7830 C   0  0  2  0  0  3  0  0  0  0  0  0
  159.4970  211.9400  151.9800 C   0  0  0  0  0  0  0  0  0  0  0  0
  161.5490  213.1700  149.5510 N   0  0  0  0  0  1  0  0  0  0  0  0
  159.8890  211.8560  150.6210 N   0  0  0  0  0  0  0  0  0  0  0  0
  157.6460  213.9230  153.7560 O   0  0  0  0  0  0  0  0  0  0  0  0
  158.9830  213.4920  153.8540 C   0  0  2  0  0  3  0  0  0  0  0  0
  160.3670  209.7720  152.9090 C   0  0  2  0  0  3  0  0  0  0  0  0
  160.7480  209.0750  155.7940 C   0  0  0  0  0  2  0  0  0  0  0  0
  162.3180  211.1310  153.1890 O   0  0  0  0  0  0  0  0  0  0  0  0
  161.4940  210.3410  153.7240 C   0  0  0  0  0  0  0  0  0  0  0  0
  162.7150  210.4760  155.9380 C   0  0  0  0  0  2  0  0  0  0  0  0
  161.6450  209.9770  155.1010 N   0  0  0  0  0  0  0  0  0  0  0  0
  161.2050  209.0790  157.2410 C   0  0  0  0  0  2  0  0  0  0  0  0
  162.5720  209.7480  157.2610 C   0  0  0  0  0  2  0  0  0  0  0  0
  160.8040  209.1030  151.6320 C   0  0  0  0  0  2  0  0  0  0  0  0
  161.2050  207.5390  151.5500 S   0  0  0  0  0  0  0  0  0  0  0  0
  161.8180  207.3510  149.8690 C   0  0  0  0  0  2  0  0  0  0  0  0
  160.7400  206.7330  148.9990 C   0  0  0  0  0  2  0  0  0  0  0  0
  161.9320  205.6610  147.0930 O   0  0  0  0  0  0  0  0  0  0  0  0
  161.2750  205.5290  148.3090 C   0  0  0  0  0  0  0  0  0  0  0  0
  161.1600  204.3950  148.8420 O   0  0  0  0  0  1  0  0  0  0  0  0
  2  7  1  1  0  0  0
  4 16  1  1  0  0  0
  4  1  1  0  0  0  0
  5 12  1  1  0  0  0
  5 13  1  0  0  0  0
  5  3  1  0  0  0  0
  6  2  1  0  0  0  0
  8  3  1  6  0  0  0
  8 15  1  0  0  0  0
  9  6  1  0  0  0  0
 10  1  1  6  0  0  0
 10  2  1  0  0  0  0
 11  8  1  0  0  0  0
 11  4  1  0  0  0  0
 13 11  2  0  0  0  0
 14  9  1  0  0  0  0
 15 14  1  6  0  0  0
 15 10  1  0  0  0  0
 16 24  1  6  0  0  0
 16 19  1  0  0  0  0
 17 22  1  0  0  0  0
 18 19  2  0  0  0  0
 19 21  1  0  0  0  0
 20 23  1  0  0  0  0
 21 17  1  0  0  0  0
 21 20  1  0  0  0  0
 22 23  1  0  0  0  0
 25 24  1  0  0  0  0
 26 25  1  0  0  0  0
 27 26  1  0  0  0  0
 28 29  2  0  0  0  0
 29 30  1  0  0  0  0
 29 27  1  0  0  0  0
M  END
>  <MODEL>
9

>  <REMARK>
 VINA RESULT:      -4.9      4.116      8.852
  Name = 
  6 active torsions:
  status: ('A' for Active; 'I' for Inactive)
    1  A    between atoms: C_4  and  C_13
    2  A    between atoms: C_7  and  C_15
    3  A    between atoms: C_7  and  C_16
    4  A    between atoms: C_8  and  C_13
    5  A    between atoms: C_13  and  C_27
    6  A    between atoms: C_16  and  S_30
                            x       y       z     vdW  Elec       q    Type
                         _______ _______ _______ _____ _____    ______ ____

>  <TORSDO>
F 6

$$$$
