=
 OpenBabel11052422523D

 28 31  0  0  1  0  0  0  0  0999 V2000
  160.7660  211.0640  153.9970 C   0  0  1  0  0  3  0  0  0  0  0  0
  160.3270  207.4320  157.2560 C   0  0  0  0  0  1  0  0  0  0  0  0
  161.0150  207.4240  152.8740 C   0  0  2  0  0  3  0  0  0  0  0  0
  160.8320  207.7910  155.8720 C   0  0  1  0  0  3  0  0  0  0  0  0
  161.4900  208.8410  153.1820 C   0  0  0  0  0  2  0  0  0  0  0  0
  160.9040  210.2840  156.2700 C   0  0  0  0  0  2  0  0  0  0  0  0
  160.4060  206.6960  154.9010 C   0  0  0  0  0  2  0  0  0  0  0  0
  160.2830  209.1650  155.4560 C   0  0  1  0  0  3  0  0  0  0  0  0
  161.3790  206.5500  153.9070 O   0  0  0  0  0  0  0  0  0  0  0  0
  160.7030  211.5310  155.4400 C   0  0  0  0  0  2  0  0  0  0  0  0
  160.4230  209.5830  153.9800 C   0  0  1  0  0  3  0  0  0  0  0  0
  162.1020  207.8510  150.7120 C   0  0  0  0  0  3  0  0  0  0  0  0
  160.5930  205.2150  150.0350 C   0  0  0  0  0  2  0  0  0  0  0  0
  161.6450  206.8750  148.4950 C   0  0  0  0  0  0  0  0  0  0  0  0
  161.5740  206.9470  151.5600 C   0  0  0  0  0  0  0  0  0  0  0  0
  161.1490  204.5830  152.3710 C   0  0  0  0  0  1  0  0  0  0  0  0
  161.2940  205.4340  148.6970 C   0  0  0  0  0  2  0  0  0  0  0  0
  161.5430  205.4720  151.2000 C   0  0  1  0  0  3  0  0  0  0  0  0
  160.8730  207.6200  147.7950 N   0  0  0  0  0  2  0  0  0  0  0  0
  162.6830  207.5000  149.3720 C   0  0  0  0  0  2  0  0  0  0  0  0
  159.8670  211.8640  153.1010 C   0  0  0  0  0  0  0  0  0  0  0  0
  158.7050  212.4100  153.6560 C   0  0  0  0  0  3  0  0  0  0  0  0
  159.2810  212.8580  150.9580 C   0  0  0  0  0  0  0  0  0  0  0  0
  157.8350  213.1720  152.8730 C   0  0  0  0  0  3  0  0  0  0  0  0
  161.3080  211.5680  151.1580 O   0  0  0  0  0  1  0  0  0  0  0  0
  160.1580  212.0940  151.7380 C   0  0  0  0  0  0  0  0  0  0  0  0
  159.5520  213.0830  149.6480 F   0  0  0  0  0  0  0  0  0  0  0  0
  158.1230  213.3950  151.5250 C   0  0  0  0  0  3  0  0  0  0  0  0
  1 21  1  6  0  0  0
  1 10  1  0  0  0  0
  3 15  1  6  0  0  0
  3  5  1  0  0  0  0
  3  9  1  0  0  0  0
  4  2  1  1  0  0  0
  7  4  1  0  0  0  0
  8  4  1  0  0  0  0
  8  6  1  1  0  0  0
  9  7  1  0  0  0  0
 10  6  1  0  0  0  0
 11  5  1  1  0  0  0
 11  1  1  0  0  0  0
 11  8  1  0  0  0  0
 12 15  2  0  0  0  0
 13 18  1  0  0  0  0
 14 17  1  0  0  0  0
 14 20  1  0  0  0  0
 17 13  1  0  0  0  0
 18 15  1  0  0  0  0
 18 16  1  1  0  0  0
 19 14  2  0  0  0  0
 20 12  1  0  0  0  0
 21 22  1  0  0  0  0
 23 28  2  0  0  0  0
 23 26  1  0  0  0  0
 24 22  2  0  0  0  0
 25 26  1  0  0  0  0
 26 21  2  0  0  0  0
 27 23  1  0  0  0  0
 28 24  1  0  0  0  0
M  END
>  <MODEL>
1

>  <REMARK>
 VINA RESULT:      -7.9      0.000      0.000
  Name = 
  2 active torsions:
  status: ('A' for Active; 'I' for Inactive)
    1  A    between atoms: C_1  and  C_2
    2  A    between atoms: C_10  and  C_13
                            x       y       z     vdW  Elec       q    Type
                         _______ _______ _______ _____ _____    ______ ____

>  <TORSDO>
F 2

$$$$
=
 OpenBabel11052422523D

 28 31  0  0  1  0  0  0  0  0999 V2000
  160.9110  211.1070  153.8310 C   0  0  1  0  0  3  0  0  0  0  0  0
  160.3690  207.5850  157.1950 C   0  0  0  0  0  1  0  0  0  0  0  0
  161.0290  207.4310  152.8110 C   0  0  2  0  0  3  0  0  0  0  0  0
  160.8770  207.8880  155.7980 C   0  0  1  0  0  3  0  0  0  0  0  0
  161.5540  208.8380  153.0760 C   0  0  0  0  0  2  0  0  0  0  0  0
  161.0370  210.3870  156.1250 C   0  0  0  0  0  2  0  0  0  0  0  0
  160.4080  206.7810  154.8620 C   0  0  0  0  0  2  0  0  0  0  0  0
  160.3730  209.2680  155.3460 C   0  0  1  0  0  3  0  0  0  0  0  0
  161.3700  206.5740  153.8660 O   0  0  0  0  0  0  0  0  0  0  0  0
  160.8730  211.6170  155.2600 C   0  0  0  0  0  2  0  0  0  0  0  0
  160.5180  209.6390  153.8580 C   0  0  1  0  0  3  0  0  0  0  0  0
  162.0720  207.7640  150.6110 C   0  0  0  0  0  3  0  0  0  0  0  0
  160.5590  205.0970  150.0800 C   0  0  0  0  0  2  0  0  0  0  0  0
  161.5740  206.6910  148.4480 C   0  0  0  0  0  0  0  0  0  0  0  0
  161.5640  206.8970  151.5080 C   0  0  0  0  0  0  0  0  0  0  0  0
  161.1630  204.5710  152.4310 C   0  0  0  0  0  1  0  0  0  0  0  0
  161.2310  205.2590  148.7210 C   0  0  0  0  0  2  0  0  0  0  0  0
  161.5300  205.4070  151.2140 C   0  0  1  0  0  3  0  0  0  0  0  0
  160.7860  207.4030  147.7330 N   0  0  0  0  0  2  0  0  0  0  0  0
  162.6270  207.3570  149.2770 C   0  0  0  0  0  2  0  0  0  0  0  0
  160.0350  211.9120  152.9170 C   0  0  0  0  0  0  0  0  0  0  0  0
  160.5410  212.2550  151.6590 C   0  0  0  0  0  3  0  0  0  0  0  0
  157.9610  213.0610  152.3690 C   0  0  0  0  0  0  0  0  0  0  0  0
  159.7690  212.9960  150.7610 C   0  0  0  0  0  3  0  0  0  0  0  0
  158.1980  211.9890  154.5150 O   0  0  0  0  0  1  0  0  0  0  0  0
  158.7310  212.3180  153.2730 C   0  0  0  0  0  0  0  0  0  0  0  0
  156.7070  213.4560  152.7020 F   0  0  0  0  0  0  0  0  0  0  0  0
  158.4800  213.3980  151.1170 C   0  0  0  0  0  3  0  0  0  0  0  0
  1 21  1  6  0  0  0
  1 11  1  0  0  0  0
  1 10  1  0  0  0  0
  3 15  1  6  0  0  0
  3  5  1  0  0  0  0
  3  9  1  0  0  0  0
  4  2  1  1  0  0  0
  7  4  1  0  0  0  0
  8  4  1  0  0  0  0
  8  6  1  1  0  0  0
  9  7  1  0  0  0  0
 10  6  1  0  0  0  0
 11  5  1  1  0  0  0
 11  8  1  0  0  0  0
 12 15  2  0  0  0  0
 13 18  1  0  0  0  0
 14 17  1  0  0  0  0
 14 20  1  0  0  0  0
 17 13  1  0  0  0  0
 18 15  1  0  0  0  0
 18 16  1  1  0  0  0
 19 14  2  0  0  0  0
 20 12  1  0  0  0  0
 21 26  1  0  0  0  0
 22 21  2  0  0  0  0
 23 27  1  0  0  0  0
 23 26  2  0  0  0  0
 24 28  2  0  0  0  0
 24 22  1  0  0  0  0
 26 25  1  0  0  0  0
 28 23  1  0  0  0  0
M  END
>  <MODEL>
2

>  <REMARK>
 VINA RESULT:      -7.6      1.202      1.505
  Name = 
  2 active torsions:
  status: ('A' for Active; 'I' for Inactive)
    1  A    between atoms: C_1  and  C_2
    2  A    between atoms: C_10  and  C_13
                            x       y       z     vdW  Elec       q    Type
                         _______ _______ _______ _____ _____    ______ ____

>  <TORSDO>
F 2

$$$$
=
 OpenBabel11052422523D

 28 31  0  0  1  0  0  0  0  0999 V2000
  160.6180  208.2310  152.6330 C   0  0  1  0  0  3  0  0  0  0  0  0
  162.2590  209.0540  157.1760 C   0  0  0  0  0  1  0  0  0  0  0  0
  160.2200  211.6740  154.2330 C   0  0  2  0  0  3  0  0  0  0  0  0
  161.3240  209.5580  156.0940 C   0  0  1  0  0  3  0  0  0  0  0  0
  159.7930  210.3200  153.6760 C   0  0  0  0  0  2  0  0  0  0  0  0
  161.2490  207.3900  154.7990 C   0  0  0  0  0  2  0  0  0  0  0  0
  161.4780  211.0700  155.9840 C   0  0  0  0  0  2  0  0  0  0  0  0
  161.6380  208.8560  154.7630 C   0  0  1  0  0  3  0  0  0  0  0  0
  160.2490  211.6400  155.6340 O   0  0  0  0  0  0  0  0  0  0  0  0
  161.1100  206.9860  153.3480 C   0  0  0  0  0  2  0  0  0  0  0  0
  161.0160  209.4320  153.4760 C   0  0  1  0  0  3  0  0  0  0  0  0
  158.4790  213.3600  154.6410 C   0  0  0  0  0  3  0  0  0  0  0  0
  157.9850  212.8100  151.6180 C   0  0  0  0  0  2  0  0  0  0  0  0
  156.5210  213.9700  153.2740 C   0  0  0  0  0  0  0  0  0  0  0  0
  159.3000  212.7650  153.7530 C   0  0  0  0  0  0  0  0  0  0  0  0
  160.4560  212.5910  151.5050 C   0  0  0  0  0  1  0  0  0  0  0  0
  156.9280  213.8870  151.8360 C   0  0  0  0  0  2  0  0  0  0  0  0
  159.3000  213.1860  152.2940 C   0  0  1  0  0  3  0  0  0  0  0  0
  155.4600  213.3670  153.6660 N   0  0  0  0  0  2  0  0  0  0  0  0
  157.5140  214.4530  154.2850 C   0  0  0  0  0  2  0  0  0  0  0  0
  161.1420  208.3250  151.2300 C   0  0  0  0  0  0  0  0  0  0  0  0
  161.7430  209.5250  150.8340 C   0  0  0  0  0  3  0  0  0  0  0  0
  161.5800  207.4050  149.0200 C   0  0  0  0  0  0  0  0  0  0  0  0
  162.2580  209.6680  149.5440 C   0  0  0  0  0  3  0  0  0  0  0  0
  160.4740  206.0480  150.6790 O   0  0  0  0  0  1  0  0  0  0  0  0
  161.0630  207.2550  150.3130 C   0  0  0  0  0  0  0  0  0  0  0  0
  161.5080  206.3820  148.1320 F   0  0  0  0  0  0  0  0  0  0  0  0
  162.1760  208.6090  148.6380 C   0  0  0  0  0  3  0  0  0  0  0  0
  1 21  1  6  0  0  0
  1 10  1  0  0  0  0
  1 11  1  0  0  0  0
  3 15  1  1  0  0  0
  3  9  1  0  0  0  0
  4  2  1  1  0  0  0
  5  3  1  0  0  0  0
  7  4  1  0  0  0  0
  8  6  1  1  0  0  0
  8  4  1  0  0  0  0
  9  7  1  0  0  0  0
 10  6  1  0  0  0  0
 11  5  1  1  0  0  0
 11  8  1  0  0  0  0
 13 17  1  0  0  0  0
 13 18  1  0  0  0  0
 14 19  2  0  0  0  0
 14 20  1  0  0  0  0
 15 12  2  0  0  0  0
 17 14  1  0  0  0  0
 18 16  1  6  0  0  0
 18 15  1  0  0  0  0
 20 12  1  0  0  0  0
 22 21  1  0  0  0  0
 23 26  1  0  0  0  0
 24 22  2  0  0  0  0
 26 25  1  0  0  0  0
 26 21  2  0  0  0  0
 27 23  1  0  0  0  0
 28 23  2  0  0  0  0
 28 24  1  0  0  0  0
M  END
>  <MODEL>
3

>  <REMARK>
 VINA RESULT:      -7.2      2.843      6.307
  Name = 
  2 active torsions:
  status: ('A' for Active; 'I' for Inactive)
    1  A    between atoms: C_1  and  C_2
    2  A    between atoms: C_10  and  C_13
                            x       y       z     vdW  Elec       q    Type
                         _______ _______ _______ _____ _____    ______ ____

>  <TORSDO>
F 2

$$$$
=
 OpenBabel11052422523D

 28 31  0  0  1  0  0  0  0  0999 V2000
  162.4750  207.5930  150.1600 C   0  0  1  0  0  3  0  0  0  0  0  0
  161.4620  211.8710  147.9960 C   0  0  0  0  0  1  0  0  0  0  0  0
  161.0660  210.4980  152.1960 C   0  0  2  0  0  3  0  0  0  0  0  0
  161.7310  211.1970  149.3280 C   0  0  1  0  0  3  0  0  0  0  0  0
  162.0980  209.4830  151.7150 C   0  0  0  0  0  2  0  0  0  0  0  0
  162.8280  209.1420  148.3510 C   0  0  0  0  0  2  0  0  0  0  0  0
  160.7120  211.7020  150.3420 C   0  0  0  0  0  2  0  0  0  0  0  0
  161.6620  209.6700  149.1640 C   0  0  1  0  0  3  0  0  0  0  0  0
  161.3010  211.7500  151.6100 O   0  0  0  0  0  0  0  0  0  0  0  0
  162.9270  207.6780  148.7140 C   0  0  0  0  0  2  0  0  0  0  0  0
  161.6040  208.8080  150.4400 C   0  0  1  0  0  3  0  0  0  0  0  0
  162.2500  210.4250  154.3480 C   0  0  0  0  0  3  0  0  0  0  0  0
  159.3710  209.7320  155.3040 C   0  0  0  0  0  2  0  0  0  0  0  0
  161.5430  209.4710  156.5080 C   0  0  0  0  0  0  0  0  0  0  0  0
  161.0850  210.6100  153.6980 C   0  0  0  0  0  0  0  0  0  0  0  0
  158.6650  211.3490  153.5560 C   0  0  0  0  0  1  0  0  0  0  0  0
  160.0750  209.7260  156.6580 C   0  0  0  0  0  2  0  0  0  0  0  0
  159.8110  210.9260  154.4620 C   0  0  1  0  0  3  0  0  0  0  0  0
  161.9980  208.2850  156.6770 N   0  0  0  0  0  2  0  0  0  0  0  0
  162.3960  210.5030  155.8400 C   0  0  0  0  0  2  0  0  0  0  0  0
  161.7650  206.3060  150.4590 C   0  0  0  0  0  0  0  0  0  0  0  0
  161.1520  205.6330  149.3970 C   0  0  0  0  0  3  0  0  0  0  0  0
  161.0340  204.5400  151.9670 C   0  0  0  0  0  0  0  0  0  0  0  0
  160.4840  204.4260  149.6130 C   0  0  0  0  0  3  0  0  0  0  0  0
  162.3080  206.3950  152.8320 O   0  0  0  0  0  1  0  0  0  0  0  0
  161.7060  205.7510  151.7570 C   0  0  0  0  0  0  0  0  0  0  0  0
  160.9710  204.0010  153.2090 F   0  0  0  0  0  0  0  0  0  0  0  0
  160.4250  203.8810  150.8970 C   0  0  0  0  0  3  0  0  0  0  0  0
  1 11  1  0  0  0  0
  1 21  1  6  0  0  0
  3 15  1  1  0  0  0
  4  2  1  6  0  0  0
  4  7  1  0  0  0  0
  5  3  1  0  0  0  0
  6 10  1  0  0  0  0
  7  9  1  0  0  0  0
  8  6  1  1  0  0  0
  8  4  1  0  0  0  0
  8 11  1  0  0  0  0
  9  3  1  0  0  0  0
 10  1  1  0  0  0  0
 11  5  1  1  0  0  0
 12 20  1  0  0  0  0
 13 17  1  0  0  0  0
 14 17  1  0  0  0  0
 14 19  2  0  0  0  0
 15 12  2  0  0  0  0
 15 18  1  0  0  0  0
 18 16  1  6  0  0  0
 18 13  1  0  0  0  0
 20 14  1  0  0  0  0
 21 26  1  0  0  0  0
 22 24  1  0  0  0  0
 22 21  2  0  0  0  0
 23 27  1  0  0  0  0
 24 28  2  0  0  0  0
 26 23  2  0  0  0  0
 26 25  1  0  0  0  0
 28 23  1  0  0  0  0
M  END
>  <MODEL>
4

>  <REMARK>
 VINA RESULT:      -6.8      2.945      7.289
  Name = 
  2 active torsions:
  status: ('A' for Active; 'I' for Inactive)
    1  A    between atoms: C_1  and  C_2
    2  A    between atoms: C_10  and  C_13
                            x       y       z     vdW  Elec       q    Type
                         _______ _______ _______ _____ _____    ______ ____

>  <TORSDO>
F 2

$$$$
=
 OpenBabel11052422523D

 28 31  0  0  1  0  0  0  0  0999 V2000
  160.2230  210.3420  153.4610 C   0  0  1  0  0  3  0  0  0  0  0  0
  160.8320  213.5390  149.7980 C   0  0  0  0  0  1  0  0  0  0  0  0
  161.9410  209.2650  150.2270 C   0  0  2  0  0  3  0  0  0  0  0  0
  160.7960  212.0650  150.1540 C   0  0  1  0  0  3  0  0  0  0  0  0
  160.8480  209.3300  151.2900 C   0  0  0  0  0  2  0  0  0  0  0  0
  159.5600  212.3650  152.3370 C   0  0  0  0  0  2  0  0  0  0  0  0
  161.9690  211.3720  149.4720 C   0  0  0  0  0  2  0  0  0  0  0  0
  160.8450  211.8950  151.6810 C   0  0  1  0  0  3  0  0  0  0  0  0
  161.6030  210.0660  149.1280 O   0  0  0  0  0  0  0  0  0  0  0  0
  159.5320  211.6760  153.6820 C   0  0  0  0  0  2  0  0  0  0  0  0
  161.1220  210.4880  152.2440 C   0  0  1  0  0  3  0  0  0  0  0  0
  162.4490  207.6010  148.4920 C   0  0  0  0  0  3  0  0  0  0  0  0
  160.9110  205.8040  150.5140 C   0  0  0  0  0  2  0  0  0  0  0  0
  161.4950  205.3570  148.1280 C   0  0  0  0  0  0  0  0  0  0  0  0
  162.1760  207.8430  149.7890 C   0  0  0  0  0  0  0  0  0  0  0  0
  162.0440  207.1900  152.2340 C   0  0  0  0  0  1  0  0  0  0  0  0
  161.2540  204.7430  149.4720 C   0  0  0  0  0  2  0  0  0  0  0  0
  162.1080  206.7060  150.7930 C   0  0  1  0  0  3  0  0  0  0  0  0
  160.5500  205.3750  147.2630 N   0  0  0  0  0  2  0  0  0  0  0  0
  162.6950  206.2300  147.9320 C   0  0  0  0  0  2  0  0  0  0  0  0
  160.9810  209.8870  154.6740 C   0  0  0  0  0  0  0  0  0  0  0  0
  161.9870  210.7230  155.1690 C   0  0  0  0  0  3  0  0  0  0  0  0
  161.4460  208.3060  156.4640 C   0  0  0  0  0  0  0  0  0  0  0  0
  162.7200  210.3570  156.3000 C   0  0  0  0  0  3  0  0  0  0  0  0
  159.7100  207.8180  154.8640 O   0  0  0  0  0  1  0  0  0  0  0  0
  160.7070  208.6680  155.3310 C   0  0  0  0  0  0  0  0  0  0  0  0
  161.1910  207.1360  157.1010 F   0  0  0  0  0  0  0  0  0  0  0  0
  162.4490  209.1490  156.9470 C   0  0  0  0  0  3  0  0  0  0  0  0
  1 10  1  0  0  0  0
  1 21  1  1  0  0  0
  3 15  1  6  0  0  0
  3  5  1  0  0  0  0
  4  2  1  1  0  0  0
  4  8  1  0  0  0  0
  6 10  1  0  0  0  0
  7  4  1  0  0  0  0
  8 11  1  0  0  0  0
  8  6  1  1  0  0  0
  9  7  1  0  0  0  0
  9  3  1  0  0  0  0
 11  5  1  6  0  0  0
 11  1  1  0  0  0  0
 12 15  2  0  0  0  0
 13 18  1  0  0  0  0
 14 17  1  0  0  0  0
 15 18  1  0  0  0  0
 17 13  1  0  0  0  0
 18 16  1  1  0  0  0
 19 14  2  0  0  0  0
 20 14  1  0  0  0  0
 20 12  1  0  0  0  0
 21 22  2  0  0  0  0
 21 26  1  0  0  0  0
 22 24  1  0  0  0  0
 23 28  1  0  0  0  0
 23 27  1  0  0  0  0
 24 28  2  0  0  0  0
 25 26  1  0  0  0  0
 26 23  2  0  0  0  0
M  END
>  <MODEL>
5

>  <REMARK>
 VINA RESULT:      -6.2      2.379      4.901
  Name = 
  2 active torsions:
  status: ('A' for Active; 'I' for Inactive)
    1  A    between atoms: C_1  and  C_2
    2  A    between atoms: C_10  and  C_13
                            x       y       z     vdW  Elec       q    Type
                         _______ _______ _______ _____ _____    ______ ____

>  <TORSDO>
F 2

$$$$
=
 OpenBabel11052422523D

 28 31  0  0  1  0  0  0  0  0999 V2000
  162.4990  207.4820  150.4830 C   0  0  1  0  0  3  0  0  0  0  0  0
  161.3640  211.6220  148.1210 C   0  0  0  0  0  1  0  0  0  0  0  0
  161.0610  210.4590  152.3910 C   0  0  2  0  0  3  0  0  0  0  0  0
  161.6670  211.0230  149.4800 C   0  0  1  0  0  3  0  0  0  0  0  0
  162.1060  209.4410  151.9460 C   0  0  0  0  0  2  0  0  0  0  0  0
  162.7920  208.9430  148.5920 C   0  0  0  0  0  2  0  0  0  0  0  0
  160.6540  211.5590  150.4840 C   0  0  0  0  0  2  0  0  0  0  0  0
  161.6270  209.4890  149.3960 C   0  0  1  0  0  3  0  0  0  0  0  0
  161.2610  211.6830  151.7390 O   0  0  0  0  0  0  0  0  0  0  0  0
  162.9270  207.5010  149.0270 C   0  0  0  0  0  2  0  0  0  0  0  0
  161.6080  208.6920  150.7150 C   0  0  1  0  0  3  0  0  0  0  0  0
  162.2770  210.5060  154.5260 C   0  0  0  0  0  3  0  0  0  0  0  0
  159.4180  209.8400  155.5590 C   0  0  0  0  0  2  0  0  0  0  0  0
  161.6090  209.6580  156.7430 C   0  0  0  0  0  0  0  0  0  0  0  0
  161.1000  210.6480  153.8850 C   0  0  0  0  0  0  0  0  0  0  0  0
  158.6720  211.3580  153.7420 C   0  0  0  0  0  1  0  0  0  0  0  0
  160.1420  209.9080  156.9010 C   0  0  0  0  0  2  0  0  0  0  0  0
  159.8350  210.9920  154.6510 C   0  0  1  0  0  3  0  0  0  0  0  0
  162.0770  208.4870  156.9660 N   0  0  0  0  0  2  0  0  0  0  0  0
  162.4430  210.6620  156.0100 C   0  0  0  0  0  2  0  0  0  0  0  0
  161.8200  206.1980  150.8590 C   0  0  0  0  0  0  0  0  0  0  0  0
  161.7230  205.8820  152.2190 C   0  0  0  0  0  3  0  0  0  0  0  0
  160.6430  204.1370  150.3210 C   0  0  0  0  0  0  0  0  0  0  0  0
  161.0950  204.7040  152.6300 C   0  0  0  0  0  3  0  0  0  0  0  0
  161.3490  205.6050  148.5440 O   0  0  0  0  0  1  0  0  0  0  0  0
  161.2720  205.3160  149.9020 C   0  0  0  0  0  0  0  0  0  0  0  0
  160.1140  203.2840  149.4090 F   0  0  0  0  0  0  0  0  0  0  0  0
  160.5550  203.8330  151.6810 C   0  0  0  0  0  3  0  0  0  0  0  0
  1 11  1  0  0  0  0
  1 21  1  6  0  0  0
  3 15  1  1  0  0  0
  4  2  1  6  0  0  0
  4  7  1  0  0  0  0
  5  3  1  0  0  0  0
  6 10  1  0  0  0  0
  7  9  1  0  0  0  0
  8  6  1  6  0  0  0
  8  4  1  0  0  0  0
  8 11  1  0  0  0  0
  9  3  1  0  0  0  0
 10  1  1  0  0  0  0
 11  5  1  1  0  0  0
 12 20  1  0  0  0  0
 13 17  1  0  0  0  0
 14 17  1  0  0  0  0
 14 19  2  0  0  0  0
 15 12  2  0  0  0  0
 15 18  1  0  0  0  0
 18 16  1  6  0  0  0
 18 13  1  0  0  0  0
 20 14  1  0  0  0  0
 21 22  1  0  0  0  0
 22 24  2  0  0  0  0
 23 28  2  0  0  0  0
 25 26  1  0  0  0  0
 26 23  1  0  0  0  0
 26 21  2  0  0  0  0
 27 23  1  0  0  0  0
 28 24  1  0  0  0  0
M  END
>  <MODEL>
6

>  <REMARK>
 VINA RESULT:      -6.0      3.133      7.287
  Name = 
  2 active torsions:
  status: ('A' for Active; 'I' for Inactive)
    1  A    between atoms: C_1  and  C_2
    2  A    between atoms: C_10  and  C_13
                            x       y       z     vdW  Elec       q    Type
                         _______ _______ _______ _____ _____    ______ ____

>  <TORSDO>
F 2

$$$$
=
 OpenBabel11052422523D

 28 31  0  0  1  0  0  0  0  0999 V2000
  160.5510  209.5850  153.0880 C   0  0  1  0  0  3  0  0  0  0  0  0
  161.9590  211.2540  148.7020 C   0  0  0  0  0  1  0  0  0  0  0  0
  162.0620  207.2060  150.5130 C   0  0  2  0  0  3  0  0  0  0  0  0
  161.5820  210.0110  149.4830 C   0  0  1  0  0  3  0  0  0  0  0  0
  160.9850  207.8300  151.3960 C   0  0  0  0  0  2  0  0  0  0  0  0
  160.3910  211.2370  151.3440 C   0  0  0  0  0  2  0  0  0  0  0  0
  162.5850  208.9110  149.1590 C   0  0  0  0  0  2  0  0  0  0  0  0
  161.5520  210.3290  150.9870 C   0  0  1  0  0  3  0  0  0  0  0  0
  161.9420  207.6680  149.1960 O   0  0  0  0  0  0  0  0  0  0  0  0
  160.1740  211.0320  152.8260 C   0  0  0  0  0  2  0  0  0  0  0  0
  161.4900  209.1480  151.9750 C   0  0  1  0  0  3  0  0  0  0  0  0
  161.6720  205.0400  149.4200 C   0  0  0  0  0  3  0  0  0  0  0  0
  160.9700  204.2850  152.3550 C   0  0  0  0  0  2  0  0  0  0  0  0
  160.4780  203.0470  150.2440 C   0  0  0  0  0  0  0  0  0  0  0  0
  161.9810  205.7030  150.5510 C   0  0  0  0  0  0  0  0  0  0  0  0
  162.8200  205.8350  152.9390 C   0  0  0  0  0  1  0  0  0  0  0  0
  160.7660  202.9190  151.7070 C   0  0  0  0  0  2  0  0  0  0  0  0
  162.2430  204.9500  151.8440 C   0  0  1  0  0  3  0  0  0  0  0  0
  159.2650  203.0150  149.8340 N   0  0  0  0  0  2  0  0  0  0  0  0
  161.5550  203.5460  149.3320 C   0  0  0  0  0  2  0  0  0  0  0  0
  161.1560  209.3920  154.4480 C   0  0  0  0  0  0  0  0  0  0  0  0
  161.9780  210.4070  154.9490 C   0  0  0  0  0  3  0  0  0  0  0  0
  161.5030  208.1300  156.4990 C   0  0  0  0  0  0  0  0  0  0  0  0
  162.5620  210.2870  156.2120 C   0  0  0  0  0  3  0  0  0  0  0  0
  160.0980  207.2210  154.7640 O   0  0  0  0  0  1  0  0  0  0  0  0
  160.9150  208.2440  155.2330 C   0  0  0  0  0  0  0  0  0  0  0  0
  161.2780  207.0310  157.2610 F   0  0  0  0  0  0  0  0  0  0  0  0
  162.3240  209.1500  156.9860 C   0  0  0  0  0  3  0  0  0  0  0  0
  1 21  1  1  0  0  0
  3 15  1  6  0  0  0
  3  5  1  0  0  0  0
  4  2  1  6  0  0  0
  4  8  1  0  0  0  0
  6 10  1  0  0  0  0
  7  9  1  0  0  0  0
  7  4  1  0  0  0  0
  8  6  1  6  0  0  0
  8 11  1  0  0  0  0
  9  3  1  0  0  0  0
 10  1  1  0  0  0  0
 11  5  1  6  0  0  0
 11  1  1  0  0  0  0
 12 15  2  0  0  0  0
 14 17  1  0  0  0  0
 15 18  1  0  0  0  0
 17 13  1  0  0  0  0
 18 13  1  0  0  0  0
 18 16  1  1  0  0  0
 19 14  2  0  0  0  0
 20 12  1  0  0  0  0
 20 14  1  0  0  0  0
 21 22  2  0  0  0  0
 21 26  1  0  0  0  0
 22 24  1  0  0  0  0
 23 28  1  0  0  0  0
 23 27  1  0  0  0  0
 24 28  2  0  0  0  0
 25 26  1  0  0  0  0
 26 23  2  0  0  0  0
M  END
>  <MODEL>
7

>  <REMARK>
 VINA RESULT:      -5.9      2.753      5.115
  Name = 
  2 active torsions:
  status: ('A' for Active; 'I' for Inactive)
    1  A    between atoms: C_1  and  C_2
    2  A    between atoms: C_10  and  C_13
                            x       y       z     vdW  Elec       q    Type
                         _______ _______ _______ _____ _____    ______ ____

>  <TORSDO>
F 2

$$$$
=
 OpenBabel11052422523D

 28 31  0  0  1  0  0  0  0  0999 V2000
  159.8580  211.3820  155.0540 C   0  0  1  0  0  3  0  0  0  0  0  0
  160.1350  207.0030  157.2350 C   0  0  0  0  0  1  0  0  0  0  0  0
  160.9540  208.3080  153.0750 C   0  0  2  0  0  3  0  0  0  0  0  0
  160.5920  207.8150  156.0390 C   0  0  1  0  0  3  0  0  0  0  0  0
  161.0890  209.6580  153.7740 C   0  0  0  0  0  2  0  0  0  0  0  0
  160.0900  210.0710  157.0590 C   0  0  0  0  0  2  0  0  0  0  0  0
  160.4550  206.9560  154.7880 C   0  0  0  0  0  2  0  0  0  0  0  0
  159.7640  209.1060  155.9350 C   0  0  1  0  0  3  0  0  0  0  0  0
  161.4700  207.2860  153.8820 O   0  0  0  0  0  0  0  0  0  0  0  0
  159.6430  211.4240  156.5560 C   0  0  0  0  0  2  0  0  0  0  0  0
  159.8560  209.9220  154.6320 C   0  0  1  0  0  3  0  0  0  0  0  0
  162.2240  209.4700  151.3220 C   0  0  0  0  0  3  0  0  0  0  0  0
  160.8760  207.2460  149.6130 C   0  0  0  0  0  2  0  0  0  0  0  0
  162.0110  209.3410  148.8690 C   0  0  0  0  0  0  0  0  0  0  0  0
  161.6500  208.3250  151.7400 C   0  0  0  0  0  0  0  0  0  0  0  0
  161.2310  205.8280  151.6210 C   0  0  0  0  0  1  0  0  0  0  0  0
  161.6910  207.9220  148.5150 C   0  0  0  0  0  2  0  0  0  0  0  0
  161.7030  207.0720  150.8830 C   0  0  1  0  0  3  0  0  0  0  0  0
  161.2840  210.2870  148.4030 N   0  0  0  0  0  2  0  0  0  0  0  0
  162.9400  209.6140  150.0100 C   0  0  0  0  0  2  0  0  0  0  0  0
  158.8330  212.1890  154.3110 C   0  0  0  0  0  0  0  0  0  0  0  0
  159.2730  212.9900  153.2520 C   0  0  0  0  0  3  0  0  0  0  0  0
  156.5520  212.9270  153.8910 C   0  0  0  0  0  0  0  0  0  0  0  0
  158.3650  213.7560  152.5180 C   0  0  0  0  0  3  0  0  0  0  0  0
  156.9900  211.3660  155.6760 O   0  0  0  0  0  1  0  0  0  0  0  0
  157.4580  212.1560  154.6310 C   0  0  0  0  0  0  0  0  0  0  0  0
  155.2300  212.9020  154.1910 F   0  0  0  0  0  0  0  0  0  0  0  0
  157.0060  213.7240  152.8370 C   0  0  0  0  0  3  0  0  0  0  0  0
  1 21  1  6  0  0  0
  1 10  1  0  0  0  0
  3 15  1  6  0  0  0
  3  5  1  0  0  0  0
  3  9  1  0  0  0  0
  4  2  1  1  0  0  0
  7  4  1  0  0  0  0
  8  4  1  0  0  0  0
  8  6  1  1  0  0  0
  9  7  1  0  0  0  0
 10  6  1  0  0  0  0
 11  5  1  1  0  0  0
 11  1  1  0  0  0  0
 11  8  1  0  0  0  0
 12 15  2  0  0  0  0
 13 18  1  0  0  0  0
 14 20  1  0  0  0  0
 17 14  1  0  0  0  0
 17 13  1  0  0  0  0
 18 16  1  1  0  0  0
 18 15  1  0  0  0  0
 19 14  2  0  0  0  0
 20 12  1  0  0  0  0
 21 26  1  0  0  0  0
 22 21  2  0  0  0  0
 23 27  1  0  0  0  0
 23 26  2  0  0  0  0
 24 28  2  0  0  0  0
 24 22  1  0  0  0  0
 26 25  1  0  0  0  0
 28 23  1  0  0  0  0
M  END
>  <MODEL>
8

>  <REMARK>
 VINA RESULT:      -5.8      2.064      2.442
  Name = 
  2 active torsions:
  status: ('A' for Active; 'I' for Inactive)
    1  A    between atoms: C_1  and  C_2
    2  A    between atoms: C_10  and  C_13
                            x       y       z     vdW  Elec       q    Type
                         _______ _______ _______ _____ _____    ______ ____

>  <TORSDO>
F 2

$$$$
=
 OpenBabel11052422523D

 28 31  0  0  1  0  0  0  0  0999 V2000
  161.7590  207.8740  152.0460 C   0  0  1  0  0  3  0  0  0  0  0  0
  160.4560  203.2050  152.7610 C   0  0  0  0  0  1  0  0  0  0  0  0
  160.7210  205.6870  149.0940 C   0  0  2  0  0  3  0  0  0  0  0  0
  160.9270  204.2080  151.7250 C   0  0  1  0  0  3  0  0  0  0  0  0
  161.6530  206.4960  149.9910 C   0  0  0  0  0  2  0  0  0  0  0  0
  161.8350  205.8780  153.3890 C   0  0  0  0  0  2  0  0  0  0  0  0
  160.0880  204.0350  150.4660 C   0  0  0  0  0  2  0  0  0  0  0  0
  160.8180  205.6330  152.2910 C   0  0  1  0  0  3  0  0  0  0  0  0
  160.8720  204.3160  149.3410 O   0  0  0  0  0  0  0  0  0  0  0  0
  161.9760  207.3810  153.4650 C   0  0  0  0  0  2  0  0  0  0  0  0
  160.9560  206.8130  151.3100 C   0  0  1  0  0  3  0  0  0  0  0  0
  159.9500  205.9380  146.7740 C   0  0  0  0  0  3  0  0  0  0  0  0
  162.9430  205.2580  146.2660 C   0  0  0  0  0  2  0  0  0  0  0  0
  161.0250  205.2410  144.6680 C   0  0  0  0  0  0  0  0  0  0  0  0
  160.9790  205.9910  147.6420 C   0  0  0  0  0  0  0  0  0  0  0  0
  163.3450  206.6070  148.3120 C   0  0  0  0  0  1  0  0  0  0  0  0
  162.4990  205.4540  144.8190 C   0  0  0  0  0  2  0  0  0  0  0  0
  162.3760  206.3500  147.1670 C   0  0  1  0  0  3  0  0  0  0  0  0
  160.5890  204.1070  144.2630 N   0  0  0  0  0  2  0  0  0  0  0  0
  160.0810  206.2130  145.3040 C   0  0  0  0  0  2  0  0  0  0  0  0
  161.0930  209.2180  152.0060 C   0  0  0  0  0  0  0  0  0  0  0  0
  160.1470  209.5100  152.9950 C   0  0  0  0  0  3  0  0  0  0  0  0
  160.7410  211.4290  151.0510 C   0  0  0  0  0  0  0  0  0  0  0  0
  159.5010  210.7480  153.0150 C   0  0  0  0  0  3  0  0  0  0  0  0
  162.3310  209.9290  150.0320 O   0  0  0  0  0  1  0  0  0  0  0  0
  161.3930  210.1890  151.0260 C   0  0  0  0  0  0  0  0  0  0  0  0
  161.0230  212.3670  150.1140 F   0  0  0  0  0  0  0  0  0  0  0  0
  159.7980  211.7060  152.0430 C   0  0  0  0  0  3  0  0  0  0  0  0
  1 21  1  1  0  0  0
  1 10  1  0  0  0  0
  3 15  1  6  0  0  0
  3  9  1  0  0  0  0
  3  5  1  0  0  0  0
  4  8  1  0  0  0  0
  4  2  1  1  0  0  0
  6 10  1  0  0  0  0
  7  4  1  0  0  0  0
  8  6  1  1  0  0  0
  9  7  1  0  0  0  0
 11  5  1  6  0  0  0
 11  1  1  0  0  0  0
 11  8  1  0  0  0  0
 12 15  2  0  0  0  0
 13 18  1  0  0  0  0
 14 17  1  0  0  0  0
 14 20  1  0  0  0  0
 17 13  1  0  0  0  0
 18 15  1  0  0  0  0
 18 16  1  1  0  0  0
 19 14  2  0  0  0  0
 20 12  1  0  0  0  0
 21 22  1  0  0  0  0
 22 24  2  0  0  0  0
 23 28  2  0  0  0  0
 25 26  1  0  0  0  0
 26 23  1  0  0  0  0
 26 21  2  0  0  0  0
 27 23  1  0  0  0  0
 28 24  1  0  0  0  0
M  END
>  <MODEL>
9

>  <REMARK>
 VINA RESULT:      -5.8      2.333      4.220
  Name = 
  2 active torsions:
  status: ('A' for Active; 'I' for Inactive)
    1  A    between atoms: C_1  and  C_2
    2  A    between atoms: C_10  and  C_13
                            x       y       z     vdW  Elec       q    Type
                         _______ _______ _______ _____ _____    ______ ____

>  <TORSDO>
F 2

$$$$
