=
 OpenBabel11052423083D

 27 31  0  0  1  0  0  0  0  0999 V2000
  162.2460  204.2200  147.9350 C   0  0  0  0  0  2  0  0  0  0  0  0
  161.6910  206.5230  148.8550 C   0  0  0  0  0  0  0  0  0  0  0  0
  161.2960  204.6040  150.5390 C   0  0  0  0  0  2  0  0  0  0  0  0
  161.0100  209.1090  152.0380 N   0  0  0  0  0  2  0  0  0  0  0  0
  161.7690  208.6300  154.1570 C   0  0  0  0  0  1  0  0  0  0  0  0
  161.7300  207.8760  148.6260 N   0  0  0  0  0  0  0  0  0  0  0  0
  160.9130  206.8770  152.6260 C   0  0  2  0  0  3  0  0  0  0  0  0
  160.5340  201.6400  150.6450 C   0  0  0  0  0  2  0  0  0  0  0  0
  161.9420  206.0040  153.3520 C   0  0  0  0  0  1  0  0  0  0  0  0
  160.9680  200.9540  149.3580 C   0  0  0  0  0  2  0  0  0  0  0  0
  161.2510  207.0190  151.1770 C   0  0  0  0  0  0  0  0  0  0  0  0
  161.8960  205.6260  147.7380 N   0  0  0  0  0  0  0  0  0  0  0  0
  160.7730  208.2750  153.1480 N   0  0  0  0  0  0  0  0  0  0  0  0
  161.2890  208.3390  150.8940 C   0  0  0  0  0  0  0  0  0  0  0  0
  161.0130  203.3930  148.3020 C   0  0  1  0  0  3  0  0  0  0  0  0
  161.4180  206.0540  150.1760 C   0  0  0  0  0  0  0  0  0  0  0  0
  159.5820  202.7830  150.3400 C   0  0  0  0  0  2  0  0  0  0  0  0
  161.5290  208.7980  149.6100 C   0  0  0  0  0  3  0  0  0  0  0  0
  161.8670  201.4580  147.2560 O   0  0  0  0  0  0  0  0  0  0  0  0
  161.3390  201.9130  148.2580 C   0  0  0  0  0  0  0  0  0  0  0  0
  160.3300  203.8860  149.6010 C   0  0  1  0  0  3  0  0  0  0  0  0
  160.6340  204.5880  144.2820 C   0  0  0  0  0  2  0  0  0  0  0  0
  161.9290  206.1910  146.3840 C   0  0  0  0  0  3  0  0  0  0  0  0
  160.5330  206.5400  145.8500 C   0  0  0  0  0  2  0  0  0  0  0  0
  159.7940  205.3100  145.3290 C   0  0  0  0  0  2  0  0  0  0  0  0
  161.9500  204.1320  144.9000 C   0  0  0  0  0  2  0  0  0  0  0  0
  162.7450  205.3360  145.4050 C   0  0  0  0  0  2  0  0  0  0  0  0
  2 16  1  0  0  0  0
  4 13  1  0  0  0  0
  6  2  2  0  0  0  0
  6 18  1  0  0  0  0
  7 13  1  0  0  0  0
  7  9  1  1  0  0  0
 10  8  1  0  0  0  0
 11  7  1  0  0  0  0
 12  1  1  0  0  0  0
 12  2  1  0  0  0  0
 13  5  1  0  0  0  0
 14 11  1  0  0  0  0
 14  4  1  0  0  0  0
 15  1  1  1  0  0  0
 15 21  1  0  0  0  0
 16  3  1  0  0  0  0
 16 11  2  0  0  0  0
 17  8  1  0  0  0  0
 18 14  2  0  0  0  0
 19 20  2  0  0  0  0
 20 15  1  0  0  0  0
 20 10  1  0  0  0  0
 21 17  1  1  0  0  0
 21  3  1  0  0  0  0
 22 26  1  0  0  0  0
 22 25  1  0  0  0  0
 23 12  1  0  0  0  0
 24 23  1  0  0  0  0
 25 24  1  0  0  0  0
 26 27  1  0  0  0  0
 27 23  1  0  0  0  0
M  END
>  <MODEL>
1

>  <REMARK>
 VINA RESULT:      -7.5      0.000      0.000
  Name = 
  1 active torsions:
  status: ('A' for Active; 'I' for Inactive)
    1  A    between atoms: C_9  and  N_15
                            x       y       z     vdW  Elec       q    Type
                         _______ _______ _______ _____ _____    ______ ____

>  <TORSDO>
F 1

$$$$
=
 OpenBabel11052423083D

 27 31  0  0  1  0  0  0  0  0999 V2000
  161.0780  207.2700  150.9080 C   0  0  0  0  0  2  0  0  0  0  0  0
  160.9610  207.5070  153.4350 C   0  0  0  0  0  0  0  0  0  0  0  0
  160.8030  209.7530  152.1680 C   0  0  0  0  0  2  0  0  0  0  0  0
  159.9780  209.6630  156.8520 N   0  0  0  0  0  2  0  0  0  0  0  0
  158.4530  211.3840  156.7870 C   0  0  0  0  0  1  0  0  0  0  0  0
  160.8850  206.8450  154.6360 N   0  0  0  0  0  0  0  0  0  0  0  0
  160.0440  210.9510  154.9350 C   0  0  2  0  0  3  0  0  0  0  0  0
  161.7450  211.1110  149.5900 C   0  0  0  0  0  2  0  0  0  0  0  0
  158.8990  211.4950  154.0740 C   0  0  0  0  0  1  0  0  0  0  0  0
  161.9630  210.0610  148.5090 C   0  0  0  0  0  2  0  0  0  0  0  0
  160.3330  209.5220  154.6110 C   0  0  0  0  0  0  0  0  0  0  0  0
  161.3350  206.7600  152.2540 N   0  0  0  0  0  0  0  0  0  0  0  0
  159.8100  210.9920  156.4150 N   0  0  0  0  0  0  0  0  0  0  0  0
  160.2850  208.8230  155.7650 C   0  0  0  0  0  0  0  0  0  0  0  0
  162.1200  208.3160  150.5090 C   0  0  1  0  0  3  0  0  0  0  0  0
  160.7000  208.9120  153.4050 C   0  0  0  0  0  0  0  0  0  0  0  0
  162.6170  210.8150  150.7980 C   0  0  0  0  0  2  0  0  0  0  0  0
  160.5610  207.4660  155.8040 C   0  0  0  0  0  3  0  0  0  0  0  0
  161.9830  207.7370  148.2250 O   0  0  0  0  0  0  0  0  0  0  0  0
  161.9930  208.6510  149.0360 C   0  0  0  0  0  0  0  0  0  0  0  0
  162.1420  209.5320  151.4680 C   0  0  1  0  0  3  0  0  0  0  0  0
  160.6610  203.3800  150.6000 C   0  0  0  0  0  2  0  0  0  0  0  0
  161.8170  205.3840  152.4210 C   0  0  0  0  0  3  0  0  0  0  0  0
  162.5860  204.8700  151.1960 C   0  0  0  0  0  2  0  0  0  0  0  0
  161.6490  204.4160  150.0780 C   0  0  0  0  0  2  0  0  0  0  0  0
  159.8200  203.9840  151.7180 C   0  0  0  0  0  2  0  0  0  0  0  0
  160.7130  204.4210  152.8780 C   0  0  0  0  0  2  0  0  0  0  0  0
  1 12  1  0  0  0  0
  2  6  1  0  0  0  0
  3 16  1  0  0  0  0
  6 18  2  0  0  0  0
  7  9  1  6  0  0  0
  7 13  1  0  0  0  0
  8 17  1  0  0  0  0
 10 20  1  0  0  0  0
 10  8  1  0  0  0  0
 11  7  1  0  0  0  0
 11 14  2  0  0  0  0
 12 23  1  0  0  0  0
 12  2  1  0  0  0  0
 13  5  1  0  0  0  0
 13  4  1  0  0  0  0
 14 18  1  0  0  0  0
 14  4  1  0  0  0  0
 15  1  1  1  0  0  0
 15 21  1  0  0  0  0
 16  2  2  0  0  0  0
 16 11  1  0  0  0  0
 19 20  2  0  0  0  0
 20 15  1  0  0  0  0
 21 17  1  6  0  0  0
 21  3  1  0  0  0  0
 22 26  1  0  0  0  0
 23 27  1  0  0  0  0
 24 23  1  0  0  0  0
 25 22  1  0  0  0  0
 25 24  1  0  0  0  0
 26 27  1  0  0  0  0
M  END
>  <MODEL>
2

>  <REMARK>
 VINA RESULT:      -5.6      3.175      6.165
  Name = 
  1 active torsions:
  status: ('A' for Active; 'I' for Inactive)
    1  A    between atoms: C_9  and  N_15
                            x       y       z     vdW  Elec       q    Type
                         _______ _______ _______ _____ _____    ______ ____

>  <TORSDO>
F 1

$$$$
=
 OpenBabel11052423083D

 27 31  0  0  1  0  0  0  0  0999 V2000
  160.3370  211.0040  155.2030 C   0  0  0  0  0  2  0  0  0  0  0  0
  161.2490  210.4630  152.8940 C   0  0  0  0  0  0  0  0  0  0  0  0
  159.4840  212.3490  152.9020 C   0  0  0  0  0  2  0  0  0  0  0  0
  161.9200  211.4600  148.9140 N   0  0  0  0  0  2  0  0  0  0  0  0
  161.8820  213.6480  148.2020 C   0  0  0  0  0  1  0  0  0  0  0  0
  162.1750  209.7420  152.1790 N   0  0  0  0  0  0  0  0  0  0  0  0
  160.3390  212.7920  149.9460 C   0  0  2  0  0  3  0  0  0  0  0  0
  157.0030  213.2910  154.4300 C   0  0  0  0  0  2  0  0  0  0  0  0
  160.4570  214.2210  150.4850 C   0  0  0  0  0  1  0  0  0  0  0  0
  157.0810  212.8160  155.8740 C   0  0  0  0  0  2  0  0  0  0  0  0
  160.8960  211.8000  150.9140 C   0  0  0  0  0  0  0  0  0  0  0  0
  160.9960  210.0920  154.2690 N   0  0  0  0  0  0  0  0  0  0  0  0
  161.0480  212.5350  148.6500 N   0  0  0  0  0  0  0  0  0  0  0  0
  161.8060  211.0520  150.2560 C   0  0  0  0  0  0  0  0  0  0  0  0
  158.8230  211.0150  154.9830 C   0  0  1  0  0  3  0  0  0  0  0  0
  160.5520  211.5270  152.2450 C   0  0  0  0  0  0  0  0  0  0  0  0
  157.0550  212.1060  153.4810 C   0  0  0  0  0  2  0  0  0  0  0  0
  162.4670  210.0040  150.8740 C   0  0  0  0  0  3  0  0  0  0  0  0
  158.3880  211.4560  157.2610 O   0  0  0  0  0  0  0  0  0  0  0  0
  158.1330  211.7640  156.1070 C   0  0  0  0  0  0  0  0  0  0  0  0
  158.4310  211.4550  153.5520 C   0  0  1  0  0  3  0  0  0  0  0  0
  160.0260  207.4420  156.8490 C   0  0  0  0  0  2  0  0  0  0  0  0
  161.5770  208.8430  154.7760 C   0  0  0  0  0  3  0  0  0  0  0  0
  160.7210  207.6120  154.4470 C   0  0  0  0  0  2  0  0  0  0  0  0
  159.5410  207.4610  155.4050 C   0  0  0  0  0  2  0  0  0  0  0  0
  160.7430  208.7480  157.1710 C   0  0  0  0  0  2  0  0  0  0  0  0
  161.9570  208.9260  156.2610 C   0  0  0  0  0  2  0  0  0  0  0  0
  2 12  1  0  0  0  0
  4 14  1  0  0  0  0
  5 13  1  0  0  0  0
  6  2  2  0  0  0  0
  7  9  1  1  0  0  0
  7 11  1  0  0  0  0
  8 10  1  0  0  0  0
 10 20  1  0  0  0  0
 11 16  2  0  0  0  0
 12 23  1  0  0  0  0
 12  1  1  0  0  0  0
 13  4  1  0  0  0  0
 13  7  1  0  0  0  0
 14 18  2  0  0  0  0
 14 11  1  0  0  0  0
 15  1  1  1  0  0  0
 15 20  1  0  0  0  0
 16  2  1  0  0  0  0
 16  3  1  0  0  0  0
 17 21  1  0  0  0  0
 17  8  1  0  0  0  0
 18  6  1  0  0  0  0
 20 19  2  0  0  0  0
 21  3  1  1  0  0  0
 21 15  1  0  0  0  0
 22 26  1  0  0  0  0
 23 27  1  0  0  0  0
 24 23  1  0  0  0  0
 24 25  1  0  0  0  0
 25 22  1  0  0  0  0
 27 26  1  0  0  0  0
M  END
>  <MODEL>
3

>  <REMARK>
 VINA RESULT:      -4.9      6.246      9.325
  Name = 
  1 active torsions:
  status: ('A' for Active; 'I' for Inactive)
    1  A    between atoms: C_9  and  N_15
                            x       y       z     vdW  Elec       q    Type
                         _______ _______ _______ _____ _____    ______ ____

>  <TORSDO>
F 1

$$$$
=
 OpenBabel11052423083D

 27 31  0  0  1  0  0  0  0  0999 V2000
  159.3910  210.4950  153.5300 C   0  0  0  0  0  2  0  0  0  0  0  0
  160.8050  210.4630  151.4200 C   0  0  0  0  0  0  0  0  0  0  0  0
  160.6890  208.1840  152.6310 C   0  0  0  0  0  2  0  0  0  0  0  0
  162.6780  208.4250  148.3170 N   0  0  0  0  0  2  0  0  0  0  0  0
  162.0320  206.2990  147.7160 C   0  0  0  0  0  1  0  0  0  0  0  0
  161.2130  211.1700  150.3150 N   0  0  0  0  0  0  0  0  0  0  0  0
  162.0580  207.0600  150.0760 C   0  0  2  0  0  3  0  0  0  0  0  0
  160.3840  206.9820  155.4310 C   0  0  0  0  0  2  0  0  0  0  0  0
  160.8750  206.0950  150.2040 C   0  0  0  0  0  1  0  0  0  0  0  0
  159.6030  207.9420  156.3180 C   0  0  0  0  0  2  0  0  0  0  0  0
  161.6370  208.4700  150.3370 C   0  0  0  0  0  0  0  0  0  0  0  0
  160.1830  211.1810  152.5110 N   0  0  0  0  0  0  0  0  0  0  0  0
  162.7290  207.0800  148.7360 N   0  0  0  0  0  0  0  0  0  0  0  0
  162.0280  209.2160  149.2820 C   0  0  0  0  0  0  0  0  0  0  0  0
  160.2930  209.8160  154.5620 C   0  0  1  0  0  3  0  0  0  0  0  0
  161.0390  209.0540  151.4610 C   0  0  0  0  0  0  0  0  0  0  0  0
  161.6340  207.6570  154.8940 C   0  0  0  0  0  2  0  0  0  0  0  0
  161.8250  210.5860  149.2470 C   0  0  0  0  0  3  0  0  0  0  0  0
  158.7140  210.1080  156.2920 O   0  0  0  0  0  0  0  0  0  0  0  0
  159.4710  209.3260  155.7390 C   0  0  0  0  0  0  0  0  0  0  0  0
  161.2400  208.7680  153.9290 C   0  0  1  0  0  3  0  0  0  0  0  0
  157.5890  213.9720  152.1960 C   0  0  0  0  0  2  0  0  0  0  0  0
  160.2030  212.6480  152.4840 C   0  0  0  0  0  3  0  0  0  0  0  0
  159.4810  213.2750  153.6850 C   0  0  0  0  0  2  0  0  0  0  0  0
  157.9650  213.2830  153.5030 C   0  0  0  0  0  2  0  0  0  0  0  0
  158.2110  213.2260  151.0220 C   0  0  0  0  0  2  0  0  0  0  0  0
  159.7340  213.2220  151.1400 C   0  0  0  0  0  2  0  0  0  0  0  0
  2 16  1  0  0  0  0
  2 12  1  0  0  0  0
  4 13  1  0  0  0  0
  4 14  1  0  0  0  0
  5 13  1  0  0  0  0
  6  2  2  0  0  0  0
  7  9  1  6  0  0  0
  7 11  1  0  0  0  0
  8 10  1  0  0  0  0
 11 16  2  0  0  0  0
 12  1  1  0  0  0  0
 13  7  1  0  0  0  0
 14 11  1  0  0  0  0
 15  1  1  6  0  0  0
 15 20  1  0  0  0  0
 16  3  1  0  0  0  0
 17  8  1  0  0  0  0
 18 14  2  0  0  0  0
 18  6  1  0  0  0  0
 20 19  2  0  0  0  0
 20 10  1  0  0  0  0
 21  3  1  6  0  0  0
 21 15  1  0  0  0  0
 21 17  1  0  0  0  0
 22 25  1  0  0  0  0
 23 12  1  0  0  0  0
 23 24  1  0  0  0  0
 25 24  1  0  0  0  0
 26 27  1  0  0  0  0
 26 22  1  0  0  0  0
 27 23  1  0  0  0  0
M  END
>  <MODEL>
4

>  <REMARK>
 VINA RESULT:      -4.6      3.974      7.805
  Name = 
  1 active torsions:
  status: ('A' for Active; 'I' for Inactive)
    1  A    between atoms: C_9  and  N_15
                            x       y       z     vdW  Elec       q    Type
                         _______ _______ _______ _____ _____    ______ ____

>  <TORSDO>
F 1

$$$$
=
 OpenBabel11052423083D

 27 31  0  0  1  0  0  0  0  0999 V2000
  160.0800  211.5100  140.5190 C   0  0  0  0  0  2  0  0  0  0  0  0
  161.4460  212.4810  142.4290 C   0  0  0  0  0  0  0  0  0  0  0  0
  158.9230  213.0160  142.5750 C   0  0  0  0  0  2  0  0  0  0  0  0
  161.7410  214.0740  146.2570 N   0  0  0  0  0  2  0  0  0  0  0  0
  160.0980  213.7280  147.8310 C   0  0  0  0  0  1  0  0  0  0  0  0
  162.6800  212.5360  143.0290 N   0  0  0  0  0  0  0  0  0  0  0  0
  159.5840  214.0590  145.4280 C   0  0  2  0  0  3  0  0  0  0  0  0
  156.4730  213.4720  140.7960 C   0  0  0  0  0  2  0  0  0  0  0  0
  158.4160  213.1200  145.7410 C   0  0  0  0  0  1  0  0  0  0  0  0
  156.6410  212.7110  139.4880 C   0  0  0  0  0  2  0  0  0  0  0  0
  160.5250  213.4440  144.4430 C   0  0  0  0  0  0  0  0  0  0  0  0
  161.3530  211.9560  141.0840 N   0  0  0  0  0  0  0  0  0  0  0  0
  160.4280  214.4500  146.6040 N   0  0  0  0  0  0  0  0  0  0  0  0
  161.7640  213.4850  144.9800 C   0  0  0  0  0  0  0  0  0  0  0  0
  159.2380  212.7000  140.0550 C   0  0  1  0  0  3  0  0  0  0  0  0
  160.3100  212.9730  143.1420 C   0  0  0  0  0  0  0  0  0  0  0  0
  157.6160  214.4530  140.9860 C   0  0  0  0  0  2  0  0  0  0  0  0
  162.8710  213.0320  144.2840 C   0  0  0  0  0  3  0  0  0  0  0  0
  158.2330  211.4500  138.3230 O   0  0  0  0  0  0  0  0  0  0  0  0
  158.0450  212.2200  139.2520 C   0  0  0  0  0  0  0  0  0  0  0  0
  158.9150  213.6860  141.2030 C   0  0  1  0  0  3  0  0  0  0  0  0
  162.4870  212.1590  137.4390 C   0  0  0  0  0  2  0  0  0  0  0  0
  162.5940  211.7000  140.3450 C   0  0  0  0  0  3  0  0  0  0  0  0
  163.1790  212.9680  139.7080 C   0  0  0  0  0  2  0  0  0  0  0  0
  162.4700  213.3370  138.4060 C   0  0  0  0  0  2  0  0  0  0  0  0
  161.7660  210.9690  138.0600 C   0  0  0  0  0  2  0  0  0  0  0  0
  162.4630  210.5390  139.3500 C   0  0  0  0  0  2  0  0  0  0  0  0
  1 12  1  0  0  0  0
  2  6  2  0  0  0  0
  2 16  1  0  0  0  0
  3 16  1  0  0  0  0
  4 13  1  0  0  0  0
  6 18  1  0  0  0  0
  7  9  1  1  0  0  0
  7 13  1  0  0  0  0
  8 17  1  0  0  0  0
 10  8  1  0  0  0  0
 11 14  1  0  0  0  0
 11  7  1  0  0  0  0
 12  2  1  0  0  0  0
 13  5  1  0  0  0  0
 14  4  1  0  0  0  0
 15  1  1  1  0  0  0
 15 21  1  0  0  0  0
 16 11  2  0  0  0  0
 18 14  2  0  0  0  0
 19 20  2  0  0  0  0
 20 10  1  0  0  0  0
 20 15  1  0  0  0  0
 21 17  1  6  0  0  0
 21  3  1  0  0  0  0
 22 26  1  0  0  0  0
 22 25  1  0  0  0  0
 23 12  1  0  0  0  0
 24 23  1  0  0  0  0
 25 24  1  0  0  0  0
 26 27  1  0  0  0  0
 27 23  1  0  0  0  0
M  END
>  <MODEL>
5

>  <REMARK>
 VINA RESULT:      -4.6      9.156     10.868
  Name = 
  1 active torsions:
  status: ('A' for Active; 'I' for Inactive)
    1  A    between atoms: C_9  and  N_15
                            x       y       z     vdW  Elec       q    Type
                         _______ _______ _______ _____ _____    ______ ____

>  <TORSDO>
F 1

$$$$
