=
 OpenBabel11052422343D

 31 34  0  0  1  0  0  0  0  0999 V2000
  160.8040  208.8280  154.7540 C   0  0  0  0  0  0  0  0  0  0  0  0
  161.5040  207.5230  151.3050 C   0  0  0  0  0  0  0  0  0  0  0  0
  161.7310  208.7450  150.4570 C   0  0  0  0  0  0  0  0  0  0  0  0
  162.3330  211.0930  150.1880 C   0  0  0  0  0  3  0  0  0  0  0  0
  161.2150  207.5810  152.6970 C   0  0  0  0  0  0  0  0  0  0  0  0
  160.6390  207.6350  155.4580 C   0  0  0  0  0  3  0  0  0  0  0  0
  162.1030  209.9840  151.0070 C   0  0  0  0  0  3  0  0  0  0  0  0
  161.3550  205.0640  151.4140 C   0  0  0  0  0  0  0  0  0  0  0  0
  160.6560  210.3610  155.5840 Cl  0  0  0  0  0  0  0  0  0  0  0  0
  161.2510  207.3350  148.4290 C   0  0  0  0  0  2  0  0  0  0  0  0
  162.2010  210.9770  148.8030 C   0  0  0  0  0  0  0  0  0  0  0  0
  161.1010  205.1530  152.7800 C   0  0  0  0  0  3  0  0  0  0  0  0
  161.5520  206.2520  150.6630 C   0  0  0  0  0  0  0  0  0  0  0  0
  161.0870  208.7990  153.3870 C   0  0  0  0  0  3  0  0  0  0  0  0
  162.4180  212.0530  148.0090 F   0  0  0  0  0  0  0  0  0  0  0  0
  161.0260  206.3820  153.4220 C   0  0  0  0  0  0  0  0  0  0  0  0
  160.7480  206.4140  154.7920 C   0  0  0  0  0  3  0  0  0  0  0  0
  161.9050  206.1940  149.1990 C   0  0  0  0  0  2  0  0  0  0  0  0
  161.6290  208.6380  149.0540 C   0  0  0  0  0  0  0  0  0  0  0  0
  161.8500  209.7510  148.2360 C   0  0  0  0  0  3  0  0  0  0  0  0
  161.4000  203.7400  150.8550 N   0  0  0  0  0  2  0  0  0  0  0  0
  160.3700  203.0900  150.0590 C   0  0  0  0  0  2  0  0  0  0  0  0
  161.2070  200.8720  148.7980 S   0  0  0  0  0  0  0  0  0  0  0  0
  160.9780  202.4960  148.8390 C   0  0  0  0  0  0  0  0  0  0  0  0
  161.6190  203.3720  147.8980 N   0  0  0  0  0  2  0  0  0  0  0  0
  160.8010  202.4240  145.8340 C   0  0  0  0  0  2  0  0  0  0  0  0
  161.5180  203.3470  146.4660 C   0  0  0  0  0  0  0  0  0  0  0  0
  162.0290  204.5140  145.6900 C   0  0  0  0  0  2  0  0  0  0  0  0
  160.9850  205.0130  144.7030 C   0  0  2  0  0  3  0  0  0  0  0  0
  161.6060  205.4530  143.5330 O   0  0  0  0  0  1  0  0  0  0  0  0
  160.2130  206.1580  145.3220 C   0  0  0  0  0  1  0  0  0  0  0  0
  1  6  1  0  0  0  0
  1  9  1  0  0  0  0
  2  5  1  0  0  0  0
  3  7  1  0  0  0  0
  3  2  1  0  0  0  0
  4  7  2  0  0  0  0
  5 14  1  0  0  0  0
  5 16  2  0  0  0  0
  8 12  2  0  0  0  0
 10 19  1  0  0  0  0
 10 18  1  0  0  0  0
 11  4  1  0  0  0  0
 12 16  1  0  0  0  0
 13  2  2  0  0  0  0
 13  8  1  0  0  0  0
 14  1  2  0  0  0  0
 15 11  1  0  0  0  0
 16 17  1  0  0  0  0
 17  6  2  0  0  0  0
 18 13  1  0  0  0  0
 19  3  2  0  0  0  0
 20 11  2  0  0  0  0
 20 19  1  0  0  0  0
 21  8  1  0  0  0  0
 22 21  1  0  0  0  0
 23 24  2  0  0  0  0
 24 22  1  0  0  0  0
 25 24  1  0  0  0  0
 26 27  2  0  0  0  0
 27 25  1  0  0  0  0
 28 27  1  0  0  0  0
 29 31  1  1  0  0  0
 29 28  1  0  0  0  0
 30 29  1  0  0  0  0
M  END
>  <MODEL>
1

>  <REMARK>
 VINA RESULT:      -9.0      0.000      0.000
  Name = 
  7 active torsions:
  status: ('A' for Active; 'I' for Inactive)
    1  A    between atoms: C_1  and  C_24
    2  A    between atoms: N_3  and  C_19
    3  A    between atoms: N_3  and  C_22
    4  A    between atoms: C_9  and  C_22
    5  A    between atoms: C_9  and  N_23
    6  A    between atoms: C_15  and  N_23
    7  A    between atoms: C_19  and  C_24
                            x       y       z     vdW  Elec       q    Type
                         _______ _______ _______ _____ _____    ______ ____

>  <TORSDO>
F 7

$$$$
=
 OpenBabel11052422343D

 31 34  0  0  1  0  0  0  0  0999 V2000
  161.0170  204.3990  149.4290 C   0  0  0  0  0  0  0  0  0  0  0  0
  161.3870  207.7900  150.9940 C   0  0  0  0  0  0  0  0  0  0  0  0
  161.1200  207.5820  152.4590 C   0  0  0  0  0  0  0  0  0  0  0  0
  161.0160  206.1730  154.4460 C   0  0  0  0  0  3  0  0  0  0  0  0
  161.3560  206.7380  150.0370 C   0  0  0  0  0  0  0  0  0  0  0  0
  161.3070  204.6900  148.0970 C   0  0  0  0  0  3  0  0  0  0  0  0
  161.2440  206.3260  153.0760 C   0  0  0  0  0  3  0  0  0  0  0  0
  161.9210  209.3730  149.1790 C   0  0  0  0  0  0  0  0  0  0  0  0
  160.6220  202.7600  149.9010 Cl  0  0  0  0  0  0  0  0  0  0  0  0
  160.6660  210.0500  152.6490 C   0  0  0  0  0  2  0  0  0  0  0  0
  160.6650  207.2780  155.2230 C   0  0  0  0  0  0  0  0  0  0  0  0
  161.9100  208.3170  148.2730 C   0  0  0  0  0  3  0  0  0  0  0  0
  161.6530  209.1170  150.5490 C   0  0  0  0  0  0  0  0  0  0  0  0
  161.0390  205.4140  150.3880 C   0  0  0  0  0  3  0  0  0  0  0  0
  160.4380  207.1290  156.5500 F   0  0  0  0  0  0  0  0  0  0  0  0
  161.6300  207.0190  148.6780 C   0  0  0  0  0  0  0  0  0  0  0  0
  161.6120  205.9990  147.7220 C   0  0  0  0  0  3  0  0  0  0  0  0
  161.7300  210.2210  151.5720 C   0  0  0  0  0  2  0  0  0  0  0  0
  160.7930  208.6940  153.2640 C   0  0  0  0  0  0  0  0  0  0  0  0
  160.5550  208.5380  154.6340 C   0  0  0  0  0  3  0  0  0  0  0  0
  162.2120  210.6750  148.6430 N   0  0  0  0  0  2  0  0  0  0  0  0
  161.4080  211.4320  147.6960 C   0  0  0  0  0  2  0  0  0  0  0  0
  160.7930  213.5440  149.2360 S   0  0  0  0  0  0  0  0  0  0  0  0
  161.5710  212.8880  147.9490 C   0  0  0  0  0  0  0  0  0  0  0  0
  162.1270  213.7050  146.9060 N   0  0  0  0  0  2  0  0  0  0  0  0
  162.6490  213.2070  144.6020 C   0  0  0  0  0  2  0  0  0  0  0  0
  161.8020  213.6840  145.5080 C   0  0  0  0  0  0  0  0  0  0  0  0
  160.4000  213.9780  145.0920 C   0  0  0  0  0  2  0  0  0  0  0  0
  159.6590  212.7020  144.7250 C   0  0  2  0  0  3  0  0  0  0  0  0
  159.2940  212.7310  143.3790 O   0  0  0  0  0  1  0  0  0  0  0  0
  158.4140  212.5800  145.5790 C   0  0  0  0  0  1  0  0  0  0  0  0
  1  9  1  0  0  0  0
  1 14  1  0  0  0  0
  2  3  1  0  0  0  0
  3  7  2  0  0  0  0
  3 19  1  0  0  0  0
  4 11  2  0  0  0  0
  5 14  2  0  0  0  0
  5  2  1  0  0  0  0
  6  1  2  0  0  0  0
  7  4  1  0  0  0  0
  8 13  1  0  0  0  0
 10 19  1  0  0  0  0
 11 15  1  0  0  0  0
 12 16  1  0  0  0  0
 12  8  2  0  0  0  0
 13  2  2  0  0  0  0
 13 18  1  0  0  0  0
 16  5  1  0  0  0  0
 17  6  1  0  0  0  0
 17 16  2  0  0  0  0
 18 10  1  0  0  0  0
 19 20  2  0  0  0  0
 20 11  1  0  0  0  0
 21  8  1  0  0  0  0
 22 24  1  0  0  0  0
 22 21  1  0  0  0  0
 24 23  2  0  0  0  0
 25 24  1  0  0  0  0
 26 27  2  0  0  0  0
 27 25  1  0  0  0  0
 28 27  1  0  0  0  0
 29 28  1  0  0  0  0
 29 31  1  1  0  0  0
 30 29  1  0  0  0  0
M  END
>  <MODEL>
2

>  <REMARK>
 VINA RESULT:      -8.9      4.803      7.399
  Name = 
  7 active torsions:
  status: ('A' for Active; 'I' for Inactive)
    1  A    between atoms: C_1  and  C_24
    2  A    between atoms: N_3  and  C_19
    3  A    between atoms: N_3  and  C_22
    4  A    between atoms: C_9  and  C_22
    5  A    between atoms: C_9  and  N_23
    6  A    between atoms: C_15  and  N_23
    7  A    between atoms: C_19  and  C_24
                            x       y       z     vdW  Elec       q    Type
                         _______ _______ _______ _____ _____    ______ ____

>  <TORSDO>
F 7

$$$$
=
 OpenBabel11052422343D

 31 34  0  0  1  0  0  0  0  0999 V2000
  160.9980  204.5430  149.3800 C   0  0  0  0  0  0  0  0  0  0  0  0
  161.3800  207.8760  151.0620 C   0  0  0  0  0  0  0  0  0  0  0  0
  161.1090  207.6180  152.5190 C   0  0  0  0  0  0  0  0  0  0  0  0
  160.9950  206.1400  154.4560 C   0  0  0  0  0  3  0  0  0  0  0  0
  161.3460  206.8570  150.0690 C   0  0  0  0  0  0  0  0  0  0  0  0
  161.2930  204.8790  148.0590 C   0  0  0  0  0  3  0  0  0  0  0  0
  161.2270  206.3400  153.0920 C   0  0  0  0  0  3  0  0  0  0  0  0
  161.9240  209.5180  149.3050 C   0  0  0  0  0  0  0  0  0  0  0  0
  160.5960  202.8900  149.7930 Cl  0  0  0  0  0  0  0  0  0  0  0  0
  160.6650  210.0790  152.7950 C   0  0  0  0  0  2  0  0  0  0  0  0
  160.6470  207.2190  155.2700 C   0  0  0  0  0  0  0  0  0  0  0  0
  161.9100  208.4950  148.3620 C   0  0  0  0  0  3  0  0  0  0  0  0
  161.6520  209.2160  150.6650 C   0  0  0  0  0  0  0  0  0  0  0  0
  161.0230  205.5240  150.3730 C   0  0  0  0  0  3  0  0  0  0  0  0
  160.4170  207.0250  156.5910 F   0  0  0  0  0  0  0  0  0  0  0  0
  161.6240  207.1850  148.7220 C   0  0  0  0  0  0  0  0  0  0  0  0
  161.6040  206.1990  147.7300 C   0  0  0  0  0  3  0  0  0  0  0  0
  161.7320  210.2830  151.7270 C   0  0  0  0  0  2  0  0  0  0  0  0
  160.7850  208.7020  153.3620 C   0  0  0  0  0  0  0  0  0  0  0  0
  160.5430  208.4990  154.7250 C   0  0  0  0  0  3  0  0  0  0  0  0
  162.2210  210.8370  148.8160 N   0  0  0  0  0  2  0  0  0  0  0  0
  161.5220  211.5590  147.7640 C   0  0  0  0  0  2  0  0  0  0  0  0
  161.8480  214.1670  147.2080 S   0  0  0  0  0  0  0  0  0  0  0  0
  161.2980  212.9680  148.1840 C   0  0  0  0  0  0  0  0  0  0  0  0
  160.9050  213.2210  149.5430 N   0  0  0  0  0  2  0  0  0  0  0  0
  159.2560  213.1710  151.3050 C   0  0  0  0  0  2  0  0  0  0  0  0
  159.5790  213.4430  150.0450 C   0  0  0  0  0  0  0  0  0  0  0  0
  158.6140  214.2140  149.2090 C   0  0  0  0  0  2  0  0  0  0  0  0
  157.4060  213.3640  148.8450 C   0  0  2  0  0  3  0  0  0  0  0  0
  157.6630  212.6460  147.6770 O   0  0  0  0  0  1  0  0  0  0  0  0
  156.2070  214.2620  148.6260 C   0  0  0  0  0  1  0  0  0  0  0  0
  1  9  1  0  0  0  0
  1 14  1  0  0  0  0
  2  3  1  0  0  0  0
  3  7  2  0  0  0  0
  3 19  1  0  0  0  0
  4 11  2  0  0  0  0
  5 14  2  0  0  0  0
  5  2  1  0  0  0  0
  6  1  2  0  0  0  0
  7  4  1  0  0  0  0
  8 13  1  0  0  0  0
 10 19  1  0  0  0  0
 11 15  1  0  0  0  0
 12 16  1  0  0  0  0
 12  8  2  0  0  0  0
 13  2  2  0  0  0  0
 13 18  1  0  0  0  0
 16  5  1  0  0  0  0
 17  6  1  0  0  0  0
 17 16  2  0  0  0  0
 18 10  1  0  0  0  0
 19 20  2  0  0  0  0
 20 11  1  0  0  0  0
 21  8  1  0  0  0  0
 22 24  1  0  0  0  0
 22 21  1  0  0  0  0
 23 24  2  0  0  0  0
 24 25  1  0  0  0  0
 25 27  1  0  0  0  0
 27 26  2  0  0  0  0
 28 27  1  0  0  0  0
 29 31  1  6  0  0  0
 29 28  1  0  0  0  0
 30 29  1  0  0  0  0
M  END
>  <MODEL>
3

>  <REMARK>
 VINA RESULT:      -8.9      4.931      7.819
  Name = 
  7 active torsions:
  status: ('A' for Active; 'I' for Inactive)
    1  A    between atoms: C_1  and  C_24
    2  A    between atoms: N_3  and  C_19
    3  A    between atoms: N_3  and  C_22
    4  A    between atoms: C_9  and  C_22
    5  A    between atoms: C_9  and  N_23
    6  A    between atoms: C_15  and  N_23
    7  A    between atoms: C_19  and  C_24
                            x       y       z     vdW  Elec       q    Type
                         _______ _______ _______ _____ _____    ______ ____

>  <TORSDO>
F 7

$$$$
=
 OpenBabel11052422343D

 31 34  0  0  1  0  0  0  0  0999 V2000
  161.9660  210.5650  149.4490 C   0  0  0  0  0  0  0  0  0  0  0  0
  161.1430  208.5210  152.4870 C   0  0  0  0  0  0  0  0  0  0  0  0
  160.9240  209.5210  153.5890 C   0  0  0  0  0  0  0  0  0  0  0  0
  160.3720  211.7600  154.3830 C   0  0  0  0  0  3  0  0  0  0  0  0
  161.4710  208.8900  151.1520 C   0  0  0  0  0  0  0  0  0  0  0  0
  162.1220  209.5620  148.4910 C   0  0  0  0  0  3  0  0  0  0  0  0
  160.5970  210.8640  153.3340 C   0  0  0  0  0  3  0  0  0  0  0  0
  161.2340  206.1500  151.8150 C   0  0  0  0  0  0  0  0  0  0  0  0
  162.1740  212.2430  148.9990 Cl  0  0  0  0  0  0  0  0  0  0  0  0
  161.3150  207.6670  155.2450 C   0  0  0  0  0  2  0  0  0  0  0  0
  160.4650  211.3240  155.7060 C   0  0  0  0  0  0  0  0  0  0  0  0
  161.5260  206.5450  150.5120 C   0  0  0  0  0  3  0  0  0  0  0  0
  161.0460  207.1390  152.8160 C   0  0  0  0  0  0  0  0  0  0  0  0
  161.6460  210.2300  150.7660 C   0  0  0  0  0  3  0  0  0  0  0  0
  160.2530  212.1930  156.7220 F   0  0  0  0  0  0  0  0  0  0  0  0
  161.6490  207.8850  150.1730 C   0  0  0  0  0  0  0  0  0  0  0  0
  161.9650  208.2250  148.8540 C   0  0  0  0  0  3  0  0  0  0  0  0
  160.6540  206.7550  154.2190 C   0  0  0  0  0  2  0  0  0  0  0  0
  160.9850  209.0900  154.9320 C   0  0  0  0  0  0  0  0  0  0  0  0
  160.7700  209.9900  155.9810 C   0  0  0  0  0  3  0  0  0  0  0  0
  161.1420  204.7350  152.0510 N   0  0  0  0  0  2  0  0  0  0  0  0
  161.8860  203.6840  151.3740 C   0  0  0  0  0  2  0  0  0  0  0  0
  160.7430  201.3900  150.5720 S   0  0  0  0  0  0  0  0  0  0  0  0
  161.0070  202.9990  150.3900 C   0  0  0  0  0  0  0  0  0  0  0  0
  160.6870  203.6820  149.1670 N   0  0  0  0  0  2  0  0  0  0  0  0
  161.1410  202.5560  147.0800 C   0  0  0  0  0  2  0  0  0  0  0  0
  161.3580  203.5770  147.9030 C   0  0  0  0  0  0  0  0  0  0  0  0
  162.1290  204.7510  147.3990 C   0  0  0  0  0  2  0  0  0  0  0  0
  161.6060  205.2070  146.0450 C   0  0  2  0  0  3  0  0  0  0  0  0
  162.6380  205.7860  145.3060 O   0  0  0  0  0  1  0  0  0  0  0  0
  160.5040  206.2260  146.2490 C   0  0  0  0  0  1  0  0  0  0  0  0
  1 14  1  0  0  0  0
  2 13  2  0  0  0  0
  2  3  1  0  0  0  0
  3 19  1  0  0  0  0
  4 11  2  0  0  0  0
  5  2  1  0  0  0  0
  6 17  1  0  0  0  0
  6  1  2  0  0  0  0
  7  3  2  0  0  0  0
  7  4  1  0  0  0  0
  8 21  1  0  0  0  0
  8 13  1  0  0  0  0
  9  1  1  0  0  0  0
 11 20  1  0  0  0  0
 11 15  1  0  0  0  0
 12  8  2  0  0  0  0
 13 18  1  0  0  0  0
 14  5  2  0  0  0  0
 16 12  1  0  0  0  0
 16  5  1  0  0  0  0
 17 16  2  0  0  0  0
 18 10  1  0  0  0  0
 19 10  1  0  0  0  0
 19 20  2  0  0  0  0
 22 21  1  0  0  0  0
 24 23  2  0  0  0  0
 24 22  1  0  0  0  0
 25 24  1  0  0  0  0
 26 27  2  0  0  0  0
 27 25  1  0  0  0  0
 28 27  1  0  0  0  0
 29 31  1  1  0  0  0
 29 28  1  0  0  0  0
 30 29  1  0  0  0  0
M  END
>  <MODEL>
4

>  <REMARK>
 VINA RESULT:      -8.7      2.438      4.372
  Name = 
  7 active torsions:
  status: ('A' for Active; 'I' for Inactive)
    1  A    between atoms: C_1  and  C_24
    2  A    between atoms: N_3  and  C_19
    3  A    between atoms: N_3  and  C_22
    4  A    between atoms: C_9  and  C_22
    5  A    between atoms: C_9  and  N_23
    6  A    between atoms: C_15  and  N_23
    7  A    between atoms: C_19  and  C_24
                            x       y       z     vdW  Elec       q    Type
                         _______ _______ _______ _____ _____    ______ ____

>  <TORSDO>
F 7

$$$$
=
 OpenBabel11052422343D

 31 34  0  0  1  0  0  0  0  0999 V2000
  161.2390  200.8160  148.5180 C   0  0  0  0  0  0  0  0  0  0  0  0
  161.1380  204.5640  148.3550 C   0  0  0  0  0  0  0  0  0  0  0  0
  161.2620  204.9010  146.8940 C   0  0  0  0  0  0  0  0  0  0  0  0
  161.0440  204.3360  144.5320 C   0  0  0  0  0  3  0  0  0  0  0  0
  161.1240  203.2310  148.8500 C   0  0  0  0  0  0  0  0  0  0  0  0
  161.0910  200.6080  149.8890 C   0  0  0  0  0  3  0  0  0  0  0  0
  160.9450  203.9810  145.8800 C   0  0  0  0  0  3  0  0  0  0  0  0
  160.9360  205.3870  150.6710 C   0  0  0  0  0  0  0  0  0  0  0  0
  161.4040  199.4480  147.4380 Cl  0  0  0  0  0  0  0  0  0  0  0  0
  161.9800  207.2170  147.5660 C   0  0  0  0  0  2  0  0  0  0  0  0
  161.4570  205.6210  144.1770 C   0  0  0  0  0  0  0  0  0  0  0  0
  160.8980  204.0710  151.1210 C   0  0  0  0  0  3  0  0  0  0  0  0
  161.0630  205.6440  149.2810 C   0  0  0  0  0  0  0  0  0  0  0  0
  161.2570  202.1150  148.0060 C   0  0  0  0  0  3  0  0  0  0  0  0
  161.5590  205.9640  142.8700 F   0  0  0  0  0  0  0  0  0  0  0  0
  160.9930  203.0020  150.2400 C   0  0  0  0  0  0  0  0  0  0  0  0
  160.9690  201.7000  150.7490 C   0  0  0  0  0  3  0  0  0  0  0  0
  161.0310  207.0530  148.7480 C   0  0  0  0  0  2  0  0  0  0  0  0
  161.6500  206.2050  146.5180 C   0  0  0  0  0  0  0  0  0  0  0  0
  161.7580  206.5560  145.1690 C   0  0  0  0  0  3  0  0  0  0  0  0
  160.8400  206.4110  151.6750 N   0  0  0  0  0  2  0  0  0  0  0  0
  161.3430  206.3510  153.0390 C   0  0  0  0  0  2  0  0  0  0  0  0
  160.9310  207.5810  155.3900 S   0  0  0  0  0  0  0  0  0  0  0  0
  161.0150  207.6140  153.7520 C   0  0  0  0  0  0  0  0  0  0  0  0
  160.4840  208.7100  152.9910 N   0  0  0  0  0  2  0  0  0  0  0  0
  162.2640  209.8820  151.8570 C   0  0  0  0  0  2  0  0  0  0  0  0
  161.1600  209.9130  152.5960 C   0  0  0  0  0  0  0  0  0  0  0  0
  160.4820  211.2240  152.8160 C   0  0  0  0  0  2  0  0  0  0  0  0
  160.5340  211.6270  154.2810 C   0  0  2  0  0  3  0  0  0  0  0  0
  161.6540  211.0610  154.8930 O   0  0  0  0  0  1  0  0  0  0  0  0
  159.2820  211.1420  154.9810 C   0  0  0  0  0  1  0  0  0  0  0  0
  1  6  1  0  0  0  0
  2  5  2  0  0  0  0
  2 13  1  0  0  0  0
  3  2  1  0  0  0  0
  4  7  1  0  0  0  0
  5 16  1  0  0  0  0
  6 17  2  0  0  0  0
  7  3  2  0  0  0  0
  8 12  1  0  0  0  0
  8 21  1  0  0  0  0
  9  1  1  0  0  0  0
 10 18  1  0  0  0  0
 11  4  2  0  0  0  0
 11 20  1  0  0  0  0
 13  8  2  0  0  0  0
 14  1  2  0  0  0  0
 14  5  1  0  0  0  0
 15 11  1  0  0  0  0
 16 17  1  0  0  0  0
 16 12  2  0  0  0  0
 18 13  1  0  0  0  0
 19  3  1  0  0  0  0
 19 10  1  0  0  0  0
 20 19  2  0  0  0  0
 21 22  1  0  0  0  0
 22 24  1  0  0  0  0
 24 23  2  0  0  0  0
 25 24  1  0  0  0  0
 26 27  2  0  0  0  0
 27 28  1  0  0  0  0
 27 25  1  0  0  0  0
 28 29  1  0  0  0  0
 29 30  1  0  0  0  0
 29 31  1  1  0  0  0
M  END
>  <MODEL>
5

>  <REMARK>
 VINA RESULT:      -8.7      4.383      7.608
  Name = 
  7 active torsions:
  status: ('A' for Active; 'I' for Inactive)
    1  A    between atoms: C_1  and  C_24
    2  A    between atoms: N_3  and  C_19
    3  A    between atoms: N_3  and  C_22
    4  A    between atoms: C_9  and  C_22
    5  A    between atoms: C_9  and  N_23
    6  A    between atoms: C_15  and  N_23
    7  A    between atoms: C_19  and  C_24
                            x       y       z     vdW  Elec       q    Type
                         _______ _______ _______ _____ _____    ______ ____

>  <TORSDO>
F 7

$$$$
=
 OpenBabel11052422343D

 31 34  0  0  1  0  0  0  0  0999 V2000
  161.2890  203.9860  149.7060 C   0  0  0  0  0  0  0  0  0  0  0  0
  161.3300  207.2160  151.6170 C   0  0  0  0  0  0  0  0  0  0  0  0
  161.5990  208.2810  150.5890 C   0  0  0  0  0  0  0  0  0  0  0  0
  161.5810  209.1080  148.2950 C   0  0  0  0  0  3  0  0  0  0  0  0
  161.2260  205.8330  151.2990 C   0  0  0  0  0  0  0  0  0  0  0  0
  161.0090  203.0790  150.7280 C   0  0  0  0  0  3  0  0  0  0  0  0
  161.3460  208.0870  149.2200 C   0  0  0  0  0  3  0  0  0  0  0  0
  160.9450  206.6620  153.9890 C   0  0  0  0  0  0  0  0  0  0  0  0
  161.5060  203.4160  148.0660 Cl  0  0  0  0  0  0  0  0  0  0  0  0
  162.3310  209.7960  152.4600 C   0  0  0  0  0  2  0  0  0  0  0  0
  162.0670  210.3430  148.7270 C   0  0  0  0  0  0  0  0  0  0  0  0
  160.8210  205.3200  153.6410 C   0  0  0  0  0  3  0  0  0  0  0  0
  161.2070  207.6220  152.9770 C   0  0  0  0  0  0  0  0  0  0  0  0
  161.3980  205.3480  149.9910 C   0  0  0  0  0  3  0  0  0  0  0  0
  162.3010  211.3310  147.8300 F   0  0  0  0  0  0  0  0  0  0  0  0
  160.9600  204.8970  152.3260 C   0  0  0  0  0  0  0  0  0  0  0  0
  160.8460  203.5340  152.0360 C   0  0  0  0  0  3  0  0  0  0  0  0
  161.2730  209.0920  153.3010 C   0  0  0  0  0  2  0  0  0  0  0  0
  162.0640  209.5440  151.0120 C   0  0  0  0  0  0  0  0  0  0  0  0
  162.3080  210.5620  150.0840 C   0  0  0  0  0  3  0  0  0  0  0  0
  160.7910  206.9810  155.3820 N   0  0  0  0  0  2  0  0  0  0  0  0
  159.7180  207.7510  155.9910 C   0  0  0  0  0  2  0  0  0  0  0  0
  161.7230  209.0460  157.2230 S   0  0  0  0  0  0  0  0  0  0  0  0
  160.2520  209.0440  156.4970 C   0  0  0  0  0  0  0  0  0  0  0  0
  159.3500  210.1560  156.6160 N   0  0  0  0  0  2  0  0  0  0  0  0
  160.2310  212.2210  155.7270 C   0  0  0  0  0  2  0  0  0  0  0  0
  159.2640  211.3100  155.7670 C   0  0  0  0  0  0  0  0  0  0  0  0
  158.1860  211.3650  154.7380 C   0  0  0  0  0  2  0  0  0  0  0  0
  158.5210  212.3730  153.6480 C   0  0  2  0  0  3  0  0  0  0  0  0
  157.4010  213.1520  153.3580 O   0  0  0  0  0  1  0  0  0  0  0  0
  158.9560  211.6360  152.3990 C   0  0  0  0  0  1  0  0  0  0  0  0
  1 14  2  0  0  0  0
  1  6  1  0  0  0  0
  2 13  1  0  0  0  0
  3 19  1  0  0  0  0
  3  2  1  0  0  0  0
  4 11  2  0  0  0  0
  4  7  1  0  0  0  0
  5  2  2  0  0  0  0
  5 16  1  0  0  0  0
  6 17  2  0  0  0  0
  7  3  2  0  0  0  0
  8 21  1  0  0  0  0
  9  1  1  0  0  0  0
 10 18  1  0  0  0  0
 11 20  1  0  0  0  0
 12  8  1  0  0  0  0
 13 18  1  0  0  0  0
 13  8  2  0  0  0  0
 14  5  1  0  0  0  0
 15 11  1  0  0  0  0
 16 12  2  0  0  0  0
 17 16  1  0  0  0  0
 19 10  1  0  0  0  0
 20 19  2  0  0  0  0
 21 22  1  0  0  0  0
 22 24  1  0  0  0  0
 24 25  1  0  0  0  0
 24 23  2  0  0  0  0
 26 27  2  0  0  0  0
 27 25  1  0  0  0  0
 28 27  1  0  0  0  0
 29 31  1  6  0  0  0
 29 28  1  0  0  0  0
 30 29  1  0  0  0  0
M  END
>  <MODEL>
6

>  <REMARK>
 VINA RESULT:      -8.3      4.491      7.367
  Name = 
  7 active torsions:
  status: ('A' for Active; 'I' for Inactive)
    1  A    between atoms: C_1  and  C_24
    2  A    between atoms: N_3  and  C_19
    3  A    between atoms: N_3  and  C_22
    4  A    between atoms: C_9  and  C_22
    5  A    between atoms: C_9  and  N_23
    6  A    between atoms: C_15  and  N_23
    7  A    between atoms: C_19  and  C_24
                            x       y       z     vdW  Elec       q    Type
                         _______ _______ _______ _____ _____    ______ ____

>  <TORSDO>
F 7

$$$$
=
 OpenBabel11052422343D

 31 34  0  0  1  0  0  0  0  0999 V2000
  160.9890  202.3030  150.9050 C   0  0  0  0  0  0  0  0  0  0  0  0
  161.3690  205.7670  149.5130 C   0  0  0  0  0  0  0  0  0  0  0  0
  161.4900  205.5850  148.0250 C   0  0  0  0  0  0  0  0  0  0  0  0
  161.1270  204.3100  145.9790 C   0  0  0  0  0  3  0  0  0  0  0  0
  161.1980  204.6850  150.4210 C   0  0  0  0  0  0  0  0  0  0  0  0
  160.8580  202.5780  152.2660 C   0  0  0  0  0  3  0  0  0  0  0  0
  161.0250  204.4340  147.3670 C   0  0  0  0  0  3  0  0  0  0  0  0
  161.3490  207.3250  151.4250 C   0  0  0  0  0  0  0  0  0  0  0  0
  160.9410  200.6470  150.3400 Cl  0  0  0  0  0  0  0  0  0  0  0  0
  162.5230  207.8770  147.9050 C   0  0  0  0  0  2  0  0  0  0  0  0
  161.6920  205.3400  145.2250 C   0  0  0  0  0  0  0  0  0  0  0  0
  161.1540  206.2470  152.2840 C   0  0  0  0  0  3  0  0  0  0  0  0
  161.4640  207.0910  150.0300 C   0  0  0  0  0  0  0  0  0  0  0  0
  161.1590  203.3460  149.9940 C   0  0  0  0  0  3  0  0  0  0  0  0
  161.7960  205.2170  143.8800 F   0  0  0  0  0  0  0  0  0  0  0  0
  161.0820  204.9450  151.8060 C   0  0  0  0  0  0  0  0  0  0  0  0
  160.9060  203.8980  152.7160 C   0  0  0  0  0  3  0  0  0  0  0  0
  161.5990  208.2380  149.0610 C   0  0  0  0  0  2  0  0  0  0  0  0
  162.0320  206.6300  147.2450 C   0  0  0  0  0  0  0  0  0  0  0  0
  162.1430  206.5000  145.8570 C   0  0  0  0  0  3  0  0  0  0  0  0
  161.4180  208.6250  152.0340 N   0  0  0  0  0  2  0  0  0  0  0  0
  160.3140  209.5460  152.2590 C   0  0  0  0  0  2  0  0  0  0  0  0
  160.0630  212.0560  153.1820 S   0  0  0  0  0  0  0  0  0  0  0  0
  160.6980  210.5470  153.2910 C   0  0  0  0  0  0  0  0  0  0  0  0
  161.8250  210.2610  154.1340 N   0  0  0  0  0  2  0  0  0  0  0  0
  162.8600  210.7000  156.2720 C   0  0  0  0  0  2  0  0  0  0  0  0
  161.8520  210.1940  155.5680 C   0  0  0  0  0  0  0  0  0  0  0  0
  160.6190  209.7660  156.2910 C   0  0  0  0  0  2  0  0  0  0  0  0
  160.7130  208.3080  156.7140 C   0  0  2  0  0  3  0  0  0  0  0  0
  162.0210  207.8490  156.5590 O   0  0  0  0  0  1  0  0  0  0  0  0
  159.7850  207.4740  155.8560 C   0  0  0  0  0  1  0  0  0  0  0  0
  1  6  1  0  0  0  0
  2 13  2  0  0  0  0
  2  5  1  0  0  0  0
  3  2  1  0  0  0  0
  4  7  2  0  0  0  0
  5 16  2  0  0  0  0
  6 17  2  0  0  0  0
  7  3  1  0  0  0  0
  8 21  1  0  0  0  0
  8 12  2  0  0  0  0
  9  1  1  0  0  0  0
 10 18  1  0  0  0  0
 11 20  2  0  0  0  0
 11  4  1  0  0  0  0
 13  8  1  0  0  0  0
 14  5  1  0  0  0  0
 14  1  2  0  0  0  0
 15 11  1  0  0  0  0
 16 12  1  0  0  0  0
 16 17  1  0  0  0  0
 18 13  1  0  0  0  0
 19 10  1  0  0  0  0
 19  3  2  0  0  0  0
 20 19  1  0  0  0  0
 21 22  1  0  0  0  0
 22 24  1  0  0  0  0
 23 24  2  0  0  0  0
 24 25  1  0  0  0  0
 25 27  1  0  0  0  0
 27 26  2  0  0  0  0
 27 28  1  0  0  0  0
 28 29  1  0  0  0  0
 29 31  1  6  0  0  0
 30 29  1  0  0  0  0
M  END
>  <MODEL>
7

>  <REMARK>
 VINA RESULT:      -8.3      4.545      7.726
  Name = 
  7 active torsions:
  status: ('A' for Active; 'I' for Inactive)
    1  A    between atoms: C_1  and  C_24
    2  A    between atoms: N_3  and  C_19
    3  A    between atoms: N_3  and  C_22
    4  A    between atoms: C_9  and  C_22
    5  A    between atoms: C_9  and  N_23
    6  A    between atoms: C_15  and  N_23
    7  A    between atoms: C_19  and  C_24
                            x       y       z     vdW  Elec       q    Type
                         _______ _______ _______ _____ _____    ______ ____

>  <TORSDO>
F 7

$$$$
=
 OpenBabel11052422343D

 31 34  0  0  1  0  0  0  0  0999 V2000
  161.9570  210.5450  149.0350 C   0  0  0  0  0  0  0  0  0  0  0  0
  161.5910  207.0340  150.3090 C   0  0  0  0  0  0  0  0  0  0  0  0
  161.6470  206.1610  149.0850 C   0  0  0  0  0  0  0  0  0  0  0  0
  162.2930  205.7400  146.7720 C   0  0  0  0  0  3  0  0  0  0  0  0
  161.7040  208.4510  150.2620 C   0  0  0  0  0  0  0  0  0  0  0  0
  161.9210  211.2640  150.2290 C   0  0  0  0  0  3  0  0  0  0  0  0
  162.2320  206.5880  147.8810 C   0  0  0  0  0  3  0  0  0  0  0  0
  161.3290  207.1730  152.7570 C   0  0  0  0  0  0  0  0  0  0  0  0
  162.1380  211.3880  147.5120 Cl  0  0  0  0  0  0  0  0  0  0  0  0
  160.5380  204.3420  150.4250 C   0  0  0  0  0  2  0  0  0  0  0  0
  161.7740  204.4470  146.8520 C   0  0  0  0  0  0  0  0  0  0  0  0
  161.4700  208.5550  152.6800 C   0  0  0  0  0  3  0  0  0  0  0  0
  161.3820  206.4000  151.5680 C   0  0  0  0  0  0  0  0  0  0  0  0
  161.8470  209.1530  149.0530 C   0  0  0  0  0  3  0  0  0  0  0  0
  161.8280  203.6270  145.7750 F   0  0  0  0  0  0  0  0  0  0  0  0
  161.6510  209.1970  151.4630 C   0  0  0  0  0  0  0  0  0  0  0  0
  161.7670  210.5910  151.4410 C   0  0  0  0  0  3  0  0  0  0  0  0
  161.3100  204.8960  151.6170 C   0  0  0  0  0  2  0  0  0  0  0  0
  161.1540  204.8400  149.1590 C   0  0  0  0  0  0  0  0  0  0  0  0
  161.2060  203.9960  148.0440 C   0  0  0  0  0  3  0  0  0  0  0  0
  161.1370  206.6200  154.0700 N   0  0  0  0  0  2  0  0  0  0  0  0
  160.0810  206.9530  155.0140 C   0  0  0  0  0  2  0  0  0  0  0  0
  161.6410  208.0780  156.8890 S   0  0  0  0  0  0  0  0  0  0  0  0
  160.4500  208.1820  155.7660 C   0  0  0  0  0  0  0  0  0  0  0  0
  159.5590  209.3080  155.7130 N   0  0  0  0  0  2  0  0  0  0  0  0
  160.9770  211.1740  155.1290 C   0  0  0  0  0  2  0  0  0  0  0  0
  159.7890  210.5800  155.0870 C   0  0  0  0  0  0  0  0  0  0  0  0
  158.7470  211.1280  154.1710 C   0  0  0  0  0  2  0  0  0  0  0  0
  159.1790  212.4660  153.5910 C   0  0  2  0  0  3  0  0  0  0  0  0
  158.5800  213.5090  154.2990 O   0  0  0  0  0  1  0  0  0  0  0  0
  158.7600  212.5420  152.1380 C   0  0  0  0  0  1  0  0  0  0  0  0
  1 14  2  0  0  0  0
  1  6  1  0  0  0  0
  2 13  1  0  0  0  0
  3 19  1  0  0  0  0
  3  2  1  0  0  0  0
  4 11  2  0  0  0  0
  4  7  1  0  0  0  0
  5  2  2  0  0  0  0
  5 16  1  0  0  0  0
  6 17  2  0  0  0  0
  7  3  2  0  0  0  0
  8 21  1  0  0  0  0
  9  1  1  0  0  0  0
 10 18  1  0  0  0  0
 11 20  1  0  0  0  0
 12  8  1  0  0  0  0
 13 18  1  0  0  0  0
 13  8  2  0  0  0  0
 14  5  1  0  0  0  0
 15 11  1  0  0  0  0
 16 12  2  0  0  0  0
 17 16  1  0  0  0  0
 19 10  1  0  0  0  0
 20 19  2  0  0  0  0
 21 22  1  0  0  0  0
 22 24  1  0  0  0  0
 24 23  2  0  0  0  0
 25 24  1  0  0  0  0
 27 26  2  0  0  0  0
 27 25  1  0  0  0  0
 28 27  1  0  0  0  0
 29 31  1  6  0  0  0
 29 28  1  0  0  0  0
 29 30  1  0  0  0  0
M  END
>  <MODEL>
8

>  <REMARK>
 VINA RESULT:      -8.2      4.414      7.387
  Name = 
  7 active torsions:
  status: ('A' for Active; 'I' for Inactive)
    1  A    between atoms: C_1  and  C_24
    2  A    between atoms: N_3  and  C_19
    3  A    between atoms: N_3  and  C_22
    4  A    between atoms: C_9  and  C_22
    5  A    between atoms: C_9  and  N_23
    6  A    between atoms: C_15  and  N_23
    7  A    between atoms: C_19  and  C_24
                            x       y       z     vdW  Elec       q    Type
                         _______ _______ _______ _____ _____    ______ ____

>  <TORSDO>
F 7

$$$$
=
 OpenBabel11052422343D

 31 34  0  0  1  0  0  0  0  0999 V2000
  161.0380  204.3280  152.2640 C   0  0  0  0  0  0  0  0  0  0  0  0
  161.3490  205.5380  148.7250 C   0  0  0  0  0  0  0  0  0  0  0  0
  161.2110  204.3070  147.8710 C   0  0  0  0  0  0  0  0  0  0  0  0
  160.4500  202.0190  147.5050 C   0  0  0  0  0  3  0  0  0  0  0  0
  161.2800  205.5150  150.1460 C   0  0  0  0  0  0  0  0  0  0  0  0
  161.1500  205.5290  152.9640 C   0  0  0  0  0  3  0  0  0  0  0  0
  160.5870  203.1360  148.3340 C   0  0  0  0  0  3  0  0  0  0  0  0
  161.7240  207.9730  148.8200 C   0  0  0  0  0  0  0  0  0  0  0  0
  160.8160  202.8250  153.1340 Cl  0  0  0  0  0  0  0  0  0  0  0  0
  162.3200  205.5710  146.0000 C   0  0  0  0  0  2  0  0  0  0  0  0
  160.9300  202.0590  146.1950 C   0  0  0  0  0  0  0  0  0  0  0  0
  161.6240  207.9210  150.2070 C   0  0  0  0  0  3  0  0  0  0  0  0
  161.5940  206.7770  148.0670 C   0  0  0  0  0  0  0  0  0  0  0  0
  161.1050  204.3220  150.8690 C   0  0  0  0  0  3  0  0  0  0  0  0
  160.8020  200.9750  145.3930 F   0  0  0  0  0  0  0  0  0  0  0  0
  161.4090  206.7210  150.8720 C   0  0  0  0  0  0  0  0  0  0  0  0
  161.3370  206.7230  152.2680 C   0  0  0  0  0  3  0  0  0  0  0  0
  161.6210  206.8040  146.5600 C   0  0  0  0  0  2  0  0  0  0  0  0
  161.6650  204.3400  146.5350 C   0  0  0  0  0  0  0  0  0  0  0  0
  161.5360  203.2190  145.7100 C   0  0  0  0  0  3  0  0  0  0  0  0
  161.9570  209.2690  148.2420 N   0  0  0  0  0  2  0  0  0  0  0  0
  162.0910  210.5330  148.9510 C   0  0  0  0  0  2  0  0  0  0  0  0
  163.0820  212.8350  147.9860 S   0  0  0  0  0  0  0  0  0  0  0  0
  161.9340  211.6630  147.9970 C   0  0  0  0  0  0  0  0  0  0  0  0
  160.6590  211.8500  147.3620 N   0  0  0  0  0  2  0  0  0  0  0  0
  159.4320  213.6180  148.4580 C   0  0  0  0  0  2  0  0  0  0  0  0
  159.8570  213.0400  147.3390 C   0  0  0  0  0  0  0  0  0  0  0  0
  159.7000  213.7750  146.0500 C   0  0  0  0  0  2  0  0  0  0  0  0
  158.6760  213.0940  145.1540 C   0  0  2  0  0  3  0  0  0  0  0  0
  158.1870  214.0010  144.2130 O   0  0  0  0  0  1  0  0  0  0  0  0
  157.5290  212.5830  146.0000 C   0  0  0  0  0  1  0  0  0  0  0  0
  1  6  1  0  0  0  0
  1  9  1  0  0  0  0
  2  5  1  0  0  0  0
  3  7  1  0  0  0  0
  3  2  1  0  0  0  0
  4  7  2  0  0  0  0
  5 14  1  0  0  0  0
  5 16  2  0  0  0  0
  8 12  2  0  0  0  0
 10 19  1  0  0  0  0
 10 18  1  0  0  0  0
 11  4  1  0  0  0  0
 12 16  1  0  0  0  0
 13  2  2  0  0  0  0
 13  8  1  0  0  0  0
 14  1  2  0  0  0  0
 15 11  1  0  0  0  0
 16 17  1  0  0  0  0
 17  6  2  0  0  0  0
 18 13  1  0  0  0  0
 19  3  2  0  0  0  0
 20 11  2  0  0  0  0
 20 19  1  0  0  0  0
 21  8  1  0  0  0  0
 21 22  1  0  0  0  0
 23 24  2  0  0  0  0
 24 22  1  0  0  0  0
 25 24  1  0  0  0  0
 27 25  1  0  0  0  0
 27 26  2  0  0  0  0
 28 27  1  0  0  0  0
 29 31  1  1  0  0  0
 29 28  1  0  0  0  0
 30 29  1  0  0  0  0
M  END
>  <MODEL>
9

>  <REMARK>
 VINA RESULT:      -7.9      4.639      7.223
  Name = 
  7 active torsions:
  status: ('A' for Active; 'I' for Inactive)
    1  A    between atoms: C_1  and  C_24
    2  A    between atoms: N_3  and  C_19
    3  A    between atoms: N_3  and  C_22
    4  A    between atoms: C_9  and  C_22
    5  A    between atoms: C_9  and  N_23
    6  A    between atoms: C_15  and  N_23
    7  A    between atoms: C_19  and  C_24
                            x       y       z     vdW  Elec       q    Type
                         _______ _______ _______ _____ _____    ______ ____

>  <TORSDO>
F 7

$$$$
