=
 OpenBabel11062410563D

 32 36  0  0  1  0  0  0  0  0999 V2000
  161.9600  208.4240  150.9920 C   0  0  0  0  0  0  0  0  0  0  0  0
  161.2220  211.4400  154.1250 C   0  0  1  0  0  3  0  0  0  0  0  0
  158.9740  212.5340  154.2650 C   0  0  0  0  0  0  0  0  0  0  0  0
  157.6490  212.6600  154.9010 C   0  0  0  0  0  0  0  0  0  0  0  0
  159.7280  209.7420  152.8580 C   0  0  0  0  0  2  0  0  0  0  0  0
  163.1200  209.9340  154.3150 N   0  0  0  0  0  2  0  0  0  0  0  0
  155.1820  212.8710  156.1320 N   0  0  0  0  0  0  0  0  0  0  0  0
  162.8320  208.7230  152.1970 C   0  0  0  0  0  2  0  0  0  0  0  0
  162.4380  211.0430  154.9760 C   0  0  2  0  0  3  0  0  0  0  0  0
  162.1810  210.7050  156.4510 C   0  0  2  0  0  3  0  0  0  0  0  0
  159.7500  211.2460  156.2520 C   0  0  2  0  0  3  0  0  0  0  0  0
  155.4640  213.6700  155.0670 C   0  0  0  0  0  3  0  0  0  0  0  0
  160.6250  208.2430  151.0470 C   0  0  0  0  0  3  0  0  0  0  0  0
  162.1430  209.3210  153.4250 C   0  0  2  0  0  3  0  0  0  0  0  0
  156.7030  213.5770  154.4310 C   0  0  0  0  0  3  0  0  0  0  0  0
  159.7860  208.3200  152.2860 C   0  0  0  0  0  2  0  0  0  0  0  0
  160.7670  210.2040  156.7250 C   0  0  1  0  0  3  0  0  0  0  0  0
  158.3010  210.8100  156.4920 C   0  0  0  0  0  2  0  0  0  0  0  0
  161.1170  210.3700  153.0460 C   0  0  2  0  0  3  0  0  0  0  0  0
  159.2280  213.1640  153.2010 O   0  0  0  0  0  0  0  0  0  0  0  0
  156.0840  211.9700  156.6060 C   0  0  0  0  0  3  0  0  0  0  0  0
  159.9660  211.6790  154.8610 N   0  0  0  0  0  0  0  0  0  0  0  0
  157.3400  211.8530  156.0090 C   0  0  0  0  0  0  0  0  0  0  0  0
  163.8490  211.9140  157.2610 C   0  0  0  0  0  1  0  0  0  0  0  0
  162.4560  211.8210  157.2450 O   0  0  0  0  0  0  0  0  0  0  0  0
  160.4330  207.7800  157.2270 C   0  0  0  0  0  1  0  0  0  0  0  0
  160.5510  208.8160  156.1270 C   0  0  0  0  0  2  0  0  0  0  0  0
  162.6270  208.3170  149.7660 O   0  0  0  0  0  0  0  0  0  0  0  0
  161.9610  208.3470  148.5080 C   0  0  0  0  0  2  0  0  0  0  0  0
  161.8380  206.9620  147.9750 C   0  0  0  0  0  0  0  0  0  0  0  0
  160.8140  206.0350  148.5350 C   0  0  0  0  0  1  0  0  0  0  0  0
  162.5980  206.5720  147.1040 O   0  0  0  0  0  0  0  0  0  0  0  0
  1 13  2  0  0  0  0
  1  8  1  0  0  0  0
  2 22  1  1  0  0  0
  2  9  1  0  0  0  0
  3 22  1  0  0  0  0
  3  4  1  0  0  0  0
  4 23  1  0  0  0  0
  7 21  1  0  0  0  0
  9  6  1  6  0  0  0
  9 10  1  0  0  0  0
 10 17  1  0  0  0  0
 10 25  1  1  0  0  0
 11 18  1  6  0  0  0
 11 17  1  0  0  0  0
 12  7  2  0  0  0  0
 13 16  1  0  0  0  0
 14  8  1  6  0  0  0
 14  6  1  0  0  0  0
 15  4  2  0  0  0  0
 15 12  1  0  0  0  0
 16  5  1  0  0  0  0
 17 27  1  6  0  0  0
 19  5  1  1  0  0  0
 19 14  1  0  0  0  0
 19  2  1  0  0  0  0
 20  3  2  0  0  0  0
 22 11  1  0  0  0  0
 23 18  1  0  0  0  0
 23 21  2  0  0  0  0
 25 24  1  0  0  0  0
 27 26  1  0  0  0  0
 28  1  1  0  0  0  0
 29 28  1  0  0  0  0
 30 29  1  0  0  0  0
 30 31  1  0  0  0  0
 32 30  2  0  0  0  0
M  END
>  <MODEL>
1

>  <REMARK>
 VINA RESULT:       0.3      0.000      0.000
  Name = 
  5 active torsions:
  status: ('A' for Active; 'I' for Inactive)
    1  A    between atoms: C_1  and  C_10
    2  A    between atoms: C_2  and  O_24
    3  A    between atoms: C_10  and  O_24
    4  A    between atoms: O_13  and  C_15
    5  A    between atoms: C_25  and  C_26
                            x       y       z     vdW  Elec       q    Type
                         _______ _______ _______ _____ _____    ______ ____

>  <TORSDO>
F 5

$$$$
=
 OpenBabel11062410563D

 32 36  0  0  1  0  0  0  0  0999 V2000
  161.3820  205.1950  151.7450 C   0  0  0  0  0  0  0  0  0  0  0  0
  162.2790  209.4310  152.5900 C   0  0  1  0  0  3  0  0  0  0  0  0
  161.9830  211.1300  150.7730 C   0  0  0  0  0  0  0  0  0  0  0  0
  161.1990  212.2120  150.1480 C   0  0  0  0  0  0  0  0  0  0  0  0
  160.6520  208.2100  150.9830 C   0  0  0  0  0  2  0  0  0  0  0  0
  161.9560  207.8710  154.4250 N   0  0  0  0  0  2  0  0  0  0  0  0
  159.7050  214.2440  149.0160 N   0  0  0  0  0  0  0  0  0  0  0  0
  161.6170  205.8270  153.1040 C   0  0  0  0  0  2  0  0  0  0  0  0
  162.2590  209.2650  154.1170 C   0  0  2  0  0  3  0  0  0  0  0  0
  161.3330  210.1970  154.9110 C   0  0  2  0  0  3  0  0  0  0  0  0
  160.6330  211.4190  152.8470 C   0  0  2  0  0  3  0  0  0  0  0  0
  160.8600  213.8520  148.4120 C   0  0  0  0  0  3  0  0  0  0  0  0
  160.5600  205.7010  150.8040 C   0  0  0  0  0  3  0  0  0  0  0  0
  161.3080  207.3190  153.2430 C   0  0  2  0  0  3  0  0  0  0  0  0
  161.6270  212.8270  148.9660 C   0  0  0  0  0  3  0  0  0  0  0  0
  159.7610  206.9630  150.9330 C   0  0  0  0  0  2  0  0  0  0  0  0
  160.1400  210.7020  154.1080 C   0  0  1  0  0  3  0  0  0  0  0  0
  159.4850  211.9540  151.9840 C   0  0  0  0  0  2  0  0  0  0  0  0
  161.7680  208.1080  152.0330 C   0  0  2  0  0  3  0  0  0  0  0  0
  162.9900  210.6530  150.1800 O   0  0  0  0  0  0  0  0  0  0  0  0
  159.2660  213.6600  150.1630 C   0  0  0  0  0  3  0  0  0  0  0  0
  161.5820  210.6180  152.0570 N   0  0  0  0  0  0  0  0  0  0  0  0
  160.0100  212.6400  150.7600 C   0  0  0  0  0  0  0  0  0  0  0  0
  163.0140  210.7040  156.2610 C   0  0  0  0  0  1  0  0  0  0  0  0
  162.0680  211.2780  155.4090 O   0  0  0  0  0  0  0  0  0  0  0  0
  158.6480  208.9790  155.1280 C   0  0  0  0  0  1  0  0  0  0  0  0
  159.1500  209.5750  153.8290 C   0  0  0  0  0  2  0  0  0  0  0  0
  162.0680  204.0000  151.4990 O   0  0  0  0  0  0  0  0  0  0  0  0
  161.4740  202.7140  151.6410 C   0  0  0  0  0  2  0  0  0  0  0  0
  161.2060  202.1380  150.2930 C   0  0  0  0  0  0  0  0  0  0  0  0
  160.8970  203.0370  149.1460 C   0  0  0  0  0  1  0  0  0  0  0  0
  161.2030  200.9280  150.1360 O   0  0  0  0  0  0  0  0  0  0  0  0
  1  8  1  0  0  0  0
  2 22  1  1  0  0  0
  2  9  1  0  0  0  0
  3 22  1  0  0  0  0
  4 23  1  0  0  0  0
  4  3  1  0  0  0  0
  7 21  1  0  0  0  0
  9  6  1  6  0  0  0
  9 10  1  0  0  0  0
 10 25  1  6  0  0  0
 11 18  1  6  0  0  0
 11 17  1  0  0  0  0
 12 15  1  0  0  0  0
 12  7  2  0  0  0  0
 13 16  1  0  0  0  0
 13  1  2  0  0  0  0
 14  8  1  6  0  0  0
 14  6  1  0  0  0  0
 15  4  2  0  0  0  0
 16  5  1  0  0  0  0
 17 27  1  6  0  0  0
 17 10  1  0  0  0  0
 19  5  1  6  0  0  0
 19  2  1  0  0  0  0
 19 14  1  0  0  0  0
 20  3  2  0  0  0  0
 21 23  2  0  0  0  0
 22 11  1  0  0  0  0
 23 18  1  0  0  0  0
 25 24  1  0  0  0  0
 27 26  1  0  0  0  0
 28 29  1  0  0  0  0
 28  1  1  0  0  0  0
 30 29  1  0  0  0  0
 31 30  1  0  0  0  0
 32 30  2  0  0  0  0
M  END
>  <MODEL>
2

>  <REMARK>
 VINA RESULT:       0.6      3.212      4.587
  Name = 
  5 active torsions:
  status: ('A' for Active; 'I' for Inactive)
    1  A    between atoms: C_1  and  C_10
    2  A    between atoms: C_2  and  O_24
    3  A    between atoms: C_10  and  O_24
    4  A    between atoms: O_13  and  C_15
    5  A    between atoms: C_25  and  C_26
                            x       y       z     vdW  Elec       q    Type
                         _______ _______ _______ _____ _____    ______ ____

>  <TORSDO>
F 5

$$$$
=
 OpenBabel11062410563D

 32 36  0  0  1  0  0  0  0  0999 V2000
  161.7370  211.2700  150.3320 C   0  0  0  0  0  0  0  0  0  0  0  0
  161.1510  211.6180  154.6900 C   0  0  1  0  0  3  0  0  0  0  0  0
  159.1600  212.8630  155.5610 C   0  0  0  0  0  0  0  0  0  0  0  0
  157.8070  212.8620  156.1480 C   0  0  0  0  0  0  0  0  0  0  0  0
  159.5560  211.5600  152.6470 C   0  0  0  0  0  2  0  0  0  0  0  0
  162.6750  209.9470  153.8010 N   0  0  0  0  0  2  0  0  0  0  0  0
  155.2760  212.8140  157.2600 N   0  0  0  0  0  0  0  0  0  0  0  0
  162.4680  210.5020  151.4170 C   0  0  0  0  0  2  0  0  0  0  0  0
  162.1320  210.4900  155.0420 C   0  0  2  0  0  3  0  0  0  0  0  0
  161.6050  209.3560  155.9320 C   0  0  2  0  0  3  0  0  0  0  0  0
  159.3780  210.4610  156.1880 C   0  0  2  0  0  3  0  0  0  0  0  0
  155.8570  214.0120  156.9820 C   0  0  0  0  0  3  0  0  0  0  0  0
  160.3980  211.4240  150.2790 C   0  0  0  0  0  3  0  0  0  0  0  0
  161.7380  210.3100  152.7480 C   0  0  2  0  0  3  0  0  0  0  0  0
  157.1330  214.0580  156.4180 C   0  0  0  0  0  3  0  0  0  0  0  0
  159.4200  210.8830  151.2780 C   0  0  0  0  0  2  0  0  0  0  0  0
  160.0960  209.1550  155.8350 C   0  0  1  0  0  3  0  0  0  0  0  0
  157.8530  210.3370  156.1090 C   0  0  0  0  0  2  0  0  0  0  0  0
  160.9990  211.5620  153.1750 C   0  0  2  0  0  3  0  0  0  0  0  0
  159.6810  213.9440  155.1730 O   0  0  0  0  0  0  0  0  0  0  0  0
  155.9080  211.6370  157.0040 C   0  0  0  0  0  3  0  0  0  0  0  0
  159.8720  211.6190  155.4250 N   0  0  0  0  0  0  0  0  0  0  0  0
  157.1910  211.6360  156.4530 C   0  0  0  0  0  0  0  0  0  0  0  0
  163.0560  210.4670  157.1820 C   0  0  0  0  0  1  0  0  0  0  0  0
  161.9720  209.5890  157.2600 O   0  0  0  0  0  0  0  0  0  0  0  0
  160.4750  207.3090  154.1960 C   0  0  0  0  0  1  0  0  0  0  0  0
  159.7050  208.5840  154.4750 C   0  0  0  0  0  2  0  0  0  0  0  0
  162.5400  211.8220  149.3270 O   0  0  0  0  0  0  0  0  0  0  0  0
  162.1200  211.9570  147.9740 C   0  0  0  0  0  2  0  0  0  0  0  0
  162.4730  213.3150  147.4740 C   0  0  0  0  0  0  0  0  0  0  0  0
  162.2640  213.6580  146.0390 C   0  0  0  0  0  1  0  0  0  0  0  0
  162.9670  214.1350  148.2300 O   0  0  0  0  0  0  0  0  0  0  0  0
  1  8  1  0  0  0  0
  2  9  1  0  0  0  0
  2 22  1  1  0  0  0
  3  4  1  0  0  0  0
  4 15  2  0  0  0  0
  4 23  1  0  0  0  0
  9  6  1  6  0  0  0
  9 10  1  0  0  0  0
 10 25  1  1  0  0  0
 11 18  1  6  0  0  0
 12  7  2  0  0  0  0
 13  1  2  0  0  0  0
 13 16  1  0  0  0  0
 14  8  1  6  0  0  0
 14 19  1  0  0  0  0
 14  6  1  0  0  0  0
 15 12  1  0  0  0  0
 16  5  1  0  0  0  0
 17 27  1  6  0  0  0
 17 10  1  0  0  0  0
 17 11  1  0  0  0  0
 18 23  1  0  0  0  0
 19  5  1  1  0  0  0
 19  2  1  0  0  0  0
 20  3  2  0  0  0  0
 21  7  1  0  0  0  0
 22  3  1  0  0  0  0
 22 11  1  0  0  0  0
 23 21  2  0  0  0  0
 24 25  1  0  0  0  0
 26 27  1  0  0  0  0
 28  1  1  0  0  0  0
 29 28  1  0  0  0  0
 30 29  1  0  0  0  0
 30 32  2  0  0  0  0
 31 30  1  0  0  0  0
M  END
>  <MODEL>
3

>  <REMARK>
 VINA RESULT:       0.8      2.442      2.937
  Name = 
  5 active torsions:
  status: ('A' for Active; 'I' for Inactive)
    1  A    between atoms: C_1  and  C_10
    2  A    between atoms: C_2  and  O_24
    3  A    between atoms: C_10  and  O_24
    4  A    between atoms: O_13  and  C_15
    5  A    between atoms: C_25  and  C_26
                            x       y       z     vdW  Elec       q    Type
                         _______ _______ _______ _____ _____    ______ ____

>  <TORSDO>
F 5

$$$$
=
 OpenBabel11062410563D

 32 36  0  0  1  0  0  0  0  0999 V2000
  164.1030  212.7210  157.1850 C   0  0  0  0  0  0  0  0  0  0  0  0
  160.9840  211.0270  154.5660 C   0  0  1  0  0  3  0  0  0  0  0  0
  161.5630  209.1180  153.0510 C   0  0  0  0  0  0  0  0  0  0  0  0
  161.5320  207.6760  152.7400 C   0  0  0  0  0  0  0  0  0  0  0  0
  163.1070  210.0710  155.7070 C   0  0  0  0  0  2  0  0  0  0  0  0
  160.3560  212.4240  156.4520 N   0  0  0  0  0  2  0  0  0  0  0  0
  161.4420  204.9680  152.1890 N   0  0  0  0  0  0  0  0  0  0  0  0
  162.6110  212.9800  157.2550 C   0  0  0  0  0  2  0  0  0  0  0  0
  159.8140  211.6630  155.3310 C   0  0  2  0  0  3  0  0  0  0  0  0
  158.7010  210.7230  155.8170 C   0  0  2  0  0  3  0  0  0  0  0  0
  159.7780  208.7380  154.7480 C   0  0  2  0  0  3  0  0  0  0  0  0
  162.0800  205.8020  151.3240 C   0  0  0  0  0  3  0  0  0  0  0  0
  164.6580  211.4960  157.0840 C   0  0  0  0  0  3  0  0  0  0  0  0
  161.6860  211.8900  156.7090 C   0  0  2  0  0  3  0  0  0  0  0  0
  162.1390  207.1710  151.5850 C   0  0  0  0  0  3  0  0  0  0  0  0
  163.9040  210.2020  157.0100 C   0  0  0  0  0  2  0  0  0  0  0  0
  159.1680  209.2890  156.0400 C   0  0  1  0  0  3  0  0  0  0  0  0
  160.2740  207.2960  154.8960 C   0  0  0  0  0  2  0  0  0  0  0  0
  162.2170  211.2900  155.4220 C   0  0  2  0  0  3  0  0  0  0  0  0
  162.2500  209.9050  152.3430 O   0  0  0  0  0  0  0  0  0  0  0  0
  160.8470  205.4340  153.3210 C   0  0  0  0  0  3  0  0  0  0  0  0
  160.8130  209.6150  154.1750 N   0  0  0  0  0  0  0  0  0  0  0  0
  160.8700  206.7990  153.6140 C   0  0  0  0  0  0  0  0  0  0  0  0
  156.4900  210.6860  155.7050 C   0  0  0  0  0  1  0  0  0  0  0  0
  157.6370  210.7450  154.9110 O   0  0  0  0  0  0  0  0  0  0  0  0
  160.9720  207.9640  157.1470 C   0  0  0  0  0  1  0  0  0  0  0  0
  160.0950  209.1950  157.2490 C   0  0  0  0  0  2  0  0  0  0  0  0
  164.9240  213.8520  157.2530 O   0  0  0  0  0  0  0  0  0  0  0  0
  166.3420  213.7980  157.1350 C   0  0  0  0  0  2  0  0  0  0  0  0
  166.7170  213.5570  155.7140 C   0  0  0  0  0  0  0  0  0  0  0  0
  167.3250  212.2570  155.3140 C   0  0  0  0  0  1  0  0  0  0  0  0
  166.5590  214.4350  154.8820 O   0  0  0  0  0  0  0  0  0  0  0  0
  1 28  1  0  0  0  0
  1  8  1  0  0  0  0
  2 22  1  1  0  0  0
  2  9  1  0  0  0  0
  2 19  1  0  0  0  0
  3 22  1  0  0  0  0
  4  3  1  0  0  0  0
  4 23  1  0  0  0  0
  5 16  1  0  0  0  0
  6 14  1  0  0  0  0
  7 21  1  0  0  0  0
  9 10  1  0  0  0  0
  9  6  1  1  0  0  0
 10 25  1  6  0  0  0
 10 17  1  0  0  0  0
 11 18  1  1  0  0  0
 11 17  1  0  0  0  0
 12 15  1  0  0  0  0
 12  7  2  0  0  0  0
 13  1  2  0  0  0  0
 14  8  1  6  0  0  0
 15  4  2  0  0  0  0
 16 13  1  0  0  0  0
 17 27  1  1  0  0  0
 19  5  1  1  0  0  0
 19 14  1  0  0  0  0
 20  3  2  0  0  0  0
 21 23  2  0  0  0  0
 22 11  1  0  0  0  0
 23 18  1  0  0  0  0
 25 24  1  0  0  0  0
 26 27  1  0  0  0  0
 29 28  1  0  0  0  0
 30 29  1  0  0  0  0
 31 30  1  0  0  0  0
 32 30  2  0  0  0  0
M  END
>  <MODEL>
4

>  <REMARK>
 VINA RESULT:       1.0      2.486      6.958
  Name = 
  5 active torsions:
  status: ('A' for Active; 'I' for Inactive)
    1  A    between atoms: C_1  and  C_10
    2  A    between atoms: C_2  and  O_24
    3  A    between atoms: C_10  and  O_24
    4  A    between atoms: O_13  and  C_15
    5  A    between atoms: C_25  and  C_26
                            x       y       z     vdW  Elec       q    Type
                         _______ _______ _______ _____ _____    ______ ____

>  <TORSDO>
F 5

$$$$
=
 OpenBabel11062410563D

 32 36  0  0  1  0  0  0  0  0999 V2000
  161.3470  204.5840  151.3270 C   0  0  0  0  0  0  0  0  0  0  0  0
  162.2210  208.6640  152.7590 C   0  0  1  0  0  3  0  0  0  0  0  0
  161.7410  210.6140  151.2630 C   0  0  0  0  0  0  0  0  0  0  0  0
  160.8860  211.7530  150.8800 C   0  0  0  0  0  0  0  0  0  0  0  0
  160.4930  207.6530  151.1110 C   0  0  0  0  0  2  0  0  0  0  0  0
  162.0840  206.8260  154.3430 N   0  0  0  0  0  2  0  0  0  0  0  0
  159.2610  213.8860  150.2040 N   0  0  0  0  0  0  0  0  0  0  0  0
  161.6800  205.0030  152.7460 C   0  0  0  0  0  2  0  0  0  0  0  0
  162.3310  208.2600  154.2370 C   0  0  2  0  0  3  0  0  0  0  0  0
  161.4550  209.0260  155.2390 C   0  0  2  0  0  3  0  0  0  0  0  0
  160.5600  210.5300  153.4560 C   0  0  2  0  0  3  0  0  0  0  0  0
  160.3700  213.6320  149.4570 C   0  0  0  0  0  3  0  0  0  0  0  0
  160.4400  205.2020  150.5450 C   0  0  0  0  0  3  0  0  0  0  0  0
  161.3520  206.4440  153.1430 C   0  0  2  0  0  3  0  0  0  0  0  0
  161.2020  212.5590  149.7810 C   0  0  0  0  0  3  0  0  0  0  0  0
  159.6280  206.4000  150.9340 C   0  0  0  0  0  2  0  0  0  0  0  0
  160.1890  209.6090  154.6210 C   0  0  1  0  0  3  0  0  0  0  0  0
  159.3350  211.1540  152.7810 C   0  0  0  0  0  2  0  0  0  0  0  0
  161.6940  207.4270  152.0410 C   0  0  2  0  0  3  0  0  0  0  0  0
  162.7050  210.2690  150.5250 O   0  0  0  0  0  0  0  0  0  0  0  0
  158.9310  213.1150  151.2750 C   0  0  0  0  0  3  0  0  0  0  0  0
  161.4580  209.8940  152.4770 N   0  0  0  0  0  0  0  0  0  0  0  0
  159.7420  212.0400  151.6430 C   0  0  0  0  0  0  0  0  0  0  0  0
  162.3800  209.6160  157.1620 C   0  0  0  0  0  1  0  0  0  0  0  0
  162.2040  210.0390  155.8420 O   0  0  0  0  0  0  0  0  0  0  0  0
  158.9530  207.5950  155.4300 C   0  0  0  0  0  1  0  0  0  0  0  0
  159.2030  208.5060  154.2460 C   0  0  0  0  0  2  0  0  0  0  0  0
  162.0360  203.4650  150.8430 O   0  0  0  0  0  0  0  0  0  0  0  0
  161.4710  202.1590  150.7950 C   0  0  0  0  0  2  0  0  0  0  0  0
  160.7400  201.9780  149.5100 C   0  0  0  0  0  0  0  0  0  0  0  0
  161.2460  202.6240  148.2660 C   0  0  0  0  0  1  0  0  0  0  0  0
  159.7070  201.3300  149.4810 O   0  0  0  0  0  0  0  0  0  0  0  0
  1  8  1  0  0  0  0
  2 22  1  1  0  0  0
  2  9  1  0  0  0  0
  3 22  1  0  0  0  0
  4  3  1  0  0  0  0
  4 23  1  0  0  0  0
  7 21  1  0  0  0  0
  9  6  1  6  0  0  0
  9 10  1  0  0  0  0
 10 25  1  6  0  0  0
 11 18  1  6  0  0  0
 11 17  1  0  0  0  0
 12 15  1  0  0  0  0
 12  7  2  0  0  0  0
 13 16  1  0  0  0  0
 13  1  2  0  0  0  0
 14  8  1  6  0  0  0
 14  6  1  0  0  0  0
 15  4  2  0  0  0  0
 16  5  1  0  0  0  0
 17 27  1  6  0  0  0
 17 10  1  0  0  0  0
 19  5  1  1  0  0  0
 19  2  1  0  0  0  0
 19 14  1  0  0  0  0
 20  3  2  0  0  0  0
 21 23  2  0  0  0  0
 22 11  1  0  0  0  0
 23 18  1  0  0  0  0
 25 24  1  0  0  0  0
 27 26  1  0  0  0  0
 28  1  1  0  0  0  0
 29 28  1  0  0  0  0
 30 29  1  0  0  0  0
 31 30  1  0  0  0  0
 32 30  2  0  0  0  0
M  END
>  <MODEL>
5

>  <REMARK>
 VINA RESULT:       1.1      3.063      4.369
  Name = 
  5 active torsions:
  status: ('A' for Active; 'I' for Inactive)
    1  A    between atoms: C_1  and  C_10
    2  A    between atoms: C_2  and  O_24
    3  A    between atoms: C_10  and  O_24
    4  A    between atoms: O_13  and  C_15
    5  A    between atoms: C_25  and  C_26
                            x       y       z     vdW  Elec       q    Type
                         _______ _______ _______ _____ _____    ______ ____

>  <TORSDO>
F 5

$$$$
=
 OpenBabel11062410563D

 32 36  0  0  1  0  0  0  0  0999 V2000
  161.1450  205.2070  152.9730 C   0  0  0  0  0  0  0  0  0  0  0  0
  159.9810  209.4130  152.3250 C   0  0  1  0  0  3  0  0  0  0  0  0
  158.5020  210.5450  153.9990 C   0  0  0  0  0  0  0  0  0  0  0  0
  158.3300  211.4690  155.1360 C   0  0  0  0  0  0  0  0  0  0  0  0
  160.3310  207.9330  154.4250 C   0  0  0  0  0  2  0  0  0  0  0  0
  161.8590  208.4720  151.1020 N   0  0  0  0  0  2  0  0  0  0  0  0
  158.0490  213.2200  157.2580 N   0  0  0  0  0  0  0  0  0  0  0  0
  161.7380  206.1750  151.9670 C   0  0  0  0  0  2  0  0  0  0  0  0
  161.0730  209.6890  151.2810 C   0  0  2  0  0  3  0  0  0  0  0  0
  161.9990  210.8870  151.5360 C   0  0  2  0  0  3  0  0  0  0  0  0
  160.7580  211.5290  153.6070 C   0  0  2  0  0  3  0  0  0  0  0  0
  156.9510  212.5720  156.7800 C   0  0  0  0  0  3  0  0  0  0  0  0
  160.9380  205.4950  154.2740 C   0  0  0  0  0  3  0  0  0  0  0  0
  161.6490  207.6670  152.2970 C   0  0  2  0  0  3  0  0  0  0  0  0
  157.0720  211.6820  155.7120 C   0  0  0  0  0  3  0  0  0  0  0  0
  161.2390  206.8070  154.9340 C   0  0  0  0  0  2  0  0  0  0  0  0
  162.1400  211.2460  153.0110 C   0  0  1  0  0  3  0  0  0  0  0  0
  160.8180  211.8950  155.0940 C   0  0  0  0  0  2  0  0  0  0  0  0
  160.3040  208.0360  152.8930 C   0  0  2  0  0  3  0  0  0  0  0  0
  157.5360  209.8320  153.6100 O   0  0  0  0  0  0  0  0  0  0  0  0
  159.2820  213.0260  156.7170 C   0  0  0  0  0  3  0  0  0  0  0  0
  159.7830  210.4550  153.3490 N   0  0  0  0  0  0  0  0  0  0  0  0
  159.4470  212.1560  155.6380 C   0  0  0  0  0  0  0  0  0  0  0  0
  161.8450  211.6990  149.4830 C   0  0  0  0  0  1  0  0  0  0  0  0
  161.5470  211.9950  150.8140 O   0  0  0  0  0  0  0  0  0  0  0  0
  163.4090  210.7160  155.0960 C   0  0  0  0  0  1  0  0  0  0  0  0
  162.9290  210.1770  153.7640 C   0  0  0  0  0  2  0  0  0  0  0  0
  160.8250  203.9360  152.4820 O   0  0  0  0  0  0  0  0  0  0  0  0
  161.6280  203.2370  151.5380 C   0  0  0  0  0  2  0  0  0  0  0  0
  160.8440  203.0000  150.2930 C   0  0  0  0  0  0  0  0  0  0  0  0
  160.5220  201.6090  149.8680 C   0  0  0  0  0  1  0  0  0  0  0  0
  160.4950  203.9440  149.6030 O   0  0  0  0  0  0  0  0  0  0  0  0
  1 13  2  0  0  0  0
  2 19  1  0  0  0  0
  2 22  1  1  0  0  0
  3  4  1  0  0  0  0
  4 23  2  0  0  0  0
  4 15  1  0  0  0  0
  5 16  1  0  0  0  0
  6 14  1  0  0  0  0
  8  1  1  0  0  0  0
  9  6  1  1  0  0  0
  9 10  1  0  0  0  0
  9  2  1  0  0  0  0
 10 25  1  6  0  0  0
 10 17  1  0  0  0  0
 11 18  1  1  0  0  0
 12  7  1  0  0  0  0
 13 16  1  0  0  0  0
 14  8  1  6  0  0  0
 14 19  1  0  0  0  0
 15 12  2  0  0  0  0
 17 11  1  0  0  0  0
 17 27  1  1  0  0  0
 18 23  1  0  0  0  0
 19  5  1  1  0  0  0
 20  3  2  0  0  0  0
 21  7  2  0  0  0  0
 22 11  1  0  0  0  0
 22  3  1  0  0  0  0
 23 21  1  0  0  0  0
 24 25  1  0  0  0  0
 27 26  1  0  0  0  0
 28  1  1  0  0  0  0
 29 28  1  0  0  0  0
 30 29  1  0  0  0  0
 31 30  1  0  0  0  0
 32 30  2  0  0  0  0
M  END
>  <MODEL>
6

>  <REMARK>
 VINA RESULT:       1.3      2.697      3.941
  Name = 
  5 active torsions:
  status: ('A' for Active; 'I' for Inactive)
    1  A    between atoms: C_1  and  C_10
    2  A    between atoms: C_2  and  O_24
    3  A    between atoms: C_10  and  O_24
    4  A    between atoms: O_13  and  C_15
    5  A    between atoms: C_25  and  C_26
                            x       y       z     vdW  Elec       q    Type
                         _______ _______ _______ _____ _____    ______ ____

>  <TORSDO>
F 5

$$$$
=
 OpenBabel11062410563D

 32 36  0  0  1  0  0  0  0  0999 V2000
  160.9730  210.1650  152.5930 C   0  0  0  0  0  0  0  0  0  0  0  0
  160.0830  206.3360  150.5900 C   0  0  1  0  0  3  0  0  0  0  0  0
  160.2350  206.1970  148.0940 C   0  0  0  0  0  0  0  0  0  0  0  0
  160.9620  205.7890  146.8770 C   0  0  0  0  0  0  0  0  0  0  0  0
  161.6140  208.3560  150.0400 C   0  0  0  0  0  2  0  0  0  0  0  0
  160.5480  206.3780  152.9760 N   0  0  0  0  0  2  0  0  0  0  0  0
  162.3510  204.9970  144.6220 N   0  0  0  0  0  0  0  0  0  0  0  0
  160.8220  208.8050  153.2470 C   0  0  0  0  0  2  0  0  0  0  0  0
  160.2080  205.4910  151.8670 C   0  0  2  0  0  3  0  0  0  0  0  0
  161.1730  204.2980  151.8260 C   0  0  2  0  0  3  0  0  0  0  0  0
  161.7180  204.6970  149.4210 C   0  0  2  0  0  3  0  0  0  0  0  0
  161.1640  205.6450  144.4780 C   0  0  0  0  0  3  0  0  0  0  0  0
  161.7240  210.4030  151.4980 C   0  0  0  0  0  3  0  0  0  0  0  0
  161.1220  207.5780  152.3820 C   0  0  2  0  0  3  0  0  0  0  0  0
  160.4480  206.0550  145.6030 C   0  0  0  0  0  3  0  0  0  0  0  0
  162.5140  209.3770  150.7440 C   0  0  0  0  0  2  0  0  0  0  0  0
  162.3030  204.4620  150.8170 C   0  0  1  0  0  3  0  0  0  0  0  0
  162.7990  204.8740  148.3490 C   0  0  0  0  0  2  0  0  0  0  0  0
  160.5720  207.7270  150.9770 C   0  0  2  0  0  3  0  0  0  0  0  0
  159.1970  206.9090  148.0040 O   0  0  0  0  0  0  0  0  0  0  0  0
  162.8740  204.7300  145.8500 C   0  0  0  0  0  3  0  0  0  0  0  0
  160.7280  205.7860  149.3830 N   0  0  0  0  0  0  0  0  0  0  0  0
  162.1850  205.1100  147.0030 C   0  0  0  0  0  0  0  0  0  0  0  0
  161.4130  202.1070  151.6270 C   0  0  0  0  0  1  0  0  0  0  0  0
  160.4600  203.1250  151.5630 O   0  0  0  0  0  0  0  0  0  0  0  0
  163.5270  205.4500  152.7560 C   0  0  0  0  0  1  0  0  0  0  0  0
  163.2860  205.5400  151.2630 C   0  0  0  0  0  2  0  0  0  0  0  0
  160.2870  211.2180  153.2080 O   0  0  0  0  0  0  0  0  0  0  0  0
  158.9040  211.4800  152.9970 C   0  0  0  0  0  2  0  0  0  0  0  0
  158.1860  211.4580  154.3030 C   0  0  0  0  0  0  0  0  0  0  0  0
  158.9480  211.2680  155.5690 C   0  0  0  0  0  1  0  0  0  0  0  0
  156.9710  211.5600  154.3340 O   0  0  0  0  0  0  0  0  0  0  0  0
  1 28  1  0  0  0  0
  1  8  1  0  0  0  0
  2 22  1  6  0  0  0
  2 19  1  0  0  0  0
  2  9  1  0  0  0  0
  3 22  1  0  0  0  0
  4 23  1  0  0  0  0
  4  3  1  0  0  0  0
  5 16  1  0  0  0  0
  7 21  1  0  0  0  0
  9  6  1  1  0  0  0
 10 25  1  6  0  0  0
 10  9  1  0  0  0  0
 11 18  1  6  0  0  0
 11 17  1  0  0  0  0
 12  7  2  0  0  0  0
 12 15  1  0  0  0  0
 13  1  2  0  0  0  0
 14  6  1  0  0  0  0
 14  8  1  1  0  0  0
 15  4  2  0  0  0  0
 16 13  1  0  0  0  0
 17 27  1  1  0  0  0
 17 10  1  0  0  0  0
 19  5  1  6  0  0  0
 19 14  1  0  0  0  0
 20  3  2  0  0  0  0
 21 23  2  0  0  0  0
 22 11  1  0  0  0  0
 23 18  1  0  0  0  0
 25 24  1  0  0  0  0
 27 26  1  0  0  0  0
 29 28  1  0  0  0  0
 29 30  1  0  0  0  0
 30 32  2  0  0  0  0
 30 31  1  0  0  0  0
M  END
>  <MODEL>
7

>  <REMARK>
 VINA RESULT:       1.3      3.524      8.779
  Name = 
  5 active torsions:
  status: ('A' for Active; 'I' for Inactive)
    1  A    between atoms: C_1  and  C_10
    2  A    between atoms: C_2  and  O_24
    3  A    between atoms: C_10  and  O_24
    4  A    between atoms: O_13  and  C_15
    5  A    between atoms: C_25  and  C_26
                            x       y       z     vdW  Elec       q    Type
                         _______ _______ _______ _____ _____    ______ ____

>  <TORSDO>
F 5

$$$$
=
 OpenBabel11062410563D

 32 36  0  0  1  0  0  0  0  0999 V2000
  161.4590  207.4120  153.3650 C   0  0  0  0  0  0  0  0  0  0  0  0
  159.8550  204.8700  150.1360 C   0  0  1  0  0  3  0  0  0  0  0  0
  160.2130  205.5490  147.7520 C   0  0  0  0  0  0  0  0  0  0  0  0
  160.9330  205.4000  146.4740 C   0  0  0  0  0  0  0  0  0  0  0  0
  161.8820  206.4730  150.3420 C   0  0  0  0  0  2  0  0  0  0  0  0
  160.0790  203.9770  152.3860 N   0  0  0  0  0  2  0  0  0  0  0  0
  162.3000  205.0800  144.0910 N   0  0  0  0  0  0  0  0  0  0  0  0
  160.9140  206.0030  153.4960 C   0  0  0  0  0  2  0  0  0  0  0  0
  159.6420  203.6410  151.0340 C   0  0  2  0  0  3  0  0  0  0  0  0
  160.2820  202.3220  150.5810 C   0  0  2  0  0  3  0  0  0  0  0  0
  161.1430  203.3520  148.4730 C   0  0  2  0  0  3  0  0  0  0  0  0
  161.3290  206.0290  144.1780 C   0  0  0  0  0  3  0  0  0  0  0  0
  162.3500  207.7990  152.4290 C   0  0  0  0  0  3  0  0  0  0  0  0
  160.9860  205.1090  152.2560 C   0  0  2  0  0  3  0  0  0  0  0  0
  160.6290  206.2080  145.3730 C   0  0  0  0  0  3  0  0  0  0  0  0
  162.9330  206.9180  151.3660 C   0  0  0  0  0  2  0  0  0  0  0  0
  161.5120  202.5120  149.6990 C   0  0  1  0  0  3  0  0  0  0  0  0
  162.3340  203.5890  147.5380 C   0  0  0  0  0  2  0  0  0  0  0  0
  160.6310  205.8650  150.9910 C   0  0  2  0  0  3  0  0  0  0  0  0
  159.3960  206.4970  147.9130 O   0  0  0  0  0  0  0  0  0  0  0  0
  162.6170  204.2840  145.1490 C   0  0  0  0  0  3  0  0  0  0  0  0
  160.4600  204.6110  148.8160 N   0  0  0  0  0  0  0  0  0  0  0  0
  161.9320  204.4200  146.3580 C   0  0  0  0  0  0  0  0  0  0  0  0
  160.0440  200.9020  148.8990 C   0  0  0  0  0  1  0  0  0  0  0  0
  159.3330  201.5410  149.9160 O   0  0  0  0  0  0  0  0  0  0  0  0
  162.9420  202.2180  151.7250 C   0  0  0  0  0  1  0  0  0  0  0  0
  162.6820  203.0740  150.5030 C   0  0  0  0  0  2  0  0  0  0  0  0
  160.9960  208.3370  154.3080 O   0  0  0  0  0  0  0  0  0  0  0  0
  161.2160  208.2030  155.7090 C   0  0  0  0  0  2  0  0  0  0  0  0
  161.9670  209.3870  156.2120 C   0  0  0  0  0  0  0  0  0  0  0  0
  161.9980  210.6440  155.4130 C   0  0  0  0  0  1  0  0  0  0  0  0
  162.5860  209.3180  157.2610 O   0  0  0  0  0  0  0  0  0  0  0  0
  1  8  1  0  0  0  0
  1 28  1  0  0  0  0
  2 22  1  6  0  0  0
  2 19  1  0  0  0  0
  2  9  1  0  0  0  0
  3 20  2  0  0  0  0
  3 22  1  0  0  0  0
  4  3  1  0  0  0  0
  5 16  1  0  0  0  0
  7 12  2  0  0  0  0
  7 21  1  0  0  0  0
  9  6  1  1  0  0  0
 10 25  1  6  0  0  0
 10  9  1  0  0  0  0
 11 18  1  1  0  0  0
 11 22  1  0  0  0  0
 11 17  1  0  0  0  0
 12 15  1  0  0  0  0
 13  1  2  0  0  0  0
 14  6  1  0  0  0  0
 14  8  1  1  0  0  0
 15  4  2  0  0  0  0
 16 13  1  0  0  0  0
 17 27  1  1  0  0  0
 17 10  1  0  0  0  0
 19  5  1  6  0  0  0
 19 14  1  0  0  0  0
 21 23  2  0  0  0  0
 23  4  1  0  0  0  0
 23 18  1  0  0  0  0
 24 25  1  0  0  0  0
 27 26  1  0  0  0  0
 28 29  1  0  0  0  0
 29 30  1  0  0  0  0
 30 32  2  0  0  0  0
 31 30  1  0  0  0  0
M  END
>  <MODEL>
8

>  <REMARK>
 VINA RESULT:       2.4      4.209      9.735
  Name = 
  5 active torsions:
  status: ('A' for Active; 'I' for Inactive)
    1  A    between atoms: C_1  and  C_10
    2  A    between atoms: C_2  and  O_24
    3  A    between atoms: C_10  and  O_24
    4  A    between atoms: O_13  and  C_15
    5  A    between atoms: C_25  and  C_26
                            x       y       z     vdW  Elec       q    Type
                         _______ _______ _______ _____ _____    ______ ____

>  <TORSDO>
F 5

$$$$
