=
 OpenBabel11052422113D

 25 28  0  0  1  0  0  0  0  0999 V2000
  161.4680  205.3440  149.2880 C   0  0  0  0  0  0  0  0  0  0  0  0
  161.3500  206.3540  150.2460 C   0  0  0  0  0  0  0  0  0  0  0  0
  161.6000  206.9840  147.5410 C   0  0  0  0  0  3  0  0  0  0  0  0
  161.4860  203.8780  149.5160 C   0  0  2  0  0  3  0  0  0  0  0  0
  160.6020  201.2080  148.8270 C   0  0  0  0  0  2  0  0  0  0  0  0
  161.4870  207.9710  148.4750 N   0  0  0  0  0  0  0  0  0  0  0  0
  161.7750  203.2990  148.1030 C   0  0  1  0  0  3  0  0  0  0  0  0
  160.8040  202.1950  147.6800 C   0  0  0  0  0  2  0  0  0  0  0  0
  161.2240  208.8180  150.8080 C   0  0  2  0  0  3  0  0  0  0  0  0
  161.9940  209.9800  150.3960 N   0  0  0  0  0  1  0  0  0  0  0  0
  161.2340  206.0480  151.6390 N   0  0  0  0  0  2  0  0  0  0  0  0
  160.0550  201.8810  150.0950 C   0  0  0  0  0  2  0  0  0  0  0  0
  161.6000  205.6560  147.9600 C   0  0  0  0  0  0  0  0  0  0  0  0
  161.7260  204.4600  147.1000 C   0  0  0  0  0  2  0  0  0  0  0  0
  161.6630  208.3970  152.2110 C   0  0  0  0  0  2  0  0  0  0  0  0
  160.1360  203.4100  150.0640 C   0  0  0  0  0  2  0  0  0  0  0  0
  160.9660  207.0980  152.6160 C   0  0  2  0  0  3  0  0  0  0  0  0
  161.3850  207.6960  149.8110 C   0  0  0  0  0  0  0  0  0  0  0  0
  161.3740  206.6540  154.0150 C   0  0  0  0  0  2  0  0  0  0  0  0
  160.4660  207.2400  155.0890 C   0  0  0  0  0  2  0  0  0  0  0  0
  160.8510  209.6830  155.7040 N   0  0  0  0  0  0  0  0  0  0  0  0
  159.8030  210.1070  154.7890 C   0  0  0  0  0  1  0  0  0  0  0  0
  161.5510  210.7020  156.4670 C   0  0  0  0  0  1  0  0  0  0  0  0
  161.1970  208.2970  155.8490 C   0  0  0  0  0  0  0  0  0  0  0  0
  162.1120  207.9510  156.6440 O   0  0  0  0  0  0  0  0  0  0  0  0
  1  4  1  0  0  0  0
  1  2  1  0  0  0  0
  2 11  1  0  0  0  0
  3 13  1  0  0  0  0
  3  6  2  0  0  0  0
  4 16  1  6  0  0  0
  5 12  1  0  0  0  0
  6 18  1  0  0  0  0
  7 14  1  6  0  0  0
  7  4  1  0  0  0  0
  8  7  1  0  0  0  0
  8  5  1  0  0  0  0
  9 10  1  6  0  0  0
  9 15  1  0  0  0  0
 11 17  1  0  0  0  0
 13  1  2  0  0  0  0
 14 13  1  0  0  0  0
 15 17  1  0  0  0  0
 16 12  1  0  0  0  0
 17 19  1  1  0  0  0
 18  2  2  0  0  0  0
 18  9  1  0  0  0  0
 19 20  1  0  0  0  0
 20 24  1  0  0  0  0
 21 24  1  0  0  0  0
 21 23  1  0  0  0  0
 22 21  1  0  0  0  0
 24 25  2  0  0  0  0
M  END
>  <MODEL>
1

>  <REMARK>
 VINA RESULT:      -8.9      0.000      0.000
  Name = 
  3 active torsions:
  status: ('A' for Active; 'I' for Inactive)
    1  A    between atoms: C_6  and  C_15
    2  A    between atoms: C_6  and  C_23
    3  A    between atoms: C_15  and  C_21
                            x       y       z     vdW  Elec       q    Type
                         _______ _______ _______ _____ _____    ______ ____

>  <TORSDO>
F 3

$$$$
=
 OpenBabel11052422113D

 25 28  0  0  1  0  0  0  0  0999 V2000
  161.0200  205.9010  150.7590 C   0  0  0  0  0  0  0  0  0  0  0  0
  161.1060  206.9010  151.7320 C   0  0  0  0  0  0  0  0  0  0  0  0
  161.1180  204.2080  152.4570 C   0  0  0  0  0  3  0  0  0  0  0  0
  160.9090  206.0750  149.2900 C   0  0  2  0  0  3  0  0  0  0  0  0
  161.7150  205.3680  146.6000 C   0  0  0  0  0  2  0  0  0  0  0  0
  161.2010  205.1820  153.4070 N   0  0  0  0  0  0  0  0  0  0  0  0
  160.7120  204.6230  148.7710 C   0  0  1  0  0  3  0  0  0  0  0  0
  161.6600  204.2430  147.6310 C   0  0  0  0  0  2  0  0  0  0  0  0
  161.3070  207.5580  154.1670 C   0  0  2  0  0  3  0  0  0  0  0  0
  160.6340  207.1240  155.3800 N   0  0  0  0  0  1  0  0  0  0  0  0
  161.0880  208.2860  151.3770 N   0  0  0  0  0  2  0  0  0  0  0  0
  162.1840  206.7000  147.2040 C   0  0  0  0  0  2  0  0  0  0  0  0
  161.0160  204.5790  151.1180 C   0  0  0  0  0  0  0  0  0  0  0  0
  160.9040  203.6700  149.9580 C   0  0  0  0  0  2  0  0  0  0  0  0
  160.7300  208.9040  153.7270 C   0  0  0  0  0  2  0  0  0  0  0  0
  162.1830  206.7170  148.7350 C   0  0  0  0  0  2  0  0  0  0  0  0
  161.3250  209.3190  152.3810 C   0  0  2  0  0  3  0  0  0  0  0  0
  161.1750  206.5110  153.0860 C   0  0  0  0  0  0  0  0  0  0  0  0
  160.7780  210.6630  151.9150 C   0  0  0  0  0  2  0  0  0  0  0  0
  160.3250  211.5320  153.0810 C   0  0  0  0  0  2  0  0  0  0  0  0
  158.0950  212.7640  153.1230 N   0  0  0  0  0  0  0  0  0  0  0  0
  157.5800  211.8560  154.1360 C   0  0  0  0  0  1  0  0  0  0  0  0
  157.2280  213.8320  152.6550 C   0  0  0  0  0  1  0  0  0  0  0  0
  159.4190  212.6100  152.5880 C   0  0  0  0  0  0  0  0  0  0  0  0
  159.8430  213.4050  151.7070 O   0  0  0  0  0  0  0  0  0  0  0  0
  1 13  2  0  0  0  0
  1  2  1  0  0  0  0
  2 18  2  0  0  0  0
  3  6  2  0  0  0  0
  4 16  1  6  0  0  0
  4  1  1  0  0  0  0
  5 12  1  0  0  0  0
  5  8  1  0  0  0  0
  7  8  1  6  0  0  0
  7  4  1  0  0  0  0
  7 14  1  0  0  0  0
  9 10  1  1  0  0  0
 11  2  1  0  0  0  0
 11 17  1  0  0  0  0
 12 16  1  0  0  0  0
 13  3  1  0  0  0  0
 14 13  1  0  0  0  0
 15  9  1  0  0  0  0
 17 19  1  6  0  0  0
 17 15  1  0  0  0  0
 18  6  1  0  0  0  0
 18  9  1  0  0  0  0
 19 20  1  0  0  0  0
 21 22  1  0  0  0  0
 23 21  1  0  0  0  0
 24 20  1  0  0  0  0
 24 21  1  0  0  0  0
 25 24  2  0  0  0  0
M  END
>  <MODEL>
2

>  <REMARK>
 VINA RESULT:      -8.8      2.664      4.309
  Name = 
  3 active torsions:
  status: ('A' for Active; 'I' for Inactive)
    1  A    between atoms: C_6  and  C_15
    2  A    between atoms: C_6  and  C_23
    3  A    between atoms: C_15  and  C_21
                            x       y       z     vdW  Elec       q    Type
                         _______ _______ _______ _____ _____    ______ ____

>  <TORSDO>
F 3

$$$$
=
 OpenBabel11052422113D

 25 28  0  0  1  0  0  0  0  0999 V2000
  161.0090  204.5920  149.8170 C   0  0  0  0  0  0  0  0  0  0  0  0
  161.3340  205.8340  150.3690 C   0  0  0  0  0  0  0  0  0  0  0  0
  160.9650  203.6030  152.0020 C   0  0  0  0  0  3  0  0  0  0  0  0
  160.8110  204.2640  148.3830 C   0  0  2  0  0  3  0  0  0  0  0  0
  161.2750  202.5370  146.1050 C   0  0  0  0  0  2  0  0  0  0  0  0
  161.2810  204.8140  152.5440 N   0  0  0  0  0  0  0  0  0  0  0  0
  160.3410  202.7830  148.4160 C   0  0  1  0  0  3  0  0  0  0  0  0
  161.1200  201.8680  147.4690 C   0  0  0  0  0  2  0  0  0  0  0  0
  161.8320  207.2450  152.4100 C   0  0  2  0  0  3  0  0  0  0  0  0
  161.1960  207.3870  153.7080 N   0  0  0  0  0  1  0  0  0  0  0  0
  161.5130  206.9900  149.5460 N   0  0  0  0  0  2  0  0  0  0  0  0
  162.0010  203.8880  146.1890 C   0  0  0  0  0  2  0  0  0  0  0  0
  160.8190  203.4990  150.6210 C   0  0  0  0  0  0  0  0  0  0  0  0
  160.4690  202.2810  149.8610 C   0  0  0  0  0  2  0  0  0  0  0  0
  161.4480  208.4360  151.5300 C   0  0  0  0  0  2  0  0  0  0  0  0
  162.1240  204.4330  147.6150 C   0  0  0  0  0  2  0  0  0  0  0  0
  161.9940  208.2450  150.1150 C   0  0  2  0  0  3  0  0  0  0  0  0
  161.4460  205.9310  151.7730 C   0  0  0  0  0  0  0  0  0  0  0  0
  161.6380  209.4200  149.2120 C   0  0  0  0  0  2  0  0  0  0  0  0
  161.9530  210.7600  149.8650 C   0  0  0  0  0  2  0  0  0  0  0  0
  161.1940  212.9890  148.8900 N   0  0  0  0  0  0  0  0  0  0  0  0
  160.2160  213.1530  149.9530 C   0  0  0  0  0  1  0  0  0  0  0  0
  161.2970  214.0330  147.8850 C   0  0  0  0  0  1  0  0  0  0  0  0
  162.0330  211.8260  148.8230 C   0  0  0  0  0  0  0  0  0  0  0  0
  162.8710  211.7010  147.8900 O   0  0  0  0  0  0  0  0  0  0  0  0
  1  2  2  0  0  0  0
  1 13  1  0  0  0  0
  2 18  1  0  0  0  0
  3  6  1  0  0  0  0
  4 16  1  6  0  0  0
  4  7  1  0  0  0  0
  4  1  1  0  0  0  0
  5 12  1  0  0  0  0
  5  8  1  0  0  0  0
  7  8  1  6  0  0  0
  7 14  1  0  0  0  0
  9 10  1  1  0  0  0
 11 17  1  0  0  0  0
 11  2  1  0  0  0  0
 12 16  1  0  0  0  0
 13  3  2  0  0  0  0
 14 13  1  0  0  0  0
 15  9  1  0  0  0  0
 17 19  1  6  0  0  0
 17 15  1  0  0  0  0
 18  9  1  0  0  0  0
 18  6  2  0  0  0  0
 19 20  1  0  0  0  0
 21 22  1  0  0  0  0
 23 21  1  0  0  0  0
 24 21  1  0  0  0  0
 24 20  1  0  0  0  0
 25 24  2  0  0  0  0
M  END
>  <MODEL>
3

>  <REMARK>
 VINA RESULT:      -8.7      2.904      4.821
  Name = 
  3 active torsions:
  status: ('A' for Active; 'I' for Inactive)
    1  A    between atoms: C_6  and  C_15
    2  A    between atoms: C_6  and  C_23
    3  A    between atoms: C_15  and  C_21
                            x       y       z     vdW  Elec       q    Type
                         _______ _______ _______ _____ _____    ______ ____

>  <TORSDO>
F 3

$$$$
=
 OpenBabel11052422113D

 25 28  0  0  1  0  0  0  0  0999 V2000
  161.2630  206.3060  150.2700 C   0  0  0  0  0  0  0  0  0  0  0  0
  161.5070  207.5240  150.9090 C   0  0  0  0  0  0  0  0  0  0  0  0
  161.1910  205.1810  152.3880 C   0  0  0  0  0  3  0  0  0  0  0  0
  161.1320  206.0590  148.8120 C   0  0  2  0  0  3  0  0  0  0  0  0
  161.7590  204.5010  146.4530 C   0  0  0  0  0  2  0  0  0  0  0  0
  161.4280  206.3690  153.0140 N   0  0  0  0  0  0  0  0  0  0  0  0
  160.7330  204.5580  148.7380 C   0  0  1  0  0  3  0  0  0  0  0  0
  161.5890  203.7420  147.7670 C   0  0  0  0  0  2  0  0  0  0  0  0
  161.8640  208.8270  153.0490 C   0  0  2  0  0  3  0  0  0  0  0  0
  161.1770  208.8570  154.3290 N   0  0  0  0  0  1  0  0  0  0  0  0
  161.6580  208.7370  150.1650 N   0  0  0  0  0  2  0  0  0  0  0  0
  162.4150  205.8770  146.6470 C   0  0  0  0  0  2  0  0  0  0  0  0
  161.0990  205.1570  150.9980 C   0  0  0  0  0  0  0  0  0  0  0  0
  160.8350  203.9740  150.1530 C   0  0  0  0  0  2  0  0  0  0  0  0
  161.4540  210.0510  152.2300 C   0  0  0  0  0  2  0  0  0  0  0  0
  162.4610  206.3370  148.1060 C   0  0  0  0  0  2  0  0  0  0  0  0
  162.0570  209.9750  150.8270 C   0  0  2  0  0  3  0  0  0  0  0  0
  161.5660  207.5390  152.3190 C   0  0  0  0  0  0  0  0  0  0  0  0
  161.6760  211.1860  149.9840 C   0  0  0  0  0  2  0  0  0  0  0  0
  161.9790  210.9740  148.5070 C   0  0  0  0  0  2  0  0  0  0  0  0
  161.4360  213.0330  147.1060 N   0  0  0  0  0  0  0  0  0  0  0  0
  160.0810  212.5570  146.8800 C   0  0  0  0  0  1  0  0  0  0  0  0
  161.8240  214.3060  146.5210 C   0  0  0  0  0  1  0  0  0  0  0  0
  162.3750  212.2700  147.8790 C   0  0  0  0  0  0  0  0  0  0  0  0
  163.5460  212.6990  148.0590 O   0  0  0  0  0  0  0  0  0  0  0  0
  1  2  2  0  0  0  0
  1 13  1  0  0  0  0
  2 18  1  0  0  0  0
  3  6  1  0  0  0  0
  4 16  1  6  0  0  0
  4  1  1  0  0  0  0
  5 12  1  0  0  0  0
  5  8  1  0  0  0  0
  7  8  1  6  0  0  0
  7  4  1  0  0  0  0
  7 14  1  0  0  0  0
  9 10  1  1  0  0  0
 11 17  1  0  0  0  0
 11  2  1  0  0  0  0
 12 16  1  0  0  0  0
 13  3  2  0  0  0  0
 14 13  1  0  0  0  0
 15  9  1  0  0  0  0
 17 19  1  6  0  0  0
 17 15  1  0  0  0  0
 18  6  2  0  0  0  0
 18  9  1  0  0  0  0
 20 19  1  0  0  0  0
 21 24  1  0  0  0  0
 22 21  1  0  0  0  0
 23 21  1  0  0  0  0
 24 25  2  0  0  0  0
 24 20  1  0  0  0  0
M  END
>  <MODEL>
4

>  <REMARK>
 VINA RESULT:      -8.6      3.253      5.478
  Name = 
  3 active torsions:
  status: ('A' for Active; 'I' for Inactive)
    1  A    between atoms: C_6  and  C_15
    2  A    between atoms: C_6  and  C_23
    3  A    between atoms: C_15  and  C_21
                            x       y       z     vdW  Elec       q    Type
                         _______ _______ _______ _____ _____    ______ ____

>  <TORSDO>
F 3

$$$$
=
 OpenBabel11052422113D

 25 28  0  0  1  0  0  0  0  0999 V2000
  161.5090  204.8490  148.4180 C   0  0  0  0  0  0  0  0  0  0  0  0
  161.4720  205.9630  149.2610 C   0  0  0  0  0  0  0  0  0  0  0  0
  161.4120  206.2750  146.4900 C   0  0  0  0  0  3  0  0  0  0  0  0
  161.5860  203.4200  148.8100 C   0  0  2  0  0  3  0  0  0  0  0  0
  160.6950  200.6790  148.5340 C   0  0  0  0  0  2  0  0  0  0  0  0
  161.3770  207.3630  147.3110 N   0  0  0  0  0  0  0  0  0  0  0  0
  161.7340  202.6840  147.4490 C   0  0  1  0  0  3  0  0  0  0  0  0
  160.7490  201.5270  147.2650 C   0  0  0  0  0  2  0  0  0  0  0  0
  161.3490  208.4740  149.5470 C   0  0  2  0  0  3  0  0  0  0  0  0
  162.0420  209.5880  148.9210 N   0  0  0  0  0  1  0  0  0  0  0  0
  161.5140  205.8200  150.6840 N   0  0  0  0  0  2  0  0  0  0  0  0
  160.2740  201.4890  149.7690 C   0  0  0  0  0  2  0  0  0  0  0  0
  161.4890  205.0050  147.0570 C   0  0  0  0  0  0  0  0  0  0  0  0
  161.5490  203.7180  146.3310 C   0  0  0  0  0  2  0  0  0  0  0  0
  161.9470  208.2250  150.9320 C   0  0  0  0  0  2  0  0  0  0  0  0
  160.3140  203.0050  149.5530 C   0  0  0  0  0  2  0  0  0  0  0  0
  161.3280  206.9740  151.5570 C   0  0  2  0  0  3  0  0  0  0  0  0
  161.4270  207.2450  148.6730 C   0  0  0  0  0  0  0  0  0  0  0  0
  161.8960  206.7010  152.9450 C   0  0  0  0  0  2  0  0  0  0  0  0
  160.8240  206.7670  154.0250 C   0  0  0  0  0  2  0  0  0  0  0  0
  160.5850  208.1320  156.1640 N   0  0  0  0  0  0  0  0  0  0  0  0
  160.0720  206.9740  156.8790 C   0  0  0  0  0  1  0  0  0  0  0  0
  160.7240  209.3820  156.8920 C   0  0  0  0  0  1  0  0  0  0  0  0
  160.9380  208.0530  154.7750 C   0  0  0  0  0  0  0  0  0  0  0  0
  161.3760  209.0700  154.1730 O   0  0  0  0  0  0  0  0  0  0  0  0
  1  4  1  0  0  0  0
  1  2  1  0  0  0  0
  2 11  1  0  0  0  0
  3 13  1  0  0  0  0
  3  6  2  0  0  0  0
  4 16  1  6  0  0  0
  5 12  1  0  0  0  0
  6 18  1  0  0  0  0
  7 14  1  6  0  0  0
  7  4  1  0  0  0  0
  8  7  1  0  0  0  0
  8  5  1  0  0  0  0
  9 10  1  6  0  0  0
  9 15  1  0  0  0  0
 11 17  1  0  0  0  0
 13  1  2  0  0  0  0
 14 13  1  0  0  0  0
 15 17  1  0  0  0  0
 16 12  1  0  0  0  0
 17 19  1  1  0  0  0
 18  2  2  0  0  0  0
 18  9  1  0  0  0  0
 19 20  1  0  0  0  0
 20 24  1  0  0  0  0
 21 22  1  0  0  0  0
 21 23  1  0  0  0  0
 24 21  1  0  0  0  0
 25 24  2  0  0  0  0
M  END
>  <MODEL>
5

>  <REMARK>
 VINA RESULT:      -8.6      1.233      1.449
  Name = 
  3 active torsions:
  status: ('A' for Active; 'I' for Inactive)
    1  A    between atoms: C_6  and  C_15
    2  A    between atoms: C_6  and  C_23
    3  A    between atoms: C_15  and  C_21
                            x       y       z     vdW  Elec       q    Type
                         _______ _______ _______ _____ _____    ______ ____

>  <TORSDO>
F 3

$$$$
=
 OpenBabel11052422113D

 25 28  0  0  1  0  0  0  0  0999 V2000
  161.1520  204.6750  149.4510 C   0  0  0  0  0  0  0  0  0  0  0  0
  161.3410  205.5590  150.5160 C   0  0  0  0  0  0  0  0  0  0  0  0
  161.1240  202.8160  150.9680 C   0  0  0  0  0  3  0  0  0  0  0  0
  161.0350  205.0060  148.0090 C   0  0  2  0  0  3  0  0  0  0  0  0
  161.7350  204.5090  145.2440 C   0  0  0  0  0  2  0  0  0  0  0  0
  161.3070  203.6770  152.0090 N   0  0  0  0  0  0  0  0  0  0  0  0
  160.7030  203.6370  147.3530 C   0  0  1  0  0  3  0  0  0  0  0  0
  161.5950  203.2950  146.1580 C   0  0  0  0  0  2  0  0  0  0  0  0
  161.6350  205.9450  153.0000 C   0  0  2  0  0  3  0  0  0  0  0  0
  160.9440  205.4510  154.1780 N   0  0  0  0  0  1  0  0  0  0  0  0
  161.4410  206.9700  150.3020 N   0  0  0  0  0  2  0  0  0  0  0  0
  162.3300  205.7270  145.9670 C   0  0  0  0  0  2  0  0  0  0  0  0
  161.0360  203.3280  149.6760 C   0  0  0  0  0  0  0  0  0  0  0  0
  160.8260  202.5550  148.4340 C   0  0  0  0  0  2  0  0  0  0  0  0
  161.1740  207.3740  152.7100 C   0  0  0  0  0  2  0  0  0  0  0  0
  162.3530  205.5880  147.4910 C   0  0  0  0  0  2  0  0  0  0  0  0
  161.7830  207.8700  151.3990 C   0  0  2  0  0  3  0  0  0  0  0  0
  161.3950  205.0300  151.8230 C   0  0  0  0  0  0  0  0  0  0  0  0
  161.3520  209.2980  151.0830 C   0  0  0  0  0  2  0  0  0  0  0  0
  161.9500  210.3050  152.0550 C   0  0  0  0  0  2  0  0  0  0  0  0
  160.7590  211.1120  154.1590 N   0  0  0  0  0  0  0  0  0  0  0  0
  161.6930  210.3830  155.0010 C   0  0  0  0  0  1  0  0  0  0  0  0
  159.7090  211.8820  154.8040 C   0  0  0  0  0  1  0  0  0  0  0  0
  160.8600  211.0720  152.7270 C   0  0  0  0  0  0  0  0  0  0  0  0
  160.0370  211.7080  152.0160 O   0  0  0  0  0  0  0  0  0  0  0  0
  1 13  2  0  0  0  0
  1  2  1  0  0  0  0
  2 18  2  0  0  0  0
  3  6  2  0  0  0  0
  4 16  1  6  0  0  0
  4  1  1  0  0  0  0
  5 12  1  0  0  0  0
  5  8  1  0  0  0  0
  7  8  1  6  0  0  0
  7  4  1  0  0  0  0
  7 14  1  0  0  0  0
  9 10  1  1  0  0  0
 11  2  1  0  0  0  0
 11 17  1  0  0  0  0
 12 16  1  0  0  0  0
 13  3  1  0  0  0  0
 14 13  1  0  0  0  0
 15  9  1  0  0  0  0
 17 19  1  6  0  0  0
 17 15  1  0  0  0  0
 18  6  1  0  0  0  0
 18  9  1  0  0  0  0
 19 20  1  0  0  0  0
 20 24  1  0  0  0  0
 21 23  1  0  0  0  0
 21 22  1  0  0  0  0
 24 21  1  0  0  0  0
 25 24  2  0  0  0  0
M  END
>  <MODEL>
6

>  <REMARK>
 VINA RESULT:      -8.3      1.993      3.695
  Name = 
  3 active torsions:
  status: ('A' for Active; 'I' for Inactive)
    1  A    between atoms: C_6  and  C_15
    2  A    between atoms: C_6  and  C_23
    3  A    between atoms: C_15  and  C_21
                            x       y       z     vdW  Elec       q    Type
                         _______ _______ _______ _____ _____    ______ ____

>  <TORSDO>
F 3

$$$$
=
 OpenBabel11052422113D

 25 28  0  0  1  0  0  0  0  0999 V2000
  161.3210  207.2400  150.5750 C   0  0  0  0  0  0  0  0  0  0  0  0
  161.5330  206.2620  149.5990 C   0  0  0  0  0  0  0  0  0  0  0  0
  162.1270  208.9380  149.0840 C   0  0  0  0  0  3  0  0  0  0  0  0
  160.7810  207.0490  151.9440 C   0  0  2  0  0  3  0  0  0  0  0  0
  160.8960  207.5580  154.7920 C   0  0  0  0  0  2  0  0  0  0  0  0
  162.3340  207.9860  148.1300 N   0  0  0  0  0  0  0  0  0  0  0  0
  160.6550  208.5010  152.4840 C   0  0  1  0  0  3  0  0  0  0  0  0
  161.2900  208.7020  153.8620 C   0  0  0  0  0  2  0  0  0  0  0  0
  162.3110  205.6420  147.2730 C   0  0  2  0  0  3  0  0  0  0  0  0
  162.0710  206.2030  145.9540 N   0  0  0  0  0  1  0  0  0  0  0  0
  161.2220  204.8880  149.8430 N   0  0  0  0  0  2  0  0  0  0  0  0
  161.3220  206.1840  154.2520 C   0  0  0  0  0  2  0  0  0  0  0  0
  161.6050  208.5550  150.3170 C   0  0  0  0  0  0  0  0  0  0  0  0
  161.3030  209.4420  151.4600 C   0  0  0  0  0  2  0  0  0  0  0  0
  161.4500  204.3900  147.4490 C   0  0  0  0  0  2  0  0  0  0  0  0
  161.7460  206.2060  152.7810 C   0  0  0  0  0  2  0  0  0  0  0  0
  161.5810  203.8560  148.8760 C   0  0  2  0  0  3  0  0  0  0  0  0
  162.0320  206.6690  148.3430 C   0  0  0  0  0  0  0  0  0  0  0  0
  160.7420  202.6010  149.0850 C   0  0  0  0  0  2  0  0  0  0  0  0
  160.1900  202.0570  147.7740 C   0  0  0  0  0  2  0  0  0  0  0  0
  160.8560  200.2880  146.0640 N   0  0  0  0  0  0  0  0  0  0  0  0
  160.0800  200.9550  145.0310 C   0  0  0  0  0  1  0  0  0  0  0  0
  161.5780  199.0780  145.7080 C   0  0  0  0  0  1  0  0  0  0  0  0
  160.9060  200.8000  147.4050 C   0  0  0  0  0  0  0  0  0  0  0  0
  161.5810  200.2040  148.2860 O   0  0  0  0  0  0  0  0  0  0  0  0
  1  4  1  0  0  0  0
  2 11  1  0  0  0  0
  2  1  2  0  0  0  0
  3 13  2  0  0  0  0
  4  7  1  0  0  0  0
  4 16  1  1  0  0  0
  6 18  2  0  0  0  0
  6  3  1  0  0  0  0
  7 14  1  6  0  0  0
  7  8  1  0  0  0  0
  8  5  1  0  0  0  0
  9 10  1  6  0  0  0
  9 15  1  0  0  0  0
  9 18  1  0  0  0  0
 12  5  1  0  0  0  0
 13  1  1  0  0  0  0
 13 14  1  0  0  0  0
 15 17  1  0  0  0  0
 16 12  1  0  0  0  0
 17 19  1  6  0  0  0
 17 11  1  0  0  0  0
 18  2  1  0  0  0  0
 20 19  1  0  0  0  0
 21 24  1  0  0  0  0
 22 21  1  0  0  0  0
 23 21  1  0  0  0  0
 24 20  1  0  0  0  0
 24 25  2  0  0  0  0
M  END
>  <MODEL>
7

>  <REMARK>
 VINA RESULT:      -8.3      3.174      7.660
  Name = 
  3 active torsions:
  status: ('A' for Active; 'I' for Inactive)
    1  A    between atoms: C_6  and  C_15
    2  A    between atoms: C_6  and  C_23
    3  A    between atoms: C_15  and  C_21
                            x       y       z     vdW  Elec       q    Type
                         _______ _______ _______ _____ _____    ______ ____

>  <TORSDO>
F 3

$$$$
=
 OpenBabel11052422113D

 25 28  0  0  1  0  0  0  0  0999 V2000
  160.8950  208.8170  153.0670 C   0  0  0  0  0  0  0  0  0  0  0  0
  161.2620  207.9540  152.0310 C   0  0  0  0  0  0  0  0  0  0  0  0
  161.5960  210.7110  151.7700 C   0  0  0  0  0  3  0  0  0  0  0  0
  160.3050  208.4550  154.3790 C   0  0  2  0  0  3  0  0  0  0  0  0
  160.2100  208.7260  157.2610 C   0  0  0  0  0  2  0  0  0  0  0  0
  161.9540  209.8700  150.7570 N   0  0  0  0  0  0  0  0  0  0  0  0
  159.9960  209.8350  155.0250 C   0  0  1  0  0  3  0  0  0  0  0  0
  160.5300  209.9800  156.4520 C   0  0  0  0  0  2  0  0  0  0  0  0
  162.2270  207.6190  149.7160 C   0  0  2  0  0  3  0  0  0  0  0  0
  162.0000  208.2640  148.4340 N   0  0  0  0  0  1  0  0  0  0  0  0
  161.0860  206.5390  152.1440 N   0  0  0  0  0  2  0  0  0  0  0  0
  160.8090  207.4540  156.6410 C   0  0  0  0  0  2  0  0  0  0  0  0
  161.0510  210.1720  152.9330 C   0  0  0  0  0  0  0  0  0  0  0  0
  160.5950  210.9220  154.1230 C   0  0  0  0  0  2  0  0  0  0  0  0
  161.4950  206.2760  149.7370 C   0  0  0  0  0  2  0  0  0  0  0  0
  161.3070  207.6450  155.2050 C   0  0  0  0  0  2  0  0  0  0  0  0
  161.6050  205.6370  151.1210 C   0  0  2  0  0  3  0  0  0  0  0  0
  161.7830  208.5160  150.8460 C   0  0  0  0  0  0  0  0  0  0  0  0
  160.8940  204.2900  151.1760 C   0  0  0  0  0  2  0  0  0  0  0  0
  160.4240  203.8340  149.8010 C   0  0  0  0  0  2  0  0  0  0  0  0
  161.1160  201.8860  148.3100 N   0  0  0  0  0  0  0  0  0  0  0  0
  161.1390  202.7520  147.1420 C   0  0  0  0  0  1  0  0  0  0  0  0
  161.4620  200.4860  148.1330 C   0  0  0  0  0  1  0  0  0  0  0  0
  160.7550  202.3910  149.6050 C   0  0  0  0  0  0  0  0  0  0  0  0
  160.7380  201.6220  150.6030 O   0  0  0  0  0  0  0  0  0  0  0  0
  1  4  1  0  0  0  0
  2 11  1  0  0  0  0
  2  1  2  0  0  0  0
  3 13  2  0  0  0  0
  4  7  1  0  0  0  0
  4 16  1  1  0  0  0
  6 18  2  0  0  0  0
  6  3  1  0  0  0  0
  7 14  1  6  0  0  0
  7  8  1  0  0  0  0
  8  5  1  0  0  0  0
  9 10  1  6  0  0  0
  9 15  1  0  0  0  0
  9 18  1  0  0  0  0
 12  5  1  0  0  0  0
 13  1  1  0  0  0  0
 13 14  1  0  0  0  0
 15 17  1  0  0  0  0
 16 12  1  0  0  0  0
 17 19  1  6  0  0  0
 17 11  1  0  0  0  0
 18  2  1  0  0  0  0
 20 19  1  0  0  0  0
 21 24  1  0  0  0  0
 22 21  1  0  0  0  0
 23 21  1  0  0  0  0
 24 20  1  0  0  0  0
 24 25  2  0  0  0  0
M  END
>  <MODEL>
8

>  <REMARK>
 VINA RESULT:      -8.0      2.354      7.415
  Name = 
  3 active torsions:
  status: ('A' for Active; 'I' for Inactive)
    1  A    between atoms: C_6  and  C_15
    2  A    between atoms: C_6  and  C_23
    3  A    between atoms: C_15  and  C_21
                            x       y       z     vdW  Elec       q    Type
                         _______ _______ _______ _____ _____    ______ ____

>  <TORSDO>
F 3

$$$$
=
 OpenBabel11052422113D

 25 28  0  0  1  0  0  0  0  0999 V2000
  161.4330  205.6650  151.4820 C   0  0  0  0  0  0  0  0  0  0  0  0
  161.3410  204.9150  150.3060 C   0  0  0  0  0  0  0  0  0  0  0  0
  160.5550  203.8270  152.7510 C   0  0  0  0  0  3  0  0  0  0  0  0
  161.9290  207.0550  151.6320 C   0  0  2  0  0  3  0  0  0  0  0  0
  161.6550  209.7260  152.7170 C   0  0  0  0  0  2  0  0  0  0  0  0
  160.4660  203.0940  151.6050 N   0  0  0  0  0  0  0  0  0  0  0  0
  161.9150  207.2760  153.1700 C   0  0  1  0  0  3  0  0  0  0  0  0
  161.2090  208.5640  153.6000 C   0  0  0  0  0  2  0  0  0  0  0  0
  160.7140  202.7570  149.1440 C   0  0  2  0  0  3  0  0  0  0  0  0
  160.9620  201.3550  149.4340 N   0  0  0  0  0  1  0  0  0  0  0  0
  161.7530  205.4540  149.0470 N   0  0  0  0  0  2  0  0  0  0  0  0
  161.3640  209.4820  151.2280 C   0  0  0  0  0  2  0  0  0  0  0  0
  161.0550  205.1260  152.6830 C   0  0  0  0  0  0  0  0  0  0  0  0
  161.2360  206.0600  153.8140 C   0  0  0  0  0  2  0  0  0  0  0  0
  161.6650  203.2170  148.0380 C   0  0  0  0  0  2  0  0  0  0  0  0
  161.0020  208.0300  150.9020 C   0  0  0  0  0  2  0  0  0  0  0  0
  161.5190  204.7210  147.8070 C   0  0  2  0  0  3  0  0  0  0  0  0
  160.8640  203.5900  150.3940 C   0  0  0  0  0  0  0  0  0  0  0  0
  162.4470  205.2130  146.7030 C   0  0  0  0  0  2  0  0  0  0  0  0
  162.4050  204.3120  145.4750 C   0  0  0  0  0  2  0  0  0  0  0  0
  160.1600  203.3970  144.6880 N   0  0  0  0  0  0  0  0  0  0  0  0
  160.4580  202.0950  145.2610 C   0  0  0  0  0  1  0  0  0  0  0  0
  158.8820  203.5780  144.0190 C   0  0  0  0  0  1  0  0  0  0  0  0
  161.1010  204.4790  144.7680 C   0  0  0  0  0  0  0  0  0  0  0  0
  160.8250  205.5990  144.2600 O   0  0  0  0  0  0  0  0  0  0  0  0
  1  4  1  0  0  0  0
  1 13  1  0  0  0  0
  2 18  1  0  0  0  0
  2  1  2  0  0  0  0
  4 16  1  6  0  0  0
  4  7  1  0  0  0  0
  5  8  1  0  0  0  0
  6  3  1  0  0  0  0
  7  8  1  6  0  0  0
  7 14  1  0  0  0  0
  9 10  1  1  0  0  0
  9 18  1  0  0  0  0
 11  2  1  0  0  0  0
 12  5  1  0  0  0  0
 13  3  2  0  0  0  0
 13 14  1  0  0  0  0
 15  9  1  0  0  0  0
 16 12  1  0  0  0  0
 17 19  1  6  0  0  0
 17 15  1  0  0  0  0
 17 11  1  0  0  0  0
 18  6  2  0  0  0  0
 20 19  1  0  0  0  0
 21 24  1  0  0  0  0
 21 22  1  0  0  0  0
 23 21  1  0  0  0  0
 24 20  1  0  0  0  0
 25 24  2  0  0  0  0
M  END
>  <MODEL>
9

>  <REMARK>
 VINA RESULT:      -7.9      3.512      8.144
  Name = 
  3 active torsions:
  status: ('A' for Active; 'I' for Inactive)
    1  A    between atoms: C_6  and  C_15
    2  A    between atoms: C_6  and  C_23
    3  A    between atoms: C_15  and  C_21
                            x       y       z     vdW  Elec       q    Type
                         _______ _______ _______ _____ _____    ______ ____

>  <TORSDO>
F 3

$$$$
