=
 OpenBabel11052422023D

 30 31  0  0  1  0  0  0  0  0999 V2000
  161.0040  208.3850  153.9460 C   0  0  2  0  0  0  0  0  0  0  0  0
  160.8370  211.6380  155.6160 C   0  0  0  0  0  2  0  0  0  0  0  0
  159.7110  211.1330  154.7760 C   0  0  0  0  0  0  0  0  0  0  0  0
  161.9750  209.1380  154.7350 N   0  0  0  0  0  2  0  0  0  0  0  0
  160.6500  206.9880  154.4180 C   0  0  0  0  0  1  0  0  0  0  0  0
  161.2490  210.6340  156.5380 O   0  0  0  0  0  0  0  0  0  0  0  0
  161.7730  209.4090  156.1230 C   0  0  0  0  0  0  0  0  0  0  0  0
  161.0530  208.5490  152.4290 C   0  0  1  0  0  3  0  0  0  0  0  0
  159.9790  210.6170  153.4710 N   0  0  0  0  0  0  0  0  0  0  0  0
  158.5460  211.0940  155.2480 O   0  0  0  0  0  0  0  0  0  0  0  0
  162.0740  208.5410  156.9800 O   0  0  0  0  0  0  0  0  0  0  0  0
  159.8860  209.1660  153.2490 C   0  0  2  0  0  3  0  0  0  0  0  0
  162.0470  209.5270  151.8280 C   0  0  0  0  0  0  0  0  0  0  0  0
  162.7690  210.2370  152.5130 O   0  0  0  0  0  0  0  0  0  0  0  0
  162.1650  209.5670  150.3310 C   0  0  1  0  0  3  0  0  0  0  0  0
  161.5790  208.3220  149.6600 C   0  0  0  0  0  2  0  0  0  0  0  0
  162.4740  207.7950  148.5510 C   0  0  0  0  0  2  0  0  0  0  0  0
  160.4980  206.3170  148.5420 C   0  0  0  0  0  1  0  0  0  0  0  0
  161.7380  206.7240  147.7730 C   0  0  0  0  0  2  0  0  0  0  0  0
  161.5940  210.7370  149.8200 O   0  0  0  0  0  0  0  0  0  0  0  0
  162.5240  211.2100  148.8930 C   0  0  0  0  0  2  0  0  0  0  0  0
  160.8050  211.9870  147.2650 O   0  0  0  0  0  0  0  0  0  0  0  0
  162.4010  213.4350  148.0570 O   0  0  0  0  0  1  0  0  0  0  0  0
  161.9080  212.2780  148.0610 C   0  0  0  0  0  0  0  0  0  0  0  0
  159.8680  211.5430  152.3460 C   0  0  0  0  0  2  0  0  0  0  0  0
  158.2730  213.1890  151.4520 C   0  0  0  0  0  3  0  0  0  0  0  0
  158.6100  212.3480  152.4240 C   0  0  0  0  0  3  0  0  0  0  0  0
  157.0410  213.9820  151.5060 C   0  0  0  0  0  0  0  0  0  0  0  0
  156.5240  214.4530  150.4570 O   0  0  0  0  0  0  0  0  0  0  0  0
  156.3960  214.2400  152.8210 C   0  0  0  0  0  1  0  0  0  0  0  0
  1  5  1  1  0  0  0
  1  4  1  0  0  0  0
  2  6  1  0  0  0  0
  3 10  2  0  0  0  0
  3  2  1  0  0  0  0
  4  7  1  0  0  0  0
  7  6  1  0  0  0  0
  7 11  2  0  0  0  0
  8 13  1  1  0  0  0
  8 12  1  0  0  0  0
  8  1  1  0  0  0  0
  9  3  1  0  0  0  0
 12  9  1  1  0  0  0
 12  1  1  0  0  0  0
 13 14  2  0  0  0  0
 15 16  1  6  0  0  0
 15 13  1  0  0  0  0
 17 16  1  0  0  0  0
 19 18  1  0  0  0  0
 19 17  1  0  0  0  0
 20 15  1  0  0  0  0
 21 20  1  0  0  0  0
 22 24  2  0  0  0  0
 23 24  1  0  0  0  0
 24 21  1  0  0  0  0
 25 27  1  0  0  0  0
 25  9  1  0  0  0  0
 26 28  1  0  0  0  0
 26 27  2  0  0  0  0
 28 30  1  0  0  0  0
 29 28  2  0  0  0  0
M  END
>  <MODEL>
1

>  <REMARK>
 VINA RESULT:      -5.0      0.000      0.000
  Name = 
  11 active torsions:
  status: ('A' for Active; 'I' for Inactive)
    1  A    between atoms: C_1  and  C_4
    2  A    between atoms: C_1  and  C_22
    3  A    between atoms: C_4  and  C_9
    4  A    between atoms: C_4  and  O_12
    5  A    between atoms: C_7  and  N_23
    6  A    between atoms: C_7  and  C_25
    7  A    between atoms: C_8  and  O_12
    8  A    between atoms: C_8  and  C_30
    9  A    between atoms: C_9  and  C_21
   10  A    between atoms: C_10  and  C_15
   11  A    between atoms: C_17  and  C_21
                            x       y       z     vdW  Elec       q    Type
                         _______ _______ _______ _____ _____    ______ ____

>  <TORSDO>
F 11

$$$$
=
 OpenBabel11052422023D

 30 31  0  0  1  0  0  0  0  0999 V2000
  161.8140  205.7830  151.4770 C   0  0  2  0  0  0  0  0  0  0  0  0
  160.8460  207.0640  148.1880 C   0  0  0  0  0  2  0  0  0  0  0  0
  162.1790  207.3700  148.7820 C   0  0  0  0  0  0  0  0  0  0  0  0
  160.5680  205.7080  150.7190 N   0  0  0  0  0  2  0  0  0  0  0  0
  162.4540  204.4770  151.9040 C   0  0  0  0  0  1  0  0  0  0  0  0
  160.5830  205.6660  148.2660 O   0  0  0  0  0  0  0  0  0  0  0  0
  160.4760  204.9950  149.4860 C   0  0  0  0  0  0  0  0  0  0  0  0
  161.9530  206.9190  152.4880 C   0  0  1  0  0  3  0  0  0  0  0  0
  162.2620  207.8420  150.1290 N   0  0  0  0  0  0  0  0  0  0  0  0
  163.2270  207.1410  148.1260 O   0  0  0  0  0  0  0  0  0  0  0  0
  160.2920  203.7510  149.4940 O   0  0  0  0  0  0  0  0  0  0  0  0
  162.7740  206.9360  151.1690 C   0  0  2  0  0  3  0  0  0  0  0  0
  160.8370  207.9410  152.6030 C   0  0  0  0  0  0  0  0  0  0  0  0
  160.1260  208.2490  151.6580 O   0  0  0  0  0  0  0  0  0  0  0  0
  160.5830  208.5440  153.9550 C   0  0  1  0  0  3  0  0  0  0  0  0
  161.2150  207.7350  155.0900 C   0  0  0  0  0  2  0  0  0  0  0  0
  160.2680  207.5620  156.2660 C   0  0  0  0  0  2  0  0  0  0  0  0
  161.9450  209.0910  157.2350 C   0  0  0  0  0  1  0  0  0  0  0  0
  160.4870  208.6840  157.2610 C   0  0  0  0  0  2  0  0  0  0  0  0
  160.9990  209.8780  153.9890 O   0  0  0  0  0  0  0  0  0  0  0  0
  159.8340  210.6080  154.2300 C   0  0  0  0  0  2  0  0  0  0  0  0
  160.5060  211.8170  152.1570 O   0  0  0  0  0  0  0  0  0  0  0  0
  158.3150  211.8050  152.8410 O   0  0  0  0  0  1  0  0  0  0  0  0
  159.5000  211.4330  153.0370 C   0  0  0  0  0  0  0  0  0  0  0  0
  162.2890  209.2890  150.3330 C   0  0  0  0  0  2  0  0  0  0  0  0
  162.0120  211.3530  149.0230 C   0  0  0  0  0  3  0  0  0  0  0  0
  162.0770  210.0260  149.0490 C   0  0  0  0  0  3  0  0  0  0  0  0
  161.8110  212.0940  147.7740 C   0  0  0  0  0  0  0  0  0  0  0  0
  160.7040  212.0620  147.1700 O   0  0  0  0  0  0  0  0  0  0  0  0
  162.9320  212.8910  147.2100 C   0  0  0  0  0  1  0  0  0  0  0  0
  1  5  1  1  0  0  0
  1  8  1  0  0  0  0
  2  6  1  0  0  0  0
  2  3  1  0  0  0  0
  3  9  1  0  0  0  0
  4  1  1  0  0  0  0
  6  7  1  0  0  0  0
  7 11  2  0  0  0  0
  7  4  1  0  0  0  0
  8 13  1  6  0  0  0
  9 25  1  0  0  0  0
 10  3  2  0  0  0  0
 12  9  1  6  0  0  0
 12  1  1  0  0  0  0
 12  8  1  0  0  0  0
 13 15  1  0  0  0  0
 14 13  2  0  0  0  0
 15 20  1  0  0  0  0
 15 16  1  1  0  0  0
 16 17  1  0  0  0  0
 17 19  1  0  0  0  0
 18 19  1  0  0  0  0
 20 21  1  0  0  0  0
 22 24  2  0  0  0  0
 23 24  1  0  0  0  0
 24 21  1  0  0  0  0
 26 27  2  0  0  0  0
 27 25  1  0  0  0  0
 28 26  1  0  0  0  0
 29 28  2  0  0  0  0
 30 28  1  0  0  0  0
M  END
>  <MODEL>
2

>  <REMARK>
 VINA RESULT:      -4.8      2.807      6.438
  Name = 
  11 active torsions:
  status: ('A' for Active; 'I' for Inactive)
    1  A    between atoms: C_1  and  C_4
    2  A    between atoms: C_1  and  C_22
    3  A    between atoms: C_4  and  C_9
    4  A    between atoms: C_4  and  O_12
    5  A    between atoms: C_7  and  N_23
    6  A    between atoms: C_7  and  C_25
    7  A    between atoms: C_8  and  O_12
    8  A    between atoms: C_8  and  C_30
    9  A    between atoms: C_9  and  C_21
   10  A    between atoms: C_10  and  C_15
   11  A    between atoms: C_17  and  C_21
                            x       y       z     vdW  Elec       q    Type
                         _______ _______ _______ _____ _____    ______ ____

>  <TORSDO>
F 11

$$$$
=
 OpenBabel11052422023D

 30 31  0  0  1  0  0  0  0  0999 V2000
  161.9280  206.1870  151.6110 C   0  0  2  0  0  0  0  0  0  0  0  0
  160.7390  207.2540  148.3170 C   0  0  0  0  0  2  0  0  0  0  0  0
  162.1000  207.6150  148.8090 C   0  0  0  0  0  0  0  0  0  0  0  0
  160.6400  206.0490  150.9360 N   0  0  0  0  0  2  0  0  0  0  0  0
  162.6170  204.9180  152.0730 C   0  0  0  0  0  1  0  0  0  0  0  0
  160.5070  205.8600  148.4940 O   0  0  0  0  0  0  0  0  0  0  0  0
  160.4870  205.2610  149.7550 C   0  0  0  0  0  0  0  0  0  0  0  0
  162.1090  207.3830  152.5420 C   0  0  1  0  0  3  0  0  0  0  0  0
  162.2560  208.1680  150.1180 N   0  0  0  0  0  0  0  0  0  0  0  0
  163.1100  207.3610  148.1040 O   0  0  0  0  0  0  0  0  0  0  0  0
  160.3260  204.0180  149.8480 O   0  0  0  0  0  0  0  0  0  0  0  0
  162.8470  207.3330  151.1760 C   0  0  2  0  0  3  0  0  0  0  0  0
  160.9830  208.3940  152.6660 C   0  0  0  0  0  0  0  0  0  0  0  0
  159.9040  208.2490  152.1100 O   0  0  0  0  0  0  0  0  0  0  0  0
  161.2110  209.5840  153.5530 C   0  0  1  0  0  3  0  0  0  0  0  0
  160.0520  210.5820  153.5130 C   0  0  0  0  0  2  0  0  0  0  0  0
  160.3630  211.7850  152.6390 C   0  0  0  0  0  2  0  0  0  0  0  0
  159.3790  213.3070  150.9630 C   0  0  0  0  0  1  0  0  0  0  0  0
  159.0700  212.3840  152.1230 C   0  0  0  0  0  2  0  0  0  0  0  0
  161.4890  209.1790  154.8630 O   0  0  0  0  0  0  0  0  0  0  0  0
  160.2370  209.0520  155.4680 C   0  0  0  0  0  2  0  0  0  0  0  0
  161.2110  207.6210  157.2610 O   0  0  0  0  0  1  0  0  0  0  0  0
  159.3000  206.9770  156.1640 O   0  0  0  0  0  0  0  0  0  0  0  0
  160.2110  207.8310  156.3180 C   0  0  0  0  0  0  0  0  0  0  0  0
  162.2700  209.6250  150.2340 C   0  0  0  0  0  2  0  0  0  0  0  0
  162.0240  211.6030  148.7940 C   0  0  0  0  0  3  0  0  0  0  0  0
  162.0130  210.2810  148.9150 C   0  0  0  0  0  3  0  0  0  0  0  0
  161.7800  212.2650  147.5080 C   0  0  0  0  0  0  0  0  0  0  0  0
  162.7170  212.8310  146.8810 O   0  0  0  0  0  0  0  0  0  0  0  0
  160.4070  212.2730  146.9400 C   0  0  0  0  0  1  0  0  0  0  0  0
  1  5  1  1  0  0  0
  1  8  1  0  0  0  0
  2  6  1  0  0  0  0
  2  3  1  0  0  0  0
  3  9  1  0  0  0  0
  4  1  1  0  0  0  0
  6  7  1  0  0  0  0
  7 11  2  0  0  0  0
  7  4  1  0  0  0  0
  8 13  1  6  0  0  0
  9 25  1  0  0  0  0
 10  3  2  0  0  0  0
 12  9  1  6  0  0  0
 12  1  1  0  0  0  0
 12  8  1  0  0  0  0
 13 15  1  0  0  0  0
 14 13  2  0  0  0  0
 15 16  1  1  0  0  0
 15 20  1  0  0  0  0
 17 16  1  0  0  0  0
 18 19  1  0  0  0  0
 19 17  1  0  0  0  0
 20 21  1  0  0  0  0
 21 24  1  0  0  0  0
 23 24  2  0  0  0  0
 24 22  1  0  0  0  0
 26 27  2  0  0  0  0
 27 25  1  0  0  0  0
 28 26  1  0  0  0  0
 29 28  2  0  0  0  0
 30 28  1  0  0  0  0
M  END
>  <MODEL>
3

>  <REMARK>
 VINA RESULT:      -4.8      2.711      6.706
  Name = 
  11 active torsions:
  status: ('A' for Active; 'I' for Inactive)
    1  A    between atoms: C_1  and  C_4
    2  A    between atoms: C_1  and  C_22
    3  A    between atoms: C_4  and  C_9
    4  A    between atoms: C_4  and  O_12
    5  A    between atoms: C_7  and  N_23
    6  A    between atoms: C_7  and  C_25
    7  A    between atoms: C_8  and  O_12
    8  A    between atoms: C_8  and  C_30
    9  A    between atoms: C_9  and  C_21
   10  A    between atoms: C_10  and  C_15
   11  A    between atoms: C_17  and  C_21
                            x       y       z     vdW  Elec       q    Type
                         _______ _______ _______ _____ _____    ______ ____

>  <TORSDO>
F 11

$$$$
=
 OpenBabel11052422023D

 30 31  0  0  1  0  0  0  0  0999 V2000
  161.8410  205.9510  151.6070 C   0  0  2  0  0  0  0  0  0  0  0  0
  160.7520  207.2430  148.3590 C   0  0  0  0  0  2  0  0  0  0  0  0
  162.1210  207.5150  148.8870 C   0  0  0  0  0  0  0  0  0  0  0  0
  160.5580  205.9080  150.9090 N   0  0  0  0  0  2  0  0  0  0  0  0
  162.4630  204.6290  152.0100 C   0  0  0  0  0  1  0  0  0  0  0  0
  160.4550  205.8540  148.4590 O   0  0  0  0  0  0  0  0  0  0  0  0
  160.3880  205.1920  149.6860 C   0  0  0  0  0  0  0  0  0  0  0  0
  162.0600  207.0870  152.6020 C   0  0  1  0  0  3  0  0  0  0  0  0
  162.2810  207.9900  150.2250 N   0  0  0  0  0  0  0  0  0  0  0  0
  163.1290  207.2520  148.1830 O   0  0  0  0  0  0  0  0  0  0  0  0
  160.1690  203.9540  149.7100 O   0  0  0  0  0  0  0  0  0  0  0  0
  162.8170  207.0750  151.2450 C   0  0  2  0  0  3  0  0  0  0  0  0
  160.9790  208.1410  152.7640 C   0  0  0  0  0  0  0  0  0  0  0  0
  159.9990  208.1960  152.0370 O   0  0  0  0  0  0  0  0  0  0  0  0
  161.1200  209.1110  153.9030 C   0  0  1  0  0  3  0  0  0  0  0  0
  160.9810  210.5680  153.4570 C   0  0  0  0  0  2  0  0  0  0  0  0
  159.6950  211.2010  153.9640 C   0  0  0  0  0  2  0  0  0  0  0  0
  159.1770  212.7340  152.0990 C   0  0  0  0  0  1  0  0  0  0  0  0
  158.7630  211.4540  152.7970 C   0  0  0  0  0  2  0  0  0  0  0  0
  160.2190  208.8050  154.9280 O   0  0  0  0  0  0  0  0  0  0  0  0
  161.0010  208.2130  155.9220 C   0  0  0  0  0  2  0  0  0  0  0  0
  160.6690  210.2890  157.2610 O   0  0  0  0  0  1  0  0  0  0  0  0
  162.7030  209.2230  157.2460 O   0  0  0  0  0  0  0  0  0  0  0  0
  161.5090  209.2580  156.8530 C   0  0  0  0  0  0  0  0  0  0  0  0
  162.3590  209.4370  150.4190 C   0  0  0  0  0  2  0  0  0  0  0  0
  162.2800  211.4360  148.9880 C   0  0  0  0  0  3  0  0  0  0  0  0
  161.9130  210.1770  149.1990 C   0  0  0  0  0  3  0  0  0  0  0  0
  161.8580  212.1760  147.7950 C   0  0  0  0  0  0  0  0  0  0  0  0
  160.9130  211.7600  147.0720 O   0  0  0  0  0  0  0  0  0  0  0  0
  162.5620  213.4340  147.4300 C   0  0  0  0  0  1  0  0  0  0  0  0
  1  5  1  1  0  0  0
  1  8  1  0  0  0  0
  2  6  1  0  0  0  0
  2  3  1  0  0  0  0
  3  9  1  0  0  0  0
  4  1  1  0  0  0  0
  6  7  1  0  0  0  0
  7 11  2  0  0  0  0
  7  4  1  0  0  0  0
  8 13  1  6  0  0  0
  9 25  1  0  0  0  0
 10  3  2  0  0  0  0
 12  9  1  6  0  0  0
 12  1  1  0  0  0  0
 12  8  1  0  0  0  0
 13 15  1  0  0  0  0
 14 13  2  0  0  0  0
 15 16  1  6  0  0  0
 15 20  1  0  0  0  0
 16 17  1  0  0  0  0
 18 19  1  0  0  0  0
 19 17  1  0  0  0  0
 20 21  1  0  0  0  0
 21 24  1  0  0  0  0
 24 23  2  0  0  0  0
 24 22  1  0  0  0  0
 26 27  2  0  0  0  0
 27 25  1  0  0  0  0
 28 26  1  0  0  0  0
 29 28  2  0  0  0  0
 30 28  1  0  0  0  0
M  END
>  <MODEL>
4

>  <REMARK>
 VINA RESULT:      -4.6      2.648      6.687
  Name = 
  11 active torsions:
  status: ('A' for Active; 'I' for Inactive)
    1  A    between atoms: C_1  and  C_4
    2  A    between atoms: C_1  and  C_22
    3  A    between atoms: C_4  and  C_9
    4  A    between atoms: C_4  and  O_12
    5  A    between atoms: C_7  and  N_23
    6  A    between atoms: C_7  and  C_25
    7  A    between atoms: C_8  and  O_12
    8  A    between atoms: C_8  and  C_30
    9  A    between atoms: C_9  and  C_21
   10  A    between atoms: C_10  and  C_15
   11  A    between atoms: C_17  and  C_21
                            x       y       z     vdW  Elec       q    Type
                         _______ _______ _______ _____ _____    ______ ____

>  <TORSDO>
F 11

$$$$
=
 OpenBabel11052422023D

 30 31  0  0  1  0  0  0  0  0999 V2000
  161.4500  210.1520  154.6670 C   0  0  2  0  0  0  0  0  0  0  0  0
  160.0710  206.8090  154.1050 C   0  0  0  0  0  2  0  0  0  0  0  0
  161.2990  207.2740  153.3990 C   0  0  0  0  0  0  0  0  0  0  0  0
  160.2400  209.4920  155.1500 N   0  0  0  0  0  2  0  0  0  0  0  0
  162.4200  210.6840  155.7040 C   0  0  0  0  0  1  0  0  0  0  0  0
  160.1800  207.0650  155.5020 O   0  0  0  0  0  0  0  0  0  0  0  0
  160.2930  208.3580  156.0160 C   0  0  0  0  0  0  0  0  0  0  0  0
  161.3270  211.0140  153.4130 C   0  0  1  0  0  3  0  0  0  0  0  0
  161.3040  208.5480  152.7530 N   0  0  0  0  0  0  0  0  0  0  0  0
  162.3470  206.5800  153.4410 O   0  0  0  0  0  0  0  0  0  0  0  0
  160.4360  208.5220  157.2540 O   0  0  0  0  0  0  0  0  0  0  0  0
  162.0680  209.6490  153.3590 C   0  0  2  0  0  3  0  0  0  0  0  0
  159.9890  211.0840  152.6980 C   0  0  0  0  0  0  0  0  0  0  0  0
  158.9850  210.5340  153.1260 O   0  0  0  0  0  0  0  0  0  0  0  0
  159.9110  211.9110  151.4470 C   0  0  1  0  0  3  0  0  0  0  0  0
  159.4220  213.3370  151.7120 C   0  0  0  0  0  2  0  0  0  0  0  0
  157.9170  213.4650  151.5450 C   0  0  0  0  0  2  0  0  0  0  0  0
  156.1270  214.0240  149.9400 C   0  0  0  0  0  1  0  0  0  0  0  0
  157.6100  214.1400  150.2230 C   0  0  0  0  0  2  0  0  0  0  0  0
  161.1380  211.9110  150.7760 O   0  0  0  0  0  0  0  0  0  0  0  0
  160.9390  212.7390  149.6710 C   0  0  0  0  0  2  0  0  0  0  0  0
  162.1570  211.0920  148.2510 O   0  0  0  0  0  1  0  0  0  0  0  0
  162.5950  213.3390  148.0690 O   0  0  0  0  0  0  0  0  0  0  0  0
  161.9350  212.4170  148.6130 C   0  0  0  0  0  0  0  0  0  0  0  0
  160.9650  208.5820  151.3320 C   0  0  0  0  0  2  0  0  0  0  0  0
  160.8550  207.0340  149.4230 C   0  0  0  0  0  3  0  0  0  0  0  0
  161.2330  207.2650  150.6750 C   0  0  0  0  0  3  0  0  0  0  0  0
  161.1140  205.7530  148.7590 C   0  0  0  0  0  0  0  0  0  0  0  0
  161.3290  205.6960  147.5170 O   0  0  0  0  0  0  0  0  0  0  0  0
  161.1170  204.5020  149.5620 C   0  0  0  0  0  1  0  0  0  0  0  0
  1  4  1  0  0  0  0
  1  5  1  1  0  0  0
  2  6  1  0  0  0  0
  3 10  2  0  0  0  0
  3  2  1  0  0  0  0
  4  7  1  0  0  0  0
  6  7  1  0  0  0  0
  7 11  2  0  0  0  0
  8 13  1  6  0  0  0
  8  1  1  0  0  0  0
  9  3  1  0  0  0  0
 12  9  1  6  0  0  0
 12  8  1  0  0  0  0
 12  1  1  0  0  0  0
 13 14  2  0  0  0  0
 15 16  1  1  0  0  0
 15 13  1  0  0  0  0
 17 16  1  0  0  0  0
 18 19  1  0  0  0  0
 19 17  1  0  0  0  0
 20 15  1  0  0  0  0
 21 20  1  0  0  0  0
 22 24  1  0  0  0  0
 23 24  2  0  0  0  0
 24 21  1  0  0  0  0
 25  9  1  0  0  0  0
 26 27  2  0  0  0  0
 27 25  1  0  0  0  0
 28 26  1  0  0  0  0
 28 30  1  0  0  0  0
 29 28  2  0  0  0  0
M  END
>  <MODEL>
5

>  <REMARK>
 VINA RESULT:      -4.5      1.943      5.393
  Name = 
  11 active torsions:
  status: ('A' for Active; 'I' for Inactive)
    1  A    between atoms: C_1  and  C_4
    2  A    between atoms: C_1  and  C_22
    3  A    between atoms: C_4  and  C_9
    4  A    between atoms: C_4  and  O_12
    5  A    between atoms: C_7  and  N_23
    6  A    between atoms: C_7  and  C_25
    7  A    between atoms: C_8  and  O_12
    8  A    between atoms: C_8  and  C_30
    9  A    between atoms: C_9  and  C_21
   10  A    between atoms: C_10  and  C_15
   11  A    between atoms: C_17  and  C_21
                            x       y       z     vdW  Elec       q    Type
                         _______ _______ _______ _____ _____    ______ ____

>  <TORSDO>
F 11

$$$$
=
 OpenBabel11052422023D

 30 31  0  0  1  0  0  0  0  0999 V2000
  160.8780  208.5390  153.7510 C   0  0  2  0  0  0  0  0  0  0  0  0
  160.7590  211.8590  155.2870 C   0  0  0  0  0  2  0  0  0  0  0  0
  159.6290  211.3400  154.4640 C   0  0  0  0  0  0  0  0  0  0  0  0
  161.8580  209.3070  154.5130 N   0  0  0  0  0  2  0  0  0  0  0  0
  160.4990  207.1680  154.2760 C   0  0  0  0  0  1  0  0  0  0  0  0
  161.1500  210.8870  156.2510 O   0  0  0  0  0  0  0  0  0  0  0  0
  161.6560  209.6370  155.8880 C   0  0  0  0  0  0  0  0  0  0  0  0
  160.9360  208.6410  152.2290 C   0  0  1  0  0  3  0  0  0  0  0  0
  159.8920  210.7670  153.1820 N   0  0  0  0  0  0  0  0  0  0  0  0
  158.4610  211.3390  154.9310 O   0  0  0  0  0  0  0  0  0  0  0  0
  161.9390  208.8000  156.7810 O   0  0  0  0  0  0  0  0  0  0  0  0
  159.7760  209.3100  153.0170 C   0  0  2  0  0  3  0  0  0  0  0  0
  161.9480  209.5780  151.5930 C   0  0  0  0  0  0  0  0  0  0  0  0
  162.7900  210.1770  152.2450 O   0  0  0  0  0  0  0  0  0  0  0  0
  161.9260  209.7140  150.0980 C   0  0  1  0  0  3  0  0  0  0  0  0
  162.5840  211.0080  149.6130 C   0  0  0  0  0  2  0  0  0  0  0  0
  161.8090  211.6530  148.4760 C   0  0  0  0  0  2  0  0  0  0  0  0
  162.2810  213.9380  147.6720 C   0  0  0  0  0  1  0  0  0  0  0  0
  161.6190  213.1280  148.7670 C   0  0  0  0  0  2  0  0  0  0  0  0
  162.4990  208.5930  149.4890 O   0  0  0  0  0  0  0  0  0  0  0  0
  161.5880  208.2220  148.4990 C   0  0  0  0  0  2  0  0  0  0  0  0
  161.2640  206.1510  147.1510 O   0  0  0  0  0  0  0  0  0  0  0  0
  161.7560  206.0200  149.3900 O   0  0  0  0  0  1  0  0  0  0  0  0
  161.5530  206.7390  148.3780 C   0  0  0  0  0  0  0  0  0  0  0  0
  159.8010  211.6490  152.0200 C   0  0  0  0  0  2  0  0  0  0  0  0
  158.0340  213.0760  151.0770 C   0  0  0  0  0  3  0  0  0  0  0  0
  158.6600  212.6070  152.1500 C   0  0  0  0  0  3  0  0  0  0  0  0
  156.9090  214.0120  151.1830 C   0  0  0  0  0  0  0  0  0  0  0  0
  156.5320  214.4500  152.3040 O   0  0  0  0  0  0  0  0  0  0  0  0
  156.2000  214.4440  149.9500 C   0  0  0  0  0  1  0  0  0  0  0  0
  1  5  1  1  0  0  0
  1  4  1  0  0  0  0
  2  6  1  0  0  0  0
  3 10  2  0  0  0  0
  3  2  1  0  0  0  0
  4  7  1  0  0  0  0
  7  6  1  0  0  0  0
  7 11  2  0  0  0  0
  8 13  1  1  0  0  0
  8 12  1  0  0  0  0
  8  1  1  0  0  0  0
  9  3  1  0  0  0  0
 12  9  1  1  0  0  0
 12  1  1  0  0  0  0
 13 14  2  0  0  0  0
 15 16  1  1  0  0  0
 15 13  1  0  0  0  0
 17 19  1  0  0  0  0
 17 16  1  0  0  0  0
 18 19  1  0  0  0  0
 20 15  1  0  0  0  0
 21 20  1  0  0  0  0
 22 24  2  0  0  0  0
 24 21  1  0  0  0  0
 24 23  1  0  0  0  0
 25 27  1  0  0  0  0
 25  9  1  0  0  0  0
 26 28  1  0  0  0  0
 26 27  2  0  0  0  0
 28 29  2  0  0  0  0
 30 28  1  0  0  0  0
M  END
>  <MODEL>
6

>  <REMARK>
 VINA RESULT:      -4.5      1.550      3.052
  Name = 
  11 active torsions:
  status: ('A' for Active; 'I' for Inactive)
    1  A    between atoms: C_1  and  C_4
    2  A    between atoms: C_1  and  C_22
    3  A    between atoms: C_4  and  C_9
    4  A    between atoms: C_4  and  O_12
    5  A    between atoms: C_7  and  N_23
    6  A    between atoms: C_7  and  C_25
    7  A    between atoms: C_8  and  O_12
    8  A    between atoms: C_8  and  C_30
    9  A    between atoms: C_9  and  C_21
   10  A    between atoms: C_10  and  C_15
   11  A    between atoms: C_17  and  C_21
                            x       y       z     vdW  Elec       q    Type
                         _______ _______ _______ _____ _____    ______ ____

>  <TORSDO>
F 11

$$$$
=
 OpenBabel11052422023D

 30 31  0  0  1  0  0  0  0  0999 V2000
  162.5130  204.2150  146.1290 C   0  0  2  0  0  0  0  0  0  0  0  0
  159.7190  206.5780  146.1940 C   0  0  0  0  0  2  0  0  0  0  0  0
  160.8040  206.6250  147.2160 C   0  0  0  0  0  0  0  0  0  0  0  0
  161.3030  204.3320  145.3200 N   0  0  0  0  0  2  0  0  0  0  0  0
  163.8450  204.2450  145.4050 C   0  0  0  0  0  1  0  0  0  0  0  0
  160.2800  206.5180  144.8860 O   0  0  0  0  0  0  0  0  0  0  0  0
  161.0720  205.4500  144.4630 C   0  0  0  0  0  0  0  0  0  0  0  0
  162.4660  203.2770  147.3320 C   0  0  1  0  0  3  0  0  0  0  0  0
  161.2010  205.4250  147.8820 N   0  0  0  0  0  0  0  0  0  0  0  0
  161.4150  207.7030  147.4330 O   0  0  0  0  0  0  0  0  0  0  0  0
  161.5810  205.4730  143.3140 O   0  0  0  0  0  0  0  0  0  0  0  0
  162.4960  204.8170  147.5370 C   0  0  2  0  0  3  0  0  0  0  0  0
  161.1610  202.5760  147.6660 C   0  0  0  0  0  0  0  0  0  0  0  0
  160.1050  202.8520  147.1150 O   0  0  0  0  0  0  0  0  0  0  0  0
  161.2060  201.4680  148.6800 C   0  0  1  0  0  3  0  0  0  0  0  0
  160.4180  201.7970  149.9490 C   0  0  0  0  0  2  0  0  0  0  0  0
  161.2740  201.6820  151.2000 C   0  0  0  0  0  2  0  0  0  0  0  0
  160.8310  203.6830  152.5750 C   0  0  0  0  0  1  0  0  0  0  0  0
  161.7910  203.0530  151.5870 C   0  0  0  0  0  2  0  0  0  0  0  0
  160.7800  200.2620  148.1150 O   0  0  0  0  0  0  0  0  0  0  0  0
  161.7970  199.9070  147.2270 C   0  0  0  0  0  2  0  0  0  0  0  0
  160.4350  200.3340  145.1840 O   0  0  0  0  0  0  0  0  0  0  0  0
  161.3810  198.2730  145.5460 O   0  0  0  0  0  1  0  0  0  0  0  0
  161.2060  199.4550  145.9380 C   0  0  0  0  0  0  0  0  0  0  0  0
  160.5630  205.1230  149.1620 C   0  0  0  0  0  2  0  0  0  0  0  0
  161.7170  206.6630  150.6940 C   0  0  0  0  0  3  0  0  0  0  0  0
  160.5960  206.3030  150.0800 C   0  0  0  0  0  3  0  0  0  0  0  0
  161.7720  207.8200  151.5930 C   0  0  0  0  0  0  0  0  0  0  0  0
  162.3310  208.8930  151.2380 O   0  0  0  0  0  0  0  0  0  0  0  0
  161.1620  207.7230  152.9460 C   0  0  0  0  0  1  0  0  0  0  0  0
  1  5  1  6  0  0  0
  1  8  1  0  0  0  0
  1 12  1  0  0  0  0
  2  3  1  0  0  0  0
  3 10  2  0  0  0  0
  3  9  1  0  0  0  0
  4  1  1  0  0  0  0
  6  2  1  0  0  0  0
  7  6  1  0  0  0  0
  7  4  1  0  0  0  0
  8 12  1  0  0  0  0
  8 13  1  6  0  0  0
  9 25  1  0  0  0  0
 11  7  2  0  0  0  0
 12  9  1  6  0  0  0
 13 15  1  0  0  0  0
 14 13  2  0  0  0  0
 15 16  1  1  0  0  0
 16 17  1  0  0  0  0
 17 19  1  0  0  0  0
 19 18  1  0  0  0  0
 20 15  1  0  0  0  0
 21 20  1  0  0  0  0
 22 24  2  0  0  0  0
 23 24  1  0  0  0  0
 24 21  1  0  0  0  0
 25 27  1  0  0  0  0
 26 28  1  0  0  0  0
 27 26  2  0  0  0  0
 28 30  1  0  0  0  0
 29 28  2  0  0  0  0
M  END
>  <MODEL>
7

>  <REMARK>
 VINA RESULT:      -4.5      5.971      9.567
  Name = 
  11 active torsions:
  status: ('A' for Active; 'I' for Inactive)
    1  A    between atoms: C_1  and  C_4
    2  A    between atoms: C_1  and  C_22
    3  A    between atoms: C_4  and  C_9
    4  A    between atoms: C_4  and  O_12
    5  A    between atoms: C_7  and  N_23
    6  A    between atoms: C_7  and  C_25
    7  A    between atoms: C_8  and  O_12
    8  A    between atoms: C_8  and  C_30
    9  A    between atoms: C_9  and  C_21
   10  A    between atoms: C_10  and  C_15
   11  A    between atoms: C_17  and  C_21
                            x       y       z     vdW  Elec       q    Type
                         _______ _______ _______ _____ _____    ______ ____

>  <TORSDO>
F 11

$$$$
=
 OpenBabel11052422023D

 30 31  0  0  1  0  0  0  0  0999 V2000
  158.8250  212.5780  153.0770 C   0  0  2  0  0  0  0  0  0  0  0  0
  158.4750  210.5570  156.1090 C   0  0  0  0  0  2  0  0  0  0  0  0
  159.5770  211.5510  155.9580 C   0  0  0  0  0  0  0  0  0  0  0  0
  157.9130  211.4970  153.4410 N   0  0  0  0  0  2  0  0  0  0  0  0
  158.2140  213.9050  152.6720 C   0  0  0  0  0  1  0  0  0  0  0  0
  157.2270  211.1530  155.7700 O   0  0  0  0  0  0  0  0  0  0  0  0
  156.9550  211.6380  154.4900 C   0  0  0  0  0  0  0  0  0  0  0  0
  160.0900  212.2010  152.3110 C   0  0  1  0  0  3  0  0  0  0  0  0
  160.3640  211.5580  154.7650 N   0  0  0  0  0  0  0  0  0  0  0  0
  159.7590  212.4250  156.8430 O   0  0  0  0  0  0  0  0  0  0  0  0
  155.8530  212.1990  154.2610 O   0  0  0  0  0  0  0  0  0  0  0  0
  160.1760  212.6480  153.7960 C   0  0  2  0  0  3  0  0  0  0  0  0
  160.3690  210.7350  152.0290 C   0  0  0  0  0  0  0  0  0  0  0  0
  159.6130  209.8420  152.3820 O   0  0  0  0  0  0  0  0  0  0  0  0
  161.6020  210.4020  151.2390 C   0  0  1  0  0  3  0  0  0  0  0  0
  162.1820  209.0320  151.6010 C   0  0  0  0  0  2  0  0  0  0  0  0
  161.9830  208.0150  150.4890 C   0  0  0  0  0  2  0  0  0  0  0  0
  160.8630  205.9040  149.8740 C   0  0  0  0  0  1  0  0  0  0  0  0
  161.2080  206.8280  151.0240 C   0  0  0  0  0  2  0  0  0  0  0  0
  161.3540  210.5030  149.8670 O   0  0  0  0  0  0  0  0  0  0  0  0
  162.2740  211.4470  149.4080 C   0  0  0  0  0  2  0  0  0  0  0  0
  161.2350  213.6830  149.0510 O   0  0  0  0  0  1  0  0  0  0  0  0
  161.3010  212.1420  147.3500 O   0  0  0  0  0  0  0  0  0  0  0  0
  161.5870  212.4400  148.5380 C   0  0  0  0  0  0  0  0  0  0  0  0
  161.6070  210.7880  154.7760 C   0  0  0  0  0  2  0  0  0  0  0  0
  160.8160  208.4630  154.6390 C   0  0  0  0  0  3  0  0  0  0  0  0
  161.3980  209.4220  155.3490 C   0  0  0  0  0  3  0  0  0  0  0  0
  160.6080  207.1160  155.1800 C   0  0  0  0  0  0  0  0  0  0  0  0
  160.8680  206.0920  154.4910 O   0  0  0  0  0  0  0  0  0  0  0  0
  160.0770  206.9570  156.5590 C   0  0  0  0  0  1  0  0  0  0  0  0
  1  5  1  6  0  0  0
  1  4  1  0  0  0  0
  1 12  1  0  0  0  0
  3  2  1  0  0  0  0
  3 10  2  0  0  0  0
  4  7  1  0  0  0  0
  6  2  1  0  0  0  0
  7  6  1  0  0  0  0
  8 13  1  1  0  0  0
  8  1  1  0  0  0  0
  8 12  1  0  0  0  0
  9 25  1  0  0  0  0
  9  3  1  0  0  0  0
 11  7  2  0  0  0  0
 12  9  1  1  0  0  0
 13 14  2  0  0  0  0
 15 16  1  6  0  0  0
 15 13  1  0  0  0  0
 17 19  1  0  0  0  0
 17 16  1  0  0  0  0
 18 19  1  0  0  0  0
 20 15  1  0  0  0  0
 21 20  1  0  0  0  0
 23 24  2  0  0  0  0
 24 22  1  0  0  0  0
 24 21  1  0  0  0  0
 25 27  1  0  0  0  0
 26 28  1  0  0  0  0
 26 27  2  0  0  0  0
 28 30  1  0  0  0  0
 29 28  2  0  0  0  0
M  END
>  <MODEL>
8

>  <REMARK>
 VINA RESULT:      -4.2      1.825      4.603
  Name = 
  11 active torsions:
  status: ('A' for Active; 'I' for Inactive)
    1  A    between atoms: C_1  and  C_4
    2  A    between atoms: C_1  and  C_22
    3  A    between atoms: C_4  and  C_9
    4  A    between atoms: C_4  and  O_12
    5  A    between atoms: C_7  and  N_23
    6  A    between atoms: C_7  and  C_25
    7  A    between atoms: C_8  and  O_12
    8  A    between atoms: C_8  and  C_30
    9  A    between atoms: C_9  and  C_21
   10  A    between atoms: C_10  and  C_15
   11  A    between atoms: C_17  and  C_21
                            x       y       z     vdW  Elec       q    Type
                         _______ _______ _______ _____ _____    ______ ____

>  <TORSDO>
F 11

$$$$
=
 OpenBabel11052422023D

 30 31  0  0  1  0  0  0  0  0999 V2000
  160.4540  205.1500  149.9310 C   0  0  2  0  0  0  0  0  0  0  0  0
  162.7720  207.3100  151.7620 C   0  0  0  0  0  2  0  0  0  0  0  0
  161.5990  207.8690  151.0290 C   0  0  0  0  0  0  0  0  0  0  0  0
  161.6990  204.8780  150.6430 N   0  0  0  0  0  2  0  0  0  0  0  0
  159.2150  204.3940  150.3710 C   0  0  0  0  0  1  0  0  0  0  0  0
  162.3630  206.2220  152.5850 O   0  0  0  0  0  0  0  0  0  0  0  0
  161.8150  205.0520  152.0560 C   0  0  0  0  0  0  0  0  0  0  0  0
  160.5450  205.3980  148.4270 C   0  0  1  0  0  3  0  0  0  0  0  0
  161.3540  207.4700  149.6790 N   0  0  0  0  0  0  0  0  0  0  0  0
  160.7910  208.6280  151.6230 O   0  0  0  0  0  0  0  0  0  0  0  0
  161.4260  204.1440  152.8330 O   0  0  0  0  0  0  0  0  0  0  0  0
  160.2260  206.5680  149.3990 C   0  0  2  0  0  3  0  0  0  0  0  0
  161.9120  205.4210  147.7680 C   0  0  0  0  0  0  0  0  0  0  0  0
  162.6770  206.3680  147.8720 O   0  0  0  0  0  0  0  0  0  0  0  0
  162.3380  204.1970  147.0080 C   0  0  1  0  0  3  0  0  0  0  0  0
  161.2530  203.1180  146.9710 C   0  0  0  0  0  2  0  0  0  0  0  0
  161.5940  201.9340  147.8610 C   0  0  0  0  0  2  0  0  0  0  0  0
  160.8310  201.3270  150.1290 C   0  0  0  0  0  1  0  0  0  0  0  0
  160.3870  201.5690  148.7010 C   0  0  0  0  0  2  0  0  0  0  0  0
  162.7610  204.5370  145.7190 O   0  0  0  0  0  0  0  0  0  0  0  0
  161.6800  204.2190  144.8950 C   0  0  0  0  0  2  0  0  0  0  0  0
  160.1550  206.1900  144.8940 O   0  0  0  0  0  1  0  0  0  0  0  0
  161.5830  205.8190  143.1350 O   0  0  0  0  0  0  0  0  0  0  0  0
  161.1500  205.4550  144.2580 C   0  0  0  0  0  0  0  0  0  0  0  0
  161.9050  208.3120  148.6180 C   0  0  0  0  0  2  0  0  0  0  0  0
  161.9230  210.7270  148.1500 C   0  0  0  0  0  3  0  0  0  0  0  0
  161.9810  209.7440  149.0420 C   0  0  0  0  0  3  0  0  0  0  0  0
  161.9910  212.1370  148.5460 C   0  0  0  0  0  0  0  0  0  0  0  0
  161.2070  212.6060  149.4150 O   0  0  0  0  0  0  0  0  0  0  0  0
  162.9950  213.0270  147.9060 C   0  0  0  0  0  1  0  0  0  0  0  0
  1  5  1  1  0  0  0
  1  4  1  0  0  0  0
  2  6  1  0  0  0  0
  3 10  2  0  0  0  0
  3  2  1  0  0  0  0
  4  7  1  0  0  0  0
  7  6  1  0  0  0  0
  7 11  2  0  0  0  0
  8 13  1  1  0  0  0
  8 12  1  0  0  0  0
  8  1  1  0  0  0  0
  9  3  1  0  0  0  0
 12  9  1  1  0  0  0
 12  1  1  0  0  0  0
 13 14  2  0  0  0  0
 15 16  1  6  0  0  0
 15 13  1  0  0  0  0
 16 17  1  0  0  0  0
 17 19  1  0  0  0  0
 19 18  1  0  0  0  0
 20 15  1  0  0  0  0
 21 20  1  0  0  0  0
 23 24  2  0  0  0  0
 24 22  1  0  0  0  0
 24 21  1  0  0  0  0
 25 27  1  0  0  0  0
 25  9  1  0  0  0  0
 26 28  1  0  0  0  0
 26 27  2  0  0  0  0
 28 29  2  0  0  0  0
 30 28  1  0  0  0  0
M  END
>  <MODEL>
9

>  <REMARK>
 VINA RESULT:      -4.2      3.955      6.119
  Name = 
  11 active torsions:
  status: ('A' for Active; 'I' for Inactive)
    1  A    between atoms: C_1  and  C_4
    2  A    between atoms: C_1  and  C_22
    3  A    between atoms: C_4  and  C_9
    4  A    between atoms: C_4  and  O_12
    5  A    between atoms: C_7  and  N_23
    6  A    between atoms: C_7  and  C_25
    7  A    between atoms: C_8  and  O_12
    8  A    between atoms: C_8  and  C_30
    9  A    between atoms: C_9  and  C_21
   10  A    between atoms: C_10  and  C_15
   11  A    between atoms: C_17  and  C_21
                            x       y       z     vdW  Elec       q    Type
                         _______ _______ _______ _____ _____    ______ ____

>  <TORSDO>
F 11

$$$$
