=
 OpenBabel11062410073D

 43 46  0  0  1  0  0  0  0  0999 V2000
  160.4400  209.2620  154.5420 C   0  0  0  0  0  0  0  0  0  0  0  0
  160.9030  210.3360  155.3830 N   0  0  0  0  0  0  0  0  0  0  0  0
  159.9770  208.2180  155.0910 O   0  0  0  0  0  0  0  0  0  0  0  0
  160.4630  209.3660  153.1010 N   0  0  0  0  0  0  0  0  0  0  0  0
  159.4110  212.5920  151.3750 C   0  0  0  0  0  2  0  0  0  0  0  0
  160.4060  212.5750  150.2530 C   0  0  0  0  0  0  0  0  0  0  0  0
  162.3810  211.7010  149.1060 C   0  0  0  0  0  3  0  0  0  0  0  0
  159.2070  211.2230  152.0080 C   0  0  2  0  0  3  0  0  0  0  0  0
  160.3740  213.7430  149.3070 C   0  0  0  0  0  2  0  0  0  0  0  0
  161.4900  210.5110  151.1630 C   0  0  0  0  0  2  0  0  0  0  0  0
  158.3410  211.4000  153.2400 C   0  0  0  0  0  1  0  0  0  0  0  0
  161.2050  213.5290  148.1230 N   0  0  0  0  0  0  0  0  0  0  0  0
  160.5690  210.6400  152.3810 C   0  0  2  0  0  3  0  0  0  0  0  0
  162.2720  212.5840  148.1190 C   0  0  0  0  0  3  0  0  0  0  0  0
  161.4050  211.6690  150.2050 C   0  0  0  0  0  0  0  0  0  0  0  0
  161.0640  214.4450  147.0000 C   0  0  0  0  0  2  0  0  0  0  0  0
  160.2020  213.8160  145.9210 C   0  0  0  0  0  2  0  0  0  0  0  0
  160.9760  212.8530  145.1690 N   0  0  0  0  0  2  0  0  0  0  0  0
  161.8750  213.6110  144.3130 C   0  0  0  0  0  2  0  0  0  0  0  0
  161.4080  214.4380  142.0820 N   0  0  0  0  0  1  0  0  0  0  0  0
  161.6530  213.2440  142.8610 C   0  0  0  0  0  2  0  0  0  0  0  0
  157.6170  213.2730  156.0270 C   0  0  0  0  0  0  0  0  0  0  0  0
  157.7630  211.1270  157.2610 C   0  0  0  0  0  3  0  0  0  0  0  0
  159.0640  213.5610  156.2080 C   0  0  0  0  0  2  0  0  0  0  0  0
  156.6110  214.4520  155.2220 Cl  0  0  0  0  0  0  0  0  0  0  0  0
  159.9290  211.2310  155.9610 C   0  0  0  0  0  0  0  0  0  0  0  0
  157.0420  212.2050  156.5660 C   0  0  0  0  0  3  0  0  0  0  0  0
  159.9260  212.5130  155.5890 C   0  0  0  0  0  3  0  0  0  0  0  0
  159.0100  210.7100  157.0020 C   0  0  0  0  0  3  0  0  0  0  0  0
  160.1070  208.2100  152.2940 C   0  0  0  0  0  2  0  0  0  0  0  0
  162.6150  205.4430  151.6930 C   0  0  0  0  0  2  0  0  0  0  0  0
  162.0330  205.7510  150.0680 S   0  0  0  0  0  0  0  0  0  0  0  0
  163.1840  205.9810  149.1210 O   0  0  0  0  0  0  0  0  0  0  0  0
  161.5790  208.2380  149.4530 C   0  0  0  0  0  1  0  0  0  0  0  0
  161.7580  206.3660  152.5400 C   0  0  0  0  0  2  0  0  0  0  0  0
  161.3480  207.5700  151.6980 C   0  0  1  0  0  3  0  0  0  0  0  0
  161.1650  204.6150  149.5900 O   0  0  0  0  0  0  0  0  0  0  0  0
  161.0780  207.1760  150.3170 N   0  0  0  0  0  0  0  0  0  0  0  0
  162.3460  210.6420  155.4780 C   0  0  2  0  0  3  0  0  0  0  0  0
  163.0930  210.1770  154.3690 O   0  0  0  0  0  0  0  0  0  0  0  0
  164.2200  210.9990  154.1930 C   0  0  0  0  0  1  0  0  0  0  0  0
  162.9550  210.2180  156.8180 C   0  0  0  0  0  2  0  0  0  0  0  0
  162.3930  208.8750  157.2460 C   0  0  0  0  0  1  0  0  0  0  0  0
  1  3  2  0  0  0  0
  1  2  1  0  0  0  0
  2 39  1  0  0  0  0
  2 26  1  0  0  0  0
  4  1  1  0  0  0  0
  5  8  1  0  0  0  0
  6  5  1  0  0  0  0
  7 15  1  0  0  0  0
  8 13  1  0  0  0  0
  8 11  1  1  0  0  0
  9  6  1  0  0  0  0
 10 13  1  0  0  0  0
 12  9  1  0  0  0  0
 13  4  1  6  0  0  0
 14 12  1  0  0  0  0
 14  7  2  0  0  0  0
 15  6  2  0  0  0  0
 15 10  1  0  0  0  0
 16 12  1  0  0  0  0
 17 16  1  0  0  0  0
 18 17  1  0  0  0  0
 19 18  1  0  0  0  0
 20 21  1  0  0  0  0
 21 19  1  0  0  0  0
 22 24  1  0  0  0  0
 22 27  2  0  0  0  0
 25 22  1  0  0  0  0
 26 29  1  0  0  0  0
 27 23  1  0  0  0  0
 28 26  2  0  0  0  0
 28 24  1  0  0  0  0
 29 23  2  0  0  0  0
 30  4  1  0  0  0  0
 31 35  1  0  0  0  0
 32 38  1  0  0  0  0
 32 31  1  0  0  0  0
 33 32  2  0  0  0  0
 34 38  1  0  0  0  0
 36 30  1  1  0  0  0
 36 35  1  0  0  0  0
 37 32  2  0  0  0  0
 38 36  1  0  0  0  0
 39 42  1  1  0  0  0
 40 39  1  0  0  0  0
 41 40  1  0  0  0  0
 42 43  1  0  0  0  0
M  END
>  <MODEL>
1

>  <REMARK>
 VINA RESULT:      -1.1      0.000      0.000
  Name = 
  12 active torsions:
  status: ('A' for Active; 'I' for Inactive)
    1  A    between atoms: C_1  and  N_34
    2  A    between atoms: C_1  and  C_35
    3  A    between atoms: O_2  and  C_27
    4  A    between atoms: C_6  and  C_27
    5  A    between atoms: C_11  and  N_22
    6  A    between atoms: C_11  and  C_36
    7  A    between atoms: C_21  and  N_30
    8  A    between atoms: C_27  and  N_30
    9  A    between atoms: N_29  and  C_31
   10  A    between atoms: N_29  and  C_36
   11  A    between atoms: C_31  and  C_40
   12  A    between atoms: N_34  and  C_38
                            x       y       z     vdW  Elec       q    Type
                         _______ _______ _______ _____ _____    ______ ____

>  <TORSDO>
F 12

$$$$
=
 OpenBabel11062410073D

 43 46  0  0  1  0  0  0  0  0999 V2000
  160.6260  213.2840  148.9580 C   0  0  0  0  0  0  0  0  0  0  0  0
  159.4110  213.1060  149.7110 N   0  0  0  0  0  0  0  0  0  0  0  0
  161.1030  214.4530  148.8430 O   0  0  0  0  0  0  0  0  0  0  0  0
  161.3210  212.1640  148.3680 N   0  0  0  0  0  0  0  0  0  0  0  0
  161.7990  208.8800  150.2320 C   0  0  0  0  0  2  0  0  0  0  0  0
  161.5460  207.9400  149.0900 C   0  0  0  0  0  0  0  0  0  0  0  0
  160.8380  207.4290  146.8070 C   0  0  0  0  0  3  0  0  0  0  0  0
  162.1630  210.2850  149.7740 C   0  0  2  0  0  3  0  0  0  0  0  0
  161.5940  206.4710  149.4040 C   0  0  0  0  0  2  0  0  0  0  0  0
  161.0050  209.8460  147.5610 C   0  0  0  0  0  2  0  0  0  0  0  0
  162.2030  211.1810  150.9970 C   0  0  0  0  0  1  0  0  0  0  0  0
  161.5750  205.6390  148.2010 N   0  0  0  0  0  0  0  0  0  0  0  0
  161.1120  210.7710  148.7780 C   0  0  2  0  0  3  0  0  0  0  0  0
  161.0720  206.1300  146.9610 C   0  0  0  0  0  3  0  0  0  0  0  0
  161.1050  208.3820  147.8940 C   0  0  0  0  0  0  0  0  0  0  0  0
  161.8860  204.2230  148.3300 C   0  0  0  0  0  2  0  0  0  0  0  0
  160.6910  203.4780  148.8960 C   0  0  0  0  0  2  0  0  0  0  0  0
  160.8410  203.3170  150.3250 N   0  0  0  0  0  2  0  0  0  0  0  0
  161.2040  201.9280  150.5570 C   0  0  0  0  0  2  0  0  0  0  0  0
  161.4330  200.5270  148.5920 N   0  0  0  0  0  1  0  0  0  0  0  0
  160.4930  201.0250  149.5710 C   0  0  0  0  0  2  0  0  0  0  0  0
  158.5780  213.5050  154.0680 C   0  0  0  0  0  0  0  0  0  0  0  0
  159.3910  211.3980  153.0430 C   0  0  0  0  0  3  0  0  0  0  0  0
  159.5460  214.3360  153.3060 C   0  0  0  0  0  2  0  0  0  0  0  0
  157.5260  214.2750  155.2310 Cl  0  0  0  0  0  0  0  0  0  0  0  0
  159.4890  213.0740  151.1520 C   0  0  0  0  0  0  0  0  0  0  0  0
  158.5720  212.1810  153.9820 C   0  0  0  0  0  3  0  0  0  0  0  0
  159.3520  214.2150  151.8330 C   0  0  0  0  0  3  0  0  0  0  0  0
  159.7900  211.7870  151.8230 C   0  0  0  0  0  3  0  0  0  0  0  0
  162.4700  212.4050  147.5090 C   0  0  0  0  0  2  0  0  0  0  0  0
  163.0710  214.4510  144.3860 C   0  0  0  0  0  2  0  0  0  0  0  0
  161.9740  213.2180  143.7940 S   0  0  0  0  0  0  0  0  0  0  0  0
  160.8040  213.8420  143.0750 O   0  0  0  0  0  0  0  0  0  0  0  0
  160.0610  212.5020  145.4060 C   0  0  0  0  0  1  0  0  0  0  0  0
  163.3090  214.0300  145.8240 C   0  0  0  0  0  2  0  0  0  0  0  0
  162.0830  213.2770  146.3270 C   0  0  1  0  0  3  0  0  0  0  0  0
  162.6980  212.2480  142.8960 O   0  0  0  0  0  0  0  0  0  0  0  0
  161.5110  212.4420  145.2730 N   0  0  0  0  0  0  0  0  0  0  0  0
  158.1510  212.7520  149.0240 C   0  0  2  0  0  3  0  0  0  0  0  0
  158.0080  213.3710  147.7590 O   0  0  0  0  0  0  0  0  0  0  0  0
  157.5370  212.4250  146.8320 C   0  0  0  0  0  1  0  0  0  0  0  0
  156.9180  212.9370  149.9130 C   0  0  0  0  0  2  0  0  0  0  0  0
  156.3960  214.3580  149.7930 C   0  0  0  0  0  1  0  0  0  0  0  0
  1  2  1  0  0  0  0
  2 26  1  0  0  0  0
  3  1  2  0  0  0  0
  4  1  1  0  0  0  0
  6  9  1  0  0  0  0
  6  5  1  0  0  0  0
  7 14  2  0  0  0  0
  7 15  1  0  0  0  0
  8  5  1  0  0  0  0
  8 11  1  1  0  0  0
 10 15  1  0  0  0  0
 10 13  1  0  0  0  0
 12 16  1  0  0  0  0
 12  9  1  0  0  0  0
 13  4  1  6  0  0  0
 13  8  1  0  0  0  0
 14 12  1  0  0  0  0
 15  6  2  0  0  0  0
 16 17  1  0  0  0  0
 17 18  1  0  0  0  0
 18 19  1  0  0  0  0
 20 21  1  0  0  0  0
 21 19  1  0  0  0  0
 22 25  1  0  0  0  0
 23 27  1  0  0  0  0
 24 22  1  0  0  0  0
 26 29  1  0  0  0  0
 26 28  2  0  0  0  0
 27 22  2  0  0  0  0
 28 24  1  0  0  0  0
 29 23  2  0  0  0  0
 30  4  1  0  0  0  0
 31 35  1  0  0  0  0
 32 31  1  0  0  0  0
 32 38  1  0  0  0  0
 33 32  2  0  0  0  0
 35 36  1  0  0  0  0
 36 30  1  1  0  0  0
 37 32  2  0  0  0  0
 38 34  1  0  0  0  0
 38 36  1  0  0  0  0
 39  2  1  0  0  0  0
 39 42  1  1  0  0  0
 40 39  1  0  0  0  0
 41 40  1  0  0  0  0
 43 42  1  0  0  0  0
M  END
>  <MODEL>
2

>  <REMARK>
 VINA RESULT:      -0.6      4.015      8.034
  Name = 
  12 active torsions:
  status: ('A' for Active; 'I' for Inactive)
    1  A    between atoms: C_1  and  N_34
    2  A    between atoms: C_1  and  C_35
    3  A    between atoms: O_2  and  C_27
    4  A    between atoms: C_6  and  C_27
    5  A    between atoms: C_11  and  N_22
    6  A    between atoms: C_11  and  C_36
    7  A    between atoms: C_21  and  N_30
    8  A    between atoms: C_27  and  N_30
    9  A    between atoms: N_29  and  C_31
   10  A    between atoms: N_29  and  C_36
   11  A    between atoms: C_31  and  C_40
   12  A    between atoms: N_34  and  C_38
                            x       y       z     vdW  Elec       q    Type
                         _______ _______ _______ _____ _____    ______ ____

>  <TORSDO>
F 12

$$$$
=
 OpenBabel11062410073D

 43 46  0  0  1  0  0  0  0  0999 V2000
  160.3730  208.0400  154.8830 C   0  0  0  0  0  0  0  0  0  0  0  0
  160.8360  209.3420  155.2910 N   0  0  0  0  0  0  0  0  0  0  0  0
  159.8620  207.2760  155.7550 O   0  0  0  0  0  0  0  0  0  0  0  0
  160.4500  207.6080  153.5070 N   0  0  0  0  0  0  0  0  0  0  0  0
  162.1590  209.6490  150.7850 C   0  0  0  0  0  2  0  0  0  0  0  0
  161.3160  210.8870  150.8780 C   0  0  0  0  0  0  0  0  0  0  0  0
  159.3910  212.1550  151.6920 C   0  0  0  0  0  3  0  0  0  0  0  0
  162.0840  208.7860  152.0370 C   0  0  2  0  0  3  0  0  0  0  0  0
  161.6310  211.9890  149.9060 C   0  0  0  0  0  2  0  0  0  0  0  0
  159.8430  209.8300  152.6030 C   0  0  0  0  0  2  0  0  0  0  0  0
  162.8100  207.4850  151.7540 C   0  0  0  0  0  1  0  0  0  0  0  0
  160.9290  213.2330  150.2210 N   0  0  0  0  0  0  0  0  0  0  0  0
  160.6170  208.5270  152.3750 C   0  0  2  0  0  3  0  0  0  0  0  0
  159.7460  213.2420  151.0160 C   0  0  0  0  0  3  0  0  0  0  0  0
  160.2100  210.9350  151.6500 C   0  0  0  0  0  0  0  0  0  0  0  0
  161.3360  214.4530  149.5410 C   0  0  0  0  0  2  0  0  0  0  0  0
  161.0010  214.3600  148.0630 C   0  0  0  0  0  2  0  0  0  0  0  0
  162.2110  214.4510  147.2760 N   0  0  0  0  0  2  0  0  0  0  0  0
  162.0710  213.5090  146.1760 C   0  0  0  0  0  2  0  0  0  0  0  0
  163.4100  213.3480  144.1610 N   0  0  0  0  0  1  0  0  0  0  0  0
  162.4500  214.1690  144.8670 C   0  0  0  0  0  2  0  0  0  0  0  0
  158.3010  212.9670  154.7740 C   0  0  0  0  0  0  0  0  0  0  0  0
  157.3650  210.7430  155.3480 C   0  0  0  0  0  3  0  0  0  0  0  0
  159.4100  212.8360  155.7540 C   0  0  0  0  0  2  0  0  0  0  0  0
  158.1410  214.4490  153.8640 Cl  0  0  0  0  0  0  0  0  0  0  0  0
  159.8670  210.3990  155.4590 C   0  0  0  0  0  0  0  0  0  0  0  0
  157.3570  212.0410  154.6560 C   0  0  0  0  0  3  0  0  0  0  0  0
  160.2860  211.6660  155.4580 C   0  0  0  0  0  3  0  0  0  0  0  0
  158.4500  210.0370  155.6980 C   0  0  0  0  0  3  0  0  0  0  0  0
  160.0910  206.2410  153.1640 C   0  0  0  0  0  2  0  0  0  0  0  0
  162.2400  203.6940  151.3750 C   0  0  0  0  0  2  0  0  0  0  0  0
  160.9890  203.9980  150.1850 S   0  0  0  0  0  0  0  0  0  0  0  0
  161.5950  204.3420  148.8470 O   0  0  0  0  0  0  0  0  0  0  0  0
  160.1690  206.4590  149.9720 C   0  0  0  0  0  1  0  0  0  0  0  0
  161.7870  204.5240  152.5620 C   0  0  0  0  0  2  0  0  0  0  0  0
  160.9820  205.7150  152.0520 C   0  0  1  0  0  3  0  0  0  0  0  0
  160.0680  202.8120  150.0660 O   0  0  0  0  0  0  0  0  0  0  0  0
  160.1580  205.3380  150.9050 N   0  0  0  0  0  0  0  0  0  0  0  0
  162.2830  209.6420  155.3300 C   0  0  2  0  0  3  0  0  0  0  0  0
  162.8370  209.5630  156.6310 O   0  0  0  0  0  0  0  0  0  0  0  0
  163.1670  210.8570  157.0720 C   0  0  0  0  0  1  0  0  0  0  0  0
  162.6370  210.9500  154.6170 C   0  0  0  0  0  2  0  0  0  0  0  0
  164.0410  210.8690  154.0450 C   0  0  0  0  0  1  0  0  0  0  0  0
  1  2  1  0  0  0  0
  1  3  2  0  0  0  0
  2 39  1  0  0  0  0
  2 26  1  0  0  0  0
  4  1  1  0  0  0  0
  5  6  1  0  0  0  0
  5  8  1  0  0  0  0
  6 15  2  0  0  0  0
  8 11  1  6  0  0  0
  8 13  1  0  0  0  0
  9 12  1  0  0  0  0
  9  6  1  0  0  0  0
 12 14  1  0  0  0  0
 13 10  1  0  0  0  0
 13  4  1  1  0  0  0
 14  7  2  0  0  0  0
 15  7  1  0  0  0  0
 15 10  1  0  0  0  0
 16 12  1  0  0  0  0
 17 16  1  0  0  0  0
 18 17  1  0  0  0  0
 19 18  1  0  0  0  0
 20 21  1  0  0  0  0
 21 19  1  0  0  0  0
 22 24  1  0  0  0  0
 23 29  2  0  0  0  0
 25 22  1  0  0  0  0
 26 29  1  0  0  0  0
 27 22  2  0  0  0  0
 27 23  1  0  0  0  0
 28 26  2  0  0  0  0
 28 24  1  0  0  0  0
 30  4  1  0  0  0  0
 31 35  1  0  0  0  0
 32 38  1  0  0  0  0
 32 31  1  0  0  0  0
 33 32  2  0  0  0  0
 34 38  1  0  0  0  0
 36 35  1  0  0  0  0
 36 30  1  1  0  0  0
 37 32  2  0  0  0  0
 38 36  1  0  0  0  0
 39 42  1  1  0  0  0
 39 40  1  0  0  0  0
 40 41  1  0  0  0  0
 43 42  1  0  0  0  0
M  END
>  <MODEL>
3

>  <REMARK>
 VINA RESULT:       0.4      1.572      2.505
  Name = 
  12 active torsions:
  status: ('A' for Active; 'I' for Inactive)
    1  A    between atoms: C_1  and  N_34
    2  A    between atoms: C_1  and  C_35
    3  A    between atoms: O_2  and  C_27
    4  A    between atoms: C_6  and  C_27
    5  A    between atoms: C_11  and  N_22
    6  A    between atoms: C_11  and  C_36
    7  A    between atoms: C_21  and  N_30
    8  A    between atoms: C_27  and  N_30
    9  A    between atoms: N_29  and  C_31
   10  A    between atoms: N_29  and  C_36
   11  A    between atoms: C_31  and  C_40
   12  A    between atoms: N_34  and  C_38
                            x       y       z     vdW  Elec       q    Type
                         _______ _______ _______ _____ _____    ______ ____

>  <TORSDO>
F 12

$$$$
=
 OpenBabel11062410073D

 43 46  0  0  1  0  0  0  0  0999 V2000
  160.5170  212.0620  151.9380 C   0  0  0  0  0  0  0  0  0  0  0  0
  159.4660  211.7490  152.8720 N   0  0  0  0  0  0  0  0  0  0  0  0
  160.9790  213.2420  151.9170 O   0  0  0  0  0  0  0  0  0  0  0  0
  161.0720  211.0580  151.0610 N   0  0  0  0  0  0  0  0  0  0  0  0
  161.7980  207.5530  152.3560 C   0  0  0  0  0  2  0  0  0  0  0  0
  161.4250  206.7820  151.1240 C   0  0  0  0  0  0  0  0  0  0  0  0
  160.4640  206.5870  148.8850 C   0  0  0  0  0  3  0  0  0  0  0  0
  162.0920  209.0190  152.0720 C   0  0  2  0  0  3  0  0  0  0  0  0
  161.5250  205.2850  151.2120 C   0  0  0  0  0  2  0  0  0  0  0  0
  160.6910  208.8740  149.9630 C   0  0  0  0  0  2  0  0  0  0  0  0
  162.2620  209.7300  153.4010 C   0  0  0  0  0  1  0  0  0  0  0  0
  161.3760  204.6350  149.9100 N   0  0  0  0  0  0  0  0  0  0  0  0
  160.9270  209.6160  151.2830 C   0  0  2  0  0  3  0  0  0  0  0  0
  160.7280  205.2870  148.8200 C   0  0  0  0  0  3  0  0  0  0  0  0
  160.8440  207.3800  150.0640 C   0  0  0  0  0  0  0  0  0  0  0  0
  161.7160  203.2250  149.7930 C   0  0  0  0  0  2  0  0  0  0  0  0
  160.4740  202.3750  149.9870 C   0  0  0  0  0  2  0  0  0  0  0  0
  160.0170  201.8690  148.7120 N   0  0  0  0  0  2  0  0  0  0  0  0
  161.1670  201.2570  148.0640 C   0  0  0  0  0  2  0  0  0  0  0  0
  160.9860  202.3230  145.8940 N   0  0  0  0  0  1  0  0  0  0  0  0
  160.8940  201.0580  146.5880 C   0  0  0  0  0  2  0  0  0  0  0  0
  161.4020  210.3190  156.6190 C   0  0  0  0  0  0  0  0  0  0  0  0
  160.8470  212.7030  156.2180 C   0  0  0  0  0  3  0  0  0  0  0  0
  160.0880  209.8500  156.1070 C   0  0  0  0  0  2  0  0  0  0  0  0
  162.5320  209.1500  157.2570 Cl  0  0  0  0  0  0  0  0  0  0  0  0
  159.8160  211.4970  154.2490 C   0  0  0  0  0  0  0  0  0  0  0  0
  161.6940  211.6100  156.7210 C   0  0  0  0  0  3  0  0  0  0  0  0
  159.8710  210.2360  154.6830 C   0  0  0  0  0  3  0  0  0  0  0  0
  160.0330  212.6520  155.1540 C   0  0  0  0  0  3  0  0  0  0  0  0
  162.0400  211.4480  150.0470 C   0  0  0  0  0  2  0  0  0  0  0  0
  162.3540  214.3650  147.6600 C   0  0  0  0  0  2  0  0  0  0  0  0
  160.9700  213.5150  146.9990 S   0  0  0  0  0  0  0  0  0  0  0  0
  159.8040  214.4530  146.8110 O   0  0  0  0  0  0  0  0  0  0  0  0
  159.3170  212.4800  148.7220 C   0  0  0  0  0  1  0  0  0  0  0  0
  162.7950  213.4610  148.7960 C   0  0  0  0  0  2  0  0  0  0  0  0
  161.5820  212.7010  149.3220 C   0  0  1  0  0  3  0  0  0  0  0  0
  161.3300  212.8420  145.6990 O   0  0  0  0  0  0  0  0  0  0  0  0
  160.6820  212.3310  148.2320 N   0  0  0  0  0  0  0  0  0  0  0  0
  158.0940  211.4840  152.3910 C   0  0  2  0  0  3  0  0  0  0  0  0
  157.5800  212.5140  151.5650 O   0  0  0  0  0  0  0  0  0  0  0  0
  158.0330  213.7570  152.0410 C   0  0  0  0  0  1  0  0  0  0  0  0
  157.1330  211.0990  153.5190 C   0  0  0  0  0  2  0  0  0  0  0  0
  156.5230  212.3460  154.1340 C   0  0  0  0  0  1  0  0  0  0  0  0
  1  2  1  0  0  0  0
  2 26  1  0  0  0  0
  3  1  2  0  0  0  0
  4  1  1  0  0  0  0
  6  9  1  0  0  0  0
  6  5  1  0  0  0  0
  7 15  1  0  0  0  0
  8  5  1  0  0  0  0
  8 11  1  1  0  0  0
 10 15  1  0  0  0  0
 10 13  1  0  0  0  0
 12  9  1  0  0  0  0
 13  4  1  6  0  0  0
 13  8  1  0  0  0  0
 14  7  2  0  0  0  0
 14 12  1  0  0  0  0
 15  6  2  0  0  0  0
 16 12  1  0  0  0  0
 16 17  1  0  0  0  0
 18 17  1  0  0  0  0
 19 18  1  0  0  0  0
 20 21  1  0  0  0  0
 21 19  1  0  0  0  0
 22 27  2  0  0  0  0
 22 25  1  0  0  0  0
 23 27  1  0  0  0  0
 24 22  1  0  0  0  0
 26 28  2  0  0  0  0
 26 29  1  0  0  0  0
 28 24  1  0  0  0  0
 29 23  2  0  0  0  0
 30  4  1  0  0  0  0
 31 35  1  0  0  0  0
 32 31  1  0  0  0  0
 32 38  1  0  0  0  0
 33 32  2  0  0  0  0
 35 36  1  0  0  0  0
 36 30  1  6  0  0  0
 37 32  2  0  0  0  0
 38 34  1  0  0  0  0
 38 36  1  0  0  0  0
 39  2  1  0  0  0  0
 39 42  1  1  0  0  0
 40 41  1  0  0  0  0
 40 39  1  0  0  0  0
 42 43  1  0  0  0  0
M  END
>  <MODEL>
4

>  <REMARK>
 VINA RESULT:       0.5      3.771      7.213
  Name = 
  12 active torsions:
  status: ('A' for Active; 'I' for Inactive)
    1  A    between atoms: C_1  and  N_34
    2  A    between atoms: C_1  and  C_35
    3  A    between atoms: O_2  and  C_27
    4  A    between atoms: C_6  and  C_27
    5  A    between atoms: C_11  and  N_22
    6  A    between atoms: C_11  and  C_36
    7  A    between atoms: C_21  and  N_30
    8  A    between atoms: C_27  and  N_30
    9  A    between atoms: N_29  and  C_31
   10  A    between atoms: N_29  and  C_36
   11  A    between atoms: C_31  and  C_40
   12  A    between atoms: N_34  and  C_38
                            x       y       z     vdW  Elec       q    Type
                         _______ _______ _______ _____ _____    ______ ____

>  <TORSDO>
F 12

$$$$
=
 OpenBabel11062410073D

 43 46  0  0  1  0  0  0  0  0999 V2000
  160.4250  211.5820  153.1360 C   0  0  0  0  0  0  0  0  0  0  0  0
  159.3470  211.0090  153.9010 N   0  0  0  0  0  0  0  0  0  0  0  0
  160.8900  212.7070  153.4910 O   0  0  0  0  0  0  0  0  0  0  0  0
  161.0020  210.8910  152.0070 N   0  0  0  0  0  0  0  0  0  0  0  0
  161.5980  207.1410  152.2850 C   0  0  0  0  0  2  0  0  0  0  0  0
  161.3960  206.7790  150.8430 C   0  0  0  0  0  0  0  0  0  0  0  0
  160.7340  207.2810  148.5440 C   0  0  0  0  0  3  0  0  0  0  0  0
  161.9080  208.6170  152.4880 C   0  0  2  0  0  3  0  0  0  0  0  0
  161.5020  205.3210  150.4940 C   0  0  0  0  0  2  0  0  0  0  0  0
  160.7920  209.1390  150.2710 C   0  0  0  0  0  2  0  0  0  0  0  0
  161.8970  208.8980  153.9780 C   0  0  0  0  0  1  0  0  0  0  0  0
  161.5310  205.0900  149.0500 N   0  0  0  0  0  0  0  0  0  0  0  0
  160.8470  209.4510  151.7710 C   0  0  2  0  0  3  0  0  0  0  0  0
  161.0200  206.0520  148.1300 C   0  0  0  0  0  3  0  0  0  0  0  0
  160.9490  207.6790  149.9430 C   0  0  0  0  0  0  0  0  0  0  0  0
  161.8990  203.7690  148.5640 C   0  0  0  0  0  2  0  0  0  0  0  0
  160.6690  202.8840  148.4820 C   0  0  0  0  0  2  0  0  0  0  0  0
  161.0060  201.5320  148.8700 N   0  0  0  0  0  2  0  0  0  0  0  0
  160.4940  201.3390  150.2170 C   0  0  0  0  0  2  0  0  0  0  0  0
  160.8210  202.8030  152.1220 N   0  0  0  0  0  1  0  0  0  0  0  0
  161.4810  201.8690  151.2360 C   0  0  0  0  0  2  0  0  0  0  0  0
  160.7540  208.1330  156.9970 C   0  0  0  0  0  0  0  0  0  0  0  0
  161.2570  210.5600  157.0890 C   0  0  0  0  0  3  0  0  0  0  0  0
  159.3320  208.3660  156.6350 C   0  0  0  0  0  2  0  0  0  0  0  0
  161.3120  206.4960  157.2410 Cl  0  0  0  0  0  0  0  0  0  0  0  0
  159.6590  210.3420  155.1420 C   0  0  0  0  0  0  0  0  0  0  0  0
  161.5830  209.1360  157.2610 C   0  0  0  0  0  3  0  0  0  0  0  0
  159.1950  209.1070  155.3470 C   0  0  0  0  0  3  0  0  0  0  0  0
  160.4220  211.0790  156.1770 C   0  0  0  0  0  3  0  0  0  0  0  0
  161.9990  211.5630  151.1880 C   0  0  0  0  0  2  0  0  0  0  0  0
  160.5830  214.0630  148.7290 C   0  0  0  0  0  2  0  0  0  0  0  0
  161.9500  213.4260  147.8360 S   0  0  0  0  0  0  0  0  0  0  0  0
  161.5250  212.9640  146.4640 O   0  0  0  0  0  0  0  0  0  0  0  0
  162.4100  210.8770  148.0900 C   0  0  0  0  0  1  0  0  0  0  0  0
  160.7040  213.3710  150.0740 C   0  0  0  0  0  2  0  0  0  0  0  0
  161.3910  212.0240  149.8750 C   0  0  1  0  0  3  0  0  0  0  0  0
  163.0480  214.4530  147.7380 O   0  0  0  0  0  0  0  0  0  0  0  0
  162.4380  212.1150  148.8590 N   0  0  0  0  0  0  0  0  0  0  0  0
  157.9890  210.9200  153.3260 C   0  0  2  0  0  3  0  0  0  0  0  0
  157.8370  211.6570  152.1260 O   0  0  0  0  0  0  0  0  0  0  0  0
  157.8720  213.0310  152.4200 C   0  0  0  0  0  1  0  0  0  0  0  0
  156.8900  211.2270  154.3480 C   0  0  0  0  0  2  0  0  0  0  0  0
  155.9230  210.0600  154.4420 C   0  0  0  0  0  1  0  0  0  0  0  0
  1  3  2  0  0  0  0
  1  2  1  0  0  0  0
  2 26  1  0  0  0  0
  4  1  1  0  0  0  0
  5  8  1  0  0  0  0
  6  5  1  0  0  0  0
  7 15  1  0  0  0  0
  8 11  1  1  0  0  0
  9  6  1  0  0  0  0
 10 13  1  0  0  0  0
 12  9  1  0  0  0  0
 13  4  1  6  0  0  0
 13  8  1  0  0  0  0
 14  7  2  0  0  0  0
 14 12  1  0  0  0  0
 15 10  1  0  0  0  0
 15  6  2  0  0  0  0
 16 12  1  0  0  0  0
 17 16  1  0  0  0  0
 17 18  1  0  0  0  0
 18 19  1  0  0  0  0
 19 21  1  0  0  0  0
 21 20  1  0  0  0  0
 22 25  1  0  0  0  0
 22 27  2  0  0  0  0
 23 27  1  0  0  0  0
 24 22  1  0  0  0  0
 26 28  2  0  0  0  0
 26 29  1  0  0  0  0
 28 24  1  0  0  0  0
 29 23  2  0  0  0  0
 30  4  1  0  0  0  0
 31 35  1  0  0  0  0
 32 31  1  0  0  0  0
 32 38  1  0  0  0  0
 33 32  2  0  0  0  0
 34 38  1  0  0  0  0
 36 35  1  0  0  0  0
 36 30  1  1  0  0  0
 37 32  2  0  0  0  0
 38 36  1  0  0  0  0
 39  2  1  0  0  0  0
 39 42  1  1  0  0  0
 40 41  1  0  0  0  0
 40 39  1  0  0  0  0
 42 43  1  0  0  0  0
M  END
>  <MODEL>
5

>  <REMARK>
 VINA RESULT:       0.7      3.566      7.230
  Name = 
  12 active torsions:
  status: ('A' for Active; 'I' for Inactive)
    1  A    between atoms: C_1  and  N_34
    2  A    between atoms: C_1  and  C_35
    3  A    between atoms: O_2  and  C_27
    4  A    between atoms: C_6  and  C_27
    5  A    between atoms: C_11  and  N_22
    6  A    between atoms: C_11  and  C_36
    7  A    between atoms: C_21  and  N_30
    8  A    between atoms: C_27  and  N_30
    9  A    between atoms: N_29  and  C_31
   10  A    between atoms: N_29  and  C_36
   11  A    between atoms: C_31  and  C_40
   12  A    between atoms: N_34  and  C_38
                            x       y       z     vdW  Elec       q    Type
                         _______ _______ _______ _____ _____    ______ ____

>  <TORSDO>
F 12

$$$$
=
 OpenBabel11062410073D

 43 46  0  0  1  0  0  0  0  0999 V2000
  160.1460  211.6090  154.7970 C   0  0  0  0  0  0  0  0  0  0  0  0
  161.2510  211.4440  153.8870 N   0  0  0  0  0  0  0  0  0  0  0  0
  159.7080  212.7780  155.0150 O   0  0  0  0  0  0  0  0  0  0  0  0
  159.5150  210.4750  155.4320 N   0  0  0  0  0  0  0  0  0  0  0  0
  160.5530  206.8150  155.3120 C   0  0  0  0  0  2  0  0  0  0  0  0
  160.8180  206.7100  153.8390 C   0  0  0  0  0  0  0  0  0  0  0  0
  160.7580  207.5660  151.5490 C   0  0  0  0  0  3  0  0  0  0  0  0
  160.5730  208.2500  155.8180 C   0  0  2  0  0  3  0  0  0  0  0  0
  161.2300  205.3590  153.3230 C   0  0  0  0  0  2  0  0  0  0  0  0
  160.0580  209.0660  153.4720 C   0  0  0  0  0  2  0  0  0  0  0  0
  160.1050  208.2460  157.2600 C   0  0  0  0  0  1  0  0  0  0  0  0
  161.6950  205.4060  151.9380 N   0  0  0  0  0  0  0  0  0  0  0  0
  159.6450  209.0970  154.9480 C   0  0  2  0  0  3  0  0  0  0  0  0
  161.3270  206.4680  151.0610 C   0  0  0  0  0  3  0  0  0  0  0  0
  160.5130  207.7150  152.9910 C   0  0  0  0  0  0  0  0  0  0  0  0
  162.3740  204.2400  151.3930 C   0  0  0  0  0  2  0  0  0  0  0  0
  161.5790  203.6700  150.2320 C   0  0  0  0  0  2  0  0  0  0  0  0
  160.8320  202.5110  150.6670 N   0  0  0  0  0  2  0  0  0  0  0  0
  160.3670  201.8340  149.4660 C   0  0  0  0  0  2  0  0  0  0  0  0
  161.2650  201.4990  147.2390 N   0  0  0  0  0  1  0  0  0  0  0  0
  160.9390  202.4990  148.2320 C   0  0  0  0  0  2  0  0  0  0  0  0
  160.7360  212.6600  149.6330 C   0  0  0  0  0  0  0  0  0  0  0  0
  162.0180  210.6480  150.3110 C   0  0  0  0  0  3  0  0  0  0  0  0
  159.6250  212.3590  150.5740 C   0  0  0  0  0  2  0  0  0  0  0  0
  160.6030  214.0430  148.5760 Cl  0  0  0  0  0  0  0  0  0  0  0  0
  160.9860  211.4680  152.4680 C   0  0  0  0  0  0  0  0  0  0  0  0
  161.7700  211.8400  149.4860 C   0  0  0  0  0  3  0  0  0  0  0  0
  160.0830  212.3280  151.9930 C   0  0  0  0  0  3  0  0  0  0  0  0
  161.6750  210.4860  151.5970 C   0  0  0  0  0  3  0  0  0  0  0  0
  158.4900  210.6980  156.4410 C   0  0  0  0  0  2  0  0  0  0  0  0
  155.1390  211.3730  154.8230 C   0  0  0  0  0  2  0  0  0  0  0  0
  154.9600  212.1940  156.3610 S   0  0  0  0  0  0  0  0  0  0  0  0
  154.5030  213.6170  156.1590 O   0  0  0  0  0  0  0  0  0  0  0  0
  157.0600  213.4410  157.2590 C   0  0  0  0  0  1  0  0  0  0  0  0
  156.5040  210.7210  154.9440 C   0  0  0  0  0  2  0  0  0  0  0  0
  157.3680  211.5560  155.8840 C   0  0  1  0  0  3  0  0  0  0  0  0
  154.0030  211.4460  157.2550 O   0  0  0  0  0  0  0  0  0  0  0  0
  156.5740  212.0940  156.9860 N   0  0  0  0  0  0  0  0  0  0  0  0
  162.5820  211.0490  154.3920 C   0  0  2  0  0  3  0  0  0  0  0  0
  163.2850  210.1910  153.5110 O   0  0  0  0  0  0  0  0  0  0  0  0
  164.4720  210.8220  153.1000 C   0  0  0  0  0  1  0  0  0  0  0  0
  162.5390  210.5130  155.8260 C   0  0  0  0  0  2  0  0  0  0  0  0
  163.4790  211.3130  156.7100 C   0  0  0  0  0  1  0  0  0  0  0  0
  1  3  2  0  0  0  0
  1  4  1  0  0  0  0
  2 39  1  0  0  0  0
  2  1  1  0  0  0  0
  4 30  1  0  0  0  0
  5  8  1  0  0  0  0
  6  5  1  0  0  0  0
  7 15  1  0  0  0  0
  8 11  1  1  0  0  0
  9  6  1  0  0  0  0
 10 13  1  0  0  0  0
 12  9  1  0  0  0  0
 13  4  1  1  0  0  0
 13  8  1  0  0  0  0
 14  7  2  0  0  0  0
 14 12  1  0  0  0  0
 15 10  1  0  0  0  0
 15  6  2  0  0  0  0
 16 12  1  0  0  0  0
 17 18  1  0  0  0  0
 17 16  1  0  0  0  0
 19 18  1  0  0  0  0
 20 21  1  0  0  0  0
 21 19  1  0  0  0  0
 22 24  1  0  0  0  0
 23 29  2  0  0  0  0
 24 28  1  0  0  0  0
 25 22  1  0  0  0  0
 26  2  1  0  0  0  0
 27 22  2  0  0  0  0
 27 23  1  0  0  0  0
 28 26  2  0  0  0  0
 29 26  1  0  0  0  0
 31 35  1  0  0  0  0
 31 32  1  0  0  0  0
 32 38  1  0  0  0  0
 32 37  2  0  0  0  0
 33 32  2  0  0  0  0
 35 36  1  0  0  0  0
 36 30  1  1  0  0  0
 36 38  1  0  0  0  0
 38 34  1  0  0  0  0
 39 42  1  1  0  0  0
 40 39  1  0  0  0  0
 41 40  1  0  0  0  0
 42 43  1  0  0  0  0
M  END
>  <MODEL>
6

>  <REMARK>
 VINA RESULT:       1.4      4.101      7.808
  Name = 
  12 active torsions:
  status: ('A' for Active; 'I' for Inactive)
    1  A    between atoms: C_1  and  N_34
    2  A    between atoms: C_1  and  C_35
    3  A    between atoms: O_2  and  C_27
    4  A    between atoms: C_6  and  C_27
    5  A    between atoms: C_11  and  N_22
    6  A    between atoms: C_11  and  C_36
    7  A    between atoms: C_21  and  N_30
    8  A    between atoms: C_27  and  N_30
    9  A    between atoms: N_29  and  C_31
   10  A    between atoms: N_29  and  C_36
   11  A    between atoms: C_31  and  C_40
   12  A    between atoms: N_34  and  C_38
                            x       y       z     vdW  Elec       q    Type
                         _______ _______ _______ _____ _____    ______ ____

>  <TORSDO>
F 12

$$$$
=
 OpenBabel11062410073D

 43 46  0  0  1  0  0  0  0  0999 V2000
  160.3530  212.9110  151.1850 C   0  0  0  0  0  0  0  0  0  0  0  0
  159.0450  212.6990  151.7490 N   0  0  0  0  0  0  0  0  0  0  0  0
  160.8330  214.0840  151.1880 O   0  0  0  0  0  0  0  0  0  0  0  0
  161.1320  211.8180  150.6520 N   0  0  0  0  0  0  0  0  0  0  0  0
  161.3850  208.4490  152.4050 C   0  0  0  0  0  2  0  0  0  0  0  0
  161.2730  207.5640  151.1980 C   0  0  0  0  0  0  0  0  0  0  0  0
  160.8470  207.1630  148.8250 C   0  0  0  0  0  3  0  0  0  0  0  0
  161.8000  209.8720  152.0610 C   0  0  2  0  0  3  0  0  0  0  0  0
  161.2840  206.0820  151.4470 C   0  0  0  0  0  2  0  0  0  0  0  0
  160.9190  209.5410  149.7060 C   0  0  0  0  0  2  0  0  0  0  0  0
  161.6900  210.7100  153.3200 C   0  0  0  0  0  1  0  0  0  0  0  0
  161.4120  205.3070  150.2140 N   0  0  0  0  0  0  0  0  0  0  0  0
  160.8770  210.4090  150.9690 C   0  0  2  0  0  3  0  0  0  0  0  0
  161.0620  205.8570  148.9460 C   0  0  0  0  0  3  0  0  0  0  0  0
  160.9790  208.0630  149.9790 C   0  0  0  0  0  0  0  0  0  0  0  0
  161.7070  203.8850  150.3130 C   0  0  0  0  0  2  0  0  0  0  0  0
  161.2840  203.1770  149.0390 C   0  0  0  0  0  2  0  0  0  0  0  0
  160.0930  202.3940  149.2810 N   0  0  0  0  0  2  0  0  0  0  0  0
  160.3430  201.0670  148.7400 C   0  0  0  0  0  2  0  0  0  0  0  0
  160.8700  199.9940  146.6310 N   0  0  0  0  0  1  0  0  0  0  0  0
  161.1180  201.1650  147.4430 C   0  0  0  0  0  2  0  0  0  0  0  0
  159.4860  211.5770  156.0370 C   0  0  0  0  0  0  0  0  0  0  0  0
  159.5160  213.9300  155.2530 C   0  0  0  0  0  3  0  0  0  0  0  0
  158.3220  211.2290  155.1810 C   0  0  0  0  0  2  0  0  0  0  0  0
  160.1440  210.3660  157.1100 Cl  0  0  0  0  0  0  0  0  0  0  0  0
  158.9180  212.6060  153.1840 C   0  0  0  0  0  0  0  0  0  0  0  0
  159.9630  212.8140  156.1020 C   0  0  0  0  0  3  0  0  0  0  0  0
  158.6120  211.4270  153.7310 C   0  0  0  0  0  3  0  0  0  0  0  0
  159.0610  213.8380  153.9960 C   0  0  0  0  0  3  0  0  0  0  0  0
  162.3900  212.0970  149.9760 C   0  0  0  0  0  2  0  0  0  0  0  0
  163.3240  214.4320  147.1510 C   0  0  0  0  0  2  0  0  0  0  0  0
  162.8180  213.0010  146.2740 S   0  0  0  0  0  0  0  0  0  0  0  0
  161.7920  213.3500  145.2250 O   0  0  0  0  0  0  0  0  0  0  0  0
  160.7750  211.7120  147.2410 C   0  0  0  0  0  1  0  0  0  0  0  0
  163.2290  213.9910  148.6000 C   0  0  0  0  0  2  0  0  0  0  0  0
  162.1540  212.9170  148.7200 C   0  0  1  0  0  3  0  0  0  0  0  0
  164.0050  212.3100  145.6520 O   0  0  0  0  0  0  0  0  0  0  0  0
  162.1610  212.0350  147.5550 N   0  0  0  0  0  0  0  0  0  0  0  0
  157.8980  212.3750  150.8760 C   0  0  2  0  0  3  0  0  0  0  0  0
  158.2670  212.1320  149.5310 O   0  0  0  0  0  0  0  0  0  0  0  0
  157.2880  212.6720  148.6780 C   0  0  0  0  0  1  0  0  0  0  0  0
  156.7530  213.3850  150.9990 C   0  0  0  0  0  2  0  0  0  0  0  0
  157.0900  214.4310  152.0460 C   0  0  0  0  0  1  0  0  0  0  0  0
  1  3  2  0  0  0  0
  1  2  1  0  0  0  0
  2 26  1  0  0  0  0
  4  1  1  0  0  0  0
  6  9  1  0  0  0  0
  6  5  1  0  0  0  0
  7 14  2  0  0  0  0
  7 15  1  0  0  0  0
  8  5  1  0  0  0  0
  8 11  1  1  0  0  0
 10 15  1  0  0  0  0
 10 13  1  0  0  0  0
 12 16  1  0  0  0  0
 12  9  1  0  0  0  0
 13  4  1  6  0  0  0
 13  8  1  0  0  0  0
 14 12  1  0  0  0  0
 15  6  2  0  0  0  0
 17 18  1  0  0  0  0
 17 16  1  0  0  0  0
 19 18  1  0  0  0  0
 20 21  1  0  0  0  0
 21 19  1  0  0  0  0
 22 27  2  0  0  0  0
 22 25  1  0  0  0  0
 23 27  1  0  0  0  0
 24 22  1  0  0  0  0
 26 28  2  0  0  0  0
 26 29  1  0  0  0  0
 28 24  1  0  0  0  0
 29 23  2  0  0  0  0
 30  4  1  0  0  0  0
 31 35  1  0  0  0  0
 32 31  1  0  0  0  0
 32 38  1  0  0  0  0
 33 32  2  0  0  0  0
 34 38  1  0  0  0  0
 35 36  1  0  0  0  0
 36 30  1  1  0  0  0
 37 32  2  0  0  0  0
 38 36  1  0  0  0  0
 39 42  1  6  0  0  0
 39  2  1  0  0  0  0
 40 39  1  0  0  0  0
 41 40  1  0  0  0  0
 42 43  1  0  0  0  0
M  END
>  <MODEL>
7

>  <REMARK>
 VINA RESULT:       1.6      3.710      7.342
  Name = 
  12 active torsions:
  status: ('A' for Active; 'I' for Inactive)
    1  A    between atoms: C_1  and  N_34
    2  A    between atoms: C_1  and  C_35
    3  A    between atoms: O_2  and  C_27
    4  A    between atoms: C_6  and  C_27
    5  A    between atoms: C_11  and  N_22
    6  A    between atoms: C_11  and  C_36
    7  A    between atoms: C_21  and  N_30
    8  A    between atoms: C_27  and  N_30
    9  A    between atoms: N_29  and  C_31
   10  A    between atoms: N_29  and  C_36
   11  A    between atoms: C_31  and  C_40
   12  A    between atoms: N_34  and  C_38
                            x       y       z     vdW  Elec       q    Type
                         _______ _______ _______ _____ _____    ______ ____

>  <TORSDO>
F 12

$$$$
