=
 OpenBabel11052422003D

 30 33  0  0  1  0  0  0  0  0999 V2000
  160.9650  203.1200  147.9530 C   0  0  0  0  0  0  0  0  0  0  0  0
  159.2600  201.9330  149.4670 C   0  0  0  0  0  2  0  0  0  0  0  0
  161.7100  204.0910  152.5980 C   0  0  0  0  0  2  0  0  0  0  0  0
  160.3580  206.1130  148.9620 C   0  0  0  0  0  2  0  0  0  0  0  0
  162.1990  203.8350  147.9140 N   0  0  0  0  0  2  0  0  0  0  0  0
  161.6860  206.0840  146.7980 C   0  0  2  0  0  3  0  0  0  0  0  0
  163.9810  204.8110  146.2440 S   0  0  0  0  0  0  0  0  0  0  0  0
  161.7820  207.5980  151.0610 N   0  0  0  0  0  0  0  0  0  0  0  0
  162.2230  205.5000  152.2990 C   0  0  2  0  0  3  0  0  0  0  0  0
  162.4900  204.8110  146.9090 C   0  0  0  0  0  0  0  0  0  0  0  0
  161.3580  206.7060  148.0840 N   0  0  0  0  0  0  0  0  0  0  0  0
  160.1280  200.6900  149.6880 C   0  0  0  0  0  2  0  0  0  0  0  0
  162.7890  207.6850  149.9850 C   0  0  0  0  0  2  0  0  0  0  0  0
  160.5870  202.4870  146.9310 O   0  0  0  0  0  0  0  0  0  0  0  0
  161.5160  203.2740  151.3200 C   0  0  1  0  0  3  0  0  0  0  0  0
  161.3540  200.9120  150.5710 C   0  0  0  0  0  2  0  0  0  0  0  0
  160.0500  203.2040  149.1530 C   0  0  1  0  0  3  0  0  0  0  0  0
  161.0850  205.3770  150.0690 C   0  0  1  0  0  3  0  0  0  0  0  0
  162.3370  206.2600  153.6070 C   0  0  0  0  0  1  0  0  0  0  0  0
  161.2850  206.2350  151.3280 C   0  0  2  0  0  3  0  0  0  0  0  0
  162.6260  208.6420  147.8070 O   0  0  0  0  0  0  0  0  0  0  0  0
  161.0780  201.8710  151.7170 C   0  0  0  0  0  2  0  0  0  0  0  0
  160.5070  203.9970  150.4040 C   0  0  2  0  0  3  0  0  0  0  0  0
  162.2300  207.7320  148.5810 C   0  0  0  0  0  0  0  0  0  0  0  0
  160.5850  206.1350  145.7370 C   0  0  0  0  0  2  0  0  0  0  0  0
  161.5130  205.7620  143.3230 C   0  0  0  0  0  1  0  0  0  0  0  0
  160.6280  204.7600  144.5470 S   0  0  0  0  0  0  0  0  0  0  0  0
  160.6650  208.5220  150.8710 C   0  0  0  0  0  2  0  0  0  0  0  0
  161.8360  209.9220  152.5670 C   0  0  0  0  0  1  0  0  0  0  0  0
  160.4900  209.4020  152.0980 C   0  0  0  0  0  2  0  0  0  0  0  0
  1 17  1  0  0  0  0
  2 12  1  0  0  0  0
  5  1  1  0  0  0  0
  6 25  1  1  0  0  0
  6 10  1  0  0  0  0
  6 11  1  0  0  0  0
  7 10  2  0  0  0  0
  9  3  1  0  0  0  0
  9 19  1  1  0  0  0
 10  5  1  0  0  0  0
 11 24  1  0  0  0  0
 11  4  1  0  0  0  0
 12 16  1  0  0  0  0
 13  8  1  0  0  0  0
 14  1  2  0  0  0  0
 15 22  1  1  0  0  0
 15  3  1  0  0  0  0
 16 22  1  0  0  0  0
 17  2  1  1  0  0  0
 17 23  1  0  0  0  0
 18  4  1  6  0  0  0
 18 23  1  0  0  0  0
 18 20  1  0  0  0  0
 20  8  1  6  0  0  0
 20  9  1  0  0  0  0
 21 24  2  0  0  0  0
 23 15  1  0  0  0  0
 24 13  1  0  0  0  0
 26 27  1  0  0  0  0
 27 25  1  0  0  0  0
 28  8  1  0  0  0  0
 28 30  1  0  0  0  0
 30 29  1  0  0  0  0
M  END
>  <MODEL>
1

>  <REMARK>
 VINA RESULT:      -3.9      0.000      0.000
  Name = 
  4 active torsions:
  status: ('A' for Active; 'I' for Inactive)
    1  A    between atoms: C_6  and  C_8
    2  A    between atoms: C_6  and  S_21
    3  A    between atoms: C_7  and  N_10
    4  A    between atoms: C_7  and  C_26
                            x       y       z     vdW  Elec       q    Type
                         _______ _______ _______ _____ _____    ______ ____

>  <TORSDO>
F 4

$$$$
=
 OpenBabel11052422003D

 30 33  0  0  1  0  0  0  0  0999 V2000
  158.4440  213.4230  153.6630 C   0  0  0  0  0  0  0  0  0  0  0  0
  157.5140  213.1910  151.2780 C   0  0  0  0  0  2  0  0  0  0  0  0
  161.4240  210.9640  150.8090 C   0  0  0  0  0  2  0  0  0  0  0  0
  158.8040  210.2800  154.2450 C   0  0  0  0  0  2  0  0  0  0  0  0
  159.5980  213.2790  154.4900 N   0  0  0  0  0  2  0  0  0  0  0  0
  158.9320  211.6670  156.3690 C   0  0  2  0  0  3  0  0  0  0  0  0
  160.4920  213.7800  156.9120 S   0  0  0  0  0  0  0  0  0  0  0  0
  161.2400  208.6780  153.8760 N   0  0  0  0  0  0  0  0  0  0  0  0
  161.9220  210.0870  151.9580 C   0  0  2  0  0  3  0  0  0  0  0  0
  159.5090  212.9760  155.8860 C   0  0  0  0  0  0  0  0  0  0  0  0
  159.3410  210.5000  155.5810 N   0  0  0  0  0  0  0  0  0  0  0  0
  158.2030  214.4520  150.7480 C   0  0  0  0  0  2  0  0  0  0  0  0
  161.6190  209.4060  155.1030 C   0  0  0  0  0  2  0  0  0  0  0  0
  157.5450  214.2400  153.9970 O   0  0  0  0  0  0  0  0  0  0  0  0
  160.5380  212.1060  151.3090 C   0  0  1  0  0  3  0  0  0  0  0  0
  159.7190  214.3380  150.5940 C   0  0  0  0  0  2  0  0  0  0  0  0
  158.2280  212.5340  152.4610 C   0  0  1  0  0  3  0  0  0  0  0  0
  159.8590  210.7020  153.2430 C   0  0  1  0  0  3  0  0  0  0  0  0
  162.7440  208.9520  151.3770 C   0  0  0  0  0  1  0  0  0  0  0  0
  160.7470  209.5360  152.7810 C   0  0  2  0  0  3  0  0  0  0  0  0
  160.5780  209.4400  157.2480 O   0  0  0  0  0  0  0  0  0  0  0  0
  160.1530  212.9640  150.1120 C   0  0  0  0  0  2  0  0  0  0  0  0
  159.3260  211.5170  152.0590 C   0  0  2  0  0  3  0  0  0  0  0  0
  160.4750  209.7440  156.0310 C   0  0  0  0  0  0  0  0  0  0  0  0
  157.4780  211.6690  156.8470 C   0  0  0  0  0  2  0  0  0  0  0  0
  155.0910  212.7190  157.0110 C   0  0  0  0  0  1  0  0  0  0  0  0
  156.7940  213.3250  157.1540 S   0  0  0  0  0  0  0  0  0  0  0  0
  160.3050  207.5830  154.1290 C   0  0  0  0  0  2  0  0  0  0  0  0
  161.1150  205.7430  152.6580 C   0  0  0  0  0  1  0  0  0  0  0  0
  161.0280  206.2470  154.0860 C   0  0  0  0  0  2  0  0  0  0  0  0
  1 14  2  0  0  0  0
  1  5  1  0  0  0  0
  3 15  1  0  0  0  0
  3  9  1  0  0  0  0
  4 11  1  0  0  0  0
  5 10  1  0  0  0  0
  6 25  1  6  0  0  0
  8 28  1  0  0  0  0
  8 13  1  0  0  0  0
  9 19  1  6  0  0  0
  9 20  1  0  0  0  0
 10  6  1  0  0  0  0
 10  7  2  0  0  0  0
 11 24  1  0  0  0  0
 11  6  1  0  0  0  0
 12  2  1  0  0  0  0
 13 24  1  0  0  0  0
 15 22  1  6  0  0  0
 15 23  1  0  0  0  0
 16 12  1  0  0  0  0
 17  2  1  6  0  0  0
 17  1  1  0  0  0  0
 18  4  1  6  0  0  0
 20 18  1  0  0  0  0
 20  8  1  1  0  0  0
 22 16  1  0  0  0  0
 23 17  1  0  0  0  0
 23 18  1  0  0  0  0
 24 21  2  0  0  0  0
 25 27  1  0  0  0  0
 26 27  1  0  0  0  0
 29 30  1  0  0  0  0
 30 28  1  0  0  0  0
M  END
>  <MODEL>
2

>  <REMARK>
 VINA RESULT:      -3.1      6.336     10.066
  Name = 
  4 active torsions:
  status: ('A' for Active; 'I' for Inactive)
    1  A    between atoms: C_6  and  C_8
    2  A    between atoms: C_6  and  S_21
    3  A    between atoms: C_7  and  N_10
    4  A    between atoms: C_7  and  C_26
                            x       y       z     vdW  Elec       q    Type
                         _______ _______ _______ _____ _____    ______ ____

>  <TORSDO>
F 4

$$$$
=
 OpenBabel11052422003D

 30 33  0  0  1  0  0  0  0  0999 V2000
  158.9830  211.1840  156.0610 C   0  0  0  0  0  0  0  0  0  0  0  0
  161.4510  210.8680  156.7090 C   0  0  0  0  0  2  0  0  0  0  0  0
  161.6600  209.8120  152.3160 C   0  0  0  0  0  2  0  0  0  0  0  0
  159.4710  213.3320  153.7170 C   0  0  0  0  0  2  0  0  0  0  0  0
  157.9950  210.9450  155.0600 N   0  0  0  0  0  2  0  0  0  0  0  0
  157.0380  213.2400  154.4390 C   0  0  2  0  0  3  0  0  0  0  0  0
  155.4090  211.1170  154.6120 S   0  0  0  0  0  0  0  0  0  0  0  0
  159.7460  212.7850  150.8420 N   0  0  0  0  0  0  0  0  0  0  0  0
  160.8060  210.6000  151.3210 C   0  0  2  0  0  3  0  0  0  0  0  0
  156.8660  211.8050  154.8740 C   0  0  0  0  0  0  0  0  0  0  0  0
  158.0530  213.4390  153.4000 N   0  0  0  0  0  0  0  0  0  0  0  0
  161.3090  209.3780  157.0300 C   0  0  0  0  0  2  0  0  0  0  0  0
  158.2880  212.5980  150.9810 C   0  0  0  0  0  2  0  0  0  0  0  0
  158.6240  211.3190  157.2610 O   0  0  0  0  0  0  0  0  0  0  0  0
  161.0340  209.7930  153.7100 C   0  0  1  0  0  3  0  0  0  0  0  0
  161.1020  208.4760  155.8140 C   0  0  0  0  0  2  0  0  0  0  0  0
  160.4340  211.3930  155.6930 C   0  0  1  0  0  3  0  0  0  0  0  0
  159.9570  211.9810  153.2330 C   0  0  1  0  0  3  0  0  0  0  0  0
  161.5180  210.6170  149.9810 C   0  0  0  0  0  1  0  0  0  0  0  0
  160.5570  212.0320  151.8190 C   0  0  2  0  0  3  0  0  0  0  0  0
  156.6090  214.1270  151.7060 O   0  0  0  0  0  0  0  0  0  0  0  0
  161.9090  208.9310  154.6100 C   0  0  0  0  0  2  0  0  0  0  0  0
  160.8730  211.2420  154.2150 C   0  0  2  0  0  3  0  0  0  0  0  0
  157.6250  213.4590  152.0310 C   0  0  0  0  0  0  0  0  0  0  0  0
  156.9770  214.3200  155.5220 C   0  0  0  0  0  2  0  0  0  0  0  0
  154.5510  214.4510  156.4840 C   0  0  0  0  0  1  0  0  0  0  0  0
  156.1440  213.7980  157.0520 S   0  0  0  0  0  0  0  0  0  0  0  0
  160.1410  214.1930  150.8270 C   0  0  0  0  0  2  0  0  0  0  0  0
  160.6230  214.1920  148.3830 C   0  0  0  0  0  1  0  0  0  0  0  0
  161.2000  214.4350  149.7640 C   0  0  0  0  0  2  0  0  0  0  0  0
  1 14  2  0  0  0  0
  2 12  1  0  0  0  0
  5  1  1  0  0  0  0
  6 10  1  0  0  0  0
  6 25  1  1  0  0  0
  7 10  2  0  0  0  0
  8 13  1  0  0  0  0
  9 19  1  6  0  0  0
  9 20  1  0  0  0  0
  9  3  1  0  0  0  0
 10  5  1  0  0  0  0
 11  4  1  0  0  0  0
 11  6  1  0  0  0  0
 13 24  1  0  0  0  0
 15  3  1  6  0  0  0
 15 23  1  0  0  0  0
 15 22  1  0  0  0  0
 16 12  1  0  0  0  0
 17  1  1  0  0  0  0
 17  2  1  1  0  0  0
 18  4  1  1  0  0  0
 18 23  1  0  0  0  0
 20  8  1  6  0  0  0
 20 18  1  0  0  0  0
 21 24  2  0  0  0  0
 22 16  1  0  0  0  0
 23 17  1  0  0  0  0
 24 11  1  0  0  0  0
 25 27  1  0  0  0  0
 26 27  1  0  0  0  0
 28  8  1  0  0  0  0
 29 30  1  0  0  0  0
 30 28  1  0  0  0  0
M  END
>  <MODEL>
3

>  <REMARK>
 VINA RESULT:      -2.7      7.329      9.896
  Name = 
  4 active torsions:
  status: ('A' for Active; 'I' for Inactive)
    1  A    between atoms: C_6  and  C_8
    2  A    between atoms: C_6  and  S_21
    3  A    between atoms: C_7  and  N_10
    4  A    between atoms: C_7  and  C_26
                            x       y       z     vdW  Elec       q    Type
                         _______ _______ _______ _____ _____    ______ ____

>  <TORSDO>
F 4

$$$$
=
 OpenBabel11052422003D

 30 33  0  0  1  0  0  0  0  0999 V2000
  157.9360  212.1210  155.6850 C   0  0  0  0  0  0  0  0  0  0  0  0
  155.7620  212.0250  154.3180 C   0  0  0  0  0  2  0  0  0  0  0  0
  158.6950  213.0880  151.0420 C   0  0  0  0  0  2  0  0  0  0  0  0
  159.5720  209.9520  153.9640 C   0  0  0  0  0  2  0  0  0  0  0  0
  159.3030  212.5300  155.6860 N   0  0  0  0  0  2  0  0  0  0  0  0
  160.6760  210.4270  156.2010 C   0  0  2  0  0  3  0  0  0  0  0  0
  161.3940  212.7840  157.2610 S   0  0  0  0  0  0  0  0  0  0  0  0
  161.4150  210.4830  151.7370 N   0  0  0  0  0  0  0  0  0  0  0  0
  160.0900  212.4620  151.0620 C   0  0  2  0  0  3  0  0  0  0  0  0
  160.3030  211.8660  156.4660 C   0  0  0  0  0  0  0  0  0  0  0  0
  160.7720  210.0800  154.7800 N   0  0  0  0  0  0  0  0  0  0  0  0
  155.4440  213.5150  154.4760 C   0  0  0  0  0  2  0  0  0  0  0  0
  162.2750  210.9020  152.8610 C   0  0  0  0  0  2  0  0  0  0  0  0
  157.3200  212.0310  156.7810 O   0  0  0  0  0  0  0  0  0  0  0  0
  158.0990  213.1910  152.4460 C   0  0  1  0  0  3  0  0  0  0  0  0
  156.3620  214.4530  153.6940 C   0  0  0  0  0  2  0  0  0  0  0  0
  157.2500  211.6850  154.4120 C   0  0  1  0  0  3  0  0  0  0  0  0
  159.4350  211.2130  153.1340 C   0  0  1  0  0  3  0  0  0  0  0  0
  160.5870  212.3470  149.6340 C   0  0  0  0  0  1  0  0  0  0  0  0
  160.0670  211.0830  151.7390 C   0  0  2  0  0  3  0  0  0  0  0  0
  163.0630  209.6560  154.7360 O   0  0  0  0  0  0  0  0  0  0  0  0
  156.7500  213.8890  152.3370 C   0  0  0  0  0  2  0  0  0  0  0  0
  158.0130  211.7810  153.0660 C   0  0  2  0  0  3  0  0  0  0  0  0
  162.0610  210.1460  154.1530 C   0  0  0  0  0  0  0  0  0  0  0  0
  160.0580  209.3590  157.1050 C   0  0  0  0  0  2  0  0  0  0  0  0
  160.0930  207.0290  155.9220 C   0  0  0  0  0  1  0  0  0  0  0  0
  161.0400  207.8350  157.2410 S   0  0  0  0  0  0  0  0  0  0  0  0
  161.3290  209.0310  151.5960 C   0  0  0  0  0  2  0  0  0  0  0  0
  161.6450  208.3810  149.2120 C   0  0  0  0  0  1  0  0  0  0  0  0
  162.3240  208.5380  150.5590 C   0  0  0  0  0  2  0  0  0  0  0  0
  1  5  1  0  0  0  0
  1 14  2  0  0  0  0
  2 12  1  0  0  0  0
  3  9  1  0  0  0  0
  4 11  1  0  0  0  0
  5 10  1  0  0  0  0
  6 10  1  0  0  0  0
  6 25  1  6  0  0  0
  8 13  1  0  0  0  0
  9 19  1  6  0  0  0
  9 20  1  0  0  0  0
 10  7  2  0  0  0  0
 11  6  1  0  0  0  0
 13 24  1  0  0  0  0
 15  3  1  6  0  0  0
 15 23  1  0  0  0  0
 16 12  1  0  0  0  0
 17  2  1  6  0  0  0
 17  1  1  0  0  0  0
 18  4  1  6  0  0  0
 20  8  1  1  0  0  0
 20 18  1  0  0  0  0
 22 15  1  0  0  0  0
 22 16  1  0  0  0  0
 23 18  1  0  0  0  0
 23 17  1  0  0  0  0
 24 21  2  0  0  0  0
 24 11  1  0  0  0  0
 25 27  1  0  0  0  0
 26 27  1  0  0  0  0
 28  8  1  0  0  0  0
 29 30  1  0  0  0  0
 30 28  1  0  0  0  0
M  END
>  <MODEL>
4

>  <REMARK>
 VINA RESULT:      -1.5      5.945      9.899
  Name = 
  4 active torsions:
  status: ('A' for Active; 'I' for Inactive)
    1  A    between atoms: C_6  and  C_8
    2  A    between atoms: C_6  and  S_21
    3  A    between atoms: C_7  and  N_10
    4  A    between atoms: C_7  and  C_26
                            x       y       z     vdW  Elec       q    Type
                         _______ _______ _______ _____ _____    ______ ____

>  <TORSDO>
F 4

$$$$
=
 OpenBabel11052422003D

 30 33  0  0  1  0  0  0  0  0999 V2000
  160.3970  211.8230  153.3690 C   0  0  0  0  0  0  0  0  0  0  0  0
  158.9720  212.7060  151.4200 C   0  0  0  0  0  2  0  0  0  0  0  0
  161.8850  210.1050  149.1370 C   0  0  0  0  0  2  0  0  0  0  0  0
  159.9410  208.6910  152.7930 C   0  0  0  0  0  2  0  0  0  0  0  0
  161.6040  211.1500  153.7280 N   0  0  0  0  0  2  0  0  0  0  0  0
  160.8980  209.1090  155.1080 C   0  0  2  0  0  3  0  0  0  0  0  0
  163.0810  210.5030  155.8050 S   0  0  0  0  0  0  0  0  0  0  0  0
  161.6790  206.9060  151.2330 N   0  0  0  0  0  0  0  0  0  0  0  0
  162.3310  208.7760  149.7480 C   0  0  2  0  0  3  0  0  0  0  0  0
  161.7190  210.3610  154.9170 C   0  0  0  0  0  0  0  0  0  0  0  0
  160.7810  208.2740  153.9090 N   0  0  0  0  0  0  0  0  0  0  0  0
  159.8740  213.9120  151.1380 C   0  0  0  0  0  2  0  0  0  0  0  0
  162.4960  207.0210  152.4580 C   0  0  0  0  0  2  0  0  0  0  0  0
  159.8630  212.6100  154.1950 O   0  0  0  0  0  0  0  0  0  0  0  0
  161.4910  211.1200  150.2110 C   0  0  1  0  0  3  0  0  0  0  0  0
  161.2260  213.5700  150.5150 C   0  0  0  0  0  2  0  0  0  0  0  0
  159.6910  211.5210  152.0680 C   0  0  1  0  0  3  0  0  0  0  0  0
  160.8450  209.2470  151.7110 C   0  0  1  0  0  3  0  0  0  0  0  0
  162.6520  207.8110  148.6230 C   0  0  0  0  0  1  0  0  0  0  0  0
  161.2420  208.1950  150.6640 C   0  0  2  0  0  3  0  0  0  0  0  0
  161.9720  206.4380  154.7100 O   0  0  0  0  0  0  0  0  0  0  0  0
  161.1340  212.4270  149.5180 C   0  0  0  0  0  2  0  0  0  0  0  0
  160.3410  210.5400  151.0600 C   0  0  2  0  0  3  0  0  0  0  0  0
  161.7140  207.1980  153.7390 C   0  0  0  0  0  0  0  0  0  0  0  0
  159.6380  209.2140  155.9700 C   0  0  0  0  0  2  0  0  0  0  0  0
  158.1170  211.2440  156.5960 C   0  0  0  0  0  1  0  0  0  0  0  0
  159.6810  210.5530  157.1980 S   0  0  0  0  0  0  0  0  0  0  0  0
  160.5390  206.0040  151.3920 C   0  0  0  0  0  2  0  0  0  0  0  0
  160.8310  203.6090  152.0120 C   0  0  0  0  0  1  0  0  0  0  0  0
  160.8850  204.6160  150.8790 C   0  0  0  0  0  2  0  0  0  0  0  0
  1  5  1  0  0  0  0
  1 14  2  0  0  0  0
  3  9  1  0  0  0  0
  4 11  1  0  0  0  0
  5 10  1  0  0  0  0
  6 25  1  6  0  0  0
  8 28  1  0  0  0  0
  8 13  1  0  0  0  0
  9 19  1  6  0  0  0
  9 20  1  0  0  0  0
 10  6  1  0  0  0  0
 10  7  2  0  0  0  0
 11  6  1  0  0  0  0
 12  2  1  0  0  0  0
 13 24  1  0  0  0  0
 15  3  1  6  0  0  0
 15 23  1  0  0  0  0
 16 12  1  0  0  0  0
 17  2  1  6  0  0  0
 17  1  1  0  0  0  0
 18  4  1  1  0  0  0
 20  8  1  1  0  0  0
 20 18  1  0  0  0  0
 22 15  1  0  0  0  0
 22 16  1  0  0  0  0
 23 18  1  0  0  0  0
 23 17  1  0  0  0  0
 24 11  1  0  0  0  0
 24 21  2  0  0  0  0
 25 27  1  0  0  0  0
 26 27  1  0  0  0  0
 30 28  1  0  0  0  0
 30 29  1  0  0  0  0
M  END
>  <MODEL>
5

>  <REMARK>
 VINA RESULT:      -1.1      4.500      8.689
  Name = 
  4 active torsions:
  status: ('A' for Active; 'I' for Inactive)
    1  A    between atoms: C_6  and  C_8
    2  A    between atoms: C_6  and  S_21
    3  A    between atoms: C_7  and  N_10
    4  A    between atoms: C_7  and  C_26
                            x       y       z     vdW  Elec       q    Type
                         _______ _______ _______ _____ _____    ______ ____

>  <TORSDO>
F 4

$$$$
=
 OpenBabel11052422003D

 30 33  0  0  1  0  0  0  0  0999 V2000
  159.5490  210.3300  156.0770 C   0  0  0  0  0  0  0  0  0  0  0  0
  161.7090  209.1140  156.7560 C   0  0  0  0  0  2  0  0  0  0  0  0
  161.3470  207.7200  152.4680 C   0  0  0  0  0  2  0  0  0  0  0  0
  160.7730  211.9170  153.5620 C   0  0  0  0  0  2  0  0  0  0  0  0
  158.5160  210.4250  155.0980 N   0  0  0  0  0  2  0  0  0  0  0  0
  158.5260  212.8550  154.2830 C   0  0  2  0  0  3  0  0  0  0  0  0
  156.1960  211.5730  154.6310 S   0  0  0  0  0  0  0  0  0  0  0  0
  160.7190  211.0830  150.7440 N   0  0  0  0  0  0  0  0  0  0  0  0
  160.8430  208.7010  151.4080 C   0  0  2  0  0  3  0  0  0  0  0  0
  157.8140  211.6450  154.8370 C   0  0  0  0  0  0  0  0  0  0  0  0
  159.5040  212.5530  153.2340 N   0  0  0  0  0  0  0  0  0  0  0  0
  161.0000  207.8320  157.2020 C   0  0  0  0  0  2  0  0  0  0  0  0
  159.3110  211.5000  150.8940 C   0  0  0  0  0  2  0  0  0  0  0  0
  159.3100  210.6910  157.2610 O   0  0  0  0  0  0  0  0  0  0  0  0
  160.8080  208.0610  153.8580 C   0  0  1  0  0  3  0  0  0  0  0  0
  160.4150  206.9940  156.0660 C   0  0  0  0  0  2  0  0  0  0  0  0
  160.9510  209.9170  155.6970 C   0  0  1  0  0  3  0  0  0  0  0  0
  160.6700  210.4510  153.1950 C   0  0  1  0  0  3  0  0  0  0  0  0
  161.4620  208.3290  150.0740 C   0  0  0  0  0  1  0  0  0  0  0  0
  161.1960  210.1490  151.7830 C   0  0  2  0  0  3  0  0  0  0  0  0
  158.3970  213.6230  151.4830 O   0  0  0  0  0  0  0  0  0  0  0  0
  161.2980  206.9960  154.8290 C   0  0  0  0  0  2  0  0  0  0  0  0
  161.2490  209.4890  154.2380 C   0  0  2  0  0  3  0  0  0  0  0  0
  159.0760  212.6340  151.8660 C   0  0  0  0  0  0  0  0  0  0  0  0
  158.9300  213.9520  155.2700 C   0  0  0  0  0  2  0  0  0  0  0  0
  157.0760  214.4530  157.0420 C   0  0  0  0  0  1  0  0  0  0  0  0
  158.6370  213.5320  157.0150 S   0  0  0  0  0  0  0  0  0  0  0  0
  161.6380  212.2120  150.6110 C   0  0  0  0  0  2  0  0  0  0  0  0
  162.4350  212.1000  148.2540 C   0  0  0  0  0  1  0  0  0  0  0  0
  161.5260  212.8270  149.2260 C   0  0  0  0  0  2  0  0  0  0  0  0
  1 14  2  0  0  0  0
  2 12  1  0  0  0  0
  5  1  1  0  0  0  0
  6 10  1  0  0  0  0
  6 25  1  1  0  0  0
  7 10  2  0  0  0  0
  8 13  1  0  0  0  0
  9 19  1  6  0  0  0
  9 20  1  0  0  0  0
  9  3  1  0  0  0  0
 10  5  1  0  0  0  0
 11  4  1  0  0  0  0
 11  6  1  0  0  0  0
 13 24  1  0  0  0  0
 15  3  1  6  0  0  0
 15 23  1  0  0  0  0
 15 22  1  0  0  0  0
 16 12  1  0  0  0  0
 17  1  1  0  0  0  0
 17  2  1  1  0  0  0
 18  4  1  1  0  0  0
 18 23  1  0  0  0  0
 20  8  1  6  0  0  0
 20 18  1  0  0  0  0
 21 24  2  0  0  0  0
 22 16  1  0  0  0  0
 23 17  1  0  0  0  0
 24 11  1  0  0  0  0
 25 27  1  0  0  0  0
 27 26  1  0  0  0  0
 28  8  1  0  0  0  0
 29 30  1  0  0  0  0
 30 28  1  0  0  0  0
M  END
>  <MODEL>
6

>  <REMARK>
 VINA RESULT:      -1.0      6.080      8.946
  Name = 
  4 active torsions:
  status: ('A' for Active; 'I' for Inactive)
    1  A    between atoms: C_6  and  C_8
    2  A    between atoms: C_6  and  S_21
    3  A    between atoms: C_7  and  N_10
    4  A    between atoms: C_7  and  C_26
                            x       y       z     vdW  Elec       q    Type
                         _______ _______ _______ _____ _____    ______ ____

>  <TORSDO>
F 4

$$$$
