=
 OpenBabel11062409063D

 37 43  0  0  1  0  0  0  0  0999 V2000
  160.7360  212.6220  140.6800 C   0  0  2  0  0  3  0  0  0  0  0  0
  162.0770  209.7100  139.8230 C   0  0  1  0  0  0  0  0  0  0  0  0
  158.1490  210.2320  139.3870 C   0  0  2  0  0  3  0  0  0  0  0  0
  161.9430  213.1010  139.8390 C   0  0  1  0  0  3  0  0  0  0  0  0
  156.6980  213.3690  139.7230 C   0  0  0  0  0  2  0  0  0  0  0  0
  160.7560  209.1250  137.7240 C   0  0  0  0  0  2  0  0  0  0  0  0
  158.1730  213.7420  141.6390 O   0  0  0  0  0  1  0  0  0  0  0  0
  161.7700  213.1480  138.4290 O   0  0  0  0  0  0  0  0  0  0  0  0
  159.5550  210.0350  139.8800 C   0  0  1  0  0  3  0  0  0  0  0  0
  156.2130  211.9040  137.7770 C   0  0  0  0  0  2  0  0  0  0  0  0
  159.6290  208.3100  137.1260 C   0  0  0  0  0  2  0  0  0  0  0  0
  160.1210  214.4350  137.1990 C   0  0  0  0  0  2  0  0  0  0  0  0
  161.0720  211.4750  141.6540 C   0  0  0  0  0  2  0  0  0  0  0  0
  162.6990  210.5650  138.9140 O   0  0  0  0  0  1  0  0  0  0  0  0
  156.1690  209.1740  138.2810 C   0  0  0  0  0  2  0  0  0  0  0  0
  158.3800  209.1580  137.0260 C   0  0  0  0  0  2  0  0  0  0  0  0
  162.0960  210.3860  141.2260 C   0  0  0  0  0  2  0  0  0  0  0  0
  158.8920  213.8470  137.9080 C   0  0  0  0  0  2  0  0  0  0  0  0
  158.0830  213.1750  140.3680 C   0  0  1  0  0  0  0  0  0  0  0  0
  157.6930  209.1760  138.3800 C   0  0  1  0  0  3  0  0  0  0  0  0
  159.3930  212.4680  139.9130 C   0  0  1  0  0  0  0  0  0  0  0  0
  160.7020  209.2230  139.2650 C   0  0  2  0  0  3  0  0  0  0  0  0
  155.9590  212.1130  139.2710 C   0  0  2  0  0  3  0  0  0  0  0  0
  162.9520  208.4780  139.9450 C   0  0  0  0  0  1  0  0  0  0  0  0
  159.0640  213.8720  139.4280 C   0  0  1  0  0  3  0  0  0  0  0  0
  161.4060  214.4480  138.0380 C   0  0  0  0  0  2  0  0  0  0  0  0
  159.2430  211.2350  138.9890 C   0  0  2  0  0  3  0  0  0  0  0  0
  155.4540  210.3840  137.1000 S   0  0  0  0  0  0  0  0  0  0  0  0
  153.9440  210.8870  140.1790 C   0  0  0  0  0  2  0  0  0  0  0  0
  154.4600  212.1980  139.5810 C   0  0  1  0  0  3  0  0  0  0  0  0
  154.0980  213.3850  140.4430 C   0  0  0  0  0  3  0  0  0  0  0  0
  152.7120  214.4470  141.9760 F   0  0  0  0  0  0  0  0  0  0  0  0
  152.2060  212.1850  141.3090 N   0  0  0  0  0  2  0  0  0  0  0  0
  153.0090  213.3700  141.2120 C   0  0  0  0  0  0  0  0  0  0  0  0
  152.4500  211.0230  140.4580 C   0  0  0  0  0  2  0  0  0  0  0  0
  162.5280  214.3750  141.9430 C   0  0  0  0  0  1  0  0  0  0  0  0
  162.8700  214.1420  140.4810 C   0  0  0  0  0  2  0  0  0  0  0  0
  1 13  1  6  0  0  0
  2 24  1  1  0  0  0
  2 17  1  0  0  0  0
  3  9  1  0  0  0  0
  4 37  1  0  0  0  0
  4  1  1  0  0  0  0
  5 19  1  0  0  0  0
  6 22  1  0  0  0  0
  8  4  1  0  0  0  0
 10 23  1  0  0  0  0
 11  6  1  0  0  0  0
 12 18  1  0  0  0  0
 12 26  1  0  0  0  0
 14  2  1  0  0  0  0
 15 20  1  0  0  0  0
 16 11  1  0  0  0  0
 16 20  1  0  0  0  0
 17 13  1  0  0  0  0
 18 25  1  0  0  0  0
 19  7  1  0  0  0  0
 20  3  1  0  0  0  0
 21 19  1  0  0  0  0
 21  1  1  0  0  0  0
 22  2  1  0  0  0  0
 22  9  1  0  0  0  0
 23 30  1  0  0  0  0
 23  5  1  0  0  0  0
 25 21  1  0  0  0  0
 25 19  1  0  0  0  0
 26  8  1  0  0  0  0
 27  3  1  0  0  0  0
 27  9  1  0  0  0  0
 27 21  1  0  0  0  0
 28 10  1  0  0  0  0
 28 15  1  0  0  0  0
 29 35  1  0  0  0  0
 30 29  1  0  0  0  0
 30 31  1  0  0  0  0
 31 34  2  0  0  0  0
 34 33  1  0  0  0  0
 34 32  1  0  0  0  0
 35 33  1  0  0  0  0
 37 36  1  0  0  0  0
M  END
>  <MODEL>
1

>  <REMARK>
 VINA RESULT:      -3.1      0.000      0.000
  Name = 
  2 active torsions:
  status: ('A' for Active; 'I' for Inactive)
    1  A    between atoms: C_5  and  C_23
    2  A    between atoms: C_6  and  C_31
                            x       y       z     vdW  Elec       q    Type
                         _______ _______ _______ _____ _____    ______ ____

>  <TORSDO>
F 2

$$$$
=
 OpenBabel11062409063D

 37 43  0  0  1  0  0  0  0  0999 V2000
  160.0240  208.7000  155.5630 C   0  0  2  0  0  3  0  0  0  0  0  0
  161.4180  207.7060  152.7200 C   0  0  1  0  0  0  0  0  0  0  0  0
  159.1160  210.9600  152.7080 C   0  0  2  0  0  3  0  0  0  0  0  0
  161.4810  208.4650  156.0270 C   0  0  1  0  0  3  0  0  0  0  0  0
  158.0430  212.4220  155.6690 C   0  0  0  0  0  2  0  0  0  0  0  0
  162.0450  209.9260  151.6410 C   0  0  0  0  0  2  0  0  0  0  0  0
  157.6440  210.1650  156.5270 O   0  0  0  0  0  1  0  0  0  0  0  0
  162.4060  209.5240  155.8150 O   0  0  0  0  0  0  0  0  0  0  0  0
  159.6910  209.5730  152.7590 C   0  0  1  0  0  3  0  0  0  0  0  0
  159.0780  213.7580  153.8510 C   0  0  0  0  0  2  0  0  0  0  0  0
  161.6870  210.9780  150.6130 C   0  0  0  0  0  2  0  0  0  0  0  0
  162.2620  211.7870  156.6780 C   0  0  0  0  0  2  0  0  0  0  0  0
  159.4770  207.5900  154.6430 C   0  0  0  0  0  2  0  0  0  0  0  0
  162.5490  208.0160  153.4740 O   0  0  0  0  0  1  0  0  0  0  0  0
  158.5450  212.9190  151.2590 C   0  0  0  0  0  2  0  0  0  0  0  0
  160.9600  212.1240  151.2830 C   0  0  0  0  0  2  0  0  0  0  0  0
  160.4300  206.9070  153.6210 C   0  0  0  0  0  2  0  0  0  0  0  0
  160.8830  212.1030  156.0820 C   0  0  0  0  0  2  0  0  0  0  0  0
  158.4920  210.9500  155.7480 C   0  0  1  0  0  0  0  0  0  0  0  0
  159.4990  211.7410  151.4510 C   0  0  1  0  0  3  0  0  0  0  0  0
  159.6760  210.1520  155.1280 C   0  0  1  0  0  0  0  0  0  0  0  0
  160.8790  208.9770  151.9920 C   0  0  2  0  0  3  0  0  0  0  0  0
  157.8170  213.0080  154.2790 C   0  0  2  0  0  3  0  0  0  0  0  0
  161.8580  206.7430  151.6350 C   0  0  0  0  0  1  0  0  0  0  0  0
  159.8800  210.9880  156.3820 C   0  0  1  0  0  3  0  0  0  0  0  0
  162.5120  210.3030  156.9790 C   0  0  0  0  0  2  0  0  0  0  0  0
  160.1960  210.6210  153.7470 C   0  0  2  0  0  3  0  0  0  0  0  0
  158.9920  214.4530  152.1610 S   0  0  0  0  0  0  0  0  0  0  0  0
  155.6270  213.5050  153.1200 C   0  0  0  0  0  2  0  0  0  0  0  0
  156.5820  213.9150  154.2430 C   0  0  1  0  0  3  0  0  0  0  0  0
  155.8720  214.0040  155.5740 C   0  0  0  0  0  2  0  0  0  0  0  0
  153.9630  214.3710  156.8480 F   0  0  0  0  0  0  0  0  0  0  0  0
  153.7990  214.4480  154.4430 N   0  0  0  0  0  0  0  0  0  0  0  0
  154.5730  214.3000  155.6420 C   0  0  0  0  0  0  0  0  0  0  0  0
  154.4240  214.4440  153.1230 C   0  0  0  0  0  2  0  0  0  0  0  0
  160.7430  206.3820  157.2550 C   0  0  0  0  0  1  0  0  0  0  0  0
  161.6830  207.5760  157.2600 C   0  0  0  0  0  2  0  0  0  0  0  0
  1 13  1  6  0  0  0
  1  4  1  0  0  0  0
  2 24  1  6  0  0  0
  2 14  1  0  0  0  0
  2 17  1  0  0  0  0
  3  9  1  0  0  0  0
  3 27  1  0  0  0  0
  4 37  1  0  0  0  0
  5 19  1  0  0  0  0
  6 22  1  0  0  0  0
  8  4  1  0  0  0  0
  8 26  1  0  0  0  0
  9 27  1  0  0  0  0
 10 23  1  0  0  0  0
 11 16  1  0  0  0  0
 11  6  1  0  0  0  0
 12 26  1  0  0  0  0
 15 20  1  0  0  0  0
 15 28  1  0  0  0  0
 16 20  1  0  0  0  0
 17 13  1  0  0  0  0
 18 25  1  0  0  0  0
 18 12  1  0  0  0  0
 19 25  1  0  0  0  0
 19  7  1  0  0  0  0
 20  3  1  0  0  0  0
 21  1  1  0  0  0  0
 21 19  1  0  0  0  0
 21 25  1  0  0  0  0
 22  2  1  0  0  0  0
 22  9  1  0  0  0  0
 23  5  1  0  0  0  0
 27 21  1  0  0  0  0
 28 10  1  0  0  0  0
 29 35  1  0  0  0  0
 29 30  1  0  0  0  0
 30 23  1  0  0  0  0
 30 31  1  0  0  0  0
 31 34  1  0  0  0  0
 33 34  2  0  0  0  0
 34 32  1  0  0  0  0
 35 33  1  0  0  0  0
 36 37  1  0  0  0  0
M  END
>  <MODEL>
2

>  <REMARK>
 VINA RESULT:      -0.2     13.341     15.248
  Name = 
  2 active torsions:
  status: ('A' for Active; 'I' for Inactive)
    1  A    between atoms: C_5  and  C_23
    2  A    between atoms: C_6  and  C_31
                            x       y       z     vdW  Elec       q    Type
                         _______ _______ _______ _____ _____    ______ ____

>  <TORSDO>
F 2

$$$$
