=
 OpenBabel11062408193D

 32 35  0  0  1  0  0  0  0  0999 V2000
  161.0970  208.7210  151.6330 C   0  0  2  0  0  3  0  0  0  0  0  0
  162.9510  207.5250  147.8870 C   0  0  0  0  0  1  0  0  0  0  0  0
  161.8820  207.4000  151.4410 C   0  0  1  0  0  3  0  0  0  0  0  0
  161.2350  206.2120  148.8580 C   0  0  2  0  0  3  0  0  0  0  0  0
  160.9580  206.1740  151.3780 C   0  0  1  0  0  3  0  0  0  0  0  0
  160.2480  206.0790  150.0230 C   0  0  0  0  0  2  0  0  0  0  0  0
  161.9850  207.4700  148.9740 N   0  0  0  0  0  0  0  0  0  0  0  0
  162.7820  207.4280  150.1990 C   0  0  0  0  0  2  0  0  0  0  0  0
  161.7300  204.8980  151.6910 C   0  0  0  0  0  3  0  0  0  0  0  0
  160.9380  204.0560  152.6730 C   0  0  0  0  0  2  0  0  0  0  0  0
  160.9480  203.6950  151.2020 C   0  0  0  0  0  2  0  0  0  0  0  0
  160.5060  206.1980  147.6650 O   0  0  0  0  0  0  0  0  0  0  0  0
  161.0380  205.1410  146.9230 C   0  0  0  0  0  1  0  0  0  0  0  0
  161.8440  209.9780  151.1460 C   0  0  0  0  0  0  0  0  0  0  0  0
  162.0730  209.9200  149.7830 F   0  0  0  0  0  0  0  0  0  0  0  0
  163.0580  210.1060  151.7990 F   0  0  0  0  0  0  0  0  0  0  0  0
  161.0870  211.1000  151.4240 F   0  0  0  0  0  0  0  0  0  0  0  0
  160.4780  208.9100  153.0390 C   0  0  2  0  0  3  0  0  0  0  0  0
  160.3190  211.1970  155.9120 C   0  0  0  0  0  2  0  0  0  0  0  0
  158.5430  212.0100  154.3750 C   0  0  0  0  0  2  0  0  0  0  0  0
  160.2270  210.3740  153.4580 C   0  0  1  0  0  3  0  0  0  0  0  0
  159.3340  212.2520  155.6040 N   0  0  1  0  0  0  0  0  0  0  0  0
  158.7460  210.6200  153.7530 C   0  0  0  0  0  2  0  0  0  0  0  0
  161.0340  210.7510  154.6730 C   0  0  0  0  0  0  0  0  0  0  0  0
  162.2540  210.7400  154.6480 O   0  0  0  0  0  0  0  0  0  0  0  0
  158.3940  212.3100  156.7150 C   0  0  0  0  0  3  0  0  0  0  0  0
  157.2230  213.2050  156.3440 C   0  0  0  0  0  2  0  0  0  0  0  0
  158.3080  213.7290  157.2570 C   0  0  0  0  0  2  0  0  0  0  0  0
  161.2880  208.2630  153.9790 O   0  0  0  0  0  0  0  0  0  0  0  0
  160.5050  207.2150  154.4710 C   0  0  0  0  0  2  0  0  0  0  0  0
  160.1250  207.5010  155.9070 C   0  0  0  0  0  2  0  0  0  0  0  0
  161.3770  207.7350  156.7250 C   0  0  0  0  0  1  0  0  0  0  0  0
  1 14  1  1  0  0  0
  1 18  1  0  0  0  0
  2  7  1  0  0  0  0
  3  1  1  6  0  0  0
  4 12  1  6  0  0  0
  4  7  1  0  0  0  0
  4  6  1  0  0  0  0
  5  3  1  0  0  0  0
  5  9  1  6  0  0  0
  6  5  1  0  0  0  0
  7  8  1  0  0  0  0
  8  3  1  0  0  0  0
  9 10  1  0  0  0  0
 11  9  1  0  0  0  0
 11 10  1  0  0  0  0
 13 12  1  0  0  0  0
 14 17  1  0  0  0  0
 14 16  1  0  0  0  0
 15 14  1  0  0  0  0
 18 29  1  1  0  0  0
 20 22  1  0  0  0  0
 21 18  1  1  0  0  0
 21 23  1  0  0  0  0
 21 24  1  0  0  0  0
 22 19  1  0  0  0  0
 22 26  1  1  0  0  0
 23 20  1  0  0  0  0
 24 19  1  0  0  0  0
 25 24  2  0  0  0  0
 26 28  1  0  0  0  0
 27 26  1  0  0  0  0
 27 28  1  0  0  0  0
 29 30  1  0  0  0  0
 30 31  1  0  0  0  0
 31 32  1  0  0  0  0
M  END
>  <MODEL>
1

>  <REMARK>
 VINA RESULT:      -6.2      0.000      0.000
  Name = 
  10 active torsions:
  status: ('A' for Active; 'I' for Inactive)
    1  A    between atoms: C_1  and  C_4
    2  A    between atoms: C_1  and  O_24
    3  A    between atoms: C_2  and  C_5
    4  A    between atoms: C_5  and  C_10
    5  A    between atoms: C_5  and  C_27
    6  A    between atoms: C_6  and  C_13
    7  A    between atoms: C_7  and  N_19
    8  A    between atoms: O_11  and  C_12
    9  A    between atoms: C_16  and  C_27
   10  A    between atoms: O_24  and  C_27
                            x       y       z     vdW  Elec       q    Type
                         _______ _______ _______ _____ _____    ______ ____

>  <TORSDO>
F 10

$$$$
=
 OpenBabel11062408193D

 32 35  0  0  1  0  0  0  0  0999 V2000
  160.6210  210.6790  153.4870 C   0  0  2  0  0  3  0  0  0  0  0  0
  158.9370  212.0310  157.2600 C   0  0  0  0  0  1  0  0  0  0  0  0
  159.9960  212.0790  153.7010 C   0  0  1  0  0  3  0  0  0  0  0  0
  157.5820  211.8640  155.3240 C   0  0  2  0  0  3  0  0  0  0  0  0
  158.6170  212.2110  153.0350 C   0  0  1  0  0  3  0  0  0  0  0  0
  157.5360  211.4820  153.8400 C   0  0  0  0  0  2  0  0  0  0  0  0
  158.9190  211.5970  155.8710 N   0  0  0  0  0  0  0  0  0  0  0  0
  159.8860  212.4520  155.1850 C   0  0  0  0  0  2  0  0  0  0  0  0
  158.2570  213.6770  152.8220 C   0  0  0  0  0  3  0  0  0  0  0  0
  157.8280  213.8890  151.3830 C   0  0  0  0  0  2  0  0  0  0  0  0
  156.7860  213.7970  152.4790 C   0  0  0  0  0  2  0  0  0  0  0  0
  156.6260  211.1010  156.0000 O   0  0  0  0  0  0  0  0  0  0  0  0
  155.6810  210.7560  155.0320 C   0  0  0  0  0  1  0  0  0  0  0  0
  161.8580  210.3980  154.3620 C   0  0  0  0  0  0  0  0  0  0  0  0
  161.7470  209.1750  154.9970 F   0  0  0  0  0  0  0  0  0  0  0  0
  162.0120  211.3870  155.3190 F   0  0  0  0  0  0  0  0  0  0  0  0
  162.9910  210.3890  153.5700 F   0  0  0  0  0  0  0  0  0  0  0  0
  160.8450  210.2870  152.0070 C   0  0  2  0  0  3  0  0  0  0  0  0
  161.0660  207.3720  149.7780 C   0  0  0  0  0  2  0  0  0  0  0  0
  161.4040  206.4370  152.0560 C   0  0  0  0  0  2  0  0  0  0  0  0
  161.5600  208.9380  151.7820 C   0  0  1  0  0  3  0  0  0  0  0  0
  161.4320  206.1980  150.5940 N   0  0  1  0  0  0  0  0  0  0  0  0
  160.8100  207.7930  152.4660 C   0  0  0  0  0  2  0  0  0  0  0  0
  161.6990  208.6190  150.3150 C   0  0  0  0  0  0  0  0  0  0  0  0
  162.3530  209.3360  149.5740 O   0  0  0  0  0  0  0  0  0  0  0  0
  160.4620  205.1490  150.3110 C   0  0  0  0  0  3  0  0  0  0  0  0
  160.9050  203.8560  150.9750 C   0  0  0  0  0  2  0  0  0  0  0  0
  161.1080  204.0450  149.4880 C   0  0  0  0  0  2  0  0  0  0  0  0
  161.5370  211.3220  151.3660 O   0  0  0  0  0  0  0  0  0  0  0  0
  160.6060  211.8940  150.4940 C   0  0  0  0  0  2  0  0  0  0  0  0
  161.3340  212.5580  149.3460 C   0  0  0  0  0  2  0  0  0  0  0  0
  160.8130  213.9670  149.1640 C   0  0  0  0  0  1  0  0  0  0  0  0
  1 14  1  1  0  0  0
  3  1  1  1  0  0  0
  3  8  1  0  0  0  0
  4  7  1  0  0  0  0
  4 12  1  1  0  0  0
  5  9  1  1  0  0  0
  5  3  1  0  0  0  0
  5  6  1  0  0  0  0
  6  4  1  0  0  0  0
  7  2  1  0  0  0  0
  8  7  1  0  0  0  0
 10 11  1  0  0  0  0
 10  9  1  0  0  0  0
 11  9  1  0  0  0  0
 13 12  1  0  0  0  0
 14 15  1  0  0  0  0
 14 16  1  0  0  0  0
 17 14  1  0  0  0  0
 18 29  1  1  0  0  0
 18  1  1  0  0  0  0
 19 24  1  0  0  0  0
 19 22  1  0  0  0  0
 20 23  1  0  0  0  0
 21 18  1  6  0  0  0
 21 23  1  0  0  0  0
 22 26  1  1  0  0  0
 22 20  1  0  0  0  0
 24 21  1  0  0  0  0
 25 24  2  0  0  0  0
 26 27  1  0  0  0  0
 28 26  1  0  0  0  0
 28 27  1  0  0  0  0
 30 29  1  0  0  0  0
 31 30  1  0  0  0  0
 32 31  1  0  0  0  0
M  END
>  <MODEL>
2

>  <REMARK>
 VINA RESULT:      -5.4      2.490      7.789
  Name = 
  10 active torsions:
  status: ('A' for Active; 'I' for Inactive)
    1  A    between atoms: C_1  and  C_4
    2  A    between atoms: C_1  and  O_24
    3  A    between atoms: C_2  and  C_5
    4  A    between atoms: C_5  and  C_10
    5  A    between atoms: C_5  and  C_27
    6  A    between atoms: C_6  and  C_13
    7  A    between atoms: C_7  and  N_19
    8  A    between atoms: O_11  and  C_12
    9  A    between atoms: C_16  and  C_27
   10  A    between atoms: O_24  and  C_27
                            x       y       z     vdW  Elec       q    Type
                         _______ _______ _______ _____ _____    ______ ____

>  <TORSDO>
F 10

$$$$
=
 OpenBabel11062408193D

 32 35  0  0  1  0  0  0  0  0999 V2000
  161.1600  205.6960  148.6190 C   0  0  2  0  0  3  0  0  0  0  0  0
  162.7610  205.4170  144.5870 C   0  0  0  0  0  1  0  0  0  0  0  0
  161.9700  204.4860  148.0940 C   0  0  1  0  0  3  0  0  0  0  0  0
  161.1650  203.8470  145.3640 C   0  0  2  0  0  3  0  0  0  0  0  0
  161.0820  203.2600  147.8290 C   0  0  1  0  0  3  0  0  0  0  0  0
  160.2740  203.4230  146.5370 C   0  0  0  0  0  2  0  0  0  0  0  0
  161.8830  205.0850  145.6990 N   0  0  0  0  0  0  0  0  0  0  0  0
  162.7710  204.8200  146.8290 C   0  0  0  0  0  2  0  0  0  0  0  0
  161.9150  201.9830  147.8060 C   0  0  0  0  0  3  0  0  0  0  0  0
  161.2570  200.9340  148.6820 C   0  0  0  0  0  2  0  0  0  0  0  0
  161.1130  200.8620  147.1760 C   0  0  0  0  0  2  0  0  0  0  0  0
  160.3480  204.0540  144.2490 O   0  0  0  0  0  0  0  0  0  0  0  0
  159.3960  203.0340  144.2990 C   0  0  0  0  0  1  0  0  0  0  0  0
  161.6770  207.0630  148.1290 C   0  0  0  0  0  0  0  0  0  0  0  0
  163.0540  207.1340  148.2230 F   0  0  0  0  0  0  0  0  0  0  0  0
  161.1230  208.0890  148.8770 F   0  0  0  0  0  0  0  0  0  0  0  0
  161.3090  207.2480  146.8100 F   0  0  0  0  0  0  0  0  0  0  0  0
  160.8850  205.6820  150.1420 C   0  0  2  0  0  3  0  0  0  0  0  0
  161.8700  206.8140  153.4970 C   0  0  0  0  0  2  0  0  0  0  0  0
  161.0030  208.8590  152.3840 C   0  0  0  0  0  2  0  0  0  0  0  0
  161.4950  206.8570  150.9350 C   0  0  1  0  0  3  0  0  0  0  0  0
  161.6990  208.2790  153.5560 N   0  0  1  0  0  0  0  0  0  0  0  0
  160.4110  207.8220  151.4180 C   0  0  0  0  0  2  0  0  0  0  0  0
  162.2830  206.3750  152.1260 C   0  0  0  0  0  0  0  0  0  0  0  0
  163.2710  205.6730  151.9850 O   0  0  0  0  0  0  0  0  0  0  0  0
  160.8880  208.5780  154.7280 C   0  0  0  0  0  3  0  0  0  0  0  0
  160.3780  210.0070  154.6420 C   0  0  0  0  0  2  0  0  0  0  0  0
  161.5410  209.6780  155.5510 C   0  0  0  0  0  2  0  0  0  0  0  0
  161.3170  204.4580  150.6670 O   0  0  0  0  0  0  0  0  0  0  0  0
  160.1930  203.9180  151.2990 C   0  0  0  0  0  2  0  0  0  0  0  0
  160.6200  202.7750  152.1930 C   0  0  0  0  0  2  0  0  0  0  0  0
  161.9970  202.2990  151.7840 C   0  0  0  0  0  1  0  0  0  0  0  0
  1 14  1  1  0  0  0
  1 18  1  0  0  0  0
  2  7  1  0  0  0  0
  3  1  1  6  0  0  0
  4 12  1  6  0  0  0
  4  7  1  0  0  0  0
  4  6  1  0  0  0  0
  5  9  1  6  0  0  0
  5  3  1  0  0  0  0
  6  5  1  0  0  0  0
  7  8  1  0  0  0  0
  8  3  1  0  0  0  0
  9 10  1  0  0  0  0
 11  9  1  0  0  0  0
 11 10  1  0  0  0  0
 12 13  1  0  0  0  0
 14 15  1  0  0  0  0
 14 16  1  0  0  0  0
 17 14  1  0  0  0  0
 18 29  1  1  0  0  0
 19 22  1  0  0  0  0
 20 22  1  0  0  0  0
 21 18  1  1  0  0  0
 21 23  1  0  0  0  0
 21 24  1  0  0  0  0
 22 26  1  1  0  0  0
 23 20  1  0  0  0  0
 24 19  1  0  0  0  0
 25 24  2  0  0  0  0
 26 28  1  0  0  0  0
 27 26  1  0  0  0  0
 27 28  1  0  0  0  0
 29 30  1  0  0  0  0
 30 31  1  0  0  0  0
 32 31  1  0  0  0  0
M  END
>  <MODEL>
3

>  <REMARK>
 VINA RESULT:      -4.7      2.786      4.792
  Name = 
  10 active torsions:
  status: ('A' for Active; 'I' for Inactive)
    1  A    between atoms: C_1  and  C_4
    2  A    between atoms: C_1  and  O_24
    3  A    between atoms: C_2  and  C_5
    4  A    between atoms: C_5  and  C_10
    5  A    between atoms: C_5  and  C_27
    6  A    between atoms: C_6  and  C_13
    7  A    between atoms: C_7  and  N_19
    8  A    between atoms: O_11  and  C_12
    9  A    between atoms: C_16  and  C_27
   10  A    between atoms: O_24  and  C_27
                            x       y       z     vdW  Elec       q    Type
                         _______ _______ _______ _____ _____    ______ ____

>  <TORSDO>
F 10

$$$$
=
 OpenBabel11062408193D

 32 35  0  0  1  0  0  0  0  0999 V2000
  160.9610  207.4640  152.9080 C   0  0  2  0  0  3  0  0  0  0  0  0
  160.5370  210.4340  156.0540 C   0  0  0  0  0  1  0  0  0  0  0  0
  161.5840  208.8800  152.8480 C   0  0  1  0  0  3  0  0  0  0  0  0
  159.6970  210.8510  153.8780 C   0  0  2  0  0  3  0  0  0  0  0  0
  160.8390  209.8040  151.8710 C   0  0  1  0  0  3  0  0  0  0  0  0
  159.5120  210.2910  152.4630 C   0  0  0  0  0  2  0  0  0  0  0  0
  160.3230  209.8410  154.7420 N   0  0  0  0  0  0  0  0  0  0  0  0
  161.6590  209.5470  154.2270 C   0  0  0  0  0  2  0  0  0  0  0  0
  161.7230  210.9740  151.4530 C   0  0  0  0  0  3  0  0  0  0  0  0
  162.0130  210.8830  149.9670 C   0  0  0  0  0  2  0  0  0  0  0  0
  160.9720  211.8570  150.4770 C   0  0  0  0  0  2  0  0  0  0  0  0
  158.4380  211.1960  154.3780 O   0  0  0  0  0  0  0  0  0  0  0  0
  157.9760  212.2110  153.5370 C   0  0  0  0  0  1  0  0  0  0  0  0
  160.9700  206.8280  154.3130 C   0  0  0  0  0  0  0  0  0  0  0  0
  159.7450  206.9860  154.9340 F   0  0  0  0  0  0  0  0  0  0  0  0
  161.9500  207.4060  155.1020 F   0  0  0  0  0  0  0  0  0  0  0  0
  161.2460  205.4790  154.2060 F   0  0  0  0  0  0  0  0  0  0  0  0
  161.4610  206.4870  151.8170 C   0  0  2  0  0  3  0  0  0  0  0  0
  161.1190  205.4080  148.3200 C   0  0  0  0  0  2  0  0  0  0  0  0
  162.5070  207.4660  148.1990 C   0  0  0  0  0  2  0  0  0  0  0  0
  161.3090  206.9870  150.3640 C   0  0  1  0  0  3  0  0  0  0  0  0
  161.7460  206.4310  147.4610 N   0  0  1  0  0  0  0  0  0  0  0  0
  162.6730  207.1820  149.6990 C   0  0  0  0  0  2  0  0  0  0  0  0
  160.4940  206.0320  149.5300 C   0  0  0  0  0  0  0  0  0  0  0  0
  159.3270  205.7960  149.8010 O   0  0  0  0  0  0  0  0  0  0  0  0
  162.6890  205.7480  146.5850 C   0  0  0  0  0  3  0  0  0  0  0  0
  162.1290  205.7010  145.1730 C   0  0  0  0  0  2  0  0  0  0  0  0
  162.0720  204.4670  146.0460 C   0  0  0  0  0  2  0  0  0  0  0  0
  160.8160  205.2560  151.9830 O   0  0  0  0  0  0  0  0  0  0  0  0
  161.8010  204.2950  151.7430 C   0  0  0  0  0  2  0  0  0  0  0  0
  161.1900  202.9140  151.8320 C   0  0  0  0  0  2  0  0  0  0  0  0
  160.8210  202.4340  150.4450 C   0  0  0  0  0  1  0  0  0  0  0  0
  1 14  1  1  0  0  0
  3  1  1  1  0  0  0
  3  8  1  0  0  0  0
  4 12  1  1  0  0  0
  4  7  1  0  0  0  0
  5  9  1  1  0  0  0
  5  6  1  0  0  0  0
  5  3  1  0  0  0  0
  6  4  1  0  0  0  0
  7  2  1  0  0  0  0
  8  7  1  0  0  0  0
 10 11  1  0  0  0  0
 10  9  1  0  0  0  0
 11  9  1  0  0  0  0
 13 12  1  0  0  0  0
 14 15  1  0  0  0  0
 14 16  1  0  0  0  0
 17 14  1  0  0  0  0
 18 29  1  6  0  0  0
 18  1  1  0  0  0  0
 19 24  1  0  0  0  0
 20 23  1  0  0  0  0
 21 18  1  1  0  0  0
 22 26  1  6  0  0  0
 22 20  1  0  0  0  0
 22 19  1  0  0  0  0
 23 21  1  0  0  0  0
 24 25  2  0  0  0  0
 24 21  1  0  0  0  0
 27 28  1  0  0  0  0
 27 26  1  0  0  0  0
 28 26  1  0  0  0  0
 30 31  1  0  0  0  0
 30 29  1  0  0  0  0
 32 31  1  0  0  0  0
M  END
>  <MODEL>
4

>  <REMARK>
 VINA RESULT:      -4.6      2.437      7.665
  Name = 
  10 active torsions:
  status: ('A' for Active; 'I' for Inactive)
    1  A    between atoms: C_1  and  C_4
    2  A    between atoms: C_1  and  O_24
    3  A    between atoms: C_2  and  C_5
    4  A    between atoms: C_5  and  C_10
    5  A    between atoms: C_5  and  C_27
    6  A    between atoms: C_6  and  C_13
    7  A    between atoms: C_7  and  N_19
    8  A    between atoms: O_11  and  C_12
    9  A    between atoms: C_16  and  C_27
   10  A    between atoms: O_24  and  C_27
                            x       y       z     vdW  Elec       q    Type
                         _______ _______ _______ _____ _____    ______ ____

>  <TORSDO>
F 10

$$$$
=
 OpenBabel11062408193D

 32 35  0  0  1  0  0  0  0  0999 V2000
  161.8680  208.2480  152.2350 C   0  0  2  0  0  3  0  0  0  0  0  0
  160.2540  212.0230  153.6640 C   0  0  0  0  0  1  0  0  0  0  0  0
  160.6710  208.3610  153.2100 C   0  0  1  0  0  3  0  0  0  0  0  0
  161.1740  210.4520  155.1800 C   0  0  2  0  0  3  0  0  0  0  0  0
  161.0500  207.9760  154.6480 C   0  0  1  0  0  3  0  0  0  0  0  0
  161.8550  209.0880  155.3310 C   0  0  0  0  0  2  0  0  0  0  0  0
  160.9570  210.7530  153.7580 N   0  0  0  0  0  0  0  0  0  0  0  0
  160.0390  209.7600  153.2040 C   0  0  0  0  0  2  0  0  0  0  0  0
  159.8100  207.6130  155.4570 C   0  0  0  0  0  3  0  0  0  0  0  0
  160.1990  206.6830  156.5900 C   0  0  0  0  0  2  0  0  0  0  0  0
  159.9440  208.1500  156.8680 C   0  0  0  0  0  2  0  0  0  0  0  0
  162.0040  211.4200  155.7530 O   0  0  0  0  0  0  0  0  0  0  0  0
  162.7780  210.7290  156.6880 C   0  0  0  0  0  1  0  0  0  0  0  0
  162.0880  209.4950  151.3560 C   0  0  0  0  0  0  0  0  0  0  0  0
  160.8810  210.0740  151.0090 F   0  0  0  0  0  0  0  0  0  0  0  0
  162.7740  209.1600  150.2000 F   0  0  0  0  0  0  0  0  0  0  0  0
  162.8440  210.4200  152.0500 F   0  0  0  0  0  0  0  0  0  0  0  0
  161.9180  206.9340  151.4180 C   0  0  2  0  0  3  0  0  0  0  0  0
  160.9090  205.0510  148.4270 C   0  0  0  0  0  2  0  0  0  0  0  0
  162.3440  206.8810  147.5510 C   0  0  0  0  0  2  0  0  0  0  0  0
  161.5320  207.0670  149.9300 C   0  0  1  0  0  3  0  0  0  0  0  0
  161.4180  205.7670  147.2410 N   0  0  1  0  0  0  0  0  0  0  0  0
  162.7620  206.9670  149.0260 C   0  0  0  0  0  2  0  0  0  0  0  0
  160.5390  206.0110  149.5170 C   0  0  0  0  0  0  0  0  0  0  0  0
  159.4300  205.9560  150.0240 O   0  0  0  0  0  0  0  0  0  0  0  0
  162.1580  204.8050  146.4350 C   0  0  0  0  0  3  0  0  0  0  0  0
  162.6150  205.4680  145.1460 C   0  0  0  0  0  2  0  0  0  0  0  0
  161.4220  204.5370  145.1310 C   0  0  0  0  0  2  0  0  0  0  0  0
  161.1150  205.9790  152.0510 O   0  0  0  0  0  0  0  0  0  0  0  0
  161.9070  204.8290  152.1220 C   0  0  0  0  0  2  0  0  0  0  0  0
  161.0240  203.6240  152.3630 C   0  0  0  0  0  2  0  0  0  0  0  0
  161.1620  202.6560  151.2080 C   0  0  0  0  0  1  0  0  0  0  0  0
  1 14  1  6  0  0  0
  2  7  1  0  0  0  0
  3  1  1  6  0  0  0
  3  5  1  0  0  0  0
  4  6  1  0  0  0  0
  4 12  1  6  0  0  0
  5  6  1  0  0  0  0
  5  9  1  1  0  0  0
  7  4  1  0  0  0  0
  8  3  1  0  0  0  0
  8  7  1  0  0  0  0
  9 10  1  0  0  0  0
  9 11  1  0  0  0  0
 10 11  1  0  0  0  0
 12 13  1  0  0  0  0
 14 17  1  0  0  0  0
 15 14  1  0  0  0  0
 16 14  1  0  0  0  0
 18 29  1  1  0  0  0
 18  1  1  0  0  0  0
 19 24  1  0  0  0  0
 20 23  1  0  0  0  0
 21 18  1  1  0  0  0
 22 26  1  6  0  0  0
 22 20  1  0  0  0  0
 22 19  1  0  0  0  0
 23 21  1  0  0  0  0
 24 21  1  0  0  0  0
 24 25  2  0  0  0  0
 27 26  1  0  0  0  0
 28 27  1  0  0  0  0
 28 26  1  0  0  0  0
 29 30  1  0  0  0  0
 30 31  1  0  0  0  0
 32 31  1  0  0  0  0
M  END
>  <MODEL>
5

>  <REMARK>
 VINA RESULT:      -4.5      1.836      7.491
  Name = 
  10 active torsions:
  status: ('A' for Active; 'I' for Inactive)
    1  A    between atoms: C_1  and  C_4
    2  A    between atoms: C_1  and  O_24
    3  A    between atoms: C_2  and  C_5
    4  A    between atoms: C_5  and  C_10
    5  A    between atoms: C_5  and  C_27
    6  A    between atoms: C_6  and  C_13
    7  A    between atoms: C_7  and  N_19
    8  A    between atoms: O_11  and  C_12
    9  A    between atoms: C_16  and  C_27
   10  A    between atoms: O_24  and  C_27
                            x       y       z     vdW  Elec       q    Type
                         _______ _______ _______ _____ _____    ______ ____

>  <TORSDO>
F 10

$$$$
=
 OpenBabel11062408193D

 32 35  0  0  1  0  0  0  0  0999 V2000
  159.7490  210.8130  154.8610 C   0  0  2  0  0  3  0  0  0  0  0  0
  158.1100  214.4530  156.5850 C   0  0  0  0  0  1  0  0  0  0  0  0
  159.9370  212.2210  154.2450 C   0  0  1  0  0  3  0  0  0  0  0  0
  157.4520  213.7380  154.4240 C   0  0  2  0  0  3  0  0  0  0  0  0
  159.0800  212.4280  152.9870 C   0  0  1  0  0  3  0  0  0  0  0  0
  157.6080  212.6600  153.3450 C   0  0  0  0  0  2  0  0  0  0  0  0
  158.2360  213.3760  155.6130 N   0  0  0  0  0  0  0  0  0  0  0  0
  159.6510  213.3450  155.2500 C   0  0  0  0  0  2  0  0  0  0  0  0
  159.6310  213.5690  152.1380 C   0  0  0  0  0  3  0  0  0  0  0  0
  160.0620  213.0310  150.7870 C   0  0  0  0  0  2  0  0  0  0  0  0
  158.7490  213.7740  150.9230 C   0  0  0  0  0  2  0  0  0  0  0  0
  156.0970  213.8320  154.7530 O   0  0  0  0  0  0  0  0  0  0  0  0
  155.5070  212.6920  154.2030 C   0  0  0  0  0  1  0  0  0  0  0  0
  159.4760  210.8180  156.3780 C   0  0  0  0  0  0  0  0  0  0  0  0
  160.2690  211.7510  157.0200 F   0  0  0  0  0  0  0  0  0  0  0  0
  159.7250  209.5680  156.9210 F   0  0  0  0  0  0  0  0  0  0  0  0
  158.1490  211.1270  156.6070 F   0  0  0  0  0  0  0  0  0  0  0  0
  160.8270  209.7780  154.4590 C   0  0  2  0  0  3  0  0  0  0  0  0
  161.4830  206.2410  153.7060 C   0  0  0  0  0  2  0  0  0  0  0  0
  160.5400  207.1570  151.5980 C   0  0  0  0  0  2  0  0  0  0  0  0
  160.3050  208.5480  153.6870 C   0  0  1  0  0  3  0  0  0  0  0  0
  160.9670  205.9570  152.3530 N   0  0  1  0  0  0  0  0  0  0  0  0
  160.8900  208.4910  152.2740 C   0  0  0  0  0  2  0  0  0  0  0  0
  160.6350  207.2620  154.4010 C   0  0  0  0  0  0  0  0  0  0  0  0
  160.1870  207.0260  155.5120 O   0  0  0  0  0  0  0  0  0  0  0  0
  162.0460  205.3350  151.5960 C   0  0  0  0  0  3  0  0  0  0  0  0
  161.5930  205.1020  150.1640 C   0  0  0  0  0  2  0  0  0  0  0  0
  161.6330  203.9450  151.1380 C   0  0  0  0  0  2  0  0  0  0  0  0
  161.5200  209.3800  155.6070 O   0  0  0  0  0  0  0  0  0  0  0  0
  162.6100  210.2500  155.6930 C   0  0  0  0  0  2  0  0  0  0  0  0
  163.0950  210.3090  157.1240 C   0  0  0  0  0  2  0  0  0  0  0  0
  164.1780  211.3590  157.2490 C   0  0  0  0  0  1  0  0  0  0  0  0
  1 14  1  1  0  0  0
  3  1  1  1  0  0  0
  3  8  1  0  0  0  0
  4 12  1  1  0  0  0
  4  7  1  0  0  0  0
  5  9  1  1  0  0  0
  5  6  1  0  0  0  0
  5  3  1  0  0  0  0
  6  4  1  0  0  0  0
  7  2  1  0  0  0  0
  8  7  1  0  0  0  0
 10 11  1  0  0  0  0
 10  9  1  0  0  0  0
 11  9  1  0  0  0  0
 13 12  1  0  0  0  0
 14 17  1  0  0  0  0
 14 16  1  0  0  0  0
 14 15  1  0  0  0  0
 18  1  1  0  0  0  0
 18 29  1  1  0  0  0
 19 24  1  0  0  0  0
 20 23  1  0  0  0  0
 20 22  1  0  0  0  0
 21 24  1  0  0  0  0
 21 18  1  1  0  0  0
 22 26  1  6  0  0  0
 22 19  1  0  0  0  0
 23 21  1  0  0  0  0
 24 25  2  0  0  0  0
 27 28  1  0  0  0  0
 27 26  1  0  0  0  0
 28 26  1  0  0  0  0
 29 30  1  0  0  0  0
 30 31  1  0  0  0  0
 31 32  1  0  0  0  0
M  END
>  <MODEL>
6

>  <REMARK>
 VINA RESULT:      -4.4      2.989      7.619
  Name = 
  10 active torsions:
  status: ('A' for Active; 'I' for Inactive)
    1  A    between atoms: C_1  and  C_4
    2  A    between atoms: C_1  and  O_24
    3  A    between atoms: C_2  and  C_5
    4  A    between atoms: C_5  and  C_10
    5  A    between atoms: C_5  and  C_27
    6  A    between atoms: C_6  and  C_13
    7  A    between atoms: C_7  and  N_19
    8  A    between atoms: O_11  and  C_12
    9  A    between atoms: C_16  and  C_27
   10  A    between atoms: O_24  and  C_27
                            x       y       z     vdW  Elec       q    Type
                         _______ _______ _______ _____ _____    ______ ____

>  <TORSDO>
F 10

$$$$
=
 OpenBabel11062408193D

 32 35  0  0  1  0  0  0  0  0999 V2000
  161.5890  208.7680  152.5270 C   0  0  2  0  0  3  0  0  0  0  0  0
  160.0310  212.3000  154.5260 C   0  0  0  0  0  1  0  0  0  0  0  0
  160.4810  208.7300  153.6070 C   0  0  1  0  0  3  0  0  0  0  0  0
  161.1130  210.5920  155.7610 C   0  0  2  0  0  3  0  0  0  0  0  0
  160.9940  208.1920  154.9520 C   0  0  1  0  0  3  0  0  0  0  0  0
  161.8330  209.2410  155.6900 C   0  0  0  0  0  2  0  0  0  0  0  0
  160.7660  211.0500  154.4080 N   0  0  0  0  0  0  0  0  0  0  0  0
  159.8220  210.1000  153.8210 C   0  0  0  0  0  2  0  0  0  0  0  0
  159.8370  207.6990  155.8150 C   0  0  0  0  0  3  0  0  0  0  0  0
  160.3470  206.6670  156.8020 C   0  0  0  0  0  2  0  0  0  0  0  0
  160.0780  208.0850  157.2600 C   0  0  0  0  0  2  0  0  0  0  0  0
  161.9710  211.5120  156.3720 O   0  0  0  0  0  0  0  0  0  0  0  0
  163.0500  210.7540  156.8330 C   0  0  0  0  0  1  0  0  0  0  0  0
  162.0760  210.1860  152.1690 C   0  0  0  0  0  0  0  0  0  0  0  0
  161.0180  210.9890  151.7830 F   0  0  0  0  0  0  0  0  0  0  0  0
  163.0010  210.1380  151.1400 F   0  0  0  0  0  0  0  0  0  0  0  0
  162.6890  210.7540  153.2690 F   0  0  0  0  0  0  0  0  0  0  0  0
  161.3020  207.9090  151.2720 C   0  0  2  0  0  3  0  0  0  0  0  0
  162.2340  204.3540  151.3210 C   0  0  0  0  0  2  0  0  0  0  0  0
  159.8800  204.3650  150.5260 C   0  0  0  0  0  2  0  0  0  0  0  0
  160.7790  206.4840  151.5520 C   0  0  1  0  0  3  0  0  0  0  0  0
  161.0350  203.5610  150.9870 N   0  0  1  0  0  0  0  0  0  0  0  0
  160.1940  205.8500  150.2890 C   0  0  0  0  0  2  0  0  0  0  0  0
  161.8660  205.5880  152.0870 C   0  0  0  0  0  0  0  0  0  0  0  0
  162.4160  205.8290  153.1500 O   0  0  0  0  0  0  0  0  0  0  0  0
  161.3950  202.6630  149.8980 C   0  0  0  0  0  3  0  0  0  0  0  0
  160.1370  202.0270  149.3280 C   0  0  0  0  0  2  0  0  0  0  0  0
  161.0270  201.2310  150.2560 C   0  0  0  0  0  2  0  0  0  0  0  0
  162.4580  207.8610  150.4840 O   0  0  0  0  0  0  0  0  0  0  0  0
  162.0280  208.1700  149.1910 C   0  0  0  0  0  2  0  0  0  0  0  0
  162.6740  207.2200  148.2060 C   0  0  0  0  0  2  0  0  0  0  0  0
  161.6450  206.7590  147.1970 C   0  0  0  0  0  1  0  0  0  0  0  0
  1 14  1  6  0  0  0
  3  1  1  6  0  0  0
  3  8  1  0  0  0  0
  3  5  1  0  0  0  0
  4 12  1  6  0  0  0
  5  6  1  0  0  0  0
  5  9  1  1  0  0  0
  6  4  1  0  0  0  0
  7  2  1  0  0  0  0
  7  4  1  0  0  0  0
  8  7  1  0  0  0  0
  9 10  1  0  0  0  0
  9 11  1  0  0  0  0
 10 11  1  0  0  0  0
 12 13  1  0  0  0  0
 14 17  1  0  0  0  0
 15 14  1  0  0  0  0
 16 14  1  0  0  0  0
 18 29  1  1  0  0  0
 18  1  1  0  0  0  0
 19 24  1  0  0  0  0
 20 22  1  0  0  0  0
 21 18  1  6  0  0  0
 21 24  1  0  0  0  0
 22 26  1  6  0  0  0
 22 19  1  0  0  0  0
 23 20  1  0  0  0  0
 23 21  1  0  0  0  0
 24 25  2  0  0  0  0
 26 28  1  0  0  0  0
 27 26  1  0  0  0  0
 27 28  1  0  0  0  0
 30 29  1  0  0  0  0
 31 30  1  0  0  0  0
 32 31  1  0  0  0  0
M  END
>  <MODEL>
7

>  <REMARK>
 VINA RESULT:      -4.3      1.893      7.423
  Name = 
  10 active torsions:
  status: ('A' for Active; 'I' for Inactive)
    1  A    between atoms: C_1  and  C_4
    2  A    between atoms: C_1  and  O_24
    3  A    between atoms: C_2  and  C_5
    4  A    between atoms: C_5  and  C_10
    5  A    between atoms: C_5  and  C_27
    6  A    between atoms: C_6  and  C_13
    7  A    between atoms: C_7  and  N_19
    8  A    between atoms: O_11  and  C_12
    9  A    between atoms: C_16  and  C_27
   10  A    between atoms: O_24  and  C_27
                            x       y       z     vdW  Elec       q    Type
                         _______ _______ _______ _____ _____    ______ ____

>  <TORSDO>
F 10

$$$$
=
 OpenBabel11062408193D

 32 35  0  0  1  0  0  0  0  0999 V2000
  161.5810  206.0520  150.5610 C   0  0  2  0  0  3  0  0  0  0  0  0
  159.8230  202.0840  150.3100 C   0  0  0  0  0  1  0  0  0  0  0  0
  160.5650  205.6260  149.4740 C   0  0  1  0  0  3  0  0  0  0  0  0
  161.1600  202.9260  148.5450 C   0  0  2  0  0  3  0  0  0  0  0  0
  161.2260  205.4220  148.1020 C   0  0  1  0  0  3  0  0  0  0  0  0
  162.0060  204.1030  148.0480 C   0  0  0  0  0  2  0  0  0  0  0  0
  160.6710  203.1950  149.9040 N   0  0  0  0  0  0  0  0  0  0  0  0
  159.7880  204.3600  149.8610 C   0  0  0  0  0  2  0  0  0  0  0  0
  160.1920  205.5010  146.9850 C   0  0  0  0  0  3  0  0  0  0  0  0
  160.5960  206.5790  145.9970 C   0  0  0  0  0  2  0  0  0  0  0  0
  160.8350  205.1200  145.6660 C   0  0  0  0  0  2  0  0  0  0  0  0
  161.9630  201.7810  148.5430 O   0  0  0  0  0  0  0  0  0  0  0  0
  161.3480  200.9050  147.6460 C   0  0  0  0  0  1  0  0  0  0  0  0
  161.7410  205.0380  151.7100 C   0  0  0  0  0  0  0  0  0  0  0  0
  162.3300  203.8700  151.2610 F   0  0  0  0  0  0  0  0  0  0  0  0
  160.5100  204.7330  152.2660 F   0  0  0  0  0  0  0  0  0  0  0  0
  162.5350  205.5860  152.7000 F   0  0  0  0  0  0  0  0  0  0  0  0
  161.4140  207.5030  151.0740 C   0  0  2  0  0  3  0  0  0  0  0  0
  161.7130  211.1060  150.4150 C   0  0  0  0  0  2  0  0  0  0  0  0
  162.3310  210.0300  148.2620 C   0  0  0  0  0  2  0  0  0  0  0  0
  162.2290  208.5700  150.3130 C   0  0  1  0  0  3  0  0  0  0  0  0
  162.2570  211.2800  149.0540 N   0  0  1  0  0  0  0  0  0  0  0  0
  161.6510  208.8210  148.9190 C   0  0  0  0  0  2  0  0  0  0  0  0
  162.2710  209.8770  151.0640 C   0  0  0  0  0  0  0  0  0  0  0  0
  162.7890  209.9540  152.1660 O   0  0  0  0  0  0  0  0  0  0  0  0
  161.3680  212.1880  148.3410 C   0  0  0  0  0  3  0  0  0  0  0  0
  162.0390  212.6510  147.0580 C   0  0  0  0  0  2  0  0  0  0  0  0
  161.9910  213.5730  148.2560 C   0  0  0  0  0  2  0  0  0  0  0  0
  161.7150  207.5360  152.4400 O   0  0  0  0  0  0  0  0  0  0  0  0
  160.5620  208.0330  153.0530 C   0  0  0  0  0  2  0  0  0  0  0  0
  160.8200  208.2210  154.5320 C   0  0  0  0  0  2  0  0  0  0  0  0
  160.4570  206.9530  155.2750 C   0  0  0  0  0  1  0  0  0  0  0  0
  1 18  1  0  0  0  0
  1 14  1  1  0  0  0
  3  8  1  0  0  0  0
  3  1  1  1  0  0  0
  4 12  1  1  0  0  0
  4  7  1  0  0  0  0
  5  9  1  6  0  0  0
  5  3  1  0  0  0  0
  6  5  1  0  0  0  0
  6  4  1  0  0  0  0
  7  2  1  0  0  0  0
  8  7  1  0  0  0  0
 10  9  1  0  0  0  0
 11 10  1  0  0  0  0
 11  9  1  0  0  0  0
 13 12  1  0  0  0  0
 14 16  1  0  0  0  0
 14 17  1  0  0  0  0
 15 14  1  0  0  0  0
 18 29  1  1  0  0  0
 19 24  1  0  0  0  0
 20 23  1  0  0  0  0
 20 22  1  0  0  0  0
 21 24  1  0  0  0  0
 21 18  1  1  0  0  0
 22 26  1  6  0  0  0
 22 19  1  0  0  0  0
 23 21  1  0  0  0  0
 24 25  2  0  0  0  0
 27 28  1  0  0  0  0
 27 26  1  0  0  0  0
 28 26  1  0  0  0  0
 29 30  1  0  0  0  0
 30 31  1  0  0  0  0
 31 32  1  0  0  0  0
M  END
>  <MODEL>
8

>  <REMARK>
 VINA RESULT:      -4.1      3.409      5.405
  Name = 
  10 active torsions:
  status: ('A' for Active; 'I' for Inactive)
    1  A    between atoms: C_1  and  C_4
    2  A    between atoms: C_1  and  O_24
    3  A    between atoms: C_2  and  C_5
    4  A    between atoms: C_5  and  C_10
    5  A    between atoms: C_5  and  C_27
    6  A    between atoms: C_6  and  C_13
    7  A    between atoms: C_7  and  N_19
    8  A    between atoms: O_11  and  C_12
    9  A    between atoms: C_16  and  C_27
   10  A    between atoms: O_24  and  C_27
                            x       y       z     vdW  Elec       q    Type
                         _______ _______ _______ _____ _____    ______ ____

>  <TORSDO>
F 10

$$$$
=
 OpenBabel11062408193D

 32 35  0  0  1  0  0  0  0  0999 V2000
  158.3200  212.4850  139.7030 C   0  0  2  0  0  3  0  0  0  0  0  0
  154.7680  211.2070  137.5470 C   0  0  0  0  0  1  0  0  0  0  0  0
  158.3550  211.7220  138.3570 C   0  0  1  0  0  3  0  0  0  0  0  0
  156.3360  209.6180  138.3400 C   0  0  2  0  0  3  0  0  0  0  0  0
  158.7830  210.2560  138.5270 C   0  0  1  0  0  3  0  0  0  0  0  0
  157.6470  209.4060  139.1060 C   0  0  0  0  0  2  0  0  0  0  0  0
  155.9800  211.0440  138.3350 N   0  0  0  0  0  0  0  0  0  0  0  0
  157.0150  211.7820  137.6130 C   0  0  0  0  0  2  0  0  0  0  0  0
  159.2880  209.6830  137.2070 C   0  0  0  0  0  3  0  0  0  0  0  0
  160.8030  209.7260  137.1840 C   0  0  0  0  0  2  0  0  0  0  0  0
  160.0870  208.4230  137.4710 C   0  0  0  0  0  2  0  0  0  0  0  0
  155.3350  208.8770  138.9760 O   0  0  0  0  0  0  0  0  0  0  0  0
  155.1170  207.7730  138.1480 C   0  0  0  0  0  1  0  0  0  0  0  0
  157.2140  213.5550  139.7960 C   0  0  0  0  0  0  0  0  0  0  0  0
  155.9880  212.9760  140.0690 F   0  0  0  0  0  0  0  0  0  0  0  0
  157.1210  214.2620  138.6090 F   0  0  0  0  0  0  0  0  0  0  0  0
  157.5200  214.4480  140.8040 F   0  0  0  0  0  0  0  0  0  0  0  0
  159.6920  213.0130  140.1880 C   0  0  2  0  0  3  0  0  0  0  0  0
  163.3360  212.5800  139.9770 C   0  0  0  0  0  2  0  0  0  0  0  0
  162.7470  213.8710  137.9370 C   0  0  0  0  0  2  0  0  0  0  0  0
  160.8690  212.7820  139.2160 C   0  0  1  0  0  3  0  0  0  0  0  0
  163.7890  213.1280  138.6840 N   0  0  1  0  0  0  0  0  0  0  0  0
  161.4500  214.1090  138.7230 C   0  0  0  0  0  2  0  0  0  0  0  0
  161.9700  211.9770  139.8570 C   0  0  0  0  0  0  0  0  0  0  0  0
  161.7750  210.8340  140.2370 O   0  0  0  0  0  0  0  0  0  0  0  0
  164.8700  214.0650  138.9610 C   0  0  0  0  0  3  0  0  0  0  0  0
  165.5510  214.4530  137.6590 C   0  0  0  0  0  2  0  0  0  0  0  0
  166.2080  213.4500  138.5810 C   0  0  0  0  0  2  0  0  0  0  0  0
  159.9730  212.4550  141.4400 O   0  0  0  0  0  0  0  0  0  0  0  0
  159.9950  213.5390  142.3220 C   0  0  0  0  0  2  0  0  0  0  0  0
  160.0700  213.0290  143.7440 C   0  0  0  0  0  2  0  0  0  0  0  0
  159.8810  214.1810  144.7070 C   0  0  0  0  0  1  0  0  0  0  0  0
  1 14  1  6  0  0  0
  1 18  1  0  0  0  0
  2  7  1  0  0  0  0
  3  5  1  0  0  0  0
  3  1  1  1  0  0  0
  4 12  1  1  0  0  0
  4  6  1  0  0  0  0
  5  9  1  6  0  0  0
  5  6  1  0  0  0  0
  7  4  1  0  0  0  0
  8  7  1  0  0  0  0
  8  3  1  0  0  0  0
  9 11  1  0  0  0  0
 10  9  1  0  0  0  0
 10 11  1  0  0  0  0
 13 12  1  0  0  0  0
 14 15  1  0  0  0  0
 14 17  1  0  0  0  0
 16 14  1  0  0  0  0
 18 29  1  1  0  0  0
 20 22  1  0  0  0  0
 20 23  1  0  0  0  0
 21 24  1  0  0  0  0
 21 18  1  1  0  0  0
 22 26  1  1  0  0  0
 22 19  1  0  0  0  0
 23 21  1  0  0  0  0
 24 19  1  0  0  0  0
 24 25  2  0  0  0  0
 27 28  1  0  0  0  0
 27 26  1  0  0  0  0
 28 26  1  0  0  0  0
 29 30  1  0  0  0  0
 30 31  1  0  0  0  0
 31 32  1  0  0  0  0
M  END
>  <MODEL>
9

>  <REMARK>
 VINA RESULT:      -3.9     11.253     14.649
  Name = 
  10 active torsions:
  status: ('A' for Active; 'I' for Inactive)
    1  A    between atoms: C_1  and  C_4
    2  A    between atoms: C_1  and  O_24
    3  A    between atoms: C_2  and  C_5
    4  A    between atoms: C_5  and  C_10
    5  A    between atoms: C_5  and  C_27
    6  A    between atoms: C_6  and  C_13
    7  A    between atoms: C_7  and  N_19
    8  A    between atoms: O_11  and  C_12
    9  A    between atoms: C_16  and  C_27
   10  A    between atoms: O_24  and  C_27
                            x       y       z     vdW  Elec       q    Type
                         _______ _______ _______ _____ _____    ______ ____

>  <TORSDO>
F 10

$$$$
