=
 OpenBabel11052422493D

 28 31  0  0  1  0  0  0  0  0999 V2000
  162.1140  208.0170  149.2350 C   0  0  0  0  0  0  0  0  0  0  0  0
  162.4070  207.7490  147.8600 N   0  0  0  0  0  2  0  0  0  0  0  0
  160.7360  208.3230  153.7750 C   0  0  0  0  0  1  0  0  0  0  0  0
  161.3430  207.8630  151.4110 C   0  0  0  0  0  0  0  0  0  0  0  0
  162.1130  209.0650  151.1520 C   0  0  0  0  0  0  0  0  0  0  0  0
  160.7230  207.4990  152.5330 C   0  0  0  0  0  3  0  0  0  0  0  0
  162.3660  209.9770  151.9820 O   0  0  0  0  0  0  0  0  0  0  0  0
  162.5560  209.0920  149.8100 N   0  0  0  0  0  0  0  0  0  0  0  0
  161.3520  207.0770  150.1440 C   0  0  2  0  0  3  0  0  0  0  0  0
  161.6760  206.8610  147.0070 C   0  0  0  0  0  0  0  0  0  0  0  0
  161.0580  205.2320  145.6770 C   0  0  0  0  0  0  0  0  0  0  0  0
  160.3030  206.8800  146.8420 C   0  0  0  0  0  3  0  0  0  0  0  0
  163.4620  205.3300  146.2100 O   0  0  0  0  0  1  0  0  0  0  0  0
  162.1540  205.7920  146.2820 C   0  0  0  0  0  0  0  0  0  0  0  0
  161.0620  204.0500  144.7740 C   0  0  0  0  0  1  0  0  0  0  0  0
  159.9760  205.8930  146.0270 O   0  0  0  0  0  0  0  0  0  0  0  0
  162.0840  205.8980  150.3360 O   0  0  0  0  0  0  0  0  0  0  0  0
  161.3560  203.7360  148.6470 C   0  0  0  0  0  3  0  0  0  0  0  0
  161.2900  202.3250  150.6780 C   0  0  2  0  0  3  0  0  0  0  0  0
  161.1590  204.9500  150.7940 C   0  0  1  0  0  3  0  0  0  0  0  0
  161.1710  201.3170  148.3830 C   0  0  0  0  0  0  0  0  0  0  0  0
  161.2530  203.6770  149.9800 C   0  0  0  0  0  0  0  0  0  0  0  0
  160.6020  203.4840  152.7470 C   0  0  0  0  0  3  0  0  0  0  0  0
  160.6930  201.2150  149.8060 C   0  0  0  0  0  2  0  0  0  0  0  0
  160.5560  202.3800  151.9900 C   0  0  0  0  0  3  0  0  0  0  0  0
  161.2610  199.8740  147.3970 Cl  0  0  0  0  0  0  0  0  0  0  0  0
  161.4210  202.5090  147.8350 C   0  0  0  0  0  3  0  0  0  0  0  0
  161.3950  204.6740  152.2880 C   0  0  0  0  0  2  0  0  0  0  0  0
  1  8  2  0  0  0  0
  1  9  1  0  0  0  0
  2  1  1  0  0  0  0
  4  6  2  0  0  0  0
  5  4  1  0  0  0  0
  5  7  2  0  0  0  0
  6  3  1  0  0  0  0
  8  5  1  0  0  0  0
  9 17  1  1  0  0  0
  9  4  1  0  0  0  0
 10  2  1  0  0  0  0
 11 16  1  0  0  0  0
 11 14  2  0  0  0  0
 12 10  2  0  0  0  0
 13 14  1  0  0  0  0
 14 10  1  0  0  0  0
 15 11  1  0  0  0  0
 16 12  1  0  0  0  0
 18 22  2  0  0  0  0
 19 24  1  6  0  0  0
 19 25  1  0  0  0  0
 20 17  1  6  0  0  0
 20 28  1  0  0  0  0
 21 24  1  0  0  0  0
 22 19  1  0  0  0  0
 22 20  1  0  0  0  0
 25 23  2  0  0  0  0
 26 21  1  0  0  0  0
 27 21  2  0  0  0  0
 27 18  1  0  0  0  0
 28 23  1  0  0  0  0
M  END
>  <MODEL>
1

>  <REMARK>
 VINA RESULT:      -8.8      0.000      0.000
  Name = 
  3 active torsions:
  status: ('A' for Active; 'I' for Inactive)
    1  A    between atoms: N_2  and  C_3
    2  A    between atoms: C_10  and  O_17
    3  A    between atoms: O_17  and  C_27
                            x       y       z     vdW  Elec       q    Type
                         _______ _______ _______ _____ _____    ______ ____

>  <TORSDO>
F 3

$$$$
=
 OpenBabel11052422493D

 28 31  0  0  1  0  0  0  0  0999 V2000
  162.3280  207.6370  148.2790 C   0  0  0  0  0  0  0  0  0  0  0  0
  162.8220  207.1070  147.0450 N   0  0  0  0  0  2  0  0  0  0  0  0
  160.3250  208.7900  152.4340 C   0  0  0  0  0  1  0  0  0  0  0  0
  161.2760  207.8880  150.3250 C   0  0  0  0  0  0  0  0  0  0  0  0
  162.0040  209.0680  149.8980 C   0  0  0  0  0  0  0  0  0  0  0  0
  160.5300  207.7200  151.4160 C   0  0  0  0  0  3  0  0  0  0  0  0
  162.0870  210.1560  150.5270 O   0  0  0  0  0  0  0  0  0  0  0  0
  162.6240  208.8440  148.6470 N   0  0  0  0  0  0  0  0  0  0  0  0
  161.5040  206.8520  149.2760 C   0  0  2  0  0  3  0  0  0  0  0  0
  162.2670  205.9970  146.3310 C   0  0  0  0  0  0  0  0  0  0  0  0
  160.9680  204.6430  145.1970 C   0  0  0  0  0  0  0  0  0  0  0  0
  162.9870  204.8940  145.9060 C   0  0  0  0  0  3  0  0  0  0  0  0
  159.9270  206.7420  145.9630 O   0  0  0  0  0  1  0  0  0  0  0  0
  160.9830  205.8460  145.8550 C   0  0  0  0  0  0  0  0  0  0  0  0
  159.7950  204.0300  144.5170 C   0  0  0  0  0  1  0  0  0  0  0  0
  162.1660  204.1020  145.2410 O   0  0  0  0  0  0  0  0  0  0  0  0
  162.2700  205.8100  149.8150 O   0  0  0  0  0  0  0  0  0  0  0  0
  161.4180  203.5010  148.4000 C   0  0  0  0  0  3  0  0  0  0  0  0
  161.4270  202.3110  150.5700 C   0  0  2  0  0  3  0  0  0  0  0  0
  161.3510  204.9370  150.4140 C   0  0  1  0  0  3  0  0  0  0  0  0
  161.1740  201.0720  148.4030 C   0  0  0  0  0  0  0  0  0  0  0  0
  161.3810  203.5840  149.7360 C   0  0  0  0  0  0  0  0  0  0  0  0
  160.8650  203.6970  152.5350 C   0  0  0  0  0  3  0  0  0  0  0  0
  160.7660  201.1310  149.8500 C   0  0  0  0  0  2  0  0  0  0  0  0
  160.7610  202.5220  151.9020 C   0  0  0  0  0  3  0  0  0  0  0  0
  161.1870  199.5330  147.5710 Cl  0  0  0  0  0  0  0  0  0  0  0  0
  161.4190  202.1940  147.7210 C   0  0  0  0  0  3  0  0  0  0  0  0
  161.6560  204.8130  151.9150 C   0  0  0  0  0  2  0  0  0  0  0  0
  1  8  2  0  0  0  0
  1  9  1  0  0  0  0
  2  1  1  0  0  0  0
  4  6  2  0  0  0  0
  5  4  1  0  0  0  0
  5  7  2  0  0  0  0
  6  3  1  0  0  0  0
  8  5  1  0  0  0  0
  9 17  1  1  0  0  0
  9  4  1  0  0  0  0
 10  2  1  0  0  0  0
 11 16  1  0  0  0  0
 11 14  2  0  0  0  0
 12 10  2  0  0  0  0
 14 13  1  0  0  0  0
 14 10  1  0  0  0  0
 15 11  1  0  0  0  0
 16 12  1  0  0  0  0
 18 22  2  0  0  0  0
 19 24  1  6  0  0  0
 19 25  1  0  0  0  0
 20 17  1  6  0  0  0
 20 28  1  0  0  0  0
 21 24  1  0  0  0  0
 22 20  1  0  0  0  0
 22 19  1  0  0  0  0
 25 23  2  0  0  0  0
 26 21  1  0  0  0  0
 27 18  1  0  0  0  0
 27 21  2  0  0  0  0
 28 23  1  0  0  0  0
M  END
>  <MODEL>
2

>  <REMARK>
 VINA RESULT:      -7.6      0.924      1.404
  Name = 
  3 active torsions:
  status: ('A' for Active; 'I' for Inactive)
    1  A    between atoms: N_2  and  C_3
    2  A    between atoms: C_10  and  O_17
    3  A    between atoms: O_17  and  C_27
                            x       y       z     vdW  Elec       q    Type
                         _______ _______ _______ _____ _____    ______ ____

>  <TORSDO>
F 3

$$$$
=
 OpenBabel11052422493D

 28 31  0  0  1  0  0  0  0  0999 V2000
  161.9360  210.0010  152.6880 C   0  0  0  0  0  0  0  0  0  0  0  0
  162.5020  210.7410  151.6010 N   0  0  0  0  0  2  0  0  0  0  0  0
  159.7440  207.1440  155.7930 C   0  0  0  0  0  1  0  0  0  0  0  0
  160.8190  208.4150  153.9500 C   0  0  0  0  0  0  0  0  0  0  0  0
  161.4500  209.4510  154.7450 C   0  0  0  0  0  0  0  0  0  0  0  0
  160.0650  207.3940  154.3590 C   0  0  0  0  0  3  0  0  0  0  0  0
  161.4230  209.5410  156.0010 O   0  0  0  0  0  0  0  0  0  0  0  0
  162.1160  210.3800  153.9140 N   0  0  0  0  0  0  0  0  0  0  0  0
  161.1610  208.7100  152.5290 C   0  0  2  0  0  3  0  0  0  0  0  0
  162.0630  210.6950  150.2400 C   0  0  0  0  0  0  0  0  0  0  0  0
  161.2750  211.1730  148.2500 C   0  0  0  0  0  0  0  0  0  0  0  0
  162.2940  209.6420  149.3720 C   0  0  0  0  0  3  0  0  0  0  0  0
  161.0770  212.9550  149.9420 O   0  0  0  0  0  1  0  0  0  0  0  0
  161.4340  211.6820  149.5140 C   0  0  0  0  0  0  0  0  0  0  0  0
  160.6320  211.8640  147.1000 C   0  0  0  0  0  1  0  0  0  0  0  0
  161.7940  209.9660  148.1940 O   0  0  0  0  0  0  0  0  0  0  0  0
  162.0020  207.7040  152.0360 O   0  0  0  0  0  0  0  0  0  0  0  0
  161.2780  206.8340  149.4330 C   0  0  0  0  0  3  0  0  0  0  0  0
  161.4940  204.5170  150.2750 C   0  0  2  0  0  3  0  0  0  0  0  0
  161.1910  206.5700  151.8920 C   0  0  1  0  0  3  0  0  0  0  0  0
  161.2390  204.9980  147.8260 C   0  0  0  0  0  0  0  0  0  0  0  0
  161.3000  206.0120  150.4890 C   0  0  0  0  0  0  0  0  0  0  0  0
  160.9160  204.2010  152.6550 C   0  0  0  0  0  3  0  0  0  0  0  0
  160.9000  204.0490  148.9420 C   0  0  0  0  0  2  0  0  0  0  0  0
  160.8800  203.7320  151.4010 C   0  0  0  0  0  3  0  0  0  0  0  0
  161.3400  204.3990  146.1840 Cl  0  0  0  0  0  0  0  0  0  0  0  0
  161.3540  206.3080  148.0600 C   0  0  0  0  0  3  0  0  0  0  0  0
  161.5790  205.5170  152.9420 C   0  0  0  0  0  2  0  0  0  0  0  0
  1  8  2  0  0  0  0
  2  1  1  0  0  0  0
  4  6  2  0  0  0  0
  4  5  1  0  0  0  0
  5  7  2  0  0  0  0
  6  3  1  0  0  0  0
  8  5  1  0  0  0  0
  9 17  1  1  0  0  0
  9  1  1  0  0  0  0
  9  4  1  0  0  0  0
 10  2  1  0  0  0  0
 11 14  2  0  0  0  0
 12 10  2  0  0  0  0
 14 13  1  0  0  0  0
 14 10  1  0  0  0  0
 15 11  1  0  0  0  0
 16 11  1  0  0  0  0
 16 12  1  0  0  0  0
 18 22  2  0  0  0  0
 19 24  1  6  0  0  0
 19 22  1  0  0  0  0
 19 25  1  0  0  0  0
 20 17  1  6  0  0  0
 20 28  1  0  0  0  0
 21 27  2  0  0  0  0
 21 24  1  0  0  0  0
 22 20  1  0  0  0  0
 23 28  1  0  0  0  0
 25 23  2  0  0  0  0
 26 21  1  0  0  0  0
 27 18  1  0  0  0  0
M  END
>  <MODEL>
3

>  <REMARK>
 VINA RESULT:      -6.9      2.507      4.259
  Name = 
  3 active torsions:
  status: ('A' for Active; 'I' for Inactive)
    1  A    between atoms: N_2  and  C_3
    2  A    between atoms: C_10  and  O_17
    3  A    between atoms: O_17  and  C_27
                            x       y       z     vdW  Elec       q    Type
                         _______ _______ _______ _____ _____    ______ ____

>  <TORSDO>
F 3

$$$$
=
 OpenBabel11052422493D

 28 31  0  0  1  0  0  0  0  0999 V2000
  161.1890  207.5260  153.1580 C   0  0  0  0  0  0  0  0  0  0  0  0
  161.1050  206.6030  152.0680 N   0  0  0  0  0  2  0  0  0  0  0  0
  161.6220  211.0840  156.2830 C   0  0  0  0  0  1  0  0  0  0  0  0
  161.3850  209.4530  154.4250 C   0  0  0  0  0  0  0  0  0  0  0  0
  161.1870  208.2540  155.2170 C   0  0  0  0  0  0  0  0  0  0  0  0
  161.5820  210.7040  154.8420 C   0  0  0  0  0  3  0  0  0  0  0  0
  161.1270  208.1980  156.4740 O   0  0  0  0  0  0  0  0  0  0  0  0
  161.0700  207.1200  154.3830 N   0  0  0  0  0  0  0  0  0  0  0  0
  161.3440  209.0240  152.9970 C   0  0  2  0  0  3  0  0  0  0  0  0
  161.6120  206.8200  150.7470 C   0  0  0  0  0  0  0  0  0  0  0  0
  161.9300  206.8470  148.5780 C   0  0  0  0  0  0  0  0  0  0  0  0
  162.6300  207.7010  150.4280 C   0  0  0  0  0  3  0  0  0  0  0  0
  160.0810  205.4250  149.3760 O   0  0  0  0  0  1  0  0  0  0  0  0
  161.1500  206.2930  149.5610 C   0  0  0  0  0  0  0  0  0  0  0  0
  161.8240  206.5780  147.1180 C   0  0  0  0  0  1  0  0  0  0  0  0
  162.7950  207.6770  149.1180 O   0  0  0  0  0  0  0  0  0  0  0  0
  160.2040  209.5600  152.3850 O   0  0  0  0  0  0  0  0  0  0  0  0
  161.7600  210.7530  150.3320 C   0  0  0  0  0  3  0  0  0  0  0  0
  160.1690  212.6470  150.3880 C   0  0  2  0  0  3  0  0  0  0  0  0
  160.3930  210.9490  152.3860 C   0  0  1  0  0  3  0  0  0  0  0  0
  161.8720  212.4270  148.5600 C   0  0  0  0  0  0  0  0  0  0  0  0
  160.8290  211.4280  151.0170 C   0  0  0  0  0  0  0  0  0  0  0  0
  159.1810  213.1300  152.6000 C   0  0  0  0  0  3  0  0  0  0  0  0
  161.1190  213.3870  149.4400 C   0  0  0  0  0  2  0  0  0  0  0  0
  159.6810  213.5960  151.4490 C   0  0  0  0  0  3  0  0  0  0  0  0
  162.4250  212.9530  146.9850 Cl  0  0  0  0  0  0  0  0  0  0  0  0
  162.2170  211.2190  149.0120 C   0  0  0  0  0  3  0  0  0  0  0  0
  159.1010  211.6490  152.8350 C   0  0  0  0  0  2  0  0  0  0  0  0
  1  8  2  0  0  0  0
  2  1  1  0  0  0  0
  4  6  2  0  0  0  0
  4  5  1  0  0  0  0
  5  7  2  0  0  0  0
  6  3  1  0  0  0  0
  8  5  1  0  0  0  0
  9 17  1  6  0  0  0
  9  1  1  0  0  0  0
  9  4  1  0  0  0  0
 10  2  1  0  0  0  0
 11 16  1  0  0  0  0
 11 14  2  0  0  0  0
 12 10  2  0  0  0  0
 13 14  1  0  0  0  0
 14 10  1  0  0  0  0
 15 11  1  0  0  0  0
 16 12  1  0  0  0  0
 18 22  2  0  0  0  0
 19 24  1  6  0  0  0
 19 22  1  0  0  0  0
 19 25  1  0  0  0  0
 20 17  1  6  0  0  0
 20 28  1  0  0  0  0
 21 27  2  0  0  0  0
 21 24  1  0  0  0  0
 22 20  1  0  0  0  0
 23 28  1  0  0  0  0
 25 23  2  0  0  0  0
 26 21  1  0  0  0  0
 27 18  1  0  0  0  0
M  END
>  <MODEL>
4

>  <REMARK>
 VINA RESULT:      -6.4      3.970      6.954
  Name = 
  3 active torsions:
  status: ('A' for Active; 'I' for Inactive)
    1  A    between atoms: N_2  and  C_3
    2  A    between atoms: C_10  and  O_17
    3  A    between atoms: O_17  and  C_27
                            x       y       z     vdW  Elec       q    Type
                         _______ _______ _______ _____ _____    ______ ____

>  <TORSDO>
F 3

$$$$
=
 OpenBabel11052422493D

 28 31  0  0  1  0  0  0  0  0999 V2000
  161.4890  207.2590  153.8140 C   0  0  0  0  0  0  0  0  0  0  0  0
  161.5860  207.7850  155.1410 N   0  0  0  0  0  2  0  0  0  0  0  0
  160.8420  206.1270  149.2410 C   0  0  0  0  0  1  0  0  0  0  0  0
  161.1100  207.0200  151.5440 C   0  0  0  0  0  0  0  0  0  0  0  0
  161.6630  205.8330  152.1690 C   0  0  0  0  0  0  0  0  0  0  0  0
  160.7350  207.1950  150.2770 C   0  0  0  0  0  3  0  0  0  0  0  0
  161.9250  204.7450  151.5910 O   0  0  0  0  0  0  0  0  0  0  0  0
  161.8730  206.0500  153.5490 N   0  0  0  0  0  0  0  0  0  0  0  0
  161.0160  208.0530  152.6150 C   0  0  2  0  0  3  0  0  0  0  0  0
  160.8500  208.8990  155.6560 C   0  0  0  0  0  0  0  0  0  0  0  0
  160.1980  210.8880  156.3120 C   0  0  0  0  0  0  0  0  0  0  0  0
  159.4980  208.8820  155.9530 C   0  0  0  0  0  3  0  0  0  0  0  0
  162.5570  210.7030  155.6190 O   0  0  0  0  0  1  0  0  0  0  0  0
  161.2890  210.1880  155.8620 C   0  0  0  0  0  0  0  0  0  0  0  0
  160.1720  212.3270  156.6850 C   0  0  0  0  0  1  0  0  0  0  0  0
  159.1520  210.0910  156.3530 O   0  0  0  0  0  0  0  0  0  0  0  0
  161.9180  209.0880  152.3400 O   0  0  0  0  0  0  0  0  0  0  0  0
  159.6220  210.7030  152.7610 C   0  0  0  0  0  3  0  0  0  0  0  0
  160.5990  212.3070  151.1490 C   0  0  2  0  0  3  0  0  0  0  0  0
  161.3670  209.7930  151.2610 C   0  0  1  0  0  3  0  0  0  0  0  0
  158.6060  212.9130  152.5490 C   0  0  0  0  0  0  0  0  0  0  0  0
  160.4790  210.9160  151.7550 C   0  0  0  0  0  0  0  0  0  0  0  0
  161.9560  211.3000  149.3490 C   0  0  0  0  0  3  0  0  0  0  0  0
  159.2720  213.0730  151.2090 C   0  0  0  0  0  2  0  0  0  0  0  0
  161.0680  212.2300  149.7220 C   0  0  0  0  0  3  0  0  0  0  0  0
  157.5450  214.1710  153.1410 Cl  0  0  0  0  0  0  0  0  0  0  0  0
  158.7300  211.7750  153.2370 C   0  0  0  0  0  3  0  0  0  0  0  0
  162.4920  210.3280  150.3610 C   0  0  0  0  0  2  0  0  0  0  0  0
  1  2  1  0  0  0  0
  2 10  1  0  0  0  0
  3  6  1  0  0  0  0
  4  5  1  0  0  0  0
  4  9  1  0  0  0  0
  5  8  1  0  0  0  0
  6  4  2  0  0  0  0
  7  5  2  0  0  0  0
  8  1  2  0  0  0  0
  9 17  1  6  0  0  0
  9  1  1  0  0  0  0
 10 14  1  0  0  0  0
 10 12  2  0  0  0  0
 11 16  1  0  0  0  0
 11 15  1  0  0  0  0
 12 16  1  0  0  0  0
 13 14  1  0  0  0  0
 14 11  2  0  0  0  0
 18 27  1  0  0  0  0
 19 25  1  6  0  0  0
 19 24  1  0  0  0  0
 19 22  1  0  0  0  0
 20 22  1  0  0  0  0
 20 17  1  1  0  0  0
 21 26  1  0  0  0  0
 21 27  2  0  0  0  0
 22 18  2  0  0  0  0
 23 25  2  0  0  0  0
 23 28  1  0  0  0  0
 24 21  1  0  0  0  0
 28 20  1  0  0  0  0
M  END
>  <MODEL>
5

>  <REMARK>
 VINA RESULT:      -6.4      4.502      8.884
  Name = 
  3 active torsions:
  status: ('A' for Active; 'I' for Inactive)
    1  A    between atoms: N_2  and  C_3
    2  A    between atoms: C_10  and  O_17
    3  A    between atoms: O_17  and  C_27
                            x       y       z     vdW  Elec       q    Type
                         _______ _______ _______ _____ _____    ______ ____

>  <TORSDO>
F 3

$$$$
=
 OpenBabel11052422493D

 28 31  0  0  1  0  0  0  0  0999 V2000
  162.1330  208.7670  148.8720 C   0  0  0  0  0  0  0  0  0  0  0  0
  162.5240  207.9940  147.7330 N   0  0  0  0  0  2  0  0  0  0  0  0
  160.4710  210.7550  152.8590 C   0  0  0  0  0  1  0  0  0  0  0  0
  161.2470  209.4370  150.9020 C   0  0  0  0  0  0  0  0  0  0  0  0
  161.9480  210.4930  150.1980 C   0  0  0  0  0  0  0  0  0  0  0  0
  160.5870  209.5020  152.0580 C   0  0  0  0  0  3  0  0  0  0  0  0
  162.0890  211.6810  150.5930 O   0  0  0  0  0  0  0  0  0  0  0  0
  162.4670  210.0160  148.9730 N   0  0  0  0  0  0  0  0  0  0  0  0
  161.3840  208.2110  150.0630 C   0  0  2  0  0  3  0  0  0  0  0  0
  161.9070  206.7800  147.2940 C   0  0  0  0  0  0  0  0  0  0  0  0
  161.4860  204.7120  146.6980 C   0  0  0  0  0  0  0  0  0  0  0  0
  160.5430  206.5970  147.1480 C   0  0  0  0  0  3  0  0  0  0  0  0
  163.8540  205.2460  147.1280 O   0  0  0  0  0  1  0  0  0  0  0  0
  162.5050  205.5670  147.0300 C   0  0  0  0  0  0  0  0  0  0  0  0
  161.6290  203.2810  146.3180 C   0  0  0  0  0  1  0  0  0  0  0  0
  160.3360  205.3460  146.7790 O   0  0  0  0  0  0  0  0  0  0  0  0
  162.1810  207.2760  150.7370 O   0  0  0  0  0  0  0  0  0  0  0  0
  161.1550  204.7160  150.0670 C   0  0  0  0  0  3  0  0  0  0  0  0
  161.3850  204.1270  152.4590 C   0  0  2  0  0  3  0  0  0  0  0  0
  161.3230  206.6240  151.6330 C   0  0  1  0  0  3  0  0  0  0  0  0
  160.8850  202.3820  150.7280 C   0  0  0  0  0  0  0  0  0  0  0  0
  161.2640  205.1420  151.3310 C   0  0  0  0  0  0  0  0  0  0  0  0
  161.0560  205.9940  154.0420 C   0  0  0  0  0  3  0  0  0  0  0  0
  160.6370  202.8270  152.1430 C   0  0  0  0  0  2  0  0  0  0  0  0
  160.8700  204.7000  153.7510 C   0  0  0  0  0  3  0  0  0  0  0  0
  160.7910  200.6800  150.3290 Cl  0  0  0  0  0  0  0  0  0  0  0  0
  161.0670  203.2790  149.7550 C   0  0  0  0  0  3  0  0  0  0  0  0
  161.7870  206.8800  153.0760 C   0  0  0  0  0  2  0  0  0  0  0  0
  1  8  2  0  0  0  0
  1  9  1  0  0  0  0
  2  1  1  0  0  0  0
  4  6  2  0  0  0  0
  5  7  2  0  0  0  0
  5  4  1  0  0  0  0
  6  3  1  0  0  0  0
  8  5  1  0  0  0  0
  9 17  1  1  0  0  0
  9  4  1  0  0  0  0
 10  2  1  0  0  0  0
 11 16  1  0  0  0  0
 11 14  2  0  0  0  0
 12 10  2  0  0  0  0
 14 13  1  0  0  0  0
 14 10  1  0  0  0  0
 15 11  1  0  0  0  0
 16 12  1  0  0  0  0
 18 22  2  0  0  0  0
 19 24  1  6  0  0  0
 19 25  1  0  0  0  0
 20 17  1  6  0  0  0
 20 28  1  0  0  0  0
 21 24  1  0  0  0  0
 22 20  1  0  0  0  0
 22 19  1  0  0  0  0
 25 23  2  0  0  0  0
 26 21  1  0  0  0  0
 27 18  1  0  0  0  0
 27 21  2  0  0  0  0
 28 23  1  0  0  0  0
M  END
>  <MODEL>
6

>  <REMARK>
 VINA RESULT:      -5.9      1.389      1.921
  Name = 
  3 active torsions:
  status: ('A' for Active; 'I' for Inactive)
    1  A    between atoms: N_2  and  C_3
    2  A    between atoms: C_10  and  O_17
    3  A    between atoms: O_17  and  C_27
                            x       y       z     vdW  Elec       q    Type
                         _______ _______ _______ _____ _____    ______ ____

>  <TORSDO>
F 3

$$$$
=
 OpenBabel11052422493D

 28 31  0  0  1  0  0  0  0  0999 V2000
  159.3300  213.6290  151.7940 C   0  0  0  0  0  0  0  0  0  0  0  0
  160.0870  214.1120  150.6790 N   0  0  0  0  0  2  0  0  0  0  0  0
  156.9480  211.3740  155.2360 C   0  0  0  0  0  1  0  0  0  0  0  0
  158.3180  212.2660  153.3670 C   0  0  0  0  0  0  0  0  0  0  0  0
  158.0920  213.6810  153.5930 C   0  0  0  0  0  0  0  0  0  0  0  0
  157.8410  211.2270  154.0510 C   0  0  0  0  0  3  0  0  0  0  0  0
  157.4140  214.1830  154.5280 O   0  0  0  0  0  0  0  0  0  0  0  0
  158.7400  214.4530  152.6020 N   0  0  0  0  0  0  0  0  0  0  0  0
  159.2060  212.1690  152.1720 C   0  0  2  0  0  3  0  0  0  0  0  0
  160.4290  213.3590  149.5120 C   0  0  0  0  0  0  0  0  0  0  0  0
  160.5510  212.5290  147.4860 C   0  0  0  0  0  0  0  0  0  0  0  0
  161.5280  212.5240  149.4060 C   0  0  0  0  0  3  0  0  0  0  0  0
  158.7280  214.1410  147.8790 O   0  0  0  0  0  1  0  0  0  0  0  0
  159.8210  213.3800  148.2760 C   0  0  0  0  0  0  0  0  0  0  0  0
  160.2800  212.2070  146.0590 C   0  0  0  0  0  1  0  0  0  0  0  0
  161.5560  212.0390  148.1790 O   0  0  0  0  0  0  0  0  0  0  0  0
  160.4550  211.6690  152.5640 O   0  0  0  0  0  0  0  0  0  0  0  0
  160.4560  208.8950  151.9590 C   0  0  0  0  0  3  0  0  0  0  0  0
  161.4790  208.5300  154.1820 C   0  0  2  0  0  3  0  0  0  0  0  0
  160.1890  210.7440  153.5830 C   0  0  1  0  0  3  0  0  0  0  0  0
  161.3470  206.6850  152.4880 C   0  0  0  0  0  0  0  0  0  0  0  0
  160.6790  209.3650  153.1930 C   0  0  0  0  0  0  0  0  0  0  0  0
  160.7960  210.1320  155.9340 C   0  0  0  0  0  3  0  0  0  0  0  0
  161.2860  207.0280  153.9510 C   0  0  0  0  0  2  0  0  0  0  0  0
  161.1010  208.8720  155.5980 C   0  0  0  0  0  3  0  0  0  0  0  0
  161.8750  205.0910  151.9960 Cl  0  0  0  0  0  0  0  0  0  0  0  0
  160.9000  207.5460  151.5700 C   0  0  0  0  0  3  0  0  0  0  0  0
  160.8380  211.2150  154.8940 C   0  0  0  0  0  2  0  0  0  0  0  0
  1  9  1  0  0  0  0
  1  8  2  0  0  0  0
  2  1  1  0  0  0  0
  4  5  1  0  0  0  0
  4  6  2  0  0  0  0
  5  7  2  0  0  0  0
  6  3  1  0  0  0  0
  8  5  1  0  0  0  0
  9 17  1  1  0  0  0
  9  4  1  0  0  0  0
 10  2  1  0  0  0  0
 11 16  1  0  0  0  0
 11 14  2  0  0  0  0
 12 10  2  0  0  0  0
 13 14  1  0  0  0  0
 14 10  1  0  0  0  0
 15 11  1  0  0  0  0
 16 12  1  0  0  0  0
 18 22  2  0  0  0  0
 19 24  1  6  0  0  0
 19 25  1  0  0  0  0
 20 17  1  6  0  0  0
 20 28  1  0  0  0  0
 21 24  1  0  0  0  0
 22 20  1  0  0  0  0
 22 19  1  0  0  0  0
 25 23  2  0  0  0  0
 26 21  1  0  0  0  0
 27 18  1  0  0  0  0
 27 21  2  0  0  0  0
 28 23  1  0  0  0  0
M  END
>  <MODEL>
7

>  <REMARK>
 VINA RESULT:      -5.8      4.981      6.946
  Name = 
  3 active torsions:
  status: ('A' for Active; 'I' for Inactive)
    1  A    between atoms: N_2  and  C_3
    2  A    between atoms: C_10  and  O_17
    3  A    between atoms: O_17  and  C_27
                            x       y       z     vdW  Elec       q    Type
                         _______ _______ _______ _____ _____    ______ ____

>  <TORSDO>
F 3

$$$$
