=
 OpenBabel11062410353D

 32 38  0  0  1  0  0  0  0  0999 V2000
  161.3610  202.7690  147.9330 C   0  0  0  0  0  0  0  0  0  0  0  0
  161.2230  206.3880  151.2980 C   0  0  0  0  0  0  0  0  0  0  0  0
  162.1410  210.3670  148.6030 C   0  0  0  0  0  3  0  0  0  0  0  0
  162.0410  211.1650  149.7390 C   0  0  0  0  0  3  0  0  0  0  0  0
  160.8460  206.5880  153.8130 C   0  0  0  0  0  0  0  0  0  0  0  0
  160.7500  207.4050  154.8590 C   0  0  0  0  0  0  0  0  0  0  0  0
  161.1250  204.1540  150.2970 C   0  0  0  0  0  0  0  0  0  0  0  0
  161.5960  206.2140  148.9380 C   0  0  0  0  0  3  0  0  0  0  0  0
  160.8130  209.4170  156.0170 C   0  0  2  0  0  3  0  0  0  0  0  0
  161.5540  204.0430  147.7410 C   0  0  0  0  0  3  0  0  0  0  0  0
  161.9640  208.9880  148.7030 C   0  0  0  0  0  3  0  0  0  0  0  0
  161.5020  206.9820  150.0400 C   0  0  0  0  0  0  0  0  0  0  0  0
  161.6830  208.3790  149.9430 C   0  0  0  0  0  0  0  0  0  0  0  0
  161.2990  208.6050  152.3530 C   0  0  0  0  0  0  0  0  0  0  0  0
  160.5690  208.2430  156.9970 C   0  0  0  0  0  3  0  0  0  0  0  0
  161.0520  202.0990  149.2710 C   0  0  0  0  0  0  0  0  0  0  0  0
  161.4210  204.7950  148.9890 N   0  0  0  0  0  0  0  0  0  0  0  0
  160.5460  207.0160  156.1980 N   0  0  0  0  0  0  0  0  0  0  0  0
  160.9170  202.6600  150.4430 C   0  0  0  0  0  3  0  0  0  0  0  0
  160.5400  201.6180  148.0440 C   0  0  2  0  0  3  0  0  0  0  0  0
  161.7630  210.5820  150.9760 C   0  0  0  0  0  3  0  0  0  0  0  0
  161.5800  209.1900  151.0990 C   0  0  0  0  0  0  0  0  0  0  0  0
  161.1950  209.3830  153.4500 C   0  0  0  0  0  3  0  0  0  0  0  0
  161.0330  204.9200  151.3800 C   0  0  0  0  0  3  0  0  0  0  0  0
  160.7170  205.2520  154.0080 F   0  0  0  0  0  0  0  0  0  0  0  0
  159.6300  210.3650  156.0640 C   0  0  0  0  0  1  0  0  0  0  0  0
  161.1220  207.1910  152.4610 C   0  0  0  0  0  0  0  0  0  0  0  0
  160.8940  208.7880  154.7120 N   0  0  0  0  0  0  0  0  0  0  0  0
  161.3300  200.3980  147.6110 C   0  0  0  0  0  2  0  0  0  0  0  0
  161.0110  200.0570  146.1970 C   0  0  0  0  0  0  0  0  0  0  0  0
  160.4100  201.0000  145.3740 O   0  0  0  0  0  0  0  0  0  0  0  0
  161.3160  198.9260  145.7380 O   0  0  0  0  0  1  0  0  0  0  0  0
  1 20  1  0  0  0  0
  1 16  1  0  0  0  0
  2 24  1  0  0  0  0
  2 27  2  0  0  0  0
  3 11  2  0  0  0  0
  3  4  1  0  0  0  0
  4 21  2  0  0  0  0
  5 25  1  0  0  0  0
  5  6  2  0  0  0  0
  6 18  1  0  0  0  0
  7 19  1  0  0  0  0
  7 24  2  0  0  0  0
  8 17  1  0  0  0  0
  8 12  2  0  0  0  0
  9 26  1  6  0  0  0
  9 15  1  0  0  0  0
 10  1  2  3  0  0  0
 10 17  1  0  0  0  0
 11 13  1  0  0  0  0
 12  2  1  0  0  0  0
 13 12  1  0  0  0  0
 13 22  2  0  0  0  0
 14 27  1  0  0  0  0
 14 23  2  0  0  0  0
 16 19  2  0  0  0  0
 17  7  1  0  0  0  0
 18 15  2  0  0  0  0
 20 29  1  6  0  0  0
 20 16  1  0  0  0  0
 21 22  1  0  0  0  0
 22 14  1  0  0  0  0
 23 28  1  0  0  0  0
 27  5  1  0  0  0  0
 28  6  1  0  0  0  0
 28  9  1  0  0  0  0
 30 29  1  0  0  0  0
 31 30  2  0  0  0  0
 32 30  1  0  0  0  0
M  END
>  <MODEL>
1

>  <REMARK>
 VINA RESULT:     -12.0      0.000      0.000
  Name = 
  2 active torsions:
  status: ('A' for Active; 'I' for Inactive)
    1  A    between atoms: C_1  and  C_10
    2  A    between atoms: C_10  and  C_24
                            x       y       z     vdW  Elec       q    Type
                         _______ _______ _______ _____ _____    ______ ____

>  <TORSDO>
F 2

$$$$
=
 OpenBabel11062410353D

 32 38  0  0  1  0  0  0  0  0999 V2000
  161.1930  208.7720  154.1420 C   0  0  0  0  0  0  0  0  0  0  0  0
  161.1250  206.0520  150.0150 C   0  0  0  0  0  0  0  0  0  0  0  0
  161.1840  201.4830  151.7650 C   0  0  0  0  0  3  0  0  0  0  0  0
  161.1570  200.9800  150.4670 C   0  0  0  0  0  3  0  0  0  0  0  0
  161.0930  206.4730  147.4990 C   0  0  0  0  0  0  0  0  0  0  0  0
  161.0550  205.9310  146.2840 C   0  0  0  0  0  0  0  0  0  0  0  0
  161.1420  207.9970  151.5040 C   0  0  0  0  0  0  0  0  0  0  0  0
  161.1740  205.6400  152.3750 C   0  0  0  0  0  3  0  0  0  0  0  0
  161.0520  204.2410  144.6930 C   0  0  2  0  0  3  0  0  0  0  0  0
  161.2090  207.4730  154.0430 C   0  0  0  0  0  3  0  0  0  0  0  0
  161.1820  202.8610  151.9780 C   0  0  0  0  0  3  0  0  0  0  0  0
  161.1510  205.1580  151.1170 C   0  0  0  0  0  0  0  0  0  0  0  0
  161.1540  203.7640  150.8970 C   0  0  0  0  0  0  0  0  0  0  0  0
  161.0970  204.1370  148.4760 C   0  0  0  0  0  0  0  0  0  0  0  0
  161.0880  205.6250  144.0010 C   0  0  0  0  0  3  0  0  0  0  0  0
  161.1590  209.7610  152.9770 C   0  0  0  0  0  0  0  0  0  0  0  0
  161.1710  207.0450  152.6460 N   0  0  0  0  0  0  0  0  0  0  0  0
  161.0920  206.6340  145.0630 N   0  0  0  0  0  0  0  0  0  0  0  0
  161.1300  209.4990  151.6970 C   0  0  0  0  0  3  0  0  0  0  0  0
  160.5350  210.0260  154.2180 C   0  0  2  0  0  3  0  0  0  0  0  0
  161.1280  201.8580  149.3820 C   0  0  0  0  0  3  0  0  0  0  0  0
  161.1260  203.2540  149.5760 C   0  0  0  0  0  0  0  0  0  0  0  0
  161.0630  203.6460  147.2190 C   0  0  0  0  0  3  0  0  0  0  0  0
  161.1190  207.5130  150.2660 C   0  0  0  0  0  3  0  0  0  0  0  0
  161.1490  207.8230  147.6160 F   0  0  0  0  0  0  0  0  0  0  0  0
  159.7870  203.5080  144.2870 C   0  0  0  0  0  1  0  0  0  0  0  0
  161.1010  205.5510  148.6900 C   0  0  0  0  0  0  0  0  0  0  0  0
  161.0170  204.5440  146.1110 N   0  0  0  0  0  0  0  0  0  0  0  0
  161.3890  210.9910  155.0170 C   0  0  0  0  0  2  0  0  0  0  0  0
  161.6150  210.4590  156.3890 C   0  0  0  0  0  0  0  0  0  0  0  0
  162.9000  210.1440  156.8090 O   0  0  0  0  0  0  0  0  0  0  0  0
  160.6460  210.3260  157.1800 O   0  0  0  0  0  1  0  0  0  0  0  0
  1 20  1  0  0  0  0
  2 24  1  0  0  0  0
  2 12  1  0  0  0  0
  3 11  1  0  0  0  0
  4  3  2  0  0  0  0
  5 25  1  0  0  0  0
  5 27  1  0  0  0  0
  6  5  2  0  0  0  0
  7 19  1  0  0  0  0
  7 17  1  0  0  0  0
  8 17  1  0  0  0  0
  9 26  1  6  0  0  0
  9 28  1  0  0  0  0
 10  1  2  3  0  0  0
 12  8  2  0  0  0  0
 13 12  1  0  0  0  0
 13 11  2  0  0  0  0
 14 27  1  0  0  0  0
 14 22  1  0  0  0  0
 15  9  1  0  0  0  0
 15 18  2  0  0  0  0
 16  1  1  0  0  0  0
 16 20  1  0  0  0  0
 17 10  1  0  0  0  0
 18  6  1  0  0  0  0
 19 16  2  0  0  0  0
 20 29  1  1  0  0  0
 21 22  2  0  0  0  0
 21  4  1  0  0  0  0
 22 13  1  0  0  0  0
 23 14  2  0  0  0  0
 24  7  2  0  0  0  0
 27  2  2  0  0  0  0
 28  6  1  0  0  0  0
 28 23  1  0  0  0  0
 29 30  1  0  0  0  0
 30 31  2  0  0  0  0
 30 32  1  0  0  0  0
M  END
>  <MODEL>
2

>  <REMARK>
 VINA RESULT:     -10.1      4.405      9.155
  Name = 
  2 active torsions:
  status: ('A' for Active; 'I' for Inactive)
    1  A    between atoms: C_1  and  C_10
    2  A    between atoms: C_10  and  C_24
                            x       y       z     vdW  Elec       q    Type
                         _______ _______ _______ _____ _____    ______ ____

>  <TORSDO>
F 2

$$$$
