=
 OpenBabel11062409563D

 43 48  0  0  1  0  0  0  0  0999 V2000
  161.4260  208.9710  155.2230 C   0  0  0  0  0  0  0  0  0  0  0  0
  161.3700  208.1040  150.2690 C   0  0  0  0  0  0  0  0  0  0  0  0
  161.8870  210.5620  148.9990 C   0  0  0  0  0  0  0  0  0  0  0  0
  161.2270  207.9470  153.0390 C   0  0  0  0  0  0  0  0  0  0  0  0
  161.7720  210.1870  154.6230 C   0  0  0  0  0  3  0  0  0  0  0  0
  161.3450  208.8710  156.7020 C   0  0  0  0  0  1  0  0  0  0  0  0
  161.5790  209.1710  152.4300 C   0  0  0  0  0  0  0  0  0  0  0  0
  161.1510  207.8510  154.4310 C   0  0  0  0  0  3  0  0  0  0  0  0
  161.8480  210.2880  153.2300 C   0  0  0  0  0  3  0  0  0  0  0  0
  161.9520  210.4480  150.3910 O   0  0  0  0  0  0  0  0  0  0  0  0
  161.6430  209.2480  151.0330 C   0  0  0  0  0  0  0  0  0  0  0  0
  161.0340  206.9370  150.8850 N   0  0  0  0  0  0  0  0  0  0  0  0
  161.5080  208.1510  148.7720 C   0  0  1  0  0  3  0  0  0  0  0  0
  161.6480  209.5210  148.2590 N   0  0  0  0  0  0  0  0  0  0  0  0
  160.9540  206.8370  152.2390 C   0  0  0  0  0  3  0  0  0  0  0  0
  162.0910  211.8870  148.3480 C   0  0  1  0  0  3  0  0  0  0  0  0
  163.5170  212.0080  147.8400 C   0  0  0  0  0  1  0  0  0  0  0  0
  161.1040  212.0490  147.2020 C   0  0  0  0  0  2  0  0  0  0  0  0
  160.5020  213.3770  147.2290 N   0  0  0  0  0  0  0  0  0  0  0  0
  159.1490  213.2620  147.7580 C   0  0  0  0  0  1  0  0  0  0  0  0
  160.4530  213.9340  145.8710 C   0  0  0  0  0  2  0  0  0  0  0  0
  161.3330  213.1900  144.8590 C   0  0  2  0  0  3  0  0  0  0  0  0
  162.3950  214.1150  142.8880 C   0  0  0  0  0  2  0  0  0  0  0  0
  162.7180  213.4930  145.0850 N   0  0  0  0  0  0  0  0  0  0  0  0
  161.0410  213.7000  143.4530 C   0  0  1  0  0  3  0  0  0  0  0  0
  163.2990  213.9810  144.0590 C   0  0  0  0  0  3  0  0  0  0  0  0
  159.8180  212.9480  141.3450 N   0  0  0  0  0  0  0  0  0  0  0  0
  160.4100  212.6270  142.6150 C   0  0  0  0  0  0  0  0  0  0  0  0
  158.6910  212.4580  138.8880 S   0  0  0  0  0  0  0  0  0  0  0  0
  160.5280  214.4530  139.5170 C   0  0  0  0  0  2  0  0  0  0  0  0
  160.3060  213.2510  138.5950 C   0  0  0  0  0  2  0  0  0  0  0  0
  159.8150  214.3300  140.8650 C   0  0  0  0  0  2  0  0  0  0  0  0
  159.1960  211.8830  140.5510 C   0  0  0  0  0  2  0  0  0  0  0  0
  160.3920  211.4380  143.0360 O   0  0  0  0  0  0  0  0  0  0  0  0
  162.7130  207.3170  148.3480 C   0  0  0  0  0  2  0  0  0  0  0  0
  161.5280  203.8240  147.4870 C   0  0  0  0  0  3  0  0  0  0  0  0
  161.5330  203.8580  146.0880 C   0  0  0  0  0  0  0  0  0  0  0  0
  162.3030  206.1620  146.1630 C   0  0  0  0  0  3  0  0  0  0  0  0
  161.9080  204.9510  148.2220 C   0  0  0  0  0  3  0  0  0  0  0  0
  162.2930  206.1220  147.5610 C   0  0  0  0  0  0  0  0  0  0  0  0
  161.9230  205.0360  145.4280 C   0  0  0  0  0  3  0  0  0  0  0  0
  160.4410  201.6410  145.9860 C   0  0  0  0  0  1  0  0  0  0  0  0
  161.1480  202.7150  145.3820 O   0  0  0  0  0  0  0  0  0  0  0  0
  1  6  1  0  0  0  0
  2 12  2  0  0  0  0
  2 11  1  0  0  0  0
  3 10  1  0  0  0  0
  4  8  1  0  0  0  0
  5  1  1  0  0  0  0
  7  4  1  0  0  0  0
  7  9  1  0  0  0  0
  8  1  2  0  0  0  0
  9  5  2  0  0  0  0
 10 11  1  0  0  0  0
 11  7  2  0  0  0  0
 12 15  1  0  0  0  0
 13 35  1  1  0  0  0
 13  2  1  0  0  0  0
 14 13  1  0  0  0  0
 14  3  2  0  0  0  0
 15  4  2  0  0  0  0
 16 17  1  6  0  0  0
 16  3  1  0  0  0  0
 18 19  1  0  0  0  0
 18 16  1  0  0  0  0
 19 20  1  0  0  0  0
 21 19  1  0  0  0  0
 22 24  1  0  0  0  0
 22 21  1  1  0  0  0
 23 25  1  0  0  0  0
 23 26  1  0  0  0  0
 25 28  1  6  0  0  0
 25 22  1  0  0  0  0
 26 24  2  0  0  0  0
 27 28  1  0  0  0  0
 28 34  2  0  0  0  0
 29 33  1  0  0  0  0
 30 32  1  0  0  0  0
 31 29  1  0  0  0  0
 31 30  1  0  0  0  0
 32 27  1  0  0  0  0
 33 27  1  0  0  0  0
 36 39  1  0  0  0  0
 37 36  2  0  0  0  0
 38 40  1  0  0  0  0
 40 39  2  0  0  0  0
 40 35  1  0  0  0  0
 41 37  1  0  0  0  0
 41 38  2  0  0  0  0
 43 42  1  0  0  0  0
 43 37  1  0  0  0  0
M  END
>  <MODEL>
1

>  <REMARK>
 VINA RESULT:      -8.5      0.000      0.000
  Name = 
  9 active torsions:
  status: ('A' for Active; 'I' for Inactive)
    1  A    between atoms: C_1  and  C_34
    2  A    between atoms: C_1  and  C_35
    3  A    between atoms: C_2  and  C_6
    4  A    between atoms: C_2  and  C_13
    5  A    between atoms: C_3  and  C_4
    6  A    between atoms: C_3  and  N_12
    7  A    between atoms: C_6  and  N_12
    8  A    between atoms: C_14  and  C_22
    9  A    between atoms: C_19  and  O_37
                            x       y       z     vdW  Elec       q    Type
                         _______ _______ _______ _____ _____    ______ ____

>  <TORSDO>
F 9

$$$$
=
 OpenBabel11062409563D

 43 48  0  0  1  0  0  0  0  0999 V2000
  161.2600  200.9690  146.9130 C   0  0  0  0  0  0  0  0  0  0  0  0
  160.9330  205.8010  148.2690 C   0  0  0  0  0  0  0  0  0  0  0  0
  160.9270  205.8660  151.0830 C   0  0  0  0  0  0  0  0  0  0  0  0
  161.0510  203.3800  146.9110 C   0  0  0  0  0  0  0  0  0  0  0  0
  161.3490  200.9770  148.3090 C   0  0  0  0  0  3  0  0  0  0  0  0
  161.3210  199.6830  146.1720 C   0  0  0  0  0  1  0  0  0  0  0  0
  161.1430  203.3930  148.3200 C   0  0  0  0  0  0  0  0  0  0  0  0
  161.1090  202.1710  146.2130 C   0  0  0  0  0  3  0  0  0  0  0  0
  161.2900  202.1840  149.0120 C   0  0  0  0  0  3  0  0  0  0  0  0
  161.1270  204.6650  150.3950 O   0  0  0  0  0  0  0  0  0  0  0  0
  161.0760  204.6140  149.0010 C   0  0  0  0  0  0  0  0  0  0  0  0
  160.8480  205.7590  146.9110 N   0  0  0  0  0  0  0  0  0  0  0  0
  160.9340  207.1270  148.9810 C   0  0  1  0  0  3  0  0  0  0  0  0
  160.8020  206.9880  150.4370 N   0  0  0  0  0  0  0  0  0  0  0  0
  160.8990  204.5860  146.2250 C   0  0  0  0  0  3  0  0  0  0  0  0
  160.8530  205.8710  152.5720 C   0  0  1  0  0  3  0  0  0  0  0  0
  161.0310  204.4620  153.1090 C   0  0  0  0  0  1  0  0  0  0  0  0
  161.9240  206.7920  153.1320 C   0  0  0  0  0  2  0  0  0  0  0  0
  161.3340  207.7730  154.0360 N   0  0  0  0  0  0  0  0  0  0  0  0
  160.4110  207.0840  154.9290 C   0  0  0  0  0  1  0  0  0  0  0  0
  160.6070  208.7910  153.2670 C   0  0  0  0  0  2  0  0  0  0  0  0
  160.9660  210.2330  153.6450 C   0  0  2  0  0  3  0  0  0  0  0  0
  160.4850  211.3570  155.7370 C   0  0  0  0  0  2  0  0  0  0  0  0
  162.1030  210.2490  154.5230 N   0  0  0  0  0  0  0  0  0  0  0  0
  159.8320  210.8490  154.4560 C   0  0  1  0  0  3  0  0  0  0  0  0
  161.8720  210.8390  155.6320 C   0  0  0  0  0  3  0  0  0  0  0  0
  157.7900  212.2750  153.9080 N   0  0  0  0  0  0  0  0  0  0  0  0
  159.1780  211.9670  153.6990 C   0  0  0  0  0  0  0  0  0  0  0  0
  155.4670  213.7280  153.7060 S   0  0  0  0  0  0  0  0  0  0  0  0
  156.4020  212.3730  155.9510 C   0  0  0  0  0  2  0  0  0  0  0  0
  155.9750  213.7570  155.4570 C   0  0  0  0  0  2  0  0  0  0  0  0
  156.9980  211.4890  154.8540 C   0  0  0  0  0  2  0  0  0  0  0  0
  157.1720  213.3650  153.1450 C   0  0  0  0  0  2  0  0  0  0  0  0
  159.8530  212.6330  152.8670 O   0  0  0  0  0  0  0  0  0  0  0  0
  162.2210  207.8770  148.6510 C   0  0  0  0  0  2  0  0  0  0  0  0
  161.9920  211.2980  150.2620 C   0  0  0  0  0  3  0  0  0  0  0  0
  161.6870  212.1100  149.1640 C   0  0  0  0  0  0  0  0  0  0  0  0
  161.7390  210.1530  147.7230 C   0  0  0  0  0  3  0  0  0  0  0  0
  162.1700  209.9210  150.0940 C   0  0  0  0  0  3  0  0  0  0  0  0
  162.0470  209.3480  148.8230 C   0  0  0  0  0  0  0  0  0  0  0  0
  161.5610  211.5290  147.8910 C   0  0  0  0  0  3  0  0  0  0  0  0
  160.2350  214.0860  149.4850 C   0  0  0  0  0  1  0  0  0  0  0  0
  161.5150  213.4820  149.3650 O   0  0  0  0  0  0  0  0  0  0  0  0
  1  5  1  0  0  0  0
  2 13  1  0  0  0  0
  2 11  1  0  0  0  0
  3 16  1  0  0  0  0
  4  7  1  0  0  0  0
  5  9  2  0  0  0  0
  6  1  1  0  0  0  0
  7 11  2  0  0  0  0
  7  9  1  0  0  0  0
  8  4  1  0  0  0  0
  8  1  2  0  0  0  0
 10  3  1  0  0  0  0
 11 10  1  0  0  0  0
 12  2  2  0  0  0  0
 13 35  1  1  0  0  0
 13 14  1  0  0  0  0
 14  3  2  0  0  0  0
 15  4  2  0  0  0  0
 15 12  1  0  0  0  0
 16 17  1  1  0  0  0
 16 18  1  0  0  0  0
 18 19  1  0  0  0  0
 19 20  1  0  0  0  0
 21 19  1  0  0  0  0
 22 21  1  1  0  0  0
 22 25  1  0  0  0  0
 22 24  1  0  0  0  0
 24 26  2  0  0  0  0
 25 28  1  6  0  0  0
 25 23  1  0  0  0  0
 26 23  1  0  0  0  0
 27 32  1  0  0  0  0
 28 27  1  0  0  0  0
 29 31  1  0  0  0  0
 31 30  1  0  0  0  0
 32 30  1  0  0  0  0
 33 29  1  0  0  0  0
 33 27  1  0  0  0  0
 34 28  2  0  0  0  0
 35 40  1  0  0  0  0
 37 43  1  0  0  0  0
 37 36  2  0  0  0  0
 38 41  2  0  0  0  0
 38 40  1  0  0  0  0
 39 36  1  0  0  0  0
 40 39  2  0  0  0  0
 41 37  1  0  0  0  0
 43 42  1  0  0  0  0
M  END
>  <MODEL>
2

>  <REMARK>
 VINA RESULT:      -8.3      4.828      9.825
  Name = 
  9 active torsions:
  status: ('A' for Active; 'I' for Inactive)
    1  A    between atoms: C_1  and  C_34
    2  A    between atoms: C_1  and  C_35
    3  A    between atoms: C_2  and  C_6
    4  A    between atoms: C_2  and  C_13
    5  A    between atoms: C_3  and  C_4
    6  A    between atoms: C_3  and  N_12
    7  A    between atoms: C_6  and  N_12
    8  A    between atoms: C_14  and  C_22
    9  A    between atoms: C_19  and  O_37
                            x       y       z     vdW  Elec       q    Type
                         _______ _______ _______ _____ _____    ______ ____

>  <TORSDO>
F 9

$$$$
=
 OpenBabel11062409563D

 43 48  0  0  1  0  0  0  0  0999 V2000
  161.4560  204.5990  146.9140 C   0  0  0  0  0  0  0  0  0  0  0  0
  161.6880  208.0430  150.5720 C   0  0  0  0  0  0  0  0  0  0  0  0
  162.0310  210.5430  149.3260 C   0  0  0  0  0  0  0  0  0  0  0  0
  161.5350  205.7180  149.0590 C   0  0  0  0  0  0  0  0  0  0  0  0
  161.5360  205.8360  146.2640 C   0  0  0  0  0  3  0  0  0  0  0  0
  161.3730  203.3470  146.1190 C   0  0  0  0  0  1  0  0  0  0  0  0
  161.6130  206.9680  148.4070 C   0  0  0  0  0  0  0  0  0  0  0  0
  161.4570  204.5400  148.3120 C   0  0  0  0  0  3  0  0  0  0  0  0
  161.6160  207.0180  147.0070 C   0  0  0  0  0  3  0  0  0  0  0  0
  161.8130  209.3890  148.5670 O   0  0  0  0  0  0  0  0  0  0  0  0
  161.6980  208.1370  149.1730 C   0  0  0  0  0  0  0  0  0  0  0  0
  161.6100  206.8240  151.1730 N   0  0  0  0  0  0  0  0  0  0  0  0
  161.7020  209.2930  151.4090 C   0  0  1  0  0  3  0  0  0  0  0  0
  162.0170  210.4960  150.6250 N   0  0  0  0  0  0  0  0  0  0  0  0
  161.5380  205.6720  150.4530 C   0  0  0  0  0  3  0  0  0  0  0  0
  162.2840  211.8470  148.6480 C   0  0  1  0  0  3  0  0  0  0  0  0
  163.6560  211.8400  147.9970 C   0  0  0  0  0  1  0  0  0  0  0  0
  161.2040  212.0990  147.6080 C   0  0  0  0  0  2  0  0  0  0  0  0
  161.2130  213.4950  147.1880 N   0  0  0  0  0  0  0  0  0  0  0  0
  160.4300  214.2710  148.1420 C   0  0  0  0  0  1  0  0  0  0  0  0
  160.6240  213.6220  145.8490 C   0  0  0  0  0  2  0  0  0  0  0  0
  161.4630  212.9830  144.7360 C   0  0  2  0  0  3  0  0  0  0  0  0
  162.3790  214.0830  142.7820 C   0  0  0  0  0  2  0  0  0  0  0  0
  162.8500  213.3140  144.9040 N   0  0  0  0  0  0  0  0  0  0  0  0
  161.0730  213.5830  143.3900 C   0  0  1  0  0  3  0  0  0  0  0  0
  163.3550  213.8940  143.8850 C   0  0  0  0  0  3  0  0  0  0  0  0
  159.8700  212.9270  141.2410 N   0  0  0  0  0  0  0  0  0  0  0  0
  160.4240  212.5550  142.5120 C   0  0  0  0  0  0  0  0  0  0  0  0
  158.7770  212.5380  138.7490 S   0  0  0  0  0  0  0  0  0  0  0  0
  160.6660  214.4530  139.4660 C   0  0  0  0  0  2  0  0  0  0  0  0
  160.4240  213.2830  138.5100 C   0  0  0  0  0  2  0  0  0  0  0  0
  159.9220  214.3200  140.7970 C   0  0  0  0  0  2  0  0  0  0  0  0
  159.2290  211.9040  140.4070 C   0  0  0  0  0  2  0  0  0  0  0  0
  160.3590  211.3560  142.9020 O   0  0  0  0  0  0  0  0  0  0  0  0
  160.3460  209.4630  152.0880 C   0  0  0  0  0  2  0  0  0  0  0  0
  159.5620  211.7970  154.9670 C   0  0  0  0  0  3  0  0  0  0  0  0
  160.7210  211.6910  155.7440 C   0  0  0  0  0  0  0  0  0  0  0  0
  161.6370  210.1180  154.1330 C   0  0  0  0  0  3  0  0  0  0  0  0
  159.4380  211.0680  153.7800 C   0  0  0  0  0  3  0  0  0  0  0  0
  160.4750  210.2250  153.3640 C   0  0  0  0  0  0  0  0  0  0  0  0
  161.7610  210.8460  155.3200 C   0  0  0  0  0  3  0  0  0  0  0  0
  160.2070  213.7070  157.0810 C   0  0  0  0  0  1  0  0  0  0  0  0
  160.8140  212.4320  156.9250 O   0  0  0  0  0  0  0  0  0  0  0  0
  1  8  1  0  0  0  0
  2 12  1  0  0  0  0
  2 13  1  0  0  0  0
  3 14  2  0  0  0  0
  4 15  1  0  0  0  0
  5  1  2  0  0  0  0
  5  9  1  0  0  0  0
  6  1  1  0  0  0  0
  7  4  1  0  0  0  0
  7 11  1  0  0  0  0
  8  4  2  0  0  0  0
  9  7  2  0  0  0  0
 10 11  1  0  0  0  0
 10  3  1  0  0  0  0
 11  2  2  0  0  0  0
 13 35  1  6  0  0  0
 14 13  1  0  0  0  0
 15 12  2  0  0  0  0
 16 17  1  6  0  0  0
 16  3  1  0  0  0  0
 18 16  1  0  0  0  0
 19 18  1  0  0  0  0
 19 20  1  0  0  0  0
 21 19  1  0  0  0  0
 22 24  1  0  0  0  0
 22 21  1  1  0  0  0
 23 25  1  0  0  0  0
 23 26  1  0  0  0  0
 25 28  1  6  0  0  0
 25 22  1  0  0  0  0
 26 24  2  0  0  0  0
 27 28  1  0  0  0  0
 28 34  2  0  0  0  0
 29 33  1  0  0  0  0
 30 32  1  0  0  0  0
 31 29  1  0  0  0  0
 31 30  1  0  0  0  0
 32 27  1  0  0  0  0
 33 27  1  0  0  0  0
 35 40  1  0  0  0  0
 36 37  1  0  0  0  0
 37 43  1  0  0  0  0
 38 41  1  0  0  0  0
 39 36  2  0  0  0  0
 40 39  1  0  0  0  0
 40 38  2  0  0  0  0
 41 37  2  0  0  0  0
 43 42  1  0  0  0  0
M  END
>  <MODEL>
3

>  <REMARK>
 VINA RESULT:      -8.3      1.674      6.161
  Name = 
  9 active torsions:
  status: ('A' for Active; 'I' for Inactive)
    1  A    between atoms: C_1  and  C_34
    2  A    between atoms: C_1  and  C_35
    3  A    between atoms: C_2  and  C_6
    4  A    between atoms: C_2  and  C_13
    5  A    between atoms: C_3  and  C_4
    6  A    between atoms: C_3  and  N_12
    7  A    between atoms: C_6  and  N_12
    8  A    between atoms: C_14  and  C_22
    9  A    between atoms: C_19  and  O_37
                            x       y       z     vdW  Elec       q    Type
                         _______ _______ _______ _____ _____    ______ ____

>  <TORSDO>
F 9

$$$$
=
 OpenBabel11062409563D

 43 48  0  0  1  0  0  0  0  0999 V2000
  161.1280  203.5740  148.5750 C   0  0  0  0  0  0  0  0  0  0  0  0
  161.6100  207.2150  152.0100 C   0  0  0  0  0  0  0  0  0  0  0  0
  161.4280  209.6670  150.6390 C   0  0  0  0  0  0  0  0  0  0  0  0
  161.4600  204.8090  150.6290 C   0  0  0  0  0  0  0  0  0  0  0  0
  160.9460  204.7740  147.8800 C   0  0  0  0  0  3  0  0  0  0  0  0
  161.0510  202.2790  147.8510 C   0  0  0  0  0  1  0  0  0  0  0  0
  161.2730  206.0230  149.9330 C   0  0  0  0  0  0  0  0  0  0  0  0
  161.3870  203.5910  149.9490 C   0  0  0  0  0  3  0  0  0  0  0  0
  161.0180  205.9960  148.5560 C   0  0  0  0  0  3  0  0  0  0  0  0
  161.2140  208.4570  149.9720 O   0  0  0  0  0  0  0  0  0  0  0  0
  161.3570  207.2340  150.6310 C   0  0  0  0  0  0  0  0  0  0  0  0
  161.7840  206.0290  152.6550 N   0  0  0  0  0  0  0  0  0  0  0  0
  161.6280  208.5030  152.7870 C   0  0  1  0  0  3  0  0  0  0  0  0
  161.6540  209.6880  151.9190 N   0  0  0  0  0  0  0  0  0  0  0  0
  161.7190  204.8390  152.0000 C   0  0  0  0  0  3  0  0  0  0  0  0
  161.4020  210.9510  149.8830 C   0  0  1  0  0  3  0  0  0  0  0  0
  161.1620  212.1120  150.8320 C   0  0  0  0  0  1  0  0  0  0  0  0
  162.7160  211.1340  149.1420 C   0  0  0  0  0  2  0  0  0  0  0  0
  162.4900  211.7590  147.8440 N   0  0  0  0  0  0  0  0  0  0  0  0
  162.8990  213.1550  147.9240 C   0  0  0  0  0  1  0  0  0  0  0  0
  161.0660  211.6820  147.4910 C   0  0  0  0  0  2  0  0  0  0  0  0
  160.5490  212.9030  146.7200 C   0  0  2  0  0  3  0  0  0  0  0  0
  158.8680  212.9230  144.9750 C   0  0  0  0  0  2  0  0  0  0  0  0
  159.2600  213.2970  147.2160 N   0  0  0  0  0  0  0  0  0  0  0  0
  160.3120  212.5250  145.2620 C   0  0  1  0  0  3  0  0  0  0  0  0
  158.3590  213.3160  146.3130 C   0  0  0  0  0  3  0  0  0  0  0  0
  161.4720  212.8080  143.0090 N   0  0  0  0  0  0  0  0  0  0  0  0
  161.2650  213.2520  144.3590 C   0  0  0  0  0  0  0  0  0  0  0  0
  162.3810  212.9350  140.4190 S   0  0  0  0  0  0  0  0  0  0  0  0
  159.9150  211.9730  141.2790 C   0  0  0  0  0  2  0  0  0  0  0  0
  160.5600  213.0120  140.3590 C   0  0  0  0  0  2  0  0  0  0  0  0
  160.7630  211.6310  142.5060 C   0  0  0  0  0  2  0  0  0  0  0  0
  162.4190  213.5290  142.1500 C   0  0  0  0  0  2  0  0  0  0  0  0
  161.8930  214.2550  144.7960 O   0  0  0  0  0  0  0  0  0  0  0  0
  160.4060  208.5600  153.7000 C   0  0  0  0  0  2  0  0  0  0  0  0
  159.3570  211.9900  154.9190 C   0  0  0  0  0  3  0  0  0  0  0  0
  160.3190  212.2500  155.9020 C   0  0  0  0  0  0  0  0  0  0  0  0
  161.3380  210.0890  155.4520 C   0  0  0  0  0  3  0  0  0  0  0  0
  159.3830  210.7880  154.2060 C   0  0  0  0  0  3  0  0  0  0  0  0
  160.3720  209.8350  154.4740 C   0  0  0  0  0  0  0  0  0  0  0  0
  161.3120  211.2910  156.1650 C   0  0  0  0  0  3  0  0  0  0  0  0
  159.0430  214.1050  156.9250 C   0  0  0  0  0  1  0  0  0  0  0  0
  160.2660  213.4610  156.5970 O   0  0  0  0  0  0  0  0  0  0  0  0
  1  8  1  0  0  0  0
  2 12  1  0  0  0  0
  2 13  1  0  0  0  0
  3 14  2  0  0  0  0
  4 15  1  0  0  0  0
  5  9  1  0  0  0  0
  5  1  2  0  0  0  0
  6  1  1  0  0  0  0
  7  4  1  0  0  0  0
  7 11  1  0  0  0  0
  8  4  2  0  0  0  0
  9  7  2  0  0  0  0
 10 11  1  0  0  0  0
 10  3  1  0  0  0  0
 11  2  2  0  0  0  0
 13 35  1  6  0  0  0
 14 13  1  0  0  0  0
 15 12  2  0  0  0  0
 16  3  1  0  0  0  0
 16 17  1  1  0  0  0
 18 16  1  0  0  0  0
 19 20  1  0  0  0  0
 19 18  1  0  0  0  0
 21 19  1  0  0  0  0
 22 24  1  0  0  0  0
 22 21  1  1  0  0  0
 23 25  1  0  0  0  0
 23 26  1  0  0  0  0
 25 28  1  6  0  0  0
 25 22  1  0  0  0  0
 26 24  2  0  0  0  0
 27 28  1  0  0  0  0
 28 34  2  0  0  0  0
 29 33  1  0  0  0  0
 30 32  1  0  0  0  0
 31 29  1  0  0  0  0
 31 30  1  0  0  0  0
 32 27  1  0  0  0  0
 33 27  1  0  0  0  0
 35 40  1  0  0  0  0
 36 37  1  0  0  0  0
 37 41  2  0  0  0  0
 37 43  1  0  0  0  0
 38 41  1  0  0  0  0
 39 40  1  0  0  0  0
 39 36  2  0  0  0  0
 40 38  2  0  0  0  0
 43 42  1  0  0  0  0
M  END
>  <MODEL>
4

>  <REMARK>
 VINA RESULT:      -7.5      2.298      6.635
  Name = 
  9 active torsions:
  status: ('A' for Active; 'I' for Inactive)
    1  A    between atoms: C_1  and  C_34
    2  A    between atoms: C_1  and  C_35
    3  A    between atoms: C_2  and  C_6
    4  A    between atoms: C_2  and  C_13
    5  A    between atoms: C_3  and  C_4
    6  A    between atoms: C_3  and  N_12
    7  A    between atoms: C_6  and  N_12
    8  A    between atoms: C_14  and  C_22
    9  A    between atoms: C_19  and  O_37
                            x       y       z     vdW  Elec       q    Type
                         _______ _______ _______ _____ _____    ______ ____

>  <TORSDO>
F 9

$$$$
=
 OpenBabel11062409563D

 43 48  0  0  1  0  0  0  0  0999 V2000
  161.2570  205.0610  150.3720 C   0  0  0  0  0  0  0  0  0  0  0  0
  161.0140  208.5850  153.9520 C   0  0  0  0  0  0  0  0  0  0  0  0
  160.0030  210.9160  152.7420 C   0  0  0  0  0  0  0  0  0  0  0  0
  161.4230  206.2800  152.4560 C   0  0  0  0  0  0  0  0  0  0  0  0
  160.6700  206.1760  149.7640 C   0  0  0  0  0  3  0  0  0  0  0  0
  161.4830  203.8210  149.5850 C   0  0  0  0  0  1  0  0  0  0  0  0
  160.8290  207.4070  151.8480 C   0  0  0  0  0  0  0  0  0  0  0  0
  161.6360  205.1130  151.7170 C   0  0  0  0  0  3  0  0  0  0  0  0
  160.4560  207.3470  150.4990 C   0  0  0  0  0  3  0  0  0  0  0  0
  160.0790  209.7160  152.0290 O   0  0  0  0  0  0  0  0  0  0  0  0
  160.6310  208.5690  152.6030 C   0  0  0  0  0  0  0  0  0  0  0  0
  161.5840  207.4820  154.5120 N   0  0  0  0  0  0  0  0  0  0  0  0
  160.7390  209.7990  154.7960 C   0  0  1  0  0  3  0  0  0  0  0  0
  160.3380  210.9650  153.9970 N   0  0  0  0  0  0  0  0  0  0  0  0
  161.7980  206.3440  153.7990 C   0  0  0  0  0  3  0  0  0  0  0  0
  159.5340  212.1590  152.0640 C   0  0  1  0  0  3  0  0  0  0  0  0
  159.3680  213.2770  153.0780 C   0  0  0  0  0  1  0  0  0  0  0  0
  160.5310  212.5600  150.9890 C   0  0  0  0  0  2  0  0  0  0  0  0
  160.0710  213.7500  150.2830 N   0  0  0  0  0  0  0  0  0  0  0  0
  158.7570  213.4740  149.7160 C   0  0  0  0  0  1  0  0  0  0  0  0
  161.0100  214.0900  149.2060 C   0  0  0  0  0  2  0  0  0  0  0  0
  161.3520  212.9150  148.2830 C   0  0  2  0  0  3  0  0  0  0  0  0
  162.8980  212.9240  146.4180 C   0  0  0  0  0  2  0  0  0  0  0  0
  162.6280  212.3580  148.6370 N   0  0  0  0  0  0  0  0  0  0  0  0
  161.5230  213.4170  146.8540 C   0  0  1  0  0  3  0  0  0  0  0  0
  163.4590  212.3520  147.6680 C   0  0  0  0  0  3  0  0  0  0  0  0
  160.4780  213.1150  144.5480 N   0  0  0  0  0  0  0  0  0  0  0  0
  160.4440  212.8740  145.9640 C   0  0  0  0  0  0  0  0  0  0  0  0
  159.7410  212.8220  141.9170 S   0  0  0  0  0  0  0  0  0  0  0  0
  162.3270  213.1070  142.9070 C   0  0  0  0  0  2  0  0  0  0  0  0
  161.4380  212.1750  142.0810 C   0  0  0  0  0  2  0  0  0  0  0  0
  161.5610  213.9060  143.9640 C   0  0  0  0  0  2  0  0  0  0  0  0
  159.4040  212.5850  143.7010 C   0  0  0  0  0  2  0  0  0  0  0  0
  159.4970  212.2100  146.4680 O   0  0  0  0  0  0  0  0  0  0  0  0
  159.6490  209.4730  155.8120 C   0  0  0  0  0  2  0  0  0  0  0  0
  156.7810  211.9450  155.6740 C   0  0  0  0  0  3  0  0  0  0  0  0
  157.2040  212.9230  156.5800 C   0  0  0  0  0  0  0  0  0  0  0  0
  159.2280  211.6410  156.9950 C   0  0  0  0  0  3  0  0  0  0  0  0
  157.5750  210.8200  155.4270 C   0  0  0  0  0  3  0  0  0  0  0  0
  158.7970  210.6660  156.0900 C   0  0  0  0  0  0  0  0  0  0  0  0
  158.4340  212.7650  157.2410 C   0  0  0  0  0  3  0  0  0  0  0  0
  155.0060  214.0520  156.4780 C   0  0  0  0  0  1  0  0  0  0  0  0
  156.3880  214.0350  156.8050 O   0  0  0  0  0  0  0  0  0  0  0  0
  1  8  1  0  0  0  0
  2 12  1  0  0  0  0
  2 13  1  0  0  0  0
  3 14  2  0  0  0  0
  4 15  1  0  0  0  0
  5  1  2  0  0  0  0
  5  9  1  0  0  0  0
  6  1  1  0  0  0  0
  7  4  1  0  0  0  0
  7 11  1  0  0  0  0
  8  4  2  0  0  0  0
  9  7  2  0  0  0  0
 10 11  1  0  0  0  0
 10  3  1  0  0  0  0
 11  2  2  0  0  0  0
 13 35  1  1  0  0  0
 14 13  1  0  0  0  0
 15 12  2  0  0  0  0
 16  3  1  0  0  0  0
 16 17  1  1  0  0  0
 18 16  1  0  0  0  0
 19 18  1  0  0  0  0
 20 19  1  0  0  0  0
 21 19  1  0  0  0  0
 22 24  1  0  0  0  0
 22 21  1  1  0  0  0
 23 25  1  0  0  0  0
 23 26  1  0  0  0  0
 25 28  1  6  0  0  0
 25 22  1  0  0  0  0
 26 24  2  0  0  0  0
 27 28  1  0  0  0  0
 28 34  2  0  0  0  0
 29 31  1  0  0  0  0
 29 33  1  0  0  0  0
 30 32  1  0  0  0  0
 31 30  1  0  0  0  0
 32 27  1  0  0  0  0
 33 27  1  0  0  0  0
 35 40  1  0  0  0  0
 36 37  1  0  0  0  0
 37 43  1  0  0  0  0
 37 41  2  0  0  0  0
 38 41  1  0  0  0  0
 39 36  2  0  0  0  0
 39 40  1  0  0  0  0
 40 38  2  0  0  0  0
 42 43  1  0  0  0  0
M  END
>  <MODEL>
5

>  <REMARK>
 VINA RESULT:      -6.8      3.271      7.147
  Name = 
  9 active torsions:
  status: ('A' for Active; 'I' for Inactive)
    1  A    between atoms: C_1  and  C_34
    2  A    between atoms: C_1  and  C_35
    3  A    between atoms: C_2  and  C_6
    4  A    between atoms: C_2  and  C_13
    5  A    between atoms: C_3  and  C_4
    6  A    between atoms: C_3  and  N_12
    7  A    between atoms: C_6  and  N_12
    8  A    between atoms: C_14  and  C_22
    9  A    between atoms: C_19  and  O_37
                            x       y       z     vdW  Elec       q    Type
                         _______ _______ _______ _____ _____    ______ ____

>  <TORSDO>
F 9

$$$$
=
 OpenBabel11062409563D

 43 48  0  0  1  0  0  0  0  0999 V2000
  161.1100  202.6240  149.7470 C   0  0  0  0  0  0  0  0  0  0  0  0
  161.0970  207.6240  150.2890 C   0  0  0  0  0  0  0  0  0  0  0  0
  161.2000  208.1500  153.0520 C   0  0  0  0  0  0  0  0  0  0  0  0
  161.0330  205.0100  149.3500 C   0  0  0  0  0  0  0  0  0  0  0  0
  161.2510  202.8550  151.1200 C   0  0  0  0  0  3  0  0  0  0  0  0
  161.0730  201.2320  149.2290 C   0  0  0  0  0  1  0  0  0  0  0  0
  161.1780  205.2480  150.7340 C   0  0  0  0  0  0  0  0  0  0  0  0
  160.9990  203.7010  148.8620 C   0  0  0  0  0  3  0  0  0  0  0  0
  161.2840  204.1630  151.6130 C   0  0  0  0  0  3  0  0  0  0  0  0
  161.3080  206.8430  152.5690 O   0  0  0  0  0  0  0  0  0  0  0  0
  161.2030  206.5670  151.2050 C   0  0  0  0  0  0  0  0  0  0  0  0
  160.9600  207.3640  148.9600 N   0  0  0  0  0  0  0  0  0  0  0  0
  161.1980  209.0460  150.7700 C   0  0  1  0  0  3  0  0  0  0  0  0
  161.1120  209.1560  152.2330 N   0  0  0  0  0  0  0  0  0  0  0  0
  160.9220  206.0930  148.4770 C   0  0  0  0  0  3  0  0  0  0  0  0
  161.1820  208.4050  154.5210 C   0  0  1  0  0  3  0  0  0  0  0  0
  162.0120  209.6330  154.8510 C   0  0  0  0  0  1  0  0  0  0  0  0
  159.7470  208.5930  154.9880 C   0  0  0  0  0  2  0  0  0  0  0  0
  159.5790  209.9020  155.6090 N   0  0  0  0  0  0  0  0  0  0  0  0
  159.8450  209.7740  157.0370 C   0  0  0  0  0  1  0  0  0  0  0  0
  158.2060  210.3820  155.4060 C   0  0  0  0  0  2  0  0  0  0  0  0
  158.0130  211.8700  155.7230 C   0  0  2  0  0  3  0  0  0  0  0  0
  156.1740  213.2850  155.0270 C   0  0  0  0  0  2  0  0  0  0  0  0
  157.0360  212.0350  156.7620 N   0  0  0  0  0  0  0  0  0  0  0  0
  157.4230  212.5800  154.5100 C   0  0  1  0  0  3  0  0  0  0  0  0
  156.0580  212.7790  156.4180 C   0  0  0  0  0  3  0  0  0  0  0  0
  158.7830  213.4890  152.5540 N   0  0  0  0  0  0  0  0  0  0  0  0
  158.4020  213.5630  153.9370 C   0  0  0  0  0  0  0  0  0  0  0  0
  159.9430  214.3200  150.2050 S   0  0  0  0  0  0  0  0  0  0  0  0
  157.4870  213.0410  150.4970 C   0  0  0  0  0  2  0  0  0  0  0  0
  158.1380  214.3120  149.9470 C   0  0  0  0  0  2  0  0  0  0  0  0
  158.2290  212.4430  151.6940 C   0  0  0  0  0  2  0  0  0  0  0  0
  159.7520  214.4530  152.0210 C   0  0  0  0  0  2  0  0  0  0  0  0
  158.8980  214.4530  154.6810 O   0  0  0  0  0  0  0  0  0  0  0  0
  162.5110  209.6530  150.2850 C   0  0  0  0  0  2  0  0  0  0  0  0
  160.8250  211.6620  147.5510 C   0  0  0  0  0  3  0  0  0  0  0  0
  161.8260  212.5800  147.2130 C   0  0  0  0  0  0  0  0  0  0  0  0
  163.2780  211.5890  148.8930 C   0  0  0  0  0  3  0  0  0  0  0  0
  161.0470  210.7120  148.5530 C   0  0  0  0  0  3  0  0  0  0  0  0
  162.2720  210.6780  149.2280 C   0  0  0  0  0  0  0  0  0  0  0  0
  163.0570  212.5380  147.8910 C   0  0  0  0  0  3  0  0  0  0  0  0
  162.5470  214.4530  145.7690 C   0  0  0  0  0  1  0  0  0  0  0  0
  161.5740  213.5160  146.2070 O   0  0  0  0  0  0  0  0  0  0  0  0
  1  5  1  0  0  0  0
  2 13  1  0  0  0  0
  2 11  1  0  0  0  0
  3 16  1  0  0  0  0
  4  7  1  0  0  0  0
  5  9  2  0  0  0  0
  6  1  1  0  0  0  0
  7 11  2  0  0  0  0
  7  9  1  0  0  0  0
  8  4  1  0  0  0  0
  8  1  2  0  0  0  0
 10  3  1  0  0  0  0
 11 10  1  0  0  0  0
 12  2  2  0  0  0  0
 13 35  1  1  0  0  0
 13 14  1  0  0  0  0
 14  3  2  0  0  0  0
 15 12  1  0  0  0  0
 15  4  2  0  0  0  0
 16 17  1  6  0  0  0
 16 18  1  0  0  0  0
 18 19  1  0  0  0  0
 19 20  1  0  0  0  0
 21 19  1  0  0  0  0
 22 21  1  6  0  0  0
 22 24  1  0  0  0  0
 23 26  1  0  0  0  0
 25 28  1  1  0  0  0
 25 23  1  0  0  0  0
 25 22  1  0  0  0  0
 26 24  2  0  0  0  0
 27 28  1  0  0  0  0
 28 34  2  0  0  0  0
 29 33  1  0  0  0  0
 30 32  1  0  0  0  0
 31 29  1  0  0  0  0
 31 30  1  0  0  0  0
 32 27  1  0  0  0  0
 33 27  1  0  0  0  0
 36 39  1  0  0  0  0
 37 36  2  0  0  0  0
 37 41  1  0  0  0  0
 38 40  1  0  0  0  0
 39 40  2  0  0  0  0
 40 35  1  0  0  0  0
 41 38  2  0  0  0  0
 42 43  1  0  0  0  0
 43 37  1  0  0  0  0
M  END
>  <MODEL>
6

>  <REMARK>
 VINA RESULT:      -6.6      4.088      8.938
  Name = 
  9 active torsions:
  status: ('A' for Active; 'I' for Inactive)
    1  A    between atoms: C_1  and  C_34
    2  A    between atoms: C_1  and  C_35
    3  A    between atoms: C_2  and  C_6
    4  A    between atoms: C_2  and  C_13
    5  A    between atoms: C_3  and  C_4
    6  A    between atoms: C_3  and  N_12
    7  A    between atoms: C_6  and  N_12
    8  A    between atoms: C_14  and  C_22
    9  A    between atoms: C_19  and  O_37
                            x       y       z     vdW  Elec       q    Type
                         _______ _______ _______ _____ _____    ______ ____

>  <TORSDO>
F 9

$$$$
=
 OpenBabel11062409563D

 43 48  0  0  1  0  0  0  0  0999 V2000
  160.9870  201.4020  147.6570 C   0  0  0  0  0  0  0  0  0  0  0  0
  161.5900  204.5530  151.5300 C   0  0  0  0  0  0  0  0  0  0  0  0
  162.0230  207.1140  150.4460 C   0  0  0  0  0  0  0  0  0  0  0  0
  161.2310  202.3560  149.8680 C   0  0  0  0  0  0  0  0  0  0  0  0
  161.1110  202.6760  147.0920 C   0  0  0  0  0  3  0  0  0  0  0  0
  160.7950  200.2180  146.7810 C   0  0  0  0  0  1  0  0  0  0  0  0
  161.3530  203.6440  149.3020 C   0  0  0  0  0  0  0  0  0  0  0  0
  161.0490  201.2420  149.0450 C   0  0  0  0  0  3  0  0  0  0  0  0
  161.2940  203.7950  147.9100 C   0  0  0  0  0  3  0  0  0  0  0  0
  161.7030  206.0320  149.6210 O   0  0  0  0  0  0  0  0  0  0  0  0
  161.5410  204.7480  150.1430 C   0  0  0  0  0  0  0  0  0  0  0  0
  161.4680  203.2990  152.0480 N   0  0  0  0  0  0  0  0  0  0  0  0
  161.7160  205.7360  152.4510 C   0  0  1  0  0  3  0  0  0  0  0  0
  162.0660  206.9730  151.7380 N   0  0  0  0  0  0  0  0  0  0  0  0
  161.2950  202.2090  151.2540 C   0  0  0  0  0  3  0  0  0  0  0  0
  162.3210  208.4470  149.8490 C   0  0  1  0  0  3  0  0  0  0  0  0
  162.4370  208.3300  148.3400 C   0  0  0  0  0  1  0  0  0  0  0  0
  161.2240  209.4310  150.2240 C   0  0  0  0  0  2  0  0  0  0  0  0
  161.7600  210.5020  151.0560 N   0  0  0  0  0  0  0  0  0  0  0  0
  160.6570  211.1190  151.7830 C   0  0  0  0  0  1  0  0  0  0  0  0
  162.4200  211.5090  150.2160 C   0  0  0  0  0  2  0  0  0  0  0  0
  161.5710  211.9870  149.0320 C   0  0  2  0  0  3  0  0  0  0  0  0
  161.8530  214.0320  147.7640 C   0  0  0  0  0  2  0  0  0  0  0  0
  162.2690  211.7640  147.7960 N   0  0  0  0  0  0  0  0  0  0  0  0
  161.3830  213.4970  149.1120 C   0  0  1  0  0  3  0  0  0  0  0  0
  162.4280  212.8290  147.1110 C   0  0  0  0  0  3  0  0  0  0  0  0
  159.0290  213.9910  148.2650 N   0  0  0  0  0  0  0  0  0  0  0  0
  159.9450  213.8450  149.3620 C   0  0  0  0  0  0  0  0  0  0  0  0
  156.5910  214.2770  147.0300 S   0  0  0  0  0  0  0  0  0  0  0  0
  158.7230  212.7050  146.1760 C   0  0  0  0  0  2  0  0  0  0  0  0
  157.2450  212.6400  146.5670 C   0  0  0  0  0  2  0  0  0  0  0  0
  159.4970  213.8150  146.8900 C   0  0  0  0  0  2  0  0  0  0  0  0
  157.6310  214.3440  148.5360 C   0  0  0  0  0  2  0  0  0  0  0  0
  159.5440  214.0170  150.5460 O   0  0  0  0  0  0  0  0  0  0  0  0
  160.4060  205.9310  153.2070 C   0  0  0  0  0  2  0  0  0  0  0  0
  160.2100  207.7240  156.5390 C   0  0  0  0  0  3  0  0  0  0  0  0
  160.7550  208.9740  156.2220 C   0  0  0  0  0  0  0  0  0  0  0  0
  161.0820  208.2330  153.9310 C   0  0  0  0  0  3  0  0  0  0  0  0
  160.1000  206.7330  155.5580 C   0  0  0  0  0  3  0  0  0  0  0  0
  160.5400  206.9850  154.2540 C   0  0  0  0  0  0  0  0  0  0  0  0
  161.1910  209.2240  154.9100 C   0  0  0  0  0  3  0  0  0  0  0  0
  161.2180  211.2890  156.9580 C   0  0  0  0  0  1  0  0  0  0  0  0
  160.8500  209.9430  157.2240 O   0  0  0  0  0  0  0  0  0  0  0  0
  1  8  1  0  0  0  0
  2 12  1  0  0  0  0
  2 13  1  0  0  0  0
  3 14  2  0  0  0  0
  4 15  1  0  0  0  0
  5  1  2  0  0  0  0
  5  9  1  0  0  0  0
  6  1  1  0  0  0  0
  7  4  1  0  0  0  0
  7 11  1  0  0  0  0
  8  4  2  0  0  0  0
  9  7  2  0  0  0  0
 10 11  1  0  0  0  0
 10  3  1  0  0  0  0
 11  2  2  0  0  0  0
 13 35  1  6  0  0  0
 14 13  1  0  0  0  0
 15 12  2  0  0  0  0
 16 17  1  6  0  0  0
 16 18  1  0  0  0  0
 16  3  1  0  0  0  0
 18 19  1  0  0  0  0
 19 20  1  0  0  0  0
 21 19  1  0  0  0  0
 22 25  1  0  0  0  0
 22 21  1  1  0  0  0
 23 25  1  0  0  0  0
 24 22  1  0  0  0  0
 25 28  1  6  0  0  0
 26 23  1  0  0  0  0
 26 24  2  0  0  0  0
 27 33  1  0  0  0  0
 27 28  1  0  0  0  0
 28 34  2  0  0  0  0
 29 33  1  0  0  0  0
 30 31  1  0  0  0  0
 30 32  1  0  0  0  0
 31 29  1  0  0  0  0
 32 27  1  0  0  0  0
 35 40  1  0  0  0  0
 37 36  1  0  0  0  0
 37 43  1  0  0  0  0
 38 40  2  0  0  0  0
 38 41  1  0  0  0  0
 39 36  2  0  0  0  0
 40 39  1  0  0  0  0
 41 37  2  0  0  0  0
 42 43  1  0  0  0  0
M  END
>  <MODEL>
7

>  <REMARK>
 VINA RESULT:      -6.4      3.598      7.481
  Name = 
  9 active torsions:
  status: ('A' for Active; 'I' for Inactive)
    1  A    between atoms: C_1  and  C_34
    2  A    between atoms: C_1  and  C_35
    3  A    between atoms: C_2  and  C_6
    4  A    between atoms: C_2  and  C_13
    5  A    between atoms: C_3  and  C_4
    6  A    between atoms: C_3  and  N_12
    7  A    between atoms: C_6  and  N_12
    8  A    between atoms: C_14  and  C_22
    9  A    between atoms: C_19  and  O_37
                            x       y       z     vdW  Elec       q    Type
                         _______ _______ _______ _____ _____    ______ ____

>  <TORSDO>
F 9

$$$$
=
 OpenBabel11062409563D

 43 48  0  0  1  0  0  0  0  0999 V2000
  161.2040  201.7540  150.2600 C   0  0  0  0  0  0  0  0  0  0  0  0
  160.8700  206.7390  150.8360 C   0  0  0  0  0  0  0  0  0  0  0  0
  160.6520  207.2340  153.5990 C   0  0  0  0  0  0  0  0  0  0  0  0
  161.0430  204.1380  149.8750 C   0  0  0  0  0  0  0  0  0  0  0  0
  161.1860  201.9740  151.6420 C   0  0  0  0  0  3  0  0  0  0  0  0
  161.2960  200.3690  149.7310 C   0  0  0  0  0  1  0  0  0  0  0  0
  161.0280  204.3650  151.2690 C   0  0  0  0  0  0  0  0  0  0  0  0
  161.1300  202.8360  149.3760 C   0  0  0  0  0  3  0  0  0  0  0  0
  161.0980  203.2750  152.1460 C   0  0  0  0  0  3  0  0  0  0  0  0
  160.8800  205.9400  153.1190 O   0  0  0  0  0  0  0  0  0  0  0  0
  160.9340  205.6770  151.7490 C   0  0  0  0  0  0  0  0  0  0  0  0
  160.8880  206.4900  149.4980 N   0  0  0  0  0  0  0  0  0  0  0  0
  160.8440  208.1580  151.3360 C   0  0  1  0  0  3  0  0  0  0  0  0
  160.5990  208.2440  152.7820 N   0  0  0  0  0  0  0  0  0  0  0  0
  160.9680  205.2260  149.0040 C   0  0  0  0  0  3  0  0  0  0  0  0
  160.4650  207.4670  155.0590 C   0  0  1  0  0  3  0  0  0  0  0  0
  160.5330  206.1500  155.8120 C   0  0  0  0  0  1  0  0  0  0  0  0
  161.5350  208.4230  155.5640 C   0  0  0  0  0  2  0  0  0  0  0  0
  160.9250  209.6200  156.1300 N   0  0  0  0  0  0  0  0  0  0  0  0
  159.9620  209.2130  157.1450 C   0  0  0  0  0  1  0  0  0  0  0  0
  160.2400  210.3820  155.0780 C   0  0  0  0  0  2  0  0  0  0  0  0
  160.4340  211.8990  155.1810 C   0  0  2  0  0  3  0  0  0  0  0  0
  159.1740  213.4430  156.5590 C   0  0  0  0  0  2  0  0  0  0  0  0
  161.1300  212.2320  156.3920 N   0  0  0  0  0  0  0  0  0  0  0  0
  159.0770  212.5830  155.3040 C   0  0  1  0  0  3  0  0  0  0  0  0
  160.4850  213.0460  157.1340 C   0  0  0  0  0  3  0  0  0  0  0  0
  157.5140  213.3320  153.4330 N   0  0  0  0  0  0  0  0  0  0  0  0
  158.7870  213.4200  154.0930 C   0  0  0  0  0  0  0  0  0  0  0  0
  155.5210  214.0470  151.6820 S   0  0  0  0  0  0  0  0  0  0  0  0
  155.2060  213.1530  154.3000 C   0  0  0  0  0  2  0  0  0  0  0  0
  154.8880  214.3260  153.3690 C   0  0  0  0  0  2  0  0  0  0  0  0
  156.4920  212.4110  153.9310 C   0  0  0  0  0  2  0  0  0  0  0  0
  157.2610  214.1520  152.2430 C   0  0  0  0  0  2  0  0  0  0  0  0
  159.6750  214.1990  153.6490 O   0  0  0  0  0  0  0  0  0  0  0  0
  162.1670  208.8380  150.9970 C   0  0  0  0  0  2  0  0  0  0  0  0
  162.0300  211.3000  148.1210 C   0  0  0  0  0  3  0  0  0  0  0  0
  161.5640  212.4550  148.7570 C   0  0  0  0  0  0  0  0  0  0  0  0
  161.4820  211.2440  150.8630 C   0  0  0  0  0  3  0  0  0  0  0  0
  162.2220  210.1210  148.8500 C   0  0  0  0  0  3  0  0  0  0  0  0
  161.9450  210.0920  150.2200 C   0  0  0  0  0  0  0  0  0  0  0  0
  161.2900  212.4220  150.1350 C   0  0  0  0  0  3  0  0  0  0  0  0
  160.3120  213.7740  147.0810 C   0  0  0  0  0  1  0  0  0  0  0  0
  161.3820  213.6170  148.0010 O   0  0  0  0  0  0  0  0  0  0  0  0
  1  5  1  0  0  0  0
  2 13  1  0  0  0  0
  2 11  1  0  0  0  0
  3 16  1  0  0  0  0
  4  7  1  0  0  0  0
  5  9  2  0  0  0  0
  6  1  1  0  0  0  0
  7 11  2  0  0  0  0
  7  9  1  0  0  0  0
  8  4  1  0  0  0  0
  8  1  2  0  0  0  0
 10  3  1  0  0  0  0
 11 10  1  0  0  0  0
 12  2  2  0  0  0  0
 13 35  1  1  0  0  0
 13 14  1  0  0  0  0
 14  3  2  0  0  0  0
 15 12  1  0  0  0  0
 15  4  2  0  0  0  0
 16 18  1  0  0  0  0
 16 17  1  1  0  0  0
 18 19  1  0  0  0  0
 19 20  1  0  0  0  0
 21 19  1  0  0  0  0
 22 21  1  1  0  0  0
 22 25  1  0  0  0  0
 22 24  1  0  0  0  0
 23 26  1  0  0  0  0
 24 26  2  0  0  0  0
 25 28  1  6  0  0  0
 25 23  1  0  0  0  0
 27 32  1  0  0  0  0
 27 28  1  0  0  0  0
 29 33  1  0  0  0  0
 29 31  1  0  0  0  0
 31 30  1  0  0  0  0
 32 30  1  0  0  0  0
 33 27  1  0  0  0  0
 34 28  2  0  0  0  0
 36 37  2  0  0  0  0
 36 39  1  0  0  0  0
 37 41  1  0  0  0  0
 39 40  2  0  0  0  0
 40 38  1  0  0  0  0
 40 35  1  0  0  0  0
 41 38  2  0  0  0  0
 42 43  1  0  0  0  0
 43 37  1  0  0  0  0
M  END
>  <MODEL>
8

>  <REMARK>
 VINA RESULT:      -6.1      4.658      9.494
  Name = 
  9 active torsions:
  status: ('A' for Active; 'I' for Inactive)
    1  A    between atoms: C_1  and  C_34
    2  A    between atoms: C_1  and  C_35
    3  A    between atoms: C_2  and  C_6
    4  A    between atoms: C_2  and  C_13
    5  A    between atoms: C_3  and  C_4
    6  A    between atoms: C_3  and  N_12
    7  A    between atoms: C_6  and  N_12
    8  A    between atoms: C_14  and  C_22
    9  A    between atoms: C_19  and  O_37
                            x       y       z     vdW  Elec       q    Type
                         _______ _______ _______ _____ _____    ______ ____

>  <TORSDO>
F 9

$$$$
