=
 OpenBabel11062409163D

 37 40  0  0  1  0  0  0  0  0999 V2000
  162.5160  210.4690  154.1200 N   0  0  0  0  0  0  0  0  0  0  0  0
  158.4340  210.8950  155.8170 C   0  0  0  0  0  3  0  0  0  0  0  0
  161.6590  210.2770  152.9610 C   0  0  2  0  0  3  0  0  0  0  0  0
  159.6080  211.0380  155.0670 C   0  0  0  0  0  0  0  0  0  0  0  0
  160.8130  210.8520  155.7710 O   0  0  0  0  0  0  0  0  0  0  0  0
  159.5080  211.3710  153.6930 C   0  0  0  0  0  0  0  0  0  0  0  0
  157.0780  211.3930  153.8840 C   0  0  0  0  0  3  0  0  0  0  0  0
  162.1490  210.7440  155.3390 C   0  0  0  0  0  0  0  0  0  0  0  0
  158.2350  211.5450  153.1220 C   0  0  0  0  0  3  0  0  0  0  0  0
  160.7300  211.4910  152.8290 C   0  0  2  0  0  3  0  0  0  0  0  0
  157.1760  211.0660  155.2350 C   0  0  0  0  0  0  0  0  0  0  0  0
  160.5570  208.5140  151.5950 C   0  0  0  0  0  2  0  0  0  0  0  0
  160.9450  208.9200  153.0030 C   0  0  1  0  0  3  0  0  0  0  0  0
  161.7510  207.8700  152.2570 C   0  0  1  0  0  3  0  0  0  0  0  0
  161.3500  206.4960  152.7590 C   0  0  0  0  0  2  0  0  0  0  0  0
  161.8810  205.4080  151.8420 C   0  0  0  0  0  2  0  0  0  0  0  0
  161.5000  203.0730  151.1220 C   0  0  0  0  0  2  0  0  0  0  0  0
  160.8110  204.3480  151.5900 C   0  0  2  0  0  3  0  0  0  0  0  0
  160.1030  204.4530  150.2290 C   0  0  1  0  0  3  0  0  0  0  0  0
  159.9050  202.0490  149.4780 C   0  0  0  0  0  1  0  0  0  0  0  0
  161.8850  203.3830  148.6590 C   0  0  0  0  0  1  0  0  0  0  0  0
  160.3990  205.7220  149.4260 C   0  0  0  0  0  1  0  0  0  0  0  0
  160.8460  203.2030  149.7600 C   0  0  0  0  0  0  0  0  0  0  0  0
  155.9430  210.8610  156.0450 C   0  0  0  0  0  2  0  0  0  0  0  0
  154.9890  209.9420  155.3080 C   0  0  0  0  0  1  0  0  0  0  0  0
  163.2060  210.8820  156.3790 C   0  0  0  0  0  2  0  0  0  0  0  0
  164.4090  211.3000  155.7990 O   0  0  0  0  0  1  0  0  0  0  0  0
  160.4410  211.9270  151.4430 N   0  0  0  0  0  0  0  0  0  0  0  0
  159.6850  213.1890  151.3650 C   0  0  1  0  0  3  0  0  0  0  0  0
  160.5640  214.3010  150.8210 C   0  0  0  0  0  1  0  0  0  0  0  0
  158.5890  213.5930  149.2660 O   0  0  0  0  0  1  0  0  0  0  0  0
  158.3890  213.1020  150.5580 C   0  0  0  0  0  2  0  0  0  0  0  0
  161.6310  211.9820  150.5980 C   0  0  0  0  0  2  0  0  0  0  0  0
  161.4750  211.0340  149.4290 C   0  0  0  0  0  2  0  0  0  0  0  0
  161.4050  211.8240  148.1410 C   0  0  0  0  0  2  0  0  0  0  0  0
  162.5640  213.5340  146.7810 C   0  0  0  0  0  1  0  0  0  0  0  0
  162.7180  212.5440  147.9140 C   0  0  0  0  0  2  0  0  0  0  0  0
  1  8  2  0  0  0  0
  3 13  1  0  0  0  0
  3  1  1  1  0  0  0
  4  5  1  0  0  0  0
  4  2  2  0  0  0  0
  6  4  1  0  0  0  0
  7 11  2  0  0  0  0
  8  5  1  0  0  0  0
  8 26  1  0  0  0  0
  9  6  2  0  0  0  0
  9  7  1  0  0  0  0
 10 28  1  6  0  0  0
 10  3  1  0  0  0  0
 10  6  1  0  0  0  0
 11  2  1  0  0  0  0
 11 24  1  0  0  0  0
 12 14  1  0  0  0  0
 13 12  1  6  0  0  0
 14 15  1  1  0  0  0
 14 13  1  0  0  0  0
 16 15  1  0  0  0  0
 17 18  1  0  0  0  0
 18 16  1  6  0  0  0
 19 22  1  6  0  0  0
 19 18  1  0  0  0  0
 20 23  1  0  0  0  0
 21 23  1  0  0  0  0
 23 19  1  0  0  0  0
 23 17  1  0  0  0  0
 25 24  1  0  0  0  0
 27 26  1  0  0  0  0
 29 30  1  6  0  0  0
 29 28  1  0  0  0  0
 31 32  1  0  0  0  0
 32 29  1  0  0  0  0
 33 28  1  0  0  0  0
 34 33  1  0  0  0  0
 35 34  1  0  0  0  0
 36 37  1  0  0  0  0
 37 35  1  0  0  0  0
M  END
>  <MODEL>
1

>  <REMARK>
 VINA RESULT:      -5.0      0.000      0.000
  Name = 
  13 active torsions:
  status: ('A' for Active; 'I' for Inactive)
    1  A    between atoms: C_1  and  C_12
    2  A    between atoms: C_1  and  N_36
    3  A    between atoms: C_3  and  C_32
    4  A    between atoms: C_6  and  C_31
    5  A    between atoms: C_10  and  C_14
    6  A    between atoms: C_17  and  C_26
    7  A    between atoms: C_17  and  C_33
    8  A    between atoms: C_22  and  C_24
    9  A    between atoms: C_26  and  C_34
   10  A    between atoms: C_27  and  C_37
   11  A    between atoms: C_29  and  N_36
   12  A    between atoms: C_31  and  C_37
   13  A    between atoms: C_33  and  N_36
                            x       y       z     vdW  Elec       q    Type
                         _______ _______ _______ _____ _____    ______ ____

>  <TORSDO>
F 13

$$$$
=
 OpenBabel11062409163D

 37 40  0  0  1  0  0  0  0  0999 V2000
  162.1080  210.8840  153.8330 N   0  0  0  0  0  0  0  0  0  0  0  0
  158.1320  210.6310  155.7960 C   0  0  0  0  0  3  0  0  0  0  0  0
  161.1850  210.9770  152.7130 C   0  0  2  0  0  3  0  0  0  0  0  0
  159.2510  211.0300  155.0540 C   0  0  0  0  0  0  0  0  0  0  0  0
  160.5030  210.7160  155.6150 O   0  0  0  0  0  0  0  0  0  0  0  0
  159.0520  211.7220  153.8330 C   0  0  0  0  0  0  0  0  0  0  0  0
  156.6390  211.5750  154.1520 C   0  0  0  0  0  3  0  0  0  0  0  0
  161.8120  210.7950  155.0990 C   0  0  0  0  0  0  0  0  0  0  0  0
  157.7400  211.9860  153.4020 C   0  0  0  0  0  3  0  0  0  0  0  0
  160.2120  212.1330  152.9730 C   0  0  2  0  0  3  0  0  0  0  0  0
  156.8350  210.8950  155.3530 C   0  0  0  0  0  0  0  0  0  0  0  0
  160.9180  209.1660  151.0290 C   0  0  0  0  0  2  0  0  0  0  0  0
  160.5180  209.6270  152.4160 C   0  0  1  0  0  3  0  0  0  0  0  0
  161.5660  208.5420  152.2420 C   0  0  1  0  0  3  0  0  0  0  0  0
  160.9220  207.1920  152.5000 C   0  0  0  0  0  2  0  0  0  0  0  0
  161.6810  206.0850  151.7910 C   0  0  0  0  0  2  0  0  0  0  0  0
  161.6410  203.7070  151.1110 C   0  0  0  0  0  2  0  0  0  0  0  0
  160.7740  204.8790  151.5520 C   0  0  2  0  0  3  0  0  0  0  0  0
  160.0690  204.8600  150.1870 C   0  0  1  0  0  3  0  0  0  0  0  0
  160.2200  202.4390  149.4770 C   0  0  0  0  0  1  0  0  0  0  0  0
  161.9960  204.0280  148.6440 C   0  0  0  0  0  1  0  0  0  0  0  0
  160.1860  206.1440  149.3630 C   0  0  0  0  0  1  0  0  0  0  0  0
  160.9850  203.7200  149.7430 C   0  0  0  0  0  0  0  0  0  0  0  0
  155.6630  210.4160  156.1380 C   0  0  0  0  0  2  0  0  0  0  0  0
  155.1650  211.5220  157.0480 C   0  0  0  0  0  1  0  0  0  0  0  0
  162.9290  210.6920  156.0790 C   0  0  0  0  0  2  0  0  0  0  0  0
  162.7510  209.5750  156.9020 O   0  0  0  0  0  1  0  0  0  0  0  0
  159.8210  212.9200  151.7800 N   0  0  0  0  0  0  0  0  0  0  0  0
  160.8850  213.0250  150.7660 C   0  0  1  0  0  3  0  0  0  0  0  0
  160.5920  212.1070  149.5930 C   0  0  0  0  0  1  0  0  0  0  0  0
  161.5140  214.4280  148.9200 O   0  0  0  0  0  1  0  0  0  0  0  0
  161.1460  214.4470  150.2670 C   0  0  0  0  0  2  0  0  0  0  0  0
  158.5720  212.4650  151.1750 C   0  0  0  0  0  2  0  0  0  0  0  0
  157.7180  213.6580  150.8020 C   0  0  0  0  0  2  0  0  0  0  0  0
  157.3880  213.6030  149.3270 C   0  0  0  0  0  2  0  0  0  0  0  0
  155.0950  214.1530  150.0730 C   0  0  0  0  0  1  0  0  0  0  0  0
  156.1660  214.4520  149.0470 C   0  0  0  0  0  2  0  0  0  0  0  0
  1  8  2  0  0  0  0
  3 10  1  0  0  0  0
  3  1  1  1  0  0  0
  4  5  1  0  0  0  0
  4  2  2  0  0  0  0
  6  4  1  0  0  0  0
  7 11  2  0  0  0  0
  8  5  1  0  0  0  0
  8 26  1  0  0  0  0
  9  6  2  0  0  0  0
  9  7  1  0  0  0  0
 10 28  1  6  0  0  0
 10  6  1  0  0  0  0
 11  2  1  0  0  0  0
 11 24  1  0  0  0  0
 12 14  1  0  0  0  0
 13 12  1  6  0  0  0
 13  3  1  0  0  0  0
 14 13  1  0  0  0  0
 14 15  1  1  0  0  0
 16 15  1  0  0  0  0
 17 18  1  0  0  0  0
 18 16  1  6  0  0  0
 19 22  1  6  0  0  0
 19 18  1  0  0  0  0
 20 23  1  0  0  0  0
 21 23  1  0  0  0  0
 23 19  1  0  0  0  0
 23 17  1  0  0  0  0
 24 25  1  0  0  0  0
 26 27  1  0  0  0  0
 29 30  1  6  0  0  0
 29 28  1  0  0  0  0
 31 32  1  0  0  0  0
 32 29  1  0  0  0  0
 33 28  1  0  0  0  0
 34 33  1  0  0  0  0
 35 34  1  0  0  0  0
 37 35  1  0  0  0  0
 37 36  1  0  0  0  0
M  END
>  <MODEL>
2

>  <REMARK>
 VINA RESULT:      -3.3      1.274      2.435
  Name = 
  13 active torsions:
  status: ('A' for Active; 'I' for Inactive)
    1  A    between atoms: C_1  and  C_12
    2  A    between atoms: C_1  and  N_36
    3  A    between atoms: C_3  and  C_32
    4  A    between atoms: C_6  and  C_31
    5  A    between atoms: C_10  and  C_14
    6  A    between atoms: C_17  and  C_26
    7  A    between atoms: C_17  and  C_33
    8  A    between atoms: C_22  and  C_24
    9  A    between atoms: C_26  and  C_34
   10  A    between atoms: C_27  and  C_37
   11  A    between atoms: C_29  and  N_36
   12  A    between atoms: C_31  and  C_37
   13  A    between atoms: C_33  and  N_36
                            x       y       z     vdW  Elec       q    Type
                         _______ _______ _______ _____ _____    ______ ____

>  <TORSDO>
F 13

$$$$
=
 OpenBabel11062409163D

 37 40  0  0  1  0  0  0  0  0999 V2000
  162.3230  208.7810  156.1200 N   0  0  0  0  0  0  0  0  0  0  0  0
  160.4360  212.1880  153.9870 C   0  0  0  0  0  3  0  0  0  0  0  0
  161.3610  208.1260  155.2470 C   0  0  2  0  0  3  0  0  0  0  0  0
  161.1110  211.0070  154.3170 C   0  0  0  0  0  0  0  0  0  0  0  0
  161.9100  211.0580  155.4750 O   0  0  0  0  0  0  0  0  0  0  0  0
  160.9660  209.8760  153.4740 C   0  0  0  0  0  0  0  0  0  0  0  0
  159.4790  211.1560  152.0270 C   0  0  0  0  0  3  0  0  0  0  0  0
  162.5800  210.0550  156.2020 C   0  0  0  0  0  0  0  0  0  0  0  0
  160.1470  209.9720  152.3350 C   0  0  0  0  0  3  0  0  0  0  0  0
  161.6280  208.5690  153.8030 C   0  0  2  0  0  3  0  0  0  0  0  0
  159.6220  212.2670  152.8550 C   0  0  0  0  0  0  0  0  0  0  0  0
  159.7970  207.8570  157.1620 C   0  0  0  0  0  2  0  0  0  0  0  0
  159.9210  208.3380  155.7310 C   0  0  1  0  0  3  0  0  0  0  0  0
  159.8840  209.3370  156.8750 C   0  0  1  0  0  3  0  0  0  0  0  0
  158.4930  209.9340  156.9610 C   0  0  0  0  0  2  0  0  0  0  0  0
  158.5220  211.4220  156.6610 C   0  0  0  0  0  2  0  0  0  0  0  0
  156.0810  211.7460  156.4260 C   0  0  0  0  0  2  0  0  0  0  0  0
  157.3000  212.1160  157.2600 C   0  0  2  0  0  3  0  0  0  0  0  0
  157.1240  213.5870  156.8480 C   0  0  1  0  0  3  0  0  0  0  0  0
  154.6370  213.7980  156.4580 C   0  0  0  0  0  1  0  0  0  0  0  0
  156.1100  213.3170  154.4640 C   0  0  0  0  0  1  0  0  0  0  0  0
  158.3030  214.2080  156.0960 C   0  0  0  0  0  1  0  0  0  0  0  0
  155.9360  213.1870  155.9740 C   0  0  0  0  0  0  0  0  0  0  0  0
  158.8770  213.5220  152.5550 C   0  0  0  0  0  2  0  0  0  0  0  0
  158.2650  213.4400  151.1700 C   0  0  0  0  0  1  0  0  0  0  0  0
  163.6010  210.5060  157.1890 C   0  0  0  0  0  2  0  0  0  0  0  0
  164.4470  211.4580  156.6100 O   0  0  0  0  0  1  0  0  0  0  0  0
  161.4360  207.5260  152.7690 N   0  0  0  0  0  0  0  0  0  0  0  0
  162.3490  207.6560  151.6200 C   0  0  1  0  0  3  0  0  0  0  0  0
  163.1790  206.3960  151.4560 C   0  0  0  0  0  1  0  0  0  0  0  0
  160.7390  207.0110  149.9570 O   0  0  0  0  0  1  0  0  0  0  0  0
  161.6590  208.0050  150.3000 C   0  0  0  0  0  2  0  0  0  0  0  0
  161.4710  206.1690  153.3070 C   0  0  0  0  0  2  0  0  0  0  0  0
  160.4900  205.2930  152.5580 C   0  0  0  0  0  2  0  0  0  0  0  0
  161.1870  204.0340  152.0940 C   0  0  0  0  0  2  0  0  0  0  0  0
  160.9470  202.1500  150.5100 C   0  0  0  0  0  1  0  0  0  0  0  0
  160.6300  203.6090  150.7520 C   0  0  0  0  0  2  0  0  0  0  0  0
  1  8  2  0  0  0  0
  2  4  1  0  0  0  0
  3 13  1  0  0  0  0
  3  1  1  1  0  0  0
  4  5  1  0  0  0  0
  5  8  1  0  0  0  0
  6 10  1  0  0  0  0
  6  4  2  0  0  0  0
  7  9  2  0  0  0  0
  7 11  1  0  0  0  0
  8 26  1  0  0  0  0
  9  6  1  0  0  0  0
 10 28  1  6  0  0  0
 10  3  1  0  0  0  0
 11  2  2  0  0  0  0
 13 14  1  0  0  0  0
 13 12  1  1  0  0  0
 14 15  1  6  0  0  0
 14 12  1  0  0  0  0
 16 15  1  0  0  0  0
 17 18  1  0  0  0  0
 18 16  1  6  0  0  0
 19 22  1  6  0  0  0
 19 18  1  0  0  0  0
 21 23  1  0  0  0  0
 23 17  1  0  0  0  0
 23 20  1  0  0  0  0
 23 19  1  0  0  0  0
 24 11  1  0  0  0  0
 25 24  1  0  0  0  0
 27 26  1  0  0  0  0
 28 33  1  0  0  0  0
 29 30  1  6  0  0  0
 29 28  1  0  0  0  0
 31 32  1  0  0  0  0
 32 29  1  0  0  0  0
 34 33  1  0  0  0  0
 35 34  1  0  0  0  0
 36 37  1  0  0  0  0
 37 35  1  0  0  0  0
M  END
>  <MODEL>
3

>  <REMARK>
 VINA RESULT:      -2.9      2.566      7.301
  Name = 
  13 active torsions:
  status: ('A' for Active; 'I' for Inactive)
    1  A    between atoms: C_1  and  C_12
    2  A    between atoms: C_1  and  N_36
    3  A    between atoms: C_3  and  C_32
    4  A    between atoms: C_6  and  C_31
    5  A    between atoms: C_10  and  C_14
    6  A    between atoms: C_17  and  C_26
    7  A    between atoms: C_17  and  C_33
    8  A    between atoms: C_22  and  C_24
    9  A    between atoms: C_26  and  C_34
   10  A    between atoms: C_27  and  C_37
   11  A    between atoms: C_29  and  N_36
   12  A    between atoms: C_31  and  C_37
   13  A    between atoms: C_33  and  N_36
                            x       y       z     vdW  Elec       q    Type
                         _______ _______ _______ _____ _____    ______ ____

>  <TORSDO>
F 13

$$$$
=
 OpenBabel11062409163D

 37 40  0  0  1  0  0  0  0  0999 V2000
  162.6180  210.1150  154.6240 N   0  0  0  0  0  0  0  0  0  0  0  0
  158.4950  211.5220  155.4880 C   0  0  0  0  0  3  0  0  0  0  0  0
  161.8760  209.6940  153.4460 C   0  0  2  0  0  3  0  0  0  0  0  0
  159.7540  211.2910  154.9180 C   0  0  0  0  0  0  0  0  0  0  0  0
  160.8260  211.1760  155.8220 O   0  0  0  0  0  0  0  0  0  0  0  0
  159.8620  211.2110  153.5070 C   0  0  0  0  0  0  0  0  0  0  0  0
  157.4620  211.5870  153.3090 C   0  0  0  0  0  3  0  0  0  0  0  0
  162.1680  210.7820  155.6470 C   0  0  0  0  0  0  0  0  0  0  0  0
  158.7060  211.3620  152.7220 C   0  0  0  0  0  3  0  0  0  0  0  0
  161.1770  210.9180  152.8420 C   0  0  2  0  0  3  0  0  0  0  0  0
  157.3550  211.6660  154.6960 C   0  0  0  0  0  0  0  0  0  0  0  0
  160.3830  207.9680  152.4560 C   0  0  0  0  0  2  0  0  0  0  0  0
  160.9520  208.5080  153.7520 C   0  0  1  0  0  3  0  0  0  0  0  0
  161.5050  207.2300  153.1460 C   0  0  1  0  0  3  0  0  0  0  0  0
  160.9250  206.0420  153.8900 C   0  0  0  0  0  2  0  0  0  0  0  0
  160.8950  204.8100  153.0040 C   0  0  0  0  0  2  0  0  0  0  0  0
  160.3490  205.1260  150.6130 C   0  0  0  0  0  2  0  0  0  0  0  0
  161.4830  205.1210  151.6290 C   0  0  2  0  0  3  0  0  0  0  0  0
  162.1110  203.9180  150.9070 C   0  0  1  0  0  3  0  0  0  0  0  0
  161.3690  204.2130  148.5100 C   0  0  0  0  0  1  0  0  0  0  0  0
  159.9850  202.7170  150.0000 C   0  0  0  0  0  1  0  0  0  0  0  0
  162.2670  202.6490  151.7480 C   0  0  0  0  0  1  0  0  0  0  0  0
  160.9370  203.9060  149.9290 C   0  0  0  0  0  0  0  0  0  0  0  0
  156.0220  211.8630  155.3310 C   0  0  0  0  0  2  0  0  0  0  0  0
  156.0190  213.1460  156.1370 C   0  0  0  0  0  1  0  0  0  0  0  0
  163.1100  211.0910  156.7590 C   0  0  0  0  0  2  0  0  0  0  0  0
  164.3770  211.3980  156.2500 O   0  0  0  0  0  1  0  0  0  0  0  0
  161.1190  210.9560  151.3620 N   0  0  0  0  0  0  0  0  0  0  0  0
  161.2230  212.3140  150.8000 C   0  0  1  0  0  3  0  0  0  0  0  0
  161.7540  212.2600  149.3780 C   0  0  0  0  0  1  0  0  0  0  0  0
  159.4650  213.3710  149.5510 O   0  0  0  0  0  1  0  0  0  0  0  0
  159.9240  213.1200  150.8460 C   0  0  0  0  0  2  0  0  0  0  0  0
  162.0760  210.0560  150.7260 C   0  0  0  0  0  2  0  0  0  0  0  0
  161.6190  209.7300  149.3210 C   0  0  0  0  0  2  0  0  0  0  0  0
  161.3050  208.2530  149.2200 C   0  0  0  0  0  2  0  0  0  0  0  0
  163.3780  206.9760  148.7900 C   0  0  0  0  0  1  0  0  0  0  0  0
  162.1680  207.6200  148.1500 C   0  0  0  0  0  2  0  0  0  0  0  0
  1  8  2  0  0  0  0
  3 13  1  0  0  0  0
  3  1  1  1  0  0  0
  4  2  1  0  0  0  0
  4  5  1  0  0  0  0
  6  4  2  0  0  0  0
  7 11  1  0  0  0  0
  8  5  1  0  0  0  0
  8 26  1  0  0  0  0
  9  7  2  0  0  0  0
  9  6  1  0  0  0  0
 10 28  1  6  0  0  0
 10  3  1  0  0  0  0
 10  6  1  0  0  0  0
 11 24  1  0  0  0  0
 11  2  2  0  0  0  0
 12 14  1  0  0  0  0
 13 12  1  6  0  0  0
 14 13  1  0  0  0  0
 14 15  1  1  0  0  0
 16 15  1  0  0  0  0
 17 18  1  0  0  0  0
 18 16  1  1  0  0  0
 19 18  1  0  0  0  0
 19 22  1  1  0  0  0
 20 23  1  0  0  0  0
 23 21  1  0  0  0  0
 23 17  1  0  0  0  0
 23 19  1  0  0  0  0
 24 25  1  0  0  0  0
 27 26  1  0  0  0  0
 29 30  1  6  0  0  0
 29 32  1  0  0  0  0
 29 28  1  0  0  0  0
 31 32  1  0  0  0  0
 33 28  1  0  0  0  0
 34 33  1  0  0  0  0
 35 34  1  0  0  0  0
 37 36  1  0  0  0  0
 37 35  1  0  0  0  0
M  END
>  <MODEL>
4

>  <REMARK>
 VINA RESULT:      -2.7      1.251      2.189
  Name = 
  13 active torsions:
  status: ('A' for Active; 'I' for Inactive)
    1  A    between atoms: C_1  and  C_12
    2  A    between atoms: C_1  and  N_36
    3  A    between atoms: C_3  and  C_32
    4  A    between atoms: C_6  and  C_31
    5  A    between atoms: C_10  and  C_14
    6  A    between atoms: C_17  and  C_26
    7  A    between atoms: C_17  and  C_33
    8  A    between atoms: C_22  and  C_24
    9  A    between atoms: C_26  and  C_34
   10  A    between atoms: C_27  and  C_37
   11  A    between atoms: C_29  and  N_36
   12  A    between atoms: C_31  and  C_37
   13  A    between atoms: C_33  and  N_36
                            x       y       z     vdW  Elec       q    Type
                         _______ _______ _______ _____ _____    ______ ____

>  <TORSDO>
F 13

$$$$
