=
 OpenBabel11052422593D

 28 31  0  0  0  0  0  0  0  0999 V2000
  161.8420  209.2610  150.2620 N   0  0  0  0  0  0  0  0  0  0  0  0
  161.3940  204.6320  147.7740 C   0  0  0  0  0  3  0  0  0  0  0  0
  160.9910  206.1800  153.7330 O   0  0  0  0  0  1  0  0  0  0  0  0
  160.9550  203.1510  149.6510 C   0  0  0  0  0  0  0  0  0  0  0  0
  161.2980  205.5370  150.0570 C   0  0  0  0  0  0  0  0  0  0  0  0
  161.0440  202.2660  147.3970 C   0  0  0  0  0  0  0  0  0  0  0  0
  161.2200  204.4520  149.1560 C   0  0  0  0  0  0  0  0  0  0  0  0
  160.8520  204.0060  151.9130 C   0  0  0  0  0  3  0  0  0  0  0  0
  160.8700  202.0700  148.7690 C   0  0  0  0  0  3  0  0  0  0  0  0
  161.4290  207.6540  151.8640 C   0  0  0  0  0  0  0  0  0  0  0  0
  161.5550  206.8460  149.5990 C   0  0  0  0  0  3  0  0  0  0  0  0
  160.7760  202.9400  151.0180 C   0  0  0  0  0  3  0  0  0  0  0  0
  161.5460  208.9390  152.5340 C   0  0  0  0  0  0  0  0  0  0  0  0
  161.1740  206.3780  152.3680 C   0  0  0  0  0  0  0  0  0  0  0  0
  161.4310  209.1300  153.7730 O   0  0  0  0  0  0  0  0  0  0  0  0
  160.9520  201.1140  146.4650 C   0  0  0  0  0  1  0  0  0  0  0  0
  161.3060  203.5460  146.9000 C   0  0  0  0  0  3  0  0  0  0  0  0
  161.1070  205.3040  151.4550 C   0  0  0  0  0  0  0  0  0  0  0  0
  161.8180  210.0080  151.5180 C   0  0  0  0  0  2  0  0  0  0  0  0
  161.6120  207.8810  150.5290 C   0  0  0  0  0  0  0  0  0  0  0  0
  162.0800  209.8510  148.9540 C   0  0  0  0  0  2  0  0  0  0  0  0
  162.3010  211.2230  149.0900 O   0  0  0  0  0  0  0  0  0  0  0  0
  161.7050  211.7960  147.9640 C   0  0  0  0  0  2  0  0  0  0  0  0
  162.6600  212.7780  147.3000 C   0  0  0  0  0  2  0  0  0  0  0  0
  162.1790  213.1530  145.9400 C   0  0  0  0  0  0  0  0  0  0  0  0
  160.9570  213.4000  145.7550 O   0  0  0  0  0  0  0  0  0  0  0  0
  162.7270  212.7830  143.6580 O   0  0  0  0  0  1  0  0  0  0  0  0
  163.0790  213.2060  144.8800 O   0  0  0  0  0  0  0  0  0  0  0  0
  1 20  1  0  0  0  0
  1 19  1  0  0  0  0
  2  7  1  0  0  0  0
  4 12  1  0  0  0  0
  5 18  1  0  0  0  0
  6  9  2  0  0  0  0
  7  4  2  0  0  0  0
  7  5  1  0  0  0  0
  9  4  1  0  0  0  0
 10 14  1  0  0  0  0
 10 13  1  0  0  0  0
 11  5  2  0  0  0  0
 11 20  1  0  0  0  0
 12  8  2  0  0  0  0
 13 15  2  0  0  0  0
 14  3  1  0  0  0  0
 16  6  1  0  0  0  0
 17  6  1  0  0  0  0
 17  2  2  0  0  0  0
 18  8  1  0  0  0  0
 18 14  2  0  0  0  0
 19 13  1  0  0  0  0
 20 10  2  0  0  0  0
 21 22  1  0  0  0  0
 21  1  1  0  0  0  0
 23 22  1  0  0  0  0
 24 23  1  0  0  0  0
 25 24  1  0  0  0  0
 26 25  2  0  0  0  0
 27 28  1  0  0  0  0
 28 25  1  0  0  0  0
M  END
>  <MODEL>
1

>  <REMARK>
 VINA RESULT:      -9.8      0.000      0.000
  Name = 
  6 active torsions:
  status: ('A' for Active; 'I' for Inactive)
    1  A    between atoms: N_1  and  C_2
    2  A    between atoms: C_2  and  O_3
    3  A    between atoms: O_3  and  C_8
    4  A    between atoms: C_6  and  C_11
    5  A    between atoms: C_6  and  O_28
    6  A    between atoms: C_8  and  C_11
                            x       y       z     vdW  Elec       q    Type
                         _______ _______ _______ _____ _____    ______ ____

>  <TORSDO>
F 6

$$$$
=
 OpenBabel11052422593D

 28 31  0  0  0  0  0  0  0  0999 V2000
  161.0100  207.7030  153.0140 N   0  0  0  0  0  0  0  0  0  0  0  0
  160.9450  203.2770  150.1460 C   0  0  0  0  0  3  0  0  0  0  0  0
  161.9620  209.1710  148.6320 O   0  0  0  0  0  1  0  0  0  0  0  0
  161.4500  204.1620  147.9390 C   0  0  0  0  0  0  0  0  0  0  0  0
  161.2970  205.6900  149.8400 C   0  0  0  0  0  0  0  0  0  0  0  0
  161.1100  201.7830  148.2480 C   0  0  0  0  0  0  0  0  0  0  0  0
  161.2270  204.3790  149.3210 C   0  0  0  0  0  0  0  0  0  0  0  0
  161.8040  206.5320  147.6000 C   0  0  0  0  0  3  0  0  0  0  0  0
  161.3900  202.8680  147.4130 C   0  0  0  0  0  3  0  0  0  0  0  0
  161.4580  208.2900  150.8290 C   0  0  0  0  0  0  0  0  0  0  0  0
  161.0850  205.9420  151.2110 C   0  0  0  0  0  3  0  0  0  0  0  0
  161.7340  205.2350  147.0930 C   0  0  0  0  0  3  0  0  0  0  0  0
  161.4810  209.5000  151.6350 C   0  0  0  0  0  0  0  0  0  0  0  0
  161.6740  208.0940  149.4640 C   0  0  0  0  0  0  0  0  0  0  0  0
  161.7160  210.6600  151.2050 O   0  0  0  0  0  0  0  0  0  0  0  0
  161.0480  200.4110  147.6840 C   0  0  0  0  0  1  0  0  0  0  0  0
  160.8880  201.9880  149.6120 C   0  0  0  0  0  3  0  0  0  0  0  0
  161.5930  206.7780  148.9610 C   0  0  0  0  0  0  0  0  0  0  0  0
  161.1900  209.1530  153.0650 C   0  0  0  0  0  2  0  0  0  0  0  0
  161.1740  207.2530  151.6720 C   0  0  0  0  0  0  0  0  0  0  0  0
  160.6970  206.8680  154.1630 C   0  0  0  0  0  2  0  0  0  0  0  0
  161.2820  207.4090  155.3100 O   0  0  0  0  0  0  0  0  0  0  0  0
  160.2810  207.3580  156.2830 C   0  0  0  0  0  2  0  0  0  0  0  0
  160.4310  208.5150  157.2610 C   0  0  0  0  0  2  0  0  0  0  0  0
  160.3520  209.8240  156.5530 C   0  0  0  0  0  0  0  0  0  0  0  0
  159.3170  210.1200  155.8980 O   0  0  0  0  0  0  0  0  0  0  0  0
  162.6320  210.3370  156.1240 O   0  0  0  0  0  1  0  0  0  0  0  0
  161.4330  210.7000  156.6010 O   0  0  0  0  0  0  0  0  0  0  0  0
  1 19  1  0  0  0  0
  1 21  1  0  0  0  0
  3 14  1  0  0  0  0
  4  7  1  0  0  0  0
  5 11  1  0  0  0  0
  6 17  2  0  0  0  0
  7  5  1  0  0  0  0
  7  2  2  0  0  0  0
  8 18  1  0  0  0  0
  9  4  2  0  0  0  0
  9  6  1  0  0  0  0
 10 13  1  0  0  0  0
 10 20  1  0  0  0  0
 11 20  2  0  0  0  0
 12  8  2  0  0  0  0
 12  4  1  0  0  0  0
 13 19  1  0  0  0  0
 14 10  2  0  0  0  0
 15 13  2  0  0  0  0
 16  6  1  0  0  0  0
 17  2  1  0  0  0  0
 18 14  1  0  0  0  0
 18  5  2  0  0  0  0
 20  1  1  0  0  0  0
 21 22  1  0  0  0  0
 22 23  1  0  0  0  0
 23 24  1  0  0  0  0
 25 28  1  0  0  0  0
 25 24  1  0  0  0  0
 26 25  2  0  0  0  0
 27 28  1  0  0  0  0
M  END
>  <MODEL>
2

>  <REMARK>
 VINA RESULT:      -9.8      2.800      6.033
  Name = 
  6 active torsions:
  status: ('A' for Active; 'I' for Inactive)
    1  A    between atoms: N_1  and  C_2
    2  A    between atoms: C_2  and  O_3
    3  A    between atoms: O_3  and  C_8
    4  A    between atoms: C_6  and  C_11
    5  A    between atoms: C_6  and  O_28
    6  A    between atoms: C_8  and  C_11
                            x       y       z     vdW  Elec       q    Type
                         _______ _______ _______ _____ _____    ______ ____

>  <TORSDO>
F 6

$$$$
=
 OpenBabel11052422593D

 28 31  0  0  0  0  0  0  0  0999 V2000
  161.8160  209.2180  150.1840 N   0  0  0  0  0  0  0  0  0  0  0  0
  161.3620  204.6010  147.6750 C   0  0  0  0  0  3  0  0  0  0  0  0
  161.0520  206.1090  153.6500 O   0  0  0  0  0  1  0  0  0  0  0  0
  160.9690  203.1050  149.5500 C   0  0  0  0  0  0  0  0  0  0  0  0
  161.2990  205.4910  149.9650 C   0  0  0  0  0  0  0  0  0  0  0  0
  161.0240  202.2350  147.2890 C   0  0  0  0  0  0  0  0  0  0  0  0
  161.2140  204.4110  149.0590 C   0  0  0  0  0  0  0  0  0  0  0  0
  160.8990  203.9450  151.8190 C   0  0  0  0  0  3  0  0  0  0  0  0
  160.8760  202.0290  148.6640 C   0  0  0  0  0  3  0  0  0  0  0  0
  161.4440  207.5980  151.7830 C   0  0  0  0  0  0  0  0  0  0  0  0
  161.5360  206.8050  149.5100 C   0  0  0  0  0  3  0  0  0  0  0  0
  160.8160  202.8840  150.9190 C   0  0  0  0  0  3  0  0  0  0  0  0
  161.5630  208.8790  152.4590 C   0  0  0  0  0  0  0  0  0  0  0  0
  161.2100  206.3160  152.2830 C   0  0  0  0  0  0  0  0  0  0  0  0
  161.4680  209.0620  153.7010 O   0  0  0  0  0  0  0  0  0  0  0  0
  160.9250  201.0870  146.3530 C   0  0  0  0  0  1  0  0  0  0  0  0
  161.2670  203.5190  146.7960 C   0  0  0  0  0  3  0  0  0  0  0  0
  161.1350  205.2480  151.3640 C   0  0  0  0  0  0  0  0  0  0  0  0
  161.8080  209.9570  151.4450 C   0  0  0  0  0  2  0  0  0  0  0  0
  161.6020  207.8340  150.4470 C   0  0  0  0  0  0  0  0  0  0  0  0
  162.0250  209.8180  148.8750 C   0  0  0  0  0  2  0  0  0  0  0  0
  162.3410  211.1700  149.0230 O   0  0  0  0  0  0  0  0  0  0  0  0
  161.7380  211.8010  147.9320 C   0  0  0  0  0  2  0  0  0  0  0  0
  161.5060  213.2750  148.2340 C   0  0  0  0  0  2  0  0  0  0  0  0
  160.1710  213.4860  148.8640 C   0  0  0  0  0  0  0  0  0  0  0  0
  159.1250  213.3330  148.1780 O   0  0  0  0  0  0  0  0  0  0  0  0
  159.9630  212.9590  151.1710 O   0  0  0  0  0  1  0  0  0  0  0  0
  160.0910  213.8720  150.1990 O   0  0  0  0  0  0  0  0  0  0  0  0
  1 20  1  0  0  0  0
  1 19  1  0  0  0  0
  2  7  1  0  0  0  0
  4 12  1  0  0  0  0
  5 18  1  0  0  0  0
  6  9  2  0  0  0  0
  7  4  2  0  0  0  0
  7  5  1  0  0  0  0
  9  4  1  0  0  0  0
 10 14  1  0  0  0  0
 10 13  1  0  0  0  0
 11  5  2  0  0  0  0
 11 20  1  0  0  0  0
 12  8  2  0  0  0  0
 13 15  2  0  0  0  0
 14  3  1  0  0  0  0
 16  6  1  0  0  0  0
 17  6  1  0  0  0  0
 17  2  2  0  0  0  0
 18  8  1  0  0  0  0
 18 14  2  0  0  0  0
 19 13  1  0  0  0  0
 20 10  2  0  0  0  0
 21 22  1  0  0  0  0
 21  1  1  0  0  0  0
 23 24  1  0  0  0  0
 23 22  1  0  0  0  0
 24 25  1  0  0  0  0
 25 28  1  0  0  0  0
 26 25  2  0  0  0  0
 28 27  1  0  0  0  0
M  END
>  <MODEL>
3

>  <REMARK>
 VINA RESULT:      -9.6      1.590      2.125
  Name = 
  6 active torsions:
  status: ('A' for Active; 'I' for Inactive)
    1  A    between atoms: N_1  and  C_2
    2  A    between atoms: C_2  and  O_3
    3  A    between atoms: O_3  and  C_8
    4  A    between atoms: C_6  and  C_11
    5  A    between atoms: C_6  and  O_28
    6  A    between atoms: C_8  and  C_11
                            x       y       z     vdW  Elec       q    Type
                         _______ _______ _______ _____ _____    ______ ____

>  <TORSDO>
F 6

$$$$
=
 OpenBabel11052422593D

 28 31  0  0  0  0  0  0  0  0999 V2000
  161.1530  204.4140  149.3720 N   0  0  0  0  0  0  0  0  0  0  0  0
  160.6810  206.7300  154.0870 C   0  0  0  0  0  3  0  0  0  0  0  0
  162.1540  208.9460  148.5210 O   0  0  0  0  0  1  0  0  0  0  0  0
  161.2090  209.0330  153.5140 C   0  0  0  0  0  0  0  0  0  0  0  0
  161.2430  207.3220  151.7690 C   0  0  0  0  0  0  0  0  0  0  0  0
  160.6460  208.4450  155.7960 C   0  0  0  0  0  0  0  0  0  0  0  0
  161.0440  207.6820  153.1200 C   0  0  0  0  0  0  0  0  0  0  0  0
  161.7660  209.6530  151.2420 C   0  0  0  0  0  3  0  0  0  0  0  0
  161.0090  209.4030  154.8460 C   0  0  0  0  0  3  0  0  0  0  0  0
  161.6290  206.6530  149.0910 C   0  0  0  0  0  0  0  0  0  0  0  0
  161.0830  205.9870  151.3410 C   0  0  0  0  0  3  0  0  0  0  0  0
  161.5680  210.0020  152.5770 C   0  0  0  0  0  3  0  0  0  0  0  0
  161.7470  206.0010  147.7970 C   0  0  0  0  0  0  0  0  0  0  0  0
  161.8020  207.9860  149.4650 C   0  0  0  0  0  0  0  0  0  0  0  0
  162.0470  206.5720  146.7160 O   0  0  0  0  0  0  0  0  0  0  0  0
  160.4350  208.8450  157.2110 C   0  0  0  0  0  1  0  0  0  0  0  0
  160.4820  207.1100  155.4160 C   0  0  0  0  0  3  0  0  0  0  0  0
  161.6070  208.3280  150.8200 C   0  0  0  0  0  0  0  0  0  0  0  0
  161.4450  204.5400  147.9450 C   0  0  0  0  0  2  0  0  0  0  0  0
  161.2820  205.6890  149.9950 C   0  0  0  0  0  0  0  0  0  0  0  0
  160.8010  203.1690  150.0370 C   0  0  0  0  0  2  0  0  0  0  0  0
  159.9290  202.4360  149.2310 O   0  0  0  0  0  0  0  0  0  0  0  0
  160.3470  201.1090  149.3610 C   0  0  0  0  0  2  0  0  0  0  0  0
  161.5840  200.8560  148.5090 C   0  0  0  0  0  2  0  0  0  0  0  0
  161.2080  200.5980  147.0900 C   0  0  0  0  0  0  0  0  0  0  0  0
  161.4780  199.4860  146.5640 O   0  0  0  0  0  0  0  0  0  0  0  0
  160.1820  201.3710  145.0910 O   0  0  0  0  0  1  0  0  0  0  0  0
  160.5820  201.5980  146.3500 O   0  0  0  0  0  0  0  0  0  0  0  0
  1 20  1  0  0  0  0
  1 21  1  0  0  0  0
  2 17  1  0  0  0  0
  3 14  1  0  0  0  0
  4  9  2  0  0  0  0
  5  7  1  0  0  0  0
  6 16  1  0  0  0  0
  7  4  1  0  0  0  0
  7  2  2  0  0  0  0
  8 12  2  0  0  0  0
  9  6  1  0  0  0  0
 10 14  2  0  0  0  0
 10 20  1  0  0  0  0
 11  5  1  0  0  0  0
 12  4  1  0  0  0  0
 13 19  1  0  0  0  0
 13 10  1  0  0  0  0
 14 18  1  0  0  0  0
 15 13  2  0  0  0  0
 17  6  2  0  0  0  0
 18  8  1  0  0  0  0
 18  5  2  0  0  0  0
 19  1  1  0  0  0  0
 20 11  2  0  0  0  0
 22 23  1  0  0  0  0
 22 21  1  0  0  0  0
 24 23  1  0  0  0  0
 25 24  1  0  0  0  0
 26 25  2  0  0  0  0
 27 28  1  0  0  0  0
 28 25  1  0  0  0  0
M  END
>  <MODEL>
4

>  <REMARK>
 VINA RESULT:      -9.4      3.923      8.311
  Name = 
  6 active torsions:
  status: ('A' for Active; 'I' for Inactive)
    1  A    between atoms: N_1  and  C_2
    2  A    between atoms: C_2  and  O_3
    3  A    between atoms: O_3  and  C_8
    4  A    between atoms: C_6  and  C_11
    5  A    between atoms: C_6  and  O_28
    6  A    between atoms: C_8  and  C_11
                            x       y       z     vdW  Elec       q    Type
                         _______ _______ _______ _____ _____    ______ ____

>  <TORSDO>
F 6

$$$$
=
 OpenBabel11052422593D

 28 31  0  0  0  0  0  0  0  0999 V2000
  161.4810  210.1020  151.6540 N   0  0  0  0  0  0  0  0  0  0  0  0
  161.4980  206.2850  148.0140 C   0  0  0  0  0  3  0  0  0  0  0  0
  160.9230  206.1390  154.1550 O   0  0  0  0  0  1  0  0  0  0  0  0
  161.2000  204.3220  149.4160 C   0  0  0  0  0  0  0  0  0  0  0  0
  161.3050  206.5330  150.4510 C   0  0  0  0  0  0  0  0  0  0  0  0
  161.3830  204.0840  147.0110 C   0  0  0  0  0  0  0  0  0  0  0  0
  161.3370  205.7270  149.2930 C   0  0  0  0  0  0  0  0  0  0  0  0
  161.0040  204.5280  151.8190 C   0  0  0  0  0  3  0  0  0  0  0  0
  161.2230  203.5130  148.2770 C   0  0  0  0  0  3  0  0  0  0  0  0
  161.2210  208.0930  152.7590 C   0  0  0  0  0  0  0  0  0  0  0  0
  161.4340  207.9360  150.3650 C   0  0  0  0  0  3  0  0  0  0  0  0
  161.0370  203.7370  150.6720 C   0  0  0  0  0  3  0  0  0  0  0  0
  161.2100  209.1580  153.7490 C   0  0  0  0  0  0  0  0  0  0  0  0
  161.0910  206.7110  152.8980 C   0  0  0  0  0  0  0  0  0  0  0  0
  161.0720  208.9990  154.9900 O   0  0  0  0  0  0  0  0  0  0  0  0
  161.4070  203.2190  145.8050 C   0  0  0  0  0  1  0  0  0  0  0  0
  161.5200  205.4690  146.8810 C   0  0  0  0  0  3  0  0  0  0  0  0
  161.1330  205.9190  151.7300 C   0  0  0  0  0  0  0  0  0  0  0  0
  161.3800  210.4800  153.0620 C   0  0  0  0  0  2  0  0  0  0  0  0
  161.3860  208.6850  151.5380 C   0  0  0  0  0  0  0  0  0  0  0  0
  161.6640  211.0390  150.5570 C   0  0  0  0  0  2  0  0  0  0  0  0
  160.8270  212.1420  150.7370 O   0  0  0  0  0  0  0  0  0  0  0  0
  160.8330  212.8020  149.5050 C   0  0  0  0  0  2  0  0  0  0  0  0
  161.8850  212.1980  148.5840 C   0  0  0  0  0  2  0  0  0  0  0  0
  161.6310  212.5780  147.1660 C   0  0  0  0  0  0  0  0  0  0  0  0
  160.5320  212.2820  146.6250 O   0  0  0  0  0  0  0  0  0  0  0  0
  162.5550  213.3170  145.1050 O   0  0  0  0  0  1  0  0  0  0  0  0
  162.6210  213.2380  146.4410 O   0  0  0  0  0  0  0  0  0  0  0  0
  1 19  1  0  0  0  0
  2  7  1  0  0  0  0
  4 12  1  0  0  0  0
  5 18  1  0  0  0  0
  6  9  2  0  0  0  0
  7  4  2  0  0  0  0
  7  5  1  0  0  0  0
  9  4  1  0  0  0  0
 10 14  1  0  0  0  0
 10 13  1  0  0  0  0
 11  5  2  0  0  0  0
 11 20  1  0  0  0  0
 12  8  2  0  0  0  0
 13 15  2  0  0  0  0
 14  3  1  0  0  0  0
 16  6  1  0  0  0  0
 17  6  1  0  0  0  0
 17  2  2  0  0  0  0
 18  8  1  0  0  0  0
 18 14  2  0  0  0  0
 19 13  1  0  0  0  0
 20  1  1  0  0  0  0
 20 10  2  0  0  0  0
 21 22  1  0  0  0  0
 21  1  1  0  0  0  0
 23 22  1  0  0  0  0
 24 23  1  0  0  0  0
 25 24  1  0  0  0  0
 26 25  2  0  0  0  0
 27 28  1  0  0  0  0
 28 25  1  0  0  0  0
M  END
>  <MODEL>
5

>  <REMARK>
 VINA RESULT:      -9.0      1.242      1.505
  Name = 
  6 active torsions:
  status: ('A' for Active; 'I' for Inactive)
    1  A    between atoms: N_1  and  C_2
    2  A    between atoms: C_2  and  O_3
    3  A    between atoms: O_3  and  C_8
    4  A    between atoms: C_6  and  C_11
    5  A    between atoms: C_6  and  O_28
    6  A    between atoms: C_8  and  C_11
                            x       y       z     vdW  Elec       q    Type
                         _______ _______ _______ _____ _____    ______ ____

>  <TORSDO>
F 6

$$$$
=
 OpenBabel11052422593D

 28 31  0  0  0  0  0  0  0  0999 V2000
  161.2250  204.3800  146.1300 N   0  0  0  0  0  0  0  0  0  0  0  0
  161.2190  206.3580  151.0190 C   0  0  0  0  0  3  0  0  0  0  0  0
  160.8320  200.5770  148.8970 O   0  0  0  0  0  1  0  0  0  0  0  0
  161.0220  204.3200  152.3300 C   0  0  0  0  0  0  0  0  0  0  0  0
  161.0750  204.1790  149.8910 C   0  0  0  0  0  0  0  0  0  0  0  0
  161.1730  206.4700  153.4380 C   0  0  0  0  0  0  0  0  0  0  0  0
  161.1040  204.9580  151.0680 C   0  0  0  0  0  0  0  0  0  0  0  0
  160.8790  202.1570  151.2550 C   0  0  0  0  0  3  0  0  0  0  0  0
  161.0570  205.0790  153.5030 C   0  0  0  0  0  3  0  0  0  0  0  0
  161.0280  202.6060  147.5920 C   0  0  0  0  0  0  0  0  0  0  0  0
  161.1600  204.7810  148.6180 C   0  0  0  0  0  3  0  0  0  0  0  0
  160.9080  202.9320  152.4130 C   0  0  0  0  0  3  0  0  0  0  0  0
  161.0390  202.0760  146.2380 C   0  0  0  0  0  0  0  0  0  0  0  0
  160.9390  201.9630  148.8270 C   0  0  0  0  0  0  0  0  0  0  0  0
  160.9650  200.8570  145.9300 O   0  0  0  0  0  0  0  0  0  0  0  0
  161.2090  207.2710  154.6870 C   0  0  0  0  0  1  0  0  0  0  0  0
  161.2540  207.1080  152.1970 C   0  0  0  0  0  3  0  0  0  0  0  0
  160.9620  202.7570  149.9930 C   0  0  0  0  0  0  0  0  0  0  0  0
  161.1640  203.2060  145.2600 C   0  0  0  0  0  2  0  0  0  0  0  0
  161.1350  203.9640  147.4900 C   0  0  0  0  0  0  0  0  0  0  0  0
  161.3440  205.7510  145.6610 C   0  0  0  0  0  2  0  0  0  0  0  0
  162.3530  206.4050  146.3710 O   0  0  0  0  0  0  0  0  0  0  0  0
  161.6860  207.3470  147.1590 C   0  0  0  0  0  2  0  0  0  0  0  0
  162.6020  207.8600  148.2620 C   0  0  0  0  0  2  0  0  0  0  0  0
  162.1320  209.1790  148.7730 C   0  0  0  0  0  0  0  0  0  0  0  0
  161.5800  209.9940  147.9870 O   0  0  0  0  0  0  0  0  0  0  0  0
  161.8960  210.6800  150.6000 O   0  0  0  0  0  1  0  0  0  0  0  0
  162.3290  209.5090  150.1110 O   0  0  0  0  0  0  0  0  0  0  0  0
  1 20  1  0  0  0  0
  2  7  2  0  0  0  0
  2 17  1  0  0  0  0
  4 12  1  0  0  0  0
  4  9  2  0  0  0  0
  5 18  1  0  0  0  0
  5  7  1  0  0  0  0
  6  9  1  0  0  0  0
  6 16  1  0  0  0  0
  7  4  1  0  0  0  0
  8 12  2  0  0  0  0
 10 14  1  0  0  0  0
 11  5  2  0  0  0  0
 13 10  1  0  0  0  0
 14  3  1  0  0  0  0
 14 18  2  0  0  0  0
 15 13  2  0  0  0  0
 17  6  2  0  0  0  0
 18  8  1  0  0  0  0
 19  1  1  0  0  0  0
 19 13  1  0  0  0  0
 20 10  2  0  0  0  0
 20 11  1  0  0  0  0
 21  1  1  0  0  0  0
 21 22  1  0  0  0  0
 22 23  1  0  0  0  0
 23 24  1  0  0  0  0
 24 25  1  0  0  0  0
 25 28  1  0  0  0  0
 26 25  2  0  0  0  0
 28 27  1  0  0  0  0
M  END
>  <MODEL>
6

>  <REMARK>
 VINA RESULT:      -8.8      3.063      6.035
  Name = 
  6 active torsions:
  status: ('A' for Active; 'I' for Inactive)
    1  A    between atoms: N_1  and  C_2
    2  A    between atoms: C_2  and  O_3
    3  A    between atoms: O_3  and  C_8
    4  A    between atoms: C_6  and  C_11
    5  A    between atoms: C_6  and  O_28
    6  A    between atoms: C_8  and  C_11
                            x       y       z     vdW  Elec       q    Type
                         _______ _______ _______ _____ _____    ______ ____

>  <TORSDO>
F 6

$$$$
=
 OpenBabel11052422593D

 28 31  0  0  0  0  0  0  0  0999 V2000
  161.4400  204.7840  148.1880 N   0  0  0  0  0  0  0  0  0  0  0  0
  161.2220  208.8680  151.5180 C   0  0  0  0  0  3  0  0  0  0  0  0
  160.8770  202.7740  152.4210 O   0  0  0  0  0  1  0  0  0  0  0  0
  160.9410  207.7090  153.6360 C   0  0  0  0  0  0  0  0  0  0  0  0
  161.1090  206.4130  151.5710 C   0  0  0  0  0  0  0  0  0  0  0  0
  161.0610  210.1290  153.5790 C   0  0  0  0  0  0  0  0  0  0  0  0
  161.0900  207.6630  152.2280 C   0  0  0  0  0  0  0  0  0  0  0  0
  160.8270  205.2930  153.7280 C   0  0  0  0  0  3  0  0  0  0  0  0
  160.9270  208.9390  154.3000 C   0  0  0  0  0  3  0  0  0  0  0  0
  161.1560  203.9280  150.3120 C   0  0  0  0  0  0  0  0  0  0  0  0
  161.2600  206.3300  150.1710 C   0  0  0  0  0  3  0  0  0  0  0  0
  160.8090  206.5300  154.3710 C   0  0  0  0  0  3  0  0  0  0  0  0
  161.2260  202.8130  149.3820 C   0  0  0  0  0  0  0  0  0  0  0  0
  161.0010  203.9570  151.6980 C   0  0  0  0  0  0  0  0  0  0  0  0
  161.1540  201.5950  149.6940 O   0  0  0  0  0  0  0  0  0  0  0  0
  161.0460  211.4320  154.2900 C   0  0  0  0  0  1  0  0  0  0  0  0
  161.2080  210.0930  152.1900 C   0  0  0  0  0  3  0  0  0  0  0  0
  160.9770  205.2150  152.3380 C   0  0  0  0  0  0  0  0  0  0  0  0
  161.4090  203.3360  147.9880 C   0  0  0  0  0  2  0  0  0  0  0  0
  161.2810  205.0720  149.5740 C   0  0  0  0  0  0  0  0  0  0  0  0
  161.5950  205.7620  147.1240 C   0  0  0  0  0  2  0  0  0  0  0  0
  160.3560  206.0110  146.5300 O   0  0  0  0  0  0  0  0  0  0  0  0
  160.6110  206.0180  145.1560 C   0  0  0  0  0  2  0  0  0  0  0  0
  161.2860  204.7200  144.7350 C   0  0  0  0  0  2  0  0  0  0  0  0
  160.2860  203.6250  144.5820 C   0  0  0  0  0  0  0  0  0  0  0  0
  159.1400  203.8830  144.1300 O   0  0  0  0  0  0  0  0  0  0  0  0
  159.7090  201.3460  144.9280 O   0  0  0  0  0  1  0  0  0  0  0  0
  160.6210  202.3280  144.9630 O   0  0  0  0  0  0  0  0  0  0  0  0
  1 20  1  0  0  0  0
  2 17  2  0  0  0  0
  2  7  1  0  0  0  0
  4  9  1  0  0  0  0
  4 12  1  0  0  0  0
  5  7  1  0  0  0  0
  5 18  1  0  0  0  0
  6 16  1  0  0  0  0
  6  9  2  0  0  0  0
  7  4  2  0  0  0  0
  8 12  2  0  0  0  0
 10 14  1  0  0  0  0
 11  5  2  0  0  0  0
 13 15  2  0  0  0  0
 13 10  1  0  0  0  0
 14 18  2  0  0  0  0
 14  3  1  0  0  0  0
 17  6  1  0  0  0  0
 18  8  1  0  0  0  0
 19  1  1  0  0  0  0
 19 13  1  0  0  0  0
 20 11  1  0  0  0  0
 20 10  2  0  0  0  0
 21  1  1  0  0  0  0
 22 21  1  0  0  0  0
 23 22  1  0  0  0  0
 24 23  1  0  0  0  0
 25 24  1  0  0  0  0
 25 28  1  0  0  0  0
 26 25  2  0  0  0  0
 27 28  1  0  0  0  0
M  END
>  <MODEL>
7

>  <REMARK>
 VINA RESULT:      -8.7      4.021      7.117
  Name = 
  6 active torsions:
  status: ('A' for Active; 'I' for Inactive)
    1  A    between atoms: N_1  and  C_2
    2  A    between atoms: C_2  and  O_3
    3  A    between atoms: O_3  and  C_8
    4  A    between atoms: C_6  and  C_11
    5  A    between atoms: C_6  and  O_28
    6  A    between atoms: C_8  and  C_11
                            x       y       z     vdW  Elec       q    Type
                         _______ _______ _______ _____ _____    ______ ____

>  <TORSDO>
F 6

$$$$
=
 OpenBabel11052422593D

 28 31  0  0  0  0  0  0  0  0999 V2000
  161.1850  202.4060  147.6710 N   0  0  0  0  0  0  0  0  0  0  0  0
  161.7750  207.5740  148.5370 C   0  0  0  0  0  3  0  0  0  0  0  0
  160.7100  202.8380  152.3450 O   0  0  0  0  0  1  0  0  0  0  0  0
  161.5190  207.6590  150.9530 C   0  0  0  0  0  0  0  0  0  0  0  0
  161.3470  205.5110  149.8020 C   0  0  0  0  0  0  0  0  0  0  0  0
  161.9500  209.6900  149.7030 C   0  0  0  0  0  0  0  0  0  0  0  0
  161.5450  206.9080  149.7530 C   0  0  0  0  0  0  0  0  0  0  0  0
  161.0970  205.6480  152.2310 C   0  0  0  0  0  3  0  0  0  0  0  0
  161.7200  209.0420  150.9200 C   0  0  0  0  0  3  0  0  0  0  0  0
  160.9650  202.7540  149.9400 C   0  0  0  0  0  0  0  0  0  0  0  0
  161.3720  204.7310  148.6260 C   0  0  0  0  0  3  0  0  0  0  0  0
  161.2940  207.0270  152.1760 C   0  0  0  0  0  3  0  0  0  0  0  0
  160.8130  201.3300  149.6860 C   0  0  0  0  0  0  0  0  0  0  0  0
  160.9290  203.4810  151.1310 C   0  0  0  0  0  0  0  0  0  0  0  0
  160.6080  200.4490  150.5610 O   0  0  0  0  0  0  0  0  0  0  0  0
  162.1630  211.1590  149.6740 C   0  0  0  0  0  1  0  0  0  0  0  0
  161.9770  208.9560  148.5140 C   0  0  0  0  0  3  0  0  0  0  0  0
  161.1220  204.8770  151.0630 C   0  0  0  0  0  0  0  0  0  0  0  0
  160.9490  201.0690  148.2150 C   0  0  0  0  0  2  0  0  0  0  0  0
  161.1790  203.3550  148.7320 C   0  0  0  0  0  0  0  0  0  0  0  0
  161.3800  202.7010  146.2600 C   0  0  0  0  0  2  0  0  0  0  0  0
  160.2470  202.3200  145.5390 O   0  0  0  0  0  0  0  0  0  0  0  0
  159.8870  203.4550  144.8080 C   0  0  0  0  0  2  0  0  0  0  0  0
  161.1260  204.2520  144.4220 C   0  0  0  0  0  2  0  0  0  0  0  0
  161.1480  205.5720  145.1150 C   0  0  0  0  0  0  0  0  0  0  0  0
  160.0780  206.2200  145.2600 O   0  0  0  0  0  0  0  0  0  0  0  0
  163.3310  205.2740  146.0060 O   0  0  0  0  0  1  0  0  0  0  0  0
  162.3560  206.0880  145.5770 O   0  0  0  0  0  0  0  0  0  0  0  0
  1 19  1  0  0  0  0
  1 20  1  0  0  0  0
  2  7  1  0  0  0  0
  4 12  1  0  0  0  0
  5 18  1  0  0  0  0
  6  9  2  0  0  0  0
  7  5  1  0  0  0  0
  7  4  2  0  0  0  0
  9  4  1  0  0  0  0
 10 14  1  0  0  0  0
 11 20  1  0  0  0  0
 11  5  2  0  0  0  0
 12  8  2  0  0  0  0
 13 10  1  0  0  0  0
 13 15  2  0  0  0  0
 14  3  1  0  0  0  0
 16  6  1  0  0  0  0
 17  2  2  0  0  0  0
 17  6  1  0  0  0  0
 18 14  2  0  0  0  0
 18  8  1  0  0  0  0
 19 13  1  0  0  0  0
 20 10  2  0  0  0  0
 21  1  1  0  0  0  0
 22 21  1  0  0  0  0
 23 22  1  0  0  0  0
 24 23  1  0  0  0  0
 24 25  1  0  0  0  0
 25 26  2  0  0  0  0
 25 28  1  0  0  0  0
 28 27  1  0  0  0  0
M  END
>  <MODEL>
8

>  <REMARK>
 VINA RESULT:      -8.7      3.570      6.670
  Name = 
  6 active torsions:
  status: ('A' for Active; 'I' for Inactive)
    1  A    between atoms: N_1  and  C_2
    2  A    between atoms: C_2  and  O_3
    3  A    between atoms: O_3  and  C_8
    4  A    between atoms: C_6  and  C_11
    5  A    between atoms: C_6  and  O_28
    6  A    between atoms: C_8  and  C_11
                            x       y       z     vdW  Elec       q    Type
                         _______ _______ _______ _____ _____    ______ ____

>  <TORSDO>
F 6

$$$$
=
 OpenBabel11052422593D

 28 31  0  0  0  0  0  0  0  0999 V2000
  161.8680  208.4780  150.0580 N   0  0  0  0  0  0  0  0  0  0  0  0
  161.5020  203.5350  148.2570 C   0  0  0  0  0  3  0  0  0  0  0  0
  160.9430  205.9250  153.9170 O   0  0  0  0  0  1  0  0  0  0  0  0
  161.0220  202.3380  150.3170 C   0  0  0  0  0  0  0  0  0  0  0  0
  161.3440  204.7600  150.3820 C   0  0  0  0  0  0  0  0  0  0  0  0
  161.1710  201.1370  148.2180 C   0  0  0  0  0  0  0  0  0  0  0  0
  161.2940  203.5560  149.6460 C   0  0  0  0  0  0  0  0  0  0  0  0
  160.8580  203.5100  152.4280 C   0  0  0  0  0  3  0  0  0  0  0  0
  160.9630  201.1400  149.6000 C   0  0  0  0  0  3  0  0  0  0  0  0
  161.4210  207.1170  151.8660 C   0  0  0  0  0  0  0  0  0  0  0  0
  161.6070  205.9910  149.7450 C   0  0  0  0  0  3  0  0  0  0  0  0
  160.8100  202.3250  151.6960 C   0  0  0  0  0  3  0  0  0  0  0  0
  161.5170  208.4860  152.3450 C   0  0  0  0  0  0  0  0  0  0  0  0
  161.1600  205.9250  152.5420 C   0  0  0  0  0  0  0  0  0  0  0  0
  161.3700  208.8540  153.5400 O   0  0  0  0  0  0  0  0  0  0  0  0
  161.1060  199.8610  147.4610 C   0  0  0  0  0  1  0  0  0  0  0  0
  161.4400  202.3330  147.5480 C   0  0  0  0  0  3  0  0  0  0  0  0
  161.1200  204.7300  151.7930 C   0  0  0  0  0  0  0  0  0  0  0  0
  161.8100  209.3990  151.1920 C   0  0  0  0  0  2  0  0  0  0  0  0
  161.6370  207.1500  150.5170 C   0  0  0  0  0  0  0  0  0  0  0  0
  162.1360  208.8740  148.6840 C   0  0  0  0  0  2  0  0  0  0  0  0
  161.2010  208.2810  147.8340 O   0  0  0  0  0  0  0  0  0  0  0  0
  161.8970  207.2490  147.1990 C   0  0  0  0  0  2  0  0  0  0  0  0
  160.9820  206.5040  146.2370 C   0  0  0  0  0  2  0  0  0  0  0  0
  161.7610  205.5690  145.3760 C   0  0  0  0  0  0  0  0  0  0  0  0
  162.9840  205.3770  145.6090 O   0  0  0  0  0  0  0  0  0  0  0  0
  160.2600  203.9410  144.5150 O   0  0  0  0  0  1  0  0  0  0  0  0
  161.1350  204.9340  144.3070 O   0  0  0  0  0  0  0  0  0  0  0  0
  1 20  1  0  0  0  0
  1 19  1  0  0  0  0
  2  7  1  0  0  0  0
  4 12  1  0  0  0  0
  5 18  1  0  0  0  0
  6  9  2  0  0  0  0
  7  4  2  0  0  0  0
  7  5  1  0  0  0  0
  9  4  1  0  0  0  0
 10 13  1  0  0  0  0
 10 14  1  0  0  0  0
 11  5  2  0  0  0  0
 11 20  1  0  0  0  0
 12  8  2  0  0  0  0
 13 15  2  0  0  0  0
 14  3  1  0  0  0  0
 16  6  1  0  0  0  0
 17  6  1  0  0  0  0
 17  2  2  0  0  0  0
 18  8  1  0  0  0  0
 18 14  2  0  0  0  0
 19 13  1  0  0  0  0
 20 10  2  0  0  0  0
 21  1  1  0  0  0  0
 22 21  1  0  0  0  0
 23 22  1  0  0  0  0
 24 23  1  0  0  0  0
 25 26  2  0  0  0  0
 25 24  1  0  0  0  0
 28 27  1  0  0  0  0
 28 25  1  0  0  0  0
M  END
>  <MODEL>
9

>  <REMARK>
 VINA RESULT:      -8.7      2.889      3.678
  Name = 
  6 active torsions:
  status: ('A' for Active; 'I' for Inactive)
    1  A    between atoms: N_1  and  C_2
    2  A    between atoms: C_2  and  O_3
    3  A    between atoms: O_3  and  C_8
    4  A    between atoms: C_6  and  C_11
    5  A    between atoms: C_6  and  O_28
    6  A    between atoms: C_8  and  C_11
                            x       y       z     vdW  Elec       q    Type
                         _______ _______ _______ _____ _____    ______ ____

>  <TORSDO>
F 6

$$$$
