=
 OpenBabel11052423193D

 27 31  0  0  1  0  0  0  0  0999 V2000
  160.4910  209.9440  152.7870 N   0  0  0  0  0  2  0  0  0  0  0  0
  159.7600  210.4450  155.1080 C   0  0  2  0  0  3  0  0  0  0  0  0
  159.9770  207.9100  154.8540 C   0  0  0  0  0  2  0  0  0  0  0  0
  161.2050  205.5550  152.4280 C   0  0  0  0  0  3  0  0  0  0  0  0
  161.5000  205.9480  151.1930 C   0  0  0  0  0  3  0  0  0  0  0  0
  159.3700  210.3690  153.6190 C   0  0  1  0  0  3  0  0  0  0  0  0
  161.0460  208.6220  152.6910 C   0  0  0  0  0  0  0  0  0  0  0  0
  160.3830  209.1560  155.6540 C   0  0  1  0  0  3  0  0  0  0  0  0
  161.5580  206.3710  153.6260 C   0  0  0  0  0  2  0  0  0  0  0  0
  162.1150  207.2450  150.8620 C   0  0  0  0  0  3  0  0  0  0  0  0
  161.9240  208.3950  151.5210 C   0  0  0  0  0  3  0  0  0  0  0  0
  160.8310  207.6770  153.6400 C   0  0  0  0  0  0  0  0  0  0  0  0
  159.1360  213.7470  151.8940 C   0  0  0  0  0  3  0  0  0  0  0  0
  158.8510  211.6830  153.1160 C   0  0  0  0  0  0  0  0  0  0  0  0
  157.5570  212.0840  153.4540 C   0  0  0  0  0  3  0  0  0  0  0  0
  157.0800  213.3150  152.9990 C   0  0  0  0  0  3  0  0  0  0  0  0
  157.8720  214.1140  152.2350 N   0  0  0  0  0  0  0  0  0  0  0  0
  159.6500  212.5230  152.3280 C   0  0  0  0  0  3  0  0  0  0  0  0
  162.0940  210.2280  156.8780 C   0  0  0  0  0  2  0  0  0  0  0  0
  162.2010  208.7970  157.1160 C   0  0  0  0  0  2  0  0  0  0  0  0
  161.8330  209.2860  155.7770 N   0  0  0  0  0  0  0  0  0  0  0  0
  158.5650  210.7780  155.9550 C   0  0  0  0  0  3  0  0  0  0  0  0
  158.5300  211.8310  156.7780 C   0  0  0  0  0  3  0  0  0  0  0  0
  157.8930  214.4530  157.2610 C   0  0  0  0  0  1  0  0  0  0  0  0
  159.6690  213.7860  155.8830 C   0  0  0  0  0  2  0  0  0  0  0  0
  159.3290  214.1890  157.2570 N   0  0  0  0  0  0  0  0  0  0  0  0
  159.6930  212.7800  156.9370 C   0  0  1  0  0  3  0  0  0  0  0  0
  1  6  1  0  0  0  0
  2  8  1  0  0  0  0
  2 22  1  1  0  0  0
  4  9  1  0  0  0  0
  5  4  2  0  0  0  0
  6 14  1  6  0  0  0
  6  2  1  0  0  0  0
  7  1  1  0  0  0  0
  7 12  2  0  0  0  0
  8  3  1  6  0  0  0
  8 21  1  0  0  0  0
  9 12  1  0  0  0  0
 10  5  1  0  0  0  0
 10 11  2  0  0  0  0
 11  7  1  0  0  0  0
 12  3  1  0  0  0  0
 13 17  2  0  0  0  0
 13 18  1  0  0  0  0
 14 15  1  0  0  0  0
 16 15  2  0  0  0  0
 17 16  1  0  0  0  0
 18 14  2  0  0  0  0
 19 20  1  0  0  0  0
 21 19  1  0  0  0  0
 21 20  1  0  0  0  0
 22 23  2  0  0  0  0
 25 27  1  0  0  0  0
 25 26  1  0  0  0  0
 26 24  1  0  0  0  0
 27 23  1  6  0  0  0
 27 26  1  0  0  0  0
M  END
>  <MODEL>
1

>  <REMARK>
 VINA RESULT:      -5.8      0.000      0.000
  Name = 
  4 active torsions:
  status: ('A' for Active; 'I' for Inactive)
    1  A    between atoms: C_2  and  C_6
    2  A    between atoms: C_9  and  C_15
    3  A    between atoms: N_14  and  C_19
    4  A    between atoms: C_17  and  C_21
                            x       y       z     vdW  Elec       q    Type
                         _______ _______ _______ _____ _____    ______ ____

>  <TORSDO>
F 4

$$$$
=
 OpenBabel11052423193D

 27 31  0  0  1  0  0  0  0  0999 V2000
  161.5510  205.2410  151.5330 N   0  0  0  0  0  2  0  0  0  0  0  0
  161.1680  205.9690  149.1890 C   0  0  2  0  0  3  0  0  0  0  0  0
  160.1880  207.7340  150.7580 C   0  0  0  0  0  2  0  0  0  0  0  0
  160.1570  208.4690  154.2790 C   0  0  0  0  0  3  0  0  0  0  0  0
  160.5810  207.5700  155.1620 C   0  0  0  0  0  3  0  0  0  0  0  0
  160.7640  205.0100  150.3260 C   0  0  1  0  0  3  0  0  0  0  0  0
  161.4330  206.3450  152.4450 C   0  0  0  0  0  0  0  0  0  0  0  0
  161.1350  207.4500  149.5830 C   0  0  1  0  0  3  0  0  0  0  0  0
  160.8650  208.7090  152.9870 C   0  0  0  0  0  2  0  0  0  0  0  0
  161.7200  206.6630  154.9360 C   0  0  0  0  0  3  0  0  0  0  0  0
  162.0910  206.1460  153.7570 C   0  0  0  0  0  3  0  0  0  0  0  0
  160.8210  207.5050  152.1010 C   0  0  0  0  0  0  0  0  0  0  0  0
  161.1000  201.8660  148.2180 C   0  0  0  0  0  3  0  0  0  0  0  0
  160.9020  203.5740  149.9130 C   0  0  0  0  0  0  0  0  0  0  0  0
  160.9210  202.5790  150.8920 C   0  0  0  0  0  3  0  0  0  0  0  0
  161.0320  201.2410  150.5070 C   0  0  0  0  0  3  0  0  0  0  0  0
  161.1190  200.9150  149.1900 N   0  0  0  0  0  0  0  0  0  0  0  0
  160.9920  203.2160  148.5620 C   0  0  0  0  0  3  0  0  0  0  0  0
  162.9870  208.4770  148.5400 C   0  0  0  0  0  2  0  0  0  0  0  0
  162.4610  209.4010  149.5320 C   0  0  0  0  0  2  0  0  0  0  0  0
  162.4830  207.9580  149.8220 N   0  0  0  0  0  0  0  0  0  0  0  0
  160.2720  205.7860  147.9960 C   0  0  0  0  0  3  0  0  0  0  0  0
  160.7300  205.7870  146.7390 C   0  0  0  0  0  3  0  0  0  0  0  0
  161.4390  205.3320  144.1310 C   0  0  0  0  0  1  0  0  0  0  0  0
  162.7740  204.7220  145.9610 C   0  0  0  0  0  2  0  0  0  0  0  0
  162.5450  205.7850  144.9700 N   0  0  0  0  0  0  0  0  0  0  0  0
  162.1890  205.9800  146.4030 C   0  0  1  0  0  3  0  0  0  0  0  0
  1  7  1  0  0  0  0
  2 22  1  6  0  0  0
  2  8  1  0  0  0  0
  2  6  1  0  0  0  0
  3 12  1  0  0  0  0
  4  5  2  0  0  0  0
  6 14  1  6  0  0  0
  6  1  1  0  0  0  0
  7 11  1  0  0  0  0
  8 21  1  1  0  0  0
  8  3  1  0  0  0  0
  9  4  1  0  0  0  0
 10  5  1  0  0  0  0
 11 10  2  0  0  0  0
 12  7  2  0  0  0  0
 12  9  1  0  0  0  0
 13 18  2  0  0  0  0
 13 17  1  0  0  0  0
 14 15  2  0  0  0  0
 16 15  1  0  0  0  0
 17 16  2  0  0  0  0
 18 14  1  0  0  0  0
 19 20  1  0  0  0  0
 19 21  1  0  0  0  0
 20 21  1  0  0  0  0
 23 22  2  0  0  0  0
 24 26  1  0  0  0  0
 25 27  1  0  0  0  0
 26 25  1  0  0  0  0
 26 27  1  0  0  0  0
 27 23  1  6  0  0  0
M  END
>  <MODEL>
2

>  <REMARK>
 VINA RESULT:      -5.3      4.363      9.272
  Name = 
  4 active torsions:
  status: ('A' for Active; 'I' for Inactive)
    1  A    between atoms: C_2  and  C_6
    2  A    between atoms: C_9  and  C_15
    3  A    between atoms: N_14  and  C_19
    4  A    between atoms: C_17  and  C_21
                            x       y       z     vdW  Elec       q    Type
                         _______ _______ _______ _____ _____    ______ ____

>  <TORSDO>
F 4

$$$$
=
 OpenBabel11052423193D

 27 31  0  0  1  0  0  0  0  0999 V2000
  160.6740  208.0180  152.5010 N   0  0  0  0  0  2  0  0  0  0  0  0
  160.9280  210.2390  153.5850 C   0  0  2  0  0  3  0  0  0  0  0  0
  162.3280  210.2150  151.4450 C   0  0  0  0  0  2  0  0  0  0  0  0
  162.8310  208.0780  148.5960 C   0  0  0  0  0  3  0  0  0  0  0  0
  162.3620  206.8340  148.5920 C   0  0  0  0  0  3  0  0  0  0  0  0
  161.2890  208.7410  153.6100 C   0  0  1  0  0  3  0  0  0  0  0  0
  161.0570  208.0690  151.1170 C   0  0  0  0  0  0  0  0  0  0  0  0
  161.2330  210.9300  152.2510 C   0  0  1  0  0  3  0  0  0  0  0  0
  162.0420  209.2210  149.1410 C   0  0  0  0  0  2  0  0  0  0  0  0
  161.0770  206.4320  149.1920 C   0  0  0  0  0  3  0  0  0  0  0  0
  160.5120  206.9780  150.2770 C   0  0  0  0  0  3  0  0  0  0  0  0
  161.8060  209.0800  150.6100 C   0  0  0  0  0  0  0  0  0  0  0  0
  161.3430  207.4640  157.1880 C   0  0  0  0  0  3  0  0  0  0  0  0
  160.8860  208.0970  154.9040 C   0  0  0  0  0  0  0  0  0  0  0  0
  159.6380  207.4790  155.0020 C   0  0  0  0  0  3  0  0  0  0  0  0
  159.2690  206.8650  156.2010 C   0  0  0  0  0  3  0  0  0  0  0  0
  160.1220  206.8700  157.2600 N   0  0  0  0  0  0  0  0  0  0  0  0
  161.7490  208.0900  156.0080 C   0  0  0  0  0  3  0  0  0  0  0  0
  159.0530  211.8320  152.3410 C   0  0  0  0  0  2  0  0  0  0  0  0
  159.8090  212.5830  151.3520 C   0  0  0  0  0  2  0  0  0  0  0  0
  160.0130  211.1300  151.4730 N   0  0  0  0  0  0  0  0  0  0  0  0
  161.6580  210.9800  154.6690 C   0  0  0  0  0  3  0  0  0  0  0  0
  161.0380  211.5060  155.7320 C   0  0  0  0  0  3  0  0  0  0  0  0
  159.7140  213.8740  156.1180 C   0  0  0  0  0  1  0  0  0  0  0  0
  159.1860  211.8950  157.2600 C   0  0  0  0  0  2  0  0  0  0  0  0
  158.8350  212.7090  156.0850 N   0  0  0  0  0  0  0  0  0  0  0  0
  159.5450  211.4080  155.9350 C   0  0  1  0  0  3  0  0  0  0  0  0
  1  6  1  0  0  0  0
  2  6  1  0  0  0  0
  2 22  1  1  0  0  0
  4  9  1  0  0  0  0
  5  4  2  0  0  0  0
  5 10  1  0  0  0  0
  6 14  1  1  0  0  0
  7  1  1  0  0  0  0
  8  3  1  6  0  0  0
  8  2  1  0  0  0  0
  9 12  1  0  0  0  0
 10 11  2  0  0  0  0
 11  7  1  0  0  0  0
 12  7  2  0  0  0  0
 12  3  1  0  0  0  0
 13 17  1  0  0  0  0
 14 15  2  0  0  0  0
 14 18  1  0  0  0  0
 15 16  1  0  0  0  0
 16 17  2  0  0  0  0
 18 13  2  0  0  0  0
 20 21  1  0  0  0  0
 20 19  1  0  0  0  0
 21  8  1  0  0  0  0
 21 19  1  0  0  0  0
 22 23  2  0  0  0  0
 26 24  1  0  0  0  0
 26 25  1  0  0  0  0
 27 23  1  1  0  0  0
 27 26  1  0  0  0  0
 27 25  1  0  0  0  0
M  END
>  <MODEL>
3

>  <REMARK>
 VINA RESULT:      -4.7      1.791      4.642
  Name = 
  4 active torsions:
  status: ('A' for Active; 'I' for Inactive)
    1  A    between atoms: C_2  and  C_6
    2  A    between atoms: C_9  and  C_15
    3  A    between atoms: N_14  and  C_19
    4  A    between atoms: C_17  and  C_21
                            x       y       z     vdW  Elec       q    Type
                         _______ _______ _______ _____ _____    ______ ____

>  <TORSDO>
F 4

$$$$
=
 OpenBabel11052423193D

 27 31  0  0  1  0  0  0  0  0999 V2000
  160.7270  204.8290  149.9750 N   0  0  0  0  0  2  0  0  0  0  0  0
  161.7650  206.7410  148.7760 C   0  0  2  0  0  3  0  0  0  0  0  0
  162.4470  204.5770  147.5980 C   0  0  0  0  0  2  0  0  0  0  0  0
  161.6240  201.0780  147.7310 C   0  0  0  0  0  3  0  0  0  0  0  0
  160.9120  200.5890  148.7420 C   0  0  0  0  0  3  0  0  0  0  0  0
  161.7780  205.8400  150.0260 C   0  0  1  0  0  3  0  0  0  0  0  0
  160.6960  203.6540  149.1480 C   0  0  0  0  0  0  0  0  0  0  0  0
  161.8180  205.9710  147.4520 C   0  0  1  0  0  3  0  0  0  0  0  0
  161.2990  202.3860  147.0910 C   0  0  0  0  0  2  0  0  0  0  0  0
  159.7990  201.3030  149.3920 C   0  0  0  0  0  3  0  0  0  0  0  0
  159.7060  202.6300  149.5540 C   0  0  0  0  0  3  0  0  0  0  0  0
  161.4710  203.5260  148.0430 C   0  0  0  0  0  0  0  0  0  0  0  0
  161.9560  206.9290  153.6620 C   0  0  0  0  0  3  0  0  0  0  0  0
  161.6330  206.6400  151.2860 C   0  0  0  0  0  0  0  0  0  0  0  0
  160.9790  207.8730  151.2440 C   0  0  0  0  0  3  0  0  0  0  0  0
  160.8300  208.6100  152.4200 C   0  0  0  0  0  3  0  0  0  0  0  0
  161.3170  208.1270  153.5950 N   0  0  0  0  0  0  0  0  0  0  0  0
  162.1270  206.1620  152.5080 C   0  0  0  0  0  3  0  0  0  0  0  0
  160.4790  206.9550  145.7760 C   0  0  0  0  0  2  0  0  0  0  0  0
  160.7090  205.5660  145.4090 C   0  0  0  0  0  2  0  0  0  0  0  0
  160.5010  205.9200  146.8230 N   0  0  0  0  0  0  0  0  0  0  0  0
  162.9210  207.7010  148.8010 C   0  0  0  0  0  3  0  0  0  0  0  0
  162.7720  209.0200  148.6350 C   0  0  0  0  0  3  0  0  0  0  0  0
  162.8110  211.6560  147.8860 C   0  0  0  0  0  1  0  0  0  0  0  0
  161.2180  210.7500  149.3500 C   0  0  0  0  0  2  0  0  0  0  0  0
  161.4700  211.0810  147.9390 N   0  0  0  0  0  0  0  0  0  0  0  0
  161.4270  209.6650  148.4010 C   0  0  1  0  0  3  0  0  0  0  0  0
  1  6  1  0  0  0  0
  2 22  1  1  0  0  0
  2  6  1  0  0  0  0
  3 12  1  0  0  0  0
  4  5  2  0  0  0  0
  5 10  1  0  0  0  0
  6 14  1  1  0  0  0
  7 11  1  0  0  0  0
  7  1  1  0  0  0  0
  8 21  1  1  0  0  0
  8  3  1  0  0  0  0
  8  2  1  0  0  0  0
  9  4  1  0  0  0  0
  9 12  1  0  0  0  0
 10 11  2  0  0  0  0
 12  7  2  0  0  0  0
 14 18  1  0  0  0  0
 15 14  2  0  0  0  0
 15 16  1  0  0  0  0
 16 17  2  0  0  0  0
 17 13  1  0  0  0  0
 18 13  2  0  0  0  0
 19 21  1  0  0  0  0
 20 19  1  0  0  0  0
 20 21  1  0  0  0  0
 23 22  2  0  0  0  0
 24 26  1  0  0  0  0
 26 27  1  0  0  0  0
 26 25  1  0  0  0  0
 27 23  1  1  0  0  0
 27 25  1  0  0  0  0
M  END
>  <MODEL>
4

>  <REMARK>
 VINA RESULT:      -3.9      4.282      8.076
  Name = 
  4 active torsions:
  status: ('A' for Active; 'I' for Inactive)
    1  A    between atoms: C_2  and  C_6
    2  A    between atoms: C_9  and  C_15
    3  A    between atoms: N_14  and  C_19
    4  A    between atoms: C_17  and  C_21
                            x       y       z     vdW  Elec       q    Type
                         _______ _______ _______ _____ _____    ______ ____

>  <TORSDO>
F 4

$$$$
=
 OpenBabel11052423193D

 27 31  0  0  1  0  0  0  0  0999 V2000
  161.2270  209.4780  148.1300 N   0  0  0  0  0  2  0  0  0  0  0  0
  161.8930  208.5730  150.3450 C   0  0  2  0  0  3  0  0  0  0  0  0
  162.8720  210.9230  150.1000 C   0  0  0  0  0  2  0  0  0  0  0  0
  162.6330  213.7010  147.8290 C   0  0  0  0  0  3  0  0  0  0  0  0
  162.0500  213.5570  146.6420 C   0  0  0  0  0  3  0  0  0  0  0  0
  162.1010  208.5340  148.8190 C   0  0  1  0  0  3  0  0  0  0  0  0
  161.3550  210.9080  148.0940 C   0  0  0  0  0  0  0  0  0  0  0  0
  162.0190  209.9730  150.9550 C   0  0  1  0  0  3  0  0  0  0  0  0
  162.0750  213.0850  149.0680 C   0  0  0  0  0  2  0  0  0  0  0  0
  160.8620  212.7190  146.4010 C   0  0  0  0  0  3  0  0  0  0  0  0
  160.5610  211.5810  147.0400 C   0  0  0  0  0  3  0  0  0  0  0  0
  162.0970  211.5910  149.0010 C   0  0  0  0  0  0  0  0  0  0  0  0
  160.6920  205.0550  148.2290 C   0  0  0  0  0  3  0  0  0  0  0  0
  161.8780  207.1580  148.2650 C   0  0  0  0  0  0  0  0  0  0  0  0
  162.7150  206.6820  147.2540 C   0  0  0  0  0  3  0  0  0  0  0  0
  162.5170  205.3950  146.7500 C   0  0  0  0  0  3  0  0  0  0  0  0
  161.5180  204.6150  147.2440 N   0  0  0  0  0  0  0  0  0  0  0  0
  160.8560  206.3370  148.7590 C   0  0  0  0  0  3  0  0  0  0  0  0
  160.2320  209.8870  152.4950 C   0  0  0  0  0  2  0  0  0  0  0  0
  160.8130  211.2190  152.5570 C   0  0  0  0  0  2  0  0  0  0  0  0
  160.7040  210.5320  151.2590 N   0  0  0  0  0  0  0  0  0  0  0  0
  162.8780  207.6750  151.0390 C   0  0  0  0  0  3  0  0  0  0  0  0
  162.5040  206.6510  151.8150 C   0  0  0  0  0  3  0  0  0  0  0  0
  161.6260  206.9610  154.3920 C   0  0  0  0  0  1  0  0  0  0  0  0
  160.9600  205.1930  153.0020 C   0  0  0  0  0  2  0  0  0  0  0  0
  160.5820  206.5380  153.4630 N   0  0  0  0  0  0  0  0  0  0  0  0
  161.0560  206.3080  152.0700 C   0  0  1  0  0  3  0  0  0  0  0  0
  1  6  1  0  0  0  0
  2  8  1  0  0  0  0
  2 22  1  1  0  0  0
  4  9  1  0  0  0  0
  5  4  2  0  0  0  0
  6 14  1  6  0  0  0
  6  2  1  0  0  0  0
  7  1  1  0  0  0  0
  7 12  2  0  0  0  0
  8  3  1  6  0  0  0
  8 21  1  0  0  0  0
 10  5  1  0  0  0  0
 10 11  2  0  0  0  0
 11  7  1  0  0  0  0
 12  9  1  0  0  0  0
 12  3  1  0  0  0  0
 13 18  1  0  0  0  0
 14 18  2  0  0  0  0
 15 14  1  0  0  0  0
 16 17  1  0  0  0  0
 16 15  2  0  0  0  0
 17 13  2  0  0  0  0
 19 20  1  0  0  0  0
 21 19  1  0  0  0  0
 21 20  1  0  0  0  0
 22 23  2  0  0  0  0
 25 26  1  0  0  0  0
 26 24  1  0  0  0  0
 27 23  1  1  0  0  0
 27 25  1  0  0  0  0
 27 26  1  0  0  0  0
M  END
>  <MODEL>
5

>  <REMARK>
 VINA RESULT:      -3.8      3.676      7.662
  Name = 
  4 active torsions:
  status: ('A' for Active; 'I' for Inactive)
    1  A    between atoms: C_2  and  C_6
    2  A    between atoms: C_9  and  C_15
    3  A    between atoms: N_14  and  C_19
    4  A    between atoms: C_17  and  C_21
                            x       y       z     vdW  Elec       q    Type
                         _______ _______ _______ _____ _____    ______ ____

>  <TORSDO>
F 4

$$$$
=
 OpenBabel11052423193D

 27 31  0  0  1  0  0  0  0  0999 V2000
  160.8390  209.2340  151.8670 N   0  0  0  0  0  2  0  0  0  0  0  0
  161.6840  207.8800  149.9630 C   0  0  2  0  0  3  0  0  0  0  0  0
  162.4270  206.7690  152.1430 C   0  0  0  0  0  2  0  0  0  0  0  0
  161.8300  207.1260  155.6720 C   0  0  0  0  0  3  0  0  0  0  0  0
  161.2120  208.2020  156.1480 C   0  0  0  0  0  3  0  0  0  0  0  0
  161.8270  209.1690  150.7950 C   0  0  1  0  0  3  0  0  0  0  0  0
  160.8320  208.4700  153.0840 C   0  0  0  0  0  0  0  0  0  0  0  0
  161.7050  206.5950  150.7990 C   0  0  1  0  0  3  0  0  0  0  0  0
  161.3870  206.4440  154.4220 C   0  0  0  0  0  2  0  0  0  0  0  0
  160.0980  208.8850  155.4670 C   0  0  0  0  0  3  0  0  0  0  0  0
  159.9320  208.9870  154.1410 C   0  0  0  0  0  3  0  0  0  0  0  0
  161.5450  207.3250  153.2240 C   0  0  0  0  0  0  0  0  0  0  0  0
  162.1280  211.5940  147.8850 C   0  0  0  0  0  3  0  0  0  0  0  0
  161.7090  210.3950  149.9390 C   0  0  0  0  0  0  0  0  0  0  0  0
  161.0740  211.5290  150.4490 C   0  0  0  0  0  3  0  0  0  0  0  0
  160.9780  212.6760  149.6590 C   0  0  0  0  0  3  0  0  0  0  0  0
  161.5030  212.6850  148.4040 N   0  0  0  0  0  0  0  0  0  0  0  0
  162.2430  210.4270  148.6440 C   0  0  0  0  0  3  0  0  0  0  0  0
  160.1630  205.0500  149.8990 C   0  0  0  0  0  2  0  0  0  0  0  0
  160.5000  204.6160  151.2450 C   0  0  0  0  0  2  0  0  0  0  0  0
  160.3580  206.0530  150.9590 N   0  0  0  0  0  0  0  0  0  0  0  0
  162.7780  207.7840  148.9380 C   0  0  0  0  0  3  0  0  0  0  0  0
  162.6480  207.0900  147.8020 C   0  0  0  0  0  3  0  0  0  0  0  0
  162.9860  204.8280  146.2910 C   0  0  0  0  0  1  0  0  0  0  0  0
  161.1990  206.3200  146.0060 C   0  0  0  0  0  2  0  0  0  0  0  0
  161.5990  205.0740  146.6780 N   0  0  0  0  0  0  0  0  0  0  0  0
  161.3910  206.3310  147.4500 C   0  0  1  0  0  3  0  0  0  0  0  0
  1  7  1  0  0  0  0
  2 22  1  6  0  0  0
  2  6  1  0  0  0  0
  2  8  1  0  0  0  0
  3 12  1  0  0  0  0
  4  5  2  0  0  0  0
  6 14  1  6  0  0  0
  6  1  1  0  0  0  0
  7 12  2  0  0  0  0
  7 11  1  0  0  0  0
  8 21  1  1  0  0  0
  8  3  1  0  0  0  0
  9  4  1  0  0  0  0
 10  5  1  0  0  0  0
 11 10  2  0  0  0  0
 12  9  1  0  0  0  0
 13 17  2  0  0  0  0
 13 18  1  0  0  0  0
 14 15  1  0  0  0  0
 16 15  2  0  0  0  0
 17 16  1  0  0  0  0
 18 14  2  0  0  0  0
 19 21  1  0  0  0  0
 19 20  1  0  0  0  0
 21 20  1  0  0  0  0
 23 22  2  0  0  0  0
 24 26  1  0  0  0  0
 25 26  1  0  0  0  0
 25 27  1  0  0  0  0
 26 27  1  0  0  0  0
 27 23  1  6  0  0  0
M  END
>  <MODEL>
6

>  <REMARK>
 VINA RESULT:      -3.7      3.287      7.282
  Name = 
  4 active torsions:
  status: ('A' for Active; 'I' for Inactive)
    1  A    between atoms: C_2  and  C_6
    2  A    between atoms: C_9  and  C_15
    3  A    between atoms: N_14  and  C_19
    4  A    between atoms: C_17  and  C_21
                            x       y       z     vdW  Elec       q    Type
                         _______ _______ _______ _____ _____    ______ ____

>  <TORSDO>
F 4

$$$$
=
 OpenBabel11052423193D

 27 31  0  0  1  0  0  0  0  0999 V2000
  160.2610  209.9070  152.8510 N   0  0  0  0  0  2  0  0  0  0  0  0
  161.1450  207.6280  153.2930 C   0  0  2  0  0  3  0  0  0  0  0  0
  161.5530  209.0730  155.3630 C   0  0  0  0  0  2  0  0  0  0  0  0
  160.6540  212.3400  156.5700 C   0  0  0  0  0  3  0  0  0  0  0  0
  160.1050  213.2350  155.7540 C   0  0  0  0  0  3  0  0  0  0  0  0
  161.3370  208.9670  152.5550 C   0  0  1  0  0  3  0  0  0  0  0  0
  160.0560  210.6310  154.0750 C   0  0  0  0  0  0  0  0  0  0  0  0
  160.9520  207.7740  154.8070 C   0  0  1  0  0  3  0  0  0  0  0  0
  160.2680  210.8990  156.5420 C   0  0  0  0  0  2  0  0  0  0  0  0
  159.1390  212.9040  154.6920 C   0  0  0  0  0  3  0  0  0  0  0  0
  159.1150  211.7710  153.9780 C   0  0  0  0  0  3  0  0  0  0  0  0
  160.6310  210.2530  155.2440 C   0  0  0  0  0  0  0  0  0  0  0  0
  161.0650  207.4550  149.0800 C   0  0  0  0  0  3  0  0  0  0  0  0
  161.4300  208.7720  151.0710 C   0  0  0  0  0  0  0  0  0  0  0  0
  162.0270  209.7600  150.2860 C   0  0  0  0  0  3  0  0  0  0  0  0
  162.1280  209.5710  148.9060 C   0  0  0  0  0  3  0  0  0  0  0  0
  161.6490  208.4320  148.3360 N   0  0  0  0  0  0  0  0  0  0  0  0
  160.9440  207.6060  150.4630 C   0  0  0  0  0  3  0  0  0  0  0  0
  159.3680  206.2150  155.6040 C   0  0  0  0  0  2  0  0  0  0  0  0
  159.5110  207.2620  156.6040 C   0  0  0  0  0  2  0  0  0  0  0  0
  159.5480  207.6110  155.1740 N   0  0  0  0  0  0  0  0  0  0  0  0
  162.3180  206.7190  153.0600 C   0  0  0  0  0  3  0  0  0  0  0  0
  162.1830  205.4250  152.7490 C   0  0  0  0  0  3  0  0  0  0  0  0
  162.1940  202.8870  151.7140 C   0  0  0  0  0  1  0  0  0  0  0  0
  160.5530  204.4840  151.2070 C   0  0  0  0  0  2  0  0  0  0  0  0
  160.8670  203.3570  152.1000 N   0  0  0  0  0  0  0  0  0  0  0  0
  160.8360  204.7570  152.6090 C   0  0  1  0  0  3  0  0  0  0  0  0
  1  7  1  0  0  0  0
  2 22  1  1  0  0  0
  2  8  1  0  0  0  0
  5  4  2  0  0  0  0
  6 14  1  6  0  0  0
  6  1  1  0  0  0  0
  6  2  1  0  0  0  0
  7 12  2  0  0  0  0
  8 21  1  6  0  0  0
  8  3  1  0  0  0  0
  9  4  1  0  0  0  0
 10  5  1  0  0  0  0
 11  7  1  0  0  0  0
 11 10  2  0  0  0  0
 12  3  1  0  0  0  0
 12  9  1  0  0  0  0
 13 18  1  0  0  0  0
 15 14  1  0  0  0  0
 16 15  2  0  0  0  0
 17 16  1  0  0  0  0
 17 13  2  0  0  0  0
 18 14  2  0  0  0  0
 19 20  1  0  0  0  0
 21 19  1  0  0  0  0
 21 20  1  0  0  0  0
 23 22  2  0  0  0  0
 24 26  1  0  0  0  0
 25 26  1  0  0  0  0
 25 27  1  0  0  0  0
 26 27  1  0  0  0  0
 27 23  1  6  0  0  0
M  END
>  <MODEL>
7

>  <REMARK>
 VINA RESULT:      -3.7      2.196      6.732
  Name = 
  4 active torsions:
  status: ('A' for Active; 'I' for Inactive)
    1  A    between atoms: C_2  and  C_6
    2  A    between atoms: C_9  and  C_15
    3  A    between atoms: N_14  and  C_19
    4  A    between atoms: C_17  and  C_21
                            x       y       z     vdW  Elec       q    Type
                         _______ _______ _______ _____ _____    ______ ____

>  <TORSDO>
F 4

$$$$
=
 OpenBabel11052423193D

 27 31  0  0  1  0  0  0  0  0999 V2000
  160.7300  210.4210  152.4840 N   0  0  0  0  0  2  0  0  0  0  0  0
  160.4360  211.9140  154.4480 C   0  0  2  0  0  3  0  0  0  0  0  0
  160.1970  209.4910  155.2280 C   0  0  0  0  0  2  0  0  0  0  0  0
  160.6590  206.1860  153.8850 C   0  0  0  0  0  3  0  0  0  0  0  0
  160.8310  206.0040  152.5790 C   0  0  0  0  0  3  0  0  0  0  0  0
  159.8260  211.3550  153.1480 C   0  0  1  0  0  3  0  0  0  0  0  0
  161.0420  209.0800  152.8950 C   0  0  0  0  0  0  0  0  0  0  0  0
  160.9140  210.8350  155.4260 C   0  0  1  0  0  3  0  0  0  0  0  0
  161.3110  207.3070  154.6230 C   0  0  0  0  0  2  0  0  0  0  0  0
  161.5950  206.9170  151.7100 C   0  0  0  0  0  3  0  0  0  0  0  0
  161.6920  208.2440  151.8590 C   0  0  0  0  0  3  0  0  0  0  0  0
  160.8160  208.6380  154.1570 C   0  0  0  0  0  0  0  0  0  0  0  0
  157.8330  213.8980  151.1490 C   0  0  0  0  0  3  0  0  0  0  0  0
  159.4610  212.4530  152.1930 C   0  0  0  0  0  0  0  0  0  0  0  0
  160.4560  213.0370  151.4070 C   0  0  0  0  0  3  0  0  0  0  0  0
  160.1130  214.0470  150.5060 C   0  0  0  0  0  3  0  0  0  0  0  0
  158.8200  214.4530  150.3960 N   0  0  0  0  0  0  0  0  0  0  0  0
  158.1350  212.8860  152.0630 C   0  0  0  0  0  3  0  0  0  0  0  0
  162.9070  211.4530  156.5290 C   0  0  0  0  0  2  0  0  0  0  0  0
  162.7720  210.0080  156.6220 C   0  0  0  0  0  2  0  0  0  0  0  0
  162.3680  210.6980  155.3860 N   0  0  0  0  0  0  0  0  0  0  0  0
  159.4470  212.7870  155.1680 C   0  0  0  0  0  3  0  0  0  0  0  0
  158.1970  212.3950  155.4380 C   0  0  0  0  0  3  0  0  0  0  0  0
  155.5800  212.3200  154.6250 C   0  0  0  0  0  1  0  0  0  0  0  0
  156.5790  210.6450  155.9280 C   0  0  0  0  0  2  0  0  0  0  0  0
  156.2570  211.0290  154.5440 N   0  0  0  0  0  0  0  0  0  0  0  0
  157.6630  211.0410  155.0390 C   0  0  1  0  0  3  0  0  0  0  0  0
  1  7  1  0  0  0  0
  1  6  1  0  0  0  0
  2 22  1  1  0  0  0
  2  8  1  0  0  0  0
  4  9  1  0  0  0  0
  5  4  2  0  0  0  0
  6 14  1  6  0  0  0
  6  2  1  0  0  0  0
  7 12  2  0  0  0  0
  8  3  1  6  0  0  0
 10 11  2  0  0  0  0
 10  5  1  0  0  0  0
 11  7  1  0  0  0  0
 12  9  1  0  0  0  0
 12  3  1  0  0  0  0
 13 18  1  0  0  0  0
 15 14  1  0  0  0  0
 16 15  2  0  0  0  0
 17 16  1  0  0  0  0
 17 13  2  0  0  0  0
 18 14  2  0  0  0  0
 19 20  1  0  0  0  0
 21  8  1  0  0  0  0
 21 19  1  0  0  0  0
 21 20  1  0  0  0  0
 22 23  2  0  0  0  0
 26 24  1  0  0  0  0
 26 27  1  0  0  0  0
 26 25  1  0  0  0  0
 27 23  1  1  0  0  0
 27 25  1  0  0  0  0
M  END
>  <MODEL>
8

>  <REMARK>
 VINA RESULT:      -3.6      1.597      2.350
  Name = 
  4 active torsions:
  status: ('A' for Active; 'I' for Inactive)
    1  A    between atoms: C_2  and  C_6
    2  A    between atoms: C_9  and  C_15
    3  A    between atoms: N_14  and  C_19
    4  A    between atoms: C_17  and  C_21
                            x       y       z     vdW  Elec       q    Type
                         _______ _______ _______ _____ _____    ______ ____

>  <TORSDO>
F 4

$$$$
=
 OpenBabel11052423193D

 27 31  0  0  1  0  0  0  0  0999 V2000
  162.4420  208.2890  148.5850 N   0  0  0  0  0  2  0  0  0  0  0  0
  161.5680  208.9650  150.8100 C   0  0  2  0  0  3  0  0  0  0  0  0
  160.4550  206.7640  150.1360 C   0  0  0  0  0  2  0  0  0  0  0  0
  160.7710  204.2830  147.5510 C   0  0  0  0  0  3  0  0  0  0  0  0
  161.5100  204.5210  146.4720 C   0  0  0  0  0  3  0  0  0  0  0  0
  161.5600  209.2140  149.2900 C   0  0  1  0  0  3  0  0  0  0  0  0
  162.2120  206.8910  148.3410 C   0  0  0  0  0  0  0  0  0  0  0  0
  161.2600  207.5160  151.2060 C   0  0  1  0  0  3  0  0  0  0  0  0
  161.2110  204.6850  148.9190 C   0  0  0  0  0  2  0  0  0  0  0  0
  162.7790  205.2700  146.4870 C   0  0  0  0  0  3  0  0  0  0  0  0
  163.0810  206.2860  147.3050 C   0  0  0  0  0  3  0  0  0  0  0  0
  161.3110  206.1710  149.0540 C   0  0  0  0  0  0  0  0  0  0  0  0
  161.5570  213.0030  149.0100 C   0  0  0  0  0  3  0  0  0  0  0  0
  161.9550  210.6230  148.9580 C   0  0  0  0  0  0  0  0  0  0  0  0
  163.1210  210.8530  148.2250 C   0  0  0  0  0  3  0  0  0  0  0  0
  163.4800  212.1630  147.9020 C   0  0  0  0  0  3  0  0  0  0  0  0
  162.6980  213.2020  148.2980 N   0  0  0  0  0  0  0  0  0  0  0  0
  161.1630  211.7090  149.3550 C   0  0  0  0  0  3  0  0  0  0  0  0
  162.3850  206.5080  153.0200 C   0  0  0  0  0  2  0  0  0  0  0  0
  162.0770  205.4700  152.0490 C   0  0  0  0  0  2  0  0  0  0  0  0
  162.4800  206.8060  151.5820 N   0  0  0  0  0  0  0  0  0  0  0  0
  160.5730  209.8550  151.5000 C   0  0  0  0  0  3  0  0  0  0  0  0
  160.7270  210.2740  152.7610 C   0  0  0  0  0  3  0  0  0  0  0  0
  160.1550  209.2700  155.2470 C   0  0  0  0  0  1  0  0  0  0  0  0
  161.9610  210.7030  154.8140 C   0  0  0  0  0  2  0  0  0  0  0  0
  161.5810  209.2870  154.9340 N   0  0  0  0  0  0  0  0  0  0  0  0
  161.9130  209.8840  153.6100 C   0  0  1  0  0  3  0  0  0  0  0  0
  1  6  1  0  0  0  0
  2  8  1  0  0  0  0
  2 22  1  1  0  0  0
  4  9  1  0  0  0  0
  5 10  1  0  0  0  0
  5  4  2  0  0  0  0
  6 14  1  1  0  0  0
  6  2  1  0  0  0  0
  7  1  1  0  0  0  0
  7 12  2  0  0  0  0
  8  3  1  6  0  0  0
  8 21  1  0  0  0  0
  9 12  1  0  0  0  0
 10 11  2  0  0  0  0
 11  7  1  0  0  0  0
 12  3  1  0  0  0  0
 13 18  1  0  0  0  0
 14 18  2  0  0  0  0
 15 14  1  0  0  0  0
 16 15  2  0  0  0  0
 16 17  1  0  0  0  0
 17 13  2  0  0  0  0
 20 19  1  0  0  0  0
 21 20  1  0  0  0  0
 21 19  1  0  0  0  0
 22 23  2  0  0  0  0
 25 26  1  0  0  0  0
 26 24  1  0  0  0  0
 27 23  1  6  0  0  0
 27 25  1  0  0  0  0
 27 26  1  0  0  0  0
M  END
>  <MODEL>
9

>  <REMARK>
 VINA RESULT:      -3.3      3.249      5.305
  Name = 
  4 active torsions:
  status: ('A' for Active; 'I' for Inactive)
    1  A    between atoms: C_2  and  C_6
    2  A    between atoms: C_9  and  C_15
    3  A    between atoms: N_14  and  C_19
    4  A    between atoms: C_17  and  C_21
                            x       y       z     vdW  Elec       q    Type
                         _______ _______ _______ _____ _____    ______ ____

>  <TORSDO>
F 4

$$$$
