=
 OpenBabel11062409423D

 34 39  0  0  1  0  0  0  0  0999 V2000
  161.1030  212.5400  148.7180 C   0  0  0  0  0  0  0  0  0  0  0  0
  158.3660  213.8920  150.7450 C   0  0  0  0  0  2  0  0  0  0  0  0
  158.6380  213.8900  148.2170 O   0  0  0  0  0  0  0  0  0  0  0  0
  161.1890  212.6630  146.1620 C   0  0  0  0  0  3  0  0  0  0  0  0
  160.2960  213.1960  145.2810 N   0  0  0  0  0  0  0  0  0  0  0  0
  159.4310  213.5270  147.2140 C   0  0  0  0  0  0  0  0  0  0  0  0
  160.6780  212.8490  147.4250 C   0  0  0  0  0  0  0  0  0  0  0  0
  159.2390  213.7150  145.9050 N   0  0  0  0  0  0  0  0  0  0  0  0
  159.2840  213.3750  151.7900 N   0  0  2  0  0  0  0  0  0  0  0  0
  159.0430  213.6010  149.4580 C   0  0  0  0  0  0  0  0  0  0  0  0
  160.3500  212.8200  151.0920 O   0  0  0  0  0  0  0  0  0  0  0  0
  160.2220  212.9560  149.7320 C   0  0  0  0  0  0  0  0  0  0  0  0
  158.0240  212.7360  153.8030 C   0  0  2  0  0  0  0  0  0  0  0  0
  156.9460  211.9920  154.2780 O   0  0  0  0  0  1  0  0  0  0  0  0
  158.2000  214.4530  154.3830 S   0  0  0  0  0  1  0  0  0  0  0  0
  158.5960  212.2830  152.4690 C   0  0  2  0  0  3  0  0  0  0  0  0
  159.3120  211.9540  153.7780 C   0  0  0  0  0  2  0  0  0  0  0  0
  162.4050  211.8680  149.0060 C   0  0  0  0  0  2  0  0  0  0  0  0
  162.1740  210.4670  149.4550 C   0  0  0  0  0  0  0  0  0  0  0  0
  162.1230  210.2130  150.6880 O   0  0  0  0  0  0  0  0  0  0  0  0
  161.9780  209.4410  148.4740 N   0  0  0  0  0  2  0  0  0  0  0  0
  160.9250  206.3490  150.2710 C   0  0  0  0  0  3  0  0  0  0  0  0
  161.8900  207.0720  147.7430 C   0  0  0  0  0  3  0  0  0  0  0  0
  161.0300  203.0460  148.5970 C   0  0  0  0  0  0  0  0  0  0  0  0
  160.8350  204.0300  149.5760 C   0  0  0  0  0  3  0  0  0  0  0  0
  161.1190  205.3690  149.2960 C   0  0  0  0  0  0  0  0  0  0  0  0
  161.8010  204.7540  147.0450 C   0  0  0  0  0  3  0  0  0  0  0  0
  161.6060  205.7330  148.0210 C   0  0  0  0  0  0  0  0  0  0  0  0
  161.5130  203.4160  147.3330 C   0  0  0  0  0  3  0  0  0  0  0  0
  161.6940  208.0580  148.7220 C   0  0  0  0  0  0  0  0  0  0  0  0
  161.2120  207.6880  149.9830 C   0  0  0  0  0  3  0  0  0  0  0  0
  160.7270  201.6370  148.8980 C   0  0  0  0  0  0  0  0  0  0  0  0
  159.7140  201.3340  149.5840 O   0  0  0  0  0  1  0  0  0  0  0  0
  161.5580  200.6270  148.4270 O   0  0  0  0  0  0  0  0  0  0  0  0
  1 18  1  0  0  0  0
  1 12  1  0  0  0  0
  3 10  1  0  0  0  0
  4  7  1  0  0  0  0
  5  8  1  0  0  0  0
  5  4  2  0  0  0  0
  6  7  1  0  0  0  0
  6  3  1  0  0  0  0
  7  1  2  0  0  0  0
  8  6  2  0  0  0  0
  9  2  1  6  0  0  0
  9 16  1  0  0  0  0
 10 12  2  0  0  0  0
 10  2  1  0  0  0  0
 11  9  1  0  0  0  0
 12 11  1  0  0  0  0
 13 14  1  1  0  0  0
 13 15  1  0  0  0  0
 16 17  1  1  0  0  0
 16 13  1  0  0  0  0
 17 13  1  0  0  0  0
 18 19  1  0  0  0  0
 19 20  2  0  0  0  0
 21 30  1  0  0  0  0
 21 19  1  0  0  0  0
 23 28  2  0  0  0  0
 23 30  1  0  0  0  0
 24 32  1  0  0  0  0
 24 25  2  0  0  0  0
 26 25  1  0  0  0  0
 26 22  2  0  0  0  0
 27 29  2  0  0  0  0
 27 28  1  0  0  0  0
 28 26  1  0  0  0  0
 29 24  1  0  0  0  0
 30 31  2  0  0  0  0
 31 22  1  0  0  0  0
 32 33  1  0  0  0  0
 34 32  2  0  0  0  0
M  END
>  <MODEL>
1

>  <REMARK>
 VINA RESULT:      -9.4      0.000      0.000
  Name = 
  5 active torsions:
  status: ('A' for Active; 'I' for Inactive)
    1  A    between atoms: C_1  and  C_9
    2  A    between atoms: C_7  and  C_11
    3  A    between atoms: C_8  and  C_9
    4  A    between atoms: N_18  and  C_30
    5  A    between atoms: N_23  and  C_25
                            x       y       z     vdW  Elec       q    Type
                         _______ _______ _______ _____ _____    ______ ____

>  <TORSDO>
F 5

$$$$
=
 OpenBabel11062409423D

 34 39  0  0  1  0  0  0  0  0999 V2000
  160.1110  212.0560  153.1380 C   0  0  0  0  0  0  0  0  0  0  0  0
  159.2790  213.3400  149.8080 C   0  0  0  0  0  2  0  0  0  0  0  0
  158.1360  213.7960  152.0330 O   0  0  0  0  0  0  0  0  0  0  0  0
  158.8040  212.6310  155.2640 C   0  0  0  0  0  3  0  0  0  0  0  0
  157.7160  213.4360  155.4310 N   0  0  0  0  0  0  0  0  0  0  0  0
  158.1540  213.5260  153.3340 C   0  0  0  0  0  0  0  0  0  0  0  0
  159.1290  212.6560  153.9270 C   0  0  0  0  0  0  0  0  0  0  0  0
  157.3220  213.9770  154.2790 N   0  0  0  0  0  0  0  0  0  0  0  0
  160.4380  212.4620  149.5100 N   0  0  2  0  0  0  0  0  0  0  0  0
  159.0720  213.2190  151.2720 C   0  0  0  0  0  0  0  0  0  0  0  0
  160.8300  211.9480  150.7400 O   0  0  0  0  0  0  0  0  0  0  0  0
  160.0320  212.3770  151.7720 C   0  0  0  0  0  0  0  0  0  0  0  0
  161.5860  213.3290  147.5150 C   0  0  2  0  0  0  0  0  0  0  0  0
  162.1830  214.4530  146.9470 O   0  0  0  0  0  1  0  0  0  0  0  0
  160.4070  212.3820  146.5000 S   0  0  0  0  0  1  0  0  0  0  0  0
  161.5180  213.3180  149.0330 C   0  0  2  0  0  3  0  0  0  0  0  0
  162.5580  212.4780  148.2930 C   0  0  0  0  0  2  0  0  0  0  0  0
  161.1300  211.1140  153.6870 C   0  0  0  0  0  2  0  0  0  0  0  0
  160.7890  209.7120  153.3190 C   0  0  0  0  0  0  0  0  0  0  0  0
  159.6830  209.2290  153.6800 O   0  0  0  0  0  0  0  0  0  0  0  0
  161.7110  208.9510  152.5280 N   0  0  0  0  0  2  0  0  0  0  0  0
  161.2830  205.2470  152.5300 C   0  0  0  0  0  3  0  0  0  0  0  0
  161.4140  207.3370  150.6680 C   0  0  0  0  0  3  0  0  0  0  0  0
  160.8840  203.3770  149.3580 C   0  0  0  0  0  0  0  0  0  0  0  0
  160.9960  203.6560  150.7270 C   0  0  0  0  0  3  0  0  0  0  0  0
  161.1720  204.9700  151.1660 C   0  0  0  0  0  0  0  0  0  0  0  0
  161.1270  205.7460  148.8630 C   0  0  0  0  0  3  0  0  0  0  0  0
  161.2380  206.0230  150.2270 C   0  0  0  0  0  0  0  0  0  0  0  0
  160.9500  204.4290  148.4310 C   0  0  0  0  0  3  0  0  0  0  0  0
  161.5250  207.6160  152.0390 C   0  0  0  0  0  0  0  0  0  0  0  0
  161.4600  206.5660  152.9620 C   0  0  0  0  0  3  0  0  0  0  0  0
  160.6980  201.9900  148.9010 C   0  0  0  0  0  0  0  0  0  0  0  0
  160.9370  201.6740  147.7040 O   0  0  0  0  0  0  0  0  0  0  0  0
  160.2560  201.0140  149.7870 O   0  0  0  0  0  1  0  0  0  0  0  0
  1 18  1  0  0  0  0
  1  7  2  0  0  0  0
  2 10  1  0  0  0  0
  3  6  1  0  0  0  0
  4  5  2  0  0  0  0
  6  7  1  0  0  0  0
  6  8  2  0  0  0  0
  7  4  1  0  0  0  0
  8  5  1  0  0  0  0
  9  2  1  1  0  0  0
  9 11  1  0  0  0  0
 10 12  2  0  0  0  0
 10  3  1  0  0  0  0
 11 12  1  0  0  0  0
 12  1  1  0  0  0  0
 13 15  1  6  0  0  0
 13 17  1  0  0  0  0
 13 16  1  0  0  0  0
 14 13  1  0  0  0  0
 16 17  1  1  0  0  0
 16  9  1  0  0  0  0
 19 20  2  0  0  0  0
 19 18  1  0  0  0  0
 21 19  1  0  0  0  0
 22 31  1  0  0  0  0
 23 30  1  0  0  0  0
 24 25  2  0  0  0  0
 25 26  1  0  0  0  0
 26 22  2  0  0  0  0
 27 28  1  0  0  0  0
 28 23  2  0  0  0  0
 28 26  1  0  0  0  0
 29 27  2  0  0  0  0
 29 24  1  0  0  0  0
 30 21  1  0  0  0  0
 30 31  2  0  0  0  0
 32 24  1  0  0  0  0
 32 34  1  0  0  0  0
 33 32  2  0  0  0  0
M  END
>  <MODEL>
2

>  <REMARK>
 VINA RESULT:      -9.0      2.493      4.915
  Name = 
  5 active torsions:
  status: ('A' for Active; 'I' for Inactive)
    1  A    between atoms: C_1  and  C_9
    2  A    between atoms: C_7  and  C_11
    3  A    between atoms: C_8  and  C_9
    4  A    between atoms: N_18  and  C_30
    5  A    between atoms: N_23  and  C_25
                            x       y       z     vdW  Elec       q    Type
                         _______ _______ _______ _____ _____    ______ ____

>  <TORSDO>
F 5

$$$$
=
 OpenBabel11062409423D

 34 39  0  0  1  0  0  0  0  0999 V2000
  161.1440  212.4610  149.1850 C   0  0  0  0  0  0  0  0  0  0  0  0
  158.6110  213.7070  151.5210 C   0  0  0  0  0  2  0  0  0  0  0  0
  158.8920  214.2090  149.0440 O   0  0  0  0  0  0  0  0  0  0  0  0
  161.2590  213.1150  146.7120 C   0  0  0  0  0  3  0  0  0  0  0  0
  160.4520  213.9410  145.9860 N   0  0  0  0  0  0  0  0  0  0  0  0
  159.6320  213.9650  147.9680 C   0  0  0  0  0  0  0  0  0  0  0  0
  160.7720  213.0940  147.9980 C   0  0  0  0  0  0  0  0  0  0  0  0
  159.4730  214.4530  146.7330 N   0  0  0  0  0  0  0  0  0  0  0  0
  159.4440  212.8580  152.4080 N   0  0  2  0  0  0  0  0  0  0  0  0
  159.2480  213.6090  150.1850 C   0  0  0  0  0  0  0  0  0  0  0  0
  160.4260  212.3260  151.5820 O   0  0  0  0  0  0  0  0  0  0  0  0
  160.3250  212.7660  150.2850 C   0  0  0  0  0  0  0  0  0  0  0  0
  158.0990  211.9810  154.2710 C   0  0  2  0  0  0  0  0  0  0  0  0
  156.9270  211.3060  154.6050 O   0  0  0  0  0  1  0  0  0  0  0  0
  158.5100  213.4930  155.1990 S   0  0  0  0  0  1  0  0  0  0  0  0
  158.6090  211.7510  152.8570 C   0  0  2  0  0  3  0  0  0  0  0  0
  159.2670  211.0540  154.0470 C   0  0  0  0  0  2  0  0  0  0  0  0
  162.3390  211.5720  149.2910 C   0  0  0  0  0  2  0  0  0  0  0  0
  161.9440  210.1500  149.0920 C   0  0  0  0  0  0  0  0  0  0  0  0
  161.5990  209.7580  147.9460 O   0  0  0  0  0  0  0  0  0  0  0  0
  162.0000  209.2460  150.2030 N   0  0  0  0  0  2  0  0  0  0  0  0
  161.0720  205.8430  151.4110 C   0  0  0  0  0  3  0  0  0  0  0  0
  161.7720  207.0890  149.0010 C   0  0  0  0  0  3  0  0  0  0  0  0
  160.9080  202.9750  149.0730 C   0  0  0  0  0  0  0  0  0  0  0  0
  160.8470  203.7270  150.2540 C   0  0  0  0  0  3  0  0  0  0  0  0
  161.1330  205.0940  150.2340 C   0  0  0  0  0  0  0  0  0  0  0  0
  161.5480  204.9730  147.8420 C   0  0  0  0  0  3  0  0  0  0  0  0
  161.4860  205.7220  149.0190 C   0  0  0  0  0  0  0  0  0  0  0  0
  161.2600  203.6050  147.8690 C   0  0  0  0  0  3  0  0  0  0  0  0
  161.7100  207.8430  150.1830 C   0  0  0  0  0  0  0  0  0  0  0  0
  161.3600  207.2120  151.3830 C   0  0  0  0  0  3  0  0  0  0  0  0
  160.6050  201.5340  149.1000 C   0  0  0  0  0  0  0  0  0  0  0  0
  159.5700  201.1100  149.6810 O   0  0  0  0  0  1  0  0  0  0  0  0
  161.4590  200.6270  148.4840 O   0  0  0  0  0  0  0  0  0  0  0  0
  1 18  1  0  0  0  0
  1 12  1  0  0  0  0
  3 10  1  0  0  0  0
  4  7  1  0  0  0  0
  5  4  2  0  0  0  0
  5  8  1  0  0  0  0
  6  7  1  0  0  0  0
  6  3  1  0  0  0  0
  7  1  2  0  0  0  0
  8  6  2  0  0  0  0
  9  2  1  6  0  0  0
  9 16  1  0  0  0  0
 10 12  2  0  0  0  0
 10  2  1  0  0  0  0
 11  9  1  0  0  0  0
 12 11  1  0  0  0  0
 13 14  1  1  0  0  0
 13 15  1  0  0  0  0
 16 17  1  1  0  0  0
 16 13  1  0  0  0  0
 17 13  1  0  0  0  0
 19 18  1  0  0  0  0
 19 21  1  0  0  0  0
 20 19  2  0  0  0  0
 23 28  2  0  0  0  0
 23 30  1  0  0  0  0
 24 32  1  0  0  0  0
 24 25  2  0  0  0  0
 26 25  1  0  0  0  0
 26 22  2  0  0  0  0
 27 29  2  0  0  0  0
 27 28  1  0  0  0  0
 28 26  1  0  0  0  0
 29 24  1  0  0  0  0
 30 21  1  0  0  0  0
 30 31  2  0  0  0  0
 31 22  1  0  0  0  0
 32 33  1  0  0  0  0
 34 32  2  0  0  0  0
M  END
>  <MODEL>
3

>  <REMARK>
 VINA RESULT:      -8.9      0.972      1.020
  Name = 
  5 active torsions:
  status: ('A' for Active; 'I' for Inactive)
    1  A    between atoms: C_1  and  C_9
    2  A    between atoms: C_7  and  C_11
    3  A    between atoms: C_8  and  C_9
    4  A    between atoms: N_18  and  C_30
    5  A    between atoms: N_23  and  C_25
                            x       y       z     vdW  Elec       q    Type
                         _______ _______ _______ _____ _____    ______ ____

>  <TORSDO>
F 5

$$$$
=
 OpenBabel11062409423D

 34 39  0  0  1  0  0  0  0  0999 V2000
  161.0570  211.2610  151.5800 C   0  0  0  0  0  0  0  0  0  0  0  0
  158.4250  213.4300  152.9190 C   0  0  0  0  0  2  0  0  0  0  0  0
  159.4900  213.4420  150.6100 O   0  0  0  0  0  0  0  0  0  0  0  0
  162.0090  211.4580  149.2100 C   0  0  0  0  0  3  0  0  0  0  0  0
  161.6840  212.3200  148.2050 N   0  0  0  0  0  0  0  0  0  0  0  0
  160.3990  212.8590  149.8350 C   0  0  0  0  0  0  0  0  0  0  0  0
  161.2060  211.7620  150.2850 C   0  0  0  0  0  0  0  0  0  0  0  0
  160.7190  213.1620  148.5720 N   0  0  0  0  0  0  0  0  0  0  0  0
  158.7250  212.5670  154.0880 N   0  0  2  0  0  0  0  0  0  0  0  0
  159.3480  212.9690  151.8530 C   0  0  0  0  0  0  0  0  0  0  0  0
  159.7100  211.6910  153.6480 O   0  0  0  0  0  0  0  0  0  0  0  0
  160.0860  211.9260  152.3490 C   0  0  0  0  0  0  0  0  0  0  0  0
  156.7860  212.2940  155.5770 C   0  0  2  0  0  0  0  0  0  0  0  0
  155.4270  211.9900  155.6270 O   0  0  0  0  0  1  0  0  0  0  0  0
  157.3720  213.7470  156.5060 S   0  0  0  0  0  1  0  0  0  0  0  0
  157.5300  211.7750  154.3570 C   0  0  2  0  0  3  0  0  0  0  0  0
  157.6650  211.0770  155.7100 C   0  0  0  0  0  2  0  0  0  0  0  0
  161.8910  210.1470  152.1200 C   0  0  0  0  0  2  0  0  0  0  0  0
  161.5440  208.8670  151.4420 C   0  0  0  0  0  0  0  0  0  0  0  0
  160.5460  208.2080  151.8380 O   0  0  0  0  0  0  0  0  0  0  0  0
  162.3310  208.4290  150.3280 N   0  0  0  0  0  2  0  0  0  0  0  0
  162.1480  206.2160  147.3330 C   0  0  0  0  0  3  0  0  0  0  0  0
  161.6620  206.0530  150.0870 C   0  0  0  0  0  3  0  0  0  0  0  0
  161.0450  202.6930  147.6360 C   0  0  0  0  0  0  0  0  0  0  0  0
  161.4940  203.8980  147.0780 C   0  0  0  0  0  3  0  0  0  0  0  0
  161.7000  205.0160  147.8890 C   0  0  0  0  0  0  0  0  0  0  0  0
  161.0070  203.7340  149.8340 C   0  0  0  0  0  3  0  0  0  0  0  0
  161.4550  204.9330  149.2780 C   0  0  0  0  0  0  0  0  0  0  0  0
  160.8030  202.6180  149.0160 C   0  0  0  0  0  3  0  0  0  0  0  0
  162.1120  207.2590  149.5280 C   0  0  0  0  0  0  0  0  0  0  0  0
  162.3520  207.3320  148.1520 C   0  0  0  0  0  3  0  0  0  0  0  0
  160.8300  201.5170  146.7760 C   0  0  0  0  0  0  0  0  0  0  0  0
  160.3040  201.6460  145.6380 O   0  0  0  0  0  0  0  0  0  0  0  0
  161.2070  200.2520  147.2120 O   0  0  0  0  0  1  0  0  0  0  0  0
  1 18  1  0  0  0  0
  1 12  1  0  0  0  0
  3 10  1  0  0  0  0
  4  7  1  0  0  0  0
  5  8  1  0  0  0  0
  5  4  2  0  0  0  0
  6  7  1  0  0  0  0
  6  3  1  0  0  0  0
  7  1  2  0  0  0  0
  8  6  2  0  0  0  0
  9  2  1  6  0  0  0
  9 16  1  0  0  0  0
 10 12  2  0  0  0  0
 10  2  1  0  0  0  0
 11  9  1  0  0  0  0
 12 11  1  0  0  0  0
 13 14  1  1  0  0  0
 13 17  1  0  0  0  0
 13 15  1  0  0  0  0
 16 13  1  0  0  0  0
 16 17  1  1  0  0  0
 19 20  2  0  0  0  0
 19 18  1  0  0  0  0
 21 19  1  0  0  0  0
 22 26  2  0  0  0  0
 22 31  1  0  0  0  0
 24 29  1  0  0  0  0
 25 24  2  0  0  0  0
 25 26  1  0  0  0  0
 26 28  1  0  0  0  0
 28 27  1  0  0  0  0
 28 23  2  0  0  0  0
 29 27  2  0  0  0  0
 30 23  1  0  0  0  0
 30 21  1  0  0  0  0
 31 30  2  0  0  0  0
 32 34  1  0  0  0  0
 32 24  1  0  0  0  0
 33 32  2  0  0  0  0
M  END
>  <MODEL>
4

>  <REMARK>
 VINA RESULT:      -8.6      1.854      2.603
  Name = 
  5 active torsions:
  status: ('A' for Active; 'I' for Inactive)
    1  A    between atoms: C_1  and  C_9
    2  A    between atoms: C_7  and  C_11
    3  A    between atoms: C_8  and  C_9
    4  A    between atoms: N_18  and  C_30
    5  A    between atoms: N_23  and  C_25
                            x       y       z     vdW  Elec       q    Type
                         _______ _______ _______ _____ _____    ______ ____

>  <TORSDO>
F 5

$$$$
=
 OpenBabel11062409423D

 34 39  0  0  1  0  0  0  0  0999 V2000
  160.9480  211.5210  151.4640 C   0  0  0  0  0  0  0  0  0  0  0  0
  159.2380  210.8290  154.6300 C   0  0  0  0  0  2  0  0  0  0  0  0
  158.5290  212.3590  152.7270 O   0  0  0  0  0  0  0  0  0  0  0  0
  160.0620  213.1270  149.6770 C   0  0  0  0  0  3  0  0  0  0  0  0
  158.9210  213.8740  149.6600 N   0  0  0  0  0  0  0  0  0  0  0  0
  158.8690  212.8250  151.5290 C   0  0  0  0  0  0  0  0  0  0  0  0
  160.0760  212.4290  150.8630 C   0  0  0  0  0  0  0  0  0  0  0  0
  158.2000  213.6970  150.7660 N   0  0  0  0  0  0  0  0  0  0  0  0
  160.4640  210.0060  154.7660 N   0  0  2  0  0  0  0  0  0  0  0  0
  159.3650  211.4930  153.3100 C   0  0  0  0  0  0  0  0  0  0  0  0
  161.1640  210.1990  153.5820 O   0  0  0  0  0  0  0  0  0  0  0  0
  160.5340  211.0730  152.7300 C   0  0  0  0  0  0  0  0  0  0  0  0
  160.5920  207.8970  156.0260 C   0  0  2  0  0  0  0  0  0  0  0  0
  159.8730  206.7780  156.4420 O   0  0  0  0  0  1  0  0  0  0  0  0
  161.6100  208.7670  157.2610 S   0  0  0  0  0  1  0  0  0  0  0  0
  160.0460  208.6090  154.7990 C   0  0  2  0  0  3  0  0  0  0  0  0
  161.2690  207.6990  154.6940 C   0  0  0  0  0  2  0  0  0  0  0  0
  162.2360  211.0970  150.8390 C   0  0  0  0  0  2  0  0  0  0  0  0
  162.0070  209.9580  149.9080 C   0  0  0  0  0  0  0  0  0  0  0  0
  161.7990  210.1890  148.6870 O   0  0  0  0  0  0  0  0  0  0  0  0
  162.0650  208.6170  150.4130 N   0  0  0  0  0  2  0  0  0  0  0  0
  162.1690  206.2550  147.5300 C   0  0  0  0  0  3  0  0  0  0  0  0
  161.4200  206.2300  150.2300 C   0  0  0  0  0  3  0  0  0  0  0  0
  161.0400  202.7480  147.9040 C   0  0  0  0  0  0  0  0  0  0  0  0
  161.5420  203.9240  147.3320 C   0  0  0  0  0  3  0  0  0  0  0  0
  161.6690  205.0830  148.1010 C   0  0  0  0  0  0  0  0  0  0  0  0
  160.7910  203.8980  150.0330 C   0  0  0  0  0  3  0  0  0  0  0  0
  161.2910  205.0700  149.4620 C   0  0  0  0  0  0  0  0  0  0  0  0
  160.6660  202.7420  149.2570 C   0  0  0  0  0  3  0  0  0  0  0  0
  161.9230  207.4080  149.6570 C   0  0  0  0  0  0  0  0  0  0  0  0
  162.2950  207.4120  148.3080 C   0  0  0  0  0  3  0  0  0  0  0  0
  160.9080  201.5290  147.0880 C   0  0  0  0  0  0  0  0  0  0  0  0
  161.2520  200.4090  147.5530 O   0  0  0  0  0  1  0  0  0  0  0  0
  160.4010  201.6030  145.7960 O   0  0  0  0  0  0  0  0  0  0  0  0
  1 12  1  0  0  0  0
  3 10  1  0  0  0  0
  4  7  1  0  0  0  0
  5  4  2  0  0  0  0
  5  8  1  0  0  0  0
  6  3  1  0  0  0  0
  7  1  2  0  0  0  0
  7  6  1  0  0  0  0
  8  6  2  0  0  0  0
  9  2  1  6  0  0  0
  9 16  1  0  0  0  0
 10  2  1  0  0  0  0
 11  9  1  0  0  0  0
 12 10  2  0  0  0  0
 12 11  1  0  0  0  0
 13 14  1  1  0  0  0
 13 15  1  0  0  0  0
 16 17  1  6  0  0  0
 16 13  1  0  0  0  0
 17 13  1  0  0  0  0
 18  1  1  0  0  0  0
 19 21  1  0  0  0  0
 19 18  1  0  0  0  0
 20 19  2  0  0  0  0
 22 26  2  0  0  0  0
 22 31  1  0  0  0  0
 24 29  1  0  0  0  0
 25 24  2  0  0  0  0
 25 26  1  0  0  0  0
 26 28  1  0  0  0  0
 28 27  1  0  0  0  0
 28 23  2  0  0  0  0
 29 27  2  0  0  0  0
 30 23  1  0  0  0  0
 30 21  1  0  0  0  0
 31 30  2  0  0  0  0
 32 33  1  0  0  0  0
 32 24  1  0  0  0  0
 34 32  2  0  0  0  0
M  END
>  <MODEL>
5

>  <REMARK>
 VINA RESULT:      -8.4      2.640      3.709
  Name = 
  5 active torsions:
  status: ('A' for Active; 'I' for Inactive)
    1  A    between atoms: C_1  and  C_9
    2  A    between atoms: C_7  and  C_11
    3  A    between atoms: C_8  and  C_9
    4  A    between atoms: N_18  and  C_30
    5  A    between atoms: N_23  and  C_25
                            x       y       z     vdW  Elec       q    Type
                         _______ _______ _______ _____ _____    ______ ____

>  <TORSDO>
F 5

$$$$
=
 OpenBabel11062409423D

 34 39  0  0  1  0  0  0  0  0999 V2000
  161.4890  208.6500  152.5470 C   0  0  0  0  0  0  0  0  0  0  0  0
  160.2120  211.9740  153.4090 C   0  0  0  0  0  2  0  0  0  0  0  0
  161.0730  211.1180  151.1750 O   0  0  0  0  0  0  0  0  0  0  0  0
  162.3350  207.9980  150.2190 C   0  0  0  0  0  3  0  0  0  0  0  0
  162.4080  208.7380  149.0760 N   0  0  0  0  0  0  0  0  0  0  0  0
  161.5800  210.0650  150.5420 C   0  0  0  0  0  0  0  0  0  0  0  0
  161.8040  208.8080  151.1970 C   0  0  0  0  0  0  0  0  0  0  0  0
  161.9560  209.9770  149.2620 N   0  0  0  0  0  0  0  0  0  0  0  0
  160.1210  211.2710  154.7120 N   0  0  2  0  0  0  0  0  0  0  0  0
  160.7760  210.9730  152.4700 C   0  0  0  0  0  0  0  0  0  0  0  0
  160.5730  209.9820  154.4610 O   0  0  0  0  0  0  0  0  0  0  0  0
  160.9660  209.8020  153.1580 C   0  0  0  0  0  0  0  0  0  0  0  0
  158.2490  212.3860  155.8530 C   0  0  2  0  0  0  0  0  0  0  0  0
  156.8860  212.6700  155.7870 O   0  0  0  0  0  1  0  0  0  0  0  0
  159.3870  213.7490  156.2590 S   0  0  0  0  0  1  0  0  0  0  0  0
  158.7070  211.1760  155.0550 C   0  0  2  0  0  3  0  0  0  0  0  0
  158.5450  211.0950  156.5730 C   0  0  0  0  0  2  0  0  0  0  0  0
  161.7330  207.3800  153.2940 C   0  0  0  0  0  2  0  0  0  0  0  0
  161.9390  206.2530  152.3430 C   0  0  0  0  0  0  0  0  0  0  0  0
  163.1060  205.8290  152.1290 O   0  0  0  0  0  0  0  0  0  0  0  0
  160.8010  205.6480  151.7160 N   0  0  0  0  0  2  0  0  0  0  0  0
  160.6210  202.1240  150.5130 C   0  0  0  0  0  3  0  0  0  0  0  0
  161.0020  204.6840  149.4400 C   0  0  0  0  0  3  0  0  0  0  0  0
  161.0120  201.3190  146.9190 C   0  0  0  0  0  0  0  0  0  0  0  0
  160.8180  201.1630  148.2980 C   0  0  0  0  0  3  0  0  0  0  0  0
  160.8150  202.2790  149.1390 C   0  0  0  0  0  0  0  0  0  0  0  0
  161.2000  203.7250  147.2240 C   0  0  0  0  0  3  0  0  0  0  0  0
  161.0070  203.5690  148.5970 C   0  0  0  0  0  0  0  0  0  0  0  0
  161.2030  202.6040  146.3880 C   0  0  0  0  0  3  0  0  0  0  0  0
  160.8070  204.5280  150.8210 C   0  0  0  0  0  0  0  0  0  0  0  0
  160.6180  203.2460  151.3490 C   0  0  0  0  0  3  0  0  0  0  0  0
  161.0150  200.1390  146.0380 C   0  0  0  0  0  0  0  0  0  0  0  0
  161.6100  199.0840  146.3850 O   0  0  0  0  0  1  0  0  0  0  0  0
  160.3590  200.1790  144.8120 O   0  0  0  0  0  0  0  0  0  0  0  0
  1 12  1  0  0  0  0
  1 18  1  0  0  0  0
  3 10  1  0  0  0  0
  4  7  1  0  0  0  0
  5  8  1  0  0  0  0
  5  4  2  0  0  0  0
  6  3  1  0  0  0  0
  6  7  1  0  0  0  0
  7  1  2  0  0  0  0
  8  6  2  0  0  0  0
  9  2  1  6  0  0  0
  9 16  1  0  0  0  0
 10 12  2  0  0  0  0
 10  2  1  0  0  0  0
 11  9  1  0  0  0  0
 12 11  1  0  0  0  0
 13 14  1  6  0  0  0
 13 15  1  0  0  0  0
 13 17  1  0  0  0  0
 16 13  1  0  0  0  0
 16 17  1  1  0  0  0
 19 18  1  0  0  0  0
 20 19  2  0  0  0  0
 21 19  1  0  0  0  0
 22 31  1  0  0  0  0
 23 30  1  0  0  0  0
 24 25  2  0  0  0  0
 25 26  1  0  0  0  0
 26 22  2  0  0  0  0
 27 28  1  0  0  0  0
 28 26  1  0  0  0  0
 28 23  2  0  0  0  0
 29 24  1  0  0  0  0
 29 27  2  0  0  0  0
 30 31  2  0  0  0  0
 30 21  1  0  0  0  0
 32 33  1  0  0  0  0
 32 24  1  0  0  0  0
 34 32  2  0  0  0  0
M  END
>  <MODEL>
6

>  <REMARK>
 VINA RESULT:      -8.1      2.980      4.199
  Name = 
  5 active torsions:
  status: ('A' for Active; 'I' for Inactive)
    1  A    between atoms: C_1  and  C_9
    2  A    between atoms: C_7  and  C_11
    3  A    between atoms: C_8  and  C_9
    4  A    between atoms: N_18  and  C_30
    5  A    between atoms: N_23  and  C_25
                            x       y       z     vdW  Elec       q    Type
                         _______ _______ _______ _____ _____    ______ ____

>  <TORSDO>
F 5

$$$$
=
 OpenBabel11062409423D

 34 39  0  0  1  0  0  0  0  0999 V2000
  160.8260  212.2930  149.9380 C   0  0  0  0  0  0  0  0  0  0  0  0
  158.7920  212.6750  152.9620 C   0  0  0  0  0  2  0  0  0  0  0  0
  158.2880  213.4280  150.5860 O   0  0  0  0  0  0  0  0  0  0  0  0
  160.1330  213.1510  147.6270 C   0  0  0  0  0  3  0  0  0  0  0  0
  159.0000  213.8030  147.2390 N   0  0  0  0  0  0  0  0  0  0  0  0
  158.7510  213.4640  149.3410 C   0  0  0  0  0  0  0  0  0  0  0  0
  160.0220  212.9060  148.9760 C   0  0  0  0  0  0  0  0  0  0  0  0
  158.1670  213.9940  148.2610 N   0  0  0  0  0  0  0  0  0  0  0  0
  159.9980  211.9940  153.4960 N   0  0  2  0  0  0  0  0  0  0  0  0
  159.0570  212.8470  151.5130 C   0  0  0  0  0  0  0  0  0  0  0  0
  160.8180  211.7920  152.3930 O   0  0  0  0  0  0  0  0  0  0  0  0
  160.2820  212.2950  151.2330 C   0  0  0  0  0  0  0  0  0  0  0  0
  159.8510  210.5160  155.4560 C   0  0  2  0  0  0  0  0  0  0  0  0
  159.0570  209.5780  156.1140 O   0  0  0  0  0  1  0  0  0  0  0  0
  160.5870  211.8560  156.4460 S   0  0  0  0  0  1  0  0  0  0  0  0
  159.5780  210.6810  153.9700 C   0  0  2  0  0  3  0  0  0  0  0  0
  160.7930  209.8930  154.4580 C   0  0  0  0  0  2  0  0  0  0  0  0
  162.1720  211.7260  149.6290 C   0  0  0  0  0  2  0  0  0  0  0  0
  162.1520  210.2440  149.7670 C   0  0  0  0  0  0  0  0  0  0  0  0
  162.4210  209.7220  150.8820 O   0  0  0  0  0  0  0  0  0  0  0  0
  161.7910  209.4400  148.6370 N   0  0  0  0  0  2  0  0  0  0  0  0
  161.8630  205.9480  147.3320 C   0  0  0  0  0  3  0  0  0  0  0  0
  161.2480  207.2770  149.7210 C   0  0  0  0  0  3  0  0  0  0  0  0
  160.9160  203.0920  149.4910 C   0  0  0  0  0  0  0  0  0  0  0  0
  161.3340  203.8260  148.3740 C   0  0  0  0  0  3  0  0  0  0  0  0
  161.4460  205.2160  148.4460 C   0  0  0  0  0  0  0  0  0  0  0  0
  160.7180  205.1550  150.7640 C   0  0  0  0  0  3  0  0  0  0  0  0
  161.1360  205.8860  149.6510 C   0  0  0  0  0  0  0  0  0  0  0  0
  160.6090  203.7640  150.6850 C   0  0  0  0  0  3  0  0  0  0  0  0
  161.6680  208.0120  148.6020 C   0  0  0  0  0  0  0  0  0  0  0  0
  161.9730  207.3410  147.4130 C   0  0  0  0  0  3  0  0  0  0  0  0
  160.8000  201.6260  149.4090 C   0  0  0  0  0  0  0  0  0  0  0  0
  161.0740  201.0230  148.3370 O   0  0  0  0  0  0  0  0  0  0  0  0
  160.3880  200.8930  150.5160 O   0  0  0  0  0  1  0  0  0  0  0  0
  1 12  1  0  0  0  0
  3 10  1  0  0  0  0
  4  7  1  0  0  0  0
  5  4  2  0  0  0  0
  5  8  1  0  0  0  0
  6  3  1  0  0  0  0
  7  6  1  0  0  0  0
  7  1  2  0  0  0  0
  8  6  2  0  0  0  0
  9  2  1  6  0  0  0
  9 16  1  0  0  0  0
 10  2  1  0  0  0  0
 11  9  1  0  0  0  0
 12 10  2  0  0  0  0
 12 11  1  0  0  0  0
 13 14  1  1  0  0  0
 13 15  1  0  0  0  0
 16 17  1  6  0  0  0
 16 13  1  0  0  0  0
 17 13  1  0  0  0  0
 18 19  1  0  0  0  0
 18  1  1  0  0  0  0
 19 20  2  0  0  0  0
 21 19  1  0  0  0  0
 22 31  2  0  0  0  0
 22 26  1  0  0  0  0
 24 29  1  0  0  0  0
 25 26  1  0  0  0  0
 25 24  2  0  0  0  0
 26 28  2  0  0  0  0
 28 23  1  0  0  0  0
 28 27  1  0  0  0  0
 29 27  2  0  0  0  0
 30 21  1  0  0  0  0
 30 23  2  0  0  0  0
 31 30  1  0  0  0  0
 32 24  1  0  0  0  0
 32 34  1  0  0  0  0
 33 32  2  0  0  0  0
M  END
>  <MODEL>
7

>  <REMARK>
 VINA RESULT:      -7.9      1.556      2.259
  Name = 
  5 active torsions:
  status: ('A' for Active; 'I' for Inactive)
    1  A    between atoms: C_1  and  C_9
    2  A    between atoms: C_7  and  C_11
    3  A    between atoms: C_8  and  C_9
    4  A    between atoms: N_18  and  C_30
    5  A    between atoms: N_23  and  C_25
                            x       y       z     vdW  Elec       q    Type
                         _______ _______ _______ _____ _____    ______ ____

>  <TORSDO>
F 5

$$$$
=
 OpenBabel11062409423D

 34 39  0  0  1  0  0  0  0  0999 V2000
  160.8580  211.0890  154.0710 C   0  0  0  0  0  0  0  0  0  0  0  0
  157.7580  211.2200  156.0200 C   0  0  0  0  0  2  0  0  0  0  0  0
  160.1290  210.7520  156.8100 O   0  0  0  0  0  0  0  0  0  0  0  0
  163.1590  210.5750  155.0700 C   0  0  0  0  0  3  0  0  0  0  0  0
  163.5140  210.3120  156.3600 N   0  0  0  0  0  0  0  0  0  0  0  0
  161.3940  210.6270  156.4220 C   0  0  0  0  0  0  0  0  0  0  0  0
  161.8000  210.7880  155.0550 C   0  0  0  0  0  0  0  0  0  0  0  0
  162.4610  210.3430  157.1760 N   0  0  0  0  0  0  0  0  0  0  0  0
  157.2590  211.4820  154.6480 N   0  0  2  0  0  0  0  0  0  0  0  0
  159.2220  211.0350  155.8690 C   0  0  0  0  0  0  0  0  0  0  0  0
  158.3910  211.4700  153.8420 O   0  0  0  0  0  0  0  0  0  0  0  0
  159.5400  211.2000  154.5450 C   0  0  0  0  0  0  0  0  0  0  0  0
  155.6740  213.0360  155.7070 C   0  0  2  0  0  0  0  0  0  0  0  0
  155.4860  214.3490  156.1340 O   0  0  0  0  0  1  0  0  0  0  0  0
  155.2130  211.6920  156.8470 S   0  0  0  0  0  1  0  0  0  0  0  0
  156.7300  212.8410  154.6310 C   0  0  2  0  0  3  0  0  0  0  0  0
  155.2430  212.8150  154.2800 C   0  0  0  0  0  2  0  0  0  0  0  0
  161.2100  211.2330  152.6270 C   0  0  0  0  0  2  0  0  0  0  0  0
  161.4310  209.8940  152.0140 C   0  0  0  0  0  0  0  0  0  0  0  0
  162.2860  209.7660  151.0970 O   0  0  0  0  0  0  0  0  0  0  0  0
  160.6920  208.7680  152.5050 N   0  0  0  0  0  2  0  0  0  0  0  0
  161.1990  205.0770  152.6550 C   0  0  0  0  0  3  0  0  0  0  0  0
  160.6890  207.0420  150.7240 C   0  0  0  0  0  3  0  0  0  0  0  0
  161.0770  203.0150  149.5800 C   0  0  0  0  0  0  0  0  0  0  0  0
  161.2030  203.3780  150.9280 C   0  0  0  0  0  3  0  0  0  0  0  0
  161.0750  204.7150  151.3120 C   0  0  0  0  0  0  0  0  0  0  0  0
  160.6920  205.3450  148.9950 C   0  0  0  0  0  3  0  0  0  0  0  0
  160.8170  205.7060  150.3380 C   0  0  0  0  0  0  0  0  0  0  0  0
  160.8220  204.0050  148.6180 C   0  0  0  0  0  3  0  0  0  0  0  0
  160.8140  207.4060  152.0740 C   0  0  0  0  0  0  0  0  0  0  0  0
  161.0690  206.4180  153.0310 C   0  0  0  0  0  3  0  0  0  0  0  0
  161.2130  201.6040  149.1820 C   0  0  0  0  0  0  0  0  0  0  0  0
  161.2880  200.6980  150.0540 O   0  0  0  0  0  1  0  0  0  0  0  0
  161.2600  201.2580  147.8360 O   0  0  0  0  0  0  0  0  0  0  0  0
  1 12  1  0  0  0  0
  1  7  2  0  0  0  0
  4  5  2  0  0  0  0
  5  8  1  0  0  0  0
  6  3  1  0  0  0  0
  6  8  2  0  0  0  0
  7  4  1  0  0  0  0
  7  6  1  0  0  0  0
  9  2  1  1  0  0  0
 10  2  1  0  0  0  0
 10  3  1  0  0  0  0
 11 12  1  0  0  0  0
 11  9  1  0  0  0  0
 12 10  2  0  0  0  0
 13 14  1  1  0  0  0
 13 15  1  0  0  0  0
 16 17  1  6  0  0  0
 16  9  1  0  0  0  0
 16 13  1  0  0  0  0
 17 13  1  0  0  0  0
 18  1  1  0  0  0  0
 19 21  1  0  0  0  0
 19 18  1  0  0  0  0
 20 19  2  0  0  0  0
 22 31  1  0  0  0  0
 23 30  1  0  0  0  0
 24 25  2  0  0  0  0
 25 26  1  0  0  0  0
 26 22  2  0  0  0  0
 27 28  1  0  0  0  0
 28 23  2  0  0  0  0
 28 26  1  0  0  0  0
 29 27  2  0  0  0  0
 29 24  1  0  0  0  0
 30 21  1  0  0  0  0
 30 31  2  0  0  0  0
 32 24  1  0  0  0  0
 32 33  1  0  0  0  0
 34 32  2  0  0  0  0
M  END
>  <MODEL>
8

>  <REMARK>
 VINA RESULT:      -7.6      3.798      5.345
  Name = 
  5 active torsions:
  status: ('A' for Active; 'I' for Inactive)
    1  A    between atoms: C_1  and  C_9
    2  A    between atoms: C_7  and  C_11
    3  A    between atoms: C_8  and  C_9
    4  A    between atoms: N_18  and  C_30
    5  A    between atoms: N_23  and  C_25
                            x       y       z     vdW  Elec       q    Type
                         _______ _______ _______ _____ _____    ______ ____

>  <TORSDO>
F 5

$$$$
=
 OpenBabel11062409423D

 34 39  0  0  1  0  0  0  0  0999 V2000
  160.9680  209.2120  153.0420 C   0  0  0  0  0  0  0  0  0  0  0  0
  158.7510  210.7200  155.5400 C   0  0  0  0  0  2  0  0  0  0  0  0
  159.7170  208.3690  155.4650 O   0  0  0  0  0  0  0  0  0  0  0  0
  161.8140  206.7970  153.1480 C   0  0  0  0  0  3  0  0  0  0  0  0
  161.5810  205.8280  154.0780 N   0  0  0  0  0  0  0  0  0  0  0  0
  160.4870  207.5370  154.7720 C   0  0  0  0  0  0  0  0  0  0  0  0
  161.1320  207.9220  153.5500 C   0  0  0  0  0  0  0  0  0  0  0  0
  160.7870  206.2650  155.0550 N   0  0  0  0  0  0  0  0  0  0  0  0
  158.9110  211.8320  154.5710 N   0  0  2  0  0  0  0  0  0  0  0  0
  159.5520  209.6040  154.9800 C   0  0  0  0  0  0  0  0  0  0  0  0
  159.7660  211.3410  153.5930 O   0  0  0  0  0  0  0  0  0  0  0  0
  160.1370  210.0380  153.8180 C   0  0  0  0  0  0  0  0  0  0  0  0
  158.6580  213.7480  156.0930 C   0  0  2  0  0  0  0  0  0  0  0  0
  159.2330  214.4330  157.1610 O   0  0  0  0  0  1  0  0  0  0  0  0
  156.8790  213.3660  156.1800 S   0  0  0  0  0  1  0  0  0  0  0  0
  159.6130  212.9080  155.2600 C   0  0  2  0  0  3  0  0  0  0  0  0
  159.1160  214.2610  154.7510 C   0  0  0  0  0  2  0  0  0  0  0  0
  161.5820  209.6640  151.7580 C   0  0  0  0  0  2  0  0  0  0  0  0
  161.8820  208.4920  150.8900 C   0  0  0  0  0  0  0  0  0  0  0  0
  163.0810  208.1670  150.6810 O   0  0  0  0  0  0  0  0  0  0  0  0
  160.7980  207.7330  150.3380 N   0  0  0  0  0  2  0  0  0  0  0  0
  161.2760  205.5710  147.3390 C   0  0  0  0  0  3  0  0  0  0  0  0
  160.7270  205.2680  150.0690 C   0  0  0  0  0  3  0  0  0  0  0  0
  161.0370  201.8830  147.5950 C   0  0  0  0  0  0  0  0  0  0  0  0
  161.2080  203.1660  147.0560 C   0  0  0  0  0  3  0  0  0  0  0  0
  161.1050  204.2930  147.8750 C   0  0  0  0  0  0  0  0  0  0  0  0
  160.6580  202.8630  149.7890 C   0  0  0  0  0  3  0  0  0  0  0  0
  160.8290  204.1400  149.2520 C   0  0  0  0  0  0  0  0  0  0  0  0
  160.7620  201.7390  148.9640 C   0  0  0  0  0  3  0  0  0  0  0  0
  160.8990  206.5530  149.5310 C   0  0  0  0  0  0  0  0  0  0  0  0
  161.1720  206.6950  148.1660 C   0  0  0  0  0  3  0  0  0  0  0  0
  161.1460  200.6990  146.7270 C   0  0  0  0  0  0  0  0  0  0  0  0
  161.7270  199.6580  147.1360 O   0  0  0  0  0  1  0  0  0  0  0  0
  160.6080  200.7180  145.4450 O   0  0  0  0  0  0  0  0  0  0  0  0
  1  7  2  0  0  0  0
  1 12  1  0  0  0  0
  4  7  1  0  0  0  0
  4  5  2  0  0  0  0
  5  8  1  0  0  0  0
  6  8  2  0  0  0  0
  6  3  1  0  0  0  0
  7  6  1  0  0  0  0
  9 16  1  0  0  0  0
  9  2  1  1  0  0  0
 10  3  1  0  0  0  0
 10  2  1  0  0  0  0
 11 12  1  0  0  0  0
 11  9  1  0  0  0  0
 12 10  2  0  0  0  0
 13 15  1  1  0  0  0
 13 14  1  0  0  0  0
 16 17  1  6  0  0  0
 16 13  1  0  0  0  0
 17 13  1  0  0  0  0
 18  1  1  0  0  0  0
 19 18  1  0  0  0  0
 20 19  2  0  0  0  0
 21 19  1  0  0  0  0
 22 26  2  0  0  0  0
 22 31  1  0  0  0  0
 24 29  1  0  0  0  0
 25 24  2  0  0  0  0
 25 26  1  0  0  0  0
 26 28  1  0  0  0  0
 28 27  1  0  0  0  0
 28 23  2  0  0  0  0
 29 27  2  0  0  0  0
 30 23  1  0  0  0  0
 30 21  1  0  0  0  0
 31 30  2  0  0  0  0
 32 33  1  0  0  0  0
 32 24  1  0  0  0  0
 34 32  2  0  0  0  0
M  END
>  <MODEL>
9

>  <REMARK>
 VINA RESULT:      -7.5      3.624      5.214
  Name = 
  5 active torsions:
  status: ('A' for Active; 'I' for Inactive)
    1  A    between atoms: C_1  and  C_9
    2  A    between atoms: C_7  and  C_11
    3  A    between atoms: C_8  and  C_9
    4  A    between atoms: N_18  and  C_30
    5  A    between atoms: N_23  and  C_25
                            x       y       z     vdW  Elec       q    Type
                         _______ _______ _______ _____ _____    ______ ____

>  <TORSDO>
F 5

$$$$
