=
 OpenBabel11062408203D

 32 34  0  0  1  0  0  0  0  0999 V2000
  160.5380  207.1220  154.4750 C   0  0  1  0  0  3  0  0  0  0  0  0
  161.6740  209.1890  155.0600 O   0  0  0  0  0  0  0  0  0  0  0  0
  161.1360  206.3090  155.6350 C   0  0  0  0  0  2  0  0  0  0  0  0
  160.3930  208.6130  154.7990 C   0  0  2  0  0  3  0  0  0  0  0  0
  160.1050  212.1190  155.1500 C   0  0  0  0  0  2  0  0  0  0  0  0
  159.4470  208.7800  156.0070 C   0  0  2  0  0  3  0  0  0  0  0  0
  161.0500  211.4830  154.1260 C   0  0  1  0  0  3  0  0  0  0  0  0
  159.4690  210.1830  156.5980 C   0  0  0  0  0  2  0  0  0  0  0  0
  159.6400  207.7250  157.1100 C   0  0  0  0  0  2  0  0  0  0  0  0
  162.0150  210.5100  154.7480 C   0  0  0  0  0  0  0  0  0  0  0  0
  158.9680  211.1980  155.5780 C   0  0  1  0  0  3  0  0  0  0  0  0
  160.9760  206.9910  156.9980 C   0  0  0  0  0  2  0  0  0  0  0  0
  163.1780  210.9100  155.0100 O   0  0  0  0  0  0  0  0  0  0  0  0
  160.7350  207.3320  151.9590 N   0  0  0  0  0  2  0  0  0  0  0  0
  162.3870  206.2850  153.2360 O   0  0  0  0  0  0  0  0  0  0  0  0
  161.2770  206.8790  153.2020 C   0  0  0  0  0  0  0  0  0  0  0  0
  162.9920  207.2850  150.5550 O   0  0  0  0  0  0  0  0  0  0  0  0
  161.5090  207.0550  150.4370 S   0  0  0  0  0  0  0  0  0  0  0  0
  160.9320  207.9910  149.4110 O   0  0  0  0  0  0  0  0  0  0  0  0
  161.4180  205.0040  148.6300 C   0  0  0  0  0  3  0  0  0  0  0  0
  161.2230  205.3900  149.9630 C   0  0  0  0  0  0  0  0  0  0  0  0
  161.2030  203.6770  148.2470 C   0  0  0  0  0  3  0  0  0  0  0  0
  160.5960  203.1170  150.5240 C   0  0  0  0  0  3  0  0  0  0  0  0
  160.8080  204.4450  150.9070 C   0  0  0  0  0  3  0  0  0  0  0  0
  160.7950  202.7330  149.1940 C   0  0  0  0  0  3  0  0  0  0  0  0
  157.8520  212.0330  156.1810 C   0  0  0  0  0  2  0  0  0  0  0  0
  156.5020  211.4990  155.7450 C   0  0  0  0  0  1  0  0  0  0  0  0
  160.3530  210.9190  153.0540 O   0  0  0  0  0  0  0  0  0  0  0  0
  160.1220  211.9830  152.1790 C   0  0  0  0  0  2  0  0  0  0  0  0
  158.6320  212.2690  152.0650 C   0  0  0  0  0  2  0  0  0  0  0  0
  157.1020  213.9800  153.0290 C   0  0  0  0  0  1  0  0  0  0  0  0
  158.3440  213.7570  152.1860 C   0  0  0  0  0  2  0  0  0  0  0  0
  1 16  1  6  0  0  0
  1  4  1  0  0  0  0
  1  3  1  0  0  0  0
  3 12  1  0  0  0  0
  4  2  1  1  0  0  0
  4  6  1  0  0  0  0
  5 11  1  0  0  0  0
  6  8  1  1  0  0  0
  6  9  1  0  0  0  0
  7 28  1  6  0  0  0
  7 10  1  0  0  0  0
  7  5  1  0  0  0  0
 10 13  2  0  0  0  0
 10  2  1  0  0  0  0
 11 26  1  1  0  0  0
 11  8  1  0  0  0  0
 12  9  1  0  0  0  0
 14 16  1  0  0  0  0
 16 15  2  0  0  0  0
 18 17  2  0  0  0  0
 18 14  1  0  0  0  0
 19 18  2  0  0  0  0
 20 21  1  0  0  0  0
 21 18  1  0  0  0  0
 21 24  2  0  0  0  0
 22 20  2  0  0  0  0
 22 25  1  0  0  0  0
 23 24  1  0  0  0  0
 25 23  2  0  0  0  0
 27 26  1  0  0  0  0
 29 28  1  0  0  0  0
 30 29  1  0  0  0  0
 30 32  1  0  0  0  0
 32 31  1  0  0  0  0
M  END
>  <MODEL>
1

>  <REMARK>
 VINA RESULT:      -6.0      0.000      0.000
  Name = 
  8 active torsions:
  status: ('A' for Active; 'I' for Inactive)
    1  A    between atoms: C_1  and  C_27
    2  A    between atoms: C_7  and  S_22
    3  A    between atoms: C_9  and  C_12
    4  A    between atoms: C_9  and  C_31
    5  A    between atoms: O_10  and  C_12
    6  A    between atoms: O_10  and  C_17
    7  A    between atoms: C_13  and  C_29
    8  A    between atoms: N_16  and  S_22
                            x       y       z     vdW  Elec       q    Type
                         _______ _______ _______ _____ _____    ______ ____

>  <TORSDO>
F 8

$$$$
=
 OpenBabel11062408203D

 32 34  0  0  1  0  0  0  0  0999 V2000
  161.2040  208.3010  149.9630 C   0  0  1  0  0  3  0  0  0  0  0  0
  162.6170  206.5680  150.9130 O   0  0  0  0  0  0  0  0  0  0  0  0
  162.1470  208.6120  148.7890 C   0  0  0  0  0  2  0  0  0  0  0  0
  161.2990  206.8480  150.4400 C   0  0  2  0  0  3  0  0  0  0  0  0
  161.4120  203.6340  151.9070 C   0  0  0  0  0  2  0  0  0  0  0  0
  160.9070  205.9070  149.2820 C   0  0  2  0  0  3  0  0  0  0  0  0
  161.8410  204.8890  152.6740 C   0  0  1  0  0  3  0  0  0  0  0  0
  161.2530  204.4480  149.5500 C   0  0  0  0  0  2  0  0  0  0  0  0
  161.4390  206.3450  147.9060 C   0  0  0  0  0  2  0  0  0  0  0  0
  162.9010  205.6770  151.9550 C   0  0  0  0  0  0  0  0  0  0  0  0
  160.4680  203.9270  150.7470 C   0  0  1  0  0  3  0  0  0  0  0  0
  162.5740  207.3640  148.0080 C   0  0  0  0  0  2  0  0  0  0  0  0
  164.1000  205.5160  152.3000 O   0  0  0  0  0  0  0  0  0  0  0  0
  160.3970  209.3710  152.1120 N   0  0  0  0  0  2  0  0  0  0  0  0
  162.3940  210.0240  151.0910 O   0  0  0  0  0  0  0  0  0  0  0  0
  161.3750  209.2840  151.0720 C   0  0  0  0  0  0  0  0  0  0  0  0
  161.9380  210.7240  153.8040 O   0  0  0  0  0  0  0  0  0  0  0  0
  160.5010  210.5100  153.4100 S   0  0  0  0  0  0  0  0  0  0  0  0
  159.7240  209.9880  154.5880 O   0  0  0  0  0  0  0  0  0  0  0  0
  160.1630  212.5370  151.6060 C   0  0  0  0  0  3  0  0  0  0  0  0
  159.8220  212.0350  152.8680 C   0  0  0  0  0  0  0  0  0  0  0  0
  159.6180  213.7450  151.1620 C   0  0  0  0  0  3  0  0  0  0  0  0
  158.3920  213.9550  153.2410 C   0  0  0  0  0  3  0  0  0  0  0  0
  158.9390  212.7480  153.6860 C   0  0  0  0  0  3  0  0  0  0  0  0
  158.7310  214.4530  151.9780 C   0  0  0  0  0  3  0  0  0  0  0  0
  159.7330  202.6530  150.3700 C   0  0  0  0  0  2  0  0  0  0  0  0
  160.4680  201.9320  149.2580 C   0  0  0  0  0  1  0  0  0  0  0  0
  160.7460  205.6820  153.0290 O   0  0  0  0  0  0  0  0  0  0  0  0
  161.2220  206.5150  154.0440 C   0  0  0  0  0  2  0  0  0  0  0  0
  160.0830  206.9610  154.9490 C   0  0  0  0  0  2  0  0  0  0  0  0
  161.5630  208.0570  156.6250 C   0  0  0  0  0  1  0  0  0  0  0  0
  160.5130  206.9830  156.4080 C   0  0  0  0  0  2  0  0  0  0  0  0
  1  4  1  0  0  0  0
  1 16  1  1  0  0  0
  2 10  1  0  0  0  0
  3  1  1  0  0  0  0
  4  2  1  6  0  0  0
  5  7  1  0  0  0  0
  6  9  1  6  0  0  0
  6  8  1  0  0  0  0
  6  4  1  0  0  0  0
  7 28  1  6  0  0  0
  8 11  1  0  0  0  0
  9 12  1  0  0  0  0
 10 13  2  0  0  0  0
 10  7  1  0  0  0  0
 11 26  1  6  0  0  0
 11  5  1  0  0  0  0
 12  3  1  0  0  0  0
 14 18  1  0  0  0  0
 16 15  2  0  0  0  0
 16 14  1  0  0  0  0
 18 17  2  0  0  0  0
 18 19  2  0  0  0  0
 20 21  1  0  0  0  0
 21 18  1  0  0  0  0
 21 24  2  0  0  0  0
 22 20  2  0  0  0  0
 22 25  1  0  0  0  0
 23 24  1  0  0  0  0
 25 23  2  0  0  0  0
 27 26  1  0  0  0  0
 28 29  1  0  0  0  0
 29 30  1  0  0  0  0
 30 32  1  0  0  0  0
 32 31  1  0  0  0  0
M  END
>  <MODEL>
2

>  <REMARK>
 VINA RESULT:      -5.4      1.957      7.770
  Name = 
  8 active torsions:
  status: ('A' for Active; 'I' for Inactive)
    1  A    between atoms: C_1  and  C_27
    2  A    between atoms: C_7  and  S_22
    3  A    between atoms: C_9  and  C_12
    4  A    between atoms: C_9  and  C_31
    5  A    between atoms: O_10  and  C_12
    6  A    between atoms: O_10  and  C_17
    7  A    between atoms: C_13  and  C_29
    8  A    between atoms: N_16  and  S_22
                            x       y       z     vdW  Elec       q    Type
                         _______ _______ _______ _____ _____    ______ ____

>  <TORSDO>
F 8

$$$$
=
 OpenBabel11062408203D

 32 34  0  0  1  0  0  0  0  0999 V2000
  160.6560  207.3360  152.5860 C   0  0  1  0  0  3  0  0  0  0  0  0
  161.7610  209.1460  153.7720 O   0  0  0  0  0  0  0  0  0  0  0  0
  161.4900  206.2210  153.2370 C   0  0  0  0  0  2  0  0  0  0  0  0
  160.4880  208.5650  153.4870 C   0  0  2  0  0  3  0  0  0  0  0  0
  160.0740  211.6150  155.2240 C   0  0  0  0  0  2  0  0  0  0  0  0
  159.7590  208.1480  154.7810 C   0  0  2  0  0  3  0  0  0  0  0  0
  160.8590  211.5310  153.9120 C   0  0  1  0  0  3  0  0  0  0  0  0
  159.8070  209.2150  155.8670 C   0  0  0  0  0  2  0  0  0  0  0  0
  160.1990  206.7840  155.3430 C   0  0  0  0  0  2  0  0  0  0  0  0
  161.9690  210.5170  153.9600 C   0  0  0  0  0  0  0  0  0  0  0  0
  159.0810  210.4730  155.4090 C   0  0  1  0  0  3  0  0  0  0  0  0
  161.5340  206.3120  154.7670 C   0  0  0  0  0  2  0  0  0  0  0  0
  163.1360  210.9230  154.1930 O   0  0  0  0  0  0  0  0  0  0  0  0
  161.2240  206.6870  150.2040 N   0  0  0  0  0  2  0  0  0  0  0  0
  161.5510  208.8610  150.9960 O   0  0  0  0  0  0  0  0  0  0  0  0
  161.1740  207.6820  151.2300 C   0  0  0  0  0  0  0  0  0  0  0  0
  163.3050  207.3700  148.6960 O   0  0  0  0  0  0  0  0  0  0  0  0
  161.8480  206.9980  148.6210 S   0  0  0  0  0  0  0  0  0  0  0  0
  161.0690  208.1230  147.9960 O   0  0  0  0  0  0  0  0  0  0  0  0
  161.8250  205.6050  146.2680 C   0  0  0  0  0  3  0  0  0  0  0  0
  161.6780  205.5400  147.6600 C   0  0  0  0  0  0  0  0  0  0  0  0
  161.7020  204.4450  145.4970 C   0  0  0  0  0  3  0  0  0  0  0  0
  161.2820  203.1540  147.5030 C   0  0  0  0  0  3  0  0  0  0  0  0
  161.4030  204.3140  148.2750 C   0  0  0  0  0  3  0  0  0  0  0  0
  161.4330  203.2200  146.1140 C   0  0  0  0  0  3  0  0  0  0  0  0
  158.0430  210.8790  156.4410 C   0  0  0  0  0  2  0  0  0  0  0  0
  156.8170  211.4490  155.7560 C   0  0  0  0  0  1  0  0  0  0  0  0
  160.0170  211.3370  152.8120 O   0  0  0  0  0  0  0  0  0  0  0  0
  160.2750  212.4210  151.9690 C   0  0  0  0  0  2  0  0  0  0  0  0
  158.9750  213.0670  151.5150 C   0  0  0  0  0  2  0  0  0  0  0  0
  158.0780  214.3060  153.4790 C   0  0  0  0  0  1  0  0  0  0  0  0
  157.9370  213.0590  152.6260 C   0  0  0  0  0  2  0  0  0  0  0  0
  1 16  1  6  0  0  0
  1  3  1  0  0  0  0
  1  4  1  0  0  0  0
  2 10  1  0  0  0  0
  3 12  1  0  0  0  0
  4  2  1  1  0  0  0
  4  6  1  0  0  0  0
  5 11  1  0  0  0  0
  6  9  1  1  0  0  0
  6  8  1  0  0  0  0
  7 28  1  6  0  0  0
  7 10  1  0  0  0  0
  7  5  1  0  0  0  0
 10 13  2  0  0  0  0
 11  8  1  0  0  0  0
 11 26  1  1  0  0  0
 12  9  1  0  0  0  0
 14 16  1  0  0  0  0
 15 16  2  0  0  0  0
 18 17  2  0  0  0  0
 18 14  1  0  0  0  0
 19 18  2  0  0  0  0
 20 21  1  0  0  0  0
 21 24  2  0  0  0  0
 21 18  1  0  0  0  0
 22 25  1  0  0  0  0
 22 20  2  0  0  0  0
 23 24  1  0  0  0  0
 25 23  2  0  0  0  0
 27 26  1  0  0  0  0
 29 28  1  0  0  0  0
 30 29  1  0  0  0  0
 30 32  1  0  0  0  0
 32 31  1  0  0  0  0
M  END
>  <MODEL>
3

>  <REMARK>
 VINA RESULT:      -5.2      1.433      1.861
  Name = 
  8 active torsions:
  status: ('A' for Active; 'I' for Inactive)
    1  A    between atoms: C_1  and  C_27
    2  A    between atoms: C_7  and  S_22
    3  A    between atoms: C_9  and  C_12
    4  A    between atoms: C_9  and  C_31
    5  A    between atoms: O_10  and  C_12
    6  A    between atoms: O_10  and  C_17
    7  A    between atoms: C_13  and  C_29
    8  A    between atoms: N_16  and  S_22
                            x       y       z     vdW  Elec       q    Type
                         _______ _______ _______ _____ _____    ______ ____

>  <TORSDO>
F 8

$$$$
=
 OpenBabel11062408203D

 32 34  0  0  1  0  0  0  0  0999 V2000
  162.0420  209.2180  150.8240 C   0  0  1  0  0  3  0  0  0  0  0  0
  160.4710  207.6010  149.9170 O   0  0  0  0  0  0  0  0  0  0  0  0
  161.0110  209.9110  151.7300 C   0  0  0  0  0  2  0  0  0  0  0  0
  161.7280  207.7370  150.5810 C   0  0  2  0  0  3  0  0  0  0  0  0
  161.1930  204.3660  149.6630 C   0  0  0  0  0  2  0  0  0  0  0  0
  161.7330  206.9890  151.9300 C   0  0  2  0  0  3  0  0  0  0  0  0
  161.1540  205.5000  148.6350 C   0  0  1  0  0  3  0  0  0  0  0  0
  161.1430  205.5880  151.8420 C   0  0  0  0  0  2  0  0  0  0  0  0
  161.0940  207.7740  153.0890 C   0  0  0  0  0  2  0  0  0  0  0  0
  160.1780  206.5850  148.9990 C   0  0  0  0  0  0  0  0  0  0  0  0
  161.9830  204.7140  150.9200 C   0  0  1  0  0  3  0  0  0  0  0  0
  160.2200  208.9330  152.6070 C   0  0  0  0  0  2  0  0  0  0  0  0
  159.0410  206.5680  148.4620 O   0  0  0  0  0  0  0  0  0  0  0  0
  162.1540  211.4040  149.5510 N   0  0  0  0  0  2  0  0  0  0  0  0
  162.5280  209.3510  148.5000 O   0  0  0  0  0  0  0  0  0  0  0  0
  162.2510  209.9780  149.5570 C   0  0  0  0  0  0  0  0  0  0  0  0
  163.3450  211.7140  147.1940 O   0  0  0  0  0  0  0  0  0  0  0  0
  162.3440  212.3550  148.1180 S   0  0  0  0  0  0  0  0  0  0  0  0
  162.8140  213.7320  148.4970 O   0  0  0  0  0  0  0  0  0  0  0  0
  159.6540  212.8380  148.0220 C   0  0  0  0  0  3  0  0  0  0  0  0
  160.7920  212.4500  147.3040 C   0  0  0  0  0  0  0  0  0  0  0  0
  158.4160  212.9270  147.3790 C   0  0  0  0  0  3  0  0  0  0  0  0
  159.4480  212.2380  145.2980 C   0  0  0  0  0  3  0  0  0  0  0  0
  160.6860  212.1470  145.9420 C   0  0  0  0  0  3  0  0  0  0  0  0
  158.3140  212.6300  146.0170 C   0  0  0  0  0  3  0  0  0  0  0  0
  162.3750  203.4320  151.6320 C   0  0  0  0  0  2  0  0  0  0  0  0
  161.2510  202.4180  151.5430 C   0  0  0  0  0  1  0  0  0  0  0  0
  162.4300  206.0080  148.3710 O   0  0  0  0  0  0  0  0  0  0  0  0
  162.4400  206.2540  146.9960 C   0  0  0  0  0  2  0  0  0  0  0  0
  162.6030  204.9540  146.2210 C   0  0  0  0  0  2  0  0  0  0  0  0
  160.5810  205.9250  145.1420 C   0  0  0  0  0  1  0  0  0  0  0  0
  161.7190  204.9330  144.9840 C   0  0  0  0  0  2  0  0  0  0  0  0
  1 16  1  6  0  0  0
  1  3  1  0  0  0  0
  3 12  1  0  0  0  0
  4  2  1  1  0  0  0
  4  1  1  0  0  0  0
  4  6  1  0  0  0  0
  5 11  1  0  0  0  0
  6  8  1  6  0  0  0
  6  9  1  0  0  0  0
  7 28  1  1  0  0  0
  7 10  1  0  0  0  0
  7  5  1  0  0  0  0
 10  2  1  0  0  0  0
 11 26  1  1  0  0  0
 11  8  1  0  0  0  0
 12  9  1  0  0  0  0
 13 10  2  0  0  0  0
 14 16  1  0  0  0  0
 15 16  2  0  0  0  0
 17 18  2  0  0  0  0
 18 19  2  0  0  0  0
 18 14  1  0  0  0  0
 21 20  2  0  0  0  0
 21 18  1  0  0  0  0
 22 20  1  0  0  0  0
 23 24  2  0  0  0  0
 23 25  1  0  0  0  0
 24 21  1  0  0  0  0
 25 22  2  0  0  0  0
 27 26  1  0  0  0  0
 29 28  1  0  0  0  0
 30 29  1  0  0  0  0
 32 31  1  0  0  0  0
 32 30  1  0  0  0  0
M  END
>  <MODEL>
4

>  <REMARK>
 VINA RESULT:      -4.5      3.738      7.943
  Name = 
  8 active torsions:
  status: ('A' for Active; 'I' for Inactive)
    1  A    between atoms: C_1  and  C_27
    2  A    between atoms: C_7  and  S_22
    3  A    between atoms: C_9  and  C_12
    4  A    between atoms: C_9  and  C_31
    5  A    between atoms: O_10  and  C_12
    6  A    between atoms: O_10  and  C_17
    7  A    between atoms: C_13  and  C_29
    8  A    between atoms: N_16  and  S_22
                            x       y       z     vdW  Elec       q    Type
                         _______ _______ _______ _____ _____    ______ ____

>  <TORSDO>
F 8

$$$$
=
 OpenBabel11062408203D

 32 34  0  0  1  0  0  0  0  0999 V2000
  160.8540  206.7230  152.0470 C   0  0  1  0  0  3  0  0  0  0  0  0
  162.1760  208.7360  152.3710 O   0  0  0  0  0  0  0  0  0  0  0  0
  161.4920  205.9550  153.2160 C   0  0  0  0  0  2  0  0  0  0  0  0
  160.8400  208.2410  152.2610 C   0  0  2  0  0  3  0  0  0  0  0  0
  160.8270  211.7740  152.3510 C   0  0  0  0  0  2  0  0  0  0  0  0
  160.0160  208.5680  153.5240 C   0  0  2  0  0  3  0  0  0  0  0  0
  161.6340  210.9940  151.3090 C   0  0  1  0  0  3  0  0  0  0  0  0
  160.1860  210.0060  153.9960 C   0  0  0  0  0  2  0  0  0  0  0  0
  160.2300  207.5860  154.6890 C   0  0  0  0  0  2  0  0  0  0  0  0
  162.5790  210.0000  151.9260 C   0  0  0  0  0  0  0  0  0  0  0  0
  159.6700  210.9760  152.9420 C   0  0  1  0  0  3  0  0  0  0  0  0
  161.4980  206.7470  154.5290 C   0  0  0  0  0  2  0  0  0  0  0  0
  163.7850  210.3300  152.0600 O   0  0  0  0  0  0  0  0  0  0  0  0
  160.6790  206.3660  149.5460 N   0  0  0  0  0  2  0  0  0  0  0  0
  162.6710  205.9830  150.7040 O   0  0  0  0  0  0  0  0  0  0  0  0
  161.4610  206.3300  150.7420 C   0  0  0  0  0  0  0  0  0  0  0  0
  162.7410  206.2930  147.8690 O   0  0  0  0  0  0  0  0  0  0  0  0
  161.2970  205.8890  148.0020 S   0  0  0  0  0  0  0  0  0  0  0  0
  160.4850  206.5480  146.9200 O   0  0  0  0  0  0  0  0  0  0  0  0
  160.9260  203.3760  149.0130 C   0  0  0  0  0  3  0  0  0  0  0  0
  161.1750  204.1440  147.8690 C   0  0  0  0  0  0  0  0  0  0  0  0
  160.8160  201.9860  148.9140 C   0  0  0  0  0  3  0  0  0  0  0  0
  161.2060  202.1260  146.5270 C   0  0  0  0  0  3  0  0  0  0  0  0
  161.3180  203.5160  146.6260 C   0  0  0  0  0  3  0  0  0  0  0  0
  160.9540  201.3610  147.6710 C   0  0  0  0  0  3  0  0  0  0  0  0
  158.6710  211.9360  153.5640 C   0  0  0  0  0  2  0  0  0  0  0  0
  159.0620  213.3690  153.2640 C   0  0  0  0  0  1  0  0  0  0  0  0
  160.8090  210.4070  150.3450 O   0  0  0  0  0  0  0  0  0  0  0  0
  161.5370  210.4860  149.1550 C   0  0  0  0  0  2  0  0  0  0  0  0
  161.9610  211.9210  148.8820 C   0  0  0  0  0  2  0  0  0  0  0  0
  162.3890  212.9530  146.6570 C   0  0  0  0  0  1  0  0  0  0  0  0
  161.3190  212.4540  147.6100 C   0  0  0  0  0  2  0  0  0  0  0  0
  1 16  1  6  0  0  0
  1  4  1  0  0  0  0
  1  3  1  0  0  0  0
  3 12  1  0  0  0  0
  4  2  1  1  0  0  0
  4  6  1  0  0  0  0
  5 11  1  0  0  0  0
  6  8  1  1  0  0  0
  6  9  1  0  0  0  0
  7 28  1  6  0  0  0
  7 10  1  0  0  0  0
  7  5  1  0  0  0  0
 10 13  2  0  0  0  0
 10  2  1  0  0  0  0
 11 26  1  1  0  0  0
 11  8  1  0  0  0  0
 12  9  1  0  0  0  0
 14 16  1  0  0  0  0
 15 16  2  0  0  0  0
 17 18  2  0  0  0  0
 18 14  1  0  0  0  0
 19 18  2  0  0  0  0
 21 18  1  0  0  0  0
 21 20  2  0  0  0  0
 22 20  1  0  0  0  0
 23 24  2  0  0  0  0
 23 25  1  0  0  0  0
 24 21  1  0  0  0  0
 25 22  2  0  0  0  0
 27 26  1  0  0  0  0
 29 28  1  0  0  0  0
 30 29  1  0  0  0  0
 31 32  1  0  0  0  0
 32 30  1  0  0  0  0
M  END
>  <MODEL>
5

>  <REMARK>
 VINA RESULT:      -4.2      2.418      3.355
  Name = 
  8 active torsions:
  status: ('A' for Active; 'I' for Inactive)
    1  A    between atoms: C_1  and  C_27
    2  A    between atoms: C_7  and  S_22
    3  A    between atoms: C_9  and  C_12
    4  A    between atoms: C_9  and  C_31
    5  A    between atoms: O_10  and  C_12
    6  A    between atoms: O_10  and  C_17
    7  A    between atoms: C_13  and  C_29
    8  A    between atoms: N_16  and  S_22
                            x       y       z     vdW  Elec       q    Type
                         _______ _______ _______ _____ _____    ______ ____

>  <TORSDO>
F 8

$$$$
=
 OpenBabel11062408203D

 32 34  0  0  1  0  0  0  0  0999 V2000
  161.3550  207.3820  148.3260 C   0  0  1  0  0  3  0  0  0  0  0  0
  162.6820  206.2050  149.9870 O   0  0  0  0  0  0  0  0  0  0  0  0
  162.3370  207.1320  147.1700 C   0  0  0  0  0  2  0  0  0  0  0  0
  161.3870  206.2790  149.3900 C   0  0  2  0  0  3  0  0  0  0  0  0
  161.3500  204.0200  152.1090 C   0  0  0  0  0  2  0  0  0  0  0  0
  160.9920  204.9360  148.7410 C   0  0  2  0  0  3  0  0  0  0  0  0
  161.8030  205.4740  152.2710 C   0  0  1  0  0  3  0  0  0  0  0  0
  161.2800  203.7320  149.6280 C   0  0  0  0  0  2  0  0  0  0  0  0
  161.5730  204.7210  147.3320 C   0  0  0  0  0  2  0  0  0  0  0  0
  162.9080  205.8500  151.3220 C   0  0  0  0  0  0  0  0  0  0  0  0
  160.4460  203.7980  150.9010 C   0  0  1  0  0  3  0  0  0  0  0  0
  162.7410  205.6600  147.0260 C   0  0  0  0  0  2  0  0  0  0  0  0
  164.0910  205.8300  151.7490 O   0  0  0  0  0  0  0  0  0  0  0  0
  161.7030  209.8750  148.0450 N   0  0  0  0  0  2  0  0  0  0  0  0
  161.5140  208.8920  150.1560 O   0  0  0  0  0  0  0  0  0  0  0  0
  161.5320  208.7460  148.9060 C   0  0  0  0  0  0  0  0  0  0  0  0
  163.3250  211.9720  148.2540 O   0  0  0  0  0  0  0  0  0  0  0  0
  161.9540  211.4810  148.6380 S   0  0  0  0  0  0  0  0  0  0  0  0
  161.8170  211.4810  150.1360 O   0  0  0  0  0  0  0  0  0  0  0  0
  160.0840  213.4740  148.7190 C   0  0  0  0  0  3  0  0  0  0  0  0
  160.7470  212.5330  147.9210 C   0  0  0  0  0  0  0  0  0  0  0  0
  159.1290  214.3240  148.1520 C   0  0  0  0  0  3  0  0  0  0  0  0
  159.4930  213.2930  145.9910 C   0  0  0  0  0  3  0  0  0  0  0  0
  160.4470  212.4420  146.5570 C   0  0  0  0  0  3  0  0  0  0  0  0
  158.8350  214.2350  146.7880 C   0  0  0  0  0  3  0  0  0  0  0  0
  159.6770  202.5030  151.0870 C   0  0  0  0  0  2  0  0  0  0  0  0
  160.1920  201.4450  150.1310 C   0  0  0  0  0  1  0  0  0  0  0  0
  160.7280  206.3650  152.2050 O   0  0  0  0  0  0  0  0  0  0  0  0
  160.9910  207.3170  153.1930 C   0  0  0  0  0  2  0  0  0  0  0  0
  160.8570  206.7020  154.5780 C   0  0  0  0  0  2  0  0  0  0  0  0
  160.4490  207.3240  156.9540 C   0  0  0  0  0  1  0  0  0  0  0  0
  160.0730  207.6110  155.5120 C   0  0  0  0  0  2  0  0  0  0  0  0
  1 16  1  1  0  0  0
  1  4  1  0  0  0  0
  2 10  1  0  0  0  0
  3  1  1  0  0  0  0
  4  2  1  6  0  0  0
  5  7  1  0  0  0  0
  6  9  1  6  0  0  0
  6  4  1  0  0  0  0
  6  8  1  0  0  0  0
  7 28  1  6  0  0  0
  8 11  1  0  0  0  0
 10 13  2  0  0  0  0
 10  7  1  0  0  0  0
 11 26  1  1  0  0  0
 11  5  1  0  0  0  0
 12  3  1  0  0  0  0
 12  9  1  0  0  0  0
 14 18  1  0  0  0  0
 14 16  1  0  0  0  0
 16 15  2  0  0  0  0
 17 18  2  0  0  0  0
 18 19  2  0  0  0  0
 21 18  1  0  0  0  0
 21 20  2  0  0  0  0
 22 20  1  0  0  0  0
 23 24  2  0  0  0  0
 23 25  1  0  0  0  0
 24 21  1  0  0  0  0
 25 22  2  0  0  0  0
 27 26  1  0  0  0  0
 28 29  1  0  0  0  0
 29 30  1  0  0  0  0
 30 32  1  0  0  0  0
 32 31  1  0  0  0  0
M  END
>  <MODEL>
6

>  <REMARK>
 VINA RESULT:      -4.1      3.149      7.956
  Name = 
  8 active torsions:
  status: ('A' for Active; 'I' for Inactive)
    1  A    between atoms: C_1  and  C_27
    2  A    between atoms: C_7  and  S_22
    3  A    between atoms: C_9  and  C_12
    4  A    between atoms: C_9  and  C_31
    5  A    between atoms: O_10  and  C_12
    6  A    between atoms: O_10  and  C_17
    7  A    between atoms: C_13  and  C_29
    8  A    between atoms: N_16  and  S_22
                            x       y       z     vdW  Elec       q    Type
                         _______ _______ _______ _____ _____    ______ ____

>  <TORSDO>
F 8

$$$$
=
 OpenBabel11062408203D

 32 34  0  0  1  0  0  0  0  0999 V2000
  161.8220  204.7690  151.5500 C   0  0  1  0  0  3  0  0  0  0  0  0
  160.3570  205.5830  149.7910 O   0  0  0  0  0  0  0  0  0  0  0  0
  160.7840  203.8090  152.1530 C   0  0  0  0  0  2  0  0  0  0  0  0
  161.6320  204.9910  150.0450 C   0  0  2  0  0  3  0  0  0  0  0  0
  161.3560  205.8690  146.6320 C   0  0  0  0  0  2  0  0  0  0  0  0
  161.7800  203.6420  149.3110 C   0  0  2  0  0  3  0  0  0  0  0  0
  161.1570  206.8960  147.7510 C   0  0  1  0  0  3  0  0  0  0  0  0
  161.3160  203.6930  147.8610 C   0  0  0  0  0  2  0  0  0  0  0  0
  161.1370  202.4510  150.0430 C   0  0  0  0  0  2  0  0  0  0  0  0
  160.1070  206.4810  148.7450 C   0  0  0  0  0  0  0  0  0  0  0  0
  162.1790  204.6590  147.0600 C   0  0  1  0  0  3  0  0  0  0  0  0
  160.1360  202.8870  151.1140 C   0  0  0  0  0  2  0  0  0  0  0  0
  158.9490  206.9530  148.6210 O   0  0  0  0  0  0  0  0  0  0  0  0
  161.0120  207.1280  151.9910 N   0  0  0  0  0  2  0  0  0  0  0  0
  162.7190  206.1590  153.2590 O   0  0  0  0  0  0  0  0  0  0  0  0
  161.8910  206.0480  152.3160 C   0  0  0  0  0  0  0  0  0  0  0  0
  159.9550  209.5480  152.2990 O   0  0  0  0  0  0  0  0  0  0  0  0
  161.0570  208.6550  152.8040 S   0  0  0  0  0  0  0  0  0  0  0  0
  162.3900  209.3070  152.5570 O   0  0  0  0  0  0  0  0  0  0  0  0
  160.2230  207.1940  154.9590 C   0  0  0  0  0  3  0  0  0  0  0  0
  160.8290  208.3780  154.5210 C   0  0  0  0  0  0  0  0  0  0  0  0
  160.0480  206.9600  156.3260 C   0  0  0  0  0  3  0  0  0  0  0  0
  161.0820  209.0940  156.8230 C   0  0  0  0  0  3  0  0  0  0  0  0
  161.2550  209.3290  155.4550 C   0  0  0  0  0  3  0  0  0  0  0  0
  160.4800  207.9090  157.2580 C   0  0  0  0  0  3  0  0  0  0  0  0
  162.7250  203.9670  145.8250 C   0  0  0  0  0  2  0  0  0  0  0  0
  161.8210  204.2250  144.6360 C   0  0  0  0  0  1  0  0  0  0  0  0
  162.3640  207.2320  148.3700 O   0  0  0  0  0  0  0  0  0  0  0  0
  162.0700  208.3600  149.1400 C   0  0  0  0  0  2  0  0  0  0  0  0
  161.9580  209.5950  148.2590 C   0  0  0  0  0  2  0  0  0  0  0  0
  162.4810  212.0290  148.2700 C   0  0  0  0  0  1  0  0  0  0  0  0
  161.9510  210.8680  149.0910 C   0  0  0  0  0  2  0  0  0  0  0  0
  1  3  1  0  0  0  0
  1 16  1  1  0  0  0
  4  2  1  1  0  0  0
  4  1  1  0  0  0  0
  5 11  1  0  0  0  0
  5  7  1  0  0  0  0
  6  8  1  6  0  0  0
  6  9  1  0  0  0  0
  6  4  1  0  0  0  0
  7 28  1  1  0  0  0
  7 10  1  0  0  0  0
  9 12  1  0  0  0  0
 10  2  1  0  0  0  0
 11 26  1  6  0  0  0
 11  8  1  0  0  0  0
 12  3  1  0  0  0  0
 13 10  2  0  0  0  0
 14 16  1  0  0  0  0
 14 18  1  0  0  0  0
 16 15  2  0  0  0  0
 17 18  2  0  0  0  0
 18 21  1  0  0  0  0
 19 18  2  0  0  0  0
 20 22  1  0  0  0  0
 21 20  2  0  0  0  0
 21 24  1  0  0  0  0
 22 25  2  0  0  0  0
 23 25  1  0  0  0  0
 24 23  2  0  0  0  0
 27 26  1  0  0  0  0
 28 29  1  0  0  0  0
 30 32  1  0  0  0  0
 30 29  1  0  0  0  0
 31 32  1  0  0  0  0
M  END
>  <MODEL>
7

>  <REMARK>
 VINA RESULT:      -4.0      2.743      7.641
  Name = 
  8 active torsions:
  status: ('A' for Active; 'I' for Inactive)
    1  A    between atoms: C_1  and  C_27
    2  A    between atoms: C_7  and  S_22
    3  A    between atoms: C_9  and  C_12
    4  A    between atoms: C_9  and  C_31
    5  A    between atoms: O_10  and  C_12
    6  A    between atoms: O_10  and  C_17
    7  A    between atoms: C_13  and  C_29
    8  A    between atoms: N_16  and  S_22
                            x       y       z     vdW  Elec       q    Type
                         _______ _______ _______ _____ _____    ______ ____

>  <TORSDO>
F 8

$$$$
=
 OpenBabel11062408203D

 32 34  0  0  1  0  0  0  0  0999 V2000
  160.8470  209.2270  151.4750 C   0  0  1  0  0  3  0  0  0  0  0  0
  162.5090  207.4830  151.1620 O   0  0  0  0  0  0  0  0  0  0  0  0
  161.8350  210.3880  151.2840 C   0  0  0  0  0  2  0  0  0  0  0  0
  161.2460  207.9650  150.7020 C   0  0  2  0  0  3  0  0  0  0  0  0
  161.9770  204.8460  149.2090 C   0  0  0  0  0  2  0  0  0  0  0  0
  161.2830  208.2850  149.1930 C   0  0  2  0  0  3  0  0  0  0  0  0
  161.9500  205.0280  150.7290 C   0  0  1  0  0  3  0  0  0  0  0  0
  161.9540  207.1970  148.3650 C   0  0  0  0  0  2  0  0  0  0  0  0
  161.8760  209.6650  148.8560 C   0  0  0  0  0  2  0  0  0  0  0  0
  162.8620  206.1280  151.2010 C   0  0  0  0  0  0  0  0  0  0  0  0
  161.1670  205.8970  148.4580 C   0  0  1  0  0  3  0  0  0  0  0  0
  162.6800  210.2610  150.0110 C   0  0  0  0  0  2  0  0  0  0  0  0
  163.9980  205.8140  151.6380 O   0  0  0  0  0  0  0  0  0  0  0  0
  160.4760  210.0470  153.8430 N   0  0  0  0  0  2  0  0  0  0  0  0
  160.4710  207.7710  153.3180 O   0  0  0  0  0  0  0  0  0  0  0  0
  160.5940  208.9600  152.9220 C   0  0  0  0  0  0  0  0  0  0  0  0
  161.5390  209.5930  156.2370 O   0  0  0  0  0  0  0  0  0  0  0  0
  160.2240  209.8210  155.5390 S   0  0  0  0  0  0  0  0  0  0  0  0
  159.3260  208.6330  155.7510 O   0  0  0  0  0  0  0  0  0  0  0  0
  160.2720  212.2720  156.7500 C   0  0  0  0  0  3  0  0  0  0  0  0
  159.4740  211.2680  156.1880 C   0  0  0  0  0  0  0  0  0  0  0  0
  159.6830  213.4330  157.2590 C   0  0  0  0  0  3  0  0  0  0  0  0
  157.4950  212.5900  156.6490 C   0  0  0  0  0  3  0  0  0  0  0  0
  158.0840  211.4280  156.1420 C   0  0  0  0  0  3  0  0  0  0  0  0
  158.2950  213.5930  157.2060 C   0  0  0  0  0  3  0  0  0  0  0  0
  160.8510  205.3800  147.0660 C   0  0  0  0  0  2  0  0  0  0  0  0
  161.6280  204.1080  146.7890 C   0  0  0  0  0  1  0  0  0  0  0  0
  160.6470  205.1820  151.2120 O   0  0  0  0  0  0  0  0  0  0  0  0
  160.0720  203.9140  151.0960 C   0  0  0  0  0  2  0  0  0  0  0  0
  161.0580  202.8360  151.5190 C   0  0  0  0  0  2  0  0  0  0  0  0
  160.1380  201.8890  149.4100 C   0  0  0  0  0  1  0  0  0  0  0  0
  160.8860  201.5730  150.6910 C   0  0  0  0  0  2  0  0  0  0  0  0
  1 16  1  1  0  0  0
  2 10  1  0  0  0  0
  3  1  1  0  0  0  0
  4  2  1  1  0  0  0
  4  1  1  0  0  0  0
  5  7  1  0  0  0  0
  6  8  1  6  0  0  0
  6  4  1  0  0  0  0
  7 10  1  0  0  0  0
  7 28  1  6  0  0  0
  8 11  1  0  0  0  0
  9  6  1  0  0  0  0
  9 12  1  0  0  0  0
 10 13  2  0  0  0  0
 11 26  1  6  0  0  0
 11  5  1  0  0  0  0
 12  3  1  0  0  0  0
 14 18  1  0  0  0  0
 16 15  2  0  0  0  0
 16 14  1  0  0  0  0
 18 19  2  0  0  0  0
 18 21  1  0  0  0  0
 18 17  2  0  0  0  0
 20 22  1  0  0  0  0
 21 20  2  0  0  0  0
 23 25  1  0  0  0  0
 24 21  1  0  0  0  0
 24 23  2  0  0  0  0
 25 22  2  0  0  0  0
 27 26  1  0  0  0  0
 29 28  1  0  0  0  0
 29 30  1  0  0  0  0
 31 32  1  0  0  0  0
 32 30  1  0  0  0  0
M  END
>  <MODEL>
8

>  <REMARK>
 VINA RESULT:      -3.8      2.690      8.666
  Name = 
  8 active torsions:
  status: ('A' for Active; 'I' for Inactive)
    1  A    between atoms: C_1  and  C_27
    2  A    between atoms: C_7  and  S_22
    3  A    between atoms: C_9  and  C_12
    4  A    between atoms: C_9  and  C_31
    5  A    between atoms: O_10  and  C_12
    6  A    between atoms: O_10  and  C_17
    7  A    between atoms: C_13  and  C_29
    8  A    between atoms: N_16  and  S_22
                            x       y       z     vdW  Elec       q    Type
                         _______ _______ _______ _____ _____    ______ ____

>  <TORSDO>
F 8

$$$$
=
 OpenBabel11062408203D

 32 34  0  0  1  0  0  0  0  0999 V2000
  161.8090  204.3430  151.6190 C   0  0  1  0  0  3  0  0  0  0  0  0
  160.4480  205.4140  149.9150 O   0  0  0  0  0  0  0  0  0  0  0  0
  160.7330  203.3230  152.0260 C   0  0  0  0  0  2  0  0  0  0  0  0
  161.7030  204.7740  150.1520 C   0  0  2  0  0  3  0  0  0  0  0  0
  161.6200  206.1210  146.8850 C   0  0  0  0  0  2  0  0  0  0  0  0
  161.8820  203.5380  149.2460 C   0  0  2  0  0  3  0  0  0  0  0  0
  161.3670  206.9860  148.1230 C   0  0  1  0  0  3  0  0  0  0  0  0
  161.4990  203.7970  147.7950 C   0  0  0  0  0  2  0  0  0  0  0  0
  161.1920  202.2660  149.7690 C   0  0  0  0  0  2  0  0  0  0  0  0
  160.2620  206.4510  148.9930 C   0  0  0  0  0  0  0  0  0  0  0  0
  162.4110  204.8530  147.1840 C   0  0  1  0  0  3  0  0  0  0  0  0
  160.1370  202.5630  150.8350 C   0  0  0  0  0  2  0  0  0  0  0  0
  159.1150  206.9530  148.8730 O   0  0  0  0  0  0  0  0  0  0  0  0
  160.8570  205.6220  153.5870 N   0  0  0  0  0  2  0  0  0  0  0  0
  162.7570  206.3610  152.4450 O   0  0  0  0  0  0  0  0  0  0  0  0
  161.8440  205.5010  152.5590 C   0  0  0  0  0  0  0  0  0  0  0  0
  162.0090  206.9320  155.5940 O   0  0  0  0  0  0  0  0  0  0  0  0
  160.8050  206.9550  154.6890 S   0  0  0  0  0  0  0  0  0  0  0  0
  159.5500  206.8640  155.5140 O   0  0  0  0  0  0  0  0  0  0  0  0
  161.1830  209.6450  154.3810 C   0  0  0  0  0  3  0  0  0  0  0  0
  160.8120  208.4440  153.7630 C   0  0  0  0  0  0  0  0  0  0  0  0
  161.2020  210.8340  153.6460 C   0  0  0  0  0  3  0  0  0  0  0  0
  160.4770  209.6280  151.6740 C   0  0  0  0  0  3  0  0  0  0  0  0
  160.4560  208.4390  152.4090 C   0  0  0  0  0  3  0  0  0  0  0  0
  160.8520  210.8260  152.2930 C   0  0  0  0  0  3  0  0  0  0  0  0
  163.0190  204.3310  145.8940 C   0  0  0  0  0  2  0  0  0  0  0  0
  161.9270  203.9670  144.9080 C   0  0  0  0  0  1  0  0  0  0  0  0
  162.5410  207.2150  148.8470 O   0  0  0  0  0  0  0  0  0  0  0  0
  162.3640  208.4750  149.4260 C   0  0  0  0  0  2  0  0  0  0  0  0
  161.9700  209.4980  148.3710 C   0  0  0  0  0  2  0  0  0  0  0  0
  161.5890  211.9220  147.9540 C   0  0  0  0  0  1  0  0  0  0  0  0
  162.3250  210.9100  148.8110 C   0  0  0  0  0  2  0  0  0  0  0  0
  1  3  1  0  0  0  0
  1 16  1  1  0  0  0
  4  2  1  1  0  0  0
  4  1  1  0  0  0  0
  5 11  1  0  0  0  0
  5  7  1  0  0  0  0
  6  8  1  6  0  0  0
  6  9  1  0  0  0  0
  6  4  1  0  0  0  0
  7 28  1  1  0  0  0
  7 10  1  0  0  0  0
  9 12  1  0  0  0  0
 10  2  1  0  0  0  0
 11 26  1  6  0  0  0
 11  8  1  0  0  0  0
 12  3  1  0  0  0  0
 13 10  2  0  0  0  0
 14 18  1  0  0  0  0
 15 16  2  0  0  0  0
 16 14  1  0  0  0  0
 18 19  2  0  0  0  0
 18 17  2  0  0  0  0
 21 20  1  0  0  0  0
 21 18  1  0  0  0  0
 22 20  2  0  0  0  0
 23 25  2  0  0  0  0
 23 24  1  0  0  0  0
 24 21  2  0  0  0  0
 25 22  1  0  0  0  0
 27 26  1  0  0  0  0
 28 29  1  0  0  0  0
 30 32  1  0  0  0  0
 30 29  1  0  0  0  0
 31 32  1  0  0  0  0
M  END
>  <MODEL>
9

>  <REMARK>
 VINA RESULT:      -3.8      2.789      7.581
  Name = 
  8 active torsions:
  status: ('A' for Active; 'I' for Inactive)
    1  A    between atoms: C_1  and  C_27
    2  A    between atoms: C_7  and  S_22
    3  A    between atoms: C_9  and  C_12
    4  A    between atoms: C_9  and  C_31
    5  A    between atoms: O_10  and  C_12
    6  A    between atoms: O_10  and  C_17
    7  A    between atoms: C_13  and  C_29
    8  A    between atoms: N_16  and  S_22
                            x       y       z     vdW  Elec       q    Type
                         _______ _______ _______ _____ _____    ______ ____

>  <TORSDO>
F 8

$$$$
