=
 OpenBabel11062408593D

 55 59  0  0  1  0  0  0  0  0999 V2000
  160.8700  206.0650  154.1280 C   0  0  0  0  0  2  0  0  0  0  0  0
  163.5860  204.8100  152.8650 C   0  0  0  0  0  1  0  0  0  0  0  0
  161.2550  210.2290  154.9350 C   0  0  2  0  0  3  0  0  0  0  0  0
  162.2220  210.9540  150.9190 O   0  0  0  0  0  1  0  0  0  0  0  0
  163.3000  210.4240  153.7370 C   0  0  0  0  0  1  0  0  0  0  0  0
  161.6460  209.7200  151.2280 C   0  0  2  0  0  0  0  0  0  0  0  0
  161.4370  209.3830  152.7010 C   0  0  1  0  0  3  0  0  0  0  0  0
  162.7420  206.5840  151.3680 C   0  0  0  0  0  2  0  0  0  0  0  0
  162.2800  209.0860  156.7810 O   0  0  0  0  0  1  0  0  0  0  0  0
  161.8480  210.4560  153.6060 N   0  0  0  0  0  0  0  0  0  0  0  0
  161.7610  208.5980  150.1920 C   0  0  0  0  0  2  0  0  0  0  0  0
  159.9930  207.2550  154.4960 C   0  0  0  0  0  2  0  0  0  0  0  0
  160.2710  209.8630  151.8360 C   0  0  0  0  0  2  0  0  0  0  0  0
  162.1170  206.4980  153.6700 O   0  0  0  0  0  0  0  0  0  0  0  0
  162.3990  205.7010  152.5560 C   0  0  2  0  0  3  0  0  0  0  0  0
  161.6350  208.8630  155.5660 C   0  0  1  0  0  3  0  0  0  0  0  0
  161.4790  207.2080  150.7900 C   0  0  1  0  0  3  0  0  0  0  0  0
  160.4560  207.9150  155.7890 C   0  0  0  0  0  2  0  0  0  0  0  0
  160.7960  206.2830  149.8770 N   0  0  0  0  0  0  0  0  0  0  0  0
  160.3500  205.0820  150.5780 C   0  0  0  0  0  2  0  0  0  0  0  0
  160.9180  202.6620  150.2960 C   0  0  0  0  0  3  0  0  0  0  0  0
  161.0730  201.6560  148.0910 C   0  0  0  0  0  0  0  0  0  0  0  0
  160.4830  204.0010  148.3260 C   0  0  0  0  0  3  0  0  0  0  0  0
  160.7300  202.8890  147.5160 C   0  0  0  0  0  3  0  0  0  0  0  0
  161.1660  201.5510  149.4860 C   0  0  0  0  0  3  0  0  0  0  0  0
  160.5690  203.8860  149.7180 C   0  0  0  0  0  0  0  0  0  0  0  0
  161.3380  200.4840  147.2420 C   0  0  0  0  0  0  0  0  0  0  0  0
  161.7040  199.3930  147.7560 O   0  0  0  0  0  1  0  0  0  0  0  0
  161.1860  200.5690  145.8630 O   0  0  0  0  0  0  0  0  0  0  0  0
  161.7360  205.8790  148.8380 C   0  0  0  0  0  2  0  0  0  0  0  0
  160.0800  206.6060  147.3280 O   0  0  0  0  0  0  0  0  0  0  0  0
  161.2620  206.3660  147.5080 C   0  0  0  0  0  0  0  0  0  0  0  0
  162.2500  206.6000  146.4100 C   0  0  0  0  0  2  0  0  0  0  0  0
  162.4540  205.3550  145.6010 C   0  0  0  0  0  0  0  0  0  0  0  0
  163.4390  204.3990  146.0270 S   0  0  0  0  0  0  0  0  0  0  0  0
  160.5620  206.0440  144.3350 O   0  0  0  0  0  0  0  0  0  0  0  0
  161.5410  205.7870  143.3590 C   0  0  0  0  0  2  0  0  0  0  0  0
  161.4260  204.9580  144.5840 C   0  0  1  0  0  3  0  0  0  0  0  0
  159.8590  210.4290  154.8880 O   0  0  0  0  0  0  0  0  0  0  0  0
  157.2040  211.7840  155.9740 C   0  0  1  0  0  3  0  0  0  0  0  0
  159.4790  211.4310  155.8140 C   0  0  2  0  0  0  0  0  0  0  0  0
  158.9140  210.8390  156.9720 O   0  0  0  0  0  0  0  0  0  0  0  0
  156.6490  210.6420  155.3830 O   0  0  0  0  0  1  0  0  0  0  0  0
  157.7440  211.4360  157.2160 O   0  0  0  0  0  0  0  0  0  0  0  0
  158.3910  212.2880  155.2100 C   0  0  1  0  0  3  0  0  0  0  0  0
  157.4780  211.3370  153.0000 C   0  0  0  0  0  1  0  0  0  0  0  0
  159.0890  213.2170  153.0060 C   0  0  0  0  0  3  0  0  0  0  0  0
  158.3260  212.3550  153.6940 C   0  0  0  0  0  0  0  0  0  0  0  0
  160.0030  214.1220  150.9900 O   0  0  0  0  0  1  0  0  0  0  0  0
  159.1550  213.3700  151.5400 C   0  0  0  0  0  0  0  0  0  0  0  0
  158.2660  212.6560  150.7490 O   0  0  0  0  0  0  0  0  0  0  0  0
  160.6740  212.3170  156.1850 C   0  0  0  0  0  2  0  0  0  0  0  0
  161.4130  211.7530  157.2560 O   0  0  0  0  0  0  0  0  0  0  0  0
  162.7790  211.8010  157.2470 C   0  0  0  0  0  0  0  0  0  0  0  0
  163.9840  211.8450  157.2380 C   0  0  0  0  0  3  0  0  0  0  0  0
  1 12  1  0  0  0  0
  3 39  1  6  0  0  0
  3 16  1  0  0  0  0
  6  4  1  6  0  0  0
  6 13  1  0  0  0  0
  6  7  1  0  0  0  0
  7 13  1  6  0  0  0
  7 10  1  0  0  0  0
  8 15  1  0  0  0  0
 10  5  1  0  0  0  0
 10  3  1  0  0  0  0
 11 17  1  0  0  0  0
 11  6  1  0  0  0  0
 12 18  1  0  0  0  0
 14  1  1  0  0  0  0
 15  2  1  1  0  0  0
 15 14  1  0  0  0  0
 16 18  1  0  0  0  0
 16  9  1  1  0  0  0
 17 19  1  6  0  0  0
 17  8  1  0  0  0  0
 19 20  1  0  0  0  0
 22 25  1  0  0  0  0
 23 26  2  0  0  0  0
 24 22  2  0  0  0  0
 24 23  1  0  0  0  0
 25 21  2  0  0  0  0
 26 21  1  0  0  0  0
 26 20  1  0  0  0  0
 27 28  1  0  0  0  0
 27 22  1  0  0  0  0
 29 27  2  0  0  0  0
 30 19  1  0  0  0  0
 31 32  2  0  0  0  0
 32 30  1  0  0  0  0
 33 32  1  0  0  0  0
 34 35  2  0  0  0  0
 34 33  1  0  0  0  0
 36 38  1  0  0  0  0
 37 36  1  0  0  0  0
 37 38  1  0  0  0  0
 38 34  1  1  0  0  0
 39 41  1  0  0  0  0
 40 43  1  6  0  0  0
 40 44  1  0  0  0  0
 41 52  1  1  0  0  0
 41 42  1  0  0  0  0
 42 44  1  0  0  0  0
 45 48  1  6  0  0  0
 45 41  1  0  0  0  0
 45 40  1  0  0  0  0
 46 48  1  0  0  0  0
 47 48  2  0  0  0  0
 49 50  1  0  0  0  0
 50 47  1  0  0  0  0
 51 50  2  0  0  0  0
 52 53  1  0  0  0  0
 54 53  1  0  0  0  0
 55 54  3  0  0  0  0
M  END
>  <MODEL>
1

>  <REMARK>
 VINA RESULT:      -2.8      0.000      0.000
  Name = 
  16 active torsions:
  status: ('A' for Active; 'I' for Inactive)
    1  A    between atoms: C_6  and  O_8
    2  A    between atoms: C_6  and  C_46
    3  A    between atoms: C_7  and  O_8
    4  A    between atoms: C_10  and  C_32
    5  A    between atoms: C_11  and  C_29
    6  A    between atoms: C_12  and  O_14
    7  A    between atoms: O_14  and  C_46
    8  A    between atoms: C_27  and  C_31
    9  A    between atoms: C_27  and  C_55
   10  A    between atoms: C_28  and  C_44
   11  A    between atoms: C_28  and  N_49
   12  A    between atoms: C_31  and  C_44
   13  A    between atoms: C_33  and  N_49
   14  A    between atoms: C_33  and  C_52
   15  A    between atoms: C_38  and  C_53
   16  A    between atoms: C_45  and  N_49
                            x       y       z     vdW  Elec       q    Type
                         _______ _______ _______ _____ _____    ______ ____

>  <TORSDO>
F 16

$$$$
=
 OpenBabel11062408593D

 55 59  0  0  1  0  0  0  0  0999 V2000
  160.5090  206.4360  154.3060 C   0  0  0  0  0  2  0  0  0  0  0  0
  163.3220  205.0730  153.4240 C   0  0  0  0  0  1  0  0  0  0  0  0
  160.8490  210.6580  154.7620 C   0  0  2  0  0  3  0  0  0  0  0  0
  162.1930  211.0110  150.8040 O   0  0  0  0  0  1  0  0  0  0  0  0
  162.9980  210.7440  153.7480 C   0  0  0  0  0  1  0  0  0  0  0  0
  161.5810  209.8110  151.1690 C   0  0  2  0  0  0  0  0  0  0  0  0
  161.2320  209.6100  152.6410 C   0  0  1  0  0  3  0  0  0  0  0  0
  162.6360  206.7020  151.6980 C   0  0  0  0  0  2  0  0  0  0  0  0
  161.6880  209.6900  156.7920 O   0  0  0  0  0  1  0  0  0  0  0  0
  161.5650  210.7620  153.4790 N   0  0  0  0  0  0  0  0  0  0  0  0
  161.7830  208.5980  150.2560 C   0  0  0  0  0  2  0  0  0  0  0  0
  159.6110  207.6540  154.4790 C   0  0  0  0  0  2  0  0  0  0  0  0
  160.1560  210.0070  151.6300 C   0  0  0  0  0  2  0  0  0  0  0  0
  161.7970  206.8270  153.9300 O   0  0  0  0  0  0  0  0  0  0  0  0
  162.1760  205.9320  152.9250 C   0  0  2  0  0  3  0  0  0  0  0  0
  161.1570  209.3560  155.5470 C   0  0  1  0  0  3  0  0  0  0  0  0
  161.4370  207.2690  150.9500 C   0  0  1  0  0  3  0  0  0  0  0  0
  159.9560  208.4310  155.7450 C   0  0  0  0  0  2  0  0  0  0  0  0
  160.8360  206.2620  150.0650 N   0  0  0  0  0  0  0  0  0  0  0  0
  160.5570  205.0230  150.7870 C   0  0  0  0  0  2  0  0  0  0  0  0
  160.4900  203.9640  148.5220 C   0  0  0  0  0  3  0  0  0  0  0  0
  161.0940  201.6330  148.2070 C   0  0  0  0  0  0  0  0  0  0  0  0
  161.2080  202.6360  150.4160 C   0  0  0  0  0  3  0  0  0  0  0  0
  161.3710  201.5300  149.5780 C   0  0  0  0  0  3  0  0  0  0  0  0
  160.6510  202.8570  147.6860 C   0  0  0  0  0  3  0  0  0  0  0  0
  160.7740  203.8570  149.8870 C   0  0  0  0  0  0  0  0  0  0  0  0
  161.2610  200.4690  147.3210 C   0  0  0  0  0  0  0  0  0  0  0  0
  161.7560  199.3980  147.7610 O   0  0  0  0  0  1  0  0  0  0  0  0
  160.8710  200.5410  145.9890 O   0  0  0  0  0  0  0  0  0  0  0  0
  161.7790  205.9620  148.9950 C   0  0  0  0  0  2  0  0  0  0  0  0
  160.2680  207.1880  147.6660 O   0  0  0  0  0  0  0  0  0  0  0  0
  161.3680  206.6660  147.7440 C   0  0  0  0  0  0  0  0  0  0  0  0
  162.3280  206.7660  146.6020 C   0  0  0  0  0  2  0  0  0  0  0  0
  162.4400  205.4570  145.8820 C   0  0  0  0  0  0  0  0  0  0  0  0
  163.4390  204.5120  146.3020 S   0  0  0  0  0  0  0  0  0  0  0  0
  160.4680  206.0930  144.7160 O   0  0  0  0  0  0  0  0  0  0  0  0
  161.3580  205.7260  143.6910 C   0  0  0  0  0  2  0  0  0  0  0  0
  161.3230  205.0070  144.9880 C   0  0  1  0  0  3  0  0  0  0  0  0
  159.4650  210.8500  154.5650 O   0  0  0  0  0  0  0  0  0  0  0  0
  159.0360  213.4810  156.2870 C   0  0  1  0  0  3  0  0  0  0  0  0
  159.1900  212.2250  154.3570 C   0  0  2  0  0  0  0  0  0  0  0  0
  160.3540  212.9980  154.6000 O   0  0  0  0  0  0  0  0  0  0  0  0
  159.6350  212.6700  157.2590 O   0  0  0  0  0  1  0  0  0  0  0  0
  160.0290  213.9850  155.4410 O   0  0  0  0  0  0  0  0  0  0  0  0
  158.1620  212.6900  155.3620 C   0  0  1  0  0  3  0  0  0  0  0  0
  157.7350  210.8380  157.0950 C   0  0  0  0  0  1  0  0  0  0  0  0
  156.0560  211.3580  155.3520 C   0  0  0  0  0  3  0  0  0  0  0  0
  157.2310  211.6360  155.9360 C   0  0  0  0  0  0  0  0  0  0  0  0
  154.9590  209.2400  155.1800 O   0  0  0  0  0  0  0  0  0  0  0  0
  155.0720  210.3440  155.7760 C   0  0  0  0  0  0  0  0  0  0  0  0
  154.2590  210.6130  156.8690 O   0  0  0  0  0  1  0  0  0  0  0  0
  158.6610  212.4710  152.9390 C   0  0  0  0  0  2  0  0  0  0  0  0
  158.0570  213.7500  152.8360 O   0  0  0  0  0  0  0  0  0  0  0  0
  156.8920  213.9030  152.1380 C   0  0  0  0  0  0  0  0  0  0  0  0
  155.8620  214.0390  151.5250 C   0  0  0  0  0  3  0  0  0  0  0  0
  1 12  1  0  0  0  0
  3 39  1  6  0  0  0
  3 16  1  0  0  0  0
  6  4  1  6  0  0  0
  6 13  1  0  0  0  0
  6  7  1  0  0  0  0
  7 13  1  6  0  0  0
  7 10  1  0  0  0  0
  8 15  1  0  0  0  0
 10  5  1  0  0  0  0
 10  3  1  0  0  0  0
 11 17  1  0  0  0  0
 11  6  1  0  0  0  0
 12 18  1  0  0  0  0
 14  1  1  0  0  0  0
 15  2  1  1  0  0  0
 15 14  1  0  0  0  0
 16 18  1  0  0  0  0
 16  9  1  1  0  0  0
 17 19  1  6  0  0  0
 17  8  1  0  0  0  0
 19 20  1  0  0  0  0
 21 26  1  0  0  0  0
 22 24  2  0  0  0  0
 24 23  1  0  0  0  0
 25 22  1  0  0  0  0
 25 21  2  0  0  0  0
 26 23  2  0  0  0  0
 26 20  1  0  0  0  0
 27 28  1  0  0  0  0
 27 22  1  0  0  0  0
 29 27  2  0  0  0  0
 30 19  1  0  0  0  0
 31 32  2  0  0  0  0
 32 30  1  0  0  0  0
 33 32  1  0  0  0  0
 34 35  2  0  0  0  0
 34 33  1  0  0  0  0
 36 38  1  0  0  0  0
 37 36  1  0  0  0  0
 37 38  1  0  0  0  0
 38 34  1  1  0  0  0
 40 43  1  1  0  0  0
 41 52  1  6  0  0  0
 41 39  1  0  0  0  0
 41 42  1  0  0  0  0
 41 45  1  0  0  0  0
 42 44  1  0  0  0  0
 44 40  1  0  0  0  0
 45 48  1  1  0  0  0
 45 40  1  0  0  0  0
 47 50  1  0  0  0  0
 47 48  2  0  0  0  0
 48 46  1  0  0  0  0
 49 50  2  0  0  0  0
 50 51  1  0  0  0  0
 53 52  1  0  0  0  0
 54 53  1  0  0  0  0
 55 54  3  0  0  0  0
M  END
>  <MODEL>
2

>  <REMARK>
 VINA RESULT:      -2.4      1.202      3.050
  Name = 
  16 active torsions:
  status: ('A' for Active; 'I' for Inactive)
    1  A    between atoms: C_6  and  O_8
    2  A    between atoms: C_6  and  C_46
    3  A    between atoms: C_7  and  O_8
    4  A    between atoms: C_10  and  C_32
    5  A    between atoms: C_11  and  C_29
    6  A    between atoms: C_12  and  O_14
    7  A    between atoms: O_14  and  C_46
    8  A    between atoms: C_27  and  C_31
    9  A    between atoms: C_27  and  C_55
   10  A    between atoms: C_28  and  C_44
   11  A    between atoms: C_28  and  N_49
   12  A    between atoms: C_31  and  C_44
   13  A    between atoms: C_33  and  N_49
   14  A    between atoms: C_33  and  C_52
   15  A    between atoms: C_38  and  C_53
   16  A    between atoms: C_45  and  N_49
                            x       y       z     vdW  Elec       q    Type
                         _______ _______ _______ _____ _____    ______ ____

>  <TORSDO>
F 16

$$$$
=
 OpenBabel11062408593D

 55 59  0  0  1  0  0  0  0  0999 V2000
  161.0000  206.1620  153.6880 C   0  0  0  0  0  2  0  0  0  0  0  0
  163.9620  205.0980  152.8850 C   0  0  0  0  0  1  0  0  0  0  0  0
  160.9840  210.3260  154.5860 C   0  0  2  0  0  3  0  0  0  0  0  0
  162.5580  211.1850  150.7940 O   0  0  0  0  0  1  0  0  0  0  0  0
  163.1830  210.6670  153.7480 C   0  0  0  0  0  1  0  0  0  0  0  0
  162.0170  209.9140  150.9910 C   0  0  2  0  0  0  0  0  0  0  0  0
  161.5880  209.5360  152.4060 C   0  0  1  0  0  3  0  0  0  0  0  0
  163.2690  206.8480  151.2840 C   0  0  0  0  0  2  0  0  0  0  0  0
  161.7580  209.2110  156.5660 O   0  0  0  0  0  1  0  0  0  0  0  0
  161.7740  210.6140  153.3770 N   0  0  0  0  0  0  0  0  0  0  0  0
  162.3720  208.8210  149.9790 C   0  0  0  0  0  2  0  0  0  0  0  0
  160.0020  207.2900  153.9140 C   0  0  0  0  0  2  0  0  0  0  0  0
  160.5540  209.9620  151.3620 C   0  0  0  0  0  2  0  0  0  0  0  0
  162.2770  206.6790  153.4490 O   0  0  0  0  0  0  0  0  0  0  0  0
  162.7890  205.9220  152.3910 C   0  0  2  0  0  3  0  0  0  0  0  0
  161.3390  208.9740  155.2580 C   0  0  1  0  0  3  0  0  0  0  0  0
  162.0830  207.4050  150.5090 C   0  0  1  0  0  3  0  0  0  0  0  0
  160.2010  207.9520  155.2730 C   0  0  0  0  0  2  0  0  0  0  0  0
  161.6210  206.4580  149.4860 N   0  0  0  0  0  0  0  0  0  0  0  0
  161.5930  207.0790  148.1650 C   0  0  0  0  0  2  0  0  0  0  0  0
  160.1210  206.3930  146.2620 C   0  0  0  0  0  3  0  0  0  0  0  0
  160.2690  204.1690  145.2980 C   0  0  0  0  0  0  0  0  0  0  0  0
  161.7410  204.8110  147.1200 C   0  0  0  0  0  3  0  0  0  0  0  0
  161.3010  203.8590  146.1960 C   0  0  0  0  0  3  0  0  0  0  0  0
  159.6810  205.4410  145.3390 C   0  0  0  0  0  3  0  0  0  0  0  0
  161.1560  206.0810  147.1490 C   0  0  0  0  0  0  0  0  0  0  0  0
  159.8000  203.1690  144.3250 C   0  0  0  0  0  0  0  0  0  0  0  0
  159.1120  203.5200  143.3300 O   0  0  0  0  0  0  0  0  0  0  0  0
  160.1150  201.8250  144.4950 O   0  0  0  0  0  1  0  0  0  0  0  0
  160.2650  206.0390  149.8200 C   0  0  0  0  0  2  0  0  0  0  0  0
  159.4550  204.2960  151.1820 O   0  0  0  0  0  0  0  0  0  0  0  0
  160.2810  204.6450  150.3540 C   0  0  0  0  0  0  0  0  0  0  0  0
  161.2840  203.6650  149.8380 C   0  0  0  0  0  2  0  0  0  0  0  0
  161.1020  202.3250  150.4830 C   0  0  0  0  0  0  0  0  0  0  0  0
  161.2980  202.1990  151.9010 S   0  0  0  0  0  0  0  0  0  0  0  0
  160.1360  201.6590  148.4140 O   0  0  0  0  0  0  0  0  0  0  0  0
  161.2120  200.7700  148.5810 C   0  0  0  0  0  2  0  0  0  0  0  0
  160.3980  201.2340  149.7310 C   0  0  1  0  0  3  0  0  0  0  0  0
  159.6060  210.4420  154.3070 O   0  0  0  0  0  0  0  0  0  0  0  0
  159.0420  213.1260  155.9040 C   0  0  1  0  0  3  0  0  0  0  0  0
  159.2770  211.7930  154.0340 C   0  0  2  0  0  0  0  0  0  0  0  0
  160.4040  212.6250  154.2580 O   0  0  0  0  0  0  0  0  0  0  0  0
  159.6600  212.3850  156.9190 O   0  0  0  0  0  1  0  0  0  0  0  0
  160.0250  213.6340  155.0490 O   0  0  0  0  0  0  0  0  0  0  0  0
  158.2160  212.2590  155.0040 C   0  0  1  0  0  3  0  0  0  0  0  0
  157.9780  210.1570  156.4680 C   0  0  0  0  0  1  0  0  0  0  0  0
  156.0190  211.1190  155.3000 C   0  0  0  0  0  3  0  0  0  0  0  0
  157.3220  211.1920  155.6130 C   0  0  0  0  0  0  0  0  0  0  0  0
  154.4140  210.2880  156.8650 O   0  0  0  0  0  1  0  0  0  0  0  0
  155.0440  210.1250  155.7860 C   0  0  0  0  0  0  0  0  0  0  0  0
  154.8080  208.9880  155.0260 O   0  0  0  0  0  0  0  0  0  0  0  0
  158.7590  211.9540  152.6000 C   0  0  0  0  0  2  0  0  0  0  0  0
  158.7600  213.3170  152.2080 O   0  0  0  0  0  0  0  0  0  0  0  0
  159.5530  213.7330  151.1760 C   0  0  0  0  0  0  0  0  0  0  0  0
  160.2550  214.1000  150.2660 C   0  0  0  0  0  3  0  0  0  0  0  0
  1 12  1  0  0  0  0
  3 39  1  6  0  0  0
  3 16  1  0  0  0  0
  6  4  1  6  0  0  0
  6 13  1  0  0  0  0
  6  7  1  0  0  0  0
  7 13  1  6  0  0  0
  7 10  1  0  0  0  0
  8 15  1  0  0  0  0
 10  5  1  0  0  0  0
 10  3  1  0  0  0  0
 11 17  1  0  0  0  0
 11  6  1  0  0  0  0
 12 18  1  0  0  0  0
 14  1  1  0  0  0  0
 15  2  1  1  0  0  0
 15 14  1  0  0  0  0
 16 18  1  0  0  0  0
 16  9  1  1  0  0  0
 17 19  1  6  0  0  0
 17  8  1  0  0  0  0
 19 30  1  0  0  0  0
 20 19  1  0  0  0  0
 21 26  1  0  0  0  0
 22 25  1  0  0  0  0
 22 24  2  0  0  0  0
 23 26  2  0  0  0  0
 24 23  1  0  0  0  0
 25 21  2  0  0  0  0
 26 20  1  0  0  0  0
 27 29  1  0  0  0  0
 27 22  1  0  0  0  0
 28 27  2  0  0  0  0
 30 32  1  0  0  0  0
 32 31  2  0  0  0  0
 33 32  1  0  0  0  0
 33 34  1  0  0  0  0
 34 35  2  0  0  0  0
 36 37  1  0  0  0  0
 36 38  1  0  0  0  0
 37 38  1  0  0  0  0
 38 34  1  1  0  0  0
 40 43  1  1  0  0  0
 41 52  1  6  0  0  0
 41 42  1  0  0  0  0
 41 39  1  0  0  0  0
 41 45  1  0  0  0  0
 42 44  1  0  0  0  0
 44 40  1  0  0  0  0
 45 48  1  1  0  0  0
 45 40  1  0  0  0  0
 47 48  2  0  0  0  0
 47 50  1  0  0  0  0
 48 46  1  0  0  0  0
 50 49  1  0  0  0  0
 51 50  2  0  0  0  0
 53 52  1  0  0  0  0
 54 53  1  0  0  0  0
 55 54  3  0  0  0  0
M  END
>  <MODEL>
3

>  <REMARK>
 VINA RESULT:      -2.1      1.828      3.993
  Name = 
  16 active torsions:
  status: ('A' for Active; 'I' for Inactive)
    1  A    between atoms: C_6  and  O_8
    2  A    between atoms: C_6  and  C_46
    3  A    between atoms: C_7  and  O_8
    4  A    between atoms: C_10  and  C_32
    5  A    between atoms: C_11  and  C_29
    6  A    between atoms: C_12  and  O_14
    7  A    between atoms: O_14  and  C_46
    8  A    between atoms: C_27  and  C_31
    9  A    between atoms: C_27  and  C_55
   10  A    between atoms: C_28  and  C_44
   11  A    between atoms: C_28  and  N_49
   12  A    between atoms: C_31  and  C_44
   13  A    between atoms: C_33  and  N_49
   14  A    between atoms: C_33  and  C_52
   15  A    between atoms: C_38  and  C_53
   16  A    between atoms: C_45  and  N_49
                            x       y       z     vdW  Elec       q    Type
                         _______ _______ _______ _____ _____    ______ ____

>  <TORSDO>
F 16

$$$$
=
 OpenBabel11062408593D

 55 59  0  0  1  0  0  0  0  0999 V2000
  159.5050  207.2330  155.0400 C   0  0  0  0  0  2  0  0  0  0  0  0
  162.1440  205.3590  155.3130 C   0  0  0  0  0  1  0  0  0  0  0  0
  160.4870  211.3760  154.9420 C   0  0  2  0  0  3  0  0  0  0  0  0
  162.9570  210.7480  151.6120 O   0  0  0  0  0  1  0  0  0  0  0  0
  162.8130  210.9710  154.6640 C   0  0  0  0  0  1  0  0  0  0  0  0
  162.0520  209.7370  151.9390 C   0  0  2  0  0  0  0  0  0  0  0  0
  161.2620  209.8840  153.2360 C   0  0  1  0  0  3  0  0  0  0  0  0
  162.3040  206.6850  153.2350 C   0  0  0  0  0  2  0  0  0  0  0  0
  160.5060  210.7320  157.2550 O   0  0  0  0  0  1  0  0  0  0  0  0
  161.5490  211.1250  153.9530 N   0  0  0  0  0  0  0  0  0  0  0  0
  162.2780  208.3500  151.3300 C   0  0  0  0  0  2  0  0  0  0  0  0
  158.8410  208.5690  154.7340 C   0  0  0  0  0  2  0  0  0  0  0  0
  160.6180  210.2100  151.8870 C   0  0  0  0  0  2  0  0  0  0  0  0
  160.8960  207.3650  155.0390 O   0  0  0  0  0  0  0  0  0  0  0  0
  161.3730  206.2440  154.3530 C   0  0  2  0  0  3  0  0  0  0  0  0
  160.3050  210.2290  155.9710 C   0  0  1  0  0  3  0  0  0  0  0  0
  161.5020  207.2450  152.0680 C   0  0  1  0  0  3  0  0  0  0  0  0
  158.9460  209.5310  155.9120 C   0  0  0  0  0  2  0  0  0  0  0  0
  161.0030  206.1710  151.2000 N   0  0  0  0  0  0  0  0  0  0  0  0
  160.1380  206.7000  150.1480 C   0  0  0  0  0  2  0  0  0  0  0  0
  161.7000  205.3520  148.7340 C   0  0  0  0  0  3  0  0  0  0  0  0
  161.6210  205.4720  146.3090 C   0  0  0  0  0  0  0  0  0  0  0  0
  160.0630  206.7680  147.6490 C   0  0  0  0  0  3  0  0  0  0  0  0
  160.5540  206.3780  146.4000 C   0  0  0  0  0  3  0  0  0  0  0  0
  162.1910  204.9630  147.4850 C   0  0  0  0  0  3  0  0  0  0  0  0
  160.6310  206.2490  148.8170 C   0  0  0  0  0  0  0  0  0  0  0  0
  162.1430  205.0610  144.9960 C   0  0  0  0  0  0  0  0  0  0  0  0
  161.4860  205.2920  143.9470 O   0  0  0  0  0  0  0  0  0  0  0  0
  163.3710  204.4140  144.9020 O   0  0  0  0  0  1  0  0  0  0  0  0
  160.2210  205.2450  152.0090 C   0  0  0  0  0  2  0  0  0  0  0  0
  160.5830  202.9980  152.6200 O   0  0  0  0  0  0  0  0  0  0  0  0
  160.6580  203.8420  151.7420 C   0  0  0  0  0  0  0  0  0  0  0  0
  161.1460  203.4650  150.3800 C   0  0  0  0  0  2  0  0  0  0  0  0
  160.6120  202.1250  149.9740 C   0  0  0  0  0  0  0  0  0  0  0  0
  159.2480  202.0210  149.5310 S   0  0  0  0  0  0  0  0  0  0  0  0
  160.8660  199.9040  149.1630 O   0  0  0  0  0  0  0  0  0  0  0  0
  161.6150  200.6770  148.2590 C   0  0  0  0  0  2  0  0  0  0  0  0
  161.5660  200.9990  149.7060 C   0  0  1  0  0  3  0  0  0  0  0  0
  159.2810  211.7080  154.2890 O   0  0  0  0  0  0  0  0  0  0  0  0
  158.1160  213.7980  156.3740 C   0  0  1  0  0  3  0  0  0  0  0  0
  159.0470  213.1020  154.3790 C   0  0  2  0  0  0  0  0  0  0  0  0
  159.9960  213.7030  155.2450 O   0  0  0  0  0  0  0  0  0  0  0  0
  158.3360  212.7170  157.2360 O   0  0  0  0  0  1  0  0  0  0  0  0
  159.3330  214.4450  156.1370 O   0  0  0  0  0  0  0  0  0  0  0  0
  157.6950  213.3460  155.0090 C   0  0  1  0  0  3  0  0  0  0  0  0
  156.1210  211.9700  153.5090 C   0  0  0  0  0  1  0  0  0  0  0  0
  156.1750  211.6140  155.9590 C   0  0  0  0  0  3  0  0  0  0  0  0
  156.6620  212.2400  154.8760 C   0  0  0  0  0  0  0  0  0  0  0  0
  154.9060  209.8450  154.9700 O   0  0  0  0  0  0  0  0  0  0  0  0
  155.1530  210.5510  155.9840 C   0  0  0  0  0  0  0  0  0  0  0  0
  154.4560  210.3160  157.1610 O   0  0  0  0  0  1  0  0  0  0  0  0
  159.0860  213.7570  152.9930 C   0  0  0  0  0  2  0  0  0  0  0  0
  158.7310  212.8280  151.9810 O   0  0  0  0  0  0  0  0  0  0  0  0
  157.9930  213.2340  150.9060 C   0  0  0  0  0  0  0  0  0  0  0  0
  157.3420  213.5920  149.9550 C   0  0  0  0  0  3  0  0  0  0  0  0
  3 39  1  6  0  0  0
  3 16  1  0  0  0  0
  6  4  1  6  0  0  0
  6  7  1  0  0  0  0
  7 13  1  6  0  0  0
  7 10  1  0  0  0  0
  8 15  1  0  0  0  0
 10  5  1  0  0  0  0
 10  3  1  0  0  0  0
 11  6  1  0  0  0  0
 11 17  1  0  0  0  0
 12  1  1  0  0  0  0
 12 18  1  0  0  0  0
 13  6  1  0  0  0  0
 14  1  1  0  0  0  0
 15 14  1  0  0  0  0
 15  2  1  1  0  0  0
 16  9  1  1  0  0  0
 17 19  1  6  0  0  0
 17  8  1  0  0  0  0
 18 16  1  0  0  0  0
 19 30  1  0  0  0  0
 20 19  1  0  0  0  0
 21 26  1  0  0  0  0
 22 24  2  0  0  0  0
 22 25  1  0  0  0  0
 23 26  2  0  0  0  0
 24 23  1  0  0  0  0
 25 21  2  0  0  0  0
 26 20  1  0  0  0  0
 27 22  1  0  0  0  0
 28 27  2  0  0  0  0
 29 27  1  0  0  0  0
 32 30  1  0  0  0  0
 32 31  2  0  0  0  0
 33 32  1  0  0  0  0
 34 33  1  0  0  0  0
 35 34  2  0  0  0  0
 36 38  1  0  0  0  0
 37 36  1  0  0  0  0
 37 38  1  0  0  0  0
 38 34  1  6  0  0  0
 39 41  1  0  0  0  0
 40 43  1  1  0  0  0
 41 52  1  6  0  0  0
 41 45  1  0  0  0  0
 41 42  1  0  0  0  0
 42 44  1  0  0  0  0
 44 40  1  0  0  0  0
 45 48  1  1  0  0  0
 45 40  1  0  0  0  0
 46 48  1  0  0  0  0
 47 50  1  0  0  0  0
 48 47  2  0  0  0  0
 49 50  2  0  0  0  0
 50 51  1  0  0  0  0
 53 52  1  0  0  0  0
 54 53  1  0  0  0  0
 55 54  3  0  0  0  0
M  END
>  <MODEL>
4

>  <REMARK>
 VINA RESULT:      -0.3      1.835      4.288
  Name = 
  16 active torsions:
  status: ('A' for Active; 'I' for Inactive)
    1  A    between atoms: C_6  and  O_8
    2  A    between atoms: C_6  and  C_46
    3  A    between atoms: C_7  and  O_8
    4  A    between atoms: C_10  and  C_32
    5  A    between atoms: C_11  and  C_29
    6  A    between atoms: C_12  and  O_14
    7  A    between atoms: O_14  and  C_46
    8  A    between atoms: C_27  and  C_31
    9  A    between atoms: C_27  and  C_55
   10  A    between atoms: C_28  and  C_44
   11  A    between atoms: C_28  and  N_49
   12  A    between atoms: C_31  and  C_44
   13  A    between atoms: C_33  and  N_49
   14  A    between atoms: C_33  and  C_52
   15  A    between atoms: C_38  and  C_53
   16  A    between atoms: C_45  and  N_49
                            x       y       z     vdW  Elec       q    Type
                         _______ _______ _______ _____ _____    ______ ____

>  <TORSDO>
F 16

$$$$
