=
 OpenBabel11052421473D

 30 32  0  0  1  0  0  0  0  0999 V2000
  160.4840  209.6620  153.3400 C   0  0  1  0  0  3  0  0  0  0  0  0
  159.5630  211.8230  152.3590 C   0  0  2  0  0  3  0  0  0  0  0  0
  161.0190  210.0480  154.6380 N   0  0  0  0  0  2  0  0  0  0  0  0
  159.6490  213.4010  155.6790 C   0  0  0  0  0  3  0  0  0  0  0  0
  159.8160  212.2320  154.9270 C   0  0  0  0  0  0  0  0  0  0  0  0
  161.4900  211.4900  156.5230 C   0  0  0  0  0  3  0  0  0  0  0  0
  160.7530  211.2590  155.3560 C   0  0  0  0  0  0  0  0  0  0  0  0
  158.9200  212.0650  153.7350 C   0  0  2  0  0  3  0  0  0  0  0  0
  160.3950  213.6190  156.8370 C   0  0  0  0  0  3  0  0  0  0  0  0
  161.3160  212.6600  157.2610 C   0  0  0  0  0  3  0  0  0  0  0  0
  160.6870  210.7780  152.3030 C   0  0  2  0  0  3  0  0  0  0  0  0
  160.9240  207.1590  153.7070 C   0  0  0  0  0  0  0  0  0  0  0  0
  161.4960  205.9630  153.2620 C   0  0  0  0  0  3  0  0  0  0  0  0
  160.0650  207.1380  155.2410 Cl  0  0  0  0  0  0  0  0  0  0  0  0
  161.7580  208.2760  151.7190 C   0  0  0  0  0  3  0  0  0  0  0  0
  163.0040  207.0370  150.1100 F   0  0  0  0  0  0  0  0  0  0  0  0
  161.0540  208.3310  152.9270 C   0  0  0  0  0  0  0  0  0  0  0  0
  162.1950  205.9210  152.0530 C   0  0  0  0  0  3  0  0  0  0  0  0
  162.3260  207.0770  151.2820 C   0  0  0  0  0  0  0  0  0  0  0  0
  156.3840  212.3940  153.9000 C   0  0  0  0  0  1  0  0  0  0  0  0
  157.5520  211.4310  154.0210 C   0  0  2  0  0  3  0  0  0  0  0  0
  157.5260  210.6810  155.3490 C   0  0  0  0  0  2  0  0  0  0  0  0
  156.6730  211.3050  156.2630 O   0  0  0  0  0  1  0  0  0  0  0  0
  160.7400  210.2440  150.9870 O   0  0  0  0  0  0  0  0  0  0  0  0
  162.3090  211.2670  149.2250 C   0  0  0  0  0  3  0  0  0  0  0  0
  161.5740  210.7890  150.0510 C   0  0  0  0  0  0  0  0  0  0  0  0
  160.0370  213.1540  151.7930 C   0  0  0  0  0  2  0  0  0  0  0  0
  159.8720  213.9370  149.5740 O   0  0  0  0  0  0  0  0  0  0  0  0
  159.2810  213.5230  150.5580 C   0  0  0  0  0  0  0  0  0  0  0  0
  157.8030  213.3440  150.5130 C   0  0  0  0  0  1  0  0  0  0  0  0
  1 17  1  6  0  0  0
  1  3  1  0  0  0  0
  2 27  1  1  0  0  0
  2  8  1  0  0  0  0
  3  7  1  0  0  0  0
  4  9  1  0  0  0  0
  5  7  1  0  0  0  0
  5  4  2  0  0  0  0
  6 10  1  0  0  0  0
  7  6  2  0  0  0  0
  8 21  1  1  0  0  0
  8  5  1  0  0  0  0
  9 10  2  0  0  0  0
 11 24  1  6  0  0  0
 11  2  1  0  0  0  0
 11  1  1  0  0  0  0
 12 14  1  0  0  0  0
 13 12  1  0  0  0  0
 15 17  1  0  0  0  0
 16 19  1  0  0  0  0
 17 12  2  0  0  0  0
 18 13  2  0  0  0  0
 19 15  2  0  0  0  0
 19 18  1  0  0  0  0
 21 20  1  1  0  0  0
 21 22  1  0  0  0  0
 22 23  1  0  0  0  0
 25 26  3  0  0  0  0
 26 24  1  0  0  0  0
 28 29  2  0  0  0  0
 29 27  1  0  0  0  0
 30 29  1  0  0  0  0
M  END
>  <MODEL>
1

>  <REMARK>
 VINA RESULT:      -3.7      0.000      0.000
  Name = 
  7 active torsions:
  status: ('A' for Active; 'I' for Inactive)
    1  A    between atoms: C_1  and  C_22
    2  A    between atoms: C_4  and  C_25
    3  A    between atoms: C_7  and  C_30
    4  A    between atoms: O_10  and  C_23
    5  A    between atoms: O_10  and  C_26
    6  A    between atoms: C_11  and  C_25
    7  A    between atoms: C_13  and  C_30
                            x       y       z     vdW  Elec       q    Type
                         _______ _______ _______ _____ _____    ______ ____

>  <TORSDO>
F 7

$$$$
=
 OpenBabel11052421473D

 30 32  0  0  1  0  0  0  0  0999 V2000
  160.6950  210.8370  152.4090 C   0  0  1  0  0  3  0  0  0  0  0  0
  160.9380  209.1920  154.3360 C   0  0  2  0  0  3  0  0  0  0  0  0
  159.3960  211.4600  152.6220 N   0  0  0  0  0  2  0  0  0  0  0  0
  158.2220  210.8740  156.1550 C   0  0  0  0  0  3  0  0  0  0  0  0
  159.0710  210.8770  155.0410 C   0  0  0  0  0  0  0  0  0  0  0  0
  157.3270  211.9830  153.7620 C   0  0  0  0  0  3  0  0  0  0  0  0
  158.6160  211.4410  153.8240 C   0  0  0  0  0  0  0  0  0  0  0  0
  160.4530  210.3300  155.2480 C   0  0  2  0  0  3  0  0  0  0  0  0
  156.9380  211.4140  156.0770 C   0  0  0  0  0  3  0  0  0  0  0  0
  156.4910  211.9710  154.8790 C   0  0  0  0  0  3  0  0  0  0  0  0
  160.6750  209.3600  152.8320 C   0  0  2  0  0  3  0  0  0  0  0  0
  160.9600  212.2860  150.3060 C   0  0  0  0  0  0  0  0  0  0  0  0
  161.3900  212.4110  148.9800 C   0  0  0  0  0  3  0  0  0  0  0  0
  160.1970  213.6810  151.0580 Cl  0  0  0  0  0  0  0  0  0  0  0  0
  161.7500  209.9900  150.3250 C   0  0  0  0  0  3  0  0  0  0  0  0
  162.7650  209.0800  148.3710 F   0  0  0  0  0  0  0  0  0  0  0  0
  161.1420  211.0610  150.9890 C   0  0  0  0  0  0  0  0  0  0  0  0
  161.9970  211.3340  148.3300 C   0  0  0  0  0  3  0  0  0  0  0  0
  162.1770  210.1240  149.0020 C   0  0  0  0  0  0  0  0  0  0  0  0
  162.9260  210.8650  155.6520 C   0  0  0  0  0  1  0  0  0  0  0  0
  161.4880  211.3350  155.7720 C   0  0  2  0  0  3  0  0  0  0  0  0
  161.1690  211.8130  157.1860 C   0  0  0  0  0  2  0  0  0  0  0  0
  160.7210  213.1360  157.1800 O   0  0  0  0  0  1  0  0  0  0  0  0
  161.6520  208.6150  152.1180 O   0  0  0  0  0  0  0  0  0  0  0  0
  161.2620  206.1290  151.5830 C   0  0  0  0  0  3  0  0  0  0  0  0
  161.4450  207.2940  151.8320 C   0  0  0  0  0  0  0  0  0  0  0  0
  160.3630  207.8750  154.8380 C   0  0  0  0  0  2  0  0  0  0  0  0
  162.0480  207.7560  156.4850 O   0  0  0  0  0  0  0  0  0  0  0  0
  160.8830  207.5350  156.1980 C   0  0  0  0  0  0  0  0  0  0  0  0
  159.9640  206.9620  157.2210 C   0  0  0  0  0  1  0  0  0  0  0  0
  1 17  1  6  0  0  0
  1  3  1  0  0  0  0
  1 11  1  0  0  0  0
  2 27  1  1  0  0  0
  2  8  1  0  0  0  0
  3  7  1  0  0  0  0
  5  8  1  0  0  0  0
  5  4  2  0  0  0  0
  6  7  2  0  0  0  0
  6 10  1  0  0  0  0
  7  5  1  0  0  0  0
  8 21  1  6  0  0  0
  9  4  1  0  0  0  0
 10  9  2  0  0  0  0
 11 24  1  6  0  0  0
 11  2  1  0  0  0  0
 12 17  1  0  0  0  0
 12 14  1  0  0  0  0
 13 12  2  0  0  0  0
 15 17  2  0  0  0  0
 16 19  1  0  0  0  0
 18 13  1  0  0  0  0
 18 19  2  0  0  0  0
 19 15  1  0  0  0  0
 21 20  1  1  0  0  0
 21 22  1  0  0  0  0
 23 22  1  0  0  0  0
 25 26  3  0  0  0  0
 26 24  1  0  0  0  0
 27 29  1  0  0  0  0
 29 28  2  0  0  0  0
 29 30  1  0  0  0  0
M  END
>  <MODEL>
2

>  <REMARK>
 VINA RESULT:      -3.4      2.527      5.196
  Name = 
  7 active torsions:
  status: ('A' for Active; 'I' for Inactive)
    1  A    between atoms: C_1  and  C_22
    2  A    between atoms: C_4  and  C_25
    3  A    between atoms: C_7  and  C_30
    4  A    between atoms: O_10  and  C_23
    5  A    between atoms: O_10  and  C_26
    6  A    between atoms: C_11  and  C_25
    7  A    between atoms: C_13  and  C_30
                            x       y       z     vdW  Elec       q    Type
                         _______ _______ _______ _____ _____    ______ ____

>  <TORSDO>
F 7

$$$$
=
 OpenBabel11052421473D

 30 32  0  0  1  0  0  0  0  0999 V2000
  159.0050  211.4240  154.8010 C   0  0  1  0  0  3  0  0  0  0  0  0
  160.5150  210.3690  153.0450 C   0  0  2  0  0  3  0  0  0  0  0  0
  158.8650  210.3990  155.8270 N   0  0  0  0  0  2  0  0  0  0  0  0
  161.5530  207.7850  155.4460 C   0  0  0  0  0  3  0  0  0  0  0  0
  160.8390  208.9690  155.2270 C   0  0  0  0  0  0  0  0  0  0  0  0
  159.2770  208.3040  156.9650 C   0  0  0  0  0  3  0  0  0  0  0  0
  159.6810  209.2340  155.9990 C   0  0  0  0  0  0  0  0  0  0  0  0
  161.4070  209.9200  154.2140 C   0  0  2  0  0  3  0  0  0  0  0  0
  161.1350  206.8660  156.4090 C   0  0  0  0  0  3  0  0  0  0  0  0
  159.9970  207.1270  157.1710 C   0  0  0  0  0  3  0  0  0  0  0  0
  159.0840  210.7970  153.4010 C   0  0  2  0  0  3  0  0  0  0  0  0
  158.0030  213.5480  155.8380 C   0  0  0  0  0  0  0  0  0  0  0  0
  156.9380  214.4510  155.9320 C   0  0  0  0  0  3  0  0  0  0  0  0
  159.4140  213.8330  156.8480 Cl  0  0  0  0  0  0  0  0  0  0  0  0
  156.7560  212.2810  154.1840 C   0  0  0  0  0  3  0  0  0  0  0  0
  154.5850  213.0140  153.5340 F   0  0  0  0  0  0  0  0  0  0  0  0
  157.9130  212.4490  154.9520 C   0  0  0  0  0  0  0  0  0  0  0  0
  155.7900  214.2720  155.1570 C   0  0  0  0  0  3  0  0  0  0  0  0
  155.6990  213.1880  154.2840 C   0  0  0  0  0  0  0  0  0  0  0  0
  163.8490  210.6920  154.1840 C   0  0  0  0  0  1  0  0  0  0  0  0
  162.4570  210.9030  154.7490 C   0  0  2  0  0  3  0  0  0  0  0  0
  162.4730  210.9640  156.2740 C   0  0  0  0  0  2  0  0  0  0  0  0
  163.7810  210.9470  156.7630 O   0  0  0  0  0  1  0  0  0  0  0  0
  158.6280  211.7090  152.4100 O   0  0  0  0  0  0  0  0  0  0  0  0
  160.2880  213.2650  151.2120 C   0  0  0  0  0  3  0  0  0  0  0  0
  159.5100  212.5360  151.7720 C   0  0  0  0  0  0  0  0  0  0  0  0
  160.5020  209.2760  151.9840 C   0  0  0  0  0  2  0  0  0  0  0  0
  162.3880  210.2250  150.9310 O   0  0  0  0  0  0  0  0  0  0  0  0
  161.8070  209.2030  151.2600 C   0  0  0  0  0  0  0  0  0  0  0  0
  162.4230  207.8770  150.9740 C   0  0  0  0  0  1  0  0  0  0  0  0
  1 17  1  6  0  0  0
  1  3  1  0  0  0  0
  2 27  1  6  0  0  0
  2 11  1  0  0  0  0
  2  8  1  0  0  0  0
  3  7  1  0  0  0  0
  4  9  1  0  0  0  0
  5  4  2  0  0  0  0
  5  7  1  0  0  0  0
  6 10  1  0  0  0  0
  7  6  2  0  0  0  0
  8 21  1  1  0  0  0
  8  5  1  0  0  0  0
  9 10  2  0  0  0  0
 11 24  1  6  0  0  0
 11  1  1  0  0  0  0
 12 13  1  0  0  0  0
 12 14  1  0  0  0  0
 15 19  2  0  0  0  0
 15 17  1  0  0  0  0
 16 19  1  0  0  0  0
 17 12  2  0  0  0  0
 18 13  2  0  0  0  0
 19 18  1  0  0  0  0
 21 20  1  1  0  0  0
 21 22  1  0  0  0  0
 22 23  1  0  0  0  0
 25 26  3  0  0  0  0
 26 24  1  0  0  0  0
 28 29  2  0  0  0  0
 29 27  1  0  0  0  0
 30 29  1  0  0  0  0
M  END
>  <MODEL>
3

>  <REMARK>
 VINA RESULT:      -2.4      3.258      6.034
  Name = 
  7 active torsions:
  status: ('A' for Active; 'I' for Inactive)
    1  A    between atoms: C_1  and  C_22
    2  A    between atoms: C_4  and  C_25
    3  A    between atoms: C_7  and  C_30
    4  A    between atoms: O_10  and  C_23
    5  A    between atoms: O_10  and  C_26
    6  A    between atoms: C_11  and  C_25
    7  A    between atoms: C_13  and  C_30
                            x       y       z     vdW  Elec       q    Type
                         _______ _______ _______ _____ _____    ______ ____

>  <TORSDO>
F 7

$$$$
=
 OpenBabel11052421473D

 30 32  0  0  1  0  0  0  0  0999 V2000
  160.7930  207.6830  152.0590 C   0  0  1  0  0  3  0  0  0  0  0  0
  161.6600  209.9130  152.9270 C   0  0  2  0  0  3  0  0  0  0  0  0
  160.4780  206.9210  153.2600 N   0  0  0  0  0  2  0  0  0  0  0  0
  160.2370  209.2110  156.2440 C   0  0  0  0  0  3  0  0  0  0  0  0
  160.3610  208.8110  154.9070 C   0  0  0  0  0  0  0  0  0  0  0  0
  160.1660  206.4970  155.6210 C   0  0  0  0  0  3  0  0  0  0  0  0
  160.3250  207.4300  154.5910 C   0  0  0  0  0  0  0  0  0  0  0  0
  160.4570  209.9040  153.8840 C   0  0  2  0  0  3  0  0  0  0  0  0
  160.0840  208.2680  157.2610 C   0  0  0  0  0  3  0  0  0  0  0  0
  160.0460  206.9090  156.9480 C   0  0  0  0  0  3  0  0  0  0  0  0
  162.0280  208.5710  152.2760 C   0  0  2  0  0  3  0  0  0  0  0  0
  161.0950  205.3590  151.0100 C   0  0  0  0  0  0  0  0  0  0  0  0
  161.2060  204.5650  149.8640 C   0  0  0  0  0  3  0  0  0  0  0  0
  161.2060  204.5650  152.5750 Cl  0  0  0  0  0  0  0  0  0  0  0  0
  160.8340  207.3200  149.6020 C   0  0  0  0  0  3  0  0  0  0  0  0
  160.8730  207.0790  147.2320 F   0  0  0  0  0  0  0  0  0  0  0  0
  160.9060  206.7540  150.8800 C   0  0  0  0  0  0  0  0  0  0  0  0
  161.1310  205.1420  148.5940 C   0  0  0  0  0  3  0  0  0  0  0  0
  160.9450  206.5190  148.4640 C   0  0  0  0  0  0  0  0  0  0  0  0
  159.2440  211.4470  152.2370 C   0  0  0  0  0  1  0  0  0  0  0  0
  159.1170  210.4490  153.3740 C   0  0  2  0  0  3  0  0  0  0  0  0
  158.2430  210.9920  154.5010 C   0  0  0  0  0  2  0  0  0  0  0  0
  157.4790  212.0780  154.0670 O   0  0  0  0  0  1  0  0  0  0  0  0
  162.6860  208.8340  151.0450 O   0  0  0  0  0  0  0  0  0  0  0  0
  162.0170  210.8680  149.6200 C   0  0  0  0  0  3  0  0  0  0  0  0
  162.3310  209.9150  150.2860 C   0  0  0  0  0  0  0  0  0  0  0  0
  162.8620  210.5080  153.6480 C   0  0  0  0  0  2  0  0  0  0  0  0
  161.5190  211.8330  155.0630 O   0  0  0  0  0  0  0  0  0  0  0  0
  162.4760  211.0810  154.9730 C   0  0  0  0  0  0  0  0  0  0  0  0
  163.2370  210.7010  156.1960 C   0  0  0  0  0  1  0  0  0  0  0  0
  1 17  1  6  0  0  0
  1 11  1  0  0  0  0
  1  3  1  0  0  0  0
  2 27  1  1  0  0  0
  2  8  1  0  0  0  0
  3  7  1  0  0  0  0
  4  9  1  0  0  0  0
  5  4  2  0  0  0  0
  6 10  1  0  0  0  0
  7  5  1  0  0  0  0
  7  6  2  0  0  0  0
  8 21  1  6  0  0  0
  8  5  1  0  0  0  0
 10  9  2  0  0  0  0
 11 24  1  6  0  0  0
 11  2  1  0  0  0  0
 12 14  1  0  0  0  0
 13 12  2  0  0  0  0
 15 17  2  0  0  0  0
 16 19  1  0  0  0  0
 17 12  1  0  0  0  0
 18 13  1  0  0  0  0
 19 18  2  0  0  0  0
 19 15  1  0  0  0  0
 21 20  1  6  0  0  0
 21 22  1  0  0  0  0
 23 22  1  0  0  0  0
 25 26  3  0  0  0  0
 26 24  1  0  0  0  0
 27 29  1  0  0  0  0
 29 28  2  0  0  0  0
 29 30  1  0  0  0  0
M  END
>  <MODEL>
4

>  <REMARK>
 VINA RESULT:      -2.4      2.399      3.899
  Name = 
  7 active torsions:
  status: ('A' for Active; 'I' for Inactive)
    1  A    between atoms: C_1  and  C_22
    2  A    between atoms: C_4  and  C_25
    3  A    between atoms: C_7  and  C_30
    4  A    between atoms: O_10  and  C_23
    5  A    between atoms: O_10  and  C_26
    6  A    between atoms: C_11  and  C_25
    7  A    between atoms: C_13  and  C_30
                            x       y       z     vdW  Elec       q    Type
                         _______ _______ _______ _____ _____    ______ ____

>  <TORSDO>
F 7

$$$$
=
 OpenBabel11052421473D

 30 32  0  0  1  0  0  0  0  0999 V2000
  159.8130  210.7160  153.4150 C   0  0  1  0  0  3  0  0  0  0  0  0
  160.8770  209.8310  155.5520 C   0  0  2  0  0  3  0  0  0  0  0  0
  160.2920  209.8200  152.3710 N   0  0  0  0  0  2  0  0  0  0  0  0
  161.6570  206.6500  153.8820 C   0  0  0  0  0  3  0  0  0  0  0  0
  161.0190  207.8940  153.8050 C   0  0  0  0  0  0  0  0  0  0  0  0
  161.4150  207.9060  151.4090 C   0  0  0  0  0  3  0  0  0  0  0  0
  160.8960  208.5330  152.5470 C   0  0  0  0  0  0  0  0  0  0  0  0
  160.4420  208.4340  155.0810 C   0  0  2  0  0  3  0  0  0  0  0  0
  162.1740  206.0390  152.7390 C   0  0  0  0  0  3  0  0  0  0  0  0
  162.0510  206.6680  151.5000 C   0  0  0  0  0  3  0  0  0  0  0  0
  160.8910  210.9390  154.4880 C   0  0  2  0  0  3  0  0  0  0  0  0
  158.0540  212.5680  153.1620 C   0  0  0  0  0  0  0  0  0  0  0  0
  157.6290  213.7430  152.5310 C   0  0  0  0  0  3  0  0  0  0  0  0
  157.0040  211.8660  154.3860 Cl  0  0  0  0  0  0  0  0  0  0  0  0
  160.0710  212.5950  151.8110 C   0  0  0  0  0  3  0  0  0  0  0  0
  160.4060  214.3480  150.2330 F   0  0  0  0  0  0  0  0  0  0  0  0
  159.2900  211.9860  152.7990 C   0  0  0  0  0  0  0  0  0  0  0  0
  158.4200  214.3420  151.5470 C   0  0  0  0  0  3  0  0  0  0  0  0
  159.6400  213.7680  151.1880 C   0  0  0  0  0  0  0  0  0  0  0  0
  158.0570  209.0880  155.7500 C   0  0  0  0  0  1  0  0  0  0  0  0
  159.0200  207.9640  155.4120 C   0  0  2  0  0  3  0  0  0  0  0  0
  159.0020  206.8710  156.4760 C   0  0  0  0  0  2  0  0  0  0  0  0
  160.2300  206.7910  157.1360 O   0  0  0  0  0  1  0  0  0  0  0  0
  160.7070  212.1900  155.1380 O   0  0  0  0  0  0  0  0  0  0  0  0
  159.2560  212.3540  157.2550 C   0  0  0  0  0  3  0  0  0  0  0  0
  159.9360  212.2780  156.2640 C   0  0  0  0  0  0  0  0  0  0  0  0
  162.2350  209.7240  156.2330 C   0  0  0  0  0  2  0  0  0  0  0  0
  163.3720  210.7010  154.4120 O   0  0  0  0  0  0  0  0  0  0  0  0
  163.2280  210.6600  155.6230 C   0  0  0  0  0  0  0  0  0  0  0  0
  164.0160  211.5760  156.4930 C   0  0  0  0  0  1  0  0  0  0  0  0
  1 17  1  6  0  0  0
  1 11  1  0  0  0  0
  2 27  1  6  0  0  0
  3  7  1  0  0  0  0
  3  1  1  0  0  0  0
  5  4  1  0  0  0  0
  5  8  1  0  0  0  0
  6 10  2  0  0  0  0
  6  7  1  0  0  0  0
  7  5  2  0  0  0  0
  8 21  1  6  0  0  0
  8  2  1  0  0  0  0
  9  4  2  0  0  0  0
 10  9  1  0  0  0  0
 11 24  1  1  0  0  0
 11  2  1  0  0  0  0
 12 14  1  0  0  0  0
 13 12  2  0  0  0  0
 15 17  2  0  0  0  0
 16 19  1  0  0  0  0
 17 12  1  0  0  0  0
 18 13  1  0  0  0  0
 19 18  2  0  0  0  0
 19 15  1  0  0  0  0
 21 20  1  1  0  0  0
 21 22  1  0  0  0  0
 22 23  1  0  0  0  0
 24 26  1  0  0  0  0
 26 25  3  0  0  0  0
 28 29  2  0  0  0  0
 29 27  1  0  0  0  0
 29 30  1  0  0  0  0
M  END
>  <MODEL>
5

>  <REMARK>
 VINA RESULT:      -2.3      2.772      6.156
  Name = 
  7 active torsions:
  status: ('A' for Active; 'I' for Inactive)
    1  A    between atoms: C_1  and  C_22
    2  A    between atoms: C_4  and  C_25
    3  A    between atoms: C_7  and  C_30
    4  A    between atoms: O_10  and  C_23
    5  A    between atoms: O_10  and  C_26
    6  A    between atoms: C_11  and  C_25
    7  A    between atoms: C_13  and  C_30
                            x       y       z     vdW  Elec       q    Type
                         _______ _______ _______ _____ _____    ______ ____

>  <TORSDO>
F 7

$$$$
=
 OpenBabel11052421473D

 30 32  0  0  1  0  0  0  0  0999 V2000
  161.0450  209.9040  152.3140 C   0  0  1  0  0  3  0  0  0  0  0  0
  160.9890  208.7830  154.5980 C   0  0  2  0  0  3  0  0  0  0  0  0
  159.8810  210.7800  152.3080 N   0  0  0  0  0  2  0  0  0  0  0  0
  158.6240  211.3190  155.8190 C   0  0  0  0  0  3  0  0  0  0  0  0
  159.4580  210.8920  154.7790 C   0  0  0  0  0  0  0  0  0  0  0  0
  157.9420  211.9270  153.1880 C   0  0  0  0  0  3  0  0  0  0  0  0
  159.1110  211.2010  153.4410 C   0  0  0  0  0  0  0  0  0  0  0  0
  160.7190  210.1810  155.1760 C   0  0  2  0  0  3  0  0  0  0  0  0
  157.4590  212.0390  155.5520 C   0  0  0  0  0  3  0  0  0  0  0  0
  157.1190  212.3450  154.2340 C   0  0  0  0  0  3  0  0  0  0  0  0
  160.7590  208.6090  153.0890 C   0  0  2  0  0  3  0  0  0  0  0  0
  161.6280  210.7190  149.9500 C   0  0  0  0  0  0  0  0  0  0  0  0
  162.0680  210.4280  148.6540 C   0  0  0  0  0  3  0  0  0  0  0  0
  161.2160  212.3870  150.3230 Cl  0  0  0  0  0  0  0  0  0  0  0  0
  161.8630  208.3740  150.5360 C   0  0  0  0  0  3  0  0  0  0  0  0
  162.6270  206.8240  148.8960 F   0  0  0  0  0  0  0  0  0  0  0  0
  161.5240  209.6810  150.9040 C   0  0  0  0  0  0  0  0  0  0  0  0
  162.4040  209.1190  148.3000 C   0  0  0  0  0  3  0  0  0  0  0  0
  162.3010  208.0940  149.2400 C   0  0  0  0  0  0  0  0  0  0  0  0
  163.1900  210.7030  154.7460 C   0  0  0  0  0  1  0  0  0  0  0  0
  161.9190  211.0880  155.4800 C   0  0  2  0  0  3  0  0  0  0  0  0
  162.1620  211.2470  156.9780 C   0  0  0  0  0  2  0  0  0  0  0  0
  163.5190  211.4430  157.2490 O   0  0  0  0  0  1  0  0  0  0  0  0
  161.5850  207.5490  152.6280 O   0  0  0  0  0  0  0  0  0  0  0  0
  160.8900  205.0990  152.9920 C   0  0  0  0  0  3  0  0  0  0  0  0
  161.2150  206.2470  152.8230 C   0  0  0  0  0  0  0  0  0  0  0  0
  160.1850  207.7570  155.3860 C   0  0  0  0  0  2  0  0  0  0  0  0
  160.5620  206.3760  157.2610 O   0  0  0  0  0  0  0  0  0  0  0  0
  160.8660  207.3980  156.6670 C   0  0  0  0  0  0  0  0  0  0  0  0
  161.9480  208.2700  157.2020 C   0  0  0  0  0  1  0  0  0  0  0  0
  1 17  1  6  0  0  0
  1 11  1  0  0  0  0
  2  8  1  0  0  0  0
  2 27  1  1  0  0  0
  3  1  1  0  0  0  0
  3  7  1  0  0  0  0
  5  8  1  0  0  0  0
  5  4  2  0  0  0  0
  6  7  2  0  0  0  0
  6 10  1  0  0  0  0
  7  5  1  0  0  0  0
  8 21  1  6  0  0  0
  9  4  1  0  0  0  0
 10  9  2  0  0  0  0
 11 24  1  6  0  0  0
 11  2  1  0  0  0  0
 12 14  1  0  0  0  0
 12 17  1  0  0  0  0
 13 12  2  0  0  0  0
 15 17  2  0  0  0  0
 16 19  1  0  0  0  0
 18 13  1  0  0  0  0
 18 19  2  0  0  0  0
 19 15  1  0  0  0  0
 21 20  1  6  0  0  0
 21 22  1  0  0  0  0
 22 23  1  0  0  0  0
 24 26  1  0  0  0  0
 26 25  3  0  0  0  0
 27 29  1  0  0  0  0
 29 30  1  0  0  0  0
 29 28  2  0  0  0  0
M  END
>  <MODEL>
6

>  <REMARK>
 VINA RESULT:      -2.1      2.781      5.285
  Name = 
  7 active torsions:
  status: ('A' for Active; 'I' for Inactive)
    1  A    between atoms: C_1  and  C_22
    2  A    between atoms: C_4  and  C_25
    3  A    between atoms: C_7  and  C_30
    4  A    between atoms: O_10  and  C_23
    5  A    between atoms: O_10  and  C_26
    6  A    between atoms: C_11  and  C_25
    7  A    between atoms: C_13  and  C_30
                            x       y       z     vdW  Elec       q    Type
                         _______ _______ _______ _____ _____    ______ ____

>  <TORSDO>
F 7

$$$$
=
 OpenBabel11052421473D

 30 32  0  0  1  0  0  0  0  0999 V2000
  159.8890  210.1690  153.6590 C   0  0  1  0  0  3  0  0  0  0  0  0
  160.2750  212.0630  155.3140 C   0  0  2  0  0  3  0  0  0  0  0  0
  158.4890  209.8070  153.8360 N   0  0  0  0  0  2  0  0  0  0  0  0
  156.6460  212.5460  155.6540 C   0  0  0  0  0  3  0  0  0  0  0  0
  157.6890  211.8860  154.9920 C   0  0  0  0  0  0  0  0  0  0  0  0
  156.2280  209.9710  154.6800 C   0  0  0  0  0  3  0  0  0  0  0  0
  157.4760  210.5760  154.4960 C   0  0  0  0  0  0  0  0  0  0  0  0
  158.9580  212.6620  154.7950 C   0  0  2  0  0  3  0  0  0  0  0  0
  155.4080  211.9280  155.8330 C   0  0  0  0  0  3  0  0  0  0  0  0
  155.1990  210.6390  155.3440 C   0  0  0  0  0  3  0  0  0  0  0  0
  160.5270  210.5820  154.9940 C   0  0  2  0  0  3  0  0  0  0  0  0
  160.8240  207.7810  153.5210 C   0  0  0  0  0  0  0  0  0  0  0  0
  161.5240  206.8060  152.8040 C   0  0  0  0  0  3  0  0  0  0  0  0
  160.2350  207.3590  155.1240 Cl  0  0  0  0  0  0  0  0  0  0  0  0
  161.1200  209.3270  151.6720 C   0  0  0  0  0  3  0  0  0  0  0  0
  162.2990  208.6180  149.7260 F   0  0  0  0  0  0  0  0  0  0  0  0
  160.6170  209.0580  152.9500 C   0  0  0  0  0  0  0  0  0  0  0  0
  162.0200  207.0860  151.5280 C   0  0  0  0  0  3  0  0  0  0  0  0
  161.8180  208.3460  150.9630 C   0  0  0  0  0  0  0  0  0  0  0  0
  157.7090  214.2810  153.2510 C   0  0  0  0  0  1  0  0  0  0  0  0
  159.0040  213.5440  153.5400 C   0  0  2  0  0  3  0  0  0  0  0  0
  159.5030  212.7850  152.3140 C   0  0  0  0  0  2  0  0  0  0  0  0
  158.4820  212.6220  151.3740 O   0  0  0  0  0  1  0  0  0  0  0  0
  161.9300  210.3580  154.9760 O   0  0  0  0  0  0  0  0  0  0  0  0
  163.2890  210.4410  157.1590 C   0  0  0  0  0  3  0  0  0  0  0  0
  162.6540  210.4030  156.1360 C   0  0  0  0  0  0  0  0  0  0  0  0
  160.3770  212.3140  156.8130 C   0  0  0  0  0  2  0  0  0  0  0  0
  161.3200  214.4310  157.2500 O   0  0  0  0  0  0  0  0  0  0  0  0
  160.3000  213.7730  157.1280 C   0  0  0  0  0  0  0  0  0  0  0  0
  158.9720  214.4350  157.2550 C   0  0  0  0  0  1  0  0  0  0  0  0
  1 17  1  1  0  0  0
  1  3  1  0  0  0  0
  1 11  1  0  0  0  0
  2 27  1  1  0  0  0
  3  7  1  0  0  0  0
  4  9  1  0  0  0  0
  5  4  2  0  0  0  0
  6 10  1  0  0  0  0
  7  6  2  0  0  0  0
  7  5  1  0  0  0  0
  8 21  1  6  0  0  0
  8  5  1  0  0  0  0
  8  2  1  0  0  0  0
 10  9  2  0  0  0  0
 11 24  1  6  0  0  0
 11  2  1  0  0  0  0
 12 14  1  0  0  0  0
 13 12  2  0  0  0  0
 15 17  2  0  0  0  0
 16 19  1  0  0  0  0
 17 12  1  0  0  0  0
 18 13  1  0  0  0  0
 19 18  2  0  0  0  0
 19 15  1  0  0  0  0
 21 20  1  6  0  0  0
 22 21  1  0  0  0  0
 23 22  1  0  0  0  0
 24 26  1  0  0  0  0
 26 25  3  0  0  0  0
 27 29  1  0  0  0  0
 29 28  2  0  0  0  0
 29 30  1  0  0  0  0
M  END
>  <MODEL>
7

>  <REMARK>
 VINA RESULT:      -2.0      1.933      4.199
  Name = 
  7 active torsions:
  status: ('A' for Active; 'I' for Inactive)
    1  A    between atoms: C_1  and  C_22
    2  A    between atoms: C_4  and  C_25
    3  A    between atoms: C_7  and  C_30
    4  A    between atoms: O_10  and  C_23
    5  A    between atoms: O_10  and  C_26
    6  A    between atoms: C_11  and  C_25
    7  A    between atoms: C_13  and  C_30
                            x       y       z     vdW  Elec       q    Type
                         _______ _______ _______ _____ _____    ______ ____

>  <TORSDO>
F 7

$$$$
=
 OpenBabel11052421473D

 30 32  0  0  1  0  0  0  0  0999 V2000
  161.5160  205.3440  150.0440 C   0  0  1  0  0  3  0  0  0  0  0  0
  160.9740  205.7810  147.5950 C   0  0  2  0  0  3  0  0  0  0  0  0
  161.2920  203.9150  150.2190 N   0  0  0  0  0  2  0  0  0  0  0  0
  161.1910  202.1830  146.8740 C   0  0  0  0  0  3  0  0  0  0  0  0
  161.3650  203.2070  147.8120 C   0  0  0  0  0  0  0  0  0  0  0  0
  160.8110  201.6330  149.5770 C   0  0  0  0  0  3  0  0  0  0  0  0
  161.1710  202.9280  149.1870 C   0  0  0  0  0  0  0  0  0  0  0  0
  161.8190  204.5360  147.2820 C   0  0  2  0  0  3  0  0  0  0  0  0
  160.8280  200.8970  147.2770 C   0  0  0  0  0  3  0  0  0  0  0  0
  160.6390  200.6220  148.6320 C   0  0  0  0  0  3  0  0  0  0  0  0
  160.5090  205.9440  149.0500 C   0  0  2  0  0  3  0  0  0  0  0  0
  161.2050  205.3670  152.5920 C   0  0  0  0  0  0  0  0  0  0  0  0
  161.2300  206.0750  153.7990 C   0  0  0  0  0  3  0  0  0  0  0  0
  160.7530  203.6680  152.6450 Cl  0  0  0  0  0  0  0  0  0  0  0  0
  161.8770  207.3830  151.4170 C   0  0  0  0  0  3  0  0  0  0  0  0
  162.2350  209.3930  152.6430 F   0  0  0  0  0  0  0  0  0  0  0  0
  161.5330  206.0260  151.3860 C   0  0  0  0  0  0  0  0  0  0  0  0
  161.5770  207.4280  153.8160 C   0  0  0  0  0  3  0  0  0  0  0  0
  161.9000  208.0810  152.6260 C   0  0  0  0  0  0  0  0  0  0  0  0
  163.8570  206.0630  147.5660 C   0  0  0  0  0  1  0  0  0  0  0  0
  163.3370  204.7030  147.1350 C   0  0  2  0  0  3  0  0  0  0  0  0
  163.8310  204.3300  145.7400 C   0  0  0  0  0  2  0  0  0  0  0  0
  162.7690  203.9520  144.9150 O   0  0  0  0  0  1  0  0  0  0  0  0
  160.3080  207.3280  149.3060 O   0  0  0  0  0  0  0  0  0  0  0  0
  162.0010  209.0680  148.4570 C   0  0  0  0  0  3  0  0  0  0  0  0
  161.2060  208.2540  148.8540 C   0  0  0  0  0  0  0  0  0  0  0  0
  159.7870  205.8280  146.6430 C   0  0  0  0  0  2  0  0  0  0  0  0
  160.8390  206.5780  144.6700 O   0  0  0  0  0  0  0  0  0  0  0  0
  160.2220  205.6810  145.2210 C   0  0  0  0  0  0  0  0  0  0  0  0
  159.9360  204.4180  144.4840 C   0  0  0  0  0  1  0  0  0  0  0  0
  1  3  1  0  0  0  0
  1 17  1  1  0  0  0
  2 27  1  6  0  0  0
  2 11  1  0  0  0  0
  4  9  2  0  0  0  0
  4  5  1  0  0  0  0
  5  7  2  0  0  0  0
  7  6  1  0  0  0  0
  7  3  1  0  0  0  0
  8 21  1  1  0  0  0
  8  2  1  0  0  0  0
  8  5  1  0  0  0  0
  9 10  1  0  0  0  0
 10  6  2  0  0  0  0
 11 24  1  1  0  0  0
 11  1  1  0  0  0  0
 12 14  1  0  0  0  0
 12 13  1  0  0  0  0
 13 18  2  0  0  0  0
 15 19  2  0  0  0  0
 17 15  1  0  0  0  0
 17 12  2  0  0  0  0
 19 16  1  0  0  0  0
 19 18  1  0  0  0  0
 21 20  1  6  0  0  0
 22 21  1  0  0  0  0
 23 22  1  0  0  0  0
 25 26  3  0  0  0  0
 26 24  1  0  0  0  0
 28 29  2  0  0  0  0
 29 27  1  0  0  0  0
 30 29  1  0  0  0  0
M  END
>  <MODEL>
8

>  <REMARK>
 VINA RESULT:      -2.0      4.912      9.058
  Name = 
  7 active torsions:
  status: ('A' for Active; 'I' for Inactive)
    1  A    between atoms: C_1  and  C_22
    2  A    between atoms: C_4  and  C_25
    3  A    between atoms: C_7  and  C_30
    4  A    between atoms: O_10  and  C_23
    5  A    between atoms: O_10  and  C_26
    6  A    between atoms: C_11  and  C_25
    7  A    between atoms: C_13  and  C_30
                            x       y       z     vdW  Elec       q    Type
                         _______ _______ _______ _____ _____    ______ ____

>  <TORSDO>
F 7

$$$$
=
 OpenBabel11052421473D

 30 32  0  0  1  0  0  0  0  0999 V2000
  160.6570  209.3450  153.5100 C   0  0  1  0  0  3  0  0  0  0  0  0
  159.4310  210.0200  155.6360 C   0  0  2  0  0  3  0  0  0  0  0  0
  160.3580  210.4100  152.5620 N   0  0  0  0  0  2  0  0  0  0  0  0
  159.0610  213.4520  154.3680 C   0  0  0  0  0  3  0  0  0  0  0  0
  159.6150  212.1800  154.1780 C   0  0  0  0  0  0  0  0  0  0  0  0
  159.4820  212.5230  151.7770 C   0  0  0  0  0  3  0  0  0  0  0  0
  159.8290  211.7080  152.8600 C   0  0  0  0  0  0  0  0  0  0  0  0
  160.0110  211.4270  155.4140 C   0  0  2  0  0  3  0  0  0  0  0  0
  158.7150  214.2520  153.2790 C   0  0  0  0  0  3  0  0  0  0  0  0
  158.9280  213.7870  151.9810 C   0  0  0  0  0  3  0  0  0  0  0  0
  159.4560  209.0710  154.4290 C   0  0  2  0  0  3  0  0  0  0  0  0
  161.8610  208.2030  151.5510 C   0  0  0  0  0  0  0  0  0  0  0  0
  162.2780  207.0260  150.9200 C   0  0  0  0  0  3  0  0  0  0  0  0
  162.2420  209.7320  150.7720 Cl  0  0  0  0  0  0  0  0  0  0  0  0
  160.8800  206.8770  153.3330 C   0  0  0  0  0  3  0  0  0  0  0  0
  161.0290  204.5010  153.2490 F   0  0  0  0  0  0  0  0  0  0  0  0
  161.1540  208.1300  152.7740 C   0  0  0  0  0  0  0  0  0  0  0  0
  161.9980  205.7810  151.4910 C   0  0  0  0  0  3  0  0  0  0  0  0
  161.3000  205.7080  152.6960 C   0  0  0  0  0  0  0  0  0  0  0  0
  162.3210  210.5100  156.0360 C   0  0  0  0  0  1  0  0  0  0  0  0
  161.4180  211.7270  155.9470 C   0  0  2  0  0  3  0  0  0  0  0  0
  161.3900  212.5020  157.2610 C   0  0  0  0  0  2  0  0  0  0  0  0
  160.4910  213.5690  157.1950 O   0  0  0  0  0  1  0  0  0  0  0  0
  159.4800  207.7330  154.9100 O   0  0  0  0  0  0  0  0  0  0  0  0
  160.4980  207.1910  157.2090 C   0  0  0  0  0  3  0  0  0  0  0  0
  160.0230  207.4460  156.1310 C   0  0  0  0  0  0  0  0  0  0  0  0
  158.0180  210.1490  156.1900 C   0  0  0  0  0  2  0  0  0  0  0  0
  156.8860  210.5530  154.1600 O   0  0  0  0  0  0  0  0  0  0  0  0
  157.1470  210.9560  155.2820 C   0  0  0  0  0  0  0  0  0  0  0  0
  156.5620  212.2390  155.7630 C   0  0  0  0  0  1  0  0  0  0  0  0
  1 17  1  6  0  0  0
  1 11  1  0  0  0  0
  2 27  1  6  0  0  0
  3  7  1  0  0  0  0
  3  1  1  0  0  0  0
  5  4  1  0  0  0  0
  5  8  1  0  0  0  0
  6 10  2  0  0  0  0
  6  7  1  0  0  0  0
  7  5  2  0  0  0  0
  8  2  1  0  0  0  0
  8 21  1  6  0  0  0
  9  4  2  0  0  0  0
 10  9  1  0  0  0  0
 11 24  1  1  0  0  0
 11  2  1  0  0  0  0
 12 17  1  0  0  0  0
 13 18  1  0  0  0  0
 13 12  2  0  0  0  0
 14 12  1  0  0  0  0
 17 15  2  0  0  0  0
 18 19  2  0  0  0  0
 19 16  1  0  0  0  0
 19 15  1  0  0  0  0
 21 20  1  1  0  0  0
 21 22  1  0  0  0  0
 23 22  1  0  0  0  0
 24 26  1  0  0  0  0
 26 25  3  0  0  0  0
 28 29  2  0  0  0  0
 29 30  1  0  0  0  0
 29 27  1  0  0  0  0
M  END
>  <MODEL>
9

>  <REMARK>
 VINA RESULT:      -1.4      2.401      4.459
  Name = 
  7 active torsions:
  status: ('A' for Active; 'I' for Inactive)
    1  A    between atoms: C_1  and  C_22
    2  A    between atoms: C_4  and  C_25
    3  A    between atoms: C_7  and  C_30
    4  A    between atoms: O_10  and  C_23
    5  A    between atoms: O_10  and  C_26
    6  A    between atoms: C_11  and  C_25
    7  A    between atoms: C_13  and  C_30
                            x       y       z     vdW  Elec       q    Type
                         _______ _______ _______ _____ _____    ______ ____

>  <TORSDO>
F 7

$$$$
