=
 OpenBabel11062408213D

 32 38  0  0  1  0  0  0  0  0999 V2000
  161.4770  208.2700  150.9390 C   0  0  0  0  0  0  0  0  0  0  0  0
  161.0130  206.3410  149.5270 C   0  0  0  0  0  0  0  0  0  0  0  0
  161.8650  209.6120  151.0610 C   0  0  0  0  0  3  0  0  0  0  0  0
  161.4070  207.6830  149.6560 C   0  0  0  0  0  0  0  0  0  0  0  0
  160.8230  205.7370  148.1440 C   0  0  2  0  0  3  0  0  0  0  0  0
  161.1190  202.0060  151.6330 C   0  0  0  0  0  3  0  0  0  0  0  0
  160.7860  205.5830  150.6840 C   0  0  0  0  0  0  0  0  0  0  0  0
  161.1240  202.1140  149.1920 C   0  0  0  0  0  3  0  0  0  0  0  0
  161.2460  203.6090  149.3030 C   0  0  1  0  0  3  0  0  0  0  0  0
  161.7760  208.4320  148.5170 C   0  0  0  0  0  0  0  0  0  0  0  0
  160.7430  204.2590  148.0920 N   0  0  0  0  0  2  0  0  0  0  0  0
  161.7280  207.8330  147.1360 C   0  0  0  0  0  2  0  0  0  0  0  0
  162.1530  209.7690  148.6620 C   0  0  0  0  0  3  0  0  0  0  0  0
  160.8460  206.1740  151.9090 N   0  0  0  0  0  0  0  0  0  0  0  0
  161.1690  207.4870  152.0670 C   0  0  0  0  0  0  0  0  0  0  0  0
  160.4910  204.1230  150.5360 C   0  0  1  0  0  3  0  0  0  0  0  0
  161.8520  206.3050  147.1620 C   0  0  2  0  0  3  0  0  0  0  0  0
  162.1970  210.3580  149.9280 C   0  0  0  0  0  3  0  0  0  0  0  0
  161.1080  201.3650  150.3010 C   0  0  0  0  0  3  0  0  0  0  0  0
  160.8720  203.3150  151.7530 C   0  0  0  0  0  3  0  0  0  0  0  0
  160.7810  207.6580  155.8350 C   0  0  2  0  0  3  0  0  0  0  0  0
  162.1320  211.2640  155.7310 O   0  0  0  0  0  0  0  0  0  0  0  0
  159.7050  207.0310  156.7020 C   0  0  0  0  0  1  0  0  0  0  0  0
  160.0950  210.0070  154.8290 C   0  0  2  0  0  3  0  0  0  0  0  0
  161.2130  208.0690  153.4550 C   0  0  1  0  0  3  0  0  0  0  0  0
  160.5490  209.0750  155.7450 N   0  0  0  0  0  0  0  0  0  0  0  0
  160.4290  209.4220  153.4450 C   0  0  0  0  0  2  0  0  0  0  0  0
  160.7160  207.0990  154.4720 N   0  0  0  0  0  0  0  0  0  0  0  0
  161.6150  205.9500  154.4800 C   0  0  0  0  0  1  0  0  0  0  0  0
  161.2060  210.4390  155.5240 C   0  0  0  0  0  0  0  0  0  0  0  0
  161.6180  205.7610  145.7600 C   0  0  0  0  0  2  0  0  0  0  0  0
  160.3810  206.1920  145.2820 O   0  0  0  0  0  1  0  0  0  0  0  0
  1  3  1  0  0  0  0
  1 15  2  0  0  0  0
  2  4  2  0  0  0  0
  2  7  1  0  0  0  0
  4  1  1  0  0  0  0
  5 11  1  1  0  0  0
  5  2  1  0  0  0  0
  6 20  2  0  0  0  0
  7 14  2  0  0  0  0
  8 19  2  0  0  0  0
  9  8  1  6  0  0  0
  9 16  1  0  0  0  0
 10 13  2  0  0  0  0
 10  4  1  0  0  0  0
 11  9  1  0  0  0  0
 12 17  1  0  0  0  0
 12 10  1  0  0  0  0
 13 18  1  0  0  0  0
 14 15  1  0  0  0  0
 16  7  1  0  0  0  0
 16 20  1  1  0  0  0
 17 31  1  6  0  0  0
 17  5  1  0  0  0  0
 18  3  2  0  0  0  0
 19  6  1  0  0  0  0
 21 23  1  1  0  0  0
 24 27  1  6  0  0  0
 24 30  1  0  0  0  0
 24 26  1  0  0  0  0
 25 15  1  6  0  0  0
 25 28  1  0  0  0  0
 26 21  1  0  0  0  0
 27 25  1  0  0  0  0
 28 29  1  0  0  0  0
 28 21  1  0  0  0  0
 30 22  2  0  0  0  0
 30 26  1  0  0  0  0
 32 31  1  0  0  0  0
M  END
>  <MODEL>
1

>  <REMARK>
 VINA RESULT:      -9.8      0.000      0.000
  Name = 
  2 active torsions:
  status: ('A' for Active; 'I' for Inactive)
    1  A    between atoms: C_13  and  C_29
    2  A    between atoms: C_16  and  C_27
                            x       y       z     vdW  Elec       q    Type
                         _______ _______ _______ _____ _____    ______ ____

>  <TORSDO>
F 2

$$$$
=
 OpenBabel11062408213D

 32 38  0  0  1  0  0  0  0  0999 V2000
  161.2010  204.1280  150.1580 C   0  0  0  0  0  0  0  0  0  0  0  0
  160.9960  206.3580  151.1150 C   0  0  0  0  0  0  0  0  0  0  0  0
  161.2770  202.7400  150.3370 C   0  0  0  0  0  3  0  0  0  0  0  0
  161.0780  204.9670  151.2890 C   0  0  0  0  0  0  0  0  0  0  0  0
  160.7470  207.2580  152.3170 C   0  0  2  0  0  3  0  0  0  0  0  0
  162.4310  210.0590  148.3790 C   0  0  0  0  0  3  0  0  0  0  0  0
  161.1290  206.8940  149.8270 C   0  0  0  0  0  0  0  0  0  0  0  0
  162.0440  210.4530  150.7600 C   0  0  0  0  0  3  0  0  0  0  0  0
  161.8260  208.9740  150.9240 C   0  0  1  0  0  3  0  0  0  0  0  0
  161.0860  204.4080  152.5850 C   0  0  0  0  0  0  0  0  0  0  0  0
  161.0100  208.7000  152.1060 N   0  0  0  0  0  2  0  0  0  0  0  0
  160.9740  205.2730  153.8130 C   0  0  0  0  0  2  0  0  0  0  0  0
  161.1560  203.0210  152.7390 C   0  0  0  0  0  3  0  0  0  0  0  0
  161.2320  206.0660  148.7510 N   0  0  0  0  0  0  0  0  0  0  0  0
  161.2580  204.7100  148.8780 C   0  0  0  0  0  0  0  0  0  0  0  0
  161.1660  208.3820  149.6710 C   0  0  1  0  0  3  0  0  0  0  0  0
  161.4550  206.7070  153.5580 C   0  0  2  0  0  3  0  0  0  0  0  0
  161.2500  202.1890  151.6210 C   0  0  0  0  0  3  0  0  0  0  0  0
  162.3700  210.9470  149.5590 C   0  0  0  0  0  3  0  0  0  0  0  0
  161.9040  208.8300  148.4330 C   0  0  0  0  0  3  0  0  0  0  0  0
  161.6200  203.8660  145.1990 C   0  0  2  0  0  3  0  0  0  0  0  0
  161.5120  200.1290  146.1290 O   0  0  0  0  0  0  0  0  0  0  0  0
  161.0490  204.6020  144.0020 C   0  0  0  0  0  1  0  0  0  0  0  0
  159.9340  202.1360  146.2800 C   0  0  2  0  0  3  0  0  0  0  0  0
  161.3720  203.8600  147.6400 C   0  0  1  0  0  3  0  0  0  0  0  0
  160.8750  202.6530  145.4070 N   0  0  0  0  0  0  0  0  0  0  0  0
  160.1650  202.8660  147.6150 C   0  0  0  0  0  2  0  0  0  0  0  0
  161.4840  204.6960  146.4100 N   0  0  0  0  0  0  0  0  0  0  0  0
  162.7200  205.4650  146.4960 C   0  0  0  0  0  1  0  0  0  0  0  0
  160.9290  201.2310  145.9700 C   0  0  0  0  0  0  0  0  0  0  0  0
  161.1480  207.5610  154.7790 C   0  0  0  0  0  2  0  0  0  0  0  0
  159.9920  207.0960  155.4080 O   0  0  0  0  0  1  0  0  0  0  0  0
  1  3  2  0  0  0  0
  1  4  1  0  0  0  0
  2  4  1  0  0  0  0
  3 18  1  0  0  0  0
  4 10  2  0  0  0  0
  5  2  1  6  0  0  0
  5 17  1  0  0  0  0
  6 20  2  0  0  0  0
  6 19  1  0  0  0  0
  7  2  2  0  0  0  0
  9  8  1  6  0  0  0
  9 11  1  0  0  0  0
 10 13  1  0  0  0  0
 10 12  1  0  0  0  0
 11  5  1  0  0  0  0
 14 15  2  0  0  0  0
 14  7  1  0  0  0  0
 15  1  1  0  0  0  0
 16 20  1  6  0  0  0
 16  7  1  0  0  0  0
 16  9  1  0  0  0  0
 17 12  1  0  0  0  0
 17 31  1  1  0  0  0
 18 13  2  0  0  0  0
 19  8  2  0  0  0  0
 21 23  1  6  0  0  0
 21 26  1  0  0  0  0
 21 28  1  0  0  0  0
 24 27  1  1  0  0  0
 25 15  1  1  0  0  0
 26 30  1  0  0  0  0
 26 24  1  0  0  0  0
 27 25  1  0  0  0  0
 28 29  1  0  0  0  0
 28 25  1  0  0  0  0
 30 22  2  0  0  0  0
 30 24  1  0  0  0  0
 31 32  1  0  0  0  0
M  END
>  <MODEL>
2

>  <REMARK>
 VINA RESULT:      -8.1      2.119      8.270
  Name = 
  2 active torsions:
  status: ('A' for Active; 'I' for Inactive)
    1  A    between atoms: C_13  and  C_29
    2  A    between atoms: C_16  and  C_27
                            x       y       z     vdW  Elec       q    Type
                         _______ _______ _______ _____ _____    ______ ____

>  <TORSDO>
F 2

$$$$
=
 OpenBabel11062408213D

 32 38  0  0  1  0  0  0  0  0999 V2000
  161.3090  208.0640  150.9700 C   0  0  0  0  0  0  0  0  0  0  0  0
  161.0920  206.1820  149.4400 C   0  0  0  0  0  0  0  0  0  0  0  0
  161.6590  209.4030  151.1950 C   0  0  0  0  0  3  0  0  0  0  0  0
  161.4470  207.5200  149.6730 C   0  0  0  0  0  0  0  0  0  0  0  0
  161.1270  205.6230  148.0260 C   0  0  2  0  0  3  0  0  0  0  0  0
  160.9130  201.7780  151.3940 C   0  0  0  0  0  3  0  0  0  0  0  0
  160.6950  205.3840  150.5220 C   0  0  0  0  0  0  0  0  0  0  0  0
  161.2990  201.9690  148.9890 C   0  0  0  0  0  3  0  0  0  0  0  0
  161.3860  203.4600  149.1660 C   0  0  1  0  0  3  0  0  0  0  0  0
  161.9810  208.3090  148.6310 C   0  0  0  0  0  0  0  0  0  0  0  0
  161.0720  204.1480  147.9140 N   0  0  0  0  0  2  0  0  0  0  0  0
  162.1560  207.7570  147.2410 C   0  0  0  0  0  2  0  0  0  0  0  0
  162.3170  209.6430  148.8770 C   0  0  0  0  0  3  0  0  0  0  0  0
  160.5570  205.9330  151.7600 N   0  0  0  0  0  0  0  0  0  0  0  0
  160.8370  207.2420  152.0100 C   0  0  0  0  0  0  0  0  0  0  0  0
  160.4420  203.9280  150.2830 C   0  0  1  0  0  3  0  0  0  0  0  0
  162.2900  206.2300  147.2360 C   0  0  2  0  0  3  0  0  0  0  0  0
  162.1560  210.1890  150.1520 C   0  0  0  0  0  3  0  0  0  0  0  0
  161.1170  201.1820  150.0570 C   0  0  0  0  0  3  0  0  0  0  0  0
  160.6370  203.0810  151.5170 C   0  0  0  0  0  3  0  0  0  0  0  0
  160.6350  209.7870  154.8130 C   0  0  2  0  0  3  0  0  0  0  0  0
  159.8730  206.9110  157.2610 O   0  0  0  0  0  0  0  0  0  0  0  0
  161.4520  211.0510  155.0000 C   0  0  0  0  0  1  0  0  0  0  0  0
  161.8180  207.6140  155.7550 C   0  0  2  0  0  3  0  0  0  0  0  0
  160.6580  207.7770  153.4060 C   0  0  1  0  0  3  0  0  0  0  0  0
  161.0870  208.7900  155.7470 N   0  0  0  0  0  0  0  0  0  0  0  0
  161.6270  207.0010  154.3570 C   0  0  0  0  0  2  0  0  0  0  0  0
  160.8340  209.2570  153.4520 N   0  0  0  0  0  0  0  0  0  0  0  0
  159.7840  209.8640  152.6410 C   0  0  0  0  0  1  0  0  0  0  0  0
  160.6860  207.5460  156.5430 C   0  0  0  0  0  0  0  0  0  0  0  0
  162.2840  205.7330  145.7980 C   0  0  0  0  0  2  0  0  0  0  0  0
  163.2730  204.7640  145.6240 O   0  0  0  0  0  1  0  0  0  0  0  0
  1  3  1  0  0  0  0
  1 15  2  0  0  0  0
  2  4  2  0  0  0  0
  2  7  1  0  0  0  0
  4  1  1  0  0  0  0
  5 11  1  1  0  0  0
  5  2  1  0  0  0  0
  6 20  2  0  0  0  0
  7 14  2  0  0  0  0
  8 19  2  0  0  0  0
  9  8  1  6  0  0  0
  9 16  1  0  0  0  0
 10 13  2  0  0  0  0
 10  4  1  0  0  0  0
 11  9  1  0  0  0  0
 12 10  1  0  0  0  0
 13 18  1  0  0  0  0
 14 15  1  0  0  0  0
 16  7  1  0  0  0  0
 16 20  1  1  0  0  0
 17 31  1  6  0  0  0
 17 12  1  0  0  0  0
 17  5  1  0  0  0  0
 18  3  2  0  0  0  0
 19  6  1  0  0  0  0
 21 23  1  6  0  0  0
 21 26  1  0  0  0  0
 24 27  1  6  0  0  0
 24 30  1  0  0  0  0
 25 15  1  6  0  0  0
 25 28  1  0  0  0  0
 25 27  1  0  0  0  0
 26 24  1  0  0  0  0
 26 30  1  0  0  0  0
 28 21  1  0  0  0  0
 29 28  1  0  0  0  0
 30 22  2  0  0  0  0
 32 31  1  0  0  0  0
M  END
>  <MODEL>
3

>  <REMARK>
 VINA RESULT:      -7.1      1.260      1.962
  Name = 
  2 active torsions:
  status: ('A' for Active; 'I' for Inactive)
    1  A    between atoms: C_13  and  C_29
    2  A    between atoms: C_16  and  C_27
                            x       y       z     vdW  Elec       q    Type
                         _______ _______ _______ _____ _____    ______ ____

>  <TORSDO>
F 2

$$$$
=
 OpenBabel11062408213D

 32 38  0  0  1  0  0  0  0  0999 V2000
  161.5440  209.0780  151.0360 C   0  0  0  0  0  0  0  0  0  0  0  0
  161.1060  206.9750  149.8900 C   0  0  0  0  0  0  0  0  0  0  0  0
  161.9480  210.4200  150.9840 C   0  0  0  0  0  3  0  0  0  0  0  0
  161.5150  208.3170  149.8450 C   0  0  0  0  0  0  0  0  0  0  0  0
  160.9610  206.1840  148.5990 C   0  0  2  0  0  3  0  0  0  0  0  0
  161.0630  202.9770  152.5850 C   0  0  0  0  0  3  0  0  0  0  0  0
  160.8220  206.3890  151.1310 C   0  0  0  0  0  0  0  0  0  0  0  0
  161.1640  202.7420  150.1550 C   0  0  0  0  0  3  0  0  0  0  0  0
  161.3050  204.2360  150.0600 C   0  0  1  0  0  3  0  0  0  0  0  0
  161.9390  208.8950  148.6290 C   0  0  0  0  0  0  0  0  0  0  0  0
  160.8600  204.7150  148.7510 N   0  0  0  0  0  2  0  0  0  0  0  0
  161.9370  208.1080  147.3450 C   0  0  0  0  0  2  0  0  0  0  0  0
  162.3310  210.2360  148.6010 C   0  0  0  0  0  3  0  0  0  0  0  0
  160.8440  207.1460  152.2630 N   0  0  0  0  0  0  0  0  0  0  0  0
  161.1810  208.4650  152.2490 C   0  0  0  0  0  0  0  0  0  0  0  0
  160.5100  204.9260  151.1780 C   0  0  1  0  0  3  0  0  0  0  0  0
  162.0350  206.5980  147.5900 C   0  0  2  0  0  3  0  0  0  0  0  0
  162.3350  210.9960  149.7720 C   0  0  0  0  0  3  0  0  0  0  0  0
  161.0930  202.1560  151.3570 C   0  0  0  0  0  3  0  0  0  0  0  0
  160.8320  204.2940  152.5110 C   0  0  0  0  0  3  0  0  0  0  0  0
  160.2140  211.1310  154.7660 C   0  0  2  0  0  3  0  0  0  0  0  0
  162.6940  209.5610  157.2610 O   0  0  0  0  0  0  0  0  0  0  0  0
  159.8560  212.5830  154.5110 C   0  0  0  0  0  1  0  0  0  0  0  0
  162.8170  210.7040  154.9760 C   0  0  2  0  0  3  0  0  0  0  0  0
  161.1800  209.2360  153.5420 C   0  0  1  0  0  3  0  0  0  0  0  0
  161.5310  211.0630  155.3400 N   0  0  0  0  0  0  0  0  0  0  0  0
  162.6530  209.6480  153.8690 C   0  0  0  0  0  2  0  0  0  0  0  0
  160.2350  210.3880  153.4920 N   0  0  0  0  0  0  0  0  0  0  0  0
  158.8850  209.8610  153.3270 C   0  0  0  0  0  1  0  0  0  0  0  0
  162.4690  210.2430  156.2290 C   0  0  0  0  0  0  0  0  0  0  0  0
  161.8480  205.8650  146.2690 C   0  0  0  0  0  2  0  0  0  0  0  0
  160.6160  206.2010  145.7080 O   0  0  0  0  0  1  0  0  0  0  0  0
  1 15  2  0  0  0  0
  2  7  1  0  0  0  0
  3  1  1  0  0  0  0
  4  2  2  0  0  0  0
  4  1  1  0  0  0  0
  5 11  1  1  0  0  0
  5  2  1  0  0  0  0
  7 16  1  0  0  0  0
  7 14  2  0  0  0  0
  8 19  2  0  0  0  0
  9  8  1  6  0  0  0
  9 16  1  0  0  0  0
 10  4  1  0  0  0  0
 11  9  1  0  0  0  0
 12 17  1  0  0  0  0
 12 10  1  0  0  0  0
 13 10  2  0  0  0  0
 13 18  1  0  0  0  0
 15 14  1  0  0  0  0
 16 20  1  1  0  0  0
 17 31  1  6  0  0  0
 17  5  1  0  0  0  0
 18  3  2  0  0  0  0
 19  6  1  0  0  0  0
 20  6  2  0  0  0  0
 21 23  1  6  0  0  0
 21 26  1  0  0  0  0
 24 27  1  6  0  0  0
 24 26  1  0  0  0  0
 24 30  1  0  0  0  0
 25 15  1  6  0  0  0
 25 27  1  0  0  0  0
 26 30  1  0  0  0  0
 28 25  1  0  0  0  0
 28 21  1  0  0  0  0
 29 28  1  0  0  0  0
 30 22  2  0  0  0  0
 32 31  1  0  0  0  0
M  END
>  <MODEL>
4

>  <REMARK>
 VINA RESULT:      -6.9      1.445      2.010
  Name = 
  2 active torsions:
  status: ('A' for Active; 'I' for Inactive)
    1  A    between atoms: C_13  and  C_29
    2  A    between atoms: C_16  and  C_27
                            x       y       z     vdW  Elec       q    Type
                         _______ _______ _______ _____ _____    ______ ____

>  <TORSDO>
F 2

$$$$
=
 OpenBabel11062408213D

 32 38  0  0  1  0  0  0  0  0999 V2000
  161.3400  209.2910  151.0800 C   0  0  0  0  0  0  0  0  0  0  0  0
  161.1400  207.1420  149.9540 C   0  0  0  0  0  0  0  0  0  0  0  0
  161.6750  210.6520  151.0350 C   0  0  0  0  0  3  0  0  0  0  0  0
  161.4810  208.5030  149.9160 C   0  0  0  0  0  0  0  0  0  0  0  0
  161.1790  206.3150  148.6770 C   0  0  2  0  0  3  0  0  0  0  0  0
  161.0120  203.2090  152.7400 C   0  0  0  0  0  3  0  0  0  0  0  0
  160.7530  206.5690  151.1730 C   0  0  0  0  0  0  0  0  0  0  0  0
  161.3910  202.9250  150.3430 C   0  0  0  0  0  3  0  0  0  0  0  0
  161.4630  204.4220  150.2220 C   0  0  1  0  0  3  0  0  0  0  0  0
  162.0040  209.0760  148.7370 C   0  0  0  0  0  0  0  0  0  0  0  0
  161.1390  204.8460  148.8590 N   0  0  0  0  0  2  0  0  0  0  0  0
  162.1840  208.2620  147.4820 C   0  0  0  0  0  2  0  0  0  0  0  0
  162.3260  210.4350  148.7130 C   0  0  0  0  0  3  0  0  0  0  0  0
  160.6110  207.3500  152.2790 N   0  0  0  0  0  0  0  0  0  0  0  0
  160.8780  208.6860  152.2640 C   0  0  0  0  0  0  0  0  0  0  0  0
  160.5150  205.0920  151.2270 C   0  0  1  0  0  3  0  0  0  0  0  0
  162.3340  206.7650  147.7790 C   0  0  2  0  0  3  0  0  0  0  0  0
  162.1620  211.2210  149.8560 C   0  0  0  0  0  3  0  0  0  0  0  0
  161.2200  202.3630  151.5460 C   0  0  0  0  0  3  0  0  0  0  0  0
  160.7220  204.5080  152.6040 C   0  0  0  0  0  3  0  0  0  0  0  0
  160.6640  209.4100  155.9800 C   0  0  2  0  0  3  0  0  0  0  0  0
  159.9800  213.1060  155.1390 O   0  0  0  0  0  0  0  0  0  0  0  0
  160.1070  208.5290  157.0820 C   0  0  0  0  0  1  0  0  0  0  0  0
  158.8220  210.8590  154.7500 C   0  0  2  0  0  3  0  0  0  0  0  0
  160.6950  209.4840  153.5280 C   0  0  1  0  0  3  0  0  0  0  0  0
  159.7380  210.4790  155.7150 N   0  0  0  0  0  0  0  0  0  0  0  0
  159.3320  210.2450  153.4340 C   0  0  0  0  0  2  0  0  0  0  0  0
  160.8190  208.6260  154.7400 N   0  0  0  0  0  0  0  0  0  0  0  0
  162.1760  208.0940  154.7830 C   0  0  0  0  0  1  0  0  0  0  0  0
  159.5950  211.9110  155.1980 C   0  0  0  0  0  0  0  0  0  0  0  0
  162.3310  205.9930  146.4670 C   0  0  0  0  0  2  0  0  0  0  0  0
  161.1140  206.1760  145.8100 O   0  0  0  0  0  1  0  0  0  0  0  0
  1 15  2  0  0  0  0
  2  7  1  0  0  0  0
  3  1  1  0  0  0  0
  4  2  2  0  0  0  0
  4  1  1  0  0  0  0
  5 11  1  1  0  0  0
  5  2  1  0  0  0  0
  7 16  1  0  0  0  0
  7 14  2  0  0  0  0
  8 19  2  0  0  0  0
  9  8  1  6  0  0  0
  9 16  1  0  0  0  0
 10  4  1  0  0  0  0
 11  9  1  0  0  0  0
 12 17  1  0  0  0  0
 12 10  1  0  0  0  0
 13 10  2  0  0  0  0
 13 18  1  0  0  0  0
 15 14  1  0  0  0  0
 16 20  1  1  0  0  0
 17 31  1  6  0  0  0
 17  5  1  0  0  0  0
 18  3  2  0  0  0  0
 19  6  1  0  0  0  0
 20  6  2  0  0  0  0
 21 23  1  1  0  0  0
 22 30  2  0  0  0  0
 24 27  1  6  0  0  0
 24 30  1  0  0  0  0
 24 26  1  0  0  0  0
 25 15  1  6  0  0  0
 25 28  1  0  0  0  0
 26 21  1  0  0  0  0
 27 25  1  0  0  0  0
 28 29  1  0  0  0  0
 28 21  1  0  0  0  0
 30 26  1  0  0  0  0
 32 31  1  0  0  0  0
M  END
>  <MODEL>
5

>  <REMARK>
 VINA RESULT:      -6.9      1.244      1.401
  Name = 
  2 active torsions:
  status: ('A' for Active; 'I' for Inactive)
    1  A    between atoms: C_13  and  C_29
    2  A    between atoms: C_16  and  C_27
                            x       y       z     vdW  Elec       q    Type
                         _______ _______ _______ _____ _____    ______ ____

>  <TORSDO>
F 2

$$$$
