=
 OpenBabel11062408553D

 55 59  0  0  1  0  0  0  0  0999 V2000
  162.1430  214.2860  145.5260 C   0  0  0  0  0  3  0  0  0  0  0  0
  161.1660  212.0720  146.9370 C   0  0  0  0  0  0  0  0  0  0  0  0
  160.9300  212.1890  145.5640 C   0  0  0  0  0  3  0  0  0  0  0  0
  162.3890  214.1640  146.8980 C   0  0  0  0  0  3  0  0  0  0  0  0
  161.4080  213.3000  144.8580 C   0  0  0  0  0  0  0  0  0  0  0  0
  161.8940  213.0630  147.6050 C   0  0  0  0  0  3  0  0  0  0  0  0
  160.5710  210.9310  147.6930 C   0  0  0  0  0  2  0  0  0  0  0  0
  161.5960  210.2940  148.6240 C   0  0  0  0  0  2  0  0  0  0  0  0
  161.4390  210.9520  150.3140 S   0  0  0  0  0  0  0  0  0  0  0  0
  162.4910  209.3060  151.1500 S   0  0  0  0  0  0  0  0  0  0  0  0
  161.2110  209.0220  152.4090 C   0  0  0  0  0  2  0  0  0  0  0  0
  161.8120  211.0060  154.3840 C   0  0  0  0  0  1  0  0  0  0  0  0
  160.6160  211.1110  153.4700 C   0  0  0  0  0  0  0  0  0  0  0  0
  160.3920  210.2010  152.5780 N   0  0  0  0  0  0  0  0  0  0  0  0
  157.4780  213.0060  155.9870 C   0  0  2  0  0  3  0  0  0  0  0  0
  158.2240  211.9810  153.7020 C   0  0  1  0  0  3  0  0  0  0  0  0
  159.8290  212.9850  152.2840 F   0  0  0  0  0  0  0  0  0  0  0  0
  156.2530  213.5560  155.6120 O   0  0  0  0  0  1  0  0  0  0  0  0
  159.2290  214.3480  154.7600 O   0  0  0  0  0  0  0  0  0  0  0  0
  158.5550  214.1070  155.9750 C   0  0  2  0  0  3  0  0  0  0  0  0
  159.7160  212.3380  153.5040 C   0  0  2  0  0  0  0  0  0  0  0  0
  157.8030  210.9440  152.8630 O   0  0  0  0  0  1  0  0  0  0  0  0
  160.1720  213.3260  154.5830 C   0  0  0  0  0  2  0  0  0  0  0  0
  157.7500  211.7490  155.1440 C   0  0  1  0  0  3  0  0  0  0  0  0
  158.3630  210.5990  155.8780 C   0  0  0  0  0  0  0  0  0  0  0  0
  159.2820  210.8040  156.8970 O   0  0  0  0  0  1  0  0  0  0  0  0
  158.0310  209.4260  155.5710 O   0  0  0  0  0  0  0  0  0  0  0  0
  160.5300  213.5670  157.2600 O   0  0  0  0  0  1  0  0  0  0  0  0
  159.3580  214.3250  157.2600 C   0  0  0  0  0  2  0  0  0  0  0  0
  161.1090  213.4450  143.4040 C   0  0  0  0  0  2  0  0  0  0  0  0
  161.4820  212.1610  142.6760 C   0  0  0  0  0  2  0  0  0  0  0  0
  163.1920  211.5030  138.6710 C   0  0  0  0  0  2  0  0  0  0  0  0
  163.4450  212.6090  137.6680 C   0  0  0  0  0  2  0  0  0  0  0  0
  161.3790  214.4510  139.8640 C   0  0  0  0  0  3  0  0  0  0  0  0
  161.7480  213.3060  138.9720 C   0  0  1  0  0  3  0  0  0  0  0  0
  162.6590  213.7320  137.9930 O   0  0  0  0  0  0  0  0  0  0  0  0
  162.3640  212.1580  139.7370 C   0  0  1  0  0  3  0  0  0  0  0  0
  159.6780  213.1050  141.1620 C   0  0  2  0  0  3  0  0  0  0  0  0
  160.4530  214.3610  140.8290 C   0  0  0  0  0  3  0  0  0  0  0  0
  161.2540  211.2430  140.3100 C   0  0  2  0  0  3  0  0  0  0  0  0
  160.5240  211.8680  141.5200 C   0  0  1  0  0  3  0  0  0  0  0  0
  158.3570  211.5390  139.7380 C   0  0  0  0  0  3  0  0  0  0  0  0
  156.3340  212.2330  138.5850 C   0  0  0  0  0  0  0  0  0  0  0  0
  157.5760  213.8210  139.9400 C   0  0  0  0  0  3  0  0  0  0  0  0
  156.4940  213.5250  139.1070 C   0  0  0  0  0  3  0  0  0  0  0  0
  157.2740  211.2440  138.9040 C   0  0  0  0  0  3  0  0  0  0  0  0
  158.5090  212.8270  140.2650 C   0  0  0  0  0  0  0  0  0  0  0  0
  155.1940  211.9130  137.7150 C   0  0  0  0  0  0  0  0  0  0  0  0
  154.4410  212.8300  137.2880 O   0  0  0  0  0  0  0  0  0  0  0  0
  154.9360  210.5960  137.3530 O   0  0  0  0  0  1  0  0  0  0  0  0
  161.6400  209.7780  140.6120 C   0  0  1  0  0  3  0  0  0  0  0  0
  160.7240  209.1310  141.6370 C   0  0  0  0  0  1  0  0  0  0  0  0
  162.8200  207.9070  139.4590 O   0  0  0  0  0  1  0  0  0  0  0  0
  161.1530  209.0430  138.3740 O   0  0  0  0  0  0  0  0  0  0  0  0
  161.8510  208.9010  139.4130 C   0  0  0  0  0  0  0  0  0  0  0  0
  1  4  1  0  0  0  0
  2  6  1  0  0  0  0
  2  7  1  0  0  0  0
  3  2  2  0  0  0  0
  4  6  2  0  0  0  0
  5  1  2  0  0  0  0
  5  3  1  0  0  0  0
  7  8  1  0  0  0  0
  8  9  1  0  0  0  0
  9 10  1  0  0  0  0
 10 11  1  0  0  0  0
 11 14  1  0  0  0  0
 13 21  1  0  0  0  0
 13 12  1  0  0  0  0
 14 13  2  0  0  0  0
 15 18  1  6  0  0  0
 16 22  1  6  0  0  0
 16 24  1  0  0  0  0
 19 20  1  0  0  0  0
 20 15  1  0  0  0  0
 20 29  1  1  0  0  0
 21 17  1  6  0  0  0
 21 16  1  0  0  0  0
 21 23  1  0  0  0  0
 23 19  1  0  0  0  0
 24 25  1  1  0  0  0
 24 15  1  0  0  0  0
 25 26  1  0  0  0  0
 27 25  2  0  0  0  0
 29 28  1  0  0  0  0
 30  5  1  0  0  0  0
 31 30  1  0  0  0  0
 33 36  1  0  0  0  0
 33 32  1  0  0  0  0
 34 39  2  0  0  0  0
 35 37  1  0  0  0  0
 35 34  1  1  0  0  0
 36 35  1  0  0  0  0
 37 32  1  6  0  0  0
 37 40  1  0  0  0  0
 38 47  1  6  0  0  0
 38 41  1  0  0  0  0
 39 38  1  0  0  0  0
 40 51  1  1  0  0  0
 40 41  1  0  0  0  0
 41 31  1  1  0  0  0
 42 47  1  0  0  0  0
 43 46  1  0  0  0  0
 43 45  2  0  0  0  0
 44 47  2  0  0  0  0
 45 44  1  0  0  0  0
 46 42  2  0  0  0  0
 48 43  1  0  0  0  0
 49 48  2  0  0  0  0
 50 48  1  0  0  0  0
 51 52  1  1  0  0  0
 54 55  2  0  0  0  0
 55 53  1  0  0  0  0
 55 51  1  0  0  0  0
M  END
>  <MODEL>
1

>  <REMARK>
 VINA RESULT:      -1.1      0.000      0.000
  Name = 
  16 active torsions:
  status: ('A' for Active; 'I' for Inactive)
    1  A    between atoms: C_1  and  C_53
    2  A    between atoms: C_2  and  C_28
    3  A    between atoms: C_2  and  C_44
    4  A    between atoms: C_8  and  N_22
    5  A    between atoms: C_8  and  S_35
    6  A    between atoms: C_10  and  C_32
    7  A    between atoms: C_19  and  C_40
    8  A    between atoms: C_19  and  C_45
    9  A    between atoms: C_20  and  C_42
   10  A    between atoms: C_25  and  C_38
   11  A    between atoms: C_27  and  C_54
   12  A    between atoms: C_28  and  C_49
   13  A    between atoms: C_33  and  C_52
   14  A    between atoms: S_35  and  S_43
   15  A    between atoms: S_43  and  C_51
   16  A    between atoms: C_51  and  C_54
                            x       y       z     vdW  Elec       q    Type
                         _______ _______ _______ _____ _____    ______ ____

>  <TORSDO>
F 16

$$$$
=
 OpenBabel11062408553D

 55 59  0  0  1  0  0  0  0  0999 V2000
  161.5790  208.3910  153.1140 C   0  0  0  0  0  3  0  0  0  0  0  0
  160.7060  205.8840  152.2230 C   0  0  0  0  0  0  0  0  0  0  0  0
  160.4710  206.2800  153.5420 C   0  0  0  0  0  3  0  0  0  0  0  0
  161.8040  208.0000  151.7890 C   0  0  0  0  0  3  0  0  0  0  0  0
  160.9160  207.5290  153.9940 C   0  0  0  0  0  0  0  0  0  0  0  0
  161.3760  206.7440  151.3450 C   0  0  0  0  0  3  0  0  0  0  0  0
  160.3100  204.5140  151.7820 C   0  0  0  0  0  2  0  0  0  0  0  0
  160.7670  203.4590  152.7840 C   0  0  0  0  0  2  0  0  0  0  0  0
  161.8700  202.2460  151.9940 S   0  0  0  0  0  0  0  0  0  0  0  0
  160.4570  201.8190  150.4660 S   0  0  0  0  0  0  0  0  0  0  0  0
  161.6240  202.2710  149.1480 C   0  0  0  0  0  2  0  0  0  0  0  0
  162.3240  205.0430  149.2930 C   0  0  0  0  0  1  0  0  0  0  0  0
  161.3100  204.5160  148.3070 C   0  0  0  0  0  0  0  0  0  0  0  0
  161.0370  203.2510  148.2630 N   0  0  0  0  0  0  0  0  0  0  0  0
  161.4410  205.4180  143.9560 C   0  0  2  0  0  3  0  0  0  0  0  0
  161.7200  206.2030  146.4330 C   0  0  1  0  0  3  0  0  0  0  0  0
  159.9180  206.3800  147.9550 F   0  0  0  0  0  0  0  0  0  0  0  0
  161.5040  206.6510  143.3070 O   0  0  0  0  0  1  0  0  0  0  0  0
  159.2970  205.4600  145.2870 O   0  0  0  0  0  0  0  0  0  0  0  0
  159.9660  205.0110  144.1300 C   0  0  2  0  0  3  0  0  0  0  0  0
  160.6740  205.4370  147.2770 C   0  0  2  0  0  0  0  0  0  0  0  0
  162.7290  206.7740  147.2140 O   0  0  0  0  0  1  0  0  0  0  0  0
  159.7180  204.6640  146.3630 C   0  0  0  0  0  2  0  0  0  0  0  0
  162.3110  205.4660  145.2230 C   0  0  1  0  0  3  0  0  0  0  0  0
  163.1040  204.2310  145.5080 C   0  0  0  0  0  0  0  0  0  0  0  0
  164.3230  204.2950  146.1680 O   0  0  0  0  0  1  0  0  0  0  0  0
  162.6520  203.1130  145.1510 O   0  0  0  0  0  0  0  0  0  0  0  0
  159.5310  202.6740  144.5750 O   0  0  0  0  0  1  0  0  0  0  0  0
  159.5400  203.6490  143.5760 C   0  0  0  0  0  2  0  0  0  0  0  0
  160.7080  207.9250  155.4160 C   0  0  0  0  0  2  0  0  0  0  0  0
  159.6850  209.0500  155.4890 C   0  0  0  0  0  2  0  0  0  0  0  0
  159.7240  213.1050  157.2080 C   0  0  0  0  0  2  0  0  0  0  0  0
  158.5210  214.0230  157.2340 C   0  0  0  0  0  2  0  0  0  0  0  0
  157.2550  211.6820  154.9110 C   0  0  0  0  0  3  0  0  0  0  0  0
  158.2450  212.6600  155.4650 C   0  0  1  0  0  3  0  0  0  0  0  0
  157.5890  213.6100  156.2620 O   0  0  0  0  0  0  0  0  0  0  0  0
  159.3130  211.9870  156.2970 C   0  0  1  0  0  3  0  0  0  0  0  0
  158.9820  210.4770  153.5120 C   0  0  2  0  0  3  0  0  0  0  0  0
  157.5840  210.7200  154.0370 C   0  0  0  0  0  3  0  0  0  0  0  0
  160.4550  211.4770  155.3840 C   0  0  2  0  0  3  0  0  0  0  0  0
  160.0650  210.2190  154.5770 C   0  0  1  0  0  3  0  0  0  0  0  0
  160.5630  211.0710  151.6750 C   0  0  0  0  0  3  0  0  0  0  0  0
  160.2480  213.0370  150.2840 C   0  0  0  0  0  0  0  0  0  0  0  0
  158.6750  212.5350  152.0640 C   0  0  0  0  0  3  0  0  0  0  0  0
  159.0940  213.3550  151.0130 C   0  0  0  0  0  3  0  0  0  0  0  0
  160.9810  211.8920  150.6230 C   0  0  0  0  0  3  0  0  0  0  0  0
  159.4050  211.3850  152.3960 C   0  0  0  0  0  0  0  0  0  0  0  0
  160.6900  213.8910  149.1710 C   0  0  0  0  0  0  0  0  0  0  0  0
  159.9190  214.1230  148.2010 O   0  0  0  0  0  0  0  0  0  0  0  0
  161.9620  214.4520  149.1800 O   0  0  0  0  0  1  0  0  0  0  0  0
  161.8420  211.2880  156.0380 C   0  0  1  0  0  3  0  0  0  0  0  0
  161.8080  210.3270  157.2140 C   0  0  0  0  0  1  0  0  0  0  0  0
  164.2790  211.1160  155.5370 O   0  0  0  0  0  1  0  0  0  0  0  0
  162.7440  210.5950  153.9190 O   0  0  0  0  0  0  0  0  0  0  0  0
  162.9680  210.9830  155.0960 C   0  0  0  0  0  0  0  0  0  0  0  0
  1  5  1  0  0  0  0
  2  3  1  0  0  0  0
  3  5  2  0  0  0  0
  4  1  2  0  0  0  0
  5 30  1  0  0  0  0
  6  4  1  0  0  0  0
  6  2  2  0  0  0  0
  7  2  1  0  0  0  0
  7  8  1  0  0  0  0
  9  8  1  0  0  0  0
 10  9  1  0  0  0  0
 11 10  1  0  0  0  0
 13 12  1  0  0  0  0
 14 13  2  0  0  0  0
 14 11  1  0  0  0  0
 15 18  1  1  0  0  0
 15 20  1  0  0  0  0
 15 24  1  0  0  0  0
 16 22  1  1  0  0  0
 16 21  1  0  0  0  0
 19 23  1  0  0  0  0
 20 29  1  1  0  0  0
 20 19  1  0  0  0  0
 21 17  1  1  0  0  0
 21 13  1  0  0  0  0
 23 21  1  0  0  0  0
 24 25  1  1  0  0  0
 24 16  1  0  0  0  0
 25 26  1  0  0  0  0
 27 25  2  0  0  0  0
 29 28  1  0  0  0  0
 30 31  1  0  0  0  0
 32 33  1  0  0  0  0
 35 34  1  1  0  0  0
 35 36  1  0  0  0  0
 35 37  1  0  0  0  0
 36 33  1  0  0  0  0
 37 32  1  1  0  0  0
 38 47  1  1  0  0  0
 38 39  1  0  0  0  0
 38 41  1  0  0  0  0
 39 34  2  0  0  0  0
 40 51  1  1  0  0  0
 40 37  1  0  0  0  0
 41 40  1  0  0  0  0
 41 31  1  1  0  0  0
 42 47  1  0  0  0  0
 43 46  1  0  0  0  0
 43 45  2  0  0  0  0
 44 47  2  0  0  0  0
 45 44  1  0  0  0  0
 46 42  2  0  0  0  0
 48 50  1  0  0  0  0
 48 43  1  0  0  0  0
 49 48  2  0  0  0  0
 51 52  1  1  0  0  0
 54 55  2  0  0  0  0
 55 53  1  0  0  0  0
 55 51  1  0  0  0  0
M  END
>  <MODEL>
2

>  <REMARK>
 VINA RESULT:      -0.6      6.329     13.008
  Name = 
  16 active torsions:
  status: ('A' for Active; 'I' for Inactive)
    1  A    between atoms: C_1  and  C_53
    2  A    between atoms: C_2  and  C_28
    3  A    between atoms: C_2  and  C_44
    4  A    between atoms: C_8  and  N_22
    5  A    between atoms: C_8  and  S_35
    6  A    between atoms: C_10  and  C_32
    7  A    between atoms: C_19  and  C_40
    8  A    between atoms: C_19  and  C_45
    9  A    between atoms: C_20  and  C_42
   10  A    between atoms: C_25  and  C_38
   11  A    between atoms: C_27  and  C_54
   12  A    between atoms: C_28  and  C_49
   13  A    between atoms: C_33  and  C_52
   14  A    between atoms: S_35  and  S_43
   15  A    between atoms: S_43  and  C_51
   16  A    between atoms: C_51  and  C_54
                            x       y       z     vdW  Elec       q    Type
                         _______ _______ _______ _____ _____    ______ ____

>  <TORSDO>
F 16

$$$$
=
 OpenBabel11062408553D

 55 59  0  0  1  0  0  0  0  0999 V2000
  160.4490  204.2550  150.6280 C   0  0  0  0  0  3  0  0  0  0  0  0
  161.4950  204.9600  148.1270 C   0  0  0  0  0  0  0  0  0  0  0  0
  161.2080  205.9490  149.0710 C   0  0  0  0  0  3  0  0  0  0  0  0
  160.7470  203.2630  149.6870 C   0  0  0  0  0  3  0  0  0  0  0  0
  160.6750  205.6010  150.3190 C   0  0  0  0  0  0  0  0  0  0  0  0
  161.2620  203.6150  148.4340 C   0  0  0  0  0  3  0  0  0  0  0  0
  161.9740  205.3530  146.7690 C   0  0  0  0  0  2  0  0  0  0  0  0
  160.8300  205.3560  145.7610 C   0  0  0  0  0  2  0  0  0  0  0  0
  160.9650  206.7730  144.6270 S   0  0  0  0  0  0  0  0  0  0  0  0
  161.0700  205.5120  142.9190 S   0  0  0  0  0  0  0  0  0  0  0  0
  162.2300  206.6240  142.0690 C   0  0  0  0  0  2  0  0  0  0  0  0
  163.2100  209.0210  140.8490 C   0  0  0  0  0  1  0  0  0  0  0  0
  162.0260  208.2610  140.3020 C   0  0  0  0  0  0  0  0  0  0  0  0
  161.6290  207.1710  140.8740 N   0  0  0  0  0  0  0  0  0  0  0  0
  160.5740  211.9300  138.2540 C   0  0  2  0  0  3  0  0  0  0  0  0
  160.0940  209.5660  139.2580 C   0  0  1  0  0  3  0  0  0  0  0  0
  160.9420  207.5600  138.3360 F   0  0  0  0  0  0  0  0  0  0  0  0
  159.3650  212.1600  137.5980 O   0  0  0  0  0  1  0  0  0  0  0  0
  161.6680  210.0240  137.0120 O   0  0  0  0  0  0  0  0  0  0  0  0
  161.6120  211.4150  137.2390 C   0  0  2  0  0  3  0  0  0  0  0  0
  161.3500  208.6980  139.0110 C   0  0  2  0  0  0  0  0  0  0  0  0
  159.2480  209.0240  140.2310 O   0  0  0  0  0  1  0  0  0  0  0  0
  162.3330  209.4380  138.0980 C   0  0  0  0  0  2  0  0  0  0  0  0
  160.3200  211.0650  139.4990 C   0  0  1  0  0  3  0  0  0  0  0  0
  161.1030  211.4410  140.7170 C   0  0  0  0  0  0  0  0  0  0  0  0
  162.0600  212.4450  140.6750 O   0  0  0  0  0  0  0  0  0  0  0  0
  160.8820  210.8410  141.7990 O   0  0  0  0  0  1  0  0  0  0  0  0
  163.1260  213.0210  138.2260 O   0  0  0  0  0  1  0  0  0  0  0  0
  162.9320  212.1820  137.1270 C   0  0  0  0  0  2  0  0  0  0  0  0
  160.3230  206.6650  151.3020 C   0  0  0  0  0  2  0  0  0  0  0  0
  161.3990  207.7410  151.2970 C   0  0  0  0  0  2  0  0  0  0  0  0
  164.1870  210.8760  152.6380 C   0  0  0  0  0  2  0  0  0  0  0  0
  164.5790  211.0960  154.0840 C   0  0  0  0  0  2  0  0  0  0  0  0
  161.8090  208.9860  154.6800 C   0  0  0  0  0  3  0  0  0  0  0  0
  162.5280  210.1710  154.1130 C   0  0  1  0  0  3  0  0  0  0  0  0
  163.6170  210.5100  154.9300 O   0  0  0  0  0  0  0  0  0  0  0  0
  163.0370  209.9170  152.7130 C   0  0  1  0  0  3  0  0  0  0  0  0
  159.9790  209.0550  152.9390 C   0  0  2  0  0  3  0  0  0  0  0  0
  160.6740  208.4990  154.1620 C   0  0  0  0  0  3  0  0  0  0  0  0
  161.9190  210.2060  151.6800 C   0  0  2  0  0  3  0  0  0  0  0  0
  160.8270  209.1150  151.6540 C   0  0  1  0  0  3  0  0  0  0  0  0
  158.8730  211.1380  152.1240 C   0  0  0  0  0  3  0  0  0  0  0  0
  157.5460  212.5540  153.5840 C   0  0  0  0  0  0  0  0  0  0  0  0
  158.6050  210.5510  154.4560 C   0  0  0  0  0  3  0  0  0  0  0  0
  157.8150  211.6860  154.6520 C   0  0  0  0  0  3  0  0  0  0  0  0
  158.0820  212.2740  152.3200 C   0  0  0  0  0  3  0  0  0  0  0  0
  159.1330  210.2680  153.1890 C   0  0  0  0  0  0  0  0  0  0  0  0
  156.7070  213.7460  153.7810 C   0  0  0  0  0  0  0  0  0  0  0  0
  156.5540  214.2330  154.9330 O   0  0  0  0  0  1  0  0  0  0  0  0
  156.0780  214.3470  152.6970 O   0  0  0  0  0  0  0  0  0  0  0  0
  162.3670  210.5540  150.2430 C   0  0  1  0  0  3  0  0  0  0  0  0
  162.1520  209.4090  149.2690 C   0  0  0  0  0  1  0  0  0  0  0  0
  162.4710  212.4190  148.5890 O   0  0  0  0  0  0  0  0  0  0  0  0
  160.8700  212.4370  150.2280 O   0  0  0  0  0  1  0  0  0  0  0  0
  161.8560  211.8570  149.7010 C   0  0  0  0  0  0  0  0  0  0  0  0
  2  6  2  0  0  0  0
  2  3  1  0  0  0  0
  3  5  2  0  0  0  0
  4  1  2  0  0  0  0
  5  1  1  0  0  0  0
  5 30  1  0  0  0  0
  6  4  1  0  0  0  0
  7  2  1  0  0  0  0
  8  7  1  0  0  0  0
  9  8  1  0  0  0  0
 10  9  1  0  0  0  0
 11 10  1  0  0  0  0
 13 12  1  0  0  0  0
 13 14  2  0  0  0  0
 14 11  1  0  0  0  0
 15 18  1  6  0  0  0
 15 24  1  0  0  0  0
 16 24  1  0  0  0  0
 16 22  1  1  0  0  0
 19 20  1  0  0  0  0
 19 23  1  0  0  0  0
 20 29  1  1  0  0  0
 20 15  1  0  0  0  0
 21 17  1  6  0  0  0
 21 16  1  0  0  0  0
 21 13  1  0  0  0  0
 23 21  1  0  0  0  0
 24 25  1  1  0  0  0
 25 27  1  0  0  0  0
 26 25  2  0  0  0  0
 29 28  1  0  0  0  0
 31 30  1  0  0  0  0
 32 33  1  0  0  0  0
 33 36  1  0  0  0  0
 35 34  1  1  0  0  0
 35 36  1  0  0  0  0
 37 32  1  6  0  0  0
 37 35  1  0  0  0  0
 38 47  1  1  0  0  0
 38 39  1  0  0  0  0
 39 34  2  0  0  0  0
 40 51  1  6  0  0  0
 40 37  1  0  0  0  0
 41 31  1  1  0  0  0
 41 40  1  0  0  0  0
 41 38  1  0  0  0  0
 42 46  2  0  0  0  0
 42 47  1  0  0  0  0
 43 48  1  0  0  0  0
 43 45  2  0  0  0  0
 44 45  1  0  0  0  0
 46 43  1  0  0  0  0
 47 44  2  0  0  0  0
 48 49  1  0  0  0  0
 50 48  2  0  0  0  0
 51 52  1  6  0  0  0
 53 55  2  0  0  0  0
 55 54  1  0  0  0  0
 55 51  1  0  0  0  0
M  END
>  <MODEL>
3

>  <REMARK>
 VINA RESULT:       0.5      4.234     13.772
  Name = 
  16 active torsions:
  status: ('A' for Active; 'I' for Inactive)
    1  A    between atoms: C_1  and  C_53
    2  A    between atoms: C_2  and  C_28
    3  A    between atoms: C_2  and  C_44
    4  A    between atoms: C_8  and  N_22
    5  A    between atoms: C_8  and  S_35
    6  A    between atoms: C_10  and  C_32
    7  A    between atoms: C_19  and  C_40
    8  A    between atoms: C_19  and  C_45
    9  A    between atoms: C_20  and  C_42
   10  A    between atoms: C_25  and  C_38
   11  A    between atoms: C_27  and  C_54
   12  A    between atoms: C_28  and  C_49
   13  A    between atoms: C_33  and  C_52
   14  A    between atoms: S_35  and  S_43
   15  A    between atoms: S_43  and  C_51
   16  A    between atoms: C_51  and  C_54
                            x       y       z     vdW  Elec       q    Type
                         _______ _______ _______ _____ _____    ______ ____

>  <TORSDO>
F 16

$$$$
=
 OpenBabel11062408553D

 55 59  0  0  1  0  0  0  0  0999 V2000
  161.9280  208.3750  152.9270 C   0  0  0  0  0  3  0  0  0  0  0  0
  160.9810  206.0610  151.6640 C   0  0  0  0  0  0  0  0  0  0  0  0
  160.7380  206.2670  153.0250 C   0  0  0  0  0  3  0  0  0  0  0  0
  162.1610  208.1750  151.5620 C   0  0  0  0  0  3  0  0  0  0  0  0
  161.2190  207.4170  153.6620 C   0  0  0  0  0  0  0  0  0  0  0  0
  161.6960  207.0150  150.9320 C   0  0  0  0  0  3  0  0  0  0  0  0
  160.5430  204.7870  151.0200 C   0  0  0  0  0  2  0  0  0  0  0  0
  161.0520  203.5760  151.7950 C   0  0  0  0  0  2  0  0  0  0  0  0
  161.6220  202.2710  150.6610 S   0  0  0  0  0  0  0  0  0  0  0  0
  159.7890  201.2070  150.8200 S   0  0  0  0  0  0  0  0  0  0  0  0
  159.2470  201.7310  149.1660 C   0  0  0  0  0  2  0  0  0  0  0  0
  160.9510  200.8520  147.0400 C   0  0  0  0  0  1  0  0  0  0  0  0
  161.0280  202.2450  147.6150 C   0  0  0  0  0  0  0  0  0  0  0  0
  160.2250  202.6070  148.5630 N   0  0  0  0  0  0  0  0  0  0  0  0
  161.0610  205.5670  144.6610 C   0  0  2  0  0  3  0  0  0  0  0  0
  161.9810  203.2600  145.4730 C   0  0  1  0  0  3  0  0  0  0  0  0
  163.2550  202.9870  147.4470 F   0  0  0  0  0  0  0  0  0  0  0  0
  161.9850  205.8520  143.6570 O   0  0  0  0  0  1  0  0  0  0  0  0
  162.3570  205.6620  146.8250 O   0  0  0  0  0  0  0  0  0  0  0  0
  161.4630  206.3110  145.9480 C   0  0  2  0  0  3  0  0  0  0  0  0
  161.9710  203.2810  147.0200 C   0  0  2  0  0  0  0  0  0  0  0  0
  162.0960  201.9680  144.9520 O   0  0  0  0  0  1  0  0  0  0  0  0
  161.6360  204.6870  147.5290 C   0  0  0  0  0  2  0  0  0  0  0  0
  160.8710  204.0450  144.7590 C   0  0  1  0  0  3  0  0  0  0  0  0
  159.4670  203.5820  144.9860 C   0  0  0  0  0  0  0  0  0  0  0  0
  159.1650  202.2330  145.1060 O   0  0  0  0  0  1  0  0  0  0  0  0
  158.5470  204.4330  145.0800 O   0  0  0  0  0  0  0  0  0  0  0  0
  159.8530  206.6430  147.7210 O   0  0  0  0  0  1  0  0  0  0  0  0
  160.4200  207.2300  146.5880 C   0  0  0  0  0  2  0  0  0  0  0  0
  161.0010  207.6060  155.1240 C   0  0  0  0  0  2  0  0  0  0  0  0
  160.0040  208.7340  155.3510 C   0  0  0  0  0  2  0  0  0  0  0  0
  159.7220  212.7020  157.2410 C   0  0  0  0  0  2  0  0  0  0  0  0
  158.4620  213.5410  157.2610 C   0  0  0  0  0  2  0  0  0  0  0  0
  157.4320  211.2310  154.7940 C   0  0  0  0  0  3  0  0  0  0  0  0
  158.3370  212.2440  155.4260 C   0  0  1  0  0  3  0  0  0  0  0  0
  157.5930  213.1140  156.2380 O   0  0  0  0  0  0  0  0  0  0  0  0
  159.4160  211.6030  156.2680 C   0  0  1  0  0  3  0  0  0  0  0  0
  159.2790  210.2020  153.4110 C   0  0  2  0  0  3  0  0  0  0  0  0
  157.8520  210.3330  153.8930 C   0  0  0  0  0  3  0  0  0  0  0  0
  160.6190  211.2060  155.3790 C   0  0  2  0  0  3  0  0  0  0  0  0
  160.3390  209.9640  154.5050 C   0  0  1  0  0  3  0  0  0  0  0  0
  160.6600  210.8080  151.4230 C   0  0  0  0  0  3  0  0  0  0  0  0
  160.4760  212.9700  150.3320 C   0  0  0  0  0  0  0  0  0  0  0  0
  159.1090  212.4600  152.2740 C   0  0  0  0  0  3  0  0  0  0  0  0
  159.5030  213.3480  151.2690 C   0  0  0  0  0  3  0  0  0  0  0  0
  161.0530  211.6960  150.4170 C   0  0  0  0  0  3  0  0  0  0  0  0
  159.6820  211.1830  152.3510 C   0  0  0  0  0  0  0  0  0  0  0  0
  160.8880  213.8960  149.2660 C   0  0  0  0  0  0  0  0  0  0  0  0
  160.0240  214.4530  148.5370 O   0  0  0  0  0  0  0  0  0  0  0  0
  162.2350  214.1660  149.0550 O   0  0  0  0  0  1  0  0  0  0  0  0
  161.9920  211.0760  156.0760 C   0  0  1  0  0  3  0  0  0  0  0  0
  161.9970  210.0130  157.1620 C   0  0  0  0  0  1  0  0  0  0  0  0
  164.4560  211.0520  155.6910 O   0  0  0  0  0  1  0  0  0  0  0  0
  163.0250  210.7420  153.9290 O   0  0  0  0  0  0  0  0  0  0  0  0
  163.1750  210.9520  155.1620 C   0  0  0  0  0  0  0  0  0  0  0  0
  1  5  1  0  0  0  0
  2  3  1  0  0  0  0
  3  5  2  0  0  0  0
  4  1  2  0  0  0  0
  5 30  1  0  0  0  0
  6  4  1  0  0  0  0
  6  2  2  0  0  0  0
  7  2  1  0  0  0  0
  7  8  1  0  0  0  0
  9 10  1  0  0  0  0
  9  8  1  0  0  0  0
 11 10  1  0  0  0  0
 12 13  1  0  0  0  0
 13 14  2  0  0  0  0
 14 11  1  0  0  0  0
 15 18  1  6  0  0  0
 15 24  1  0  0  0  0
 15 20  1  0  0  0  0
 16 22  1  1  0  0  0
 16 21  1  0  0  0  0
 19 23  1  0  0  0  0
 20 29  1  1  0  0  0
 20 19  1  0  0  0  0
 21 17  1  1  0  0  0
 21 23  1  0  0  0  0
 21 13  1  0  0  0  0
 24 25  1  1  0  0  0
 24 16  1  0  0  0  0
 25 27  2  0  0  0  0
 25 26  1  0  0  0  0
 29 28  1  0  0  0  0
 30 31  1  0  0  0  0
 32 33  1  0  0  0  0
 35 34  1  1  0  0  0
 35 36  1  0  0  0  0
 35 37  1  0  0  0  0
 36 33  1  0  0  0  0
 37 32  1  1  0  0  0
 38 47  1  1  0  0  0
 38 39  1  0  0  0  0
 38 41  1  0  0  0  0
 39 34  2  0  0  0  0
 40 51  1  1  0  0  0
 40 37  1  0  0  0  0
 41 31  1  1  0  0  0
 41 40  1  0  0  0  0
 42 47  1  0  0  0  0
 43 46  1  0  0  0  0
 43 45  2  0  0  0  0
 44 47  2  0  0  0  0
 45 44  1  0  0  0  0
 46 42  2  0  0  0  0
 48 43  1  0  0  0  0
 49 48  2  0  0  0  0
 50 48  1  0  0  0  0
 51 52  1  1  0  0  0
 54 55  2  0  0  0  0
 55 53  1  0  0  0  0
 55 51  1  0  0  0  0
M  END
>  <MODEL>
4

>  <REMARK>
 VINA RESULT:       1.2      6.616     13.020
  Name = 
  16 active torsions:
  status: ('A' for Active; 'I' for Inactive)
    1  A    between atoms: C_1  and  C_53
    2  A    between atoms: C_2  and  C_28
    3  A    between atoms: C_2  and  C_44
    4  A    between atoms: C_8  and  N_22
    5  A    between atoms: C_8  and  S_35
    6  A    between atoms: C_10  and  C_32
    7  A    between atoms: C_19  and  C_40
    8  A    between atoms: C_19  and  C_45
    9  A    between atoms: C_20  and  C_42
   10  A    between atoms: C_25  and  C_38
   11  A    between atoms: C_27  and  C_54
   12  A    between atoms: C_28  and  C_49
   13  A    between atoms: C_33  and  C_52
   14  A    between atoms: S_35  and  S_43
   15  A    between atoms: S_43  and  C_51
   16  A    between atoms: C_51  and  C_54
                            x       y       z     vdW  Elec       q    Type
                         _______ _______ _______ _____ _____    ______ ____

>  <TORSDO>
F 16

$$$$
