=
 OpenBabel11052422243D

 31 35  0  0  1  0  0  0  0  0999 V2000
  160.8180  208.0270  154.1330 C   0  0  0  0  0  0  0  0  0  0  0  0
  162.0350  207.5030  150.5290 C   0  0  2  0  0  3  0  0  0  0  0  0
  161.7350  206.0240  150.3100 C   0  0  0  0  0  0  0  0  0  0  0  0
  161.0070  204.2010  151.8160 C   0  0  0  0  0  3  0  0  0  0  0  0
  161.5100  208.1380  151.8040 C   0  0  0  0  0  0  0  0  0  0  0  0
  160.6950  209.4170  154.1700 C   0  0  0  0  0  3  0  0  0  0  0  0
  162.1470  205.0600  151.3810 C   0  0  0  0  0  2  0  0  0  0  0  0
  162.1630  209.7630  149.5000 C   0  0  1  0  0  3  0  0  0  0  0  0
  160.5350  207.2740  155.2640 O   0  0  0  0  0  1  0  0  0  0  0  0
  161.2970  206.5200  147.9100 C   0  0  0  0  0  2  0  0  0  0  0  0
  160.4070  203.3410  150.9990 C   0  0  0  0  0  3  0  0  0  0  0  0
  161.6700  210.3250  150.7210 O   0  0  0  0  0  0  0  0  0  0  0  0
  161.6110  208.3500  149.3240 C   0  0  1  0  0  3  0  0  0  0  0  0
  161.2330  207.3930  152.9590 C   0  0  0  0  0  3  0  0  0  0  0  0
  160.7250  203.1860  149.5690 C   0  0  0  0  0  3  0  0  0  0  0  0
  161.4000  209.5460  151.8560 C   0  0  0  0  0  0  0  0  0  0  0  0
  160.9860  210.1750  153.0330 C   0  0  0  0  0  3  0  0  0  0  0  0
  162.1000  207.7240  148.1050 N   0  0  0  0  0  2  0  0  0  0  0  0
  161.4310  205.5650  149.0700 C   0  0  0  0  0  0  0  0  0  0  0  0
  161.1740  204.1420  148.7460 C   0  0  0  0  0  3  0  0  0  0  0  0
  161.7520  210.6490  148.3340 C   0  0  0  0  0  2  0  0  0  0  0  0
  163.4610  212.3110  148.2750 O   0  0  0  0  0  1  0  0  0  0  0  0
  162.1210  212.0970  148.6030 C   0  0  1  0  0  3  0  0  0  0  0  0
  161.0690  213.1810  147.5940 S   0  0  0  0  0  0  0  0  0  0  0  0
  157.4530  213.4760  149.6590 C   0  0  0  0  0  0  0  0  0  0  0  0
  159.2430  213.5390  151.2370 C   0  0  0  0  0  3  0  0  0  0  0  0
  156.2090  213.5190  149.4700 O   0  0  0  0  0  0  0  0  0  0  0  0
  158.3750  213.3240  148.4830 C   0  0  0  0  0  2  0  0  0  0  0  0
  160.2220  213.4200  150.1480 C   0  0  0  0  0  3  0  0  0  0  0  0
  159.8300  213.3300  148.8740 C   0  0  0  0  0  0  0  0  0  0  0  0
  157.9690  213.5650  150.9930 N   0  0  0  0  0  0  0  0  0  0  0  0
  1  6  1  0  0  0  0
  1  9  1  0  0  0  0
  2  3  1  6  0  0  0
  2  5  1  0  0  0  0
  3  7  1  0  0  0  0
  5 16  2  0  0  0  0
  5 14  1  0  0  0  0
  7  4  1  0  0  0  0
  8 21  1  6  0  0  0
  8 12  1  0  0  0  0
 10 18  1  0  0  0  0
 10 19  1  0  0  0  0
 11  4  2  0  0  0  0
 12 16  1  0  0  0  0
 13 18  1  6  0  0  0
 13  8  1  0  0  0  0
 13  2  1  0  0  0  0
 14  1  2  0  0  0  0
 15 11  1  0  0  0  0
 16 17  1  0  0  0  0
 17  6  2  0  0  0  0
 19  3  2  0  0  0  0
 20 19  1  0  0  0  0
 20 15  2  0  0  0  0
 21 23  1  0  0  0  0
 23 22  1  6  0  0  0
 24 23  1  0  0  0  0
 24 30  1  0  0  0  0
 25 31  1  0  0  0  0
 27 25  2  0  0  0  0
 28 30  1  0  0  0  0
 28 25  1  0  0  0  0
 29 26  1  0  0  0  0
 30 29  2  0  0  0  0
 31 26  2  0  0  0  0
M  END
>  <MODEL>
1

>  <REMARK>
 VINA RESULT:      -9.5      0.000      0.000
  Name = 
  4 active torsions:
  status: ('A' for Active; 'I' for Inactive)
    1  A    between atoms: S_3  and  C_9
    2  A    between atoms: S_3  and  C_22
    3  A    between atoms: C_9  and  C_23
    4  A    between atoms: C_15  and  C_23
                            x       y       z     vdW  Elec       q    Type
                         _______ _______ _______ _____ _____    ______ ____

>  <TORSDO>
F 4

$$$$
=
 OpenBabel11052422243D

 31 35  0  0  1  0  0  0  0  0999 V2000
  160.9440  202.0910  150.5770 C   0  0  0  0  0  0  0  0  0  0  0  0
  161.7620  205.4940  148.9980 C   0  0  2  0  0  3  0  0  0  0  0  0
  161.6020  205.1940  147.5110 C   0  0  0  0  0  0  0  0  0  0  0  0
  161.2690  203.1050  146.2290 C   0  0  0  0  0  3  0  0  0  0  0  0
  161.3300  204.4150  149.9750 C   0  0  0  0  0  0  0  0  0  0  0  0
  160.6740  202.4680  151.8930 C   0  0  0  0  0  3  0  0  0  0  0  0
  162.2450  203.9520  146.9740 C   0  0  0  0  0  2  0  0  0  0  0  0
  161.5130  207.1800  150.8080 C   0  0  1  0  0  3  0  0  0  0  0  0
  160.8860  200.7520  150.2130 O   0  0  0  0  0  1  0  0  0  0  0  0
  160.8220  207.5350  147.1760 C   0  0  0  0  0  2  0  0  0  0  0  0
  160.6720  203.5150  145.1130 C   0  0  0  0  0  3  0  0  0  0  0  0
  161.1140  206.1350  151.7000 O   0  0  0  0  0  0  0  0  0  0  0  0
  161.1030  206.8230  149.3810 C   0  0  1  0  0  3  0  0  0  0  0  0
  161.2790  203.0580  149.6260 C   0  0  0  0  0  3  0  0  0  0  0  0
  160.8280  204.8560  144.5260 C   0  0  0  0  0  3  0  0  0  0  0  0
  161.0720  204.7870  151.3130 C   0  0  0  0  0  0  0  0  0  0  0  0
  160.7380  203.8150  152.2610 C   0  0  0  0  0  3  0  0  0  0  0  0
  161.5050  207.8470  148.4280 N   0  0  0  0  0  2  0  0  0  0  0  0
  161.2020  206.1700  146.6580 C   0  0  0  0  0  0  0  0  0  0  0  0
  161.0650  205.9930  145.1930 C   0  0  0  0  0  3  0  0  0  0  0  0
  160.8670  208.4880  151.2410 C   0  0  0  0  0  2  0  0  0  0  0  0
  162.7670  209.9300  151.2950 O   0  0  0  0  0  1  0  0  0  0  0  0
  161.8200  209.2980  152.1030 C   0  0  1  0  0  3  0  0  0  0  0  0
  160.8770  210.5480  153.0250 S   0  0  0  0  0  0  0  0  0  0  0  0
  161.0040  208.0490  156.3670 C   0  0  0  0  0  0  0  0  0  0  0  0
  162.5370  209.8480  156.6980 C   0  0  0  0  0  3  0  0  0  0  0  0
  160.4860  207.0020  156.8360 O   0  0  0  0  0  0  0  0  0  0  0  0
  160.5900  208.5330  155.0060 C   0  0  0  0  0  2  0  0  0  0  0  0
  162.1760  210.4120  155.3900 C   0  0  0  0  0  3  0  0  0  0  0  0
  161.2710  209.8160  154.6080 C   0  0  0  0  0  0  0  0  0  0  0  0
  161.9850  208.7570  157.1330 N   0  0  0  0  0  0  0  0  0  0  0  0
  1  6  1  0  0  0  0
  2  3  1  6  0  0  0
  2 13  1  0  0  0  0
  2  5  1  0  0  0  0
  4  7  1  0  0  0  0
  5 16  2  0  0  0  0
  6 17  2  0  0  0  0
  7  3  1  0  0  0  0
  8 21  1  1  0  0  0
  8 12  1  0  0  0  0
  9  1  1  0  0  0  0
 10 18  1  0  0  0  0
 11  4  2  0  0  0  0
 13 18  1  6  0  0  0
 13  8  1  0  0  0  0
 14  5  1  0  0  0  0
 14  1  2  0  0  0  0
 15 11  1  0  0  0  0
 15 20  2  0  0  0  0
 16 12  1  0  0  0  0
 16 17  1  0  0  0  0
 19 10  1  0  0  0  0
 19  3  2  0  0  0  0
 20 19  1  0  0  0  0
 21 23  1  0  0  0  0
 23 22  1  6  0  0  0
 23 24  1  0  0  0  0
 24 30  1  0  0  0  0
 25 27  2  0  0  0  0
 25 31  1  0  0  0  0
 26 31  2  0  0  0  0
 28 25  1  0  0  0  0
 29 26  1  0  0  0  0
 30 28  1  0  0  0  0
 30 29  2  0  0  0  0
M  END
>  <MODEL>
2

>  <REMARK>
 VINA RESULT:      -9.1      3.511      5.803
  Name = 
  4 active torsions:
  status: ('A' for Active; 'I' for Inactive)
    1  A    between atoms: S_3  and  C_9
    2  A    between atoms: S_3  and  C_22
    3  A    between atoms: C_9  and  C_23
    4  A    between atoms: C_15  and  C_23
                            x       y       z     vdW  Elec       q    Type
                         _______ _______ _______ _____ _____    ______ ____

>  <TORSDO>
F 4

$$$$
=
 OpenBabel11052422243D

 31 35  0  0  1  0  0  0  0  0999 V2000
  162.0840  209.8810  149.2660 C   0  0  0  0  0  0  0  0  0  0  0  0
  160.7340  206.7140  150.9650 C   0  0  2  0  0  3  0  0  0  0  0  0
  160.8810  205.6780  149.8560 C   0  0  0  0  0  0  0  0  0  0  0  0
  161.4640  205.8350  147.4570 C   0  0  0  0  0  3  0  0  0  0  0  0
  161.3500  208.0810  150.7270 C   0  0  0  0  0  0  0  0  0  0  0  0
  162.3440  210.6870  150.3770 C   0  0  0  0  0  3  0  0  0  0  0  0
  160.4040  206.0470  148.4850 C   0  0  0  0  0  2  0  0  0  0  0  0
  160.8040  207.1510  153.4120 C   0  0  1  0  0  3  0  0  0  0  0  0
  162.3200  210.3670  147.9870 O   0  0  0  0  0  1  0  0  0  0  0  0
  161.3070  203.9500  151.5980 C   0  0  0  0  0  2  0  0  0  0  0  0
  161.9560  204.6310  147.1760 C   0  0  0  0  0  3  0  0  0  0  0  0
  161.3790  208.4350  153.1470 O   0  0  0  0  0  0  0  0  0  0  0  0
  161.2090  206.1690  152.3160 C   0  0  1  0  0  3  0  0  0  0  0  0
  161.5810  208.5900  149.4410 C   0  0  0  0  0  3  0  0  0  0  0  0
  161.5900  203.3920  147.8820 C   0  0  0  0  0  3  0  0  0  0  0  0
  161.5990  208.9090  151.8450 C   0  0  0  0  0  0  0  0  0  0  0  0
  162.1020  210.2010  151.6640 C   0  0  0  0  0  3  0  0  0  0  0  0
  160.6310  204.8500  152.5280 N   0  0  0  0  0  2  0  0  0  0  0  0
  161.1080  204.3760  150.1640 C   0  0  0  0  0  0  0  0  0  0  0  0
  161.2160  203.2890  149.1640 C   0  0  0  0  0  3  0  0  0  0  0  0
  161.2710  206.6600  154.7740 C   0  0  0  0  0  2  0  0  0  0  0  0
  160.1470  206.5790  156.8760 O   0  0  0  0  0  1  0  0  0  0  0  0
  160.6060  207.4500  155.8880 C   0  0  1  0  0  3  0  0  0  0  0  0
  161.8130  208.6020  156.6070 S   0  0  0  0  0  0  0  0  0  0  0  0
  158.6500  211.1050  155.5260 C   0  0  0  0  0  0  0  0  0  0  0  0
  160.4550  212.4510  156.3180 C   0  0  0  0  0  3  0  0  0  0  0  0
  157.4850  211.0730  155.0530 O   0  0  0  0  0  0  0  0  0  0  0  0
  159.3890  209.8170  155.7610 C   0  0  0  0  0  2  0  0  0  0  0  0
  161.2640  211.2470  156.5560 C   0  0  0  0  0  3  0  0  0  0  0  0
  160.7820  210.0290  156.2920 C   0  0  0  0  0  0  0  0  0  0  0  0
  159.2520  212.3660  155.8420 N   0  0  0  0  0  0  0  0  0  0  0  0
  1 14  2  0  0  0  0
  1  6  1  0  0  0  0
  2  3  1  6  0  0  0
  2 13  1  0  0  0  0
  3 19  2  0  0  0  0
  4  7  1  0  0  0  0
  5  2  1  0  0  0  0
  5 16  2  0  0  0  0
  6 17  2  0  0  0  0
  7  3  1  0  0  0  0
  8 21  1  1  0  0  0
  9  1  1  0  0  0  0
 10 18  1  0  0  0  0
 11  4  2  0  0  0  0
 11 15  1  0  0  0  0
 12  8  1  0  0  0  0
 13 18  1  1  0  0  0
 13  8  1  0  0  0  0
 14  5  1  0  0  0  0
 15 20  2  0  0  0  0
 16 12  1  0  0  0  0
 17 16  1  0  0  0  0
 19 10  1  0  0  0  0
 20 19  1  0  0  0  0
 21 23  1  0  0  0  0
 23 24  1  0  0  0  0
 23 22  1  1  0  0  0
 25 28  1  0  0  0  0
 25 31  1  0  0  0  0
 26 29  1  0  0  0  0
 27 25  2  0  0  0  0
 28 30  1  0  0  0  0
 30 29  2  0  0  0  0
 30 24  1  0  0  0  0
 31 26  2  0  0  0  0
M  END
>  <MODEL>
3

>  <REMARK>
 VINA RESULT:      -8.7      3.335      5.575
  Name = 
  4 active torsions:
  status: ('A' for Active; 'I' for Inactive)
    1  A    between atoms: S_3  and  C_9
    2  A    between atoms: S_3  and  C_22
    3  A    between atoms: C_9  and  C_23
    4  A    between atoms: C_15  and  C_23
                            x       y       z     vdW  Elec       q    Type
                         _______ _______ _______ _____ _____    ______ ____

>  <TORSDO>
F 4

$$$$
=
 OpenBabel11052422243D

 31 35  0  0  1  0  0  0  0  0999 V2000
  161.9120  210.1650  149.6330 C   0  0  0  0  0  0  0  0  0  0  0  0
  161.7170  207.9760  152.7820 C   0  0  2  0  0  3  0  0  0  0  0  0
  161.2060  208.9690  153.8210 C   0  0  0  0  0  0  0  0  0  0  0  0
  160.8700  211.4200  153.8020 C   0  0  0  0  0  3  0  0  0  0  0  0
  161.7460  208.4350  151.3360 C   0  0  0  0  0  0  0  0  0  0  0  0
  161.9570  209.1890  148.6360 C   0  0  0  0  0  3  0  0  0  0  0  0
  161.8650  210.3130  153.8900 C   0  0  0  0  0  2  0  0  0  0  0  0
  161.7100  205.6190  151.9940 C   0  0  1  0  0  3  0  0  0  0  0  0
  161.9690  211.5090  149.2920 O   0  0  0  0  0  1  0  0  0  0  0  0
  160.0040  207.0980  154.9420 C   0  0  0  0  0  2  0  0  0  0  0  0
  159.9330  211.6140  154.7260 C   0  0  0  0  0  3  0  0  0  0  0  0
  161.7410  206.0910  150.6430 O   0  0  0  0  0  0  0  0  0  0  0  0
  160.9870  206.6330  152.8770 C   0  0  1  0  0  3  0  0  0  0  0  0
  161.8170  209.7890  150.9760 C   0  0  0  0  0  3  0  0  0  0  0  0
  159.7070  210.7340  155.8860 C   0  0  0  0  0  3  0  0  0  0  0  0
  161.8090  207.4540  150.3210 C   0  0  0  0  0  0  0  0  0  0  0  0
  161.9050  207.8360  148.9800 C   0  0  0  0  0  3  0  0  0  0  0  0
  160.9450  206.2090  154.2680 N   0  0  0  0  0  2  0  0  0  0  0  0
  160.4380  208.5410  154.8540 C   0  0  0  0  0  0  0  0  0  0  0  0
  159.9350  209.4160  155.9390 C   0  0  0  0  0  3  0  0  0  0  0  0
  161.0090  204.2690  152.0410 C   0  0  0  0  0  2  0  0  0  0  0  0
  162.5180  202.4660  151.6360 O   0  0  0  0  0  1  0  0  0  0  0  0
  161.6030  203.3180  151.0160 C   0  0  1  0  0  3  0  0  0  0  0  0
  160.2700  202.3370  150.2670 S   0  0  0  0  0  0  0  0  0  0  0  0
  161.8310  204.2320  146.8900 C   0  0  0  0  0  0  0  0  0  0  0  0
  161.0150  202.0820  146.2520 C   0  0  0  0  0  3  0  0  0  0  0  0
  162.3710  205.3080  146.5240 O   0  0  0  0  0  0  0  0  0  0  0  0
  161.4660  204.0420  148.3350 C   0  0  0  0  0  2  0  0  0  0  0  0
  160.5980  201.8170  147.6360 C   0  0  0  0  0  3  0  0  0  0  0  0
  160.7940  202.7200  148.6000 C   0  0  0  0  0  0  0  0  0  0  0  0
  161.5810  203.2030  145.9250 N   0  0  0  0  0  0  0  0  0  0  0  0
  1 14  1  0  0  0  0
  2  5  1  6  0  0  0
  2 13  1  0  0  0  0
  2  3  1  0  0  0  0
  3  7  1  0  0  0  0
  3 19  2  0  0  0  0
  4  7  1  0  0  0  0
  4 11  2  0  0  0  0
  6 17  1  0  0  0  0
  6  1  2  0  0  0  0
  8 21  1  6  0  0  0
  8 13  1  0  0  0  0
  9  1  1  0  0  0  0
 11 15  1  0  0  0  0
 12  8  1  0  0  0  0
 13 18  1  1  0  0  0
 14  5  2  0  0  0  0
 15 20  2  0  0  0  0
 16 12  1  0  0  0  0
 16  5  1  0  0  0  0
 17 16  2  0  0  0  0
 18 10  1  0  0  0  0
 19 10  1  0  0  0  0
 19 20  1  0  0  0  0
 23 22  1  1  0  0  0
 23 21  1  0  0  0  0
 24 23  1  0  0  0  0
 25 28  1  0  0  0  0
 26 29  1  0  0  0  0
 27 25  2  0  0  0  0
 28 30  1  0  0  0  0
 29 30  2  0  0  0  0
 30 24  1  0  0  0  0
 31 26  2  0  0  0  0
 31 25  1  0  0  0  0
M  END
>  <MODEL>
4

>  <REMARK>
 VINA RESULT:      -8.6      3.659      7.994
  Name = 
  4 active torsions:
  status: ('A' for Active; 'I' for Inactive)
    1  A    between atoms: S_3  and  C_9
    2  A    between atoms: S_3  and  C_22
    3  A    between atoms: C_9  and  C_23
    4  A    between atoms: C_15  and  C_23
                            x       y       z     vdW  Elec       q    Type
                         _______ _______ _______ _____ _____    ______ ____

>  <TORSDO>
F 4

$$$$
=
 OpenBabel11052422243D

 31 35  0  0  1  0  0  0  0  0999 V2000
  161.9710  206.7970  147.3760 C   0  0  0  0  0  0  0  0  0  0  0  0
  160.6640  204.9550  150.4810 C   0  0  2  0  0  3  0  0  0  0  0  0
  160.7040  203.5010  150.0200 C   0  0  0  0  0  0  0  0  0  0  0  0
  161.1140  202.4270  147.8300 C   0  0  0  0  0  3  0  0  0  0  0  0
  161.2970  205.9910  149.5690 C   0  0  0  0  0  0  0  0  0  0  0  0
  162.3320  208.0260  147.9300 C   0  0  0  0  0  3  0  0  0  0  0  0
  160.1370  203.1780  148.6720 C   0  0  0  0  0  2  0  0  0  0  0  0
  160.9240  206.5300  152.3870 C   0  0  1  0  0  3  0  0  0  0  0  0
  162.1250  206.5780  146.0130 O   0  0  0  0  0  1  0  0  0  0  0  0
  161.2090  202.8270  152.3630 C   0  0  0  0  0  2  0  0  0  0  0  0
  161.5520  201.2140  148.1530 C   0  0  0  0  0  3  0  0  0  0  0  0
  161.5120  207.4820  151.4950 O   0  0  0  0  0  0  0  0  0  0  0  0
  161.2230  205.1140  151.8990 C   0  0  1  0  0  3  0  0  0  0  0  0
  161.4480  205.7890  148.1890 C   0  0  0  0  0  3  0  0  0  0  0  0
  161.2060  200.5040  149.3960 C   0  0  0  0  0  3  0  0  0  0  0  0
  161.6490  207.2430  150.1190 C   0  0  0  0  0  0  0  0  0  0  0  0
  162.1710  208.2490  149.3000 C   0  0  0  0  0  3  0  0  0  0  0  0
  160.6280  204.1050  152.7620 N   0  0  0  0  0  2  0  0  0  0  0  0
  160.9180  202.5070  150.9180 C   0  0  0  0  0  0  0  0  0  0  0  0
  160.9250  201.0640  150.5800 C   0  0  0  0  0  3  0  0  0  0  0  0
  161.4760  206.7420  153.7890 C   0  0  0  0  0  2  0  0  0  0  0  0
  160.1210  206.9100  155.7440 O   0  0  0  0  0  1  0  0  0  0  0  0
  160.5380  207.6090  154.6100 C   0  0  1  0  0  3  0  0  0  0  0  0
  161.4070  209.1220  155.1150 S   0  0  0  0  0  0  0  0  0  0  0  0
  158.7470  211.6290  153.0970 C   0  0  0  0  0  0  0  0  0  0  0  0
  157.9200  211.2530  155.3040 C   0  0  0  0  0  3  0  0  0  0  0  0
  158.5800  212.2030  151.9900 O   0  0  0  0  0  0  0  0  0  0  0  0
  159.9510  210.7520  153.3020 C   0  0  0  0  0  2  0  0  0  0  0  0
  159.0790  210.4010  155.6060 C   0  0  0  0  0  3  0  0  0  0  0  0
  160.0240  210.1730  154.6900 C   0  0  0  0  0  0  0  0  0  0  0  0
  157.7840  211.8130  154.1420 N   0  0  0  0  0  0  0  0  0  0  0  0
  1  6  2  0  0  0  0
  1 14  1  0  0  0  0
  2  5  1  6  0  0  0
  2 13  1  0  0  0  0
  3  2  1  0  0  0  0
  3 19  2  0  0  0  0
  4 11  2  0  0  0  0
  4  7  1  0  0  0  0
  5 16  1  0  0  0  0
  6 17  1  0  0  0  0
  7  3  1  0  0  0  0
  8 21  1  1  0  0  0
  9  1  1  0  0  0  0
 10 18  1  0  0  0  0
 11 15  1  0  0  0  0
 12  8  1  0  0  0  0
 13  8  1  0  0  0  0
 13 18  1  1  0  0  0
 14  5  2  0  0  0  0
 15 20  2  0  0  0  0
 16 12  1  0  0  0  0
 17 16  2  0  0  0  0
 19 10  1  0  0  0  0
 20 19  1  0  0  0  0
 21 23  1  0  0  0  0
 23 24  1  0  0  0  0
 23 22  1  1  0  0  0
 25 28  1  0  0  0  0
 25 31  1  0  0  0  0
 26 29  1  0  0  0  0
 27 25  2  0  0  0  0
 28 30  1  0  0  0  0
 30 24  1  0  0  0  0
 30 29  2  0  0  0  0
 31 26  2  0  0  0  0
M  END
>  <MODEL>
5

>  <REMARK>
 VINA RESULT:      -8.3      3.181      5.429
  Name = 
  4 active torsions:
  status: ('A' for Active; 'I' for Inactive)
    1  A    between atoms: S_3  and  C_9
    2  A    between atoms: S_3  and  C_22
    3  A    between atoms: C_9  and  C_23
    4  A    between atoms: C_15  and  C_23
                            x       y       z     vdW  Elec       q    Type
                         _______ _______ _______ _____ _____    ______ ____

>  <TORSDO>
F 4

$$$$
=
 OpenBabel11052422243D

 31 35  0  0  1  0  0  0  0  0999 V2000
  161.4200  203.5870  145.8910 C   0  0  0  0  0  0  0  0  0  0  0  0
  160.9490  205.7630  149.0200 C   0  0  2  0  0  3  0  0  0  0  0  0
  160.8550  204.7120  150.1200 C   0  0  0  0  0  0  0  0  0  0  0  0
  160.6720  202.2450  150.0960 C   0  0  0  0  0  3  0  0  0  0  0  0
  161.3320  205.2850  147.6310 C   0  0  0  0  0  0  0  0  0  0  0  0
  161.9230  204.5260  144.9890 C   0  0  0  0  0  3  0  0  0  0  0  0
  159.9550  203.5360  149.8900 C   0  0  0  0  0  2  0  0  0  0  0  0
  161.7090  208.0480  148.4000 C   0  0  1  0  0  3  0  0  0  0  0  0
  161.2130  202.2760  145.4850 O   0  0  0  0  0  1  0  0  0  0  0  0
  161.9460  206.3180  151.6780 C   0  0  0  0  0  2  0  0  0  0  0  0
  161.1700  201.8830  151.2750 C   0  0  0  0  0  3  0  0  0  0  0  0
  162.0530  207.5600  147.1000 O   0  0  0  0  0  0  0  0  0  0  0  0
  161.8580  206.9280  149.4270 C   0  0  1  0  0  3  0  0  0  0  0  0
  161.1170  203.9670  147.2010 C   0  0  0  0  0  3  0  0  0  0  0  0
  161.1520  202.7240  152.4840 C   0  0  0  0  0  3  0  0  0  0  0  0
  161.8260  206.2330  146.7070 C   0  0  0  0  0  0  0  0  0  0  0  0
  162.1250  205.8470  145.3970 C   0  0  0  0  0  3  0  0  0  0  0  0
  161.4990  207.3670  150.7670 N   0  0  0  0  0  2  0  0  0  0  0  0
  161.2870  204.9960  151.3740 C   0  0  0  0  0  0  0  0  0  0  0  0
  161.1930  204.0620  152.5210 C   0  0  0  0  0  3  0  0  0  0  0  0
  162.6080  209.2240  148.7530 C   0  0  0  0  0  2  0  0  0  0  0  0
  161.7980  210.7000  150.4430 O   0  0  0  0  0  1  0  0  0  0  0  0
  161.7810  210.4580  149.0680 C   0  0  1  0  0  3  0  0  0  0  0  0
  162.4800  211.8870  148.1910 S   0  0  0  0  0  0  0  0  0  0  0  0
  158.8650  212.7880  146.3060 C   0  0  0  0  0  0  0  0  0  0  0  0
  158.9590  213.9620  148.3820 C   0  0  0  0  0  3  0  0  0  0  0  0
  158.2130  212.5490  145.2570 O   0  0  0  0  0  0  0  0  0  0  0  0
  160.2020  212.1330  146.5130 C   0  0  0  0  0  2  0  0  0  0  0  0
  160.2840  213.3910  148.6580 C   0  0  0  0  0  3  0  0  0  0  0  0
  160.8680  212.5540  147.7960 C   0  0  0  0  0  0  0  0  0  0  0  0
  158.3190  213.6740  147.2910 N   0  0  0  0  0  0  0  0  0  0  0  0
  1 14  1  0  0  0  0
  2  5  1  6  0  0  0
  2 13  1  0  0  0  0
  2  3  1  0  0  0  0
  3 19  2  0  0  0  0
  4 11  2  0  0  0  0
  6 17  1  0  0  0  0
  6  1  2  0  0  0  0
  7  4  1  0  0  0  0
  7  3  1  0  0  0  0
  8 21  1  1  0  0  0
  8 13  1  0  0  0  0
  9  1  1  0  0  0  0
 11 15  1  0  0  0  0
 12  8  1  0  0  0  0
 13 18  1  1  0  0  0
 14  5  2  0  0  0  0
 15 20  2  0  0  0  0
 16 12  1  0  0  0  0
 16  5  1  0  0  0  0
 17 16  2  0  0  0  0
 18 10  1  0  0  0  0
 19 10  1  0  0  0  0
 19 20  1  0  0  0  0
 21 23  1  0  0  0  0
 23 22  1  1  0  0  0
 24 23  1  0  0  0  0
 25 28  1  0  0  0  0
 25 31  1  0  0  0  0
 26 29  1  0  0  0  0
 27 25  2  0  0  0  0
 28 30  1  0  0  0  0
 30 24  1  0  0  0  0
 30 29  2  0  0  0  0
 31 26  2  0  0  0  0
M  END
>  <MODEL>
6

>  <REMARK>
 VINA RESULT:      -8.2      2.719      4.766
  Name = 
  4 active torsions:
  status: ('A' for Active; 'I' for Inactive)
    1  A    between atoms: S_3  and  C_9
    2  A    between atoms: S_3  and  C_22
    3  A    between atoms: C_9  and  C_23
    4  A    between atoms: C_15  and  C_23
                            x       y       z     vdW  Elec       q    Type
                         _______ _______ _______ _____ _____    ______ ____

>  <TORSDO>
F 4

$$$$
=
 OpenBabel11052422243D

 31 35  0  0  1  0  0  0  0  0999 V2000
  160.8550  202.0300  150.5310 C   0  0  0  0  0  0  0  0  0  0  0  0
  161.8240  205.3470  148.8570 C   0  0  2  0  0  3  0  0  0  0  0  0
  161.5890  205.0330  147.3830 C   0  0  0  0  0  0  0  0  0  0  0  0
  161.0770  202.9470  146.1550 C   0  0  0  0  0  3  0  0  0  0  0  0
  161.3630  204.3150  149.8700 C   0  0  0  0  0  0  0  0  0  0  0  0
  160.6600  202.4460  151.8490 C   0  0  0  0  0  3  0  0  0  0  0  0
  162.1320  203.7430  146.8470 C   0  0  0  0  0  2  0  0  0  0  0  0
  161.7510  207.0760  150.6410 C   0  0  1  0  0  3  0  0  0  0  0  0
  160.7000  200.6920  150.1960 O   0  0  0  0  0  1  0  0  0  0  0  0
  160.9460  207.4120  147.0320 C   0  0  0  0  0  2  0  0  0  0  0  0
  160.4650  203.3750  145.0540 C   0  0  0  0  0  3  0  0  0  0  0  0
  161.3220  206.0740  151.5680 O   0  0  0  0  0  0  0  0  0  0  0  0
  161.2650  206.7220  149.2380 C   0  0  1  0  0  3  0  0  0  0  0  0
  161.2140  202.9580  149.5500 C   0  0  0  0  0  3  0  0  0  0  0  0
  160.6820  204.6940  144.4360 C   0  0  0  0  0  3  0  0  0  0  0  0
  161.1800  204.7250  151.2100 C   0  0  0  0  0  0  0  0  0  0  0  0
  160.8230  203.7920  152.1880 C   0  0  0  0  0  3  0  0  0  0  0  0
  161.6940  207.7010  148.2510 N   0  0  0  0  0  2  0  0  0  0  0  0
  161.2180  206.0170  146.5260 C   0  0  0  0  0  0  0  0  0  0  0  0
  161.0150  205.8240  145.0710 C   0  0  0  0  0  3  0  0  0  0  0  0
  161.2060  208.4300  151.0730 C   0  0  0  0  0  2  0  0  0  0  0  0
  162.0910  210.2830  152.2850 O   0  0  0  0  0  1  0  0  0  0  0  0
  161.8880  208.9040  152.3440 C   0  0  1  0  0  3  0  0  0  0  0  0
  160.8370  208.5050  153.7720 S   0  0  0  0  0  0  0  0  0  0  0  0
  158.9250  212.1500  153.0700 C   0  0  0  0  0  0  0  0  0  0  0  0
  160.0790  212.2800  155.1560 C   0  0  0  0  0  3  0  0  0  0  0  0
  158.2070  212.7400  152.2220 O   0  0  0  0  0  0  0  0  0  0  0  0
  159.3410  210.7270  152.8260 C   0  0  0  0  0  2  0  0  0  0  0  0
  160.5570  210.9000  154.9900 C   0  0  0  0  0  3  0  0  0  0  0  0
  160.2290  210.1810  153.9130 C   0  0  0  0  0  0  0  0  0  0  0  0
  159.3270  212.8410  154.2590 N   0  0  0  0  0  0  0  0  0  0  0  0
  1  6  1  0  0  0  0
  2  3  1  6  0  0  0
  2 13  1  0  0  0  0
  2  5  1  0  0  0  0
  4  7  1  0  0  0  0
  5 16  2  0  0  0  0
  6 17  2  0  0  0  0
  7  3  1  0  0  0  0
  8 21  1  1  0  0  0
  8 12  1  0  0  0  0
  9  1  1  0  0  0  0
 10 18  1  0  0  0  0
 11  4  2  0  0  0  0
 13 18  1  6  0  0  0
 13  8  1  0  0  0  0
 14  5  1  0  0  0  0
 14  1  2  0  0  0  0
 15 11  1  0  0  0  0
 15 20  2  0  0  0  0
 16 12  1  0  0  0  0
 16 17  1  0  0  0  0
 19 10  1  0  0  0  0
 19  3  2  0  0  0  0
 20 19  1  0  0  0  0
 21 23  1  0  0  0  0
 23 22  1  6  0  0  0
 23 24  1  0  0  0  0
 24 30  1  0  0  0  0
 25 31  1  0  0  0  0
 27 25  2  0  0  0  0
 28 25  1  0  0  0  0
 28 30  1  0  0  0  0
 29 26  1  0  0  0  0
 30 29  2  0  0  0  0
 31 26  2  0  0  0  0
M  END
>  <MODEL>
7

>  <REMARK>
 VINA RESULT:      -7.8      2.912      4.914
  Name = 
  4 active torsions:
  status: ('A' for Active; 'I' for Inactive)
    1  A    between atoms: S_3  and  C_9
    2  A    between atoms: S_3  and  C_22
    3  A    between atoms: C_9  and  C_23
    4  A    between atoms: C_15  and  C_23
                            x       y       z     vdW  Elec       q    Type
                         _______ _______ _______ _____ _____    ______ ____

>  <TORSDO>
F 4

$$$$
=
 OpenBabel11052422243D

 31 35  0  0  1  0  0  0  0  0999 V2000
  161.8300  206.2040  146.7280 C   0  0  0  0  0  0  0  0  0  0  0  0
  160.7430  204.5160  150.0000 C   0  0  2  0  0  3  0  0  0  0  0  0
  160.7480  203.0430  149.6080 C   0  0  0  0  0  0  0  0  0  0  0  0
  161.0020  201.8640  147.4480 C   0  0  0  0  0  3  0  0  0  0  0  0
  161.3120  205.5050  148.9990 C   0  0  0  0  0  0  0  0  0  0  0  0
  162.2310  207.4560  147.1960 C   0  0  0  0  0  3  0  0  0  0  0  0
  160.0880  202.6580  148.3190 C   0  0  0  0  0  2  0  0  0  0  0  0
  161.1380  206.1780  151.8070 C   0  0  1  0  0  3  0  0  0  0  0  0
  161.8890  205.9200  145.3700 O   0  0  0  0  0  1  0  0  0  0  0  0
  161.4160  202.4780  151.9400 C   0  0  0  0  0  2  0  0  0  0  0  0
  161.4610  200.6650  147.7970 C   0  0  0  0  0  3  0  0  0  0  0  0
  161.6620  207.0850  150.8310 O   0  0  0  0  0  0  0  0  0  0  0  0
  161.4000  204.7400  151.3670 C   0  0  1  0  0  3  0  0  0  0  0  0
  161.3650  205.2380  147.6230 C   0  0  0  0  0  3  0  0  0  0  0  0
  161.2020  200.0170  149.0940 C   0  0  0  0  0  3  0  0  0  0  0  0
  161.7030  206.7800  149.4630 C   0  0  0  0  0  0  0  0  0  0  0  0
  162.1670  207.7440  148.5620 C   0  0  0  0  0  3  0  0  0  0  0  0
  160.8650  203.7760  152.3170 N   0  0  0  0  0  2  0  0  0  0  0  0
  161.0240  202.0900  150.5350 C   0  0  0  0  0  0  0  0  0  0  0  0
  161.0050  200.6340  150.2660 C   0  0  0  0  0  3  0  0  0  0  0  0
  161.7870  206.4550  153.1550 C   0  0  0  0  0  2  0  0  0  0  0  0
  160.4540  208.4040  152.8170 O   0  0  0  0  0  1  0  0  0  0  0  0
  161.2630  207.7510  153.7480 C   0  0  1  0  0  3  0  0  0  0  0  0
  160.2930  207.3780  155.2390 S   0  0  0  0  0  0  0  0  0  0  0  0
  162.3410  210.6520  156.8260 C   0  0  0  0  0  0  0  0  0  0  0  0
  159.9960  211.0230  157.0730 C   0  0  0  0  0  3  0  0  0  0  0  0
  163.5060  211.0830  157.0270 O   0  0  0  0  0  0  0  0  0  0  0  0
  162.1510  209.3280  156.1400 C   0  0  0  0  0  2  0  0  0  0  0  0
  159.7130  209.7290  156.4360 C   0  0  0  0  0  3  0  0  0  0  0  0
  160.7020  208.9380  156.0120 C   0  0  0  0  0  0  0  0  0  0  0  0
  161.2150  211.4320  157.2460 N   0  0  0  0  0  0  0  0  0  0  0  0
  1  6  2  0  0  0  0
  1 14  1  0  0  0  0
  2  5  1  6  0  0  0
  2 13  1  0  0  0  0
  3  2  1  0  0  0  0
  3 19  2  0  0  0  0
  4 11  2  0  0  0  0
  4  7  1  0  0  0  0
  5 16  1  0  0  0  0
  6 17  1  0  0  0  0
  7  3  1  0  0  0  0
  8 21  1  1  0  0  0
  9  1  1  0  0  0  0
 10 18  1  0  0  0  0
 11 15  1  0  0  0  0
 12  8  1  0  0  0  0
 13  8  1  0  0  0  0
 13 18  1  1  0  0  0
 14  5  2  0  0  0  0
 15 20  2  0  0  0  0
 16 12  1  0  0  0  0
 17 16  2  0  0  0  0
 19 10  1  0  0  0  0
 20 19  1  0  0  0  0
 21 23  1  0  0  0  0
 23 22  1  6  0  0  0
 23 24  1  0  0  0  0
 24 30  1  0  0  0  0
 25 27  2  0  0  0  0
 25 31  1  0  0  0  0
 26 31  2  0  0  0  0
 28 25  1  0  0  0  0
 29 26  1  0  0  0  0
 30 28  1  0  0  0  0
 30 29  2  0  0  0  0
M  END
>  <MODEL>
8

>  <REMARK>
 VINA RESULT:      -7.3      4.306      6.412
  Name = 
  4 active torsions:
  status: ('A' for Active; 'I' for Inactive)
    1  A    between atoms: S_3  and  C_9
    2  A    between atoms: S_3  and  C_22
    3  A    between atoms: C_9  and  C_23
    4  A    between atoms: C_15  and  C_23
                            x       y       z     vdW  Elec       q    Type
                         _______ _______ _______ _____ _____    ______ ____

>  <TORSDO>
F 4

$$$$
=
 OpenBabel11052422243D

 31 35  0  0  1  0  0  0  0  0999 V2000
  161.6450  204.1410  147.3600 C   0  0  0  0  0  0  0  0  0  0  0  0
  161.0490  207.0640  149.7770 C   0  0  2  0  0  3  0  0  0  0  0  0
  160.9350  206.3430  151.1160 C   0  0  0  0  0  0  0  0  0  0  0  0
  160.7850  203.9560  151.7480 C   0  0  0  0  0  3  0  0  0  0  0  0
  161.4810  206.2400  148.5780 C   0  0  0  0  0  0  0  0  0  0  0  0
  162.1640  204.8160  146.2530 C   0  0  0  0  0  3  0  0  0  0  0  0
  160.0580  205.1300  151.1860 C   0  0  0  0  0  2  0  0  0  0  0  0
  161.7970  209.1150  148.5890 C   0  0  1  0  0  3  0  0  0  0  0  0
  161.4680  202.7650  147.3140 O   0  0  0  0  0  1  0  0  0  0  0  0
  161.9560  208.3300  152.2160 C   0  0  0  0  0  2  0  0  0  0  0  0
  161.2500  203.9320  152.9950 C   0  0  0  0  0  3  0  0  0  0  0  0
  162.1880  208.3050  147.4760 O   0  0  0  0  0  0  0  0  0  0  0  0
  161.9300  208.3140  149.8820 C   0  0  1  0  0  3  0  0  0  0  0  0
  161.2970  204.8510  148.5110 C   0  0  0  0  0  3  0  0  0  0  0  0
  161.1840  205.0660  153.9330 C   0  0  0  0  0  3  0  0  0  0  0  0
  161.9910  206.9170  147.4480 C   0  0  0  0  0  0  0  0  0  0  0  0
  162.3360  206.2020  146.2970 C   0  0  0  0  0  3  0  0  0  0  0  0
  161.5230  209.0880  151.0450 N   0  0  0  0  0  2  0  0  0  0  0  0
  161.3230  206.9610  152.2600 C   0  0  0  0  0  0  0  0  0  0  0  0
  161.2060  206.3660  153.6110 C   0  0  0  0  0  3  0  0  0  0  0  0
  162.6700  210.3610  148.6380 C   0  0  0  0  0  2  0  0  0  0  0  0
  161.2920  212.0590  149.5930 O   0  0  0  0  0  1  0  0  0  0  0  0
  161.8400  211.6090  148.3900 C   0  0  1  0  0  3  0  0  0  0  0  0
  162.9010  212.9040  147.6850 S   0  0  0  0  0  0  0  0  0  0  0  0
  159.8070  212.8110  144.8830 C   0  0  0  0  0  0  0  0  0  0  0  0
  161.8280  213.4220  143.7710 C   0  0  0  0  0  3  0  0  0  0  0  0
  158.5760  212.5710  144.7810 O   0  0  0  0  0  0  0  0  0  0  0  0
  160.4690  212.7170  146.2290 C   0  0  0  0  0  2  0  0  0  0  0  0
  162.5670  213.3290  145.0380 C   0  0  0  0  0  3  0  0  0  0  0  0
  161.9490  212.9950  146.1740 C   0  0  0  0  0  0  0  0  0  0  0  0
  160.5550  213.1780  143.7180 N   0  0  0  0  0  0  0  0  0  0  0  0
  1 14  1  0  0  0  0
  2  5  1  6  0  0  0
  2 13  1  0  0  0  0
  2  3  1  0  0  0  0
  3  7  1  0  0  0  0
  3 19  2  0  0  0  0
  4 11  2  0  0  0  0
  6 17  1  0  0  0  0
  6  1  2  0  0  0  0
  7  4  1  0  0  0  0
  8 21  1  1  0  0  0
  8 13  1  0  0  0  0
  9  1  1  0  0  0  0
 10 19  1  0  0  0  0
 11 15  1  0  0  0  0
 12  8  1  0  0  0  0
 13 18  1  1  0  0  0
 14  5  2  0  0  0  0
 16 12  1  0  0  0  0
 16  5  1  0  0  0  0
 17 16  2  0  0  0  0
 18 10  1  0  0  0  0
 19 20  1  0  0  0  0
 20 15  2  0  0  0  0
 23 21  1  0  0  0  0
 23 22  1  1  0  0  0
 24 23  1  0  0  0  0
 25 28  1  0  0  0  0
 26 29  1  0  0  0  0
 27 25  2  0  0  0  0
 29 30  2  0  0  0  0
 30 28  1  0  0  0  0
 30 24  1  0  0  0  0
 31 26  2  0  0  0  0
 31 25  1  0  0  0  0
M  END
>  <MODEL>
9

>  <REMARK>
 VINA RESULT:      -7.1      3.025      4.860
  Name = 
  4 active torsions:
  status: ('A' for Active; 'I' for Inactive)
    1  A    between atoms: S_3  and  C_9
    2  A    between atoms: S_3  and  C_22
    3  A    between atoms: C_9  and  C_23
    4  A    between atoms: C_15  and  C_23
                            x       y       z     vdW  Elec       q    Type
                         _______ _______ _______ _____ _____    ______ ____

>  <TORSDO>
F 4

$$$$
