=
 OpenBabel11062408403D

 55 61  0  0  1  0  0  0  0  0999 V2000
  160.0780  214.4530  149.3510 O   0  0  0  0  0  0  0  0  0  0  0  0
  160.5260  208.1590  150.7420 C   0  0  0  0  0  2  0  0  0  0  0  0
  161.1750  208.8750  154.5000 C   0  0  0  0  0  2  0  0  0  0  0  0
  159.5980  210.3630  156.4100 C   0  0  0  0  0  3  0  0  0  0  0  0
  158.7070  211.0200  157.2580 C   0  0  0  0  0  3  0  0  0  0  0  0
  159.8940  212.3980  155.1220 C   0  0  0  0  0  0  0  0  0  0  0  0
  159.0150  213.0550  155.9930 C   0  0  0  0  0  3  0  0  0  0  0  0
  162.4130  211.0130  154.1370 C   0  0  0  0  0  1  0  0  0  0  0  0
  158.4230  212.3690  157.0560 C   0  0  0  0  0  3  0  0  0  0  0  0
  161.1140  213.8230  147.2580 C   0  0  0  0  0  3  0  0  0  0  0  0
  160.2190  211.0370  155.3440 C   0  0  0  0  0  0  0  0  0  0  0  0
  160.7740  211.1150  147.8770 C   0  0  0  0  0  0  0  0  0  0  0  0
  159.3680  214.1660  150.5530 C   0  0  0  0  0  2  0  0  0  0  0  0
  160.3380  212.1000  148.7600 C   0  0  0  0  0  3  0  0  0  0  0  0
  160.3140  214.0320  151.7470 C   0  0  2  0  0  3  0  0  0  0  0  0
  162.4000  209.8080  150.0980 C   0  0  0  0  0  2  0  0  0  0  0  0
  160.4000  213.1140  154.0320 O   0  0  0  0  0  0  0  0  0  0  0  0
  160.3820  208.7990  152.1240 C   0  0  0  0  0  2  0  0  0  0  0  0
  161.4380  208.3180  153.1020 C   0  0  0  0  0  2  0  0  0  0  0  0
  161.5480  212.8380  146.3610 C   0  0  0  0  0  3  0  0  0  0  0  0
  161.9080  208.3770  150.1090 C   0  0  2  0  0  0  0  0  0  0  0  0
  160.5070  213.4580  148.4650 C   0  0  0  0  0  0  0  0  0  0  0  0
  161.1850  210.3380  154.5310 N   0  0  0  0  0  0  0  0  0  0  0  0
  161.0820  212.7180  151.7050 C   0  0  0  0  0  2  0  0  0  0  0  0
  161.9980  209.1380  148.7810 C   0  0  1  0  0  3  0  0  0  0  0  0
  159.9530  212.8850  152.6960 C   0  0  2  0  0  0  0  0  0  0  0  0
  160.6570  209.6800  148.2800 C   0  0  0  0  0  2  0  0  0  0  0  0
  161.3830  211.4830  146.6730 C   0  0  0  0  0  3  0  0  0  0  0  0
  155.4670  211.2840  154.1720 C   0  0  0  0  0  0  0  0  0  0  0  0
  158.6520  212.0700  152.5020 C   0  0  1  0  0  3  0  0  0  0  0  0
  154.6340  212.5050  154.3470 C   0  0  0  0  0  1  0  0  0  0  0  0
  156.8020  211.3740  153.6610 N   0  0  0  0  0  0  0  0  0  0  0  0
  158.8430  210.7020  152.8000 O   0  0  0  0  0  0  0  0  0  0  0  0
  157.6250  210.2320  153.3390 C   0  0  0  0  0  2  0  0  0  0  0  0
  154.9780  210.1610  154.4630 O   0  0  0  0  0  0  0  0  0  0  0  0
  157.4370  212.5850  153.2320 C   0  0  0  0  0  2  0  0  0  0  0  0
  162.9460  207.2630  150.3130 C   0  0  0  0  0  2  0  0  0  0  0  0
  160.6120  203.8920  147.6540 O   0  0  0  0  0  0  0  0  0  0  0  0
  163.7090  205.0220  147.2910 C   0  0  0  0  0  2  0  0  0  0  0  0
  163.4950  206.6710  149.0480 C   0  0  0  0  0  3  0  0  0  0  0  0
  161.4770  203.6140  148.7290 C   0  0  1  0  0  3  0  0  0  0  0  0
  163.0690  205.5140  148.5620 C   0  0  0  0  0  0  0  0  0  0  0  0
  163.3320  204.0070  145.0230 C   0  0  0  0  0  1  0  0  0  0  0  0
  162.0590  204.8150  149.2240 O   0  0  0  0  0  0  0  0  0  0  0  0
  161.3040  204.3730  146.5040 C   0  0  2  0  0  3  0  0  0  0  0  0
  162.8240  204.0860  146.4460 C   0  0  2  0  0  3  0  0  0  0  0  0
  161.8770  206.5790  145.6600 O   0  0  0  0  0  1  0  0  0  0  0  0
  160.8140  205.7850  146.0870 C   0  0  0  0  0  0  0  0  0  0  0  0
  160.1970  206.4180  147.1700 O   0  0  0  0  0  1  0  0  0  0  0  0
  159.8230  205.6760  144.9270 C   0  0  0  0  0  2  0  0  0  0  0  0
  159.6090  203.2640  144.6160 N   0  0  0  0  0  1  0  0  0  0  0  0
  160.0860  204.4890  144.0080 C   0  0  0  0  0  2  0  0  0  0  0  0
  160.6890  202.9420  149.8450 C   0  0  0  0  0  2  0  0  0  0  0  0
  160.7810  204.3470  151.8650 C   0  0  0  0  0  2  0  0  0  0  0  0
  161.2400  203.3010  151.1860 C   0  0  0  0  0  3  0  0  0  0  0  0
  1 13  1  0  0  0  0
  2 18  1  0  0  0  0
  3 23  1  0  0  0  0
  4  5  1  0  0  0  0
  6 11  1  0  0  0  0
  6  7  2  0  0  0  0
  7  9  1  0  0  0  0
  8 23  1  0  0  0  0
  9  5  2  0  0  0  0
 10 22  1  0  0  0  0
 11  4  2  0  0  0  0
 12 27  1  0  0  0  0
 12 14  1  0  0  0  0
 15 13  1  6  0  0  0
 15 26  1  0  0  0  0
 16 21  1  0  0  0  0
 17  6  1  0  0  0  0
 18 19  1  0  0  0  0
 19  3  1  0  0  0  0
 20 28  1  0  0  0  0
 20 10  2  0  0  0  0
 21 37  1  1  0  0  0
 21  2  1  0  0  0  0
 22 14  2  0  0  0  0
 22  1  1  0  0  0  0
 23 11  1  0  0  0  0
 24 15  1  0  0  0  0
 25 27  1  1  0  0  0
 25 16  1  0  0  0  0
 25 21  1  0  0  0  0
 26 24  1  6  0  0  0
 26 17  1  0  0  0  0
 28 12  2  0  0  0  0
 29 31  1  0  0  0  0
 29 35  2  0  0  0  0
 30 26  1  0  0  0  0
 30 33  1  0  0  0  0
 30 36  1  1  0  0  0
 32 29  1  0  0  0  0
 33 34  1  0  0  0  0
 34 32  1  0  0  0  0
 36 32  1  0  0  0  0
 38 41  1  0  0  0  0
 39 42  1  0  0  0  0
 40 37  1  0  0  0  0
 41 44  1  0  0  0  0
 41 53  1  1  0  0  0
 42 40  2  0  0  0  0
 42 44  1  0  0  0  0
 45 48  1  1  0  0  0
 45 38  1  0  0  0  0
 46 43  1  6  0  0  0
 46 45  1  0  0  0  0
 46 39  1  0  0  0  0
 47 48  1  0  0  0  0
 48 49  1  0  0  0  0
 50 48  1  0  0  0  0
 52 51  1  0  0  0  0
 52 50  1  0  0  0  0
 53 55  1  0  0  0  0
 55 54  2  0  0  0  0
M  END
>  <MODEL>
1

>  <REMARK>
 VINA RESULT:       8.9      0.000      0.000
  Name = 
  8 active torsions:
  status: ('A' for Active; 'I' for Inactive)
    1  A    between atoms: C_6  and  C_25
    2  A    between atoms: C_6  and  C_46
    3  A    between atoms: C_8  and  C_22
    4  A    between atoms: C_12  and  C_30
    5  A    between atoms: C_13  and  C_52
    6  A    between atoms: C_22  and  C_43
    7  A    between atoms: C_25  and  C_38
    8  A    between atoms: C_30  and  C_50
                            x       y       z     vdW  Elec       q    Type
                         _______ _______ _______ _____ _____    ______ ____

>  <TORSDO>
F 8

$$$$
