=
 OpenBabel11062409233D

 37 40  0  0  1  0  0  0  0  0999 V2000
  161.3000  210.2010  154.8510 C   0  0  2  0  0  3  0  0  0  0  0  0
  158.6030  210.7260  157.2600 C   0  0  0  0  0  1  0  0  0  0  0  0
  161.1480  209.7170  152.2410 C   0  0  2  0  0  3  0  0  0  0  0  0
  160.3780  211.1440  155.5760 C   0  0  2  0  0  3  0  0  0  0  0  0
  161.3450  210.7260  153.3980 C   0  0  1  0  0  3  0  0  0  0  0  0
  159.0510  210.3950  155.8450 C   0  0  1  0  0  0  0  0  0  0  0  0
  160.2010  208.5880  152.6400 C   0  0  0  0  0  2  0  0  0  0  0  0
  160.6260  212.0170  153.2880 N   0  0  2  0  0  0  0  0  0  0  0  0
  160.0380  206.7060  154.1030 O   0  0  0  0  0  1  0  0  0  0  0  0
  160.7560  207.8750  153.8600 C   0  0  2  0  0  3  0  0  0  0  0  0
  160.7560  208.7920  155.0910 C   0  0  2  0  0  3  0  0  0  0  0  0
  160.3570  212.3930  154.6900 C   0  0  1  0  0  3  0  0  0  0  0  0
  159.3990  208.9190  155.7700 C   0  0  0  0  0  2  0  0  0  0  0  0
  162.2460  208.2920  150.4870 C   0  0  0  0  0  1  0  0  0  0  0  0
  162.4820  209.1900  151.6960 C   0  0  0  0  0  3  0  0  0  0  0  0
  163.3900  210.3300  151.2640 C   0  0  0  0  0  1  0  0  0  0  0  0
  159.6870  211.7270  151.1440 O   0  0  0  0  0  0  0  0  0  0  0  0
  159.2910  213.0170  151.5340 C   0  0  2  0  0  3  0  0  0  0  0  0
  159.3830  211.9010  152.5150 C   0  0  2  0  0  3  0  0  0  0  0  0
  157.8440  213.3160  151.0900 C   0  0  1  0  0  3  0  0  0  0  0  0
  157.1530  214.1840  152.1410 C   0  0  0  0  0  1  0  0  0  0  0  0
  157.6290  213.8330  149.6520 C   0  0  2  0  0  3  0  0  0  0  0  0
  156.7270  212.9140  148.8380 C   0  0  0  0  0  1  0  0  0  0  0  0
  158.9710  213.9960  148.9510 C   0  0  0  0  0  2  0  0  0  0  0  0
  159.0100  213.2710  147.6090 C   0  0  0  0  0  2  0  0  0  0  0  0
  160.3920  212.7090  147.3230 C   0  0  0  0  0  1  0  0  0  0  0  0
  157.9270  210.7070  154.8380 C   0  0  0  0  0  2  0  0  0  0  0  0
  156.6180  211.1570  155.4820 C   0  0  1  0  0  3  0  0  0  0  0  0
  156.2660  212.4780  154.9850 N   0  0  0  0  0  2  0  0  0  0  0  0
  155.0610  214.4530  155.2250 O   0  0  0  0  0  0  0  0  0  0  0  0
  155.3000  213.1860  157.1520 N   0  0  0  0  0  1  0  0  0  0  0  0
  155.5230  213.4170  155.7660 C   0  0  0  0  0  0  0  0  0  0  0  0
  155.2890  210.0060  155.0780 S   0  0  0  0  0  3  0  0  0  0  0  0
  154.3820  210.0740  156.2980 O   0  0  0  0  0  0  0  0  0  0  0  0
  159.2580  213.4290  154.9370 C   0  0  0  0  0  2  0  0  0  0  0  0
  159.5050  214.1580  156.2150 C   0  0  0  0  0  3  0  0  0  0  0  0
  158.7520  214.0140  157.1700 O   0  0  0  0  0  0  0  0  0  0  0  0
  1 11  1  0  0  0  0
  1  4  1  0  0  0  0
  3  7  1  0  0  0  0
  3  5  1  0  0  0  0
  4  6  1  0  0  0  0
  5  1  1  0  0  0  0
  6  2  1  0  0  0  0
  7 10  1  0  0  0  0
  8  5  1  0  0  0  0
  8 12  1  0  0  0  0
 10  9  1  0  0  0  0
 10 11  1  0  0  0  0
 11 13  1  0  0  0  0
 12 35  1  0  0  0  0
 12  4  1  0  0  0  0
 13  6  1  0  0  0  0
 14 15  1  0  0  0  0
 15  3  1  0  0  0  0
 16 15  1  0  0  0  0
 17 18  1  0  0  0  0
 17 19  1  0  0  0  0
 18 19  1  0  0  0  0
 19  8  1  0  0  0  0
 20 18  1  0  0  0  0
 20 21  1  0  0  0  0
 22 20  1  0  0  0  0
 23 22  1  0  0  0  0
 24 22  1  0  0  0  0
 25 24  1  0  0  0  0
 26 25  1  0  0  0  0
 27 28  1  0  0  0  0
 27  6  1  0  0  0  0
 29 28  1  0  0  0  0
 29 32  1  0  0  0  0
 30 32  2  0  0  0  0
 32 31  1  0  0  0  0
 33 28  1  0  0  0  0
 33 34  2  0  0  0  0
 35 36  1  0  0  0  0
 36 37  2  0  0  0  0
M  END
>  <MODEL>
1

>  <REMARK>
 VINA RESULT:      -2.2      0.000      0.000
  Name = 
  12 active torsions:
  status: ('A' for Active; 'I' for Inactive)
    1  A    between atoms: C_1  and  C_5
    2  A    between atoms: C_1  and  C_23
    3  A    between atoms: S_2  and  C_6
    4  A    between atoms: C_5  and  C_26
    5  A    between atoms: C_6  and  N_8
    6  A    between atoms: C_6  and  C_31
    7  A    between atoms: C_9  and  C_30
    8  A    between atoms: C_11  and  C_26
    9  A    between atoms: C_14  and  C_31
   10  A    between atoms: N_20  and  C_25
   11  A    between atoms: C_27  and  C_33
   12  A    between atoms: C_29  and  C_33
                            x       y       z     vdW  Elec       q    Type
                         _______ _______ _______ _____ _____    ______ ____

>  <TORSDO>
F 12

$$$$
