=
 OpenBabel11052423163D

 27 31  0  0  0  0  0  0  0  0999 V2000
  161.3230  208.4650  150.9540 C   0  0  0  0  0  0  0  0  0  0  0  0
  161.0920  206.0470  151.4970 C   0  0  0  0  0  0  0  0  0  0  0  0
  161.3950  206.8160  149.2260 O   0  0  0  0  0  0  0  0  0  0  0  0
  160.9900  202.0790  150.2720 C   0  0  0  0  0  3  0  0  0  0  0  0
  161.0740  200.4170  148.5250 O   0  0  0  0  0  1  0  0  0  0  0  0
  160.9470  205.0210  152.3820 N   0  0  0  0  0  0  0  0  0  0  0  0
  161.3110  204.0970  148.3520 C   0  0  0  0  0  3  0  0  0  0  0  0
  161.2720  202.7550  147.9610 C   0  0  0  0  0  3  0  0  0  0  0  0
  161.1880  204.4350  149.7060 C   0  0  0  0  0  0  0  0  0  0  0  0
  161.1400  207.4200  151.9390 N   0  0  0  0  0  0  0  0  0  0  0  0
  161.1120  201.7480  148.9190 C   0  0  0  0  0  0  0  0  0  0  0  0
  161.0280  203.4190  150.6680 C   0  0  0  0  0  0  0  0  0  0  0  0
  161.2800  209.9230  151.3420 C   0  0  0  0  0  2  0  0  0  0  0  0
  161.2240  205.7640  150.1330 C   0  0  0  0  0  0  0  0  0  0  0  0
  161.5870  209.2310  148.6110 C   0  0  0  0  0  2  0  0  0  0  0  0
  160.9140  203.7490  151.9810 N   0  0  0  0  0  0  0  0  0  0  0  0
  162.2630  210.4490  149.1930 C   0  0  0  0  0  0  0  0  0  0  0  0
  162.1190  210.7290  150.4540 N   0  0  0  0  0  0  0  0  0  0  0  0
  161.4380  208.1510  149.6460 C   0  0  0  0  0  0  0  0  0  0  0  0
  160.7910  208.3580  156.0640 C   0  0  0  0  0  3  0  0  0  0  0  0
  161.0260  207.7370  153.3380 C   0  0  0  0  0  0  0  0  0  0  0  0
  161.2190  209.0530  153.7850 C   0  0  0  0  0  3  0  0  0  0  0  0
  161.1020  209.3620  155.1430 C   0  0  0  0  0  3  0  0  0  0  0  0
  160.5970  207.0450  155.6280 C   0  0  0  0  0  3  0  0  0  0  0  0
  160.7130  206.7350  154.2700 C   0  0  0  0  0  3  0  0  0  0  0  0
  163.0450  211.2890  148.3980 O   0  0  0  0  0  0  0  0  0  0  0  0
  162.5480  212.5040  147.8580 C   0  0  0  0  0  1  0  0  0  0  0  0
  1 13  1  0  0  0  0
  1 10  1  0  0  0  0
  2 10  1  0  0  0  0
  2  6  1  0  0  0  0
  3 19  1  0  0  0  0
  3 14  1  0  0  0  0
  4 12  1  0  0  0  0
  5 11  1  0  0  0  0
  7  9  1  0  0  0  0
  8  7  2  0  0  0  0
  8 11  1  0  0  0  0
  9 14  1  0  0  0  0
  9 12  2  0  0  0  0
 10 21  1  0  0  0  0
 11  4  2  0  0  0  0
 12 16  1  0  0  0  0
 14  2  2  0  0  0  0
 15 17  1  0  0  0  0
 15 19  1  0  0  0  0
 16  6  2  0  0  0  0
 17 18  2  0  0  0  0
 18 13  1  0  0  0  0
 19  1  2  0  0  0  0
 21 22  2  0  0  0  0
 21 25  1  0  0  0  0
 22 23  1  0  0  0  0
 23 20  2  0  0  0  0
 24 20  1  0  0  0  0
 25 24  2  0  0  0  0
 26 17  1  0  0  0  0
 27 26  1  0  0  0  0
M  END
>  <MODEL>
1

>  <REMARK>
 VINA RESULT:      -9.5      0.000      0.000
  Name = 
  2 active torsions:
  status: ('A' for Active; 'I' for Inactive)
    1  A    between atoms: C_9  and  N_15
    2  A    between atoms: O_10  and  C_22
                            x       y       z     vdW  Elec       q    Type
                         _______ _______ _______ _____ _____    ______ ____

>  <TORSDO>
F 2

$$$$
=
 OpenBabel11052423163D

 27 31  0  0  0  0  0  0  0  0999 V2000
  161.3710  207.5180  152.2070 C   0  0  0  0  0  0  0  0  0  0  0  0
  161.4800  206.4010  149.9850 C   0  0  0  0  0  0  0  0  0  0  0  0
  161.0940  205.1520  152.0170 O   0  0  0  0  0  0  0  0  0  0  0  0
  161.2580  202.9550  147.6770 C   0  0  0  0  0  3  0  0  0  0  0  0
  160.9670  200.5670  147.4900 O   0  0  0  0  0  1  0  0  0  0  0  0
  161.6120  206.4310  148.6290 N   0  0  0  0  0  0  0  0  0  0  0  0
  160.9530  202.7630  150.4570 C   0  0  0  0  0  3  0  0  0  0  0  0
  160.8850  201.6150  149.6620 C   0  0  0  0  0  3  0  0  0  0  0  0
  161.1760  204.0120  149.8650 C   0  0  0  0  0  0  0  0  0  0  0  0
  161.5450  207.6090  150.7720 N   0  0  0  0  0  0  0  0  0  0  0  0
  161.0360  201.7100  148.2740 C   0  0  0  0  0  0  0  0  0  0  0  0
  161.3280  204.1050  148.4670 C   0  0  0  0  0  0  0  0  0  0  0  0
  161.5290  208.7300  153.0930 C   0  0  0  0  0  2  0  0  0  0  0  0
  161.2500  205.1800  150.6280 C   0  0  0  0  0  0  0  0  0  0  0  0
  161.0190  206.2080  154.2820 C   0  0  0  0  0  2  0  0  0  0  0  0
  161.5400  205.3190  147.8950 N   0  0  0  0  0  0  0  0  0  0  0  0
  160.4570  207.4810  154.8680 C   0  0  0  0  0  0  0  0  0  0  0  0
  160.6930  208.6200  154.2890 N   0  0  0  0  0  0  0  0  0  0  0  0
  161.1600  206.3190  152.7890 C   0  0  0  0  0  0  0  0  0  0  0  0
  162.1670  211.3620  148.8890 C   0  0  0  0  0  3  0  0  0  0  0  0
  161.7600  208.8810  150.1350 C   0  0  0  0  0  0  0  0  0  0  0  0
  161.9690  208.9530  148.7490 C   0  0  0  0  0  3  0  0  0  0  0  0
  162.1720  210.1890  148.1290 C   0  0  0  0  0  3  0  0  0  0  0  0
  161.9590  211.2990  150.2690 C   0  0  0  0  0  3  0  0  0  0  0  0
  161.7550  210.0640  150.8900 C   0  0  0  0  0  3  0  0  0  0  0  0
  159.6840  207.4580  156.0310 O   0  0  0  0  0  0  0  0  0  0  0  0
  160.1770  206.9490  157.2610 C   0  0  0  0  0  1  0  0  0  0  0  0
  1 19  2  0  0  0  0
  1 13  1  0  0  0  0
  2 14  1  0  0  0  0
  2 10  1  0  0  0  0
  3 19  1  0  0  0  0
  4 11  2  0  0  0  0
  4 12  1  0  0  0  0
  5 11  1  0  0  0  0
  6  2  2  0  0  0  0
  8  7  2  0  0  0  0
  9  7  1  0  0  0  0
  9 14  2  0  0  0  0
 10  1  1  0  0  0  0
 11  8  1  0  0  0  0
 12  9  1  0  0  0  0
 13 18  1  0  0  0  0
 14  3  1  0  0  0  0
 15 17  1  0  0  0  0
 16 12  2  0  0  0  0
 16  6  1  0  0  0  0
 17 26  1  0  0  0  0
 18 17  2  0  0  0  0
 19 15  1  0  0  0  0
 20 24  1  0  0  0  0
 21 10  1  0  0  0  0
 21 25  1  0  0  0  0
 22 21  2  0  0  0  0
 23 22  1  0  0  0  0
 23 20  2  0  0  0  0
 24 25  2  0  0  0  0
 26 27  1  0  0  0  0
M  END
>  <MODEL>
2

>  <REMARK>
 VINA RESULT:      -9.3      2.141      4.858
  Name = 
  2 active torsions:
  status: ('A' for Active; 'I' for Inactive)
    1  A    between atoms: C_9  and  N_15
    2  A    between atoms: O_10  and  C_22
                            x       y       z     vdW  Elec       q    Type
                         _______ _______ _______ _____ _____    ______ ____

>  <TORSDO>
F 2

$$$$
=
 OpenBabel11052423163D

 27 31  0  0  0  0  0  0  0  0999 V2000
  161.3260  209.4940  151.9020 C   0  0  0  0  0  0  0  0  0  0  0  0
  161.4880  208.2470  149.7540 C   0  0  0  0  0  0  0  0  0  0  0  0
  161.1030  207.1160  151.8540 O   0  0  0  0  0  0  0  0  0  0  0  0
  161.3730  204.6610  147.6610 C   0  0  0  0  0  3  0  0  0  0  0  0
  161.1360  202.2600  147.6170 O   0  0  0  0  0  1  0  0  0  0  0  0
  161.6370  208.1950  148.4010 N   0  0  0  0  0  0  0  0  0  0  0  0
  161.0360  204.6330  150.4440 C   0  0  0  0  0  3  0  0  0  0  0  0
  161.0020  203.4370  149.7200 C   0  0  0  0  0  3  0  0  0  0  0  0
  161.2390  205.8480  149.7780 C   0  0  0  0  0  0  0  0  0  0  0  0
  161.5160  209.5010  150.4660 N   0  0  0  0  0  0  0  0  0  0  0  0
  161.1700  203.4500  148.3300 C   0  0  0  0  0  0  0  0  0  0  0  0
  161.4070  205.8590  148.3790 C   0  0  0  0  0  0  0  0  0  0  0  0
  161.4460  210.7620  152.7130 C   0  0  0  0  0  2  0  0  0  0  0  0
  161.2770  207.0610  150.4680 C   0  0  0  0  0  0  0  0  0  0  0  0
  160.9760  208.3060  154.0500 C   0  0  0  0  0  2  0  0  0  0  0  0
  161.6000  207.0390  147.7350 N   0  0  0  0  0  0  0  0  0  0  0  0
  160.3780  209.6000  154.5490 C   0  0  0  0  0  0  0  0  0  0  0  0
  160.5960  210.7060  153.9040 N   0  0  0  0  0  0  0  0  0  0  0  0
  161.1330  208.3280  152.5540 C   0  0  0  0  0  0  0  0  0  0  0  0
  162.0870  213.1390  148.3540 C   0  0  0  0  0  3  0  0  0  0  0  0
  161.7120  210.7370  149.7540 C   0  0  0  0  0  0  0  0  0  0  0  0
  162.7890  210.8790  148.8660 C   0  0  0  0  0  3  0  0  0  0  0  0
  162.9750  212.0760  148.1690 C   0  0  0  0  0  3  0  0  0  0  0  0
  161.0120  213.0050  149.2370 C   0  0  0  0  0  3  0  0  0  0  0  0
  160.8240  211.8080  149.9340 C   0  0  0  0  0  3  0  0  0  0  0  0
  159.5910  209.6310  155.7020 O   0  0  0  0  0  0  0  0  0  0  0  0
  158.8260  210.7700  156.0690 C   0  0  0  0  0  1  0  0  0  0  0  0
  1 19  2  0  0  0  0
  1 13  1  0  0  0  0
  2 10  1  0  0  0  0
  2 14  1  0  0  0  0
  3 19  1  0  0  0  0
  4 11  2  0  0  0  0
  4 12  1  0  0  0  0
  5 11  1  0  0  0  0
  6  2  2  0  0  0  0
  8  7  2  0  0  0  0
  9  7  1  0  0  0  0
  9 14  2  0  0  0  0
 10  1  1  0  0  0  0
 11  8  1  0  0  0  0
 12  9  1  0  0  0  0
 13 18  1  0  0  0  0
 14  3  1  0  0  0  0
 15 17  1  0  0  0  0
 16 12  2  0  0  0  0
 16  6  1  0  0  0  0
 17 26  1  0  0  0  0
 18 17  2  0  0  0  0
 19 15  1  0  0  0  0
 20 24  1  0  0  0  0
 21 25  1  0  0  0  0
 21 10  1  0  0  0  0
 22 21  2  0  0  0  0
 23 20  2  0  0  0  0
 23 22  1  0  0  0  0
 24 25  2  0  0  0  0
 26 27  1  0  0  0  0
M  END
>  <MODEL>
3

>  <REMARK>
 VINA RESULT:      -9.0      2.297      5.027
  Name = 
  2 active torsions:
  status: ('A' for Active; 'I' for Inactive)
    1  A    between atoms: C_9  and  N_15
    2  A    between atoms: O_10  and  C_22
                            x       y       z     vdW  Elec       q    Type
                         _______ _______ _______ _____ _____    ______ ____

>  <TORSDO>
F 2

$$$$
=
 OpenBabel11052423163D

 27 31  0  0  0  0  0  0  0  0999 V2000
  161.2200  209.6450  153.1890 C   0  0  0  0  0  0  0  0  0  0  0  0
  161.1910  208.1090  151.2310 C   0  0  0  0  0  0  0  0  0  0  0  0
  161.1210  207.2780  153.4990 O   0  0  0  0  0  0  0  0  0  0  0  0
  161.0180  204.2580  149.6840 C   0  0  0  0  0  3  0  0  0  0  0  0
  160.9070  201.8690  150.0030 O   0  0  0  0  0  1  0  0  0  0  0  0
  161.1780  207.8690  149.8900 N   0  0  0  0  0  0  0  0  0  0  0  0
  161.0190  204.6170  152.4640 C   0  0  0  0  0  3  0  0  0  0  0  0
  160.9640  203.3290  151.9220 C   0  0  0  0  0  3  0  0  0  0  0  0
  161.0750  205.7310  151.6170 C   0  0  0  0  0  0  0  0  0  0  0  0
  161.2360  209.4530  151.7540 N   0  0  0  0  0  0  0  0  0  0  0  0
  160.9620  203.1490  150.5350 C   0  0  0  0  0  0  0  0  0  0  0  0
  161.0740  205.5470  150.2200 C   0  0  0  0  0  0  0  0  0  0  0  0
  161.3680  211.0190  153.7960 C   0  0  0  0  0  2  0  0  0  0  0  0
  161.1310  207.0320  152.1220 C   0  0  0  0  0  0  0  0  0  0  0  0
  161.1940  208.7660  155.5070 C   0  0  0  0  0  2  0  0  0  0  0  0
  161.1240  206.6290  149.4000 N   0  0  0  0  0  0  0  0  0  0  0  0
  160.5920  210.0950  155.8950 C   0  0  0  0  0  0  0  0  0  0  0  0
  160.6710  211.1050  155.0800 N   0  0  0  0  0  0  0  0  0  0  0  0
  161.1700  208.5790  154.0150 C   0  0  0  0  0  0  0  0  0  0  0  0
  161.3710  212.7820  149.1230 C   0  0  0  0  0  3  0  0  0  0  0  0
  161.2790  210.5790  150.8590 C   0  0  0  0  0  0  0  0  0  0  0  0
  160.4690  211.7010  151.0930 C   0  0  0  0  0  3  0  0  0  0  0  0
  160.5150  212.7980  150.2270 C   0  0  0  0  0  3  0  0  0  0  0  0
  162.1810  211.6680  148.8830 C   0  0  0  0  0  3  0  0  0  0  0  0
  162.1360  210.5710  149.7480 C   0  0  0  0  0  3  0  0  0  0  0  0
  159.9480  210.2640  157.1220 O   0  0  0  0  0  0  0  0  0  0  0  0
  158.7680  211.0400  157.2610 C   0  0  0  0  0  1  0  0  0  0  0  0
  1 13  1  0  0  0  0
  1 19  2  0  0  0  0
  2 10  1  0  0  0  0
  2 14  1  0  0  0  0
  3 19  1  0  0  0  0
  4 12  1  0  0  0  0
  4 11  2  0  0  0  0
  5 11  1  0  0  0  0
  6  2  2  0  0  0  0
  8  7  2  0  0  0  0
  9 14  2  0  0  0  0
  9  7  1  0  0  0  0
 10  1  1  0  0  0  0
 11  8  1  0  0  0  0
 12  9  1  0  0  0  0
 13 18  1  0  0  0  0
 14  3  1  0  0  0  0
 15 17  1  0  0  0  0
 16  6  1  0  0  0  0
 16 12  2  0  0  0  0
 17 26  1  0  0  0  0
 18 17  2  0  0  0  0
 19 15  1  0  0  0  0
 20 23  1  0  0  0  0
 21 22  1  0  0  0  0
 21 10  1  0  0  0  0
 23 22  2  0  0  0  0
 24 20  2  0  0  0  0
 24 25  1  0  0  0  0
 25 21  2  0  0  0  0
 26 27  1  0  0  0  0
M  END
>  <MODEL>
4

>  <REMARK>
 VINA RESULT:      -8.6      2.607      5.104
  Name = 
  2 active torsions:
  status: ('A' for Active; 'I' for Inactive)
    1  A    between atoms: C_9  and  N_15
    2  A    between atoms: O_10  and  C_22
                            x       y       z     vdW  Elec       q    Type
                         _______ _______ _______ _____ _____    ______ ____

>  <TORSDO>
F 2

$$$$
=
 OpenBabel11052423163D

 27 31  0  0  0  0  0  0  0  0999 V2000
  161.5390  205.1190  148.3520 C   0  0  0  0  0  0  0  0  0  0  0  0
  161.2840  205.7890  150.7360 C   0  0  0  0  0  0  0  0  0  0  0  0
  161.6470  207.4190  148.9900 O   0  0  0  0  0  0  0  0  0  0  0  0
  161.1070  208.7540  153.6400 C   0  0  0  0  0  3  0  0  0  0  0  0
  161.2060  211.0790  154.2770 O   0  0  0  0  0  1  0  0  0  0  0  0
  161.0650  205.5010  152.0490 N   0  0  0  0  0  0  0  0  0  0  0  0
  161.5470  209.4790  150.9670 C   0  0  0  0  0  3  0  0  0  0  0  0
  161.4860  210.4610  151.9610 C   0  0  0  0  0  3  0  0  0  0  0  0
  161.3890  208.1290  151.3070 C   0  0  0  0  0  0  0  0  0  0  0  0
  161.3290  204.7490  149.7360 N   0  0  0  0  0  0  0  0  0  0  0  0
  161.2660  210.1000  153.2950 C   0  0  0  0  0  0  0  0  0  0  0  0
  161.1670  207.7680  152.6510 C   0  0  0  0  0  0  0  0  0  0  0  0
  161.6960  204.0710  147.2770 C   0  0  0  0  0  2  0  0  0  0  0  0
  161.4430  207.1220  150.3410 C   0  0  0  0  0  0  0  0  0  0  0  0
  161.9560  206.8080  146.5860 C   0  0  0  0  0  2  0  0  0  0  0  0
  161.0100  206.4590  152.9770 N   0  0  0  0  0  0  0  0  0  0  0  0
  161.3420  205.8120  145.6320 C   0  0  0  0  0  0  0  0  0  0  0  0
  161.2190  204.5670  145.9850 N   0  0  0  0  0  0  0  0  0  0  0  0
  161.6960  206.4170  148.0140 C   0  0  0  0  0  0  0  0  0  0  0  0
  160.8080  200.6820  150.8370 C   0  0  0  0  0  3  0  0  0  0  0  0
  161.1480  203.3720  150.1120 C   0  0  0  0  0  0  0  0  0  0  0  0
  160.3750  202.5150  149.3150 C   0  0  0  0  0  3  0  0  0  0  0  0
  160.2050  201.1750  149.6760 C   0  0  0  0  0  3  0  0  0  0  0  0
  161.5810  201.5290  151.6360 C   0  0  0  0  0  3  0  0  0  0  0  0
  161.7520  202.8690  151.2750 C   0  0  0  0  0  3  0  0  0  0  0  0
  160.9010  206.2040  144.3660 O   0  0  0  0  0  0  0  0  0  0  0  0
  161.5790  205.8280  143.1760 C   0  0  0  0  0  1  0  0  0  0  0  0
  1 10  1  0  0  0  0
  2  6  1  0  0  0  0
  3 14  1  0  0  0  0
  6 16  2  0  0  0  0
  7  9  2  0  0  0  0
  7  8  1  0  0  0  0
  8 11  2  0  0  0  0
  9 12  1  0  0  0  0
 10 21  1  0  0  0  0
 10  2  1  0  0  0  0
 11  4  1  0  0  0  0
 11  5  1  0  0  0  0
 12 16  1  0  0  0  0
 12  4  2  0  0  0  0
 13  1  1  0  0  0  0
 14  2  2  0  0  0  0
 14  9  1  0  0  0  0
 15 19  1  0  0  0  0
 17 18  2  0  0  0  0
 17 15  1  0  0  0  0
 18 13  1  0  0  0  0
 19  1  2  0  0  0  0
 19  3  1  0  0  0  0
 20 24  1  0  0  0  0
 21 25  1  0  0  0  0
 22 23  1  0  0  0  0
 22 21  2  0  0  0  0
 23 20  2  0  0  0  0
 25 24  2  0  0  0  0
 26 17  1  0  0  0  0
 27 26  1  0  0  0  0
M  END
>  <MODEL>
5

>  <REMARK>
 VINA RESULT:      -8.2      2.585      6.405
  Name = 
  2 active torsions:
  status: ('A' for Active; 'I' for Inactive)
    1  A    between atoms: C_9  and  N_15
    2  A    between atoms: O_10  and  C_22
                            x       y       z     vdW  Elec       q    Type
                         _______ _______ _______ _____ _____    ______ ____

>  <TORSDO>
F 2

$$$$
=
 OpenBabel11052423163D

 27 31  0  0  0  0  0  0  0  0999 V2000
  161.4780  208.0050  148.8960 C   0  0  0  0  0  0  0  0  0  0  0  0
  161.4910  209.3510  150.9900 C   0  0  0  0  0  0  0  0  0  0  0  0
  161.0820  206.9700  151.0130 O   0  0  0  0  0  0  0  0  0  0  0  0
  161.1460  209.5760  155.1230 C   0  0  0  0  0  3  0  0  0  0  0  0
  160.7550  208.5240  157.2590 O   0  0  0  0  0  1  0  0  0  0  0  0
  161.6460  210.5240  151.6650 N   0  0  0  0  0  0  0  0  0  0  0  0
  160.8210  207.0960  153.8550 C   0  0  0  0  0  3  0  0  0  0  0  0
  160.7070  207.1950  155.2450 C   0  0  0  0  0  3  0  0  0  0  0  0
  161.0980  208.2390  153.0930 C   0  0  0  0  0  0  0  0  0  0  0  0
  161.6280  209.2860  149.5550 N   0  0  0  0  0  0  0  0  0  0  0  0
  160.8690  208.4320  155.8790 C   0  0  0  0  0  0  0  0  0  0  0  0
  161.2610  209.4830  153.7340 C   0  0  0  0  0  0  0  0  0  0  0  0
  161.5100  207.8900  147.3920 C   0  0  0  0  0  2  0  0  0  0  0  0
  161.2190  208.1780  151.7030 C   0  0  0  0  0  0  0  0  0  0  0  0
  161.0100  205.5710  148.9420 C   0  0  0  0  0  2  0  0  0  0  0  0
  161.5330  210.5890  152.9930 N   0  0  0  0  0  0  0  0  0  0  0  0
  161.7930  205.5000  147.6530 C   0  0  0  0  0  0  0  0  0  0  0  0
  162.0230  206.5840  146.9740 N   0  0  0  0  0  0  0  0  0  0  0  0
  161.2090  206.8980  149.6210 C   0  0  0  0  0  0  0  0  0  0  0  0
  162.5060  212.7970  147.3370 C   0  0  0  0  0  3  0  0  0  0  0  0
  161.9270  210.4730  148.7990 C   0  0  0  0  0  0  0  0  0  0  0  0
  160.8990  211.1870  148.1650 C   0  0  0  0  0  3  0  0  0  0  0  0
  161.1880  212.3440  147.4370 C   0  0  0  0  0  3  0  0  0  0  0  0
  163.5360  212.0920  147.9660 C   0  0  0  0  0  3  0  0  0  0  0  0
  163.2480  210.9350  148.6960 C   0  0  0  0  0  3  0  0  0  0  0  0
  162.2780  204.2820  147.1700 O   0  0  0  0  0  0  0  0  0  0  0  0
  161.6270  203.5630  146.1350 C   0  0  0  0  0  1  0  0  0  0  0  0
  1 10  1  0  0  0  0
  1 19  2  0  0  0  0
  2  6  2  0  0  0  0
  2 14  1  0  0  0  0
  3 14  1  0  0  0  0
  4 11  2  0  0  0  0
  6 16  1  0  0  0  0
  7  8  2  0  0  0  0
  8 11  1  0  0  0  0
  9 12  1  0  0  0  0
  9  7  1  0  0  0  0
 10  2  1  0  0  0  0
 11  5  1  0  0  0  0
 12  4  1  0  0  0  0
 13  1  1  0  0  0  0
 14  9  2  0  0  0  0
 15 19  1  0  0  0  0
 16 12  2  0  0  0  0
 17 15  1  0  0  0  0
 18 13  1  0  0  0  0
 18 17  2  0  0  0  0
 19  3  1  0  0  0  0
 20 23  2  0  0  0  0
 20 24  1  0  0  0  0
 21 10  1  0  0  0  0
 22 21  2  0  0  0  0
 23 22  1  0  0  0  0
 24 25  2  0  0  0  0
 25 21  1  0  0  0  0
 26 17  1  0  0  0  0
 27 26  1  0  0  0  0
M  END
>  <MODEL>
6

>  <REMARK>
 VINA RESULT:      -7.8      2.548      6.730
  Name = 
  2 active torsions:
  status: ('A' for Active; 'I' for Inactive)
    1  A    between atoms: C_9  and  N_15
    2  A    between atoms: O_10  and  C_22
                            x       y       z     vdW  Elec       q    Type
                         _______ _______ _______ _____ _____    ______ ____

>  <TORSDO>
F 2

$$$$
=
 OpenBabel11052423163D

 27 31  0  0  0  0  0  0  0  0999 V2000
  160.9740  209.1080  153.1060 C   0  0  0  0  0  0  0  0  0  0  0  0
  160.5610  211.3480  152.1020 C   0  0  0  0  0  0  0  0  0  0  0  0
  161.7090  209.6040  150.8870 O   0  0  0  0  0  0  0  0  0  0  0  0
  160.8720  213.9620  148.8880 C   0  0  0  0  0  3  0  0  0  0  0  0
  161.6080  214.4530  146.6440 O   0  0  0  0  0  1  0  0  0  0  0  0
  160.0480  212.6100  152.1440 N   0  0  0  0  0  0  0  0  0  0  0  0
  161.9540  211.3850  148.6670 C   0  0  0  0  0  3  0  0  0  0  0  0
  162.0500  212.2820  147.5980 C   0  0  0  0  0  3  0  0  0  0  0  0
  161.3170  211.7750  149.8520 C   0  0  0  0  0  0  0  0  0  0  0  0
  160.4320  210.4470  153.2210 N   0  0  0  0  0  0  0  0  0  0  0  0
  161.5100  213.5680  147.7080 C   0  0  0  0  0  0  0  0  0  0  0  0
  160.7740  213.0710  149.9600 C   0  0  0  0  0  0  0  0  0  0  0  0
  160.9600  208.1560  154.2760 C   0  0  0  0  0  2  0  0  0  0  0  0
  161.2020  210.9060  150.9390 C   0  0  0  0  0  0  0  0  0  0  0  0
  162.1960  207.3510  151.8560 C   0  0  0  0  0  2  0  0  0  0  0  0
  160.1530  213.4440  151.1080 N   0  0  0  0  0  0  0  0  0  0  0  0
  161.4590  206.3620  152.7270 C   0  0  0  0  0  0  0  0  0  0  0  0
  160.8860  206.7660  153.8220 N   0  0  0  0  0  0  0  0  0  0  0  0
  161.5930  208.7240  151.9700 C   0  0  0  0  0  0  0  0  0  0  0  0
  158.4470  211.7070  156.7550 C   0  0  0  0  0  3  0  0  0  0  0  0
  159.7590  210.8690  154.4210 C   0  0  0  0  0  0  0  0  0  0  0  0
  160.4940  211.3630  155.5090 C   0  0  0  0  0  3  0  0  0  0  0  0
  159.8410  211.7800  156.6720 C   0  0  0  0  0  3  0  0  0  0  0  0
  157.7080  211.2180  155.6750 C   0  0  0  0  0  3  0  0  0  0  0  0
  158.3600  210.8020  154.5120 C   0  0  0  0  0  3  0  0  0  0  0  0
  161.3820  205.0120  152.3800 O   0  0  0  0  0  0  0  0  0  0  0  0
  161.1600  204.5830  151.0450 C   0  0  0  0  0  1  0  0  0  0  0  0
  1 10  1  0  0  0  0
  1 13  1  0  0  0  0
  2  6  1  0  0  0  0
  2 10  1  0  0  0  0
  3 14  1  0  0  0  0
  3 19  1  0  0  0  0
  4 12  1  0  0  0  0
  5 11  1  0  0  0  0
  7  9  1  0  0  0  0
  8 11  1  0  0  0  0
  8  7  2  0  0  0  0
  9 12  2  0  0  0  0
  9 14  1  0  0  0  0
 10 21  1  0  0  0  0
 11  4  2  0  0  0  0
 12 16  1  0  0  0  0
 14  2  2  0  0  0  0
 15 19  1  0  0  0  0
 15 17  1  0  0  0  0
 16  6  2  0  0  0  0
 17 18  2  0  0  0  0
 18 13  1  0  0  0  0
 19  1  2  0  0  0  0
 21 25  2  0  0  0  0
 21 22  1  0  0  0  0
 22 23  2  0  0  0  0
 23 20  1  0  0  0  0
 24 20  2  0  0  0  0
 25 24  1  0  0  0  0
 26 17  1  0  0  0  0
 27 26  1  0  0  0  0
M  END
>  <MODEL>
7

>  <REMARK>
 VINA RESULT:      -7.6      2.503      7.030
  Name = 
  2 active torsions:
  status: ('A' for Active; 'I' for Inactive)
    1  A    between atoms: C_9  and  N_15
    2  A    between atoms: O_10  and  C_22
                            x       y       z     vdW  Elec       q    Type
                         _______ _______ _______ _____ _____    ______ ____

>  <TORSDO>
F 2

$$$$
=
 OpenBabel11052423163D

 27 31  0  0  0  0  0  0  0  0999 V2000
  160.6090  212.3550  150.8560 C   0  0  0  0  0  0  0  0  0  0  0  0
  161.4430  210.1630  150.0220 C   0  0  0  0  0  0  0  0  0  0  0  0
  160.5170  210.4080  152.2400 O   0  0  0  0  0  0  0  0  0  0  0  0
  162.1020  206.1040  150.6110 C   0  0  0  0  0  3  0  0  0  0  0  0
  161.9970  204.1400  152.0090 O   0  0  0  0  0  1  0  0  0  0  0  0
  161.9800  209.3700  149.0520 N   0  0  0  0  0  0  0  0  0  0  0  0
  160.9750  207.6230  152.6800 C   0  0  0  0  0  3  0  0  0  0  0  0
  161.2070  206.2560  152.8590 C   0  0  0  0  0  3  0  0  0  0  0  0
  161.3070  208.2370  151.4660 C   0  0  0  0  0  0  0  0  0  0  0  0
  161.2070  211.5690  149.7970 N   0  0  0  0  0  0  0  0  0  0  0  0
  161.7690  205.4970  151.8260 C   0  0  0  0  0  0  0  0  0  0  0  0
  161.8720  207.4700  150.4280 C   0  0  0  0  0  0  0  0  0  0  0  0
  160.4310  213.8470  150.7180 C   0  0  0  0  0  2  0  0  0  0  0  0
  161.0880  209.5990  151.2520 C   0  0  0  0  0  0  0  0  0  0  0  0
  159.7060  212.5900  153.1530 C   0  0  0  0  0  2  0  0  0  0  0  0
  162.1900  208.0670  149.2490 N   0  0  0  0  0  0  0  0  0  0  0  0
  158.9300  213.7700  152.6170 C   0  0  0  0  0  0  0  0  0  0  0  0
  159.2760  214.3120  151.4870 N   0  0  0  0  0  0  0  0  0  0  0  0
  160.2890  211.7740  152.0320 C   0  0  0  0  0  0  0  0  0  0  0  0
  162.2060  213.3270  146.0650 C   0  0  0  0  0  3  0  0  0  0  0  0
  161.5440  212.1690  148.5330 C   0  0  0  0  0  0  0  0  0  0  0  0
  162.8660  212.5530  148.2620 C   0  0  0  0  0  3  0  0  0  0  0  0
  163.1960  213.1300  147.0320 C   0  0  0  0  0  3  0  0  0  0  0  0
  160.8870  212.9470  146.3270 C   0  0  0  0  0  3  0  0  0  0  0  0
  160.5570  212.3690  147.5560 C   0  0  0  0  0  3  0  0  0  0  0  0
  157.8420  214.2950  153.3170 O   0  0  0  0  0  0  0  0  0  0  0  0
  156.5150  214.2260  152.8190 C   0  0  0  0  0  1  0  0  0  0  0  0
  1 19  2  0  0  0  0
  2 14  1  0  0  0  0
  4 11  2  0  0  0  0
  6 16  1  0  0  0  0
  6  2  2  0  0  0  0
  7  8  2  0  0  0  0
  9  7  1  0  0  0  0
 10  2  1  0  0  0  0
 10  1  1  0  0  0  0
 11  5  1  0  0  0  0
 11  8  1  0  0  0  0
 12  4  1  0  0  0  0
 12  9  1  0  0  0  0
 13  1  1  0  0  0  0
 13 18  1  0  0  0  0
 14  9  2  0  0  0  0
 14  3  1  0  0  0  0
 16 12  2  0  0  0  0
 17 15  1  0  0  0  0
 17 26  1  0  0  0  0
 18 17  2  0  0  0  0
 19  3  1  0  0  0  0
 19 15  1  0  0  0  0
 20 24  2  0  0  0  0
 20 23  1  0  0  0  0
 21 10  1  0  0  0  0
 22 21  1  0  0  0  0
 23 22  2  0  0  0  0
 24 25  1  0  0  0  0
 25 21  2  0  0  0  0
 27 26  1  0  0  0  0
M  END
>  <MODEL>
8

>  <REMARK>
 VINA RESULT:      -7.3      3.116      6.307
  Name = 
  2 active torsions:
  status: ('A' for Active; 'I' for Inactive)
    1  A    between atoms: C_9  and  N_15
    2  A    between atoms: O_10  and  C_22
                            x       y       z     vdW  Elec       q    Type
                         _______ _______ _______ _____ _____    ______ ____

>  <TORSDO>
F 2

$$$$
=
 OpenBabel11052423163D

 27 31  0  0  0  0  0  0  0  0999 V2000
  161.7730  209.4850  149.3710 C   0  0  0  0  0  0  0  0  0  0  0  0
  161.3410  207.6710  151.0200 C   0  0  0  0  0  0  0  0  0  0  0  0
  161.4830  209.9890  151.6890 O   0  0  0  0  0  0  0  0  0  0  0  0
  160.5940  206.4610  154.9220 C   0  0  0  0  0  3  0  0  0  0  0  0
  160.2910  206.9760  157.2600 O   0  0  0  0  0  1  0  0  0  0  0  0
  161.1330  206.3640  151.3430 N   0  0  0  0  0  0  0  0  0  0  0  0
  160.9880  209.1840  154.3850 C   0  0  0  0  0  3  0  0  0  0  0  0
  160.7370  208.7550  155.6920 C   0  0  0  0  0  3  0  0  0  0  0  0
  161.0440  208.2520  153.3410 C   0  0  0  0  0  0  0  0  0  0  0  0
  161.5850  208.0780  149.6570 N   0  0  0  0  0  0  0  0  0  0  0  0
  160.5400  207.3960  155.9610 C   0  0  0  0  0  0  0  0  0  0  0  0
  160.8440  206.8840  153.6150 C   0  0  0  0  0  0  0  0  0  0  0  0
  162.1320  209.9610  147.9840 C   0  0  0  0  0  2  0  0  0  0  0  0
  161.2910  208.6450  152.0240 C   0  0  0  0  0  0  0  0  0  0  0  0
  161.9600  211.8510  150.0900 C   0  0  0  0  0  2  0  0  0  0  0  0
  160.8940  205.9830  152.6000 N   0  0  0  0  0  0  0  0  0  0  0  0
  161.5460  212.2040  148.6810 C   0  0  0  0  0  0  0  0  0  0  0  0
  161.6180  211.3100  147.7410 N   0  0  0  0  0  0  0  0  0  0  0  0
  161.7250  210.3920  150.3700 C   0  0  0  0  0  0  0  0  0  0  0  0
  161.6950  205.2030  146.5360 C   0  0  0  0  0  3  0  0  0  0  0  0
  161.6230  207.1000  148.6020 C   0  0  0  0  0  0  0  0  0  0  0  0
  160.4340  206.6600  148.0020 C   0  0  0  0  0  3  0  0  0  0  0  0
  160.4700  205.7140  146.9720 C   0  0  0  0  0  3  0  0  0  0  0  0
  162.8840  205.6360  147.1290 C   0  0  0  0  0  3  0  0  0  0  0  0
  162.8480  206.5820  148.1570 C   0  0  0  0  0  3  0  0  0  0  0  0
  161.0850  213.4840  148.3660 O   0  0  0  0  0  0  0  0  0  0  0  0
  160.9730  213.9420  147.0270 C   0  0  0  0  0  1  0  0  0  0  0  0
  1 10  1  0  0  0  0
  1 19  2  0  0  0  0
  2  6  2  0  0  0  0
  2 14  1  0  0  0  0
  3 14  1  0  0  0  0
  4 11  2  0  0  0  0
  6 16  1  0  0  0  0
  7  8  2  0  0  0  0
  8 11  1  0  0  0  0
  9 12  1  0  0  0  0
  9  7  1  0  0  0  0
 10  2  1  0  0  0  0
 11  5  1  0  0  0  0
 12  4  1  0  0  0  0
 13  1  1  0  0  0  0
 14  9  2  0  0  0  0
 15 19  1  0  0  0  0
 16 12  2  0  0  0  0
 17 15  1  0  0  0  0
 18 13  1  0  0  0  0
 18 17  2  0  0  0  0
 19  3  1  0  0  0  0
 20 23  2  0  0  0  0
 20 24  1  0  0  0  0
 21 10  1  0  0  0  0
 22 21  2  0  0  0  0
 23 22  1  0  0  0  0
 24 25  2  0  0  0  0
 25 21  1  0  0  0  0
 26 17  1  0  0  0  0
 27 26  1  0  0  0  0
M  END
>  <MODEL>
9

>  <REMARK>
 VINA RESULT:      -7.2      2.987      5.829
  Name = 
  2 active torsions:
  status: ('A' for Active; 'I' for Inactive)
    1  A    between atoms: C_9  and  N_15
    2  A    between atoms: O_10  and  C_22
                            x       y       z     vdW  Elec       q    Type
                         _______ _______ _______ _____ _____    ______ ____

>  <TORSDO>
F 2

$$$$
