=
 OpenBabel11052421513D

 30 32  0  0  1  0  0  0  0  0999 V2000
  161.9620  208.3020  153.1450 C   0  0  1  0  0  3  0  0  0  0  0  0
  161.4390  207.4290  152.0090 C   0  0  1  0  0  3  0  0  0  0  0  0
  161.3920  208.3620  150.8450 C   0  0  0  0  0  3  0  0  0  0  0  0
  162.0680  209.5930  152.5720 O   0  0  0  0  0  0  0  0  0  0  0  0
  161.7490  209.5740  151.2280 C   0  0  0  0  0  3  0  0  0  0  0  0
  160.3230  207.3170  154.5370 O   0  0  0  0  0  0  0  0  0  0  0  0
  160.9930  208.3080  154.2860 C   0  0  0  0  0  0  0  0  0  0  0  0
  160.8760  209.5420  155.1260 C   0  0  2  0  0  3  0  0  0  0  0  0
  162.0630  208.7210  157.0430 O   0  0  0  0  0  0  0  0  0  0  0  0
  161.9680  209.6050  156.1500 C   0  0  0  0  0  0  0  0  0  0  0  0
  162.9240  210.6560  156.0920 N   0  0  0  0  0  1  0  0  0  0  0  0
  159.4910  209.6430  155.7560 C   0  0  0  0  0  2  0  0  0  0  0  0
  157.4440  211.0480  155.5580 C   0  0  0  0  0  1  0  0  0  0  0  0
  158.9550  211.0690  155.6880 C   0  0  2  0  0  3  0  0  0  0  0  0
  159.5850  211.8620  154.5440 C   0  0  0  0  0  2  0  0  0  0  0  0
  159.4920  212.3100  152.2440 C   0  0  0  0  0  2  0  0  0  0  0  0
  158.7750  213.3680  152.9420 C   0  0  0  0  0  2  0  0  0  0  0  0
  158.6700  211.9820  153.4180 N   0  0  0  0  0  0  0  0  0  0  0  0
  162.4070  206.2880  151.7430 C   0  0  0  0  0  2  0  0  0  0  0  0
  161.6610  204.9770  151.5450 C   0  0  1  0  0  3  0  0  0  0  0  0
  161.0050  204.5850  152.8520 C   0  0  0  0  0  1  0  0  0  0  0  0
  160.6320  205.1370  150.5240 N   0  0  0  0  0  2  0  0  0  0  0  0
  161.8920  204.3910  146.2410 C   0  0  0  0  0  0  0  0  0  0  0  0
  162.2330  205.8090  146.5500 C   0  0  0  0  0  2  0  0  0  0  0  0
  162.0720  203.9400  144.9770 F   0  0  0  0  0  0  0  0  0  0  0  0
  160.8710  205.0280  149.1160 C   0  0  0  0  0  0  0  0  0  0  0  0
  161.0690  206.5360  147.1310 C   0  0  0  0  0  3  0  0  0  0  0  0
  161.5340  203.5240  147.1880 C   0  0  0  0  0  3  0  0  0  0  0  0
  160.5000  206.1920  148.2870 C   0  0  0  0  0  3  0  0  0  0  0  0
  161.2810  203.8520  148.6050 C   0  0  0  0  0  3  0  0  0  0  0  0
  1  7  1  1  0  0  0
  2 19  1  6  0  0  0
  2  1  1  0  0  0  0
  3  5  2  0  0  0  0
  3  2  1  0  0  0  0
  4  1  1  0  0  0  0
  5  4  1  0  0  0  0
  7  6  2  0  0  0  0
  7  8  1  0  0  0  0
  8 12  1  1  0  0  0
  8 10  1  0  0  0  0
 10  9  2  0  0  0  0
 11 10  1  0  0  0  0
 14 13  1  6  0  0  0
 14 12  1  0  0  0  0
 15 14  1  0  0  0  0
 16 17  1  0  0  0  0
 16 18  1  0  0  0  0
 17 18  1  0  0  0  0
 18 15  1  0  0  0  0
 20 19  1  0  0  0  0
 20 21  1  1  0  0  0
 22 20  1  0  0  0  0
 23 24  1  0  0  0  0
 23 28  2  0  0  0  0
 24 27  1  0  0  0  0
 25 23  1  0  0  0  0
 26 22  1  0  0  0  0
 27 29  2  0  0  0  0
 28 30  1  0  0  0  0
 29 26  1  0  0  0  0
 30 26  2  0  0  0  0
M  END
>  <MODEL>
1

>  <REMARK>
 VINA RESULT:      -7.1      0.000      0.000
  Name = 
  11 active torsions:
  status: ('A' for Active; 'I' for Inactive)
    1  A    between atoms: N_3  and  C_11
    2  A    between atoms: N_3  and  C_19
    3  A    between atoms: C_4  and  C_13
    4  A    between atoms: C_7  and  C_30
    5  A    between atoms: C_8  and  C_12
    6  A    between atoms: C_8  and  C_13
    7  A    between atoms: C_9  and  C_12
    8  A    between atoms: C_9  and  N_21
    9  A    between atoms: C_10  and  C_25
   10  A    between atoms: C_11  and  C_25
   11  A    between atoms: C_13  and  C_30
                            x       y       z     vdW  Elec       q    Type
                         _______ _______ _______ _____ _____    ______ ____

>  <TORSDO>
F 11

$$$$
=
 OpenBabel11052421513D

 30 32  0  0  1  0  0  0  0  0999 V2000
  161.9450  209.1190  151.5780 C   0  0  1  0  0  3  0  0  0  0  0  0
  161.6260  207.7650  150.9530 C   0  0  1  0  0  3  0  0  0  0  0  0
  161.7430  208.0200  149.4870 C   0  0  0  0  0  3  0  0  0  0  0  0
  162.1100  209.9840  150.4680 O   0  0  0  0  0  0  0  0  0  0  0  0
  162.0080  209.2960  149.2740 C   0  0  0  0  0  3  0  0  0  0  0  0
  159.9710  208.7790  152.8360 O   0  0  0  0  0  0  0  0  0  0  0  0
  160.8080  209.5760  152.4370 C   0  0  0  0  0  0  0  0  0  0  0  0
  160.7270  211.0220  152.8190 C   0  0  2  0  0  3  0  0  0  0  0  0
  162.1690  210.7830  154.7220 O   0  0  0  0  0  0  0  0  0  0  0  0
  161.0820  211.2220  154.2610 C   0  0  0  0  0  0  0  0  0  0  0  0
  160.1950  211.9410  155.1080 N   0  0  0  0  0  1  0  0  0  0  0  0
  159.3580  211.6010  152.4770 C   0  0  0  0  0  2  0  0  0  0  0  0
  158.1230  213.4320  151.3280 C   0  0  0  0  0  1  0  0  0  0  0  0
  159.4860  212.9560  151.7920 C   0  0  2  0  0  3  0  0  0  0  0  0
  160.4700  212.9150  150.6240 C   0  0  0  0  0  2  0  0  0  0  0  0
  160.6040  213.0040  148.2840 C   0  0  0  0  0  2  0  0  0  0  0  0
  161.0510  214.2850  148.8120 C   0  0  0  0  0  2  0  0  0  0  0  0
  159.9270  213.5870  149.4520 N   0  0  0  0  0  0  0  0  0  0  0  0
  162.6490  206.7340  151.4010 C   0  0  0  0  0  2  0  0  0  0  0  0
  161.9650  205.4990  151.9670 C   0  0  1  0  0  3  0  0  0  0  0  0
  161.3660  205.8450  153.3130 C   0  0  0  0  0  1  0  0  0  0  0  0
  160.9000  205.0620  151.0700 N   0  0  0  0  0  2  0  0  0  0  0  0
  160.8980  201.9390  147.7940 C   0  0  0  0  0  0  0  0  0  0  0  0
  160.0130  201.4270  148.8790 C   0  0  0  0  0  2  0  0  0  0  0  0
  161.1550  201.1390  146.7320 F   0  0  0  0  0  0  0  0  0  0  0  0
  161.0100  203.9560  150.1680 C   0  0  0  0  0  0  0  0  0  0  0  0
  160.6930  201.4750  150.2050 C   0  0  0  0  0  3  0  0  0  0  0  0
  161.3420  203.1960  147.7740 C   0  0  0  0  0  3  0  0  0  0  0  0
  161.0970  202.6110  150.7730 C   0  0  0  0  0  3  0  0  0  0  0  0
  161.1640  204.1890  148.8520 C   0  0  0  0  0  3  0  0  0  0  0  0
  1  7  1  1  0  0  0
  2 19  1  1  0  0  0
  2  1  1  0  0  0  0
  3  2  1  0  0  0  0
  4  1  1  0  0  0  0
  5  3  2  0  0  0  0
  5  4  1  0  0  0  0
  7  8  1  0  0  0  0
  7  6  2  0  0  0  0
  8 12  1  1  0  0  0
  8 10  1  0  0  0  0
 10  9  2  0  0  0  0
 10 11  1  0  0  0  0
 14 13  1  6  0  0  0
 14 12  1  0  0  0  0
 15 14  1  0  0  0  0
 16 17  1  0  0  0  0
 16 18  1  0  0  0  0
 17 18  1  0  0  0  0
 18 15  1  0  0  0  0
 19 20  1  0  0  0  0
 20 21  1  1  0  0  0
 22 20  1  0  0  0  0
 23 24  1  0  0  0  0
 24 27  1  0  0  0  0
 25 23  1  0  0  0  0
 26 29  1  0  0  0  0
 26 22  1  0  0  0  0
 27 29  2  0  0  0  0
 28 23  2  0  0  0  0
 28 30  1  0  0  0  0
 30 26  2  0  0  0  0
M  END
>  <MODEL>
2

>  <REMARK>
 VINA RESULT:      -7.1      2.186      3.195
  Name = 
  11 active torsions:
  status: ('A' for Active; 'I' for Inactive)
    1  A    between atoms: N_3  and  C_11
    2  A    between atoms: N_3  and  C_19
    3  A    between atoms: C_4  and  C_13
    4  A    between atoms: C_7  and  C_30
    5  A    between atoms: C_8  and  C_12
    6  A    between atoms: C_8  and  C_13
    7  A    between atoms: C_9  and  C_12
    8  A    between atoms: C_9  and  N_21
    9  A    between atoms: C_10  and  C_25
   10  A    between atoms: C_11  and  C_25
   11  A    between atoms: C_13  and  C_30
                            x       y       z     vdW  Elec       q    Type
                         _______ _______ _______ _____ _____    ______ ____

>  <TORSDO>
F 11

$$$$
=
 OpenBabel11052421513D

 30 32  0  0  1  0  0  0  0  0999 V2000
  161.0120  208.1290  152.4470 C   0  0  1  0  0  3  0  0  0  0  0  0
  161.7780  207.5580  151.2590 C   0  0  1  0  0  3  0  0  0  0  0  0
  162.2860  206.2490  151.7680 C   0  0  0  0  0  3  0  0  0  0  0  0
  161.2250  207.1880  153.4850 O   0  0  0  0  0  0  0  0  0  0  0  0
  161.9510  206.1010  153.0360 C   0  0  0  0  0  3  0  0  0  0  0  0
  162.4120  210.0100  152.1330 O   0  0  0  0  0  0  0  0  0  0  0  0
  161.5640  209.4670  152.8280 C   0  0  0  0  0  0  0  0  0  0  0  0
  161.0440  210.1390  154.0610 C   0  0  2  0  0  3  0  0  0  0  0  0
  160.1420  212.3590  154.1850 O   0  0  0  0  0  0  0  0  0  0  0  0
  160.0360  211.1930  153.7180 C   0  0  0  0  0  0  0  0  0  0  0  0
  158.9680  210.8820  152.8320 N   0  0  0  0  0  1  0  0  0  0  0  0
  162.1870  210.6890  154.9060 C   0  0  0  0  0  2  0  0  0  0  0  0
  163.2770  210.7020  157.1450 C   0  0  0  0  0  1  0  0  0  0  0  0
  162.0570  210.2570  156.3620 C   0  0  2  0  0  3  0  0  0  0  0  0
  161.8500  208.7490  156.4940 C   0  0  0  0  0  2  0  0  0  0  0  0
  160.5020  206.9820  157.2450 C   0  0  0  0  0  2  0  0  0  0  0  0
  159.7180  207.7900  156.3210 C   0  0  0  0  0  2  0  0  0  0  0  0
  160.6450  208.4460  157.2530 N   0  0  0  0  0  0  0  0  0  0  0  0
  160.8350  207.3470  150.0860 C   0  0  0  0  0  2  0  0  0  0  0  0
  161.4150  207.9330  148.8080 C   0  0  1  0  0  3  0  0  0  0  0  0
  162.2990  209.1080  149.1660 C   0  0  0  0  0  1  0  0  0  0  0  0
  162.2150  206.9280  148.1170 N   0  0  0  0  0  2  0  0  0  0  0  0
  161.0790  203.4040  145.5130 C   0  0  0  0  0  0  0  0  0  0  0  0
  161.2680  204.5690  144.6030 C   0  0  0  0  0  2  0  0  0  0  0  0
  160.6280  202.2380  144.9920 F   0  0  0  0  0  0  0  0  0  0  0  0
  161.6730  205.9130  147.2640 C   0  0  0  0  0  0  0  0  0  0  0  0
  160.4910  205.7540  145.0660 C   0  0  0  0  0  3  0  0  0  0  0  0
  161.4530  203.4340  146.7920 C   0  0  0  0  0  3  0  0  0  0  0  0
  160.7090  206.3550  146.2360 C   0  0  0  0  0  3  0  0  0  0  0  0
  161.9490  204.6210  147.5170 C   0  0  0  0  0  3  0  0  0  0  0  0
  1  7  1  1  0  0  0
  1  4  1  0  0  0  0
  2 19  1  6  0  0  0
  2  3  1  0  0  0  0
  2  1  1  0  0  0  0
  3  5  2  0  0  0  0
  5  4  1  0  0  0  0
  6  7  2  0  0  0  0
  7  8  1  0  0  0  0
  8 12  1  6  0  0  0
 10  8  1  0  0  0  0
 10  9  2  0  0  0  0
 11 10  1  0  0  0  0
 12 14  1  0  0  0  0
 14 15  1  0  0  0  0
 14 13  1  1  0  0  0
 15 18  1  0  0  0  0
 16 18  1  0  0  0  0
 17 16  1  0  0  0  0
 17 18  1  0  0  0  0
 20 21  1  1  0  0  0
 20 19  1  0  0  0  0
 22 20  1  0  0  0  0
 23 28  2  0  0  0  0
 24 27  1  0  0  0  0
 24 23  1  0  0  0  0
 25 23  1  0  0  0  0
 26 30  2  0  0  0  0
 26 22  1  0  0  0  0
 27 29  2  0  0  0  0
 28 30  1  0  0  0  0
 29 26  1  0  0  0  0
M  END
>  <MODEL>
3

>  <REMARK>
 VINA RESULT:      -7.1      1.887      3.747
  Name = 
  11 active torsions:
  status: ('A' for Active; 'I' for Inactive)
    1  A    between atoms: N_3  and  C_11
    2  A    between atoms: N_3  and  C_19
    3  A    between atoms: C_4  and  C_13
    4  A    between atoms: C_7  and  C_30
    5  A    between atoms: C_8  and  C_12
    6  A    between atoms: C_8  and  C_13
    7  A    between atoms: C_9  and  C_12
    8  A    between atoms: C_9  and  N_21
    9  A    between atoms: C_10  and  C_25
   10  A    between atoms: C_11  and  C_25
   11  A    between atoms: C_13  and  C_30
                            x       y       z     vdW  Elec       q    Type
                         _______ _______ _______ _____ _____    ______ ____

>  <TORSDO>
F 11

$$$$
=
 OpenBabel11052421513D

 30 32  0  0  1  0  0  0  0  0999 V2000
  161.0330  208.3080  152.2890 C   0  0  1  0  0  3  0  0  0  0  0  0
  161.7820  207.6180  151.1550 C   0  0  1  0  0  3  0  0  0  0  0  0
  162.2780  206.3560  151.7810 C   0  0  0  0  0  3  0  0  0  0  0  0
  161.2430  207.4660  153.4090 O   0  0  0  0  0  0  0  0  0  0  0  0
  161.9510  206.3320  153.0600 C   0  0  0  0  0  3  0  0  0  0  0  0
  162.7060  209.9690  152.1010 O   0  0  0  0  0  0  0  0  0  0  0  0
  161.6040  209.6690  152.5380 C   0  0  0  0  0  0  0  0  0  0  0  0
  160.7940  210.6620  153.3120 C   0  0  2  0  0  3  0  0  0  0  0  0
  162.1480  210.9460  155.2710 O   0  0  0  0  0  0  0  0  0  0  0  0
  161.0580  210.5480  154.7820 C   0  0  0  0  0  0  0  0  0  0  0  0
  160.0540  210.0140  155.6360 N   0  0  0  0  0  1  0  0  0  0  0  0
  159.3100  210.5300  152.9820 C   0  0  0  0  0  2  0  0  0  0  0  0
  159.7630  212.7890  152.0380 C   0  0  0  0  0  1  0  0  0  0  0  0
  158.7010  211.8810  152.6250 C   0  0  2  0  0  3  0  0  0  0  0  0
  158.0290  212.5410  153.8280 C   0  0  0  0  0  2  0  0  0  0  0  0
  156.0050  212.5570  155.0140 C   0  0  0  0  0  2  0  0  0  0  0  0
  157.0170  211.9300  155.8530 C   0  0  0  0  0  2  0  0  0  0  0  0
  157.0110  211.6740  154.4060 N   0  0  0  0  0  0  0  0  0  0  0  0
  160.8270  207.3100  150.0140 C   0  0  0  0  0  2  0  0  0  0  0  0
  161.3540  207.8610  148.6980 C   0  0  1  0  0  3  0  0  0  0  0  0
  162.2100  209.0760  148.9850 C   0  0  0  0  0  1  0  0  0  0  0  0
  162.1670  206.8540  148.0240 N   0  0  0  0  0  2  0  0  0  0  0  0
  161.0770  203.2960  145.4470 C   0  0  0  0  0  0  0  0  0  0  0  0
  161.2590  204.4550  144.5280 C   0  0  0  0  0  2  0  0  0  0  0  0
  160.6400  202.1220  144.9340 F   0  0  0  0  0  0  0  0  0  0  0  0
  161.6380  205.8270  147.1780 C   0  0  0  0  0  0  0  0  0  0  0  0
  160.4690  205.6370  144.9760 C   0  0  0  0  0  3  0  0  0  0  0  0
  161.4450  203.3410  146.7280 C   0  0  0  0  0  3  0  0  0  0  0  0
  160.6760  206.2500  146.1420 C   0  0  0  0  0  3  0  0  0  0  0  0
  161.9260  204.5390  147.4440 C   0  0  0  0  0  3  0  0  0  0  0  0
  1  7  1  1  0  0  0
  1  4  1  0  0  0  0
  2 19  1  6  0  0  0
  2  3  1  0  0  0  0
  2  1  1  0  0  0  0
  3  5  2  0  0  0  0
  5  4  1  0  0  0  0
  6  7  2  0  0  0  0
  7  8  1  0  0  0  0
  8 12  1  1  0  0  0
  8 10  1  0  0  0  0
 10  9  2  0  0  0  0
 10 11  1  0  0  0  0
 14 13  1  1  0  0  0
 14 12  1  0  0  0  0
 14 15  1  0  0  0  0
 15 18  1  0  0  0  0
 16 17  1  0  0  0  0
 18 16  1  0  0  0  0
 18 17  1  0  0  0  0
 20 21  1  1  0  0  0
 20 19  1  0  0  0  0
 22 20  1  0  0  0  0
 23 28  2  0  0  0  0
 24 27  1  0  0  0  0
 24 23  1  0  0  0  0
 25 23  1  0  0  0  0
 26 30  2  0  0  0  0
 26 22  1  0  0  0  0
 27 29  2  0  0  0  0
 28 30  1  0  0  0  0
 29 26  1  0  0  0  0
M  END
>  <MODEL>
4

>  <REMARK>
 VINA RESULT:      -7.0      1.726      2.949
  Name = 
  11 active torsions:
  status: ('A' for Active; 'I' for Inactive)
    1  A    between atoms: N_3  and  C_11
    2  A    between atoms: N_3  and  C_19
    3  A    between atoms: C_4  and  C_13
    4  A    between atoms: C_7  and  C_30
    5  A    between atoms: C_8  and  C_12
    6  A    between atoms: C_8  and  C_13
    7  A    between atoms: C_9  and  C_12
    8  A    between atoms: C_9  and  N_21
    9  A    between atoms: C_10  and  C_25
   10  A    between atoms: C_11  and  C_25
   11  A    between atoms: C_13  and  C_30
                            x       y       z     vdW  Elec       q    Type
                         _______ _______ _______ _____ _____    ______ ____

>  <TORSDO>
F 11

$$$$
=
 OpenBabel11052421513D

 30 32  0  0  1  0  0  0  0  0999 V2000
  161.0650  208.0100  151.7350 C   0  0  1  0  0  3  0  0  0  0  0  0
  162.4220  207.3660  151.4690 C   0  0  1  0  0  3  0  0  0  0  0  0
  162.4840  206.2590  152.4690 C   0  0  0  0  0  3  0  0  0  0  0  0
  160.5580  207.3050  152.8550 O   0  0  0  0  0  0  0  0  0  0  0  0
  161.4070  206.2810  153.2310 C   0  0  0  0  0  3  0  0  0  0  0  0
  161.8940  210.1870  151.3290 O   0  0  0  0  0  0  0  0  0  0  0  0
  161.2310  209.4620  152.0570 C   0  0  0  0  0  0  0  0  0  0  0  0
  160.5530  210.0140  153.2720 C   0  0  2  0  0  3  0  0  0  0  0  0
  158.4030  210.9590  152.7830 O   0  0  0  0  0  0  0  0  0  0  0  0
  159.6420  211.1480  152.9150 C   0  0  0  0  0  0  0  0  0  0  0  0
  160.1780  212.4550  152.7550 N   0  0  0  0  0  1  0  0  0  0  0  0
  161.5740  210.4100  154.3340 C   0  0  0  0  0  2  0  0  0  0  0  0
  161.4390  211.4540  156.5900 C   0  0  0  0  0  1  0  0  0  0  0  0
  160.9910  210.2840  155.7360 C   0  0  2  0  0  3  0  0  0  0  0  0
  161.3690  208.9590  156.3950 C   0  0  0  0  0  2  0  0  0  0  0  0
  160.5180  206.9500  157.2590 C   0  0  0  0  0  2  0  0  0  0  0  0
  159.6170  207.4120  156.2120 C   0  0  0  0  0  2  0  0  0  0  0  0
  160.2410  208.3870  157.1170 N   0  0  0  0  0  0  0  0  0  0  0  0
  162.4670  206.8140  150.0540 C   0  0  0  0  0  2  0  0  0  0  0  0
  161.1280  206.9990  149.3550 C   0  0  1  0  0  3  0  0  0  0  0  0
  161.3670  207.1240  147.8660 C   0  0  0  0  0  1  0  0  0  0  0  0
  160.2710  205.8450  149.6050 N   0  0  0  0  0  2  0  0  0  0  0  0
  161.1880  201.5520  148.5010 C   0  0  0  0  0  0  0  0  0  0  0  0
  160.3360  201.5100  149.7240 C   0  0  0  0  0  2  0  0  0  0  0  0
  161.6930  200.3910  148.0210 F   0  0  0  0  0  0  0  0  0  0  0  0
  160.6820  204.4840  149.4280 C   0  0  0  0  0  0  0  0  0  0  0  0
  160.8750  202.3980  150.7930 C   0  0  0  0  0  3  0  0  0  0  0  0
  161.3670  202.6700  147.7980 C   0  0  0  0  0  3  0  0  0  0  0  0
  160.9890  203.7180  150.6530 C   0  0  0  0  0  3  0  0  0  0  0  0
  160.8980  204.0150  148.1860 C   0  0  0  0  0  3  0  0  0  0  0  0
  1  7  1  1  0  0  0
  1  4  1  0  0  0  0
  2 19  1  6  0  0  0
  2  1  1  0  0  0  0
  2  3  1  0  0  0  0
  3  5  2  0  0  0  0
  4  5  1  0  0  0  0
  6  7  2  0  0  0  0
  7  8  1  0  0  0  0
  8 12  1  1  0  0  0
  9 10  2  0  0  0  0
 10  8  1  0  0  0  0
 11 10  1  0  0  0  0
 12 14  1  0  0  0  0
 14 15  1  0  0  0  0
 14 13  1  1  0  0  0
 15 18  1  0  0  0  0
 17 18  1  0  0  0  0
 17 16  1  0  0  0  0
 18 16  1  0  0  0  0
 20 21  1  6  0  0  0
 20 22  1  0  0  0  0
 20 19  1  0  0  0  0
 23 24  1  0  0  0  0
 24 27  1  0  0  0  0
 25 23  1  0  0  0  0
 26 22  1  0  0  0  0
 26 29  1  0  0  0  0
 28 30  1  0  0  0  0
 28 23  2  0  0  0  0
 29 27  2  0  0  0  0
 30 26  2  0  0  0  0
M  END
>  <MODEL>
5

>  <REMARK>
 VINA RESULT:      -7.0      2.066      3.980
  Name = 
  11 active torsions:
  status: ('A' for Active; 'I' for Inactive)
    1  A    between atoms: N_3  and  C_11
    2  A    between atoms: N_3  and  C_19
    3  A    between atoms: C_4  and  C_13
    4  A    between atoms: C_7  and  C_30
    5  A    between atoms: C_8  and  C_12
    6  A    between atoms: C_8  and  C_13
    7  A    between atoms: C_9  and  C_12
    8  A    between atoms: C_9  and  N_21
    9  A    between atoms: C_10  and  C_25
   10  A    between atoms: C_11  and  C_25
   11  A    between atoms: C_13  and  C_30
                            x       y       z     vdW  Elec       q    Type
                         _______ _______ _______ _____ _____    ______ ____

>  <TORSDO>
F 11

$$$$
=
 OpenBabel11052421513D

 30 32  0  0  1  0  0  0  0  0999 V2000
  160.8330  205.8410  152.3550 C   0  0  1  0  0  3  0  0  0  0  0  0
  161.4510  205.7250  150.9660 C   0  0  1  0  0  3  0  0  0  0  0  0
  161.4810  204.2520  150.7200 C   0  0  0  0  0  3  0  0  0  0  0  0
  160.6660  204.4990  152.7770 O   0  0  0  0  0  0  0  0  0  0  0  0
  161.0340  203.6110  151.7840 C   0  0  0  0  0  3  0  0  0  0  0  0
  162.8830  206.1460  153.4960 O   0  0  0  0  0  0  0  0  0  0  0  0
  161.7580  206.5730  153.2770 C   0  0  0  0  0  0  0  0  0  0  0  0
  161.2890  207.8470  153.9080 C   0  0  2  0  0  3  0  0  0  0  0  0
  159.7050  207.0510  155.5250 O   0  0  0  0  0  0  0  0  0  0  0  0
  160.8120  207.6140  155.3090 C   0  0  0  0  0  0  0  0  0  0  0  0
  161.6320  208.0030  156.4030 N   0  0  0  0  0  1  0  0  0  0  0  0
  160.2290  208.5260  153.0460 C   0  0  0  0  0  2  0  0  0  0  0  0
  161.9710  210.3040  153.0010 C   0  0  0  0  0  1  0  0  0  0  0  0
  160.4830  210.0240  152.9340 C   0  0  2  0  0  3  0  0  0  0  0  0
  159.7360  210.8110  154.0110 C   0  0  0  0  0  2  0  0  0  0  0  0
  160.1360  211.2540  156.2800 C   0  0  0  0  0  2  0  0  0  0  0  0
  159.9000  212.5230  155.6040 C   0  0  0  0  0  2  0  0  0  0  0  0
  160.6620  211.4670  154.9230 N   0  0  0  0  0  0  0  0  0  0  0  0
  160.5690  206.4210  149.9440 C   0  0  0  0  0  2  0  0  0  0  0  0
  161.3720  207.4140  149.1180 C   0  0  1  0  0  3  0  0  0  0  0  0
  162.3350  208.1430  150.0290 C   0  0  0  0  0  1  0  0  0  0  0  0
  162.1290  206.7090  148.0890 N   0  0  0  0  0  2  0  0  0  0  0  0
  160.9410  203.2690  145.3980 C   0  0  0  0  0  0  0  0  0  0  0  0
  161.1530  204.4530  144.5170 C   0  0  0  0  0  2  0  0  0  0  0  0
  160.4710  202.1250  144.8470 F   0  0  0  0  0  0  0  0  0  0  0  0
  161.5720  205.7250  147.2100 C   0  0  0  0  0  0  0  0  0  0  0  0
  160.3950  205.6400  145.0060 C   0  0  0  0  0  3  0  0  0  0  0  0
  161.3110  203.2620  146.6780 C   0  0  0  0  0  3  0  0  0  0  0  0
  160.6200  206.2080  146.1910 C   0  0  0  0  0  3  0  0  0  0  0  0
  161.8250  204.4230  147.4330 C   0  0  0  0  0  3  0  0  0  0  0  0
  1  4  1  0  0  0  0
  1  7  1  1  0  0  0
  2 19  1  6  0  0  0
  2  1  1  0  0  0  0
  3  2  1  0  0  0  0
  3  5  2  0  0  0  0
  5  4  1  0  0  0  0
  7  6  2  0  0  0  0
  7  8  1  0  0  0  0
  8 12  1  6  0  0  0
  8 10  1  0  0  0  0
 10  9  2  0  0  0  0
 10 11  1  0  0  0  0
 14 13  1  1  0  0  0
 14 12  1  0  0  0  0
 14 15  1  0  0  0  0
 15 18  1  0  0  0  0
 17 16  1  0  0  0  0
 18 17  1  0  0  0  0
 18 16  1  0  0  0  0
 20 19  1  0  0  0  0
 20 21  1  1  0  0  0
 22 20  1  0  0  0  0
 23 28  2  0  0  0  0
 24 27  1  0  0  0  0
 24 23  1  0  0  0  0
 25 23  1  0  0  0  0
 26 30  2  0  0  0  0
 26 22  1  0  0  0  0
 27 29  2  0  0  0  0
 28 30  1  0  0  0  0
 29 26  1  0  0  0  0
M  END
>  <MODEL>
6

>  <REMARK>
 VINA RESULT:      -6.9      1.988      3.183
  Name = 
  11 active torsions:
  status: ('A' for Active; 'I' for Inactive)
    1  A    between atoms: N_3  and  C_11
    2  A    between atoms: N_3  and  C_19
    3  A    between atoms: C_4  and  C_13
    4  A    between atoms: C_7  and  C_30
    5  A    between atoms: C_8  and  C_12
    6  A    between atoms: C_8  and  C_13
    7  A    between atoms: C_9  and  C_12
    8  A    between atoms: C_9  and  N_21
    9  A    between atoms: C_10  and  C_25
   10  A    between atoms: C_11  and  C_25
   11  A    between atoms: C_13  and  C_30
                            x       y       z     vdW  Elec       q    Type
                         _______ _______ _______ _____ _____    ______ ____

>  <TORSDO>
F 11

$$$$
=
 OpenBabel11052421513D

 30 32  0  0  1  0  0  0  0  0999 V2000
  161.3940  206.0600  147.6170 C   0  0  1  0  0  3  0  0  0  0  0  0
  161.7710  205.9650  149.0920 C   0  0  1  0  0  3  0  0  0  0  0  0
  162.2150  207.3510  149.4280 C   0  0  0  0  0  3  0  0  0  0  0  0
  161.7290  207.3890  147.2560 O   0  0  0  0  0  0  0  0  0  0  0  0
  162.1790  208.1080  148.3470 C   0  0  0  0  0  3  0  0  0  0  0  0
  163.3710  204.8880  147.0590 O   0  0  0  0  0  0  0  0  0  0  0  0
  162.1880  205.0790  146.8130 C   0  0  0  0  0  0  0  0  0  0  0  0
  161.5030  204.3210  145.7180 C   0  0  2  0  0  3  0  0  0  0  0  0
  159.8410  205.8710  144.9490 O   0  0  0  0  0  0  0  0  0  0  0  0
  160.9110  205.2520  144.7040 C   0  0  0  0  0  0  0  0  0  0  0  0
  161.5810  205.4610  143.4680 N   0  0  0  0  0  1  0  0  0  0  0  0
  160.4680  203.3560  146.2870 C   0  0  0  0  0  2  0  0  0  0  0  0
  159.9190  201.3280  144.9520 C   0  0  0  0  0  1  0  0  0  0  0  0
  160.8460  201.9080  146.0020 C   0  0  2  0  0  3  0  0  0  0  0  0
  160.8300  201.0530  147.2680 C   0  0  0  0  0  2  0  0  0  0  0  0
  161.2060  200.9530  149.5820 C   0  0  0  0  0  2  0  0  0  0  0  0
  159.8710  201.4930  149.3620 C   0  0  0  0  0  2  0  0  0  0  0  0
  160.9680  201.8760  148.4620 N   0  0  0  0  0  0  0  0  0  0  0  0
  160.5540  205.5780  149.9150 C   0  0  0  0  0  2  0  0  0  0  0  0
  160.9490  205.2310  151.3420 C   0  0  1  0  0  3  0  0  0  0  0  0
  161.8010  203.9800  151.3230 C   0  0  0  0  0  1  0  0  0  0  0  0
  161.7200  206.3240  151.9260 N   0  0  0  0  0  2  0  0  0  0  0  0
  160.4920  209.6810  154.7020 C   0  0  0  0  0  0  0  0  0  0  0  0
  161.3000  208.7260  155.5120 C   0  0  0  0  0  2  0  0  0  0  0  0
  159.9090  210.7320  155.3270 F   0  0  0  0  0  0  0  0  0  0  0  0
  161.2060  207.2430  152.8960 C   0  0  0  0  0  0  0  0  0  0  0  0
  160.8030  207.3280  155.3620 C   0  0  0  0  0  3  0  0  0  0  0  0
  160.4260  209.6060  153.3730 C   0  0  0  0  0  3  0  0  0  0  0  0
  160.8010  206.6780  154.1990 C   0  0  0  0  0  3  0  0  0  0  0  0
  160.9900  208.5240  152.5420 C   0  0  0  0  0  3  0  0  0  0  0  0
  1  7  1  6  0  0  0
  1  2  1  0  0  0  0
  2  3  1  0  0  0  0
  2 19  1  1  0  0  0
  4  1  1  0  0  0  0
  4  5  1  0  0  0  0
  5  3  2  0  0  0  0
  7  6  2  0  0  0  0
  8 12  1  1  0  0  0
  8  7  1  0  0  0  0
 10  9  2  0  0  0  0
 10  8  1  0  0  0  0
 11 10  1  0  0  0  0
 14 13  1  6  0  0  0
 14 12  1  0  0  0  0
 14 15  1  0  0  0  0
 15 18  1  0  0  0  0
 17 16  1  0  0  0  0
 18 17  1  0  0  0  0
 18 16  1  0  0  0  0
 19 20  1  0  0  0  0
 20 21  1  6  0  0  0
 20 22  1  0  0  0  0
 22 26  1  0  0  0  0
 23 25  1  0  0  0  0
 23 24  1  0  0  0  0
 26 29  1  0  0  0  0
 27 24  1  0  0  0  0
 28 23  2  0  0  0  0
 29 27  2  0  0  0  0
 30 26  2  0  0  0  0
 30 28  1  0  0  0  0
M  END
>  <MODEL>
7

>  <REMARK>
 VINA RESULT:      -6.9      4.127      9.258
  Name = 
  11 active torsions:
  status: ('A' for Active; 'I' for Inactive)
    1  A    between atoms: N_3  and  C_11
    2  A    between atoms: N_3  and  C_19
    3  A    between atoms: C_4  and  C_13
    4  A    between atoms: C_7  and  C_30
    5  A    between atoms: C_8  and  C_12
    6  A    between atoms: C_8  and  C_13
    7  A    between atoms: C_9  and  C_12
    8  A    between atoms: C_9  and  N_21
    9  A    between atoms: C_10  and  C_25
   10  A    between atoms: C_11  and  C_25
   11  A    between atoms: C_13  and  C_30
                            x       y       z     vdW  Elec       q    Type
                         _______ _______ _______ _____ _____    ______ ____

>  <TORSDO>
F 11

$$$$
=
 OpenBabel11052421513D

 30 32  0  0  1  0  0  0  0  0999 V2000
  160.9500  205.5470  151.1320 C   0  0  1  0  0  3  0  0  0  0  0  0
  161.5820  204.2990  150.5250 C   0  0  1  0  0  3  0  0  0  0  0  0
  161.5610  203.3160  151.6490 C   0  0  0  0  0  3  0  0  0  0  0  0
  160.7280  205.2020  152.4880 O   0  0  0  0  0  0  0  0  0  0  0  0
  161.0760  203.8880  152.7350 C   0  0  0  0  0  3  0  0  0  0  0  0
  163.0640  206.5860  151.3430 O   0  0  0  0  0  0  0  0  0  0  0  0
  161.8880  206.7090  151.0300 C   0  0  0  0  0  0  0  0  0  0  0  0
  161.3670  208.0150  150.5160 C   0  0  2  0  0  3  0  0  0  0  0  0
  162.1990  209.4150  148.7550 O   0  0  0  0  0  0  0  0  0  0  0  0
  161.8250  208.2670  149.1130 C   0  0  0  0  0  0  0  0  0  0  0  0
  161.8680  207.1900  148.1850 N   0  0  0  0  0  1  0  0  0  0  0  0
  161.7380  209.1580  151.4560 C   0  0  0  0  0  2  0  0  0  0  0  0
  160.3580  211.0000  152.4050 C   0  0  0  0  0  1  0  0  0  0  0  0
  160.5850  209.5010  152.3920 C   0  0  2  0  0  3  0  0  0  0  0  0
  160.8240  208.9790  153.8080 C   0  0  0  0  0  2  0  0  0  0  0  0
  161.7960  209.3940  155.9020 C   0  0  0  0  0  2  0  0  0  0  0  0
  160.4430  209.9330  155.9150 C   0  0  0  0  0  2  0  0  0  0  0  0
  161.2590  210.0450  154.6980 N   0  0  0  0  0  0  0  0  0  0  0  0
  160.7400  203.8030  149.3620 C   0  0  0  0  0  2  0  0  0  0  0  0
  160.8430  202.2920  149.2210 C   0  0  1  0  0  3  0  0  0  0  0  0
  159.4480  201.7070  149.1880 C   0  0  0  0  0  1  0  0  0  0  0  0
  161.5310  201.9520  147.9800 N   0  0  0  0  0  2  0  0  0  0  0  0
  161.3440  204.9510  144.5940 C   0  0  0  0  0  0  0  0  0  0  0  0
  159.9990  204.3140  144.6810 C   0  0  0  0  0  2  0  0  0  0  0  0
  161.5880  205.8190  143.5840 F   0  0  0  0  0  0  0  0  0  0  0  0
  161.4620  202.7330  146.7810 C   0  0  0  0  0  0  0  0  0  0  0  0
  160.0990  202.8270  144.6870 C   0  0  0  0  0  3  0  0  0  0  0  0
  162.2680  204.7900  145.5420 C   0  0  0  0  0  3  0  0  0  0  0  0
  160.7250  202.1440  145.6460 C   0  0  0  0  0  3  0  0  0  0  0  0
  162.1680  203.8750  146.6960 C   0  0  0  0  0  3  0  0  0  0  0  0
  1  7  1  1  0  0  0
  1  4  1  0  0  0  0
  2 19  1  6  0  0  0
  2  1  1  0  0  0  0
  2  3  1  0  0  0  0
  3  5  2  0  0  0  0
  4  5  1  0  0  0  0
  7  6  2  0  0  0  0
  8  7  1  0  0  0  0
  8 12  1  1  0  0  0
  9 10  2  0  0  0  0
 10  8  1  0  0  0  0
 11 10  1  0  0  0  0
 12 14  1  0  0  0  0
 14 13  1  1  0  0  0
 14 15  1  0  0  0  0
 15 18  1  0  0  0  0
 16 17  1  0  0  0  0
 18 16  1  0  0  0  0
 18 17  1  0  0  0  0
 20 21  1  6  0  0  0
 20 19  1  0  0  0  0
 22 20  1  0  0  0  0
 23 24  1  0  0  0  0
 23 28  2  0  0  0  0
 24 27  1  0  0  0  0
 25 23  1  0  0  0  0
 26 22  1  0  0  0  0
 27 29  2  0  0  0  0
 28 30  1  0  0  0  0
 29 26  1  0  0  0  0
 30 26  2  0  0  0  0
M  END
>  <MODEL>
8

>  <REMARK>
 VINA RESULT:      -6.8      2.231      4.634
  Name = 
  11 active torsions:
  status: ('A' for Active; 'I' for Inactive)
    1  A    between atoms: N_3  and  C_11
    2  A    between atoms: N_3  and  C_19
    3  A    between atoms: C_4  and  C_13
    4  A    between atoms: C_7  and  C_30
    5  A    between atoms: C_8  and  C_12
    6  A    between atoms: C_8  and  C_13
    7  A    between atoms: C_9  and  C_12
    8  A    between atoms: C_9  and  N_21
    9  A    between atoms: C_10  and  C_25
   10  A    between atoms: C_11  and  C_25
   11  A    between atoms: C_13  and  C_30
                            x       y       z     vdW  Elec       q    Type
                         _______ _______ _______ _____ _____    ______ ____

>  <TORSDO>
F 11

$$$$
=
 OpenBabel11052421513D

 30 32  0  0  1  0  0  0  0  0999 V2000
  161.9580  209.3170  152.1270 C   0  0  1  0  0  3  0  0  0  0  0  0
  161.6310  208.0570  151.3330 C   0  0  1  0  0  3  0  0  0  0  0  0
  161.7970  208.4870  149.9120 C   0  0  0  0  0  3  0  0  0  0  0  0
  162.1750  210.3070  151.1370 O   0  0  0  0  0  0  0  0  0  0  0  0
  162.0940  209.7720  149.8650 C   0  0  0  0  0  3  0  0  0  0  0  0
  159.7040  209.1910  152.8330 O   0  0  0  0  0  0  0  0  0  0  0  0
  160.8060  209.6930  153.0050 C   0  0  0  0  0  0  0  0  0  0  0  0
  161.0330  210.6760  154.1120 C   0  0  2  0  0  3  0  0  0  0  0  0
  162.9490  210.7030  155.5550 O   0  0  0  0  0  0  0  0  0  0  0  0
  161.9110  210.0960  155.1790 C   0  0  0  0  0  0  0  0  0  0  0  0
  161.5500  208.8660  155.7920 N   0  0  0  0  0  1  0  0  0  0  0  0
  159.7070  211.1830  154.6710 C   0  0  0  0  0  2  0  0  0  0  0  0
  159.8820  212.9050  156.4600 C   0  0  0  0  0  1  0  0  0  0  0  0
  159.7660  212.6770  154.9660 C   0  0  2  0  0  3  0  0  0  0  0  0
  158.5580  213.4200  154.3980 C   0  0  0  0  0  2  0  0  0  0  0  0
  156.2650  213.3880  153.9060 C   0  0  0  0  0  2  0  0  0  0  0  0
  156.4370  212.9740  155.2920 C   0  0  0  0  0  2  0  0  0  0  0  0
  157.4060  212.5380  154.2770 N   0  0  0  0  0  0  0  0  0  0  0  0
  162.6190  206.9550  151.6780 C   0  0  0  0  0  2  0  0  0  0  0  0
  161.8940  205.6980  152.1360 C   0  0  1  0  0  3  0  0  0  0  0  0
  161.2060  205.9840  153.4530 C   0  0  0  0  0  1  0  0  0  0  0  0
  160.8910  205.3120  151.1490 N   0  0  0  0  0  2  0  0  0  0  0  0
  160.8320  202.0230  148.0400 C   0  0  0  0  0  0  0  0  0  0  0  0
  160.0650  201.5190  149.2150 C   0  0  0  0  0  2  0  0  0  0  0  0
  161.0570  201.1820  147.0030 F   0  0  0  0  0  0  0  0  0  0  0  0
  161.0000  204.1660  150.2970 C   0  0  0  0  0  0  0  0  0  0  0  0
  160.8380  201.6780  150.4800 C   0  0  0  0  0  3  0  0  0  0  0  0
  161.1960  203.3000  147.9240 C   0  0  0  0  0  3  0  0  0  0  0  0
  161.2140  202.8640  150.9580 C   0  0  0  0  0  3  0  0  0  0  0  0
  161.0410  204.3380  148.9620 C   0  0  0  0  0  3  0  0  0  0  0  0
  1  7  1  1  0  0  0
  2 19  1  1  0  0  0
  2  1  1  0  0  0  0
  3  2  1  0  0  0  0
  4  1  1  0  0  0  0
  5  3  2  0  0  0  0
  5  4  1  0  0  0  0
  6  7  2  0  0  0  0
  7  8  1  0  0  0  0
  8 12  1  1  0  0  0
  8 10  1  0  0  0  0
 10  9  2  0  0  0  0
 10 11  1  0  0  0  0
 12 14  1  0  0  0  0
 14 13  1  1  0  0  0
 15 14  1  0  0  0  0
 16 18  1  0  0  0  0
 16 17  1  0  0  0  0
 18 15  1  0  0  0  0
 18 17  1  0  0  0  0
 19 20  1  0  0  0  0
 20 21  1  1  0  0  0
 22 20  1  0  0  0  0
 23 24  1  0  0  0  0
 24 27  1  0  0  0  0
 25 23  1  0  0  0  0
 26 29  1  0  0  0  0
 26 22  1  0  0  0  0
 27 29  2  0  0  0  0
 28 23  2  0  0  0  0
 28 30  1  0  0  0  0
 30 26  2  0  0  0  0
M  END
>  <MODEL>
9

>  <REMARK>
 VINA RESULT:      -6.7      1.817      2.568
  Name = 
  11 active torsions:
  status: ('A' for Active; 'I' for Inactive)
    1  A    between atoms: N_3  and  C_11
    2  A    between atoms: N_3  and  C_19
    3  A    between atoms: C_4  and  C_13
    4  A    between atoms: C_7  and  C_30
    5  A    between atoms: C_8  and  C_12
    6  A    between atoms: C_8  and  C_13
    7  A    between atoms: C_9  and  C_12
    8  A    between atoms: C_9  and  N_21
    9  A    between atoms: C_10  and  C_25
   10  A    between atoms: C_11  and  C_25
   11  A    between atoms: C_13  and  C_30
                            x       y       z     vdW  Elec       q    Type
                         _______ _______ _______ _____ _____    ______ ____

>  <TORSDO>
F 11

$$$$
