=
 OpenBabel11052422333D

 31 34  0  0  1  0  0  0  0  0999 V2000
  160.8830  212.5160  149.6670 C   0  0  0  0  0  0  0  0  0  0  0  0
  160.6920  210.0520  152.4080 C   0  0  1  0  0  3  0  0  0  0  0  0
  159.7310  210.6160  153.4170 C   0  0  0  0  0  0  0  0  0  0  0  0
  158.1000  212.3950  154.1920 C   0  0  0  0  0  2  0  0  0  0  0  0
  161.0080  210.6390  151.2230 C   0  0  0  0  0  0  0  0  0  0  0  0
  161.8310  211.9130  148.8420 C   0  0  0  0  0  3  0  0  0  0  0  0
  158.6810  211.6300  153.0110 C   0  0  0  0  0  2  0  0  0  0  0  0
  162.0380  208.0260  151.7530 C   0  0  1  0  0  3  0  0  0  0  0  0
  160.3430  213.7460  149.3190 O   0  0  0  0  0  1  0  0  0  0  0  0
  160.5790  208.9490  155.0240 C   0  0  0  0  0  3  0  0  0  0  0  0
  157.6290  211.3980  155.2310 C   0  0  2  0  0  3  0  0  0  0  0  0
  162.4640  208.8570  150.6280 N   0  0  0  0  0  2  0  0  0  0  0  0
  161.3970  208.8480  152.7750 N   0  0  0  0  0  0  0  0  0  0  0  0
  160.4850  211.8870  150.8470 C   0  0  0  0  0  3  0  0  0  0  0  0
  156.8410  212.2580  156.5720 Cl  0  0  0  0  0  0  0  0  0  0  0  0
  161.9570  210.0240  150.3600 C   0  0  0  0  0  0  0  0  0  0  0  0
  162.3660  210.6730  149.1910 C   0  0  0  0  0  3  0  0  0  0  0  0
  161.3650  208.3690  154.1230 C   0  0  0  0  0  3  0  0  0  0  0  0
  159.6980  210.0720  154.6600 C   0  0  0  0  0  0  0  0  0  0  0  0
  158.8320  210.6290  155.7600 C   0  0  0  0  0  2  0  0  0  0  0  0
  161.4200  205.7590  150.9880 C   0  0  0  0  0  3  0  0  0  0  0  0
  161.0560  207.0060  151.2720 C   0  0  0  0  0  3  0  0  0  0  0  0
  160.3950  204.7960  150.4820 C   0  0  0  0  0  2  0  0  0  0  0  0
  160.9440  203.9360  149.3450 C   0  0  0  0  0  2  0  0  0  0  0  0
  161.2010  204.7210  148.0610 C   0  0  0  0  0  2  0  0  0  0  0  0
  163.0640  204.9350  146.4560 C   0  0  0  0  0  1  0  0  0  0  0  0
  162.1020  203.9590  147.1050 C   0  0  2  0  0  3  0  0  0  0  0  0
  160.8160  201.9790  146.1810 C   0  0  0  0  0  0  0  0  0  0  0  0
  161.0800  201.2780  147.1930 O   0  0  0  0  0  0  0  0  0  0  0  0
  160.0060  201.4020  145.0760 C   0  0  0  0  0  1  0  0  0  0  0  0
  161.2850  203.3240  146.0810 N   0  0  0  0  0  2  0  0  0  0  0  0
  1 14  1  0  0  0  0
  2  5  1  1  0  0  0
  2 13  1  0  0  0  0
  2  3  1  0  0  0  0
  3 19  2  0  0  0  0
  4 11  1  0  0  0  0
  6 17  1  0  0  0  0
  6  1  2  0  0  0  0
  7  3  1  0  0  0  0
  7  4  1  0  0  0  0
  8 22  1  6  0  0  0
  8 13  1  0  0  0  0
  9  1  1  0  0  0  0
 11 20  1  0  0  0  0
 11 15  1  1  0  0  0
 12  8  1  0  0  0  0
 13 18  1  0  0  0  0
 14  5  2  0  0  0  0
 16 12  1  0  0  0  0
 16  5  1  0  0  0  0
 17 16  2  0  0  0  0
 18 10  2  0  0  0  0
 19 10  1  0  0  0  0
 19 20  1  0  0  0  0
 21 22  2  0  0  0  0
 23 21  1  0  0  0  0
 24 23  1  0  0  0  0
 25 24  1  0  0  0  0
 27 26  1  6  0  0  0
 27 25  1  0  0  0  0
 28 29  2  0  0  0  0
 30 28  1  0  0  0  0
 31 28  1  0  0  0  0
 31 27  1  0  0  0  0
M  END
>  <MODEL>
1

>  <REMARK>
 VINA RESULT:      -7.7      0.000      0.000
  Name = 
  6 active torsions:
  status: ('A' for Active; 'I' for Inactive)
    1  A    between atoms: C_3  and  C_19
    2  A    between atoms: C_3  and  C_22
    3  A    between atoms: C_7  and  C_9
    4  A    between atoms: C_7  and  C_22
    5  A    between atoms: C_15  and  C_23
    6  A    between atoms: C_19  and  N_24
                            x       y       z     vdW  Elec       q    Type
                         _______ _______ _______ _____ _____    ______ ____

>  <TORSDO>
F 6

$$$$
=
 OpenBabel11052422333D

 31 34  0  0  1  0  0  0  0  0999 V2000
  160.5040  212.7850  149.9750 C   0  0  0  0  0  0  0  0  0  0  0  0
  160.4070  210.5080  152.8790 C   0  0  1  0  0  3  0  0  0  0  0  0
  159.3610  211.0550  153.8100 C   0  0  0  0  0  0  0  0  0  0  0  0
  157.5540  212.7340  154.3950 C   0  0  0  0  0  2  0  0  0  0  0  0
  160.7210  211.0370  151.6670 C   0  0  0  0  0  0  0  0  0  0  0  0
  161.5320  212.2110  149.2310 C   0  0  0  0  0  3  0  0  0  0  0  0
  158.2470  211.9440  153.2950 C   0  0  0  0  0  2  0  0  0  0  0  0
  161.9450  208.5670  152.4210 C   0  0  1  0  0  3  0  0  0  0  0  0
  159.8760  213.9360  149.5200 O   0  0  0  0  0  1  0  0  0  0  0  0
  160.2780  209.5830  155.5620 C   0  0  0  0  0  3  0  0  0  0  0  0
  157.1260  211.7740  155.4860 C   0  0  2  0  0  3  0  0  0  0  0  0
  162.3460  209.3520  151.2540 N   0  0  0  0  0  2  0  0  0  0  0  0
  161.1950  209.3980  153.3570 N   0  0  0  0  0  0  0  0  0  0  0  0
  160.1110  212.2070  151.1830 C   0  0  0  0  0  3  0  0  0  0  0  0
  156.2140  212.6530  156.7330 Cl  0  0  0  0  0  0  0  0  0  0  0  0
  161.7540  210.4500  150.8850 C   0  0  0  0  0  0  0  0  0  0  0  0
  162.1550  211.0500  149.6870 C   0  0  0  0  0  3  0  0  0  0  0  0
  161.1470  209.0120  154.7340 C   0  0  0  0  0  3  0  0  0  0  0  0
  159.3210  210.5970  155.0870 C   0  0  0  0  0  0  0  0  0  0  0  0
  158.3660  211.1510  156.1120 C   0  0  0  0  0  2  0  0  0  0  0  0
  161.5490  206.2040  151.8130 C   0  0  0  0  0  3  0  0  0  0  0  0
  161.0730  207.4350  151.9790 C   0  0  0  0  0  3  0  0  0  0  0  0
  160.6320  205.1230  151.3400 C   0  0  0  0  0  2  0  0  0  0  0  0
  160.9220  204.7320  149.8930 C   0  0  0  0  0  2  0  0  0  0  0  0
  160.5840  205.8320  148.8890 C   0  0  0  0  0  2  0  0  0  0  0  0
  162.2950  207.4630  148.1780 C   0  0  0  0  0  1  0  0  0  0  0  0
  161.7260  206.0810  147.9200 C   0  0  2  0  0  3  0  0  0  0  0  0
  161.9690  205.4380  145.4790 C   0  0  0  0  0  0  0  0  0  0  0  0
  163.1130  204.9490  145.6750 O   0  0  0  0  0  0  0  0  0  0  0  0
  161.3860  205.4240  144.1120 C   0  0  0  0  0  1  0  0  0  0  0  0
  161.2230  206.0060  146.5560 N   0  0  0  0  0  2  0  0  0  0  0  0
  1 14  1  0  0  0  0
  2  5  1  1  0  0  0
  2 13  1  0  0  0  0
  2  3  1  0  0  0  0
  3 19  2  0  0  0  0
  4 11  1  0  0  0  0
  6 17  1  0  0  0  0
  6  1  2  0  0  0  0
  7  3  1  0  0  0  0
  7  4  1  0  0  0  0
  8 22  1  6  0  0  0
  8 13  1  0  0  0  0
  9  1  1  0  0  0  0
 11 20  1  0  0  0  0
 11 15  1  1  0  0  0
 12  8  1  0  0  0  0
 13 18  1  0  0  0  0
 14  5  2  0  0  0  0
 16 12  1  0  0  0  0
 16  5  1  0  0  0  0
 17 16  2  0  0  0  0
 18 10  2  0  0  0  0
 19 10  1  0  0  0  0
 19 20  1  0  0  0  0
 21 22  2  0  0  0  0
 23 21  1  0  0  0  0
 24 23  1  0  0  0  0
 25 24  1  0  0  0  0
 27 26  1  1  0  0  0
 27 25  1  0  0  0  0
 28 29  2  0  0  0  0
 28 31  1  0  0  0  0
 30 28  1  0  0  0  0
 31 27  1  0  0  0  0
M  END
>  <MODEL>
2

>  <REMARK>
 VINA RESULT:      -7.7      1.634      1.718
  Name = 
  6 active torsions:
  status: ('A' for Active; 'I' for Inactive)
    1  A    between atoms: C_3  and  C_19
    2  A    between atoms: C_3  and  C_22
    3  A    between atoms: C_7  and  C_9
    4  A    between atoms: C_7  and  C_22
    5  A    between atoms: C_15  and  C_23
    6  A    between atoms: C_19  and  N_24
                            x       y       z     vdW  Elec       q    Type
                         _______ _______ _______ _____ _____    ______ ____

>  <TORSDO>
F 6

$$$$
=
 OpenBabel11052422333D

 31 34  0  0  1  0  0  0  0  0999 V2000
  160.7320  212.8840  149.5640 C   0  0  0  0  0  0  0  0  0  0  0  0
  160.5170  210.5410  152.4080 C   0  0  1  0  0  3  0  0  0  0  0  0
  159.4770  211.1010  153.3390 C   0  0  0  0  0  0  0  0  0  0  0  0
  157.7200  212.8260  153.9410 C   0  0  0  0  0  2  0  0  0  0  0  0
  160.8670  211.0890  151.2140 C   0  0  0  0  0  0  0  0  0  0  0  0
  161.7510  212.2930  148.8190 C   0  0  0  0  0  3  0  0  0  0  0  0
  158.4010  212.0390  152.8310 C   0  0  0  0  0  2  0  0  0  0  0  0
  161.9950  208.5600  151.9220 C   0  0  1  0  0  3  0  0  0  0  0  0
  160.1500  214.0670  149.1290 O   0  0  0  0  0  1  0  0  0  0  0  0
  160.3200  209.5550  155.0660 C   0  0  0  0  0  3  0  0  0  0  0  0
  157.2450  211.8550  155.0030 C   0  0  2  0  0  3  0  0  0  0  0  0
  162.4380  209.3600  150.7810 N   0  0  0  0  0  2  0  0  0  0  0  0
  161.2610  209.3940  152.8680 N   0  0  0  0  0  0  0  0  0  0  0  0
  160.3030  212.2900  150.7510 C   0  0  0  0  0  3  0  0  0  0  0  0
  156.3450  212.7330  156.2590 Cl  0  0  0  0  0  0  0  0  0  0  0  0
  161.8900  210.4860  150.4310 C   0  0  0  0  0  0  0  0  0  0  0  0
  162.3280  211.1010  149.2540 C   0  0  0  0  0  3  0  0  0  0  0  0
  161.1800  208.9760  154.2350 C   0  0  0  0  0  3  0  0  0  0  0  0
  159.4040  210.6130  154.6030 C   0  0  0  0  0  0  0  0  0  0  0  0
  158.4540  211.1740  155.6290 C   0  0  0  0  0  2  0  0  0  0  0  0
  161.5190  206.2200  151.2850 C   0  0  0  0  0  3  0  0  0  0  0  0
  161.0920  207.4700  151.4410 C   0  0  0  0  0  3  0  0  0  0  0  0
  160.5740  205.1830  150.7720 C   0  0  0  0  0  2  0  0  0  0  0  0
  161.3100  203.9180  150.3330 C   0  0  0  0  0  2  0  0  0  0  0  0
  160.3790  202.8280  149.8050 C   0  0  0  0  0  2  0  0  0  0  0  0
  161.3130  201.0890  148.3230 C   0  0  0  0  0  1  0  0  0  0  0  0
  160.6910  202.4720  148.3630 C   0  0  2  0  0  3  0  0  0  0  0  0
  161.7620  203.7040  146.4220 C   0  0  0  0  0  0  0  0  0  0  0  0
  161.0430  203.0990  145.5830 O   0  0  0  0  0  0  0  0  0  0  0  0
  162.7610  204.6990  145.9550 C   0  0  0  0  0  1  0  0  0  0  0  0
  161.6270  203.4450  147.8200 N   0  0  0  0  0  2  0  0  0  0  0  0
  1 14  1  0  0  0  0
  2  5  1  1  0  0  0
  2 13  1  0  0  0  0
  2  3  1  0  0  0  0
  3 19  2  0  0  0  0
  4 11  1  0  0  0  0
  6 17  1  0  0  0  0
  6  1  2  0  0  0  0
  7  3  1  0  0  0  0
  7  4  1  0  0  0  0
  8 22  1  6  0  0  0
  8 13  1  0  0  0  0
  9  1  1  0  0  0  0
 11 20  1  0  0  0  0
 11 15  1  1  0  0  0
 12  8  1  0  0  0  0
 13 18  1  0  0  0  0
 14  5  2  0  0  0  0
 16 12  1  0  0  0  0
 16  5  1  0  0  0  0
 17 16  2  0  0  0  0
 18 10  2  0  0  0  0
 19 10  1  0  0  0  0
 19 20  1  0  0  0  0
 21 22  2  0  0  0  0
 23 21  1  0  0  0  0
 24 23  1  0  0  0  0
 25 24  1  0  0  0  0
 27 26  1  1  0  0  0
 27 25  1  0  0  0  0
 28 31  1  0  0  0  0
 29 28  2  0  0  0  0
 30 28  1  0  0  0  0
 31 27  1  0  0  0  0
M  END
>  <MODEL>
3

>  <REMARK>
 VINA RESULT:      -7.6      1.083      1.553
  Name = 
  6 active torsions:
  status: ('A' for Active; 'I' for Inactive)
    1  A    between atoms: C_3  and  C_19
    2  A    between atoms: C_3  and  C_22
    3  A    between atoms: C_7  and  C_9
    4  A    between atoms: C_7  and  C_22
    5  A    between atoms: C_15  and  C_23
    6  A    between atoms: C_19  and  N_24
                            x       y       z     vdW  Elec       q    Type
                         _______ _______ _______ _____ _____    ______ ____

>  <TORSDO>
F 6

$$$$
=
 OpenBabel11052422333D

 31 34  0  0  1  0  0  0  0  0999 V2000
  160.6570  207.7010  156.4720 C   0  0  0  0  0  0  0  0  0  0  0  0
  161.1910  208.5690  152.9240 C   0  0  1  0  0  3  0  0  0  0  0  0
  161.1820  207.2710  152.1660 C   0  0  0  0  0  0  0  0  0  0  0  0
  160.9270  204.7510  152.0600 C   0  0  0  0  0  2  0  0  0  0  0  0
  160.9830  208.6880  154.2630 C   0  0  0  0  0  0  0  0  0  0  0  0
  160.7430  208.9600  157.0620 C   0  0  0  0  0  3  0  0  0  0  0  0
  160.4830  206.0470  152.7230 C   0  0  0  0  0  2  0  0  0  0  0  0
  161.2090  211.0790  152.7130 C   0  0  1  0  0  3  0  0  0  0  0  0
  160.4540  206.5770  157.2610 O   0  0  0  0  0  1  0  0  0  0  0  0
  162.1630  208.4840  150.2560 C   0  0  0  0  0  3  0  0  0  0  0  0
  160.8010  204.9070  150.5580 C   0  0  2  0  0  3  0  0  0  0  0  0
  161.2000  211.0530  154.1750 N   0  0  0  0  0  2  0  0  0  0  0  0
  161.5390  209.7590  152.1860 N   0  0  0  0  0  0  0  0  0  0  0  0
  160.7840  207.5690  155.0890 C   0  0  0  0  0  3  0  0  0  0  0  0
  161.2030  203.3700  149.7610 Cl  0  0  0  0  0  0  0  0  0  0  0  0
  161.0460  209.9700  154.8770 C   0  0  0  0  0  0  0  0  0  0  0  0
  160.9390  210.0880  156.2670 C   0  0  0  0  0  3  0  0  0  0  0  0
  162.0900  209.6610  150.8690 C   0  0  0  0  0  3  0  0  0  0  0  0
  161.6530  207.2580  150.8930 C   0  0  0  0  0  0  0  0  0  0  0  0
  161.7640  205.9880  150.0900 C   0  0  0  0  0  2  0  0  0  0  0  0
  159.5470  212.7310  151.9280 C   0  0  0  0  0  3  0  0  0  0  0  0
  159.8540  211.4690  152.2160 C   0  0  0  0  0  3  0  0  0  0  0  0
  158.1650  213.0590  151.4640 C   0  0  0  0  0  2  0  0  0  0  0  0
  157.3180  213.6460  152.5910 C   0  0  0  0  0  2  0  0  0  0  0  0
  158.1480  214.2530  153.7200 C   0  0  0  0  0  2  0  0  0  0  0  0
  159.1430  213.3880  155.8070 C   0  0  0  0  0  1  0  0  0  0  0  0
  157.8430  213.6000  155.0560 C   0  0  2  0  0  3  0  0  0  0  0  0
  156.1690  211.7970  155.6710 C   0  0  0  0  0  0  0  0  0  0  0  0
  155.7570  212.4540  156.6630 O   0  0  0  0  0  0  0  0  0  0  0  0
  155.5810  210.4650  155.3740 C   0  0  0  0  0  1  0  0  0  0  0  0
  157.1970  212.3160  154.8260 N   0  0  0  0  0  2  0  0  0  0  0  0
  1  6  1  0  0  0  0
  1  9  1  0  0  0  0
  2  3  1  1  0  0  0
  2  5  1  0  0  0  0
  3  7  1  0  0  0  0
  4  7  1  0  0  0  0
  5 16  2  0  0  0  0
  5 14  1  0  0  0  0
  8 22  1  6  0  0  0
  8 12  1  0  0  0  0
 10 18  2  0  0  0  0
 10 19  1  0  0  0  0
 11 15  1  6  0  0  0
 11  4  1  0  0  0  0
 12 16  1  0  0  0  0
 13  8  1  0  0  0  0
 13  2  1  0  0  0  0
 14  1  2  0  0  0  0
 16 17  1  0  0  0  0
 17  6  2  0  0  0  0
 18 13  1  0  0  0  0
 19  3  2  0  0  0  0
 20 11  1  0  0  0  0
 20 19  1  0  0  0  0
 21 22  2  0  0  0  0
 23 21  1  0  0  0  0
 23 24  1  0  0  0  0
 24 25  1  0  0  0  0
 25 27  1  0  0  0  0
 27 26  1  6  0  0  0
 28 29  2  0  0  0  0
 30 28  1  0  0  0  0
 31 27  1  0  0  0  0
 31 28  1  0  0  0  0
M  END
>  <MODEL>
4

>  <REMARK>
 VINA RESULT:      -7.3      4.363      8.917
  Name = 
  6 active torsions:
  status: ('A' for Active; 'I' for Inactive)
    1  A    between atoms: C_3  and  C_19
    2  A    between atoms: C_3  and  C_22
    3  A    between atoms: C_7  and  C_9
    4  A    between atoms: C_7  and  C_22
    5  A    between atoms: C_15  and  C_23
    6  A    between atoms: C_19  and  N_24
                            x       y       z     vdW  Elec       q    Type
                         _______ _______ _______ _____ _____    ______ ____

>  <TORSDO>
F 6

$$$$
=
 OpenBabel11052422333D

 31 34  0  0  1  0  0  0  0  0999 V2000
  160.8300  212.3610  150.6620 C   0  0  0  0  0  0  0  0  0  0  0  0
  161.6200  208.7730  151.0160 C   0  0  1  0  0  3  0  0  0  0  0  0
  161.1780  208.3780  152.3980 C   0  0  0  0  0  0  0  0  0  0  0  0
  160.0960  208.9030  154.6290 C   0  0  0  0  0  2  0  0  0  0  0  0
  161.4650  210.0110  150.4750 C   0  0  0  0  0  0  0  0  0  0  0  0
  161.3310  212.6120  149.3860 C   0  0  0  0  0  3  0  0  0  0  0  0
  160.1110  209.1660  153.1300 C   0  0  0  0  0  2  0  0  0  0  0  0
  162.4760  207.9240  148.8050 C   0  0  1  0  0  3  0  0  0  0  0  0
  160.2630  213.3910  151.4000 O   0  0  0  0  0  1  0  0  0  0  0  0
  162.5070  206.3170  152.1360 C   0  0  0  0  0  3  0  0  0  0  0  0
  160.0280  207.4070  154.8590 C   0  0  2  0  0  3  0  0  0  0  0  0
  162.4590  209.3360  148.4250 N   0  0  0  0  0  2  0  0  0  0  0  0
  162.3460  207.7880  150.2520 N   0  0  0  0  0  0  0  0  0  0  0  0
  160.9050  211.0770  151.2000 C   0  0  0  0  0  3  0  0  0  0  0  0
  159.8940  207.0730  156.5990 Cl  0  0  0  0  0  0  0  0  0  0  0  0
  161.9530  210.2770  149.1660 C   0  0  0  0  0  0  0  0  0  0  0  0
  161.8930  211.5730  148.6440 C   0  0  0  0  0  3  0  0  0  0  0  0
  162.8310  206.5960  150.8780 C   0  0  0  0  0  3  0  0  0  0  0  0
  161.6170  207.2000  152.9100 C   0  0  0  0  0  0  0  0  0  0  0  0
  161.2970  206.7650  154.3160 C   0  0  0  0  0  2  0  0  0  0  0  0
  161.4720  206.5480  147.0140 C   0  0  0  0  0  3  0  0  0  0  0  0
  161.3290  207.2220  148.1520 C   0  0  0  0  0  3  0  0  0  0  0  0
  160.2790  205.8930  146.3960 C   0  0  0  0  0  2  0  0  0  0  0  0
  160.6850  204.8480  145.3590 C   0  0  0  0  0  2  0  0  0  0  0  0
  161.8990  204.0210  145.7750 C   0  0  0  0  0  2  0  0  0  0  0  0
  160.3720  202.1510  145.2610 C   0  0  0  0  0  1  0  0  0  0  0  0
  161.5100  202.6030  146.1550 C   0  0  2  0  0  3  0  0  0  0  0  0
  161.1290  201.4090  148.3600 C   0  0  0  0  0  0  0  0  0  0  0  0
  161.5810  200.3260  147.9030 O   0  0  0  0  0  0  0  0  0  0  0  0
  160.6450  201.4710  149.7630 C   0  0  0  0  0  1  0  0  0  0  0  0
  161.0770  202.5800  147.5450 N   0  0  0  0  0  2  0  0  0  0  0  0
  1 14  1  0  0  0  0
  1  9  1  0  0  0  0
  2  5  1  1  0  0  0
  2  3  1  0  0  0  0
  3 19  2  0  0  0  0
  3  7  1  0  0  0  0
  4 11  1  0  0  0  0
  5 14  2  0  0  0  0
  6  1  2  0  0  0  0
  7  4  1  0  0  0  0
  8 22  1  6  0  0  0
  8 13  1  0  0  0  0
 10 19  1  0  0  0  0
 11 15  1  1  0  0  0
 12  8  1  0  0  0  0
 12 16  1  0  0  0  0
 13 18  1  0  0  0  0
 13  2  1  0  0  0  0
 16  5  1  0  0  0  0
 17 16  2  0  0  0  0
 17  6  1  0  0  0  0
 18 10  2  0  0  0  0
 19 20  1  0  0  0  0
 20 11  1  0  0  0  0
 21 22  2  0  0  0  0
 23 21  1  0  0  0  0
 24 25  1  0  0  0  0
 24 23  1  0  0  0  0
 25 27  1  0  0  0  0
 27 26  1  6  0  0  0
 27 31  1  0  0  0  0
 28 30  1  0  0  0  0
 29 28  2  0  0  0  0
 31 28  1  0  0  0  0
M  END
>  <MODEL>
5

>  <REMARK>
 VINA RESULT:      -7.1      2.125      3.215
  Name = 
  6 active torsions:
  status: ('A' for Active; 'I' for Inactive)
    1  A    between atoms: C_3  and  C_19
    2  A    between atoms: C_3  and  C_22
    3  A    between atoms: C_7  and  C_9
    4  A    between atoms: C_7  and  C_22
    5  A    between atoms: C_15  and  C_23
    6  A    between atoms: C_19  and  N_24
                            x       y       z     vdW  Elec       q    Type
                         _______ _______ _______ _____ _____    ______ ____

>  <TORSDO>
F 6

$$$$
=
 OpenBabel11052422333D

 31 34  0  0  1  0  0  0  0  0999 V2000
  160.8730  204.5690  152.8650 C   0  0  0  0  0  0  0  0  0  0  0  0
  161.3950  207.4950  150.6760 C   0  0  1  0  0  3  0  0  0  0  0  0
  161.3260  206.9830  149.2640 C   0  0  0  0  0  0  0  0  0  0  0  0
  160.9710  205.1200  147.5810 C   0  0  0  0  0  2  0  0  0  0  0  0
  161.2090  206.7340  151.7880 C   0  0  0  0  0  0  0  0  0  0  0  0
  161.0150  205.1570  154.1200 C   0  0  0  0  0  3  0  0  0  0  0  0
  160.5870  205.7020  148.9340 C   0  0  0  0  0  2  0  0  0  0  0  0
  161.5090  209.5570  152.1160 C   0  0  1  0  0  3  0  0  0  0  0  0
  160.6360  203.2050  152.7600 O   0  0  0  0  0  1  0  0  0  0  0  0
  162.3290  209.1150  148.5370 C   0  0  0  0  0  3  0  0  0  0  0  0
  160.8320  206.2040  146.5310 C   0  0  2  0  0  3  0  0  0  0  0  0
  161.5170  208.6020  153.2240 N   0  0  0  0  0  2  0  0  0  0  0  0
  161.7800  208.8730  150.8570 N   0  0  0  0  0  0  0  0  0  0  0  0
  160.9770  205.3500  151.7140 C   0  0  0  0  0  3  0  0  0  0  0  0
  161.1640  205.5240  144.9220 Cl  0  0  0  0  0  0  0  0  0  0  0  0
  161.3300  207.3240  153.0760 C   0  0  0  0  0  0  0  0  0  0  0  0
  161.2460  206.5280  154.2230 C   0  0  0  0  0  3  0  0  0  0  0  0
  162.3100  209.6290  149.7630 C   0  0  0  0  0  3  0  0  0  0  0  0
  161.7800  207.7770  148.2610 C   0  0  0  0  0  0  0  0  0  0  0  0
  161.8310  207.3130  146.8280 C   0  0  0  0  0  2  0  0  0  0  0  0
  159.9680  211.4690  152.3940 C   0  0  0  0  0  3  0  0  0  0  0  0
  160.1640  210.2050  152.0310 C   0  0  0  0  0  3  0  0  0  0  0  0
  158.5920  212.0480  152.3130 C   0  0  0  0  0  2  0  0  0  0  0  0
  158.0960  212.5150  153.6810 C   0  0  0  0  0  2  0  0  0  0  0  0
  157.2890  211.4540  154.4260 C   0  0  0  0  0  2  0  0  0  0  0  0
  157.0070  212.4000  156.6890 C   0  0  0  0  0  1  0  0  0  0  0  0
  157.7200  211.3360  155.8780 C   0  0  2  0  0  3  0  0  0  0  0  0
  160.0960  210.4580  156.0060 C   0  0  0  0  0  0  0  0  0  0  0  0
  159.7050  209.2630  155.9420 O   0  0  0  0  0  0  0  0  0  0  0  0
  161.5480  210.7540  156.1220 C   0  0  0  0  0  1  0  0  0  0  0  0
  159.1590  211.5350  155.9680 N   0  0  0  0  0  2  0  0  0  0  0  0
  1  6  1  0  0  0  0
  2  3  1  6  0  0  0
  2 13  1  0  0  0  0
  2  5  1  0  0  0  0
  4  7  1  0  0  0  0
  5 16  2  0  0  0  0
  6 17  2  0  0  0  0
  7  3  1  0  0  0  0
  8 22  1  6  0  0  0
  8 12  1  0  0  0  0
  9  1  1  0  0  0  0
 10 18  2  0  0  0  0
 11 15  1  6  0  0  0
 11 20  1  0  0  0  0
 11  4  1  0  0  0  0
 13  8  1  0  0  0  0
 14  5  1  0  0  0  0
 14  1  2  0  0  0  0
 16 12  1  0  0  0  0
 16 17  1  0  0  0  0
 18 13  1  0  0  0  0
 19 10  1  0  0  0  0
 19  3  2  0  0  0  0
 20 19  1  0  0  0  0
 22 21  2  0  0  0  0
 23 21  1  0  0  0  0
 23 24  1  0  0  0  0
 24 25  1  0  0  0  0
 25 27  1  0  0  0  0
 27 31  1  0  0  0  0
 27 26  1  1  0  0  0
 28 30  1  0  0  0  0
 29 28  2  0  0  0  0
 31 28  1  0  0  0  0
M  END
>  <MODEL>
6

>  <REMARK>
 VINA RESULT:      -6.8      3.765      8.954
  Name = 
  6 active torsions:
  status: ('A' for Active; 'I' for Inactive)
    1  A    between atoms: C_3  and  C_19
    2  A    between atoms: C_3  and  C_22
    3  A    between atoms: C_7  and  C_9
    4  A    between atoms: C_7  and  C_22
    5  A    between atoms: C_15  and  C_23
    6  A    between atoms: C_19  and  N_24
                            x       y       z     vdW  Elec       q    Type
                         _______ _______ _______ _____ _____    ______ ____

>  <TORSDO>
F 6

$$$$
=
 OpenBabel11052422333D

 31 34  0  0  1  0  0  0  0  0999 V2000
  160.9880  206.0920  153.9040 C   0  0  0  0  0  0  0  0  0  0  0  0
  161.4050  208.4490  151.0930 C   0  0  1  0  0  3  0  0  0  0  0  0
  161.4030  207.6160  149.8410 C   0  0  0  0  0  0  0  0  0  0  0  0
  161.1980  205.3930  148.6400 C   0  0  0  0  0  2  0  0  0  0  0  0
  161.2320  207.9600  152.3500 C   0  0  0  0  0  0  0  0  0  0  0  0
  161.0640  206.9660  154.9870 C   0  0  0  0  0  3  0  0  0  0  0  0
  160.7460  206.2510  149.8130 C   0  0  0  0  0  2  0  0  0  0  0  0
  161.3650  210.7950  152.0080 C   0  0  1  0  0  3  0  0  0  0  0  0
  160.8310  204.7300  154.1200 O   0  0  0  0  0  1  0  0  0  0  0  0
  162.3050  209.5760  148.6450 C   0  0  0  0  0  3  0  0  0  0  0  0
  161.0280  206.1890  147.3630 C   0  0  2  0  0  3  0  0  0  0  0  0
  161.3960  210.1290  153.3090 N   0  0  0  0  0  2  0  0  0  0  0  0
  161.7080  209.8520  150.9490 N   0  0  0  0  0  0  0  0  0  0  0  0
  161.0800  206.5860  152.6030 C   0  0  0  0  0  3  0  0  0  0  0  0
  161.4410  205.1730  145.9640 Cl  0  0  0  0  0  0  0  0  0  0  0  0
  161.2850  208.8420  153.4650 C   0  0  0  0  0  0  0  0  0  0  0  0
  161.2140  208.3340  154.7660 C   0  0  0  0  0  3  0  0  0  0  0  0
  162.2240  210.3600  149.7150 C   0  0  0  0  0  3  0  0  0  0  0  0
  161.8390  208.1790  148.6850 C   0  0  0  0  0  0  0  0  0  0  0  0
  161.9550  207.3960  147.4030 C   0  0  0  0  0  2  0  0  0  0  0  0
  159.6810  212.6020  151.9370 C   0  0  0  0  0  3  0  0  0  0  0  0
  159.9880  211.3210  151.7550 C   0  0  0  0  0  3  0  0  0  0  0  0
  158.2790  213.0590  151.6950 C   0  0  0  0  0  2  0  0  0  0  0  0
  157.5100  213.2340  153.0030 C   0  0  0  0  0  2  0  0  0  0  0  0
  158.4120  213.5200  154.2020 C   0  0  0  0  0  2  0  0  0  0  0  0
  159.5360  211.8920  155.6780 C   0  0  0  0  0  1  0  0  0  0  0  0
  158.2000  212.5130  155.3190 C   0  0  2  0  0  3  0  0  0  0  0  0
  156.0690  211.1560  155.5370 C   0  0  0  0  0  0  0  0  0  0  0  0
  155.7190  211.7880  156.5690 O   0  0  0  0  0  0  0  0  0  0  0  0
  155.2060  210.0660  155.0130 C   0  0  0  0  0  1  0  0  0  0  0  0
  157.2860  211.4770  154.8620 N   0  0  0  0  0  2  0  0  0  0  0  0
  1  9  1  0  0  0  0
  1  6  1  0  0  0  0
  2  3  1  1  0  0  0
  2  5  1  0  0  0  0
  4  7  1  0  0  0  0
  5 14  1  0  0  0  0
  5 16  2  0  0  0  0
  7  3  1  0  0  0  0
  8 22  1  6  0  0  0
  8 12  1  0  0  0  0
 10 19  1  0  0  0  0
 10 18  2  0  0  0  0
 11 15  1  6  0  0  0
 11 20  1  0  0  0  0
 11  4  1  0  0  0  0
 12 16  1  0  0  0  0
 13  2  1  0  0  0  0
 13  8  1  0  0  0  0
 14  1  2  0  0  0  0
 16 17  1  0  0  0  0
 17  6  2  0  0  0  0
 18 13  1  0  0  0  0
 19  3  2  0  0  0  0
 20 19  1  0  0  0  0
 22 21  2  0  0  0  0
 23 21  1  0  0  0  0
 23 24  1  0  0  0  0
 24 25  1  0  0  0  0
 25 27  1  0  0  0  0
 27 26  1  6  0  0  0
 28 29  2  0  0  0  0
 30 28  1  0  0  0  0
 31 27  1  0  0  0  0
 31 28  1  0  0  0  0
M  END
>  <MODEL>
7

>  <REMARK>
 VINA RESULT:      -6.8      3.987      8.884
  Name = 
  6 active torsions:
  status: ('A' for Active; 'I' for Inactive)
    1  A    between atoms: C_3  and  C_19
    2  A    between atoms: C_3  and  C_22
    3  A    between atoms: C_7  and  C_9
    4  A    between atoms: C_7  and  C_22
    5  A    between atoms: C_15  and  C_23
    6  A    between atoms: C_19  and  N_24
                            x       y       z     vdW  Elec       q    Type
                         _______ _______ _______ _____ _____    ______ ____

>  <TORSDO>
F 6

$$$$
=
 OpenBabel11052422333D

 31 34  0  0  1  0  0  0  0  0999 V2000
  160.9900  206.0860  153.8930 C   0  0  0  0  0  0  0  0  0  0  0  0
  161.4190  208.4380  151.0800 C   0  0  1  0  0  3  0  0  0  0  0  0
  161.4220  207.6030  149.8290 C   0  0  0  0  0  0  0  0  0  0  0  0
  161.2210  205.3780  148.6310 C   0  0  0  0  0  2  0  0  0  0  0  0
  161.2410  207.9520  152.3370 C   0  0  0  0  0  0  0  0  0  0  0  0
  161.0610  206.9610  154.9750 C   0  0  0  0  0  3  0  0  0  0  0  0
  160.7640  206.2390  149.8010 C   0  0  0  0  0  2  0  0  0  0  0  0
  161.3760  210.7850  151.9910 C   0  0  1  0  0  3  0  0  0  0  0  0
  160.8310  204.7250  154.1110 O   0  0  0  0  0  1  0  0  0  0  0  0
  162.3300  209.5600  148.6340 C   0  0  0  0  0  3  0  0  0  0  0  0
  161.0560  206.1720  147.3520 C   0  0  2  0  0  3  0  0  0  0  0  0
  161.4020  210.1210  153.2940 N   0  0  0  0  0  2  0  0  0  0  0  0
  161.7240  209.8400  150.9350 N   0  0  0  0  0  0  0  0  0  0  0  0
  161.0870  206.5780  152.5910 C   0  0  0  0  0  3  0  0  0  0  0  0
  161.4750  205.1540  145.9570 Cl  0  0  0  0  0  0  0  0  0  0  0  0
  161.2890  208.8350  153.4510 C   0  0  0  0  0  0  0  0  0  0  0  0
  161.2130  208.3290  154.7530 C   0  0  0  0  0  3  0  0  0  0  0  0
  162.2450  210.3470  149.7030 C   0  0  0  0  0  3  0  0  0  0  0  0
  161.8630  208.1640  148.6740 C   0  0  0  0  0  0  0  0  0  0  0  0
  161.9840  207.3790  147.3940 C   0  0  0  0  0  2  0  0  0  0  0  0
  159.5810  212.4640  152.2460 C   0  0  0  0  0  3  0  0  0  0  0  0
  160.0020  211.3120  151.7310 C   0  0  0  0  0  3  0  0  0  0  0  0
  158.1840  212.9200  151.9730 C   0  0  0  0  0  2  0  0  0  0  0  0
  158.1280  213.8850  150.7900 C   0  0  0  0  0  2  0  0  0  0  0  0
  157.3080  213.3560  149.6150 C   0  0  0  0  0  2  0  0  0  0  0  0
  157.4700  212.5780  147.2780 C   0  0  0  0  0  1  0  0  0  0  0  0
  158.0210  213.5630  148.2910 C   0  0  2  0  0  3  0  0  0  0  0  0
  160.4320  213.7490  147.5290 C   0  0  0  0  0  0  0  0  0  0  0  0
  160.1010  214.3690  146.4840 O   0  0  0  0  0  0  0  0  0  0  0  0
  161.8650  213.4490  147.7850 C   0  0  0  0  0  1  0  0  0  0  0  0
  159.4460  213.3310  148.4730 N   0  0  0  0  0  2  0  0  0  0  0  0
  1  9  1  0  0  0  0
  1  6  1  0  0  0  0
  2  3  1  1  0  0  0
  2  5  1  0  0  0  0
  4  7  1  0  0  0  0
  5 14  1  0  0  0  0
  5 16  2  0  0  0  0
  7  3  1  0  0  0  0
  8 22  1  6  0  0  0
  8 12  1  0  0  0  0
 10 19  1  0  0  0  0
 10 18  2  0  0  0  0
 11 15  1  6  0  0  0
 11 20  1  0  0  0  0
 11  4  1  0  0  0  0
 12 16  1  0  0  0  0
 13  2  1  0  0  0  0
 13  8  1  0  0  0  0
 14  1  2  0  0  0  0
 16 17  1  0  0  0  0
 17  6  2  0  0  0  0
 18 13  1  0  0  0  0
 19  3  2  0  0  0  0
 20 19  1  0  0  0  0
 22 21  2  0  0  0  0
 23 21  1  0  0  0  0
 24 23  1  0  0  0  0
 25 24  1  0  0  0  0
 27 26  1  6  0  0  0
 27 31  1  0  0  0  0
 27 25  1  0  0  0  0
 28 30  1  0  0  0  0
 28 31  1  0  0  0  0
 29 28  2  0  0  0  0
M  END
>  <MODEL>
8

>  <REMARK>
 VINA RESULT:      -6.7      3.799      8.257
  Name = 
  6 active torsions:
  status: ('A' for Active; 'I' for Inactive)
    1  A    between atoms: C_3  and  C_19
    2  A    between atoms: C_3  and  C_22
    3  A    between atoms: C_7  and  C_9
    4  A    between atoms: C_7  and  C_22
    5  A    between atoms: C_15  and  C_23
    6  A    between atoms: C_19  and  N_24
                            x       y       z     vdW  Elec       q    Type
                         _______ _______ _______ _____ _____    ______ ____

>  <TORSDO>
F 6

$$$$
=
 OpenBabel11052422333D

 31 34  0  0  1  0  0  0  0  0999 V2000
  161.8340  210.5450  149.1950 C   0  0  0  0  0  0  0  0  0  0  0  0
  161.4170  208.2840  152.0830 C   0  0  1  0  0  3  0  0  0  0  0  0
  160.7080  209.0800  153.1440 C   0  0  0  0  0  0  0  0  0  0  0  0
  159.5790  211.1960  153.9630 C   0  0  0  0  0  2  0  0  0  0  0  0
  161.7230  208.7440  150.8410 C   0  0  0  0  0  0  0  0  0  0  0  0
  162.5410  209.7220  148.3220 C   0  0  0  0  0  3  0  0  0  0  0  0
  159.8590  210.2800  152.7800 C   0  0  0  0  0  2  0  0  0  0  0  0
  162.2290  205.9930  151.4240 C   0  0  1  0  0  3  0  0  0  0  0  0
  161.5310  211.8490  148.8280 O   0  0  0  0  0  1  0  0  0  0  0  0
  161.3500  207.3300  154.7580 C   0  0  0  0  0  3  0  0  0  0  0  0
  159.0210  210.3640  155.0990 C   0  0  2  0  0  3  0  0  0  0  0  0
  162.7000  206.6700  150.2170 N   0  0  0  0  0  2  0  0  0  0  0  0
  161.8870  206.9710  152.4510 N   0  0  0  0  0  0  0  0  0  0  0  0
  161.4380  210.0620  150.4430 C   0  0  0  0  0  3  0  0  0  0  0  0
  158.5780  211.4230  156.4560 Cl  0  0  0  0  0  0  0  0  0  0  0  0
  162.4260  207.9080  149.9300 C   0  0  0  0  0  0  0  0  0  0  0  0
  162.8370  208.4100  148.6900 C   0  0  0  0  0  3  0  0  0  0  0  0
  161.8970  206.5610  153.8220 C   0  0  0  0  0  3  0  0  0  0  0  0
  160.6920  208.6020  154.4140 C   0  0  0  0  0  0  0  0  0  0  0  0
  160.0830  209.3730  155.5560 C   0  0  0  0  0  2  0  0  0  0  0  0
  161.0690  203.8830  150.8680 C   0  0  0  0  0  3  0  0  0  0  0  0
  161.0100  205.1920  151.0990 C   0  0  0  0  0  3  0  0  0  0  0  0
  159.8170  203.1450  150.5170 C   0  0  0  0  0  2  0  0  0  0  0  0
  160.0820  202.0390  149.4990 C   0  0  0  0  0  2  0  0  0  0  0  0
  161.2440  202.3480  148.5570 C   0  0  0  0  0  2  0  0  0  0  0  0
  160.8290  201.2300  146.3970 C   0  0  0  0  0  1  0  0  0  0  0  0
  160.7720  202.5570  147.1290 C   0  0  2  0  0  3  0  0  0  0  0  0
  161.6170  204.9170  146.7480 C   0  0  0  0  0  0  0  0  0  0  0  0
  160.8280  205.3860  147.6090 O   0  0  0  0  0  0  0  0  0  0  0  0
  162.5310  205.8280  146.0110 C   0  0  0  0  0  1  0  0  0  0  0  0
  161.6460  203.5160  146.4710 N   0  0  0  0  0  2  0  0  0  0  0  0
  1 14  1  0  0  0  0
  2  5  1  1  0  0  0
  2 13  1  0  0  0  0
  2  3  1  0  0  0  0
  3 19  2  0  0  0  0
  4 11  1  0  0  0  0
  6 17  1  0  0  0  0
  6  1  2  0  0  0  0
  7  3  1  0  0  0  0
  7  4  1  0  0  0  0
  8 22  1  6  0  0  0
  8 13  1  0  0  0  0
  9  1  1  0  0  0  0
 11 20  1  0  0  0  0
 11 15  1  1  0  0  0
 12  8  1  0  0  0  0
 13 18  1  0  0  0  0
 14  5  2  0  0  0  0
 16 12  1  0  0  0  0
 16  5  1  0  0  0  0
 17 16  2  0  0  0  0
 18 10  2  0  0  0  0
 19 10  1  0  0  0  0
 19 20  1  0  0  0  0
 21 22  2  0  0  0  0
 23 21  1  0  0  0  0
 24 23  1  0  0  0  0
 25 24  1  0  0  0  0
 27 26  1  6  0  0  0
 27 25  1  0  0  0  0
 28 29  2  0  0  0  0
 30 28  1  0  0  0  0
 31 28  1  0  0  0  0
 31 27  1  0  0  0  0
M  END
>  <MODEL>
9

>  <REMARK>
 VINA RESULT:      -6.6      1.567      2.402
  Name = 
  6 active torsions:
  status: ('A' for Active; 'I' for Inactive)
    1  A    between atoms: C_3  and  C_19
    2  A    between atoms: C_3  and  C_22
    3  A    between atoms: C_7  and  C_9
    4  A    between atoms: C_7  and  C_22
    5  A    between atoms: C_15  and  C_23
    6  A    between atoms: C_19  and  N_24
                            x       y       z     vdW  Elec       q    Type
                         _______ _______ _______ _____ _____    ______ ____

>  <TORSDO>
F 6

$$$$
