=
 OpenBabel11062409403D

 34 39  0  0  1  0  0  0  0  0999 V2000
  160.8770  205.6300  149.9670 N   0  0  0  0  0  0  0  0  0  0  0  0
  161.9980  203.5950  147.1120 C   0  0  0  0  0  2  0  0  0  0  0  0
  161.4670  202.9730  149.2460 N   0  0  0  0  0  0  0  0  0  0  0  0
  160.6710  204.7180  152.2020 N   0  0  0  0  0  0  0  0  0  0  0  0
  160.8030  203.4420  152.6570 C   0  0  0  0  0  3  0  0  0  0  0  0
  161.1510  203.2990  150.5120 C   0  0  0  0  0  0  0  0  0  0  0  0
  160.8960  204.6310  150.8840 C   0  0  0  0  0  0  0  0  0  0  0  0
  161.1110  202.5250  151.6420 C   0  0  0  0  0  3  0  0  0  0  0  0
  162.4020  204.5230  146.0190 C   0  0  0  0  0  2  0  0  0  0  0  0
  161.2510  205.2830  145.4670 C   0  0  0  0  0  0  0  0  0  0  0  0
  160.5490  206.0980  146.2510 C   0  0  0  0  0  3  0  0  0  0  0  0
  161.4760  203.9510  148.2910 C   0  0  0  0  0  0  0  0  0  0  0  0
  160.6640  206.2120  147.7150 C   0  0  0  0  0  2  0  0  0  0  0  0
  161.0530  205.2990  148.6330 C   0  0  0  0  0  0  0  0  0  0  0  0
  161.0020  205.2550  144.0540 N   0  0  0  0  0  0  0  0  0  0  0  0
  160.0870  204.3710  143.5310 O   0  0  0  0  0  0  0  0  0  0  0  0
  161.6040  206.0320  143.2830 O   0  0  0  0  0  0  0  0  0  0  0  0
  160.6250  207.0110  150.4090 C   0  0  0  0  0  2  0  0  0  0  0  0
  160.1310  209.5930  155.0350 C   0  0  0  0  0  3  0  0  0  0  0  0
  161.2060  209.6590  152.4550 C   0  0  0  0  0  0  0  0  0  0  0  0
  159.0010  212.9360  153.9080 C   0  0  0  0  0  0  0  0  0  0  0  0
  161.8580  207.6660  151.0560 C   0  0  1  0  0  3  0  0  0  0  0  0
  159.2130  211.8150  154.7160 C   0  0  0  0  0  3  0  0  0  0  0  0
  159.9410  210.7250  154.2300 C   0  0  0  0  0  0  0  0  0  0  0  0
  161.8710  209.4820  150.8090 S   0  0  0  0  0  0  0  0  0  0  0  0
  161.9660  207.3710  152.5570 C   0  0  0  0  0  2  0  0  0  0  0  0
  160.2530  211.8830  152.1110 C   0  0  0  0  0  3  0  0  0  0  0  0
  160.4720  210.7590  152.9170 C   0  0  0  0  0  0  0  0  0  0  0  0
  159.5210  212.9660  152.6040 C   0  0  0  0  0  3  0  0  0  0  0  0
  161.3530  208.5340  153.2440 C   0  0  0  0  0  0  0  0  0  0  0  0
  160.8290  208.4860  154.5370 C   0  0  0  0  0  3  0  0  0  0  0  0
  158.2240  214.0900  154.4530 C   0  0  2  0  0  3  0  0  0  0  0  0
  157.7350  213.7910  155.7240 O   0  0  0  0  0  1  0  0  0  0  0  0
  157.0770  214.4530  153.5280 C   0  0  0  0  0  1  0  0  0  0  0  0
  1 18  1  0  0  0  0
  1  7  1  0  0  0  0
  2 12  1  0  0  0  0
  3  6  2  0  0  0  0
  4  5  1  0  0  0  0
  6  7  1  0  0  0  0
  6  8  1  0  0  0  0
  7  4  2  0  0  0  0
  8  5  2  0  0  0  0
  9  2  1  0  0  0  0
 10  9  1  0  0  0  0
 10 11  2  0  0  0  0
 11 13  1  0  0  0  0
 12 14  2  0  0  0  0
 12  3  1  0  0  0  0
 13 14  1  0  0  0  0
 14  1  1  0  0  0  0
 15 10  1  0  0  0  0
 16 15  2  0  0  0  0
 17 15  2  0  0  0  0
 20 28  2  0  0  0  0
 20 30  1  0  0  0  0
 21 32  1  0  0  0  0
 21 23  2  0  0  0  0
 22 18  1  1  0  0  0
 22 26  1  0  0  0  0
 24 23  1  0  0  0  0
 24 19  2  0  0  0  0
 25 22  1  0  0  0  0
 25 20  1  0  0  0  0
 26 30  1  0  0  0  0
 27 29  2  0  0  0  0
 27 28  1  0  0  0  0
 28 24  1  0  0  0  0
 29 21  1  0  0  0  0
 30 31  2  0  0  0  0
 31 19  1  0  0  0  0
 32 34  1  6  0  0  0
 32 33  1  0  0  0  0
M  END
>  <MODEL>
1

>  <REMARK>
 VINA RESULT:      -7.9      0.000      0.000
  Name = 
  4 active torsions:
  status: ('A' for Active; 'I' for Inactive)
    1  A    between atoms: N_1  and  C_9
    2  A    between atoms: N_3  and  C_25
    3  A    between atoms: C_7  and  C_11
    4  A    between atoms: C_8  and  C_9
                            x       y       z     vdW  Elec       q    Type
                         _______ _______ _______ _____ _____    ______ ____

>  <TORSDO>
F 4

$$$$
=
 OpenBabel11062409403D

 34 39  0  0  1  0  0  0  0  0999 V2000
  160.0330  210.2950  153.2650 N   0  0  0  0  0  0  0  0  0  0  0  0
  159.3880  213.7270  152.1050 C   0  0  0  0  0  2  0  0  0  0  0  0
  159.6610  212.9160  154.2240 N   0  0  0  0  0  0  0  0  0  0  0  0
  159.9840  209.6940  155.6120 N   0  0  0  0  0  0  0  0  0  0  0  0
  159.8490  210.4650  156.7250 C   0  0  0  0  0  3  0  0  0  0  0  0
  159.7930  211.8760  155.0670 C   0  0  0  0  0  0  0  0  0  0  0  0
  159.9370  210.5620  154.5920 C   0  0  0  0  0  0  0  0  0  0  0  0
  159.7180  211.8320  156.4340 C   0  0  0  0  0  3  0  0  0  0  0  0
  159.0920  213.6700  150.6460 C   0  0  0  0  0  2  0  0  0  0  0  0
  160.2710  213.2530  149.8440 C   0  0  0  0  0  0  0  0  0  0  0  0
  160.8270  212.0600  150.0420 C   0  0  0  0  0  3  0  0  0  0  0  0
  159.7350  212.6920  152.8770 C   0  0  0  0  0  0  0  0  0  0  0  0
  160.5150  211.1230  151.1360 C   0  0  0  0  0  2  0  0  0  0  0  0
  160.0490  211.3620  152.3820 C   0  0  0  0  0  0  0  0  0  0  0  0
  160.7050  214.0750  148.7510 N   0  0  0  0  0  0  0  0  0  0  0  0
  162.0240  214.4530  148.6520 O   0  0  0  0  0  0  0  0  0  0  0  0
  159.8980  214.4530  147.8750 O   0  0  0  0  0  0  0  0  0  0  0  0
  160.1640  208.8990  152.8170 C   0  0  0  0  0  2  0  0  0  0  0  0
  161.8380  206.4320  148.4090 C   0  0  0  0  0  3  0  0  0  0  0  0
  161.8460  206.4280  151.2050 C   0  0  0  0  0  0  0  0  0  0  0  0
  160.8450  202.9290  149.0910 C   0  0  0  0  0  0  0  0  0  0  0  0
  161.6300  208.4430  152.7040 C   0  0  1  0  0  3  0  0  0  0  0  0
  161.1890  204.0960  148.4020 C   0  0  0  0  0  3  0  0  0  0  0  0
  161.5160  205.2590  149.1050 C   0  0  0  0  0  0  0  0  0  0  0  0
  161.8020  206.6380  152.9760 S   0  0  0  0  0  0  0  0  0  0  0  0
  162.2590  208.8010  151.3520 C   0  0  0  0  0  2  0  0  0  0  0  0
  161.1560  204.0830  151.2070 C   0  0  0  0  0  3  0  0  0  0  0  0
  161.5060  205.2530  150.5210 C   0  0  0  0  0  0  0  0  0  0  0  0
  160.8270  202.9270  150.4950 C   0  0  0  0  0  3  0  0  0  0  0  0
  162.1240  207.5880  150.5080 C   0  0  0  0  0  0  0  0  0  0  0  0
  162.1310  207.6070  149.1120 C   0  0  0  0  0  3  0  0  0  0  0  0
  160.5040  201.6980  148.3160 C   0  0  2  0  0  3  0  0  0  0  0  0
  161.1830  200.5950  148.8310 O   0  0  0  0  0  1  0  0  0  0  0  0
  160.8410  201.8750  146.8470 C   0  0  0  0  0  1  0  0  0  0  0  0
  1  7  1  0  0  0  0
  2 12  1  0  0  0  0
  3  6  2  0  0  0  0
  4  5  1  0  0  0  0
  6  8  1  0  0  0  0
  7  6  1  0  0  0  0
  7  4  2  0  0  0  0
  8  5  2  0  0  0  0
  9  2  1  0  0  0  0
 10 11  2  0  0  0  0
 10  9  1  0  0  0  0
 11 13  1  0  0  0  0
 12  3  1  0  0  0  0
 13 14  1  0  0  0  0
 14 12  2  0  0  0  0
 14  1  1  0  0  0  0
 15 10  1  0  0  0  0
 16 15  2  0  0  0  0
 17 15  2  0  0  0  0
 18  1  1  0  0  0  0
 19 24  2  0  0  0  0
 19 31  1  0  0  0  0
 20 25  1  0  0  0  0
 21 29  1  0  0  0  0
 22 18  1  6  0  0  0
 22 25  1  0  0  0  0
 23 21  2  0  0  0  0
 23 24  1  0  0  0  0
 24 28  1  0  0  0  0
 26 22  1  0  0  0  0
 28 20  2  0  0  0  0
 28 27  1  0  0  0  0
 29 27  2  0  0  0  0
 30 20  1  0  0  0  0
 30 26  1  0  0  0  0
 31 30  2  0  0  0  0
 32 34  1  6  0  0  0
 32 33  1  0  0  0  0
 32 21  1  0  0  0  0
M  END
>  <MODEL>
2

>  <REMARK>
 VINA RESULT:      -7.9      3.774      8.914
  Name = 
  4 active torsions:
  status: ('A' for Active; 'I' for Inactive)
    1  A    between atoms: N_1  and  C_9
    2  A    between atoms: N_3  and  C_25
    3  A    between atoms: C_7  and  C_11
    4  A    between atoms: C_8  and  C_9
                            x       y       z     vdW  Elec       q    Type
                         _______ _______ _______ _____ _____    ______ ____

>  <TORSDO>
F 4

$$$$
=
 OpenBabel11062409403D

 34 39  0  0  1  0  0  0  0  0999 V2000
  160.3630  209.1750  153.8060 N   0  0  0  0  0  0  0  0  0  0  0  0
  159.2260  212.6750  153.7220 C   0  0  0  0  0  2  0  0  0  0  0  0
  160.0670  211.4400  155.4520 N   0  0  0  0  0  0  0  0  0  0  0  0
  160.9340  208.0520  155.8750 N   0  0  0  0  0  0  0  0  0  0  0  0
  161.0270  208.5250  157.1470 C   0  0  0  0  0  3  0  0  0  0  0  0
  160.4700  210.2600  155.9540 C   0  0  0  0  0  0  0  0  0  0  0  0
  160.5800  209.1180  155.1430 C   0  0  0  0  0  0  0  0  0  0  0  0
  160.7380  209.8950  157.2470 C   0  0  0  0  0  3  0  0  0  0  0  0
  158.5830  212.9160  152.4000 C   0  0  0  0  0  2  0  0  0  0  0  0
  159.5520  212.8440  151.2770 C   0  0  0  0  0  0  0  0  0  0  0  0
  160.2180  211.7160  151.0380 C   0  0  0  0  0  3  0  0  0  0  0  0
  159.8200  211.5420  154.1110 C   0  0  0  0  0  0  0  0  0  0  0  0
  160.2480  210.5230  151.9010 C   0  0  0  0  0  2  0  0  0  0  0  0
  160.0890  210.4100  153.2390 C   0  0  0  0  0  0  0  0  0  0  0  0
  159.6480  213.9420  150.3570 N   0  0  0  0  0  0  0  0  0  0  0  0
  158.5140  214.4510  149.7670 O   0  0  0  0  0  0  0  0  0  0  0  0
  160.7550  214.4530  150.0850 O   0  0  0  0  0  0  0  0  0  0  0  0
  160.4710  207.9470  153.0020 C   0  0  0  0  0  2  0  0  0  0  0  0
  161.6580  206.0970  148.1560 C   0  0  0  0  0  3  0  0  0  0  0  0
  162.0250  205.7710  150.9090 C   0  0  0  0  0  0  0  0  0  0  0  0
  160.8960  202.4910  148.5270 C   0  0  0  0  0  0  0  0  0  0  0  0
  161.9260  207.5860  152.6550 C   0  0  1  0  0  3  0  0  0  0  0  0
  161.1040  203.7460  147.9460 C   0  0  0  0  0  3  0  0  0  0  0  0
  161.4740  204.8360  148.7390 C   0  0  0  0  0  0  0  0  0  0  0  0
  162.2010  205.7740  152.6840 S   0  0  0  0  0  0  0  0  0  0  0  0
  162.3620  208.1300  151.2890 C   0  0  0  0  0  2  0  0  0  0  0  0
  161.4320  203.4090  150.7120 C   0  0  0  0  0  3  0  0  0  0  0  0
  161.6460  204.6660  150.1350 C   0  0  0  0  0  0  0  0  0  0  0  0
  161.0590  202.3260  149.9110 C   0  0  0  0  0  3  0  0  0  0  0  0
  162.1660  207.0170  150.3280 C   0  0  0  0  0  0  0  0  0  0  0  0
  161.9930  207.1980  148.9550 C   0  0  0  0  0  3  0  0  0  0  0  0
  160.5060  201.3400  147.6560 C   0  0  2  0  0  3  0  0  0  0  0  0
  161.3330  200.2440  147.8990 O   0  0  0  0  0  1  0  0  0  0  0  0
  160.5750  201.7260  146.1890 C   0  0  0  0  0  1  0  0  0  0  0  0
  1  7  1  0  0  0  0
  2 12  1  0  0  0  0
  3  6  2  0  0  0  0
  4  5  1  0  0  0  0
  5  8  2  0  0  0  0
  6  8  1  0  0  0  0
  7  4  2  0  0  0  0
  7  6  1  0  0  0  0
  9  2  1  0  0  0  0
 10  9  1  0  0  0  0
 11 10  2  0  0  0  0
 11 13  1  0  0  0  0
 12  3  1  0  0  0  0
 13 14  1  0  0  0  0
 14  1  1  0  0  0  0
 14 12  2  0  0  0  0
 15 10  1  0  0  0  0
 16 15  2  0  0  0  0
 17 15  2  0  0  0  0
 18  1  1  0  0  0  0
 19 24  2  0  0  0  0
 19 31  1  0  0  0  0
 20 25  1  0  0  0  0
 21 29  1  0  0  0  0
 22 25  1  0  0  0  0
 22 18  1  6  0  0  0
 23 21  2  0  0  0  0
 23 24  1  0  0  0  0
 24 28  1  0  0  0  0
 26 22  1  0  0  0  0
 28 27  1  0  0  0  0
 28 20  2  0  0  0  0
 29 27  2  0  0  0  0
 30 20  1  0  0  0  0
 30 26  1  0  0  0  0
 31 30  2  0  0  0  0
 32 34  1  6  0  0  0
 32 33  1  0  0  0  0
 32 21  1  0  0  0  0
M  END
>  <MODEL>
3

>  <REMARK>
 VINA RESULT:      -7.7      3.508      9.076
  Name = 
  4 active torsions:
  status: ('A' for Active; 'I' for Inactive)
    1  A    between atoms: N_1  and  C_9
    2  A    between atoms: N_3  and  C_25
    3  A    between atoms: C_7  and  C_11
    4  A    between atoms: C_8  and  C_9
                            x       y       z     vdW  Elec       q    Type
                         _______ _______ _______ _____ _____    ______ ____

>  <TORSDO>
F 4

$$$$
=
 OpenBabel11062409403D

 34 39  0  0  1  0  0  0  0  0999 V2000
  159.3800  211.6550  152.3690 N   0  0  0  0  0  0  0  0  0  0  0  0
  158.2380  214.2860  154.6750 C   0  0  0  0  0  2  0  0  0  0  0  0
  159.1260  214.4510  152.5760 N   0  0  0  0  0  0  0  0  0  0  0  0
  160.5550  212.1610  150.3120 N   0  0  0  0  0  0  0  0  0  0  0  0
  160.8270  213.3530  149.7130 C   0  0  0  0  0  3  0  0  0  0  0  0
  159.7180  213.8810  151.5120 C   0  0  0  0  0  0  0  0  0  0  0  0
  159.8830  212.4880  151.4240 C   0  0  0  0  0  0  0  0  0  0  0  0
  160.3330  214.4530  150.4290 C   0  0  0  0  0  3  0  0  0  0  0  0
  157.9400  213.6480  155.9880 C   0  0  0  0  0  2  0  0  0  0  0  0
  156.7770  212.7250  155.9180 C   0  0  0  0  0  0  0  0  0  0  0  0
  156.8120  211.6630  155.1160 C   0  0  0  0  0  3  0  0  0  0  0  0
  158.6180  213.6510  153.5610 C   0  0  0  0  0  0  0  0  0  0  0  0
  157.8410  211.3700  154.1030 C   0  0  0  0  0  2  0  0  0  0  0  0
  158.6370  212.2070  153.4000 C   0  0  0  0  0  0  0  0  0  0  0  0
  155.6860  212.8970  156.8340 N   0  0  0  0  0  0  0  0  0  0  0  0
  154.9630  211.8070  157.2600 O   0  0  0  0  0  0  0  0  0  0  0  0
  155.3820  214.0310  157.2610 O   0  0  0  0  0  0  0  0  0  0  0  0
  159.5950  210.2040  152.2430 C   0  0  0  0  0  2  0  0  0  0  0  0
  161.8190  206.8520  148.7610 C   0  0  0  0  0  3  0  0  0  0  0  0
  161.5030  207.5060  151.4600 C   0  0  0  0  0  0  0  0  0  0  0  0
  160.8250  203.5650  150.1490 C   0  0  0  0  0  0  0  0  0  0  0  0
  161.0730  209.8040  152.4010 C   0  0  1  0  0  3  0  0  0  0  0  0
  161.2230  204.5510  149.2420 C   0  0  0  0  0  3  0  0  0  0  0  0
  161.4430  205.8610  149.6780 C   0  0  0  0  0  0  0  0  0  0  0  0
  161.2480  208.1250  153.1150 S   0  0  0  0  0  0  0  0  0  0  0  0
  161.8470  209.8630  151.0790 C   0  0  0  0  0  2  0  0  0  0  0  0
  160.8650  205.1980  151.9490 C   0  0  0  0  0  3  0  0  0  0  0  0
  161.2680  206.1880  151.0450 C   0  0  0  0  0  0  0  0  0  0  0  0
  160.6440  203.8920  151.5030 C   0  0  0  0  0  3  0  0  0  0  0  0
  161.8360  208.4810  150.5400 C   0  0  0  0  0  0  0  0  0  0  0  0
  162.0050  208.1720  149.1900 C   0  0  0  0  0  3  0  0  0  0  0  0
  160.6010  202.1710  149.6590 C   0  0  2  0  0  3  0  0  0  0  0  0
  161.3120  201.2600  150.4390 O   0  0  0  0  0  1  0  0  0  0  0  0
  161.0140  202.0380  148.2040 C   0  0  0  0  0  1  0  0  0  0  0  0
  1 14  1  0  0  0  0
  2  9  1  0  0  0  0
  3 12  1  0  0  0  0
  4  7  2  0  0  0  0
  5  4  1  0  0  0  0
  5  8  2  0  0  0  0
  6  3  2  0  0  0  0
  7  6  1  0  0  0  0
  7  1  1  0  0  0  0
  8  6  1  0  0  0  0
 10  9  1  0  0  0  0
 10 15  1  0  0  0  0
 11 10  2  0  0  0  0
 12  2  1  0  0  0  0
 13 11  1  0  0  0  0
 14 12  2  0  0  0  0
 14 13  1  0  0  0  0
 15 16  2  0  0  0  0
 15 17  2  0  0  0  0
 18  1  1  0  0  0  0
 19 31  2  0  0  0  0
 19 24  1  0  0  0  0
 20 25  1  0  0  0  0
 21 29  1  0  0  0  0
 22 18  1  6  0  0  0
 22 25  1  0  0  0  0
 23 24  1  0  0  0  0
 23 21  2  0  0  0  0
 24 28  2  0  0  0  0
 26 22  1  0  0  0  0
 28 20  1  0  0  0  0
 28 27  1  0  0  0  0
 29 27  2  0  0  0  0
 30 26  1  0  0  0  0
 30 20  2  0  0  0  0
 31 30  1  0  0  0  0
 32 34  1  6  0  0  0
 32 21  1  0  0  0  0
 32 33  1  0  0  0  0
M  END
>  <MODEL>
4

>  <REMARK>
 VINA RESULT:      -7.4      3.825     10.244
  Name = 
  4 active torsions:
  status: ('A' for Active; 'I' for Inactive)
    1  A    between atoms: N_1  and  C_9
    2  A    between atoms: N_3  and  C_25
    3  A    between atoms: C_7  and  C_11
    4  A    between atoms: C_8  and  C_9
                            x       y       z     vdW  Elec       q    Type
                         _______ _______ _______ _____ _____    ______ ____

>  <TORSDO>
F 4

$$$$
=
 OpenBabel11062409403D

 34 39  0  0  1  0  0  0  0  0999 V2000
  160.8080  205.1470  150.1900 N   0  0  0  0  0  0  0  0  0  0  0  0
  161.9730  203.3890  147.1740 C   0  0  0  0  0  2  0  0  0  0  0  0
  161.4970  202.5810  149.2580 N   0  0  0  0  0  0  0  0  0  0  0  0
  160.6710  204.0570  152.3490 N   0  0  0  0  0  0  0  0  0  0  0  0
  160.8620  202.7560  152.7020 C   0  0  0  0  0  3  0  0  0  0  0  0
  161.1860  202.7950  150.5490 C   0  0  0  0  0  0  0  0  0  0  0  0
  160.8820  204.0810  151.0260 C   0  0  0  0  0  0  0  0  0  0  0  0
  161.1940  201.9340  151.6150 C   0  0  0  0  0  3  0  0  0  0  0  0
  162.3220  204.4140  146.1520 C   0  0  0  0  0  2  0  0  0  0  0  0
  161.1330  205.1650  145.6730 C   0  0  0  0  0  0  0  0  0  0  0  0
  160.4090  205.8860  146.5260 C   0  0  0  0  0  3  0  0  0  0  0  0
  161.4530  203.6300  148.3820 C   0  0  0  0  0  0  0  0  0  0  0  0
  160.5400  205.8920  147.9930 C   0  0  0  0  0  2  0  0  0  0  0  0
  160.9790  204.9280  148.8330 C   0  0  0  0  0  0  0  0  0  0  0  0
  160.8650  205.2360  144.2650 N   0  0  0  0  0  0  0  0  0  0  0  0
  161.4690  206.2030  143.4940 O   0  0  0  0  0  0  0  0  0  0  0  0
  160.0890  204.4220  143.7200 O   0  0  0  0  0  0  0  0  0  0  0  0
  160.5050  206.4780  150.7410 C   0  0  0  0  0  2  0  0  0  0  0  0
  160.4250  211.7070  151.7230 C   0  0  0  0  0  3  0  0  0  0  0  0
  161.8970  209.5750  150.6730 C   0  0  0  0  0  0  0  0  0  0  0  0
  161.3940  213.1000  148.4300 C   0  0  0  0  0  0  0  0  0  0  0  0
  161.7340  207.1580  151.3700 C   0  0  1  0  0  3  0  0  0  0  0  0
  160.8390  212.9920  149.7090 C   0  0  0  0  0  3  0  0  0  0  0  0
  161.0020  211.8190  150.4510 C   0  0  0  0  0  0  0  0  0  0  0  0
  162.7090  208.0840  150.1250 S   0  0  0  0  0  0  0  0  0  0  0  0
  161.3630  208.1100  152.5140 C   0  0  0  0  0  2  0  0  0  0  0  0
  162.2880  210.8490  148.6250 C   0  0  0  0  0  3  0  0  0  0  0  0
  161.7390  210.7380  149.9070 C   0  0  0  0  0  0  0  0  0  0  0  0
  162.1170  212.0250  147.8890 C   0  0  0  0  0  3  0  0  0  0  0  0
  161.2910  209.4620  151.9090 C   0  0  0  0  0  0  0  0  0  0  0  0
  160.5570  210.5190  152.4520 C   0  0  0  0  0  3  0  0  0  0  0  0
  161.2090  214.3680  147.6600 C   0  0  2  0  0  3  0  0  0  0  0  0
  159.9070  214.4530  147.1680 O   0  0  0  0  0  1  0  0  0  0  0  0
  162.2010  214.4530  146.5150 C   0  0  0  0  0  1  0  0  0  0  0  0
  1 18  1  0  0  0  0
  1  7  1  0  0  0  0
  2 12  1  0  0  0  0
  3  6  2  0  0  0  0
  4  5  1  0  0  0  0
  6  7  1  0  0  0  0
  6  8  1  0  0  0  0
  7  4  2  0  0  0  0
  8  5  2  0  0  0  0
  9  2  1  0  0  0  0
 10  9  1  0  0  0  0
 10 11  2  0  0  0  0
 11 13  1  0  0  0  0
 12 14  2  0  0  0  0
 12  3  1  0  0  0  0
 13 14  1  0  0  0  0
 14  1  1  0  0  0  0
 15 10  1  0  0  0  0
 16 15  2  0  0  0  0
 17 15  2  0  0  0  0
 19 31  1  0  0  0  0
 20 30  1  0  0  0  0
 21 23  2  0  0  0  0
 22 18  1  6  0  0  0
 22 26  1  0  0  0  0
 23 24  1  0  0  0  0
 24 19  2  0  0  0  0
 25 20  1  0  0  0  0
 25 22  1  0  0  0  0
 27 28  1  0  0  0  0
 28 24  1  0  0  0  0
 28 20  2  0  0  0  0
 29 21  1  0  0  0  0
 29 27  2  0  0  0  0
 30 31  2  0  0  0  0
 30 26  1  0  0  0  0
 32 34  1  6  0  0  0
 32 21  1  0  0  0  0
 33 32  1  0  0  0  0
M  END
>  <MODEL>
5

>  <REMARK>
 VINA RESULT:      -6.5      2.611      3.417
  Name = 
  4 active torsions:
  status: ('A' for Active; 'I' for Inactive)
    1  A    between atoms: N_1  and  C_9
    2  A    between atoms: N_3  and  C_25
    3  A    between atoms: C_7  and  C_11
    4  A    between atoms: C_8  and  C_9
                            x       y       z     vdW  Elec       q    Type
                         _______ _______ _______ _____ _____    ______ ____

>  <TORSDO>
F 4

$$$$
=
 OpenBabel11062409403D

 34 39  0  0  1  0  0  0  0  0999 V2000
  161.0160  205.4730  149.3670 N   0  0  0  0  0  0  0  0  0  0  0  0
  161.1460  203.8280  146.0770 C   0  0  0  0  0  2  0  0  0  0  0  0
  161.8480  205.9080  146.7120 N   0  0  0  0  0  0  0  0  0  0  0  0
  161.5760  207.8110  149.6650 N   0  0  0  0  0  0  0  0  0  0  0  0
  162.0810  208.7230  148.7900 C   0  0  0  0  0  3  0  0  0  0  0  0
  161.9190  206.8840  147.6350 C   0  0  0  0  0  0  0  0  0  0  0  0
  161.4660  206.6830  148.9500 C   0  0  0  0  0  0  0  0  0  0  0  0
  162.3020  208.1930  147.5100 C   0  0  0  0  0  3  0  0  0  0  0  0
  160.3700  202.5590  146.1680 C   0  0  0  0  0  2  0  0  0  0  0  0
  161.0090  201.5680  147.0720 C   0  0  0  0  0  0  0  0  0  0  0  0
  161.1880  201.8550  148.3600 C   0  0  0  0  0  3  0  0  0  0  0  0
  161.3850  204.6760  147.0830 C   0  0  0  0  0  0  0  0  0  0  0  0
  160.9840  203.1670  148.9970 C   0  0  0  0  0  2  0  0  0  0  0  0
  161.0700  204.4120  148.4770 C   0  0  0  0  0  0  0  0  0  0  0  0
  161.2850  200.2470  146.5850 N   0  0  0  0  0  0  0  0  0  0  0  0
  160.8150  199.8510  145.3540 O   0  0  0  0  0  0  0  0  0  0  0  0
  161.9560  199.4420  147.2660 O   0  0  0  0  0  0  0  0  0  0  0  0
  160.5340  205.3180  150.7490 C   0  0  0  0  0  2  0  0  0  0  0  0
  159.7660  207.4870  155.5470 C   0  0  0  0  0  3  0  0  0  0  0  0
  161.4880  207.2760  153.3540 C   0  0  0  0  0  0  0  0  0  0  0  0
  160.4490  211.0630  154.8670 C   0  0  0  0  0  0  0  0  0  0  0  0
  161.6750  205.3150  151.7820 C   0  0  1  0  0  3  0  0  0  0  0  0
  159.9480  209.9030  155.4650 C   0  0  0  0  0  3  0  0  0  0  0  0
  160.2900  208.6460  154.9590 C   0  0  0  0  0  0  0  0  0  0  0  0
  162.4820  206.9560  151.9070 S   0  0  0  0  0  0  0  0  0  0  0  0
  161.2070  204.8860  153.1780 C   0  0  0  0  0  2  0  0  0  0  0  0
  161.6480  209.7120  153.2410 C   0  0  0  0  0  3  0  0  0  0  0  0
  161.1520  208.5470  153.8390 C   0  0  0  0  0  0  0  0  0  0  0  0
  161.2980  210.9650  153.7530 C   0  0  0  0  0  3  0  0  0  0  0  0
  160.9350  206.1430  153.9190 C   0  0  0  0  0  0  0  0  0  0  0  0
  160.0790  206.2280  155.0180 C   0  0  0  0  0  3  0  0  0  0  0  0
  160.0730  212.3950  155.4320 C   0  0  2  0  0  3  0  0  0  0  0  0
  160.4120  212.4640  156.7820 O   0  0  0  0  0  1  0  0  0  0  0  0
  158.5880  212.6550  155.2560 C   0  0  0  0  0  1  0  0  0  0  0  0
  1 18  1  0  0  0  0
  2  9  1  0  0  0  0
  2 12  1  0  0  0  0
  3 12  1  0  0  0  0
  3  6  2  0  0  0  0
  5  4  1  0  0  0  0
  6  7  1  0  0  0  0
  7  1  1  0  0  0  0
  7  4  2  0  0  0  0
  8  6  1  0  0  0  0
  8  5  2  0  0  0  0
  9 10  1  0  0  0  0
 10 11  2  0  0  0  0
 11 13  1  0  0  0  0
 12 14  2  0  0  0  0
 14 13  1  0  0  0  0
 14  1  1  0  0  0  0
 15 10  1  0  0  0  0
 15 17  2  0  0  0  0
 16 15  2  0  0  0  0
 20 28  2  0  0  0  0
 20 30  1  0  0  0  0
 21 32  1  0  0  0  0
 21 23  2  0  0  0  0
 22 18  1  6  0  0  0
 22 25  1  0  0  0  0
 22 26  1  0  0  0  0
 24 23  1  0  0  0  0
 24 19  2  0  0  0  0
 25 20  1  0  0  0  0
 26 30  1  0  0  0  0
 27 29  2  0  0  0  0
 27 28  1  0  0  0  0
 28 24  1  0  0  0  0
 29 21  1  0  0  0  0
 30 31  2  0  0  0  0
 31 19  1  0  0  0  0
 32 34  1  1  0  0  0
 32 33  1  0  0  0  0
M  END
>  <MODEL>
6

>  <REMARK>
 VINA RESULT:      -6.4      2.275      3.631
  Name = 
  4 active torsions:
  status: ('A' for Active; 'I' for Inactive)
    1  A    between atoms: N_1  and  C_9
    2  A    between atoms: N_3  and  C_25
    3  A    between atoms: C_7  and  C_11
    4  A    between atoms: C_8  and  C_9
                            x       y       z     vdW  Elec       q    Type
                         _______ _______ _______ _____ _____    ______ ____

>  <TORSDO>
F 4

$$$$
=
 OpenBabel11062409403D

 34 39  0  0  1  0  0  0  0  0999 V2000
  162.0760  207.4740  151.5010 N   0  0  0  0  0  0  0  0  0  0  0  0
  161.9840  210.6350  153.3840 C   0  0  0  0  0  2  0  0  0  0  0  0
  161.9830  210.2630  151.1290 N   0  0  0  0  0  0  0  0  0  0  0  0
  162.3620  207.4110  149.0960 N   0  0  0  0  0  0  0  0  0  0  0  0
  162.4020  208.4160  148.1780 C   0  0  0  0  0  3  0  0  0  0  0  0
  162.0990  209.4230  150.0850 C   0  0  0  0  0  0  0  0  0  0  0  0
  162.1870  208.0330  150.2700 C   0  0  0  0  0  0  0  0  0  0  0  0
  162.2510  209.6880  148.7490 C   0  0  0  0  0  3  0  0  0  0  0  0
  162.2110  210.3180  154.8220 C   0  0  0  0  0  2  0  0  0  0  0  0
  161.0950  209.5350  155.4120 C   0  0  0  0  0  0  0  0  0  0  0  0
  160.7910  208.3330  154.9280 C   0  0  0  0  0  3  0  0  0  0  0  0
  161.8850  209.7460  152.3900 C   0  0  0  0  0  0  0  0  0  0  0  0
  161.3340  207.7250  153.7010 C   0  0  0  0  0  2  0  0  0  0  0  0
  161.8090  208.3060  152.5760 C   0  0  0  0  0  0  0  0  0  0  0  0
  160.4540  210.0120  156.6050 N   0  0  0  0  0  0  0  0  0  0  0  0
  160.6750  211.2980  157.0420 O   0  0  0  0  0  0  0  0  0  0  0  0
  159.6860  209.2730  157.2570 O   0  0  0  0  0  0  0  0  0  0  0  0
  162.1950  206.0140  151.6450 C   0  0  0  0  0  2  0  0  0  0  0  0
  161.6690  200.8680  150.3980 C   0  0  0  0  0  3  0  0  0  0  0  0
  160.5570  203.4240  150.1820 C   0  0  0  0  0  0  0  0  0  0  0  0
  161.0590  201.0420  146.7490 C   0  0  0  0  0  0  0  0  0  0  0  0
  160.8330  205.3180  151.8210 C   0  0  1  0  0  3  0  0  0  0  0  0
  161.4330  200.5570  148.0050 C   0  0  0  0  0  3  0  0  0  0  0  0
  161.2710  201.3500  149.1440 C   0  0  0  0  0  0  0  0  0  0  0  0
  159.9670  205.1080  150.2200 S   0  0  0  0  0  0  0  0  0  0  0  0
  160.9520  203.9500  152.5030 C   0  0  0  0  0  2  0  0  0  0  0  0
  160.3490  203.1330  147.7640 C   0  0  0  0  0  3  0  0  0  0  0  0
  160.7180  202.6500  149.0250 C   0  0  0  0  0  0  0  0  0  0  0  0
  160.5190  202.3330  146.6310 C   0  0  0  0  0  3  0  0  0  0  0  0
  160.9890  202.9520  151.4070 C   0  0  0  0  0  0  0  0  0  0  0  0
  161.5410  201.6760  151.5350 C   0  0  0  0  0  3  0  0  0  0  0  0
  161.2380  200.1710  145.5470 C   0  0  2  0  0  3  0  0  0  0  0  0
  160.1170  200.2450  144.7210 O   0  0  0  0  0  1  0  0  0  0  0  0
  161.4860  198.7310  145.9570 C   0  0  0  0  0  1  0  0  0  0  0  0
  1 18  1  0  0  0  0
  1 14  1  0  0  0  0
  2  9  1  0  0  0  0
  3 12  1  0  0  0  0
  4  7  2  0  0  0  0
  5  8  2  0  0  0  0
  5  4  1  0  0  0  0
  6  7  1  0  0  0  0
  6  3  2  0  0  0  0
  7  1  1  0  0  0  0
  8  6  1  0  0  0  0
  9 10  1  0  0  0  0
 10 15  1  0  0  0  0
 11 10  2  0  0  0  0
 12 14  2  0  0  0  0
 12  2  1  0  0  0  0
 13 11  1  0  0  0  0
 14 13  1  0  0  0  0
 15 16  2  0  0  0  0
 15 17  2  0  0  0  0
 19 31  1  0  0  0  0
 20 25  1  0  0  0  0
 20 30  1  0  0  0  0
 21 23  2  0  0  0  0
 22 18  1  6  0  0  0
 22 26  1  0  0  0  0
 23 24  1  0  0  0  0
 24 19  2  0  0  0  0
 25 22  1  0  0  0  0
 27 28  1  0  0  0  0
 28 24  1  0  0  0  0
 28 20  2  0  0  0  0
 29 21  1  0  0  0  0
 29 27  2  0  0  0  0
 30 31  2  0  0  0  0
 30 26  1  0  0  0  0
 32 34  1  1  0  0  0
 32 21  1  0  0  0  0
 33 32  1  0  0  0  0
M  END
>  <MODEL>
7

>  <REMARK>
 VINA RESULT:      -6.3      3.159      9.987
  Name = 
  4 active torsions:
  status: ('A' for Active; 'I' for Inactive)
    1  A    between atoms: N_1  and  C_9
    2  A    between atoms: N_3  and  C_25
    3  A    between atoms: C_7  and  C_11
    4  A    between atoms: C_8  and  C_9
                            x       y       z     vdW  Elec       q    Type
                         _______ _______ _______ _____ _____    ______ ____

>  <TORSDO>
F 4

$$$$
=
 OpenBabel11062409403D

 34 39  0  0  1  0  0  0  0  0999 V2000
  161.1210  206.6560  150.1330 N   0  0  0  0  0  0  0  0  0  0  0  0
  161.2640  204.0870  147.5010 C   0  0  0  0  0  2  0  0  0  0  0  0
  162.0250  206.2420  147.4990 N   0  0  0  0  0  0  0  0  0  0  0  0
  161.7570  208.9580  149.7260 N   0  0  0  0  0  0  0  0  0  0  0  0
  162.3120  209.5480  148.6330 C   0  0  0  0  0  3  0  0  0  0  0  0
  162.1100  207.4500  148.0840 C   0  0  0  0  0  0  0  0  0  0  0  0
  161.6230  207.6700  149.3840 C   0  0  0  0  0  0  0  0  0  0  0  0
  162.5420  208.6490  147.5810 C   0  0  0  0  0  3  0  0  0  0  0  0
  160.4420  202.9280  147.9480 C   0  0  0  0  0  2  0  0  0  0  0  0
  161.0260  202.2410  149.1290 C   0  0  0  0  0  0  0  0  0  0  0  0
  161.1870  202.9000  150.2740 C   0  0  0  0  0  3  0  0  0  0  0  0
  161.5110  205.1940  148.2100 C   0  0  0  0  0  0  0  0  0  0  0  0
  161.0160  204.3490  150.4780 C   0  0  0  0  0  2  0  0  0  0  0  0
  161.1570  205.3740  149.6080 C   0  0  0  0  0  0  0  0  0  0  0  0
  161.2650  200.8270  149.0740 N   0  0  0  0  0  0  0  0  0  0  0  0
  161.5700  200.2230  147.8760 O   0  0  0  0  0  0  0  0  0  0  0  0
  161.2060  200.1280  150.1080 O   0  0  0  0  0  0  0  0  0  0  0  0
  160.6040  206.9410  151.4810 C   0  0  0  0  0  2  0  0  0  0  0  0
  159.3460  208.4590  156.4230 C   0  0  0  0  0  3  0  0  0  0  0  0
  160.9660  208.9460  154.1980 C   0  0  0  0  0  0  0  0  0  0  0  0
  158.8160  212.0970  155.9750 C   0  0  0  0  0  0  0  0  0  0  0  0
  161.7200  207.2470  152.4960 C   0  0  1  0  0  3  0  0  0  0  0  0
  158.7370  210.8040  156.5010 C   0  0  0  0  0  3  0  0  0  0  0  0
  159.4470  209.7580  155.9070 C   0  0  0  0  0  0  0  0  0  0  0  0
  161.9590  209.0500  152.7190 S   0  0  0  0  0  0  0  0  0  0  0  0
  161.4640  206.6090  153.8670 C   0  0  0  0  0  2  0  0  0  0  0  0
  160.3290  211.3050  154.2460 C   0  0  0  0  0  3  0  0  0  0  0  0
  160.2560  210.0090  154.7720 C   0  0  0  0  0  0  0  0  0  0  0  0
  159.6120  212.3440  154.8450 C   0  0  0  0  0  3  0  0  0  0  0  0
  160.8280  207.6640  154.6930 C   0  0  0  0  0  0  0  0  0  0  0  0
  160.0290  207.4030  155.8070 C   0  0  0  0  0  3  0  0  0  0  0  0
  158.0500  213.2000  156.6320 C   0  0  2  0  0  3  0  0  0  0  0  0
  156.9120  212.6950  157.2600 O   0  0  0  0  0  1  0  0  0  0  0  0
  157.6560  214.2610  155.6210 C   0  0  0  0  0  1  0  0  0  0  0  0
  1 18  1  0  0  0  0
  2  9  1  0  0  0  0
  2 12  1  0  0  0  0
  3  6  2  0  0  0  0
  3 12  1  0  0  0  0
  5  4  1  0  0  0  0
  6  7  1  0  0  0  0
  7  4  2  0  0  0  0
  7  1  1  0  0  0  0
  8  6  1  0  0  0  0
  8  5  2  0  0  0  0
  9 10  1  0  0  0  0
 10 11  2  0  0  0  0
 11 13  1  0  0  0  0
 12 14  2  0  0  0  0
 14  1  1  0  0  0  0
 14 13  1  0  0  0  0
 15 10  1  0  0  0  0
 15 17  2  0  0  0  0
 16 15  2  0  0  0  0
 20 30  2  0  0  0  0
 20 28  1  0  0  0  0
 21 23  1  0  0  0  0
 21 32  1  0  0  0  0
 22 18  1  6  0  0  0
 22 25  1  0  0  0  0
 22 26  1  0  0  0  0
 24 19  1  0  0  0  0
 24 23  2  0  0  0  0
 25 20  1  0  0  0  0
 26 30  1  0  0  0  0
 27 28  2  0  0  0  0
 27 29  1  0  0  0  0
 28 24  1  0  0  0  0
 29 21  2  0  0  0  0
 30 31  1  0  0  0  0
 31 19  2  0  0  0  0
 32 34  1  6  0  0  0
 32 33  1  0  0  0  0
M  END
>  <MODEL>
8

>  <REMARK>
 VINA RESULT:      -6.2      2.399      3.810
  Name = 
  4 active torsions:
  status: ('A' for Active; 'I' for Inactive)
    1  A    between atoms: N_1  and  C_9
    2  A    between atoms: N_3  and  C_25
    3  A    between atoms: C_7  and  C_11
    4  A    between atoms: C_8  and  C_9
                            x       y       z     vdW  Elec       q    Type
                         _______ _______ _______ _____ _____    ______ ____

>  <TORSDO>
F 4

$$$$
=
 OpenBabel11062409403D

 34 39  0  0  1  0  0  0  0  0999 V2000
  161.3000  208.1940  151.1990 N   0  0  0  0  0  0  0  0  0  0  0  0
  160.9390  205.2530  149.0170 C   0  0  0  0  0  2  0  0  0  0  0  0
  161.7480  207.3400  148.5540 N   0  0  0  0  0  0  0  0  0  0  0  0
  161.9230  210.3720  150.3400 N   0  0  0  0  0  0  0  0  0  0  0  0
  162.3070  210.7590  149.0930 C   0  0  0  0  0  3  0  0  0  0  0  0
  161.9610  208.6160  148.9210 C   0  0  0  0  0  0  0  0  0  0  0  0
  161.6990  209.0550  150.2300 C   0  0  0  0  0  0  0  0  0  0  0  0
  162.3370  209.7000  148.1730 C   0  0  0  0  0  3  0  0  0  0  0  0
  160.1700  204.2190  149.7650 C   0  0  0  0  0  2  0  0  0  0  0  0
  160.9200  203.6890  150.9320 C   0  0  0  0  0  0  0  0  0  0  0  0
  161.2850  204.5050  151.9190 C   0  0  0  0  0  3  0  0  0  0  0  0
  161.3290  206.4400  149.4940 C   0  0  0  0  0  0  0  0  0  0  0  0
  161.1900  205.9740  151.9160 C   0  0  0  0  0  2  0  0  0  0  0  0
  161.2150  206.8480  150.8850 C   0  0  0  0  0  0  0  0  0  0  0  0
  161.1090  202.2730  151.0640 N   0  0  0  0  0  0  0  0  0  0  0  0
  162.2920  201.7760  151.5600 O   0  0  0  0  0  0  0  0  0  0  0  0
  160.2050  201.4740  150.7380 O   0  0  0  0  0  0  0  0  0  0  0  0
  161.0200  208.7070  152.5500 C   0  0  0  0  0  2  0  0  0  0  0  0
  159.8300  211.2490  157.0710 C   0  0  0  0  0  3  0  0  0  0  0  0
  159.8040  211.3660  154.2780 C   0  0  0  0  0  0  0  0  0  0  0  0
  156.3170  212.2530  156.4600 C   0  0  0  0  0  0  0  0  0  0  0  0
  161.3960  210.1900  152.7170 C   0  0  1  0  0  3  0  0  0  0  0  0
  157.4980  211.9120  157.1260 C   0  0  0  0  0  3  0  0  0  0  0  0
  158.6540  211.6130  156.4000 C   0  0  0  0  0  0  0  0  0  0  0  0
  159.9430  211.2870  152.5000 S   0  0  0  0  0  0  0  0  0  0  0  0
  162.0420  210.4870  154.0750 C   0  0  0  0  0  2  0  0  0  0  0  0
  157.4440  211.9990  154.3220 C   0  0  0  0  0  3  0  0  0  0  0  0
  158.6300  211.6610  154.9840 C   0  0  0  0  0  0  0  0  0  0  0  0
  156.2920  212.2930  155.0570 C   0  0  0  0  0  3  0  0  0  0  0  0
  160.9450  210.9720  154.9490 C   0  0  0  0  0  0  0  0  0  0  0  0
  160.9790  210.9130  156.3430 C   0  0  0  0  0  3  0  0  0  0  0  0
  155.0960  212.5740  157.2610 C   0  0  2  0  0  3  0  0  0  0  0  0
  154.1120  211.6080  157.0550 O   0  0  0  0  0  1  0  0  0  0  0  0
  154.5590  213.9460  156.8990 C   0  0  0  0  0  1  0  0  0  0  0  0
  1 18  1  0  0  0  0
  2 12  1  0  0  0  0
  2  9  1  0  0  0  0
  3  6  2  0  0  0  0
  3 12  1  0  0  0  0
  5  4  1  0  0  0  0
  6  7  1  0  0  0  0
  7  4  2  0  0  0  0
  7  1  1  0  0  0  0
  8  6  1  0  0  0  0
  8  5  2  0  0  0  0
  9 10  1  0  0  0  0
 10 15  1  0  0  0  0
 10 11  2  0  0  0  0
 12 14  2  0  0  0  0
 13 11  1  0  0  0  0
 14  1  1  0  0  0  0
 14 13  1  0  0  0  0
 15 16  2  0  0  0  0
 17 15  2  0  0  0  0
 20 30  2  0  0  0  0
 20 28  1  0  0  0  0
 21 23  1  0  0  0  0
 21 32  1  0  0  0  0
 22 18  1  1  0  0  0
 22 26  1  0  0  0  0
 24 19  1  0  0  0  0
 24 23  2  0  0  0  0
 25 22  1  0  0  0  0
 25 20  1  0  0  0  0
 26 30  1  0  0  0  0
 27 28  2  0  0  0  0
 27 29  1  0  0  0  0
 28 24  1  0  0  0  0
 29 21  2  0  0  0  0
 30 31  1  0  0  0  0
 31 19  2  0  0  0  0
 32 34  1  6  0  0  0
 33 32  1  0  0  0  0
M  END
>  <MODEL>
9

>  <REMARK>
 VINA RESULT:      -5.7      3.163      4.816
  Name = 
  4 active torsions:
  status: ('A' for Active; 'I' for Inactive)
    1  A    between atoms: N_1  and  C_9
    2  A    between atoms: N_3  and  C_25
    3  A    between atoms: C_7  and  C_11
    4  A    between atoms: C_8  and  C_9
                            x       y       z     vdW  Elec       q    Type
                         _______ _______ _______ _____ _____    ______ ____

>  <TORSDO>
F 4

$$$$
