=
 OpenBabel11052422333D

 31 35  0  0  1  0  0  0  0  0999 V2000
  161.1940  201.4260  149.7710 C   0  0  0  0  0  0  0  0  0  0  0  0
  160.9870  205.2330  149.2630 C   0  0  1  0  0  3  0  0  0  0  0  0
  161.3250  205.3960  147.7850 C   0  0  0  0  0  0  0  0  0  0  0  0
  160.4790  206.3120  154.3790 O   0  0  0  0  0  0  0  0  0  0  0  0
  160.8770  207.3580  153.8000 C   0  0  0  0  0  0  0  0  0  0  0  0
  161.1140  204.6310  145.4820 C   0  0  0  0  0  0  0  0  0  0  0  0
  161.1240  203.8540  149.8860 C   0  0  0  0  0  0  0  0  0  0  0  0
  161.1560  201.3520  151.1650 C   0  0  0  0  0  3  0  0  0  0  0  0
  160.9040  204.4390  146.8480 C   0  0  0  0  0  3  0  0  0  0  0  0
  161.2730  206.1450  151.5800 C   0  0  0  0  0  0  0  0  0  0  0  0
  161.2570  199.9600  148.8180 Cl  0  0  0  0  0  0  0  0  0  0  0  0
  162.3020  207.7130  148.2380 C   0  0  0  0  0  2  0  0  0  0  0  0
  160.7230  203.6820  144.5970 F   0  0  0  0  0  0  0  0  0  0  0  0
  161.0460  204.9660  152.0860 N   0  0  0  0  0  0  0  0  0  0  0  0
  161.7190  206.2590  150.1430 C   0  0  2  0  0  3  0  0  0  0  0  0
  161.2600  207.3120  152.4170 N   0  0  0  0  0  2  0  0  0  0  0  0
  161.1660  202.6690  149.1350 C   0  0  0  0  0  3  0  0  0  0  0  0
  161.7170  205.8030  145.0270 C   0  0  0  0  0  3  0  0  0  0  0  0
  161.0870  203.7690  151.2940 C   0  0  0  0  0  0  0  0  0  0  0  0
  161.1000  202.5220  151.9260 C   0  0  0  0  0  3  0  0  0  0  0  0
  161.5540  207.6550  149.5650 C   0  0  0  0  0  2  0  0  0  0  0  0
  161.8820  206.6100  147.3080 C   0  0  0  0  0  0  0  0  0  0  0  0
  162.0960  206.7900  145.9370 C   0  0  0  0  0  3  0  0  0  0  0  0
  161.1400  210.9850  156.0460 C   0  0  0  0  0  0  0  0  0  0  0  0
  161.3570  208.6310  155.8730 C   0  0  0  0  0  3  0  0  0  0  0  0
  160.1860  210.0510  152.5330 C   0  0  0  0  0  1  0  0  0  0  0  0
  161.2460  212.2200  156.8650 C   0  0  0  0  0  1  0  0  0  0  0  0
  161.4420  209.7800  156.5930 N   0  0  0  0  0  0  0  0  0  0  0  0
  160.6320  209.9020  153.9500 C   0  0  0  0  0  0  0  0  0  0  0  0
  160.9490  208.6500  154.5300 C   0  0  0  0  0  0  0  0  0  0  0  0
  160.7300  211.0650  154.7160 C   0  0  0  0  0  3  0  0  0  0  0  0
  1  8  1  0  0  0  0
  2  3  1  6  0  0  0
  2  7  1  0  0  0  0
  2 15  1  0  0  0  0
  5  4  2  0  0  0  0
  5 30  1  0  0  0  0
  6  9  1  0  0  0  0
  7 19  2  0  0  0  0
  8 20  2  0  0  0  0
  9  3  2  0  0  0  0
 10 14  2  0  0  0  0
 10 16  1  0  0  0  0
 11  1  1  0  0  0  0
 12 21  1  0  0  0  0
 13  6  1  0  0  0  0
 15 21  1  6  0  0  0
 15 10  1  0  0  0  0
 16  5  1  0  0  0  0
 17  1  2  0  0  0  0
 17  7  1  0  0  0  0
 18  6  2  0  0  0  0
 18 23  1  0  0  0  0
 19 20  1  0  0  0  0
 19 14  1  0  0  0  0
 22  3  1  0  0  0  0
 22 12  1  0  0  0  0
 23 22  2  0  0  0  0
 24 28  1  0  0  0  0
 24 27  1  0  0  0  0
 25 28  2  0  0  0  0
 26 29  1  0  0  0  0
 29 30  2  0  0  0  0
 29 31  1  0  0  0  0
 30 25  1  0  0  0  0
 31 24  2  0  0  0  0
M  END
>  <MODEL>
1

>  <REMARK>
 VINA RESULT:      -9.5      0.000      0.000
  Name = 
  1 active torsions:
  status: ('A' for Active; 'I' for Inactive)
    1  A    between atoms: C_9  and  C_22
                            x       y       z     vdW  Elec       q    Type
                         _______ _______ _______ _____ _____    ______ ____

>  <TORSDO>
F 1

$$$$
=
 OpenBabel11052422333D

 31 35  0  0  1  0  0  0  0  0999 V2000
  160.9010  205.3880  145.6560 C   0  0  0  0  0  0  0  0  0  0  0  0
  161.3870  204.4260  149.3480 C   0  0  1  0  0  3  0  0  0  0  0  0
  161.1620  202.9180  149.3370 C   0  0  0  0  0  0  0  0  0  0  0  0
  161.6110  209.3900  151.0500 O   0  0  0  0  0  0  0  0  0  0  0  0
  161.3220  208.6560  152.0330 C   0  0  0  0  0  0  0  0  0  0  0  0
  161.4810  200.7500  148.2700 C   0  0  0  0  0  0  0  0  0  0  0  0
  161.1180  205.2030  148.0700 C   0  0  0  0  0  0  0  0  0  0  0  0
  160.8380  206.7790  145.7610 C   0  0  0  0  0  3  0  0  0  0  0  0
  161.5840  202.1420  148.2450 C   0  0  0  0  0  3  0  0  0  0  0  0
  161.0020  206.5820  150.5670 C   0  0  0  0  0  0  0  0  0  0  0  0
  160.8090  204.6240  144.0840 Cl  0  0  0  0  0  0  0  0  0  0  0  0
  160.3080  203.0020  151.7430 C   0  0  0  0  0  2  0  0  0  0  0  0
  161.8690  200.0240  147.1950 F   0  0  0  0  0  0  0  0  0  0  0  0
  161.1170  207.2480  149.4520 N   0  0  0  0  0  0  0  0  0  0  0  0
  160.6630  205.1130  150.5180 C   0  0  2  0  0  3  0  0  0  0  0  0
  161.0330  207.2650  151.8290 N   0  0  0  0  0  2  0  0  0  0  0  0
  161.0530  204.6060  146.8020 C   0  0  0  0  0  3  0  0  0  0  0  0
  160.9870  200.1080  149.4050 C   0  0  0  0  0  3  0  0  0  0  0  0
  161.0530  206.6100  148.1670 C   0  0  0  0  0  0  0  0  0  0  0  0
  160.9170  207.3900  147.0150 C   0  0  0  0  0  3  0  0  0  0  0  0
  160.9570  204.3780  151.8160 C   0  0  0  0  0  2  0  0  0  0  0  0
  160.7190  202.2510  150.5080 C   0  0  0  0  0  0  0  0  0  0  0  0
  160.6110  200.8560  150.5200 C   0  0  0  0  0  3  0  0  0  0  0  0
  161.2450  210.4160  155.9270 C   0  0  0  0  0  0  0  0  0  0  0  0
  161.5220  210.5840  153.5790 C   0  0  0  0  0  3  0  0  0  0  0  0
  160.7480  206.9700  154.5140 C   0  0  0  0  0  1  0  0  0  0  0  0
  161.2280  211.0710  157.2610 C   0  0  0  0  0  1  0  0  0  0  0  0
  161.5000  211.1500  154.8140 N   0  0  0  0  0  0  0  0  0  0  0  0
  161.0160  208.4370  154.5650 C   0  0  0  0  0  0  0  0  0  0  0  0
  161.2830  209.2120  153.4100 C   0  0  0  0  0  0  0  0  0  0  0  0
  161.0000  209.0480  155.8200 C   0  0  0  0  0  3  0  0  0  0  0  0
  1  8  2  0  0  0  0
  1 17  1  0  0  0  0
  2  7  1  6  0  0  0
  2 15  1  0  0  0  0
  3  2  1  0  0  0  0
  3 22  1  0  0  0  0
  4  5  2  0  0  0  0
  5 30  1  0  0  0  0
  6 18  2  0  0  0  0
  7 19  1  0  0  0  0
  8 20  1  0  0  0  0
  9  6  1  0  0  0  0
  9  3  2  0  0  0  0
 10 16  1  0  0  0  0
 11  1  1  0  0  0  0
 12 21  1  0  0  0  0
 13  6  1  0  0  0  0
 14 10  2  0  0  0  0
 15 10  1  0  0  0  0
 15 21  1  1  0  0  0
 16  5  1  0  0  0  0
 17  7  2  0  0  0  0
 18 23  1  0  0  0  0
 19 14  1  0  0  0  0
 20 19  2  0  0  0  0
 22 23  2  0  0  0  0
 22 12  1  0  0  0  0
 24 27  1  0  0  0  0
 25 28  1  0  0  0  0
 26 29  1  0  0  0  0
 28 24  2  0  0  0  0
 29 31  2  0  0  0  0
 30 25  2  0  0  0  0
 30 29  1  0  0  0  0
 31 24  1  0  0  0  0
M  END
>  <MODEL>
2

>  <REMARK>
 VINA RESULT:      -9.2      2.044      4.234
  Name = 
  1 active torsions:
  status: ('A' for Active; 'I' for Inactive)
    1  A    between atoms: C_9  and  C_22
                            x       y       z     vdW  Elec       q    Type
                         _______ _______ _______ _____ _____    ______ ____

>  <TORSDO>
F 1

$$$$
=
 OpenBabel11052422333D

 31 35  0  0  1  0  0  0  0  0999 V2000
  161.3910  208.2460  154.3300 C   0  0  0  0  0  0  0  0  0  0  0  0
  161.0100  207.5720  150.5630 C   0  0  1  0  0  3  0  0  0  0  0  0
  161.1200  206.0530  150.4780 C   0  0  0  0  0  0  0  0  0  0  0  0
  161.2430  212.6400  149.2030 O   0  0  0  0  0  0  0  0  0  0  0  0
  161.5220  211.9520  148.1840 C   0  0  0  0  0  0  0  0  0  0  0  0
  160.5880  203.8510  151.3770 C   0  0  0  0  0  0  0  0  0  0  0  0
  161.2750  208.2390  151.9010 C   0  0  0  0  0  0  0  0  0  0  0  0
  161.5630  209.6320  154.3250 C   0  0  0  0  0  3  0  0  0  0  0  0
  160.5890  205.2420  151.4940 C   0  0  0  0  0  3  0  0  0  0  0  0
  161.6140  209.7670  149.5150 C   0  0  0  0  0  0  0  0  0  0  0  0
  161.3500  207.3740  155.8470 Cl  0  0  0  0  0  0  0  0  0  0  0  0
  162.0910  206.2290  148.1220 C   0  0  0  0  0  2  0  0  0  0  0  0
  160.0940  203.0880  152.3820 F   0  0  0  0  0  0  0  0  0  0  0  0
  161.4970  210.3640  150.6670 N   0  0  0  0  0  0  0  0  0  0  0  0
  161.8380  208.2750  149.4750 C   0  0  2  0  0  3  0  0  0  0  0  0
  161.6950  210.5320  148.3030 N   0  0  0  0  0  2  0  0  0  0  0  0
  161.2350  207.5550  153.1260 C   0  0  0  0  0  3  0  0  0  0  0  0
  161.0850  203.2490  150.2220 C   0  0  0  0  0  3  0  0  0  0  0  0
  161.4500  209.6400  151.9060 C   0  0  0  0  0  0  0  0  0  0  0  0
  161.5910  210.3280  153.1150 C   0  0  0  0  0  3  0  0  0  0  0  0
  161.5520  207.6540  148.1170 C   0  0  0  0  0  2  0  0  0  0  0  0
  161.5670  205.4320  149.2830 C   0  0  0  0  0  0  0  0  0  0  0  0
  161.5690  204.0370  149.1780 C   0  0  0  0  0  3  0  0  0  0  0  0
  162.1180  213.8030  144.3780 C   0  0  0  0  0  0  0  0  0  0  0  0
  162.9570  212.9370  146.4190 C   0  0  0  0  0  3  0  0  0  0  0  0
  159.1640  212.5610  146.3400 C   0  0  0  0  0  1  0  0  0  0  0  0
  162.3730  214.4470  143.0640 C   0  0  0  0  0  1  0  0  0  0  0  0
  163.1540  213.5260  145.2100 N   0  0  0  0  0  0  0  0  0  0  0  0
  160.5800  212.8780  145.9920 C   0  0  0  0  0  0  0  0  0  0  0  0
  161.6680  212.5930  146.8530 C   0  0  0  0  0  0  0  0  0  0  0  0
  160.8150  213.4830  144.7560 C   0  0  0  0  0  3  0  0  0  0  0  0
  1 11  1  0  0  0  0
  2  3  1  1  0  0  0
  2  7  1  0  0  0  0
  3  9  1  0  0  0  0
  5 16  1  0  0  0  0
  5  4  2  0  0  0  0
  6  9  2  0  0  0  0
  6 13  1  0  0  0  0
  7 19  2  0  0  0  0
  7 17  1  0  0  0  0
  8  1  1  0  0  0  0
 10 14  2  0  0  0  0
 12 22  1  0  0  0  0
 14 19  1  0  0  0  0
 15 21  1  6  0  0  0
 15 10  1  0  0  0  0
 15  2  1  0  0  0  0
 16 10  1  0  0  0  0
 17  1  2  0  0  0  0
 18  6  1  0  0  0  0
 19 20  1  0  0  0  0
 20  8  2  0  0  0  0
 21 12  1  0  0  0  0
 22  3  2  0  0  0  0
 23 22  1  0  0  0  0
 23 18  2  0  0  0  0
 24 31  2  0  0  0  0
 24 28  1  0  0  0  0
 25 30  1  0  0  0  0
 27 24  1  0  0  0  0
 28 25  2  0  0  0  0
 29 26  1  0  0  0  0
 29 30  2  0  0  0  0
 30  5  1  0  0  0  0
 31 29  1  0  0  0  0
M  END
>  <MODEL>
3

>  <REMARK>
 VINA RESULT:      -9.2      4.761      7.417
  Name = 
  1 active torsions:
  status: ('A' for Active; 'I' for Inactive)
    1  A    between atoms: C_9  and  C_22
                            x       y       z     vdW  Elec       q    Type
                         _______ _______ _______ _____ _____    ______ ____

>  <TORSDO>
F 1

$$$$
=
 OpenBabel11052422333D

 31 35  0  0  1  0  0  0  0  0999 V2000
  161.2910  200.9980  148.2590 C   0  0  0  0  0  0  0  0  0  0  0  0
  160.7060  204.7920  148.5050 C   0  0  1  0  0  3  0  0  0  0  0  0
  160.8660  205.2530  147.0600 C   0  0  0  0  0  0  0  0  0  0  0  0
  160.6710  204.8720  153.7560 O   0  0  0  0  0  0  0  0  0  0  0  0
  160.9120  206.0420  153.3530 C   0  0  0  0  0  0  0  0  0  0  0  0
  160.4710  204.8980  144.6820 C   0  0  0  0  0  0  0  0  0  0  0  0
  161.0280  203.3450  148.8380 C   0  0  0  0  0  0  0  0  0  0  0  0
  161.4120  200.6710  149.6110 C   0  0  0  0  0  3  0  0  0  0  0  0
  160.4280  204.4420  146.0000 C   0  0  0  0  0  3  0  0  0  0  0  0
  161.1650  205.2960  150.9170 C   0  0  0  0  0  0  0  0  0  0  0  0
  161.3740  199.7420  147.0430 Cl  0  0  0  0  0  0  0  0  0  0  0  0
  161.6860  207.5390  147.8530 C   0  0  0  0  0  2  0  0  0  0  0  0
  160.0670  204.0890  143.6730 F   0  0  0  0  0  0  0  0  0  0  0  0
  161.0960  204.0280  151.2080 N   0  0  0  0  0  0  0  0  0  0  0  0
  161.4400  205.7130  149.4930 C   0  0  2  0  0  3  0  0  0  0  0  0
  161.1440  206.2850  151.9570 N   0  0  0  0  0  2  0  0  0  0  0  0
  161.0870  202.3250  147.8760 C   0  0  0  0  0  3  0  0  0  0  0  0
  160.9180  206.1890  144.4050 C   0  0  0  0  0  3  0  0  0  0  0  0
  161.1520  203.0040  150.2020 C   0  0  0  0  0  0  0  0  0  0  0  0
  161.3400  201.6720  150.5820 C   0  0  0  0  0  3  0  0  0  0  0  0
  161.0950  207.1660  149.2070 C   0  0  0  0  0  2  0  0  0  0  0  0
  161.2620  206.5840  146.7720 C   0  0  0  0  0  0  0  0  0  0  0  0
  161.3090  207.0300  145.4470 C   0  0  0  0  0  3  0  0  0  0  0  0
  161.0000  209.2040  156.2270 C   0  0  0  0  0  0  0  0  0  0  0  0
  160.7370  206.9160  155.6660 C   0  0  0  0  0  3  0  0  0  0  0  0
  161.4430  208.9280  152.5050 C   0  0  0  0  0  1  0  0  0  0  0  0
  161.0210  210.2710  157.2600 C   0  0  0  0  0  1  0  0  0  0  0  0
  160.7640  207.9170  156.5850 N   0  0  0  0  0  0  0  0  0  0  0  0
  161.2010  208.5210  153.9200 C   0  0  0  0  0  0  0  0  0  0  0  0
  160.9540  207.1800  154.3060 C   0  0  0  0  0  0  0  0  0  0  0  0
  161.2210  209.5270  154.8880 C   0  0  0  0  0  3  0  0  0  0  0  0
  1  8  1  0  0  0  0
  2  3  1  6  0  0  0
  2  7  1  0  0  0  0
  2 15  1  0  0  0  0
  5  4  2  0  0  0  0
  5 30  1  0  0  0  0
  6  9  1  0  0  0  0
  7 19  2  0  0  0  0
  8 20  2  0  0  0  0
  9  3  2  0  0  0  0
 10 14  2  0  0  0  0
 10 16  1  0  0  0  0
 11  1  1  0  0  0  0
 12 21  1  0  0  0  0
 13  6  1  0  0  0  0
 15 21  1  1  0  0  0
 15 10  1  0  0  0  0
 16  5  1  0  0  0  0
 17  1  2  0  0  0  0
 17  7  1  0  0  0  0
 18  6  2  0  0  0  0
 18 23  1  0  0  0  0
 19 20  1  0  0  0  0
 19 14  1  0  0  0  0
 22  3  1  0  0  0  0
 22 12  1  0  0  0  0
 23 22  2  0  0  0  0
 24 28  1  0  0  0  0
 24 27  1  0  0  0  0
 25 28  2  0  0  0  0
 26 29  1  0  0  0  0
 29 30  2  0  0  0  0
 29 31  1  0  0  0  0
 30 25  1  0  0  0  0
 31 24  2  0  0  0  0
M  END
>  <MODEL>
4

>  <REMARK>
 VINA RESULT:      -7.4      1.187      1.378
  Name = 
  1 active torsions:
  status: ('A' for Active; 'I' for Inactive)
    1  A    between atoms: C_9  and  C_22
                            x       y       z     vdW  Elec       q    Type
                         _______ _______ _______ _____ _____    ______ ____

>  <TORSDO>
F 1

$$$$
=
 OpenBabel11052422333D

 31 35  0  0  1  0  0  0  0  0999 V2000
  161.7330  211.1150  149.9760 C   0  0  0  0  0  0  0  0  0  0  0  0
  160.8450  207.6550  151.4030 C   0  0  1  0  0  3  0  0  0  0  0  0
  160.8860  207.8890  152.9090 C   0  0  0  0  0  0  0  0  0  0  0  0
  161.0910  205.2110  146.7600 O   0  0  0  0  0  0  0  0  0  0  0  0
  161.2110  204.3400  147.6630 C   0  0  0  0  0  0  0  0  0  0  0  0
  160.3920  209.3010  154.8330 C   0  0  0  0  0  0  0  0  0  0  0  0
  161.3060  208.7770  150.4870 C   0  0  0  0  0  0  0  0  0  0  0  0
  161.9560  210.7890  148.6370 C   0  0  0  0  0  3  0  0  0  0  0  0
  160.4600  209.1130  153.4520 C   0  0  0  0  0  3  0  0  0  0  0  0
  161.3910  206.0920  149.5210 C   0  0  0  0  0  0  0  0  0  0  0  0
  161.8550  212.7790  150.5050 Cl  0  0  0  0  0  0  0  0  0  0  0  0
  161.5520  205.4540  153.2960 C   0  0  0  0  0  2  0  0  0  0  0  0
  160.0030  210.4980  155.3350 F   0  0  0  0  0  0  0  0  0  0  0  0
  161.4460  207.0930  148.6880 N   0  0  0  0  0  0  0  0  0  0  0  0
  161.5520  206.3510  150.9990 C   0  0  2  0  0  3  0  0  0  0  0  0
  161.3440  204.7420  149.0350 N   0  0  0  0  0  2  0  0  0  0  0  0
  161.3980  210.1170  150.8930 C   0  0  0  0  0  3  0  0  0  0  0  0
  160.7130  208.2540  155.6960 C   0  0  0  0  0  3  0  0  0  0  0  0
  161.5330  208.4570  149.1310 C   0  0  0  0  0  0  0  0  0  0  0  0
  161.8530  209.4620  148.2140 C   0  0  0  0  0  3  0  0  0  0  0  0
  161.0700  205.2040  151.8720 C   0  0  0  0  0  2  0  0  0  0  0  0
  161.1510  206.8140  153.7950 C   0  0  0  0  0  0  0  0  0  0  0  0
  161.0880  207.0140  155.1780 C   0  0  0  0  0  3  0  0  0  0  0  0
  161.2050  200.2200  146.5260 C   0  0  0  0  0  0  0  0  0  0  0  0
  161.2080  202.5260  145.9740 C   0  0  0  0  0  3  0  0  0  0  0  0
  161.2070  202.1240  149.7660 C   0  0  0  0  0  1  0  0  0  0  0  0
  161.2030  198.8010  146.0840 C   0  0  0  0  0  1  0  0  0  0  0  0
  161.2060  201.2170  145.6050 N   0  0  0  0  0  0  0  0  0  0  0  0
  161.2080  201.8600  148.2960 C   0  0  0  0  0  0  0  0  0  0  0  0
  161.2080  202.8930  147.3280 C   0  0  0  0  0  0  0  0  0  0  0  0
  161.2060  200.5250  147.8860 C   0  0  0  0  0  3  0  0  0  0  0  0
  1 11  1  0  0  0  0
  1 17  1  0  0  0  0
  2  7  1  6  0  0  0
  2  3  1  0  0  0  0
  3  9  2  0  0  0  0
  3 22  1  0  0  0  0
  4  5  2  0  0  0  0
  5 16  1  0  0  0  0
  6 13  1  0  0  0  0
  6 18  2  0  0  0  0
  7 17  2  0  0  0  0
  8  1  2  0  0  0  0
  9  6  1  0  0  0  0
 10 15  1  0  0  0  0
 12 22  1  0  0  0  0
 14 19  1  0  0  0  0
 14 10  2  0  0  0  0
 15  2  1  0  0  0  0
 15 21  1  1  0  0  0
 16 10  1  0  0  0  0
 19  7  1  0  0  0  0
 20  8  1  0  0  0  0
 20 19  2  0  0  0  0
 21 12  1  0  0  0  0
 22 23  2  0  0  0  0
 23 18  1  0  0  0  0
 24 31  1  0  0  0  0
 25 30  2  0  0  0  0
 27 24  1  0  0  0  0
 28 25  1  0  0  0  0
 28 24  2  0  0  0  0
 29 26  1  0  0  0  0
 30  5  1  0  0  0  0
 30 29  1  0  0  0  0
 31 29  2  0  0  0  0
M  END
>  <MODEL>
5

>  <REMARK>
 VINA RESULT:      -7.1      4.249      9.147
  Name = 
  1 active torsions:
  status: ('A' for Active; 'I' for Inactive)
    1  A    between atoms: C_9  and  C_22
                            x       y       z     vdW  Elec       q    Type
                         _______ _______ _______ _____ _____    ______ ____

>  <TORSDO>
F 1

$$$$
=
 OpenBabel11052422333D

 31 35  0  0  1  0  0  0  0  0999 V2000
  161.7950  212.6140  149.3860 C   0  0  0  0  0  0  0  0  0  0  0  0
  160.8570  209.4070  151.2900 C   0  0  1  0  0  3  0  0  0  0  0  0
  160.8770  209.8590  152.7470 C   0  0  0  0  0  0  0  0  0  0  0  0
  161.1540  206.3060  147.0610 O   0  0  0  0  0  0  0  0  0  0  0  0
  161.2520  205.5760  148.0840 C   0  0  0  0  0  0  0  0  0  0  0  0
  160.3650  211.5410  154.4340 C   0  0  0  0  0  0  0  0  0  0  0  0
  161.3400  210.3790  150.2270 C   0  0  0  0  0  0  0  0  0  0  0  0
  162.0360  212.0940  148.1130 C   0  0  0  0  0  3  0  0  0  0  0  0
  160.4530  211.1520  153.0970 C   0  0  0  0  0  3  0  0  0  0  0  0
  161.4190  207.5810  149.6670 C   0  0  0  0  0  0  0  0  0  0  0  0
  161.9230  214.3370  149.6670 Cl  0  0  0  0  0  0  0  0  0  0  0  0
  161.5160  207.5030  153.4970 C   0  0  0  0  0  2  0  0  0  0  0  0
  159.9790  212.8010  154.7480 F   0  0  0  0  0  0  0  0  0  0  0  0
  161.4940  208.4490  148.6980 N   0  0  0  0  0  0  0  0  0  0  0  0
  161.5590  208.0530  151.0940 C   0  0  2  0  0  3  0  0  0  0  0  0
  161.3680  206.1750  149.3840 N   0  0  0  0  0  2  0  0  0  0  0  0
  161.4380  211.7630  150.4340 C   0  0  0  0  0  3  0  0  0  0  0  0
  160.6640  210.6300  155.4470 C   0  0  0  0  0  3  0  0  0  0  0  0
  161.5860  209.8620  148.9370 C   0  0  0  0  0  0  0  0  0  0  0  0
  161.9290  210.7190  147.8880 C   0  0  0  0  0  3  0  0  0  0  0  0
  161.0540  207.0500  152.1180 C   0  0  0  0  0  2  0  0  0  0  0  0
  161.1200  208.9240  153.7850 C   0  0  0  0  0  0  0  0  0  0  0  0
  161.0370  209.3250  155.1220 C   0  0  0  0  0  3  0  0  0  0  0  0
  161.2580  201.3330  147.5660 C   0  0  0  0  0  0  0  0  0  0  0  0
  161.4510  203.5310  146.6970 C   0  0  0  0  0  3  0  0  0  0  0  0
  160.8040  203.6980  150.4510 C   0  0  0  0  0  1  0  0  0  0  0  0
  161.2680  199.8650  147.3390 C   0  0  0  0  0  1  0  0  0  0  0  0
  161.4540  202.1820  146.5260 N   0  0  0  0  0  0  0  0  0  0  0  0
  161.0370  203.2190  149.0570 C   0  0  0  0  0  0  0  0  0  0  0  0
  161.2430  204.0960  147.9650 C   0  0  0  0  0  0  0  0  0  0  0  0
  161.0450  201.8380  148.8490 C   0  0  0  0  0  3  0  0  0  0  0  0
  1 11  1  0  0  0  0
  1 17  1  0  0  0  0
  2  7  1  6  0  0  0
  2  3  1  0  0  0  0
  3  9  2  0  0  0  0
  3 22  1  0  0  0  0
  4  5  2  0  0  0  0
  5 16  1  0  0  0  0
  6 13  1  0  0  0  0
  6 18  2  0  0  0  0
  7 17  2  0  0  0  0
  8  1  2  0  0  0  0
  9  6  1  0  0  0  0
 10 15  1  0  0  0  0
 12 22  1  0  0  0  0
 14 19  1  0  0  0  0
 14 10  2  0  0  0  0
 15  2  1  0  0  0  0
 15 21  1  1  0  0  0
 16 10  1  0  0  0  0
 19  7  1  0  0  0  0
 20  8  1  0  0  0  0
 20 19  2  0  0  0  0
 21 12  1  0  0  0  0
 22 23  2  0  0  0  0
 23 18  1  0  0  0  0
 24 31  1  0  0  0  0
 25 30  2  0  0  0  0
 27 24  1  0  0  0  0
 28 25  1  0  0  0  0
 28 24  2  0  0  0  0
 29 26  1  0  0  0  0
 30  5  1  0  0  0  0
 30 29  1  0  0  0  0
 31 29  2  0  0  0  0
M  END
>  <MODEL>
6

>  <REMARK>
 VINA RESULT:      -6.8      4.430      9.152
  Name = 
  1 active torsions:
  status: ('A' for Active; 'I' for Inactive)
    1  A    between atoms: C_9  and  C_22
                            x       y       z     vdW  Elec       q    Type
                         _______ _______ _______ _____ _____    ______ ____

>  <TORSDO>
F 1

$$$$
