=
 OpenBabel11062408483D

 55 59  0  0  1  0  0  0  0  0999 V2000
  160.0630  213.2800  150.6310 C   0  0  1  0  0  3  0  0  0  0  0  0
  160.7340  209.3670  151.9720 C   0  0  0  0  0  2  0  0  0  0  0  0
  156.9100  214.1460  156.3090 C   0  0  0  0  0  2  0  0  0  0  0  0
  161.7970  210.2760  151.3770 C   0  0  0  0  0  2  0  0  0  0  0  0
  161.3460  210.8680  154.9370 O   0  0  0  0  0  0  0  0  0  0  0  0
  159.0480  210.4500  154.4580 C   0  0  2  0  0  3  0  0  0  0  0  0
  158.4040  209.3190  154.9710 O   0  0  0  0  0  1  0  0  0  0  0  0
  161.2760  212.4830  148.6440 C   0  0  0  0  0  0  0  0  0  0  0  0
  160.5330  210.1830  154.3290 C   0  0  0  0  0  0  0  0  0  0  0  0
  161.6240  210.3620  149.8680 C   0  0  1  0  0  3  0  0  0  0  0  0
  160.0340  214.4350  151.6160 C   0  0  0  0  0  2  0  0  0  0  0  0
  162.2910  211.6160  149.3220 C   0  0  0  0  0  2  0  0  0  0  0  0
  156.0440  213.8790  153.9100 C   0  0  2  0  0  3  0  0  0  0  0  0
  159.3040  213.2450  153.5280 C   0  0  0  0  0  3  0  0  0  0  0  0
  158.2550  214.0680  155.5950 C   0  0  0  0  0  2  0  0  0  0  0  0
  158.7490  211.6520  155.3560 C   0  0  0  0  0  2  0  0  0  0  0  0
  156.9220  212.6250  153.9490 C   0  0  0  0  0  2  0  0  0  0  0  0
  159.2240  213.6280  149.4250 C   0  0  0  0  0  2  0  0  0  0  0  0
  160.7390  213.7000  149.3400 C   0  0  1  0  0  3  0  0  0  0  0  0
  161.0510  209.0880  153.4330 C   0  0  1  0  0  3  0  0  0  0  0  0
  155.7740  214.4250  155.3240 C   0  0  0  0  0  2  0  0  0  0  0  0
  159.0770  214.1600  152.6580 N   0  0  0  0  0  0  0  0  0  0  0  0
  158.3000  212.9050  154.5930 C   0  0  2  0  0  0  0  0  0  0  0  0
  160.9130  212.2130  147.5080 O   0  0  0  0  0  0  0  0  0  0  0  0
  154.7720  213.6480  153.1060 C   0  0  0  0  0  3  0  0  0  0  0  0
  154.9970  213.9620  151.6450 C   0  0  0  0  0  1  0  0  0  0  0  0
  153.5990  214.4510  153.6380 C   0  0  0  0  0  1  0  0  0  0  0  0
  160.5210  207.8410  153.8090 O   0  0  0  0  0  0  0  0  0  0  0  0
  162.3310  208.2000  155.1820 F   0  0  0  0  0  0  0  0  0  0  0  0
  161.6980  206.0740  154.7030 F   0  0  0  0  0  0  0  0  0  0  0  0
  160.3480  207.3650  156.1260 C   0  0  0  0  0  1  0  0  0  0  0  0
  161.2530  207.3690  154.9160 C   0  0  0  0  0  0  0  0  0  0  0  0
  162.0950  209.0860  149.1550 C   0  0  0  0  0  2  0  0  0  0  0  0
  161.1510  207.8960  149.3300 C   0  0  0  0  0  2  0  0  0  0  0  0
  162.8740  207.1260  150.8200 O   0  0  0  0  0  1  0  0  0  0  0  0
  161.8530  206.7030  149.9660 C   0  0  1  0  0  3  0  0  0  0  0  0
  160.8590  205.8040  150.6990 C   0  0  0  0  0  2  0  0  0  0  0  0
  160.6550  204.4380  150.0390 C   0  0  2  0  0  3  0  0  0  0  0  0
  162.4890  201.9160  152.1000 N   0  0  0  0  0  1  0  0  0  0  0  0
  161.6070  203.4640  150.5720 N   0  0  0  0  0  0  0  0  0  0  0  0
  161.4820  202.8350  151.7000 C   0  0  0  0  0  0  0  0  0  0  0  0
  160.3490  203.0430  152.5470 N   0  0  0  0  0  1  0  0  0  0  0  0
  160.7710  204.5300  148.6450 O   0  0  0  0  0  0  0  0  0  0  0  0
  162.1400  204.6360  145.8850 C   0  0  2  0  0  3  0  0  0  0  0  0
  161.8690  203.7380  148.2920 C   0  0  1  0  0  3  0  0  0  0  0  0
  159.3080  203.0710  144.1620 C   0  0  0  0  0  2  0  0  0  0  0  0
  161.5740  201.3060  148.3590 C   0  0  0  0  0  2  0  0  0  0  0  0
  161.4110  202.4410  147.6790 C   0  0  0  0  0  0  0  0  0  0  0  0
  161.8790  206.1020  145.5890 C   0  0  0  0  0  1  0  0  0  0  0  0
  159.4180  201.6600  144.7580 C   0  0  0  0  0  2  0  0  0  0  0  0
  159.7200  201.7510  146.1310 O   0  0  0  0  0  0  0  0  0  0  0  0
  160.8500  203.8280  145.6660 C   0  0  2  0  0  3  0  0  0  0  0  0
  160.9680  202.4000  146.2470 C   0  0  1  0  0  3  0  0  0  0  0  0
  160.5400  203.7500  144.2890 O   0  0  0  0  0  0  0  0  0  0  0  0
  162.7460  204.4980  147.2940 C   0  0  0  0  0  2  0  0  0  0  0  0
  1 18  1  6  0  0  0
  1 11  1  0  0  0  0
  2 20  1  0  0  0  0
  4  2  1  0  0  0  0
  6  7  1  1  0  0  0
  6 16  1  0  0  0  0
  8 12  1  0  0  0  0
  8 19  1  0  0  0  0
  9  6  1  0  0  0  0
  9  5  2  0  0  0  0
 10 33  1  6  0  0  0
 10  4  1  0  0  0  0
 11 22  1  0  0  0  0
 12 10  1  0  0  0  0
 13 25  1  1  0  0  0
 13 17  1  0  0  0  0
 13 21  1  0  0  0  0
 15  3  1  0  0  0  0
 17 23  1  0  0  0  0
 19 18  1  6  0  0  0
 19  1  1  0  0  0  0
 20 28  1  1  0  0  0
 20  9  1  0  0  0  0
 21  3  1  0  0  0  0
 22 14  2  0  0  0  0
 23 14  1  6  0  0  0
 23 16  1  0  0  0  0
 23 15  1  0  0  0  0
 24  8  2  0  0  0  0
 25 27  1  0  0  0  0
 26 25  1  0  0  0  0
 28 32  1  0  0  0  0
 30 32  1  0  0  0  0
 32 29  1  0  0  0  0
 32 31  1  0  0  0  0
 33 34  1  0  0  0  0
 34 36  1  0  0  0  0
 36 37  1  0  0  0  0
 36 35  1  1  0  0  0
 38 40  1  0  0  0  0
 38 37  1  1  0  0  0
 40 41  2  0  0  0  0
 41 39  1  0  0  0  0
 41 42  1  0  0  0  0
 43 38  1  0  0  0  0
 44 49  1  1  0  0  0
 44 55  1  0  0  0  0
 45 43  1  6  0  0  0
 46 54  1  0  0  0  0
 46 50  1  0  0  0  0
 48 45  1  0  0  0  0
 48 47  2  0  0  0  0
 50 51  1  0  0  0  0
 52 54  1  6  0  0  0
 52 44  1  0  0  0  0
 52 53  1  0  0  0  0
 53 51  1  1  0  0  0
 53 48  1  0  0  0  0
 55 45  1  0  0  0  0
M  END
>  <MODEL>
1

>  <REMARK>
 VINA RESULT:      -5.3      0.000      0.000
  Name = 
  11 active torsions:
  status: ('A' for Active; 'I' for Inactive)
    1  A    between atoms: C_6  and  O_46
    2  A    between atoms: N_8  and  C_22
    3  A    between atoms: C_10  and  C_32
    4  A    between atoms: O_19  and  C_40
    5  A    between atoms: O_19  and  C_45
    6  A    between atoms: C_22  and  C_35
    7  A    between atoms: C_22  and  O_46
    8  A    between atoms: C_27  and  C_54
    9  A    between atoms: C_35  and  C_43
   10  A    between atoms: C_43  and  C_51
   11  A    between atoms: C_51  and  C_54
                            x       y       z     vdW  Elec       q    Type
                         _______ _______ _______ _____ _____    ______ ____

>  <TORSDO>
F 11

$$$$
=
 OpenBabel11062408483D

 55 59  0  0  1  0  0  0  0  0999 V2000
  160.2860  213.1120  150.1300 C   0  0  1  0  0  3  0  0  0  0  0  0
  161.1280  209.2990  151.6500 C   0  0  0  0  0  2  0  0  0  0  0  0
  157.4750  214.2550  155.9370 C   0  0  0  0  0  2  0  0  0  0  0  0
  162.1310  210.1910  150.9370 C   0  0  0  0  0  2  0  0  0  0  0  0
  161.8890  210.9850  154.4780 O   0  0  0  0  0  0  0  0  0  0  0  0
  159.5760  210.4960  154.1710 C   0  0  2  0  0  3  0  0  0  0  0  0
  158.9910  209.3860  154.7890 O   0  0  0  0  0  1  0  0  0  0  0  0
  161.3900  212.2220  148.1190 C   0  0  0  0  0  0  0  0  0  0  0  0
  161.0560  210.2500  153.9630 C   0  0  0  0  0  0  0  0  0  0  0  0
  161.8620  210.1840  149.4400 C   0  0  1  0  0  3  0  0  0  0  0  0
  160.2930  214.3230  151.0460 C   0  0  0  0  0  2  0  0  0  0  0  0
  162.4650  211.4160  148.7800 C   0  0  0  0  0  2  0  0  0  0  0  0
  156.4670  213.8300  153.6180 C   0  0  2  0  0  3  0  0  0  0  0  0
  159.7100  213.2350  153.0660 C   0  0  0  0  0  3  0  0  0  0  0  0
  158.7740  214.1590  155.1450 C   0  0  0  0  0  2  0  0  0  0  0  0
  159.3070  211.7430  155.0160 C   0  0  0  0  0  2  0  0  0  0  0  0
  157.3740  212.5970  153.6740 C   0  0  0  0  0  2  0  0  0  0  0  0
  159.3660  213.3720  148.9620 C   0  0  0  0  0  2  0  0  0  0  0  0
  160.8710  213.4670  148.7760 C   0  0  1  0  0  3  0  0  0  0  0  0
  161.5410  209.1130  153.1020 C   0  0  1  0  0  3  0  0  0  0  0  0
  156.2740  214.4530  155.0110 C   0  0  0  0  0  2  0  0  0  0  0  0
  159.4090  214.0930  152.1610 N   0  0  0  0  0  0  0  0  0  0  0  0
  158.7830  212.9400  154.2100 C   0  0  2  0  0  0  0  0  0  0  0  0
  160.9630  211.8780  147.0260 O   0  0  0  0  0  0  0  0  0  0  0  0
  155.1530  213.5270  152.9110 C   0  0  0  0  0  3  0  0  0  0  0  0
  155.2920  213.7140  151.4180 C   0  0  0  0  0  1  0  0  0  0  0  0
  154.0060  214.3710  153.4390 C   0  0  0  0  0  1  0  0  0  0  0  0
  161.0640  207.8810  153.5820 O   0  0  0  0  0  0  0  0  0  0  0  0
  162.5770  207.2040  151.9890 F   0  0  0  0  0  0  0  0  0  0  0  0
  160.3790  206.7090  151.7210 F   0  0  0  0  0  0  0  0  0  0  0  0
  161.6020  205.5800  153.3780 C   0  0  0  0  0  1  0  0  0  0  0  0
  161.3980  206.8850  152.6440 C   0  0  0  0  0  0  0  0  0  0  0  0
  162.3160  208.8770  148.7730 C   0  0  0  0  0  2  0  0  0  0  0  0
  161.1680  207.9230  148.4390 C   0  0  0  0  0  2  0  0  0  0  0  0
  161.1590  205.7920  149.5510 O   0  0  0  0  0  1  0  0  0  0  0  0
  161.6250  206.4700  148.4230 C   0  0  1  0  0  3  0  0  0  0  0  0
  161.1870  205.7680  147.1390 C   0  0  0  0  0  2  0  0  0  0  0  0
  162.2830  204.9150  146.4940 C   0  0  2  0  0  3  0  0  0  0  0  0
  161.5400  205.8440  142.9500 N   0  0  0  0  0  1  0  0  0  0  0  0
  162.3160  205.1310  145.0480 N   0  0  0  0  0  0  0  0  0  0  0  0
  161.3800  205.7040  144.3550 C   0  0  0  0  0  0  0  0  0  0  0  0
  160.1930  206.2030  144.9760 N   0  0  0  0  0  1  0  0  0  0  0  0
  162.1010  203.5560  146.7860 O   0  0  0  0  0  0  0  0  0  0  0  0
  160.7960  201.3970  148.5590 C   0  0  2  0  0  3  0  0  0  0  0  0
  160.7200  203.3580  146.8780 C   0  0  1  0  0  3  0  0  0  0  0  0
  161.9680  198.6330  146.4550 C   0  0  0  0  0  2  0  0  0  0  0  0
  159.5240  202.7810  144.8160 C   0  0  0  0  0  2  0  0  0  0  0  0
  160.2590  202.3620  145.8470 C   0  0  0  0  0  0  0  0  0  0  0  0
  161.8430  201.3830  149.6580 C   0  0  0  0  0  1  0  0  0  0  0  0
  161.1050  198.8980  145.2130 C   0  0  0  0  0  2  0  0  0  0  0  0
  161.0520  200.2830  144.9620 O   0  0  0  0  0  0  0  0  0  0  0  0
  161.3290  200.6440  147.3280 C   0  0  2  0  0  3  0  0  0  0  0  0
  160.4480  200.8920  146.0830 C   0  0  1  0  0  3  0  0  0  0  0  0
  161.3960  199.2550  147.5870 O   0  0  0  0  0  0  0  0  0  0  0  0
  160.3680  202.8500  148.2780 C   0  0  0  0  0  2  0  0  0  0  0  0
  1 18  1  6  0  0  0
  1 11  1  0  0  0  0
  2 20  1  0  0  0  0
  4  2  1  0  0  0  0
  6  7  1  1  0  0  0
  6 16  1  0  0  0  0
  8 19  1  0  0  0  0
  8 12  1  0  0  0  0
  9  6  1  0  0  0  0
  9  5  2  0  0  0  0
 10 33  1  6  0  0  0
 10  4  1  0  0  0  0
 11 22  1  0  0  0  0
 12 10  1  0  0  0  0
 13 25  1  1  0  0  0
 13 17  1  0  0  0  0
 13 21  1  0  0  0  0
 15  3  1  0  0  0  0
 17 23  1  0  0  0  0
 19 18  1  6  0  0  0
 19  1  1  0  0  0  0
 20 28  1  1  0  0  0
 20  9  1  0  0  0  0
 21  3  1  0  0  0  0
 22 14  2  0  0  0  0
 23 14  1  6  0  0  0
 23 16  1  0  0  0  0
 23 15  1  0  0  0  0
 24  8  2  0  0  0  0
 25 27  1  0  0  0  0
 26 25  1  0  0  0  0
 29 32  1  0  0  0  0
 30 32  1  0  0  0  0
 32 31  1  0  0  0  0
 32 28  1  0  0  0  0
 34 33  1  0  0  0  0
 36 34  1  0  0  0  0
 36 35  1  1  0  0  0
 37 36  1  0  0  0  0
 38 43  1  0  0  0  0
 38 37  1  6  0  0  0
 39 41  1  0  0  0  0
 40 38  1  0  0  0  0
 41 42  1  0  0  0  0
 41 40  2  0  0  0  0
 44 49  1  1  0  0  0
 45 43  1  1  0  0  0
 45 55  1  0  0  0  0
 46 54  1  0  0  0  0
 47 48  2  0  0  0  0
 48 53  1  0  0  0  0
 48 45  1  0  0  0  0
 50 46  1  0  0  0  0
 51 50  1  0  0  0  0
 52 54  1  1  0  0  0
 52 44  1  0  0  0  0
 53 51  1  6  0  0  0
 53 52  1  0  0  0  0
 55 44  1  0  0  0  0
M  END
>  <MODEL>
2

>  <REMARK>
 VINA RESULT:      -4.5      2.188      3.155
  Name = 
  11 active torsions:
  status: ('A' for Active; 'I' for Inactive)
    1  A    between atoms: C_6  and  O_46
    2  A    between atoms: N_8  and  C_22
    3  A    between atoms: C_10  and  C_32
    4  A    between atoms: O_19  and  C_40
    5  A    between atoms: O_19  and  C_45
    6  A    between atoms: C_22  and  C_35
    7  A    between atoms: C_22  and  O_46
    8  A    between atoms: C_27  and  C_54
    9  A    between atoms: C_35  and  C_43
   10  A    between atoms: C_43  and  C_51
   11  A    between atoms: C_51  and  C_54
                            x       y       z     vdW  Elec       q    Type
                         _______ _______ _______ _____ _____    ______ ____

>  <TORSDO>
F 11

$$$$
=
 OpenBabel11062408483D

 55 59  0  0  1  0  0  0  0  0999 V2000
  160.0180  213.1560  150.9650 C   0  0  1  0  0  3  0  0  0  0  0  0
  161.0610  209.4600  152.6400 C   0  0  0  0  0  2  0  0  0  0  0  0
  157.0890  214.3610  156.7010 C   0  0  0  0  0  2  0  0  0  0  0  0
  162.0190  210.3800  151.9000 C   0  0  0  0  0  2  0  0  0  0  0  0
  161.6970  211.2960  155.4050 O   0  0  0  0  0  0  0  0  0  0  0  0
  159.4190  210.6630  155.1010 C   0  0  2  0  0  3  0  0  0  0  0  0
  158.8920  209.5460  155.7570 O   0  0  0  0  0  1  0  0  0  0  0  0
  161.1910  212.2540  148.9990 C   0  0  0  0  0  0  0  0  0  0  0  0
  160.9120  210.4940  154.9140 C   0  0  0  0  0  0  0  0  0  0  0  0
  161.7650  210.2990  150.4030 C   0  0  1  0  0  3  0  0  0  0  0  0
  159.9460  214.4000  151.8320 C   0  0  0  0  0  2  0  0  0  0  0  0
  162.3040  211.5370  149.7000 C   0  0  0  0  0  2  0  0  0  0  0  0
  156.1300  213.7880  154.3920 C   0  0  2  0  0  3  0  0  0  0  0  0
  159.4070  213.3600  153.8890 C   0  0  0  0  0  3  0  0  0  0  0  0
  158.3990  214.3090  155.9230 C   0  0  0  0  0  2  0  0  0  0  0  0
  159.0710  211.9240  155.8930 C   0  0  0  0  0  2  0  0  0  0  0  0
  157.1060  212.6130  154.5040 C   0  0  0  0  0  2  0  0  0  0  0  0
  159.0960  213.3170  149.7800 C   0  0  0  0  0  2  0  0  0  0  0  0
  160.5950  213.4910  149.6020 C   0  0  1  0  0  3  0  0  0  0  0  0
  161.4700  209.3550  154.1010 C   0  0  1  0  0  3  0  0  0  0  0  0
  155.8880  214.4530  155.7590 C   0  0  0  0  0  2  0  0  0  0  0  0
  159.0660  214.1630  152.9490 N   0  0  0  0  0  0  0  0  0  0  0  0
  158.4870  213.0570  155.0370 C   0  0  2  0  0  0  0  0  0  0  0  0
  160.7950  211.8430  147.9170 O   0  0  0  0  0  0  0  0  0  0  0  0
  154.8420  213.3830  153.6870 C   0  0  0  0  0  3  0  0  0  0  0  0
  155.0170  213.4210  152.1870 C   0  0  0  0  0  1  0  0  0  0  0  0
  153.6640  214.2480  154.0980 C   0  0  0  0  0  1  0  0  0  0  0  0
  161.0590  208.1170  154.6260 O   0  0  0  0  0  0  0  0  0  0  0  0
  162.3670  207.1190  153.0200 F   0  0  0  0  0  0  0  0  0  0  0  0
  160.1580  207.4420  152.6170 F   0  0  0  0  0  0  0  0  0  0  0  0
  160.7990  205.8040  154.1730 C   0  0  0  0  0  1  0  0  0  0  0  0
  161.1050  207.1640  153.5900 C   0  0  0  0  0  0  0  0  0  0  0  0
  162.3000  208.9950  149.7920 C   0  0  0  0  0  2  0  0  0  0  0  0
  161.8110  208.7350  148.3660 C   0  0  0  0  0  2  0  0  0  0  0  0
  163.6860  207.2330  148.4880 O   0  0  0  0  0  1  0  0  0  0  0  0
  162.6940  207.7290  147.6390 C   0  0  1  0  0  3  0  0  0  0  0  0
  161.8610  206.5940  147.0440 C   0  0  0  0  0  2  0  0  0  0  0  0
  162.6950  205.4210  146.5230 C   0  0  2  0  0  3  0  0  0  0  0  0
  161.2460  205.3160  143.0780 N   0  0  0  0  0  1  0  0  0  0  0  0
  162.4280  205.1940  145.1020 N   0  0  0  0  0  0  0  0  0  0  0  0
  161.3810  205.6140  144.4610 C   0  0  0  0  0  0  0  0  0  0  0  0
  160.3640  206.3760  145.1140 N   0  0  0  0  0  1  0  0  0  0  0  0
  162.4470  204.2570  147.2630 O   0  0  0  0  0  0  0  0  0  0  0  0
  160.4420  204.5620  149.5850 C   0  0  2  0  0  3  0  0  0  0  0  0
  161.0770  204.0030  147.1440 C   0  0  1  0  0  3  0  0  0  0  0  0
  161.7440  201.6540  151.3980 C   0  0  0  0  0  2  0  0  0  0  0  0
  160.4030  201.7380  146.4930 C   0  0  0  0  0  2  0  0  0  0  0  0
  160.7750  202.5640  147.4710 C   0  0  0  0  0  0  0  0  0  0  0  0
  161.1490  205.6920  150.3120 C   0  0  0  0  0  1  0  0  0  0  0  0
  161.2840  200.5490  150.4360 C   0  0  0  0  0  2  0  0  0  0  0  0
  161.4870  200.9680  149.1060 O   0  0  0  0  0  0  0  0  0  0  0  0
  161.1740  203.2370  149.8540 C   0  0  2  0  0  3  0  0  0  0  0  0
  160.6960  202.1180  148.9010 C   0  0  1  0  0  3  0  0  0  0  0  0
  160.9830  202.8260  151.1930 O   0  0  0  0  0  0  0  0  0  0  0  0
  160.3030  204.9210  148.0940 C   0  0  0  0  0  2  0  0  0  0  0  0
  1 18  1  6  0  0  0
  1 11  1  0  0  0  0
  2 20  1  0  0  0  0
  4  2  1  0  0  0  0
  6  7  1  1  0  0  0
  6 16  1  0  0  0  0
  8 19  1  0  0  0  0
  8 12  1  0  0  0  0
  9  6  1  0  0  0  0
  9  5  2  0  0  0  0
 10 33  1  6  0  0  0
 10  4  1  0  0  0  0
 11 22  1  0  0  0  0
 12 10  1  0  0  0  0
 13 25  1  1  0  0  0
 13 17  1  0  0  0  0
 13 21  1  0  0  0  0
 15  3  1  0  0  0  0
 17 23  1  0  0  0  0
 19 18  1  6  0  0  0
 19  1  1  0  0  0  0
 20 28  1  1  0  0  0
 20  9  1  0  0  0  0
 21  3  1  0  0  0  0
 22 14  2  0  0  0  0
 23 14  1  6  0  0  0
 23 16  1  0  0  0  0
 23 15  1  0  0  0  0
 24  8  2  0  0  0  0
 25 27  1  0  0  0  0
 26 25  1  0  0  0  0
 29 32  1  0  0  0  0
 30 32  1  0  0  0  0
 32 31  1  0  0  0  0
 32 28  1  0  0  0  0
 34 33  1  0  0  0  0
 36 34  1  0  0  0  0
 36 35  1  1  0  0  0
 37 36  1  0  0  0  0
 38 37  1  1  0  0  0
 38 43  1  0  0  0  0
 39 41  1  0  0  0  0
 40 38  1  0  0  0  0
 41 40  2  0  0  0  0
 41 42  1  0  0  0  0
 44 52  1  0  0  0  0
 44 49  1  1  0  0  0
 45 43  1  1  0  0  0
 45 48  1  0  0  0  0
 45 55  1  0  0  0  0
 47 48  2  0  0  0  0
 50 46  1  0  0  0  0
 51 50  1  0  0  0  0
 52 54  1  1  0  0  0
 53 48  1  6  0  0  0
 53 51  1  0  0  0  0
 53 52  1  0  0  0  0
 54 46  1  0  0  0  0
 55 44  1  0  0  0  0
M  END
>  <MODEL>
3

>  <REMARK>
 VINA RESULT:      -2.7      2.145      3.242
  Name = 
  11 active torsions:
  status: ('A' for Active; 'I' for Inactive)
    1  A    between atoms: C_6  and  O_46
    2  A    between atoms: N_8  and  C_22
    3  A    between atoms: C_10  and  C_32
    4  A    between atoms: O_19  and  C_40
    5  A    between atoms: O_19  and  C_45
    6  A    between atoms: C_22  and  C_35
    7  A    between atoms: C_22  and  O_46
    8  A    between atoms: C_27  and  C_54
    9  A    between atoms: C_35  and  C_43
   10  A    between atoms: C_43  and  C_51
   11  A    between atoms: C_51  and  C_54
                            x       y       z     vdW  Elec       q    Type
                         _______ _______ _______ _____ _____    ______ ____

>  <TORSDO>
F 11

$$$$
