=
 OpenBabel11052422413D

 31 34  0  0  1  0  0  0  0  0999 V2000
  160.6760  201.8000  149.1640 C   0  0  0  0  0  0  0  0  0  0  0  0
  161.8040  205.3960  148.6310 C   0  0  2  0  0  3  0  0  0  0  0  0
  161.6620  205.7220  147.1430 C   0  0  1  0  0  3  0  0  0  0  0  0
  161.2840  204.1420  149.2430 C   0  0  0  0  0  0  0  0  0  0  0  0
  160.5130  201.7960  150.5540 C   0  0  0  0  0  3  0  0  0  0  0  0
  161.7930  206.5910  150.7050 N   0  0  0  0  0  0  0  0  0  0  0  0
  160.4620  200.6680  148.4540 F   0  0  0  0  0  0  0  0  0  0  0  0
  161.5480  207.6570  148.4300 C   0  0  0  0  0  0  0  0  0  0  0  0
  161.3040  205.4150  151.4640 C   0  0  0  0  0  2  0  0  0  0  0  0
  161.1950  206.5640  149.3670 C   0  0  1  0  0  3  0  0  0  0  0  0
  161.0700  202.9700  148.5100 C   0  0  0  0  0  3  0  0  0  0  0  0
  161.1390  204.1350  150.6470 C   0  0  0  0  0  0  0  0  0  0  0  0
  160.7400  202.9610  151.2920 C   0  0  0  0  0  3  0  0  0  0  0  0
  161.5570  208.8830  148.7160 O   0  0  0  0  0  0  0  0  0  0  0  0
  161.7560  207.1760  147.1100 N   0  0  0  0  0  2  0  0  0  0  0  0
  162.8210  205.1390  146.3440 C   0  0  0  0  0  2  0  0  0  0  0  0
  162.3520  204.1010  145.3380 C   0  0  0  0  0  2  0  0  0  0  0  0
  161.2240  204.6250  144.5160 C   0  0  0  0  0  0  0  0  0  0  0  0
  161.4060  205.7520  143.7270 O   0  0  0  0  0  0  0  0  0  0  0  0
  160.1150  204.0290  144.5150 O   0  0  0  0  0  1  0  0  0  0  0  0
  161.2820  207.7540  151.4190 C   0  0  0  0  0  2  0  0  0  0  0  0
  162.1240  206.7190  153.3590 O   0  0  0  0  0  0  0  0  0  0  0  0
  161.3110  207.5010  152.8910 C   0  0  0  0  0  0  0  0  0  0  0  0
  162.1800  209.8560  155.2000 C   0  0  2  0  0  3  0  0  0  0  0  0
  160.1380  209.6750  153.3680 C   0  0  0  0  0  2  0  0  0  0  0  0
  159.9800  206.9630  155.8860 F   0  0  0  0  0  0  0  0  0  0  0  0
  163.0020  210.6430  156.1990 C   0  0  0  0  0  1  0  0  0  0  0  0
  160.9340  210.9440  154.4410 S   0  0  0  0  0  0  0  0  0  0  0  0
  160.6100  207.9740  155.2350 C   0  0  0  0  0  0  0  0  0  0  0  0
  160.3240  208.2030  153.7740 C   0  0  2  0  0  3  0  0  0  0  0  0
  161.4860  208.7340  155.8970 C   0  0  0  0  0  3  0  0  0  0  0  0
  1  5  1  0  0  0  0
  2  4  1  6  0  0  0
  2 10  1  0  0  0  0
  3 16  1  6  0  0  0
  3  2  1  0  0  0  0
  4 12  2  0  0  0  0
  5 13  2  0  0  0  0
  6 21  1  0  0  0  0
  6  9  1  0  0  0  0
  7  1  1  0  0  0  0
  8 14  2  0  0  0  0
 10  8  1  6  0  0  0
 10  6  1  0  0  0  0
 11  1  2  0  0  0  0
 11  4  1  0  0  0  0
 12 13  1  0  0  0  0
 12  9  1  0  0  0  0
 15  3  1  0  0  0  0
 15  8  1  0  0  0  0
 17 16  1  0  0  0  0
 18 17  1  0  0  0  0
 19 18  2  0  0  0  0
 20 18  1  0  0  0  0
 21 23  1  0  0  0  0
 23 22  2  0  0  0  0
 24 31  1  0  0  0  0
 24 27  1  1  0  0  0
 25 30  1  0  0  0  0
 25 28  1  0  0  0  0
 28 24  1  0  0  0  0
 29 26  1  0  0  0  0
 29 31  2  0  0  0  0
 30 23  1  6  0  0  0
 30 29  1  0  0  0  0
M  END
>  <MODEL>
1

>  <REMARK>
 VINA RESULT:      -9.4      0.000      0.000
  Name = 
  6 active torsions:
  status: ('A' for Active; 'I' for Inactive)
    1  A    between atoms: C_5  and  C_14
    2  A    between atoms: C_9  and  C_22
    3  A    between atoms: C_9  and  C_23
    4  A    between atoms: C_10  and  C_14
    5  A    between atoms: C_10  and  C_18
    6  A    between atoms: N_15  and  C_23
                            x       y       z     vdW  Elec       q    Type
                         _______ _______ _______ _____ _____    ______ ____

>  <TORSDO>
F 6

$$$$
=
 OpenBabel11052422413D

 31 34  0  0  1  0  0  0  0  0999 V2000
  160.8560  201.4920  148.7690 C   0  0  0  0  0  0  0  0  0  0  0  0
  161.7540  205.1860  148.5820 C   0  0  2  0  0  3  0  0  0  0  0  0
  161.7850  205.5930  147.1070 C   0  0  1  0  0  3  0  0  0  0  0  0
  161.2580  203.8620  149.0510 C   0  0  0  0  0  0  0  0  0  0  0  0
  160.5110  201.3890  150.1210 C   0  0  0  0  0  3  0  0  0  0  0  0
  161.3720  206.2460  150.6950 N   0  0  0  0  0  0  0  0  0  0  0  0
  160.8290  200.3930  147.9780 F   0  0  0  0  0  0  0  0  0  0  0  0
  161.3460  207.4310  148.4650 C   0  0  0  0  0  0  0  0  0  0  0  0
  160.8820  204.9920  151.3170 C   0  0  0  0  0  2  0  0  0  0  0  0
  160.9600  206.2590  149.2880 C   0  0  1  0  0  3  0  0  0  0  0  0
  161.2380  202.7260  148.2360 C   0  0  0  0  0  3  0  0  0  0  0  0
  160.9290  203.7580  150.4200 C   0  0  0  0  0  0  0  0  0  0  0  0
  160.5440  202.5200  150.9420 C   0  0  0  0  0  3  0  0  0  0  0  0
  161.2190  208.6340  148.8140 O   0  0  0  0  0  0  0  0  0  0  0  0
  161.7650  207.0490  147.1630 N   0  0  0  0  0  2  0  0  0  0  0  0
  163.0820  205.1450  146.4460 C   0  0  0  0  0  2  0  0  0  0  0  0
  162.8300  204.2220  145.2650 C   0  0  0  0  0  2  0  0  0  0  0  0
  161.5140  204.5180  144.6280 C   0  0  0  0  0  0  0  0  0  0  0  0
  161.3560  205.6670  143.8660 O   0  0  0  0  0  0  0  0  0  0  0  0
  160.5570  203.7120  144.7560 O   0  0  0  0  0  1  0  0  0  0  0  0
  160.6790  207.3220  151.3910 C   0  0  0  0  0  2  0  0  0  0  0  0
  160.9880  206.4930  153.5730 O   0  0  0  0  0  0  0  0  0  0  0  0
  161.1720  207.4190  152.7970 C   0  0  0  0  0  0  0  0  0  0  0  0
  159.6500  210.4620  153.0250 C   0  0  2  0  0  3  0  0  0  0  0  0
  161.4130  209.1100  154.6440 C   0  0  0  0  0  2  0  0  0  0  0  0
  162.8800  209.8580  151.3260 F   0  0  0  0  0  0  0  0  0  0  0  0
  158.6790  211.5970  152.7750 C   0  0  0  0  0  1  0  0  0  0  0  0
  160.2780  210.5590  154.7300 S   0  0  0  0  0  0  0  0  0  0  0  0
  161.8390  209.7420  152.1910 C   0  0  0  0  0  0  0  0  0  0  0  0
  161.8720  208.6660  153.2440 C   0  0  2  0  0  3  0  0  0  0  0  0
  160.7980  210.5700  152.0780 C   0  0  0  0  0  3  0  0  0  0  0  0
  1  5  1  0  0  0  0
  2  4  1  6  0  0  0
  2 10  1  0  0  0  0
  3 16  1  1  0  0  0
  3 15  1  0  0  0  0
  3  2  1  0  0  0  0
  4 12  2  0  0  0  0
  5 13  2  0  0  0  0
  6  9  1  0  0  0  0
  6 21  1  0  0  0  0
  7  1  1  0  0  0  0
  8 14  2  0  0  0  0
 10  8  1  6  0  0  0
 10  6  1  0  0  0  0
 11  1  2  0  0  0  0
 11  4  1  0  0  0  0
 12 13  1  0  0  0  0
 12  9  1  0  0  0  0
 15  8  1  0  0  0  0
 17 16  1  0  0  0  0
 18 20  1  0  0  0  0
 18 17  1  0  0  0  0
 19 18  2  0  0  0  0
 21 23  1  0  0  0  0
 23 22  2  0  0  0  0
 24 27  1  6  0  0  0
 24 28  1  0  0  0  0
 25 28  1  0  0  0  0
 26 29  1  0  0  0  0
 29 30  1  0  0  0  0
 30 23  1  6  0  0  0
 30 25  1  0  0  0  0
 31 29  2  0  0  0  0
 31 24  1  0  0  0  0
M  END
>  <MODEL>
2

>  <REMARK>
 VINA RESULT:      -9.4      1.412      2.015
  Name = 
  6 active torsions:
  status: ('A' for Active; 'I' for Inactive)
    1  A    between atoms: C_5  and  C_14
    2  A    between atoms: C_9  and  C_22
    3  A    between atoms: C_9  and  C_23
    4  A    between atoms: C_10  and  C_14
    5  A    between atoms: C_10  and  C_18
    6  A    between atoms: N_15  and  C_23
                            x       y       z     vdW  Elec       q    Type
                         _______ _______ _______ _____ _____    ______ ____

>  <TORSDO>
F 6

$$$$
=
 OpenBabel11052422413D

 31 34  0  0  1  0  0  0  0  0999 V2000
  161.9380  204.8200  146.3690 C   0  0  0  0  0  0  0  0  0  0  0  0
  161.0590  204.7760  150.0720 C   0  0  2  0  0  3  0  0  0  0  0  0
  161.1750  203.3340  150.5700 C   0  0  1  0  0  3  0  0  0  0  0  0
  161.5060  205.2090  148.7190 C   0  0  0  0  0  0  0  0  0  0  0  0
  162.1450  206.1910  146.1800 C   0  0  0  0  0  3  0  0  0  0  0  0
  161.2240  206.9790  150.9950 N   0  0  0  0  0  0  0  0  0  0  0  0
  162.0450  203.9690  145.3220 F   0  0  0  0  0  0  0  0  0  0  0  0
  161.4730  204.8420  152.3180 C   0  0  0  0  0  0  0  0  0  0  0  0
  161.6510  207.5680  149.7030 C   0  0  0  0  0  2  0  0  0  0  0  0
  161.7750  205.6240  151.0950 C   0  0  1  0  0  3  0  0  0  0  0  0
  161.6090  204.3300  147.6360 C   0  0  0  0  0  3  0  0  0  0  0  0
  161.6950  206.5950  148.5270 C   0  0  0  0  0  0  0  0  0  0  0  0
  162.0280  207.0740  147.2570 C   0  0  0  0  0  3  0  0  0  0  0  0
  161.5620  205.2760  153.4960 O   0  0  0  0  0  0  0  0  0  0  0  0
  161.1870  203.4830  152.0200 N   0  0  0  0  0  2  0  0  0  0  0  0
  159.9520  202.5190  150.1720 C   0  0  0  0  0  2  0  0  0  0  0  0
  160.3080  201.0740  149.8610 C   0  0  0  0  0  2  0  0  0  0  0  0
  160.8340  200.9410  148.4730 C   0  0  0  0  0  0  0  0  0  0  0  0
  160.2520  201.6610  147.4380 O   0  0  0  0  0  0  0  0  0  0  0  0
  161.8250  200.2000  148.2430 O   0  0  0  0  0  1  0  0  0  0  0  0
  161.8420  207.8070  152.0230 C   0  0  0  0  0  2  0  0  0  0  0  0
  161.3060  209.9960  151.3400 O   0  0  0  0  0  0  0  0  0  0  0  0
  161.1050  209.1000  152.1450 C   0  0  0  0  0  0  0  0  0  0  0  0
  161.9650  210.4090  155.1750 C   0  0  2  0  0  3  0  0  0  0  0  0
  159.8090  210.7730  153.5070 C   0  0  0  0  0  2  0  0  0  0  0  0
  160.0490  207.2790  154.7140 F   0  0  0  0  0  0  0  0  0  0  0  0
  162.7970  210.8090  156.3750 C   0  0  0  0  0  1  0  0  0  0  0  0
  160.5860  211.5790  154.9700 S   0  0  0  0  0  0  0  0  0  0  0  0
  160.5490  208.5240  154.5060 C   0  0  0  0  0  0  0  0  0  0  0  0
  160.1360  209.2870  153.2750 C   0  0  2  0  0  3  0  0  0  0  0  0
  161.4120  209.0390  155.3840 C   0  0  0  0  0  3  0  0  0  0  0  0
  1 11  1  0  0  0  0
  2  4  1  6  0  0  0
  2  3  1  0  0  0  0
  2 10  1  0  0  0  0
  3 16  1  1  0  0  0
  3 15  1  0  0  0  0
  5  1  2  0  0  0  0
  5 13  1  0  0  0  0
  6 10  1  0  0  0  0
  6 21  1  0  0  0  0
  7  1  1  0  0  0  0
  8 14  2  0  0  0  0
  9  6  1  0  0  0  0
 10  8  1  1  0  0  0
 11  4  2  0  0  0  0
 12  4  1  0  0  0  0
 12  9  1  0  0  0  0
 13 12  2  0  0  0  0
 15  8  1  0  0  0  0
 17 16  1  0  0  0  0
 18 17  1  0  0  0  0
 19 18  2  0  0  0  0
 20 18  1  0  0  0  0
 21 23  1  0  0  0  0
 22 23  2  0  0  0  0
 24 31  1  0  0  0  0
 24 27  1  1  0  0  0
 25 28  1  0  0  0  0
 28 24  1  0  0  0  0
 29 26  1  0  0  0  0
 29 31  2  0  0  0  0
 30 23  1  6  0  0  0
 30 25  1  0  0  0  0
 30 29  1  0  0  0  0
M  END
>  <MODEL>
3

>  <REMARK>
 VINA RESULT:      -9.2      1.973      3.791
  Name = 
  6 active torsions:
  status: ('A' for Active; 'I' for Inactive)
    1  A    between atoms: C_5  and  C_14
    2  A    between atoms: C_9  and  C_22
    3  A    between atoms: C_9  and  C_23
    4  A    between atoms: C_10  and  C_14
    5  A    between atoms: C_10  and  C_18
    6  A    between atoms: N_15  and  C_23
                            x       y       z     vdW  Elec       q    Type
                         _______ _______ _______ _____ _____    ______ ____

>  <TORSDO>
F 6

$$$$
=
 OpenBabel11052422413D

 31 34  0  0  1  0  0  0  0  0999 V2000
  161.1250  205.4740  153.5550 C   0  0  0  0  0  0  0  0  0  0  0  0
  161.1630  208.1970  150.8950 C   0  0  2  0  0  3  0  0  0  0  0  0
  161.6090  209.5010  151.5580 C   0  0  1  0  0  3  0  0  0  0  0  0
  161.2070  206.8770  151.5840 C   0  0  0  0  0  0  0  0  0  0  0  0
  161.0740  204.3360  152.7430 C   0  0  0  0  0  3  0  0  0  0  0  0
  161.2090  207.2260  148.7070 N   0  0  0  0  0  0  0  0  0  0  0  0
  161.1090  205.3460  154.9020 F   0  0  0  0  0  0  0  0  0  0  0  0
  162.0810  209.5250  149.2790 C   0  0  0  0  0  0  0  0  0  0  0  0
  161.2250  205.8430  149.2420 C   0  0  0  0  0  2  0  0  0  0  0  0
  161.9650  208.0870  149.6210 C   0  0  1  0  0  3  0  0  0  0  0  0
  161.1830  206.7450  152.9760 C   0  0  0  0  0  3  0  0  0  0  0  0
  161.1360  205.7310  150.7620 C   0  0  0  0  0  0  0  0  0  0  0  0
  161.0830  204.4650  151.3510 C   0  0  0  0  0  3  0  0  0  0  0  0
  162.3800  209.9780  148.1430 O   0  0  0  0  0  0  0  0  0  0  0  0
  161.9410  210.3550  150.4240 N   0  0  0  0  0  2  0  0  0  0  0  0
  160.4620  210.1390  152.3310 C   0  0  0  0  0  2  0  0  0  0  0  0
  160.9620  211.1010  153.3970 C   0  0  0  0  0  2  0  0  0  0  0  0
  161.4470  210.3630  154.5980 C   0  0  0  0  0  0  0  0  0  0  0  0
  162.6600  210.7060  155.1810 O   0  0  0  0  0  1  0  0  0  0  0  0
  160.7440  209.4490  155.1030 O   0  0  0  0  0  0  0  0  0  0  0  0
  161.9210  207.1590  147.4370 C   0  0  0  0  0  2  0  0  0  0  0  0
  159.9300  206.4780  146.3810 O   0  0  0  0  0  0  0  0  0  0  0  0
  161.1410  206.3440  146.4590 C   0  0  0  0  0  0  0  0  0  0  0  0
  161.0120  202.9700  146.9440 C   0  0  2  0  0  3  0  0  0  0  0  0
  160.8880  204.5590  144.7030 C   0  0  0  0  0  2  0  0  0  0  0  0
  164.1320  204.8980  146.4600 F   0  0  0  0  0  0  0  0  0  0  0  0
  160.8570  201.6300  147.6310 C   0  0  0  0  0  1  0  0  0  0  0  0
  160.5370  202.8180  145.1930 S   0  0  0  0  0  0  0  0  0  0  0  0
  162.8310  204.5130  146.3830 C   0  0  0  0  0  0  0  0  0  0  0  0
  161.8600  205.3520  145.5940 C   0  0  2  0  0  3  0  0  0  0  0  0
  162.4340  203.4120  147.0250 C   0  0  0  0  0  3  0  0  0  0  0  0
  1  7  1  0  0  0  0
  2  3  1  0  0  0  0
  2  4  1  1  0  0  0
  3 16  1  6  0  0  0
  4 11  2  0  0  0  0
  5  1  2  0  0  0  0
  6  9  1  0  0  0  0
  6 10  1  0  0  0  0
  8 15  1  0  0  0  0
  9 12  1  0  0  0  0
 10  8  1  6  0  0  0
 10  2  1  0  0  0  0
 11  1  1  0  0  0  0
 12 13  2  0  0  0  0
 12  4  1  0  0  0  0
 13  5  1  0  0  0  0
 14  8  2  0  0  0  0
 15  3  1  0  0  0  0
 16 17  1  0  0  0  0
 17 18  1  0  0  0  0
 18 20  2  0  0  0  0
 18 19  1  0  0  0  0
 21  6  1  0  0  0  0
 22 23  2  0  0  0  0
 23 21  1  0  0  0  0
 24 31  1  0  0  0  0
 24 27  1  1  0  0  0
 25 28  1  0  0  0  0
 25 30  1  0  0  0  0
 28 24  1  0  0  0  0
 29 26  1  0  0  0  0
 29 31  2  0  0  0  0
 30 29  1  0  0  0  0
 30 23  1  1  0  0  0
M  END
>  <MODEL>
4

>  <REMARK>
 VINA RESULT:      -9.1      3.064      7.825
  Name = 
  6 active torsions:
  status: ('A' for Active; 'I' for Inactive)
    1  A    between atoms: C_5  and  C_14
    2  A    between atoms: C_9  and  C_22
    3  A    between atoms: C_9  and  C_23
    4  A    between atoms: C_10  and  C_14
    5  A    between atoms: C_10  and  C_18
    6  A    between atoms: N_15  and  C_23
                            x       y       z     vdW  Elec       q    Type
                         _______ _______ _______ _____ _____    ______ ____

>  <TORSDO>
F 6

$$$$
=
 OpenBabel11052422413D

 31 34  0  0  1  0  0  0  0  0999 V2000
  161.6990  204.5170  146.5310 C   0  0  0  0  0  0  0  0  0  0  0  0
  161.2480  205.2720  150.2350 C   0  0  2  0  0  3  0  0  0  0  0  0
  161.5710  204.0000  151.0210 C   0  0  1  0  0  3  0  0  0  0  0  0
  161.4940  205.4090  148.7720 C   0  0  0  0  0  0  0  0  0  0  0  0
  161.7380  205.8170  146.0170 C   0  0  0  0  0  3  0  0  0  0  0  0
  161.2830  207.6350  150.6150 N   0  0  0  0  0  0  0  0  0  0  0  0
  161.7780  203.4550  145.6950 F   0  0  0  0  0  0  0  0  0  0  0  0
  161.9020  205.8920  152.3340 C   0  0  0  0  0  0  0  0  0  0  0  0
  161.4980  207.9370  149.1790 C   0  0  0  0  0  2  0  0  0  0  0  0
  161.9810  206.3880  150.9390 C   0  0  1  0  0  3  0  0  0  0  0  0
  161.5670  204.3130  147.9080 C   0  0  0  0  0  3  0  0  0  0  0  0
  161.5140  206.7220  148.2540 C   0  0  0  0  0  0  0  0  0  0  0  0
  161.6500  206.9160  146.8770 C   0  0  0  0  0  3  0  0  0  0  0  0
  162.0760  206.5950  153.3640 O   0  0  0  0  0  0  0  0  0  0  0  0
  161.7300  204.4830  152.3870 N   0  0  0  0  0  2  0  0  0  0  0  0
  160.4040  203.0230  150.9800 C   0  0  0  0  0  2  0  0  0  0  0  0
  160.8570  201.6090  150.6540 C   0  0  0  0  0  2  0  0  0  0  0  0
  160.5440  201.2610  149.2380 C   0  0  0  0  0  0  0  0  0  0  0  0
  161.4610  200.5430  148.4820 O   0  0  0  0  0  0  0  0  0  0  0  0
  159.4380  201.5910  148.7370 O   0  0  0  0  0  1  0  0  0  0  0  0
  161.9210  208.7260  151.3410 C   0  0  0  0  0  2  0  0  0  0  0  0
  159.9110  208.8070  152.5640 O   0  0  0  0  0  0  0  0  0  0  0  0
  160.9260  209.3980  152.2280 C   0  0  0  0  0  0  0  0  0  0  0  0
  158.6840  211.2400  154.0210 C   0  0  2  0  0  3  0  0  0  0  0  0
  161.4040  210.8840  154.2010 C   0  0  0  0  0  2  0  0  0  0  0  0
  160.4250  212.4370  150.9840 F   0  0  0  0  0  0  0  0  0  0  0  0
  157.3700  211.7400  154.5840 C   0  0  0  0  0  1  0  0  0  0  0  0
  160.0200  211.5550  155.2160 S   0  0  0  0  0  0  0  0  0  0  0  0
  160.1590  211.7680  152.1350 C   0  0  0  0  0  0  0  0  0  0  0  0
  161.1800  210.8050  152.6810 C   0  0  2  0  0  3  0  0  0  0  0  0
  158.9890  211.9600  152.7500 C   0  0  0  0  0  3  0  0  0  0  0  0
  1 11  1  0  0  0  0
  2  4  1  6  0  0  0
  2 10  1  0  0  0  0
  2  3  1  0  0  0  0
  3 16  1  1  0  0  0
  3 15  1  0  0  0  0
  5  1  2  0  0  0  0
  5 13  1  0  0  0  0
  6 10  1  0  0  0  0
  6 21  1  0  0  0  0
  7  1  1  0  0  0  0
  8 15  1  0  0  0  0
  8 14  2  0  0  0  0
  9  6  1  0  0  0  0
 10  8  1  1  0  0  0
 11  4  2  0  0  0  0
 12  4  1  0  0  0  0
 12  9  1  0  0  0  0
 13 12  2  0  0  0  0
 17 16  1  0  0  0  0
 18 17  1  0  0  0  0
 19 18  2  0  0  0  0
 20 18  1  0  0  0  0
 21 23  1  0  0  0  0
 23 22  2  0  0  0  0
 24 27  1  1  0  0  0
 24 28  1  0  0  0  0
 25 28  1  0  0  0  0
 26 29  1  0  0  0  0
 29 30  1  0  0  0  0
 29 31  2  0  0  0  0
 30 23  1  1  0  0  0
 30 25  1  0  0  0  0
 31 24  1  0  0  0  0
M  END
>  <MODEL>
5

>  <REMARK>
 VINA RESULT:      -9.0      2.728      4.412
  Name = 
  6 active torsions:
  status: ('A' for Active; 'I' for Inactive)
    1  A    between atoms: C_5  and  C_14
    2  A    between atoms: C_9  and  C_22
    3  A    between atoms: C_9  and  C_23
    4  A    between atoms: C_10  and  C_14
    5  A    between atoms: C_10  and  C_18
    6  A    between atoms: N_15  and  C_23
                            x       y       z     vdW  Elec       q    Type
                         _______ _______ _______ _____ _____    ______ ____

>  <TORSDO>
F 6

$$$$
=
 OpenBabel11052422413D

 31 34  0  0  1  0  0  0  0  0999 V2000
  160.6280  202.8160  150.6400 C   0  0  0  0  0  0  0  0  0  0  0  0
  161.8940  206.1010  149.1940 C   0  0  2  0  0  3  0  0  0  0  0  0
  161.4320  206.1880  147.7380 C   0  0  1  0  0  3  0  0  0  0  0  0
  161.4310  205.0420  150.1340 C   0  0  0  0  0  0  0  0  0  0  0  0
  160.7990  203.0650  152.0060 C   0  0  0  0  0  3  0  0  0  0  0  0
  162.4750  207.6180  150.9520 N   0  0  0  0  0  0  0  0  0  0  0  0
  160.1580  201.6160  150.2240 F   0  0  0  0  0  0  0  0  0  0  0  0
  161.7880  208.3110  148.6240 C   0  0  0  0  0  0  0  0  0  0  0  0
  162.0830  206.6570  152.0110 C   0  0  0  0  0  2  0  0  0  0  0  0
  161.5770  207.4430  149.8070 C   0  0  1  0  0  3  0  0  0  0  0  0
  160.9520  203.8010  149.7030 C   0  0  0  0  0  3  0  0  0  0  0  0
  161.6230  205.2900  151.5100 C   0  0  0  0  0  0  0  0  0  0  0  0
  161.2910  204.2990  152.4390 C   0  0  0  0  0  3  0  0  0  0  0  0
  161.9670  209.5560  148.6610 O   0  0  0  0  0  0  0  0  0  0  0  0
  161.6360  207.5930  147.4070 N   0  0  0  0  0  2  0  0  0  0  0  0
  162.3150  205.3390  146.8340 C   0  0  0  0  0  2  0  0  0  0  0  0
  161.5640  204.1480  146.2610 C   0  0  0  0  0  2  0  0  0  0  0  0
  160.9870  204.4730  144.9250 C   0  0  0  0  0  0  0  0  0  0  0  0
  161.5740  205.4540  144.1360 O   0  0  0  0  0  0  0  0  0  0  0  0
  159.9890  203.8380  144.4980 O   0  0  0  0  0  1  0  0  0  0  0  0
  162.2470  208.9390  151.5240 C   0  0  0  0  0  2  0  0  0  0  0  0
  160.0610  208.8070  152.3880 O   0  0  0  0  0  0  0  0  0  0  0  0
  161.2560  208.8480  152.6370 C   0  0  0  0  0  0  0  0  0  0  0  0
  159.5870  210.2980  155.2340 C   0  0  2  0  0  3  0  0  0  0  0  0
  160.8960  207.8980  154.9380 C   0  0  0  0  0  2  0  0  0  0  0  0
  163.1860  210.7810  154.5270 F   0  0  0  0  0  0  0  0  0  0  0  0
  158.6700  211.2240  156.0040 C   0  0  0  0  0  1  0  0  0  0  0  0
  159.7140  208.7030  156.1000 S   0  0  0  0  0  0  0  0  0  0  0  0
  161.9540  210.2150  154.6010 C   0  0  0  0  0  0  0  0  0  0  0  0
  161.7450  208.8270  154.0540 C   0  0  2  0  0  3  0  0  0  0  0  0
  160.9450  210.9070  155.1370 C   0  0  0  0  0  3  0  0  0  0  0  0
  1  5  1  0  0  0  0
  2 10  1  0  0  0  0
  2  4  1  1  0  0  0
  3 16  1  6  0  0  0
  3  2  1  0  0  0  0
  4 12  2  0  0  0  0
  5 13  2  0  0  0  0
  6 21  1  0  0  0  0
  6  9  1  0  0  0  0
  7  1  1  0  0  0  0
  8 14  2  0  0  0  0
 10  8  1  6  0  0  0
 10  6  1  0  0  0  0
 11  4  1  0  0  0  0
 11  1  2  0  0  0  0
 12  9  1  0  0  0  0
 12 13  1  0  0  0  0
 15  3  1  0  0  0  0
 15  8  1  0  0  0  0
 17 16  1  0  0  0  0
 18 17  1  0  0  0  0
 19 18  2  0  0  0  0
 20 18  1  0  0  0  0
 21 23  1  0  0  0  0
 22 23  2  0  0  0  0
 24 27  1  1  0  0  0
 24 28  1  0  0  0  0
 25 28  1  0  0  0  0
 26 29  1  0  0  0  0
 29 31  2  0  0  0  0
 30 23  1  6  0  0  0
 30 29  1  0  0  0  0
 30 25  1  0  0  0  0
 31 24  1  0  0  0  0
M  END
>  <MODEL>
6

>  <REMARK>
 VINA RESULT:      -9.0      1.708      2.036
  Name = 
  6 active torsions:
  status: ('A' for Active; 'I' for Inactive)
    1  A    between atoms: C_5  and  C_14
    2  A    between atoms: C_9  and  C_22
    3  A    between atoms: C_9  and  C_23
    4  A    between atoms: C_10  and  C_14
    5  A    between atoms: C_10  and  C_18
    6  A    between atoms: N_15  and  C_23
                            x       y       z     vdW  Elec       q    Type
                         _______ _______ _______ _____ _____    ______ ____

>  <TORSDO>
F 6

$$$$
=
 OpenBabel11052422413D

 31 34  0  0  1  0  0  0  0  0999 V2000
  162.3120  207.4630  148.2600 C   0  0  0  0  0  0  0  0  0  0  0  0
  161.0820  206.6800  151.7770 C   0  0  2  0  0  3  0  0  0  0  0  0
  161.3620  205.2030  152.0600 C   0  0  1  0  0  3  0  0  0  0  0  0
  161.5930  207.3900  150.5710 C   0  0  0  0  0  0  0  0  0  0  0  0
  162.3300  208.8610  148.3100 C   0  0  0  0  0  3  0  0  0  0  0  0
  160.8240  208.6980  153.0390 N   0  0  0  0  0  0  0  0  0  0  0  0
  162.6500  206.8220  147.1170 F   0  0  0  0  0  0  0  0  0  0  0  0
  161.2550  206.4200  154.0400 C   0  0  0  0  0  0  0  0  0  0  0  0
  161.2850  209.5470  151.9140 C   0  0  0  0  0  2  0  0  0  0  0  0
  161.5580  207.4300  152.9970 C   0  0  1  0  0  3  0  0  0  0  0  0
  161.9350  206.7270  149.3870 C   0  0  0  0  0  3  0  0  0  0  0  0
  161.5920  208.8010  150.6180 C   0  0  0  0  0  0  0  0  0  0  0  0
  161.9750  209.5270  149.4870 C   0  0  0  0  0  3  0  0  0  0  0  0
  161.1590  206.6580  155.2730 O   0  0  0  0  0  0  0  0  0  0  0  0
  161.2070  205.1050  153.5050 N   0  0  0  0  0  2  0  0  0  0  0  0
  160.3200  204.3140  151.3930 C   0  0  0  0  0  2  0  0  0  0  0  0
  160.9020  202.9740  150.9720 C   0  0  0  0  0  2  0  0  0  0  0  0
  160.6160  202.6960  149.5360 C   0  0  0  0  0  0  0  0  0  0  0  0
  159.7070  201.7040  149.1890 O   0  0  0  0  0  1  0  0  0  0  0  0
  161.1730  203.3780  148.6380 O   0  0  0  0  0  0  0  0  0  0  0  0
  161.2040  209.4150  154.2490 C   0  0  0  0  0  2  0  0  0  0  0  0
  159.3360  209.3780  155.6800 O   0  0  0  0  0  0  0  0  0  0  0  0
  159.9970  210.0240  154.8820 C   0  0  0  0  0  0  0  0  0  0  0  0
  157.0750  211.4830  155.8660 C   0  0  2  0  0  3  0  0  0  0  0  0
  159.6720  212.3750  155.7160 C   0  0  0  0  0  2  0  0  0  0  0  0
  158.3330  211.4530  152.3870 F   0  0  0  0  0  0  0  0  0  0  0  0
  155.6400  211.6430  156.3230 C   0  0  0  0  0  1  0  0  0  0  0  0
  158.0720  212.8760  156.4800 S   0  0  0  0  0  0  0  0  0  0  0  0
  158.3040  211.4560  153.7450 C   0  0  0  0  0  0  0  0  0  0  0  0
  159.6000  211.4210  154.5110 C   0  0  2  0  0  3  0  0  0  0  0  0
  157.1260  211.4700  154.3750 C   0  0  0  0  0  3  0  0  0  0  0  0
  1  5  2  0  0  0  0
  1 11  1  0  0  0  0
  2  4  1  6  0  0  0
  2  3  1  0  0  0  0
  2 10  1  0  0  0  0
  3 16  1  6  0  0  0
  3 15  1  0  0  0  0
  4 12  1  0  0  0  0
  5 13  1  0  0  0  0
  6 21  1  0  0  0  0
  7  1  1  0  0  0  0
  8 14  2  0  0  0  0
  9  6  1  0  0  0  0
 10  6  1  0  0  0  0
 10  8  1  1  0  0  0
 11  4  2  0  0  0  0
 12  9  1  0  0  0  0
 13 12  2  0  0  0  0
 15  8  1  0  0  0  0
 17 16  1  0  0  0  0
 18 17  1  0  0  0  0
 19 18  1  0  0  0  0
 20 18  2  0  0  0  0
 21 23  1  0  0  0  0
 23 22  2  0  0  0  0
 24 27  1  6  0  0  0
 24 28  1  0  0  0  0
 25 28  1  0  0  0  0
 26 29  1  0  0  0  0
 29 31  2  0  0  0  0
 29 30  1  0  0  0  0
 30 23  1  1  0  0  0
 30 25  1  0  0  0  0
 31 24  1  0  0  0  0
M  END
>  <MODEL>
7

>  <REMARK>
 VINA RESULT:      -8.5      3.211      5.260
  Name = 
  6 active torsions:
  status: ('A' for Active; 'I' for Inactive)
    1  A    between atoms: C_5  and  C_14
    2  A    between atoms: C_9  and  C_22
    3  A    between atoms: C_9  and  C_23
    4  A    between atoms: C_10  and  C_14
    5  A    between atoms: C_10  and  C_18
    6  A    between atoms: N_15  and  C_23
                            x       y       z     vdW  Elec       q    Type
                         _______ _______ _______ _____ _____    ______ ____

>  <TORSDO>
F 6

$$$$
=
 OpenBabel11052422413D

 31 34  0  0  1  0  0  0  0  0999 V2000
  161.8430  205.4210  147.1050 C   0  0  0  0  0  0  0  0  0  0  0  0
  161.0840  205.6580  150.8280 C   0  0  2  0  0  3  0  0  0  0  0  0
  161.3580  204.2900  151.4560 C   0  0  1  0  0  3  0  0  0  0  0  0
  161.4460  205.9960  149.4230 C   0  0  0  0  0  0  0  0  0  0  0  0
  161.9080  206.7800  146.7790 C   0  0  0  0  0  3  0  0  0  0  0  0
  161.0590  207.9460  151.5310 N   0  0  0  0  0  0  0  0  0  0  0  0
  162.0020  204.4850  146.1400 F   0  0  0  0  0  0  0  0  0  0  0  0
  161.5580  205.9840  153.0390 C   0  0  0  0  0  0  0  0  0  0  0  0
  161.3870  208.4430  150.1720 C   0  0  0  0  0  2  0  0  0  0  0  0
  161.7440  206.6670  151.7360 C   0  0  1  0  0  3  0  0  0  0  0  0
  161.6030  205.0290  148.4250 C   0  0  0  0  0  3  0  0  0  0  0  0
  161.4910  207.3680  149.0930 C   0  0  0  0  0  0  0  0  0  0  0  0
  161.7370  207.7500  147.7710 C   0  0  0  0  0  3  0  0  0  0  0  0
  161.6390  206.5380  154.1660 O   0  0  0  0  0  0  0  0  0  0  0  0
  161.3990  204.5810  152.8830 N   0  0  0  0  0  2  0  0  0  0  0  0
  160.2090  203.3270  151.1850 C   0  0  0  0  0  2  0  0  0  0  0  0
  160.7010  201.9070  150.9560 C   0  0  0  0  0  2  0  0  0  0  0  0
  160.5680  201.5200  149.5220 C   0  0  0  0  0  0  0  0  0  0  0  0
  161.4950  200.6620  148.9470 O   0  0  0  0  0  1  0  0  0  0  0  0
  159.6000  201.9480  148.8410 O   0  0  0  0  0  0  0  0  0  0  0  0
  161.6230  208.9270  152.4490 C   0  0  0  0  0  2  0  0  0  0  0  0
  159.5810  210.0880  152.6150 O   0  0  0  0  0  0  0  0  0  0  0  0
  160.5290  209.6000  153.2110 C   0  0  0  0  0  0  0  0  0  0  0  0
  159.0520  212.0550  155.0610 C   0  0  2  0  0  3  0  0  0  0  0  0
  159.2800  209.3330  155.3790 C   0  0  0  0  0  2  0  0  0  0  0  0
  162.5840  211.0100  155.4060 F   0  0  0  0  0  0  0  0  0  0  0  0
  158.4470  213.3900  155.4420 C   0  0  0  0  0  1  0  0  0  0  0  0
  158.3010  210.7350  156.0640 S   0  0  0  0  0  0  0  0  0  0  0  0
  161.2480  210.9710  155.1630 C   0  0  0  0  0  0  0  0  0  0  0  0
  160.6190  209.6820  154.7050 C   0  0  2  0  0  3  0  0  0  0  0  0
  160.5220  212.0810  155.3150 C   0  0  0  0  0  3  0  0  0  0  0  0
  1 11  1  0  0  0  0
  2  4  1  6  0  0  0
  2  3  1  0  0  0  0
  2 10  1  0  0  0  0
  3 16  1  1  0  0  0
  3 15  1  0  0  0  0
  5  1  2  0  0  0  0
  5 13  1  0  0  0  0
  6 10  1  0  0  0  0
  6 21  1  0  0  0  0
  7  1  1  0  0  0  0
  8 14  2  0  0  0  0
  9  6  1  0  0  0  0
 10  8  1  1  0  0  0
 11  4  2  0  0  0  0
 12  4  1  0  0  0  0
 12  9  1  0  0  0  0
 13 12  2  0  0  0  0
 15  8  1  0  0  0  0
 17 16  1  0  0  0  0
 18 17  1  0  0  0  0
 19 18  1  0  0  0  0
 20 18  2  0  0  0  0
 21 23  1  0  0  0  0
 22 23  2  0  0  0  0
 24 31  1  0  0  0  0
 24 27  1  1  0  0  0
 24 28  1  0  0  0  0
 25 28  1  0  0  0  0
 29 31  2  0  0  0  0
 29 26  1  0  0  0  0
 30 23  1  6  0  0  0
 30 29  1  0  0  0  0
 30 25  1  0  0  0  0
M  END
>  <MODEL>
8

>  <REMARK>
 VINA RESULT:      -8.1      2.598      4.405
  Name = 
  6 active torsions:
  status: ('A' for Active; 'I' for Inactive)
    1  A    between atoms: C_5  and  C_14
    2  A    between atoms: C_9  and  C_22
    3  A    between atoms: C_9  and  C_23
    4  A    between atoms: C_10  and  C_14
    5  A    between atoms: C_10  and  C_18
    6  A    between atoms: N_15  and  C_23
                            x       y       z     vdW  Elec       q    Type
                         _______ _______ _______ _____ _____    ______ ____

>  <TORSDO>
F 6

$$$$
=
 OpenBabel11052422413D

 31 34  0  0  1  0  0  0  0  0999 V2000
  160.7020  207.7930  154.2250 C   0  0  0  0  0  0  0  0  0  0  0  0
  161.5370  206.9470  150.6090 C   0  0  2  0  0  3  0  0  0  0  0  0
  160.9270  205.5810  150.2880 C   0  0  1  0  0  3  0  0  0  0  0  0
  161.2590  207.6860  151.8720 C   0  0  0  0  0  0  0  0  0  0  0  0
  160.9860  209.1630  154.2300 C   0  0  0  0  0  3  0  0  0  0  0  0
  162.1590  208.9240  149.4110 N   0  0  0  0  0  0  0  0  0  0  0  0
  160.2950  207.1810  155.3620 F   0  0  0  0  0  0  0  0  0  0  0  0
  161.1880  206.8480  148.3530 C   0  0  0  0  0  0  0  0  0  0  0  0
  161.9560  209.7940  150.5950 C   0  0  0  0  0  2  0  0  0  0  0  0
  161.1700  207.8440  149.4510 C   0  0  1  0  0  3  0  0  0  0  0  0
  160.8470  207.0530  153.0480 C   0  0  0  0  0  3  0  0  0  0  0  0
  161.5660  209.0650  151.8790 C   0  0  0  0  0  0  0  0  0  0  0  0
  161.4120  209.7970  153.0600 C   0  0  0  0  0  3  0  0  0  0  0  0
  161.2650  207.1230  147.1270 O   0  0  0  0  0  0  0  0  0  0  0  0
  160.9780  205.5280  148.8320 N   0  0  0  0  0  2  0  0  0  0  0  0
  161.7850  204.4550  150.8500 C   0  0  0  0  0  2  0  0  0  0  0  0
  160.9410  203.3030  151.3700 C   0  0  0  0  0  2  0  0  0  0  0  0
  160.8290  202.2210  150.3500 C   0  0  0  0  0  0  0  0  0  0  0  0
  161.5410  201.0400  150.5120 O   0  0  0  0  0  1  0  0  0  0  0  0
  160.0670  202.3640  149.3590 O   0  0  0  0  0  0  0  0  0  0  0  0
  161.8780  209.7690  148.2570 C   0  0  0  0  0  2  0  0  0  0  0  0
  163.3270  211.4580  149.0240 O   0  0  0  0  0  0  0  0  0  0  0  0
  162.2280  211.1870  148.5660 C   0  0  0  0  0  0  0  0  0  0  0  0
  162.2950  213.2850  145.8780 C   0  0  2  0  0  3  0  0  0  0  0  0
  160.2790  211.9150  147.1520 C   0  0  0  0  0  2  0  0  0  0  0  0
  161.8950  214.3890  149.3860 F   0  0  0  0  0  0  0  0  0  0  0  0
  162.8170  214.0990  144.7130 C   0  0  0  0  0  1  0  0  0  0  0  0
  160.5660  212.8100  145.5670 S   0  0  0  0  0  0  0  0  0  0  0  0
  161.8380  213.6300  148.2620 C   0  0  0  0  0  0  0  0  0  0  0  0
  161.2110  212.2620  148.3260 C   0  0  2  0  0  3  0  0  0  0  0  0
  162.3570  214.1020  147.1260 C   0  0  0  0  0  3  0  0  0  0  0  0
  1  5  1  0  0  0  0
  1  7  1  0  0  0  0
  2  4  1  1  0  0  0
  3  2  1  0  0  0  0
  3 16  1  1  0  0  0
  4 12  2  0  0  0  0
  4 11  1  0  0  0  0
  6 10  1  0  0  0  0
  6  9  1  0  0  0  0
  8 15  1  0  0  0  0
  9 12  1  0  0  0  0
 10  8  1  6  0  0  0
 10  2  1  0  0  0  0
 11  1  2  0  0  0  0
 12 13  1  0  0  0  0
 13  5  2  0  0  0  0
 14  8  2  0  0  0  0
 15  3  1  0  0  0  0
 16 17  1  0  0  0  0
 18 19  1  0  0  0  0
 18 17  1  0  0  0  0
 20 18  2  0  0  0  0
 21 23  1  0  0  0  0
 21  6  1  0  0  0  0
 23 22  2  0  0  0  0
 24 27  1  6  0  0  0
 24 31  1  0  0  0  0
 25 30  1  0  0  0  0
 28 24  1  0  0  0  0
 28 25  1  0  0  0  0
 29 30  1  0  0  0  0
 29 26  1  0  0  0  0
 30 23  1  6  0  0  0
 31 29  2  0  0  0  0
M  END
>  <MODEL>
9

>  <REMARK>
 VINA RESULT:      -7.6      4.144      6.726
  Name = 
  6 active torsions:
  status: ('A' for Active; 'I' for Inactive)
    1  A    between atoms: C_5  and  C_14
    2  A    between atoms: C_9  and  C_22
    3  A    between atoms: C_9  and  C_23
    4  A    between atoms: C_10  and  C_14
    5  A    between atoms: C_10  and  C_18
    6  A    between atoms: N_15  and  C_23
                            x       y       z     vdW  Elec       q    Type
                         _______ _______ _______ _____ _____    ______ ____

>  <TORSDO>
F 6

$$$$
