=
 OpenBabel11052423123D

 27 31  0  0  1  0  0  0  0  0999 V2000
  162.4540  208.7750  148.4850 N   0  0  0  0  0  0  0  0  0  0  0  0
  161.9390  209.9310  150.5880 C   0  0  2  0  0  3  0  0  0  0  0  0
  162.0610  207.3200  150.4040 C   0  0  1  0  0  3  0  0  0  0  0  0
  160.8320  209.6370  154.3970 N   0  0  0  0  0  0  0  0  0  0  0  0
  161.3940  207.7670  156.0450 C   0  0  0  0  0  1  0  0  0  0  0  0
  161.1540  211.0550  151.2440 C   0  0  0  0  0  3  0  0  0  0  0  0
  161.1960  207.5560  153.5590 C   0  0  0  0  0  0  0  0  0  0  0  0
  160.3830  205.6190  148.0120 C   0  0  0  0  0  2  0  0  0  0  0  0
  161.4760  206.0920  153.5020 C   0  0  0  0  0  1  0  0  0  0  0  0
  161.1050  206.4070  146.9300 C   0  0  0  0  0  2  0  0  0  0  0  0
  160.8170  208.4200  152.3990 C   0  0  1  0  0  3  0  0  0  0  0  0
  161.6440  209.8100  149.0880 C   0  0  1  0  0  3  0  0  0  0  0  0
  161.1300  208.2770  154.6700 C   0  0  0  0  0  0  0  0  0  0  0  0
  160.6690  209.7130  153.1180 C   0  0  0  0  0  0  0  0  0  0  0  0
  162.6520  207.6340  149.0510 C   0  0  0  0  0  0  0  0  0  0  0  0
  161.9150  208.5570  151.3300 C   0  0  2  0  0  3  0  0  0  0  0  0
  159.9460  206.5500  149.1350 C   0  0  0  0  0  2  0  0  0  0  0  0
  160.6220  210.9520  152.4230 N   0  0  0  0  0  0  0  0  0  0  0  0
  162.6260  206.2050  146.9570 C   0  0  0  0  0  2  0  0  0  0  0  0
  163.3150  206.5270  148.2920 C   0  0  0  0  0  2  0  0  0  0  0  0
  160.8520  206.3650  150.3470 C   0  0  0  0  0  2  0  0  0  0  0  0
  162.2760  213.5130  146.9960 C   0  0  0  0  0  3  0  0  0  0  0  0
  161.8500  211.1000  148.3530 C   0  0  0  0  0  0  0  0  0  0  0  0
  163.1000  211.7280  148.4090 C   0  0  0  0  0  3  0  0  0  0  0  0
  163.3130  212.9310  147.7310 C   0  0  0  0  0  3  0  0  0  0  0  0
  161.0250  212.8910  146.9380 C   0  0  0  0  0  3  0  0  0  0  0  0
  160.8110  211.6870  147.6160 C   0  0  0  0  0  3  0  0  0  0  0  0
  1 15  2  0  0  0  0
  1 12  1  0  0  0  0
  2  6  1  1  0  0  0
  2 16  1  0  0  0  0
  3 21  1  6  0  0  0
  3 16  1  0  0  0  0
  4 13  1  0  0  0  0
  6 18  2  0  0  0  0
  7 13  2  0  0  0  0
  8 17  1  0  0  0  0
  9  7  1  0  0  0  0
 10 19  1  0  0  0  0
 10  8  1  0  0  0  0
 11 14  1  1  0  0  0
 11  7  1  0  0  0  0
 12 23  1  6  0  0  0
 12  2  1  0  0  0  0
 13  5  1  0  0  0  0
 14  4  2  0  0  0  0
 15  3  1  0  0  0  0
 16 11  1  0  0  0  0
 17 21  1  0  0  0  0
 18 14  1  0  0  0  0
 19 20  1  0  0  0  0
 20 15  1  0  0  0  0
 22 25  1  0  0  0  0
 23 24  1  0  0  0  0
 25 24  2  0  0  0  0
 26 22  2  0  0  0  0
 26 27  1  0  0  0  0
 27 23  2  0  0  0  0
M  END
>  <MODEL>
1

>  <REMARK>
 VINA RESULT:      -6.3      0.000      0.000
  Name = 
  1 active torsions:
  status: ('A' for Active; 'I' for Inactive)
    1  A    between atoms: C_9  and  C_15
                            x       y       z     vdW  Elec       q    Type
                         _______ _______ _______ _____ _____    ______ ____

>  <TORSDO>
F 1

$$$$
=
 OpenBabel11052423123D

 27 31  0  0  1  0  0  0  0  0999 V2000
  159.7190  211.3880  153.3170 N   0  0  0  0  0  0  0  0  0  0  0  0
  160.5960  209.8530  151.6150 C   0  0  2  0  0  3  0  0  0  0  0  0
  160.2310  209.1390  154.1110 C   0  0  1  0  0  3  0  0  0  0  0  0
  162.1560  206.2860  150.7960 N   0  0  0  0  0  0  0  0  0  0  0  0
  161.6540  204.0620  151.9490 C   0  0  0  0  0  1  0  0  0  0  0  0
  161.5510  209.6880  150.4450 C   0  0  0  0  0  3  0  0  0  0  0  0
  161.5120  206.3410  152.9750 C   0  0  0  0  0  0  0  0  0  0  0  0
  161.4380  210.9680  156.6850 C   0  0  0  0  0  2  0  0  0  0  0  0
  161.1040  205.8780  154.3330 C   0  0  0  0  0  1  0  0  0  0  0  0
  160.6520  212.1790  156.2070 C   0  0  0  0  0  2  0  0  0  0  0  0
  161.8100  207.7530  152.5860 C   0  0  1  0  0  3  0  0  0  0  0  0
  160.6850  211.2460  152.2500 C   0  0  1  0  0  3  0  0  0  0  0  0
  161.7810  205.5470  151.9470 C   0  0  0  0  0  0  0  0  0  0  0  0
  162.1590  207.5260  151.1580 C   0  0  0  0  0  0  0  0  0  0  0  0
  159.5000  210.4570  154.1810 C   0  0  0  0  0  0  0  0  0  0  0  0
  160.5990  208.6990  152.6680 C   0  0  2  0  0  3  0  0  0  0  0  0
  162.0930  210.2680  155.5020 C   0  0  0  0  0  2  0  0  0  0  0  0
  162.2200  208.5970  150.2260 N   0  0  0  0  0  0  0  0  0  0  0  0
  159.1360  211.9440  156.2020 C   0  0  0  0  0  2  0  0  0  0  0  0
  158.6530  210.7360  155.3840 C   0  0  0  0  0  2  0  0  0  0  0  0
  161.3380  208.9850  155.1730 C   0  0  0  0  0  2  0  0  0  0  0  0
  160.1140  214.4260  149.4130 C   0  0  0  0  0  3  0  0  0  0  0  0
  160.4960  212.3480  151.2520 C   0  0  0  0  0  0  0  0  0  0  0  0
  159.6450  213.4150  151.5630 C   0  0  0  0  0  3  0  0  0  0  0  0
  159.4550  214.4530  150.6460 C   0  0  0  0  0  3  0  0  0  0  0  0
  160.9630  213.3620  149.0960 C   0  0  0  0  0  3  0  0  0  0  0  0
  161.1540  212.3230  150.0130 C   0  0  0  0  0  3  0  0  0  0  0  0
  1 15  2  0  0  0  0
  2  6  1  6  0  0  0
  2 12  1  0  0  0  0
  2 16  1  0  0  0  0
  3 15  1  0  0  0  0
  3 21  1  1  0  0  0
  4 14  2  0  0  0  0
  4 13  1  0  0  0  0
  7  9  1  0  0  0  0
 10  8  1  0  0  0  0
 11 14  1  6  0  0  0
 11 16  1  0  0  0  0
 11  7  1  0  0  0  0
 12 23  1  6  0  0  0
 12  1  1  0  0  0  0
 13  5  1  0  0  0  0
 13  7  2  0  0  0  0
 15 20  1  0  0  0  0
 16  3  1  0  0  0  0
 17  8  1  0  0  0  0
 18  6  2  0  0  0  0
 18 14  1  0  0  0  0
 19 10  1  0  0  0  0
 20 19  1  0  0  0  0
 21 17  1  0  0  0  0
 22 25  1  0  0  0  0
 23 24  1  0  0  0  0
 25 24  2  0  0  0  0
 26 22  2  0  0  0  0
 26 27  1  0  0  0  0
 27 23  2  0  0  0  0
M  END
>  <MODEL>
2

>  <REMARK>
 VINA RESULT:      -4.9      2.295      5.588
  Name = 
  1 active torsions:
  status: ('A' for Active; 'I' for Inactive)
    1  A    between atoms: C_9  and  C_15
                            x       y       z     vdW  Elec       q    Type
                         _______ _______ _______ _____ _____    ______ ____

>  <TORSDO>
F 1

$$$$
=
 OpenBabel11052423123D

 27 31  0  0  1  0  0  0  0  0999 V2000
  159.3090  212.0960  152.7690 N   0  0  0  0  0  0  0  0  0  0  0  0
  160.4470  210.3050  151.5340 C   0  0  2  0  0  3  0  0  0  0  0  0
  159.6490  210.0260  154.0150 C   0  0  1  0  0  3  0  0  0  0  0  0
  162.0790  206.6790  151.6250 N   0  0  0  0  0  0  0  0  0  0  0  0
  161.3590  204.6780  153.0430 C   0  0  0  0  0  1  0  0  0  0  0  0
  161.5870  209.9570  150.5920 C   0  0  0  0  0  3  0  0  0  0  0  0
  161.0710  207.0980  153.6190 C   0  0  0  0  0  0  0  0  0  0  0  0
  160.4180  212.2940  156.4020 C   0  0  0  0  0  2  0  0  0  0  0  0
  160.4300  206.8690  154.9460 C   0  0  0  0  0  1  0  0  0  0  0  0
  159.7400  213.3900  155.5940 C   0  0  0  0  0  2  0  0  0  0  0  0
  161.4490  208.4270  153.0480 C   0  0  1  0  0  3  0  0  0  0  0  0
  160.4420  211.7880  151.9240 C   0  0  1  0  0  3  0  0  0  0  0  0
  161.5030  206.1430  152.8050 C   0  0  0  0  0  0  0  0  0  0  0  0
  162.0350  207.9620  151.7620 C   0  0  0  0  0  0  0  0  0  0  0  0
  158.9330  211.3240  153.7300 C   0  0  0  0  0  0  0  0  0  0  0  0
  160.2540  209.3510  152.7560 C   0  0  2  0  0  3  0  0  0  0  0  0
  161.2580  211.4120  155.4890 C   0  0  0  0  0  2  0  0  0  0  0  0
  162.2700  208.8570  150.6830 N   0  0  0  0  0  0  0  0  0  0  0  0
  158.2450  213.1310  155.3690 C   0  0  0  0  0  2  0  0  0  0  0  0
  157.8960  211.7920  154.7030 C   0  0  0  0  0  2  0  0  0  0  0  0
  160.5550  210.0780  155.2620 C   0  0  0  0  0  2  0  0  0  0  0  0
  160.4010  214.4120  148.5180 C   0  0  0  0  0  3  0  0  0  0  0  0
  160.4410  212.6980  150.7320 C   0  0  0  0  0  0  0  0  0  0  0  0
  159.3830  213.5960  150.5580 C   0  0  0  0  0  3  0  0  0  0  0  0
  159.3630  214.4530  149.4540 C   0  0  0  0  0  3  0  0  0  0  0  0
  161.4600  213.5150  148.6860 C   0  0  0  0  0  3  0  0  0  0  0  0
  161.4810  212.6580  149.7910 C   0  0  0  0  0  3  0  0  0  0  0  0
  1 15  2  0  0  0  0
  2  6  1  1  0  0  0
  2 12  1  0  0  0  0
  2 16  1  0  0  0  0
  3 21  1  1  0  0  0
  4 14  2  0  0  0  0
  4 13  1  0  0  0  0
  6 18  2  0  0  0  0
  7  9  1  0  0  0  0
 10  8  1  0  0  0  0
 11 14  1  6  0  0  0
 11  7  1  0  0  0  0
 12 23  1  6  0  0  0
 12  1  1  0  0  0  0
 13  5  1  0  0  0  0
 13  7  2  0  0  0  0
 15  3  1  0  0  0  0
 15 20  1  0  0  0  0
 16 11  1  0  0  0  0
 16  3  1  0  0  0  0
 17  8  1  0  0  0  0
 18 14  1  0  0  0  0
 19 10  1  0  0  0  0
 20 19  1  0  0  0  0
 21 17  1  0  0  0  0
 22 26  2  0  0  0  0
 22 25  1  0  0  0  0
 24 23  1  0  0  0  0
 25 24  2  0  0  0  0
 26 27  1  0  0  0  0
 27 23  2  0  0  0  0
M  END
>  <MODEL>
3

>  <REMARK>
 VINA RESULT:      -4.6      2.564      5.628
  Name = 
  1 active torsions:
  status: ('A' for Active; 'I' for Inactive)
    1  A    between atoms: C_9  and  C_15
                            x       y       z     vdW  Elec       q    Type
                         _______ _______ _______ _____ _____    ______ ____

>  <TORSDO>
F 1

$$$$
=
 OpenBabel11052423123D

 27 31  0  0  1  0  0  0  0  0999 V2000
  160.6420  205.0470  148.8190 N   0  0  0  0  0  0  0  0  0  0  0  0
  160.6350  205.1410  151.2710 C   0  0  2  0  0  3  0  0  0  0  0  0
  160.7520  207.2900  149.7740 C   0  0  1  0  0  3  0  0  0  0  0  0
  160.9760  207.3730  154.5460 N   0  0  0  0  0  0  0  0  0  0  0  0
  160.2380  209.7990  154.8640 C   0  0  0  0  0  1  0  0  0  0  0  0
  161.1850  204.5380  152.5530 C   0  0  0  0  0  3  0  0  0  0  0  0
  160.9460  208.7240  152.7180 C   0  0  0  0  0  0  0  0  0  0  0  0
  163.0000  207.5980  147.2690 C   0  0  0  0  0  2  0  0  0  0  0  0
  160.7960  209.9430  151.8720 C   0  0  0  0  0  1  0  0  0  0  0  0
  162.4520  206.3440  146.6070 C   0  0  0  0  0  2  0  0  0  0  0  0
  161.4830  207.4050  152.2620 C   0  0  1  0  0  3  0  0  0  0  0  0
  161.2340  204.4930  150.0170 C   0  0  1  0  0  3  0  0  0  0  0  0
  160.7330  208.6710  154.0260 C   0  0  0  0  0  0  0  0  0  0  0  0
  161.3860  206.6640  153.5480 C   0  0  0  0  0  0  0  0  0  0  0  0
  160.4230  206.3090  148.6750 C   0  0  0  0  0  0  0  0  0  0  0  0
  160.6150  206.7020  151.2040 C   0  0  2  0  0  3  0  0  0  0  0  0
  163.1310  207.3860  148.7700 C   0  0  0  0  0  2  0  0  0  0  0  0
  161.4760  205.2470  153.6010 N   0  0  0  0  0  0  0  0  0  0  0  0
  160.9770  206.4730  146.2070 C   0  0  0  0  0  2  0  0  0  0  0  0
  160.0110  206.8500  147.3410 C   0  0  0  0  0  2  0  0  0  0  0  0
  162.0170  208.1270  149.5010 C   0  0  0  0  0  2  0  0  0  0  0  0
  160.7890  200.2180  149.9510 C   0  0  0  0  0  3  0  0  0  0  0  0
  161.0820  203.0020  150.0090 C   0  0  0  0  0  0  0  0  0  0  0  0
  160.8340  202.3460  148.7980 C   0  0  0  0  0  3  0  0  0  0  0  0
  160.6890  200.9560  148.7680 C   0  0  0  0  0  3  0  0  0  0  0  0
  161.0340  200.8680  151.1640 C   0  0  0  0  0  3  0  0  0  0  0  0
  161.1790  202.2590  151.1940 C   0  0  0  0  0  3  0  0  0  0  0  0
  1 12  1  0  0  0  0
  2  6  1  1  0  0  0
  3 21  1  6  0  0  0
  3 16  1  0  0  0  0
  6 18  2  0  0  0  0
  7 13  2  0  0  0  0
  8 17  1  0  0  0  0
  9  7  1  0  0  0  0
 10  8  1  0  0  0  0
 11  7  1  1  0  0  0
 11 14  1  0  0  0  0
 12 23  1  1  0  0  0
 12  2  1  0  0  0  0
 13  4  1  0  0  0  0
 13  5  1  0  0  0  0
 14 18  1  0  0  0  0
 14  4  2  0  0  0  0
 15  1  2  0  0  0  0
 15  3  1  0  0  0  0
 16  2  1  0  0  0  0
 16 11  1  0  0  0  0
 17 21  1  0  0  0  0
 19 10  1  0  0  0  0
 19 20  1  0  0  0  0
 20 15  1  0  0  0  0
 22 26  1  0  0  0  0
 23 27  1  0  0  0  0
 24 23  2  0  0  0  0
 25 24  1  0  0  0  0
 25 22  2  0  0  0  0
 26 27  2  0  0  0  0
M  END
>  <MODEL>
4

>  <REMARK>
 VINA RESULT:      -4.1      2.731      6.144
  Name = 
  1 active torsions:
  status: ('A' for Active; 'I' for Inactive)
    1  A    between atoms: C_9  and  C_15
                            x       y       z     vdW  Elec       q    Type
                         _______ _______ _______ _____ _____    ______ ____

>  <TORSDO>
F 1

$$$$
=
 OpenBabel11052423123D

 27 31  0  0  1  0  0  0  0  0999 V2000
  160.7470  210.7000  151.4540 N   0  0  0  0  0  0  0  0  0  0  0  0
  161.3270  209.0500  149.7320 C   0  0  2  0  0  3  0  0  0  0  0  0
  160.5370  208.3670  152.1360 C   0  0  1  0  0  3  0  0  0  0  0  0
  161.9120  205.2260  148.8090 N   0  0  0  0  0  0  0  0  0  0  0  0
  160.7040  203.1870  149.7680 C   0  0  0  0  0  1  0  0  0  0  0  0
  162.3080  208.6710  148.6360 C   0  0  0  0  0  3  0  0  0  0  0  0
  161.0980  205.3700  150.9270 C   0  0  0  0  0  0  0  0  0  0  0  0
  161.9470  209.6770  154.9160 C   0  0  0  0  0  2  0  0  0  0  0  0
  160.4480  204.9860  152.2130 C   0  0  0  0  0  1  0  0  0  0  0  0
  161.5760  211.0780  154.4570 C   0  0  0  0  0  2  0  0  0  0  0  0
  161.8120  206.6560  150.6580 C   0  0  1  0  0  3  0  0  0  0  0  0
  161.7350  210.3350  150.4630 C   0  0  1  0  0  3  0  0  0  0  0  0
  161.2360  204.5760  149.8740 C   0  0  0  0  0  0  0  0  0  0  0  0
  162.2220  206.3980  149.2520 C   0  0  0  0  0  0  0  0  0  0  0  0
  160.1960  209.8340  152.2340 C   0  0  0  0  0  0  0  0  0  0  0  0
  160.9080  207.9000  150.7030 C   0  0  2  0  0  3  0  0  0  0  0  0
  162.4940  208.8690  153.7480 C   0  0  0  0  0  2  0  0  0  0  0  0
  162.6670  207.4460  148.4010 N   0  0  0  0  0  0  0  0  0  0  0  0
  160.0620  211.2810  154.3110 C   0  0  0  0  0  2  0  0  0  0  0  0
  159.3460  210.2910  153.3790 C   0  0  0  0  0  2  0  0  0  0  0  0
  161.4500  207.8650  153.2730 C   0  0  0  0  0  2  0  0  0  0  0  0
  162.3330  213.6530  147.7950 C   0  0  0  0  0  3  0  0  0  0  0  0
  161.9560  211.4860  149.5280 C   0  0  0  0  0  0  0  0  0  0  0  0
  161.0640  212.5630  149.5460 C   0  0  0  0  0  3  0  0  0  0  0  0
  161.2520  213.6460  148.6820 C   0  0  0  0  0  3  0  0  0  0  0  0
  163.2260  212.5780  147.7710 C   0  0  0  0  0  3  0  0  0  0  0  0
  163.0390  211.4950  148.6350 C   0  0  0  0  0  3  0  0  0  0  0  0
  1 15  2  0  0  0  0
  2  6  1  1  0  0  0
  2 12  1  0  0  0  0
  2 16  1  0  0  0  0
  3 15  1  0  0  0  0
  3 21  1  1  0  0  0
  4 14  2  0  0  0  0
  4 13  1  0  0  0  0
  5 13  1  0  0  0  0
  7  9  1  0  0  0  0
 10  8  1  0  0  0  0
 11 14  1  6  0  0  0
 11 16  1  0  0  0  0
 11  7  1  0  0  0  0
 12 23  1  6  0  0  0
 12  1  1  0  0  0  0
 13  7  2  0  0  0  0
 15 20  1  0  0  0  0
 16  3  1  0  0  0  0
 17  8  1  0  0  0  0
 18  6  2  0  0  0  0
 18 14  1  0  0  0  0
 19 10  1  0  0  0  0
 20 19  1  0  0  0  0
 21 17  1  0  0  0  0
 22 25  1  0  0  0  0
 23 24  1  0  0  0  0
 25 24  2  0  0  0  0
 26 22  2  0  0  0  0
 26 27  1  0  0  0  0
 27 23  2  0  0  0  0
M  END
>  <MODEL>
5

>  <REMARK>
 VINA RESULT:      -3.5      1.598      4.919
  Name = 
  1 active torsions:
  status: ('A' for Active; 'I' for Inactive)
    1  A    between atoms: C_9  and  C_15
                            x       y       z     vdW  Elec       q    Type
                         _______ _______ _______ _____ _____    ______ ____

>  <TORSDO>
F 1

$$$$
