=
 OpenBabel11052423063D

 27 31  0  0  1  0  0  0  0  0999 V2000
  162.8160  209.7760  151.7780 C   0  0  0  0  0  2  0  0  0  0  0  0
  161.6210  208.5840  149.9760 C   0  0  0  0  0  0  0  0  0  0  0  0
  160.7110  207.6900  152.1050 N   0  0  0  0  0  2  0  0  0  0  0  0
  160.8810  204.9630  148.1430 N   0  0  0  0  0  0  0  0  0  0  0  0
  161.4560  202.9100  149.2050 N   0  0  0  0  0  1  0  0  0  0  0  0
  161.9230  208.3590  148.5770 N   0  0  0  0  0  0  0  0  0  0  0  0
  161.0270  205.1050  150.4170 C   0  0  1  0  0  3  0  0  0  0  0  0
  160.3080  209.6510  155.2420 C   0  0  0  0  0  0  0  0  0  0  0  0
  161.5230  204.7100  151.7670 C   0  0  0  0  0  1  0  0  0  0  0  0
  159.5320  209.6140  156.3510 F   0  0  0  0  0  0  0  0  0  0  0  0
  160.7720  206.3370  150.0020 C   0  0  2  0  0  3  0  0  0  0  0  0
  162.0190  209.8280  150.5630 N   0  0  0  0  0  0  0  0  0  0  0  0
  161.0820  204.2820  149.2230 C   0  0  0  0  0  0  0  0  0  0  0  0
  160.5660  206.3350  148.5260 C   0  0  1  0  0  3  0  0  0  0  0  0
  161.9130  209.7210  152.9510 C   0  0  0  0  0  0  0  0  0  0  0  0
  161.0800  207.5850  150.7160 C   0  0  0  0  0  0  0  0  0  0  0  0
  160.1410  208.6930  154.2390 C   0  0  0  0  0  3  0  0  0  0  0  0
  161.4990  207.3280  147.9010 C   0  0  0  0  0  3  0  0  0  0  0  0
  161.2760  210.6460  155.1000 C   0  0  0  0  0  3  0  0  0  0  0  0
  162.0790  210.6780  153.9580 C   0  0  0  0  0  3  0  0  0  0  0  0
  160.9280  208.7220  153.0810 C   0  0  0  0  0  0  0  0  0  0  0  0
  161.1430  213.5460  148.7680 N   0  0  0  0  0  0  0  0  0  0  0  0
  161.7090  211.0950  149.9440 C   0  0  0  0  0  0  0  0  0  0  0  0
  160.7730  211.9670  150.5210 C   0  0  0  0  0  3  0  0  0  0  0  0
  160.5000  213.1940  149.9140 C   0  0  0  0  0  3  0  0  0  0  0  0
  162.0600  212.7270  148.1880 C   0  0  0  0  0  3  0  0  0  0  0  0
  162.3600  211.4910  148.7650 C   0  0  0  0  0  3  0  0  0  0  0  0
  1 15  1  0  0  0  0
  2 12  1  0  0  0  0
  2 16  2  0  0  0  0
  3 21  1  0  0  0  0
  4 14  1  0  0  0  0
  4 13  2  0  0  0  0
  5 13  1  0  0  0  0
  6  2  1  0  0  0  0
  7  9  1  6  0  0  0
  8 10  1  0  0  0  0
 11  7  1  0  0  0  0
 11 16  1  6  0  0  0
 12  1  1  0  0  0  0
 13  7  1  0  0  0  0
 14 18  1  6  0  0  0
 14 11  1  0  0  0  0
 15 21  2  0  0  0  0
 15 20  1  0  0  0  0
 16  3  1  0  0  0  0
 17  8  2  0  0  0  0
 18  6  2  0  0  0  0
 19  8  1  0  0  0  0
 20 19  2  0  0  0  0
 21 17  1  0  0  0  0
 22 25  1  0  0  0  0
 23 24  1  0  0  0  0
 23 12  1  0  0  0  0
 25 24  2  0  0  0  0
 26 27  1  0  0  0  0
 26 22  2  0  0  0  0
 27 23  2  0  0  0  0
M  END
>  <MODEL>
1

>  <REMARK>
 VINA RESULT:      -7.8      0.000      0.000
  Name = 
  1 active torsions:
  status: ('A' for Active; 'I' for Inactive)
    1  A    between atoms: C_9  and  N_15
                            x       y       z     vdW  Elec       q    Type
                         _______ _______ _______ _____ _____    ______ ____

>  <TORSDO>
F 1

$$$$
=
 OpenBabel11052423063D

 27 31  0  0  1  0  0  0  0  0999 V2000
  159.9930  205.0110  149.1610 C   0  0  0  0  0  2  0  0  0  0  0  0
  161.3240  207.0860  149.2860 C   0  0  0  0  0  0  0  0  0  0  0  0
  161.8410  205.8170  151.3560 N   0  0  0  0  0  2  0  0  0  0  0  0
  162.0010  210.6270  151.2930 N   0  0  0  0  0  0  0  0  0  0  0  0
  161.1050  210.9950  153.4690 N   0  0  0  0  0  1  0  0  0  0  0  0
  161.2060  208.3720  148.6300 N   0  0  0  0  0  0  0  0  0  0  0  0
  161.5460  208.7090  152.4440 C   0  0  1  0  0  3  0  0  0  0  0  0
  161.9630  202.1070  151.6080 C   0  0  0  0  0  0  0  0  0  0  0  0
  160.8310  207.8760  153.4530 C   0  0  0  0  0  1  0  0  0  0  0  0
  162.5670  201.1770  152.3860 F   0  0  0  0  0  0  0  0  0  0  0  0
  161.9630  208.3130  151.2500 C   0  0  2  0  0  3  0  0  0  0  0  0
  160.9570  205.9130  148.5520 N   0  0  0  0  0  0  0  0  0  0  0  0
  161.5910  210.1600  152.4250 C   0  0  0  0  0  0  0  0  0  0  0  0
  162.3760  209.4990  150.4470 C   0  0  1  0  0  3  0  0  0  0  0  0
  160.7130  204.0310  150.0080 C   0  0  0  0  0  0  0  0  0  0  0  0
  161.6660  207.0300  150.5970 C   0  0  0  0  0  0  0  0  0  0  0  0
  162.1870  203.4660  151.8410 C   0  0  0  0  0  3  0  0  0  0  0  0
  161.6310  209.4910  149.1460 C   0  0  0  0  0  3  0  0  0  0  0  0
  161.1150  201.7080  150.5750 C   0  0  0  0  0  3  0  0  0  0  0  0
  160.4890  202.6690  149.7790 C   0  0  0  0  0  3  0  0  0  0  0  0
  161.5790  204.4400  151.0410 C   0  0  0  0  0  0  0  0  0  0  0  0
  162.4060  205.1440  144.6630 N   0  0  0  0  0  0  0  0  0  0  0  0
  161.4600  205.6600  147.2230 C   0  0  0  0  0  0  0  0  0  0  0  0
  162.6560  204.9510  147.0290 C   0  0  0  0  0  3  0  0  0  0  0  0
  163.1160  204.7030  145.7350 C   0  0  0  0  0  3  0  0  0  0  0  0
  161.2410  205.8280  144.8160 C   0  0  0  0  0  3  0  0  0  0  0  0
  160.7480  206.0960  146.0940 C   0  0  0  0  0  3  0  0  0  0  0  0
  1 15  1  0  0  0  0
  2 16  2  0  0  0  0
  4 13  2  0  0  0  0
  6 18  2  0  0  0  0
  6  2  1  0  0  0  0
  7  9  1  6  0  0  0
  8 17  1  0  0  0  0
  8 10  1  0  0  0  0
 11 16  1  6  0  0  0
 11  7  1  0  0  0  0
 12  1  1  0  0  0  0
 12  2  1  0  0  0  0
 13  7  1  0  0  0  0
 13  5  1  0  0  0  0
 14 18  1  6  0  0  0
 14 11  1  0  0  0  0
 14  4  1  0  0  0  0
 15 21  1  0  0  0  0
 16  3  1  0  0  0  0
 19  8  2  0  0  0  0
 20 15  2  0  0  0  0
 20 19  1  0  0  0  0
 21  3  1  0  0  0  0
 21 17  2  0  0  0  0
 22 26  2  0  0  0  0
 22 25  1  0  0  0  0
 23 12  1  0  0  0  0
 24 23  1  0  0  0  0
 25 24  2  0  0  0  0
 26 27  1  0  0  0  0
 27 23  2  0  0  0  0
M  END
>  <MODEL>
2

>  <REMARK>
 VINA RESULT:      -7.5      2.750      6.504
  Name = 
  1 active torsions:
  status: ('A' for Active; 'I' for Inactive)
    1  A    between atoms: C_9  and  N_15
                            x       y       z     vdW  Elec       q    Type
                         _______ _______ _______ _____ _____    ______ ____

>  <TORSDO>
F 1

$$$$
=
 OpenBabel11052423063D

 27 31  0  0  1  0  0  0  0  0999 V2000
  159.6050  210.4690  152.6970 C   0  0  0  0  0  2  0  0  0  0  0  0
  160.9950  208.4640  153.0730 C   0  0  0  0  0  0  0  0  0  0  0  0
  161.4850  209.2100  150.7570 N   0  0  0  0  0  2  0  0  0  0  0  0
  161.7830  204.5640  151.9790 N   0  0  0  0  0  0  0  0  0  0  0  0
  160.9070  203.6560  149.9590 N   0  0  0  0  0  1  0  0  0  0  0  0
  160.9110  207.3720  154.0210 N   0  0  0  0  0  0  0  0  0  0  0  0
  161.2780  206.1340  150.4000 C   0  0  1  0  0  3  0  0  0  0  0  0
  161.5010  212.7520  149.6160 C   0  0  0  0  0  0  0  0  0  0  0  0
  160.5440  206.6780  149.2220 C   0  0  0  0  0  1  0  0  0  0  0  0
  162.0810  213.4830  148.6350 F   0  0  0  0  0  0  0  0  0  0  0  0
  161.6780  206.8180  151.4620 C   0  0  2  0  0  3  0  0  0  0  0  0
  160.5910  209.7680  153.5040 N   0  0  0  0  0  0  0  0  0  0  0  0
  161.3640  204.7320  150.7690 C   0  0  0  0  0  0  0  0  0  0  0  0
  162.1220  205.8740  152.5270 C   0  0  1  0  0  3  0  0  0  0  0  0
  160.2990  211.2350  151.6360 C   0  0  0  0  0  0  0  0  0  0  0  0
  161.3420  208.2120  151.7860 C   0  0  0  0  0  0  0  0  0  0  0  0
  161.7650  211.3830  149.7180 C   0  0  0  0  0  3  0  0  0  0  0  0
  161.3700  206.1730  153.7890 C   0  0  0  0  0  3  0  0  0  0  0  0
  160.6370  213.3630  150.5240 C   0  0  0  0  0  3  0  0  0  0  0  0
  160.0350  212.6050  151.5300 C   0  0  0  0  0  3  0  0  0  0  0  0
  161.1810  210.6140  150.7310 C   0  0  0  0  0  0  0  0  0  0  0  0
  162.0250  211.4350  157.1060 N   0  0  0  0  0  0  0  0  0  0  0  0
  161.0810  210.3500  154.7310 C   0  0  0  0  0  0  0  0  0  0  0  0
  160.1940  210.8910  155.6740 C   0  0  0  0  0  3  0  0  0  0  0  0
  160.6880  211.4340  156.8610 C   0  0  0  0  0  3  0  0  0  0  0  0
  162.9110  210.9130  156.2160 C   0  0  0  0  0  3  0  0  0  0  0  0
  162.4550  210.3610  155.0170 C   0  0  0  0  0  3  0  0  0  0  0  0
  1 12  1  0  0  0  0
  2 12  1  0  0  0  0
  2  6  1  0  0  0  0
  3 16  1  0  0  0  0
  4 14  1  0  0  0  0
  5 13  1  0  0  0  0
  7  9  1  1  0  0  0
  7 13  1  0  0  0  0
  7 11  1  0  0  0  0
  8 17  2  0  0  0  0
  8 19  1  0  0  0  0
 10  8  1  0  0  0  0
 11 16  1  1  0  0  0
 11 14  1  0  0  0  0
 12 23  1  0  0  0  0
 13  4  2  0  0  0  0
 14 18  1  1  0  0  0
 15  1  1  0  0  0  0
 16  2  2  0  0  0  0
 17 21  1  0  0  0  0
 18  6  2  0  0  0  0
 19 20  2  0  0  0  0
 20 15  1  0  0  0  0
 21  3  1  0  0  0  0
 21 15  2  0  0  0  0
 23 27  2  0  0  0  0
 23 24  1  0  0  0  0
 24 25  2  0  0  0  0
 25 22  1  0  0  0  0
 26 22  2  0  0  0  0
 27 26  1  0  0  0  0
M  END
>  <MODEL>
3

>  <REMARK>
 VINA RESULT:      -6.5      2.588      4.942
  Name = 
  1 active torsions:
  status: ('A' for Active; 'I' for Inactive)
    1  A    between atoms: C_9  and  N_15
                            x       y       z     vdW  Elec       q    Type
                         _______ _______ _______ _____ _____    ______ ____

>  <TORSDO>
F 1

$$$$
=
 OpenBabel11052423063D

 27 31  0  0  1  0  0  0  0  0999 V2000
  162.8180  209.5440  149.9560 C   0  0  0  0  0  2  0  0  0  0  0  0
  161.6040  208.1070  151.5540 C   0  0  0  0  0  0  0  0  0  0  0  0
  160.8170  210.4220  151.9830 N   0  0  0  0  0  2  0  0  0  0  0  0
  160.9430  207.1530  155.5130 N   0  0  0  0  0  0  0  0  0  0  0  0
  161.6460  208.6110  157.2610 N   0  0  0  0  0  1  0  0  0  0  0  0
  161.8590  206.7790  152.0740 N   0  0  0  0  0  0  0  0  0  0  0  0
  161.1730  209.3300  154.8670 C   0  0  1  0  0  3  0  0  0  0  0  0
  160.4570  213.0670  149.3900 C   0  0  0  0  0  0  0  0  0  0  0  0
  161.7390  210.7080  154.9370 C   0  0  0  0  0  1  0  0  0  0  0  0
  159.7290  214.1930  149.2060 F   0  0  0  0  0  0  0  0  0  0  0  0
  160.8510  208.6680  153.7660 C   0  0  2  0  0  3  0  0  0  0  0  0
  161.9720  208.3870  150.1990 N   0  0  0  0  0  0  0  0  0  0  0  0
  161.2150  208.3450  155.9310 C   0  0  0  0  0  0  0  0  0  0  0  0
  160.5860  207.2400  154.1010 C   0  0  1  0  0  3  0  0  0  0  0  0
  161.9660  210.7430  149.7790 C   0  0  0  0  0  0  0  0  0  0  0  0
  161.1350  209.0740  152.3810 C   0  0  0  0  0  0  0  0  0  0  0  0
  160.2910  212.3080  150.5520 C   0  0  0  0  0  3  0  0  0  0  0  0
  161.4520  206.3680  153.2420 C   0  0  0  0  0  3  0  0  0  0  0  0
  161.3770  212.6640  148.4210 C   0  0  0  0  0  3  0  0  0  0  0  0
  162.1320  211.5060  148.6170 C   0  0  0  0  0  3  0  0  0  0  0  0
  161.0290  211.1360  150.7540 C   0  0  0  0  0  0  0  0  0  0  0  0
  160.8570  205.8260  147.0360 N   0  0  0  0  0  0  0  0  0  0  0  0
  161.5850  207.5210  149.1110 C   0  0  0  0  0  0  0  0  0  0  0  0
  162.3340  207.4770  147.9250 C   0  0  0  0  0  3  0  0  0  0  0  0
  161.9510  206.6200  146.8920 C   0  0  0  0  0  3  0  0  0  0  0  0
  160.1140  205.8390  148.1740 C   0  0  0  0  0  3  0  0  0  0  0  0
  160.4650  206.6830  149.2300 C   0  0  0  0  0  3  0  0  0  0  0  0
  1 12  1  0  0  0  0
  2  6  1  0  0  0  0
  2 16  2  0  0  0  0
  3 16  1  0  0  0  0
  4 13  2  0  0  0  0
  6 18  2  0  0  0  0
  7  9  1  6  0  0  0
  7 13  1  0  0  0  0
  8 17  1  0  0  0  0
 10  8  1  0  0  0  0
 11 16  1  6  0  0  0
 11 14  1  0  0  0  0
 11  7  1  0  0  0  0
 12  2  1  0  0  0  0
 13  5  1  0  0  0  0
 14 18  1  6  0  0  0
 14  4  1  0  0  0  0
 15  1  1  0  0  0  0
 15 21  1  0  0  0  0
 17 21  2  0  0  0  0
 19 20  1  0  0  0  0
 19  8  2  0  0  0  0
 20 15  2  0  0  0  0
 21  3  1  0  0  0  0
 22 26  1  0  0  0  0
 23 27  1  0  0  0  0
 23 12  1  0  0  0  0
 24 23  2  0  0  0  0
 25 22  2  0  0  0  0
 25 24  1  0  0  0  0
 26 27  2  0  0  0  0
M  END
>  <MODEL>
4

>  <REMARK>
 VINA RESULT:      -5.8      2.326      5.778
  Name = 
  1 active torsions:
  status: ('A' for Active; 'I' for Inactive)
    1  A    between atoms: C_9  and  N_15
                            x       y       z     vdW  Elec       q    Type
                         _______ _______ _______ _____ _____    ______ ____

>  <TORSDO>
F 1

$$$$
=
 OpenBabel11052423063D

 27 31  0  0  1  0  0  0  0  0999 V2000
  158.0420  211.7770  152.9400 C   0  0  0  0  0  2  0  0  0  0  0  0
  159.5470  210.3740  154.3050 C   0  0  0  0  0  0  0  0  0  0  0  0
  160.6680  210.6380  152.1060 N   0  0  0  0  0  2  0  0  0  0  0  0
  161.3380  206.6870  154.7710 N   0  0  0  0  0  0  0  0  0  0  0  0
  161.3890  205.1130  152.9840 N   0  0  0  0  0  1  0  0  0  0  0  0
  159.3330  209.5650  155.4870 N   0  0  0  0  0  0  0  0  0  0  0  0
  161.1420  207.6290  152.7010 C   0  0  1  0  0  3  0  0  0  0  0  0
  160.4540  213.6660  149.9540 C   0  0  0  0  0  0  0  0  0  0  0  0
  160.7770  207.6520  151.2560 C   0  0  0  0  0  1  0  0  0  0  0  0
  161.1990  214.2650  148.9950 F   0  0  0  0  0  0  0  0  0  0  0  0
  161.0230  208.6330  153.5580 C   0  0  2  0  0  3  0  0  0  0  0  0
  158.7960  211.5860  154.1690 N   0  0  0  0  0  0  0  0  0  0  0  0
  161.3410  206.4360  153.5040 C   0  0  0  0  0  0  0  0  0  0  0  0
  161.2300  208.1310  154.9460 C   0  0  1  0  0  3  0  0  0  0  0  0
  158.9140  212.4200  151.9300 C   0  0  0  0  0  0  0  0  0  0  0  0
  160.3550  209.9200  153.3160 C   0  0  0  0  0  0  0  0  0  0  0  0
  160.9030  212.4870  150.5540 C   0  0  0  0  0  3  0  0  0  0  0  0
  160.0480  208.5150  155.7850 C   0  0  0  0  0  3  0  0  0  0  0  0
  159.2350  214.2240  150.3420 C   0  0  0  0  0  3  0  0  0  0  0  0
  158.4660  213.6000  151.3250 C   0  0  0  0  0  3  0  0  0  0  0  0
  160.1500  211.8590  151.5530 C   0  0  0  0  0  0  0  0  0  0  0  0
  158.5680  214.4530  157.2570 N   0  0  0  0  0  0  0  0  0  0  0  0
  158.7200  212.5580  155.2330 C   0  0  0  0  0  0  0  0  0  0  0  0
  159.8850  213.1160  155.7810 C   0  0  0  0  0  3  0  0  0  0  0  0
  159.7880  214.0660  156.7990 C   0  0  0  0  0  3  0  0  0  0  0  0
  157.4200  213.9360  156.7430 C   0  0  0  0  0  3  0  0  0  0  0  0
  157.4750  212.9840  155.7240 C   0  0  0  0  0  3  0  0  0  0  0  0
  1 12  1  0  0  0  0
  2  6  1  0  0  0  0
  3 16  1  0  0  0  0
  4 14  1  0  0  0  0
  5 13  1  0  0  0  0
  6 18  2  0  0  0  0
  7  9  1  1  0  0  0
  7 13  1  0  0  0  0
  7 11  1  0  0  0  0
  8 19  2  0  0  0  0
  8 17  1  0  0  0  0
 10  8  1  0  0  0  0
 11 16  1  1  0  0  0
 11 14  1  0  0  0  0
 12  2  1  0  0  0  0
 12 23  1  0  0  0  0
 13  4  2  0  0  0  0
 14 18  1  1  0  0  0
 15  1  1  0  0  0  0
 16  2  2  0  0  0  0
 17 21  2  0  0  0  0
 19 20  1  0  0  0  0
 20 15  2  0  0  0  0
 21 15  1  0  0  0  0
 21  3  1  0  0  0  0
 23 27  2  0  0  0  0
 23 24  1  0  0  0  0
 24 25  2  0  0  0  0
 25 22  1  0  0  0  0
 26 22  2  0  0  0  0
 27 26  1  0  0  0  0
M  END
>  <MODEL>
5

>  <REMARK>
 VINA RESULT:      -5.5      3.575      6.129
  Name = 
  1 active torsions:
  status: ('A' for Active; 'I' for Inactive)
    1  A    between atoms: C_9  and  N_15
                            x       y       z     vdW  Elec       q    Type
                         _______ _______ _______ _____ _____    ______ ____

>  <TORSDO>
F 1

$$$$
=
 OpenBabel11052423063D

 27 31  0  0  1  0  0  0  0  0999 V2000
  161.6560  210.8810  140.4380 C   0  0  0  0  0  2  0  0  0  0  0  0
  160.4580  212.1840  142.1590 C   0  0  0  0  0  0  0  0  0  0  0  0
  162.5480  213.4370  141.6870 N   0  0  0  0  0  2  0  0  0  0  0  0
  160.4770  213.6180  146.0270 N   0  0  0  0  0  0  0  0  0  0  0  0
  162.4750  213.6250  147.3240 N   0  0  0  0  0  1  0  0  0  0  0  0
  159.4180  211.8390  143.1070 N   0  0  0  0  0  0  0  0  0  0  0  0
  162.3890  213.6140  144.7810 C   0  0  1  0  0  3  0  0  0  0  0  0
  164.2330  213.6010  138.3730 C   0  0  0  0  0  0  0  0  0  0  0  0
  163.8290  213.3280  144.5150 C   0  0  0  0  0  1  0  0  0  0  0  0
  165.0620  214.4440  137.7150 F   0  0  0  0  0  0  0  0  0  0  0  0
  161.3980  213.5390  143.9060 C   0  0  2  0  0  3  0  0  0  0  0  0
  160.4410  211.5500  140.8750 N   0  0  0  0  0  0  0  0  0  0  0  0
  161.7660  213.6650  146.0910 C   0  0  0  0  0  0  0  0  0  0  0  0
  160.0930  213.6280  144.6200 C   0  0  1  0  0  3  0  0  0  0  0  0
  162.5250  211.8570  139.7410 C   0  0  0  0  0  0  0  0  0  0  0  0
  161.4720  213.0000  142.5400 C   0  0  0  0  0  0  0  0  0  0  0  0
  163.7980  213.9130  139.6640 C   0  0  0  0  0  3  0  0  0  0  0  0
  159.2520  212.4430  144.2520 C   0  0  0  0  0  3  0  0  0  0  0  0
  163.8140  212.4170  137.7650 C   0  0  0  0  0  3  0  0  0  0  0  0
  162.9640  211.5460  138.4490 C   0  0  0  0  0  3  0  0  0  0  0  0
  162.9340  213.0570  140.3560 C   0  0  0  0  0  0  0  0  0  0  0  0
  156.9710  211.4260  138.4760 N   0  0  0  0  0  0  0  0  0  0  0  0
  159.2480  211.5040  140.0650 C   0  0  0  0  0  0  0  0  0  0  0  0
  158.3560  212.5870  140.0370 C   0  0  0  0  0  3  0  0  0  0  0  0
  157.2160  212.5290  139.2340 C   0  0  0  0  0  3  0  0  0  0  0  0
  157.8190  210.3630  138.4760 C   0  0  0  0  0  3  0  0  0  0  0  0
  158.9700  210.3840  139.2660 C   0  0  0  0  0  3  0  0  0  0  0  0
  1 12  1  0  0  0  0
  2 16  2  0  0  0  0
  2  6  1  0  0  0  0
  3 16  1  0  0  0  0
  4 13  2  0  0  0  0
  6 18  2  0  0  0  0
  7  9  1  1  0  0  0
  7 13  1  0  0  0  0
  8 17  1  0  0  0  0
 10  8  1  0  0  0  0
 11 16  1  1  0  0  0
 11 14  1  0  0  0  0
 11  7  1  0  0  0  0
 12  2  1  0  0  0  0
 13  5  1  0  0  0  0
 14 18  1  1  0  0  0
 14  4  1  0  0  0  0
 15 21  1  0  0  0  0
 15  1  1  0  0  0  0
 17 21  2  0  0  0  0
 19  8  2  0  0  0  0
 19 20  1  0  0  0  0
 20 15  2  0  0  0  0
 21  3  1  0  0  0  0
 22 25  1  0  0  0  0
 23 12  1  0  0  0  0
 24 23  1  0  0  0  0
 25 24  2  0  0  0  0
 26 22  2  0  0  0  0
 26 27  1  0  0  0  0
 27 23  2  0  0  0  0
M  END
>  <MODEL>
6

>  <REMARK>
 VINA RESULT:      -5.0      8.414     12.040
  Name = 
  1 active torsions:
  status: ('A' for Active; 'I' for Inactive)
    1  A    between atoms: C_9  and  N_15
                            x       y       z     vdW  Elec       q    Type
                         _______ _______ _______ _____ _____    ______ ____

>  <TORSDO>
F 1

$$$$
=
 OpenBabel11052423063D

 27 31  0  0  1  0  0  0  0  0999 V2000
  162.8230  208.3020  151.6890 C   0  0  0  0  0  2  0  0  0  0  0  0
  161.7150  207.3940  149.6780 C   0  0  0  0  0  0  0  0  0  0  0  0
  160.7080  206.2030  151.6090 N   0  0  0  0  0  2  0  0  0  0  0  0
  161.0650  204.0840  147.3020 N   0  0  0  0  0  0  0  0  0  0  0  0
  161.5940  201.8950  148.0770 N   0  0  0  0  0  1  0  0  0  0  0  0
  162.0820  207.3750  148.2770 N   0  0  0  0  0  0  0  0  0  0  0  0
  161.1050  203.8910  149.5760 C   0  0  1  0  0  3  0  0  0  0  0  0
  160.1560  207.6850  154.9770 C   0  0  0  0  0  0  0  0  0  0  0  0
  161.5380  203.3000  150.8750 C   0  0  0  0  0  1  0  0  0  0  0  0
  159.3300  207.4890  156.0310 F   0  0  0  0  0  0  0  0  0  0  0  0
  160.8680  205.1720  149.3350 C   0  0  2  0  0  3  0  0  0  0  0  0
  162.0830  208.5360  150.4600 N   0  0  0  0  0  0  0  0  0  0  0  0
  161.2170  203.2520  148.2780 C   0  0  0  0  0  0  0  0  0  0  0  0
  160.7310  205.3870  147.8670 C   0  0  1  0  0  3  0  0  0  0  0  0
  161.8660  208.0800  152.7980 C   0  0  0  0  0  0  0  0  0  0  0  0
  161.1410  206.3010  150.2380 C   0  0  0  0  0  0  0  0  0  0  0  0
  160.0380  206.8850  153.8370 C   0  0  0  0  0  3  0  0  0  0  0  0
  161.6910  206.4560  147.4380 C   0  0  0  0  0  3  0  0  0  0  0  0
  161.1290  208.6840  155.0280 C   0  0  0  0  0  3  0  0  0  0  0  0
  161.9840  208.8790  153.9420 C   0  0  0  0  0  3  0  0  0  0  0  0
  160.8770  207.0790  152.7350 C   0  0  0  0  0  0  0  0  0  0  0  0
  161.2220  212.4620  149.1700 N   0  0  0  0  0  0  0  0  0  0  0  0
  161.8000  209.8820  150.0190 C   0  0  0  0  0  0  0  0  0  0  0  0
  161.9850  210.2540  148.6790 C   0  0  0  0  0  3  0  0  0  0  0  0
  161.6920  211.5560  148.2710 C   0  0  0  0  0  3  0  0  0  0  0  0
  161.0260  212.1320  150.4750 C   0  0  0  0  0  3  0  0  0  0  0  0
  161.3090  210.8390  150.9210 C   0  0  0  0  0  3  0  0  0  0  0  0
  1 15  1  0  0  0  0
  2 16  2  0  0  0  0
  2 12  1  0  0  0  0
  3 21  1  0  0  0  0
  4 14  1  0  0  0  0
  4 13  2  0  0  0  0
  5 13  1  0  0  0  0
  6  2  1  0  0  0  0
  7  9  1  6  0  0  0
  8 19  1  0  0  0  0
  8 10  1  0  0  0  0
 11  7  1  0  0  0  0
 11 16  1  6  0  0  0
 12  1  1  0  0  0  0
 13  7  1  0  0  0  0
 14 18  1  6  0  0  0
 14 11  1  0  0  0  0
 15 20  1  0  0  0  0
 16  3  1  0  0  0  0
 17  8  2  0  0  0  0
 18  6  2  0  0  0  0
 20 19  2  0  0  0  0
 21 15  2  0  0  0  0
 21 17  1  0  0  0  0
 22 26  1  0  0  0  0
 23 12  1  0  0  0  0
 23 27  1  0  0  0  0
 24 23  2  0  0  0  0
 25 24  1  0  0  0  0
 25 22  2  0  0  0  0
 26 27  2  0  0  0  0
M  END
>  <MODEL>
7

>  <REMARK>
 VINA RESULT:      -4.8      1.301      1.729
  Name = 
  1 active torsions:
  status: ('A' for Active; 'I' for Inactive)
    1  A    between atoms: C_9  and  N_15
                            x       y       z     vdW  Elec       q    Type
                         _______ _______ _______ _____ _____    ______ ____

>  <TORSDO>
F 1

$$$$
