=
 OpenBabel11052422213D

 25 29  0  0  1  0  0  0  0  0999 V2000
  159.8390  212.3620  154.9740 C   0  0  1  0  0  3  0  0  0  0  0  0
  160.9700  211.3180  154.8210 C   0  0  0  0  0  0  0  0  0  0  0  0
  161.0360  212.6900  157.2590 C   0  0  0  0  0  2  0  0  0  0  0  0
  158.4900  211.7350  155.0020 C   0  0  1  0  0  3  0  0  0  0  0  0
  160.9200  209.1500  153.5650 C   0  0  0  0  0  0  0  0  0  0  0  0
  155.4700  212.2460  156.5310 O   0  0  0  0  0  0  0  0  0  0  0  0
  161.2040  211.1960  157.2510 C   0  0  0  0  0  2  0  0  0  0  0  0
  157.8230  212.0200  156.0840 C   0  0  2  0  0  3  0  0  0  0  0  0
  156.4220  211.9590  155.7600 C   0  0  0  0  0  0  0  0  0  0  0  0
  161.3620  209.0380  156.1230 C   0  0  0  0  0  0  0  0  0  0  0  0
  159.9920  207.0120  156.4710 C   0  0  0  0  0  1  0  0  0  0  0  0
  160.8030  210.4820  153.5870 C   0  0  0  0  0  3  0  0  0  0  0  0
  156.2730  211.5930  154.4340 O   0  0  0  0  0  0  0  0  0  0  0  0
  159.8910  213.1290  156.3320 C   0  0  2  0  0  3  0  0  0  0  0  0
  158.5370  212.9100  157.0230 C   0  0  0  0  0  2  0  0  0  0  0  0
  161.2380  208.3140  154.7800 C   0  0  0  0  0  0  0  0  0  0  0  0
  157.5670  211.4610  153.8460 C   0  0  0  0  0  2  0  0  0  0  0  0
  160.0690  208.3410  155.7490 C   0  0  2  0  0  3  0  0  0  0  0  0
  161.1790  210.5280  156.0910 C   0  0  0  0  0  0  0  0  0  0  0  0
  160.7180  208.4470  152.2600 C   0  0  0  0  0  2  0  0  0  0  0  0
  161.2090  207.0100  152.3400 C   0  0  0  0  0  2  0  0  0  0  0  0
  161.3540  206.4210  150.9410 C   0  0  0  0  0  2  0  0  0  0  0  0
  160.7130  205.0420  150.8160 C   0  0  0  0  0  3  0  0  0  0  0  0
  161.0490  204.3840  149.4890 C   0  0  0  0  0  1  0  0  0  0  0  0
  161.1060  204.1410  151.9720 C   0  0  0  0  0  1  0  0  0  0  0  0
  1  2  1  1  0  0  0
  1  4  1  0  0  0  0
  1 14  1  0  0  0  0
  2 19  1  0  0  0  0
  4 17  1  6  0  0  0
  4  8  1  0  0  0  0
  5 12  1  0  0  0  0
  5 16  2  3  0  0  0
  7  3  1  0  0  0  0
  8 15  1  6  0  0  0
  9  8  1  0  0  0  0
  9  6  2  0  0  0  0
 12  2  2  0  0  0  0
 13  9  1  0  0  0  0
 14 15  1  1  0  0  0
 14  3  1  0  0  0  0
 16 18  1  0  0  0  0
 16 10  1  0  0  0  0
 17 13  1  0  0  0  0
 18 10  1  0  0  0  0
 18 11  1  1  0  0  0
 19 10  2  3  0  0  0
 19  7  1  0  0  0  0
 20 21  1  0  0  0  0
 20  5  1  0  0  0  0
 22 21  1  0  0  0  0
 23 22  1  0  0  0  0
 23 25  1  0  0  0  0
 24 23  1  0  0  0  0
M  END
>  <MODEL>
1

>  <REMARK>
 VINA RESULT:      -6.8      0.000      0.000
  Name = 
  4 active torsions:
  status: ('A' for Active; 'I' for Inactive)
    1  A    between atoms: C_2  and  C_21
    2  A    between atoms: C_6  and  C_15
    3  A    between atoms: C_15  and  C_25
    4  A    between atoms: C_21  and  C_25
                            x       y       z     vdW  Elec       q    Type
                         _______ _______ _______ _____ _____    ______ ____

>  <TORSDO>
F 4

$$$$
=
 OpenBabel11052422213D

 25 29  0  0  1  0  0  0  0  0999 V2000
  160.0400  209.8220  156.0360 C   0  0  1  0  0  3  0  0  0  0  0  0
  159.5950  209.0600  154.7650 C   0  0  0  0  0  0  0  0  0  0  0  0
  158.7760  211.7360  154.8110 C   0  0  0  0  0  2  0  0  0  0  0  0
  161.5200  209.9430  156.1330 C   0  0  1  0  0  3  0  0  0  0  0  0
  160.7680  207.1830  153.5910 C   0  0  0  0  0  0  0  0  0  0  0  0
  163.8240  212.2110  157.2610 O   0  0  0  0  0  0  0  0  0  0  0  0
  159.3860  211.1750  153.5560 C   0  0  0  0  0  2  0  0  0  0  0  0
  161.9210  211.1810  156.2110 C   0  0  2  0  0  3  0  0  0  0  0  0
  163.1690  211.1900  156.9250 C   0  0  0  0  0  0  0  0  0  0  0  0
  160.3700  209.3690  152.2440 C   0  0  0  0  0  0  0  0  0  0  0  0
  162.5650  209.3050  151.1120 C   0  0  0  0  0  1  0  0  0  0  0  0
  160.1970  207.6890  154.6890 C   0  0  0  0  0  3  0  0  0  0  0  0
  163.5210  209.8920  157.2520 O   0  0  0  0  0  0  0  0  0  0  0  0
  159.5690  211.3100  156.0570 C   0  0  2  0  0  3  0  0  0  0  0  0
  160.8290  212.1760  156.2050 C   0  0  0  0  0  2  0  0  0  0  0  0
  160.8810  207.9270  152.2820 C   0  0  0  0  0  0  0  0  0  0  0  0
  162.4880  209.0120  156.8100 C   0  0  0  0  0  2  0  0  0  0  0  0
  161.8490  209.0880  152.4280 C   0  0  2  0  0  3  0  0  0  0  0  0
  159.7770  209.8960  153.5190 C   0  0  0  0  0  0  0  0  0  0  0  0
  161.3360  205.8000  153.6650 C   0  0  0  0  0  2  0  0  0  0  0  0
  160.7690  204.9240  152.5590 C   0  0  0  0  0  2  0  0  0  0  0  0
  161.8860  204.4450  151.6390 C   0  0  0  0  0  2  0  0  0  0  0  0
  161.4330  204.3050  150.1890 C   0  0  0  0  0  3  0  0  0  0  0  0
  160.7700  202.9630  149.9340 C   0  0  0  0  0  1  0  0  0  0  0  0
  160.5100  205.4410  149.7840 C   0  0  0  0  0  1  0  0  0  0  0  0
  1  2  1  6  0  0  0
  1 14  1  0  0  0  0
  1  4  1  0  0  0  0
  4  8  1  0  0  0  0
  4 17  1  1  0  0  0
  5 20  1  0  0  0  0
  5 12  2  0  0  0  0
  7  3  1  0  0  0  0
  8 15  1  1  0  0  0
  8  9  1  0  0  0  0
  9 13  1  0  0  0  0
  9  6  2  0  0  0  0
 10 16  2  0  0  0  0
 10 18  1  0  0  0  0
 10 19  1  0  0  0  0
 12  2  1  0  0  0  0
 14  3  1  6  0  0  0
 14 15  1  0  0  0  0
 16 18  1  0  0  0  0
 16  5  1  0  0  0  0
 17 13  1  0  0  0  0
 18 11  1  6  0  0  0
 19  7  1  0  0  0  0
 19  2  2  0  0  0  0
 21 20  1  0  0  0  0
 22 21  1  0  0  0  0
 23 22  1  0  0  0  0
 24 23  1  0  0  0  0
 25 23  1  0  0  0  0
M  END
>  <MODEL>
2

>  <REMARK>
 VINA RESULT:      -6.0      2.663      4.168
  Name = 
  4 active torsions:
  status: ('A' for Active; 'I' for Inactive)
    1  A    between atoms: C_2  and  C_21
    2  A    between atoms: C_6  and  C_15
    3  A    between atoms: C_15  and  C_25
    4  A    between atoms: C_21  and  C_25
                            x       y       z     vdW  Elec       q    Type
                         _______ _______ _______ _____ _____    ______ ____

>  <TORSDO>
F 4

$$$$
=
 OpenBabel11052422213D

 25 29  0  0  1  0  0  0  0  0999 V2000
  160.5390  211.8510  154.7090 C   0  0  1  0  0  3  0  0  0  0  0  0
  161.5830  210.7510  154.4020 C   0  0  0  0  0  0  0  0  0  0  0  0
  161.4500  211.4430  157.1110 C   0  0  0  0  0  2  0  0  0  0  0  0
  159.1480  211.4040  154.4300 C   0  0  1  0  0  3  0  0  0  0  0  0
  161.5050  208.9940  152.6180 C   0  0  0  0  0  0  0  0  0  0  0  0
  156.0100  211.8720  155.7180 O   0  0  0  0  0  0  0  0  0  0  0  0
  161.4830  209.9910  156.7240 C   0  0  0  0  0  2  0  0  0  0  0  0
  158.3720  211.4850  155.4730 C   0  0  2  0  0  3  0  0  0  0  0  0
  157.0260  211.6770  155.0020 C   0  0  0  0  0  0  0  0  0  0  0  0
  161.5950  208.1850  155.0860 C   0  0  0  0  0  0  0  0  0  0  0  0
  160.0150  206.3180  154.7390 C   0  0  0  0  0  1  0  0  0  0  0  0
  161.5050  210.2800  152.9810 C   0  0  0  0  0  3  0  0  0  0  0  0
  157.0200  211.6790  153.6180 O   0  0  0  0  0  0  0  0  0  0  0  0
  160.4800  212.2370  156.2200 C   0  0  2  0  0  3  0  0  0  0  0  0
  159.0330  212.0150  156.6840 C   0  0  0  0  0  2  0  0  0  0  0  0
  161.5840  207.8450  153.5940 C   0  0  0  0  0  0  0  0  0  0  0  0
  158.3640  211.5450  153.1540 C   0  0  0  0  0  2  0  0  0  0  0  0
  160.3050  207.7670  154.4080 C   0  0  2  0  0  3  0  0  0  0  0  0
  161.5510  209.6460  155.4320 C   0  0  0  0  0  0  0  0  0  0  0  0
  161.4140  208.6730  151.1590 C   0  0  0  0  0  2  0  0  0  0  0  0
  160.5830  207.4190  150.9340 C   0  0  0  0  0  2  0  0  0  0  0  0
  161.3790  206.3930  150.1350 C   0  0  0  0  0  2  0  0  0  0  0  0
  160.8510  204.9730  150.3120 C   0  0  0  0  0  3  0  0  0  0  0  0
  161.4180  204.0270  149.2690 C   0  0  0  0  0  1  0  0  0  0  0  0
  161.1230  204.4500  151.7110 C   0  0  0  0  0  1  0  0  0  0  0  0
  1  2  1  1  0  0  0
  1 14  1  0  0  0  0
  2 19  1  0  0  0  0
  4 17  1  6  0  0  0
  4  1  1  0  0  0  0
  4  8  1  0  0  0  0
  5 12  1  0  0  0  0
  5 16  2  3  0  0  0
  7  3  1  0  0  0  0
  8 15  1  1  0  0  0
  9  8  1  0  0  0  0
  9  6  2  0  0  0  0
 10 19  2  3  0  0  0
 12  2  2  0  0  0  0
 13  9  1  0  0  0  0
 14 15  1  1  0  0  0
 14  3  1  0  0  0  0
 16 18  1  0  0  0  0
 16 10  1  0  0  0  0
 17 13  1  0  0  0  0
 18 11  1  1  0  0  0
 18 10  1  0  0  0  0
 19  7  1  0  0  0  0
 20  5  1  0  0  0  0
 21 20  1  0  0  0  0
 22 23  1  0  0  0  0
 22 21  1  0  0  0  0
 23 25  1  0  0  0  0
 24 23  1  0  0  0  0
M  END
>  <MODEL>
3

>  <REMARK>
 VINA RESULT:      -5.5      1.013      1.137
  Name = 
  4 active torsions:
  status: ('A' for Active; 'I' for Inactive)
    1  A    between atoms: C_2  and  C_21
    2  A    between atoms: C_6  and  C_15
    3  A    between atoms: C_15  and  C_25
    4  A    between atoms: C_21  and  C_25
                            x       y       z     vdW  Elec       q    Type
                         _______ _______ _______ _____ _____    ______ ____

>  <TORSDO>
F 4

$$$$
=
 OpenBabel11052422213D

 25 29  0  0  1  0  0  0  0  0999 V2000
  160.2900  206.3330  149.0890 C   0  0  1  0  0  3  0  0  0  0  0  0
  160.6480  206.5590  147.6010 C   0  0  0  0  0  0  0  0  0  0  0  0
  161.9840  208.2890  149.3490 C   0  0  0  0  0  2  0  0  0  0  0  0
  160.7210  204.9960  149.5780 C   0  0  1  0  0  3  0  0  0  0  0  0
  160.7340  204.8690  145.7520 C   0  0  0  0  0  0  0  0  0  0  0  0
  161.9180  203.6000  152.4660 O   0  0  0  0  0  0  0  0  0  0  0  0
  162.7580  207.6070  148.2550 C   0  0  0  0  0  2  0  0  0  0  0  0
  161.5250  205.0680  150.6010 C   0  0  2  0  0  3  0  0  0  0  0  0
  161.3630  203.8610  151.3670 C   0  0  0  0  0  0  0  0  0  0  0  0
  162.9350  206.1280  146.3220 C   0  0  0  0  0  0  0  0  0  0  0  0
  164.3780  204.1450  146.0250 C   0  0  0  0  0  1  0  0  0  0  0  0
  160.0550  205.5070  146.7110 C   0  0  0  0  0  3  0  0  0  0  0  0
  160.4410  203.0400  150.7420 O   0  0  0  0  0  0  0  0  0  0  0  0
  161.0320  207.3100  150.0540 C   0  0  2  0  0  3  0  0  0  0  0  0
  161.8090  206.4450  151.0570 C   0  0  0  0  0  2  0  0  0  0  0  0
  162.1870  205.1270  145.4380 C   0  0  0  0  0  0  0  0  0  0  0  0
  159.9400  203.7110  149.5850 C   0  0  0  0  0  2  0  0  0  0  0  0
  163.0600  204.6390  146.5820 C   0  0  2  0  0  3  0  0  0  0  0  0
  162.1300  206.7810  147.4090 C   0  0  0  0  0  0  0  0  0  0  0  0
  160.0120  203.8350  144.9470 C   0  0  0  0  0  2  0  0  0  0  0  0
  160.6860  202.4780  145.0840 C   0  0  0  0  0  2  0  0  0  0  0  0
  160.3330  201.8450  146.4250 C   0  0  0  0  0  2  0  0  0  0  0  0
  161.4010  200.8700  146.9130 C   0  0  0  0  0  3  0  0  0  0  0  0
  161.3310  200.6630  148.4150 C   0  0  0  0  0  1  0  0  0  0  0  0
  161.3110  199.5400  146.1860 C   0  0  0  0  0  1  0  0  0  0  0  0
  1  2  1  6  0  0  0
  1  4  1  0  0  0  0
  1 14  1  0  0  0  0
  4 17  1  1  0  0  0
  4  8  1  0  0  0  0
  5 12  1  0  0  0  0
  7  3  1  0  0  0  0
  8 15  1  1  0  0  0
  8  9  1  0  0  0  0
  9  6  2  0  0  0  0
 10 18  1  0  0  0  0
 10 19  2  3  0  0  0
 12  2  2  0  0  0  0
 13  9  1  0  0  0  0
 14  3  1  6  0  0  0
 14 15  1  0  0  0  0
 16  5  2  3  0  0  0
 16 10  1  0  0  0  0
 16 18  1  0  0  0  0
 17 13  1  0  0  0  0
 18 11  1  6  0  0  0
 19  2  1  0  0  0  0
 19  7  1  0  0  0  0
 20 21  1  0  0  0  0
 20  5  1  0  0  0  0
 21 22  1  0  0  0  0
 22 23  1  0  0  0  0
 23 24  1  0  0  0  0
 25 23  1  0  0  0  0
M  END
>  <MODEL>
4

>  <REMARK>
 VINA RESULT:      -5.3      6.519      9.110
  Name = 
  4 active torsions:
  status: ('A' for Active; 'I' for Inactive)
    1  A    between atoms: C_2  and  C_21
    2  A    between atoms: C_6  and  C_15
    3  A    between atoms: C_15  and  C_25
    4  A    between atoms: C_21  and  C_25
                            x       y       z     vdW  Elec       q    Type
                         _______ _______ _______ _____ _____    ______ ____

>  <TORSDO>
F 4

$$$$
=
 OpenBabel11052422213D

 25 29  0  0  1  0  0  0  0  0999 V2000
  159.7110  208.3760  154.5740 C   0  0  1  0  0  3  0  0  0  0  0  0
  159.7630  209.2500  155.8500 C   0  0  0  0  0  0  0  0  0  0  0  0
  160.5480  206.5970  156.2760 C   0  0  0  0  0  2  0  0  0  0  0  0
  160.6790  208.8290  153.5390 C   0  0  1  0  0  3  0  0  0  0  0  0
  160.2520  211.7000  156.0320 C   0  0  0  0  0  0  0  0  0  0  0  0
  162.6740  207.4370  151.1300 O   0  0  0  0  0  0  0  0  0  0  0  0
  161.3780  207.7110  156.8520 C   0  0  0  0  0  2  0  0  0  0  0  0
  161.5170  207.8950  153.1880 C   0  0  2  0  0  3  0  0  0  0  0  0
  161.9270  208.1620  151.8360 C   0  0  0  0  0  0  0  0  0  0  0  0
  161.8590  210.0680  157.2610 C   0  0  0  0  0  0  0  0  0  0  0  0
  163.8990  211.3440  156.7040 C   0  0  0  0  0  1  0  0  0  0  0  0
  159.5090  210.6980  155.5530 C   0  0  0  0  0  3  0  0  0  0  0  0
  161.3170  209.3230  151.3920 O   0  0  0  0  0  0  0  0  0  0  0  0
  160.1400  206.8970  154.8240 C   0  0  2  0  0  3  0  0  0  0  0  0
  161.3100  206.6020  153.8740 C   0  0  0  0  0  2  0  0  0  0  0  0
  161.4450  211.5060  156.9370 C   0  0  0  0  0  0  0  0  0  0  0  0
  160.4550  209.8100  152.4210 C   0  0  0  0  0  2  0  0  0  0  0  0
  162.5750  210.8420  156.1700 C   0  0  2  0  0  3  0  0  0  0  0  0
  161.0110  208.9840  156.6590 C   0  0  0  0  0  0  0  0  0  0  0  0
  159.8840  213.0980  155.6440 C   0  0  0  0  0  2  0  0  0  0  0  0
  158.7040  213.0980  154.6850 C   0  0  0  0  0  2  0  0  0  0  0  0
  157.5390  213.8810  155.2810 C   0  0  0  0  0  2  0  0  0  0  0  0
  156.3820  212.9790  155.7030 C   0  0  0  0  0  3  0  0  0  0  0  0
  156.1840  211.8280  154.7340 C   0  0  0  0  0  1  0  0  0  0  0  0
  156.5720  212.4590  157.1170 C   0  0  0  0  0  1  0  0  0  0  0  0
  1 14  1  0  0  0  0
  1  2  1  1  0  0  0
  2 19  1  0  0  0  0
  3  7  1  0  0  0  0
  4 17  1  6  0  0  0
  4  1  1  0  0  0  0
  5 16  2  3  0  0  0
  6  9  2  0  0  0  0
  8  4  1  0  0  0  0
  8 15  1  6  0  0  0
  9  8  1  0  0  0  0
 12  2  2  0  0  0  0
 12  5  1  0  0  0  0
 13  9  1  0  0  0  0
 13 17  1  0  0  0  0
 14 15  1  6  0  0  0
 14  3  1  0  0  0  0
 16 10  1  0  0  0  0
 18 11  1  1  0  0  0
 18 16  1  0  0  0  0
 18 10  1  0  0  0  0
 19  7  1  0  0  0  0
 19 10  2  3  0  0  0
 20  5  1  0  0  0  0
 21 22  1  0  0  0  0
 21 20  1  0  0  0  0
 22 23  1  0  0  0  0
 23 25  1  0  0  0  0
 24 23  1  0  0  0  0
M  END
>  <MODEL>
5

>  <REMARK>
 VINA RESULT:      -5.0      2.718      6.417
  Name = 
  4 active torsions:
  status: ('A' for Active; 'I' for Inactive)
    1  A    between atoms: C_2  and  C_21
    2  A    between atoms: C_6  and  C_15
    3  A    between atoms: C_15  and  C_25
    4  A    between atoms: C_21  and  C_25
                            x       y       z     vdW  Elec       q    Type
                         _______ _______ _______ _____ _____    ______ ____

>  <TORSDO>
F 4

$$$$
=
 OpenBabel11052422213D

 25 29  0  0  1  0  0  0  0  0999 V2000
  160.1540  209.8380  139.3100 C   0  0  1  0  0  3  0  0  0  0  0  0
  161.6370  210.2130  139.5380 C   0  0  0  0  0  0  0  0  0  0  0  0
  161.2290  208.5650  137.3130 C   0  0  0  0  0  2  0  0  0  0  0  0
  159.3150  211.0210  138.9830 C   0  0  1  0  0  3  0  0  0  0  0  0
  162.5700  212.3220  140.5190 C   0  0  0  0  0  0  0  0  0  0  0  0
  156.6050  211.7660  137.0270 O   0  0  0  0  0  0  0  0  0  0  0  0
  162.1250  209.7650  137.1840 C   0  0  0  0  0  2  0  0  0  0  0  0
  158.6980  210.9030  137.8410 C   0  0  2  0  0  3  0  0  0  0  0  0
  157.4960  211.6910  137.9120 C   0  0  0  0  0  0  0  0  0  0  0  0
  163.2440  211.7420  138.0770 C   0  0  0  0  0  0  0  0  0  0  0  0
  163.1200  214.0760  137.2790 C   0  0  0  0  0  1  0  0  0  0  0  0
  161.8010  211.2340  140.6240 C   0  0  0  0  0  3  0  0  0  0  0  0
  157.4290  212.3160  139.1450 O   0  0  0  0  0  0  0  0  0  0  0  0
  159.9390  208.9090  138.0740 C   0  0  2  0  0  3  0  0  0  0  0  0
  158.9500  209.6260  137.1420 C   0  0  0  0  0  2  0  0  0  0  0  0
  163.3780  212.6650  139.2900 C   0  0  0  0  0  0  0  0  0  0  0  0
  158.5530  211.9110  139.9270 C   0  0  0  0  0  2  0  0  0  0  0  0
  162.4500  213.0310  138.1450 C   0  0  2  0  0  3  0  0  0  0  0  0
  162.3330  210.5590  138.2420 C   0  0  0  0  0  0  0  0  0  0  0  0
  162.6300  213.2590  141.6840 C   0  0  0  0  0  2  0  0  0  0  0  0
  162.3150  212.5280  142.9800 C   0  0  0  0  0  2  0  0  0  0  0  0
  162.9700  213.2380  144.1600 C   0  0  0  0  0  2  0  0  0  0  0  0
  161.9820  213.5430  145.2830 C   0  0  0  0  0  3  0  0  0  0  0  0
  160.6340  212.8900  145.0380 C   0  0  0  0  0  1  0  0  0  0  0  0
  162.5360  213.1320  146.6350 C   0  0  0  0  0  1  0  0  0  0  0  0
  1  2  1  6  0  0  0
  2 12  1  0  0  0  0
  3 14  1  0  0  0  0
  4  1  1  0  0  0  0
  4 17  1  1  0  0  0
  5 12  2  0  0  0  0
  5 20  1  0  0  0  0
  6  9  2  0  0  0  0
  7  3  1  0  0  0  0
  7 19  1  0  0  0  0
  8 15  1  1  0  0  0
  8  9  1  0  0  0  0
  8  4  1  0  0  0  0
  9 13  1  0  0  0  0
 10 18  1  0  0  0  0
 10 19  1  0  0  0  0
 10 16  2  0  0  0  0
 13 17  1  0  0  0  0
 14 15  1  6  0  0  0
 14  1  1  0  0  0  0
 16  5  1  0  0  0  0
 18 11  1  6  0  0  0
 18 16  1  0  0  0  0
 19  2  2  0  0  0  0
 20 21  1  0  0  0  0
 21 22  1  0  0  0  0
 22 23  1  0  0  0  0
 23 25  1  0  0  0  0
 24 23  1  0  0  0  0
M  END
>  <MODEL>
6

>  <REMARK>
 VINA RESULT:      -4.7     12.613     16.111
  Name = 
  4 active torsions:
  status: ('A' for Active; 'I' for Inactive)
    1  A    between atoms: C_2  and  C_21
    2  A    between atoms: C_6  and  C_15
    3  A    between atoms: C_15  and  C_25
    4  A    between atoms: C_21  and  C_25
                            x       y       z     vdW  Elec       q    Type
                         _______ _______ _______ _____ _____    ______ ____

>  <TORSDO>
F 4

$$$$
=
 OpenBabel11052422213D

 25 29  0  0  1  0  0  0  0  0999 V2000
  161.1290  213.2980  140.1280 C   0  0  1  0  0  3  0  0  0  0  0  0
  160.9770  212.2920  138.9630 C   0  0  0  0  0  0  0  0  0  0  0  0
  163.5490  213.3740  139.1780 C   0  0  0  0  0  2  0  0  0  0  0  0
  160.9450  212.6560  141.4570 C   0  0  1  0  0  3  0  0  0  0  0  0
  159.4860  210.2820  138.8340 C   0  0  0  0  0  0  0  0  0  0  0  0
  162.2000  212.9540  144.6290 O   0  0  0  0  0  0  0  0  0  0  0  0
  163.3890  211.8930  138.9760 C   0  0  0  0  0  2  0  0  0  0  0  0
  161.9770  212.8080  142.2380 C   0  0  2  0  0  3  0  0  0  0  0  0
  161.5050  212.7680  143.5960 C   0  0  0  0  0  0  0  0  0  0  0  0
  162.0470  209.8810  138.6530 C   0  0  0  0  0  0  0  0  0  0  0  0
  162.0180  207.8130  140.0050 C   0  0  0  0  0  1  0  0  0  0  0  0
  159.6460  211.6010  138.9840 C   0  0  0  0  0  3  0  0  0  0  0  0
  160.1380  212.5560  143.6010 O   0  0  0  0  0  0  0  0  0  0  0  0
  162.5640  213.9040  140.2320 C   0  0  2  0  0  3  0  0  0  0  0  0
  163.0810  213.5910  141.6450 C   0  0  0  0  0  2  0  0  0  0  0  0
  160.6250  209.3150  138.6230 C   0  0  0  0  0  0  0  0  0  0  0  0
  159.6760  212.5070  142.2510 C   0  0  0  0  0  2  0  0  0  0  0  0
  161.4630  209.2170  139.8850 C   0  0  2  0  0  3  0  0  0  0  0  0
  162.1650  211.3630  138.8670 C   0  0  0  0  0  0  0  0  0  0  0  0
  158.0950  209.7310  138.8860 C   0  0  0  0  0  2  0  0  0  0  0  0
  157.4500  209.7650  137.5090 C   0  0  0  0  0  2  0  0  0  0  0  0
  156.0120  210.2630  137.6110 C   0  0  0  0  0  2  0  0  0  0  0  0
  155.5720  210.4930  139.0540 C   0  0  0  0  0  3  0  0  0  0  0  0
  155.1180  211.9240  139.2820 C   0  0  0  0  0  1  0  0  0  0  0  0
  154.4840  209.5170  139.4650 C   0  0  0  0  0  1  0  0  0  0  0  0
  1  2  1  6  0  0  0
  1 14  1  0  0  0  0
  1  4  1  0  0  0  0
  2 12  1  0  0  0  0
  4  8  1  0  0  0  0
  4 17  1  1  0  0  0
  5 20  1  0  0  0  0
  5 12  2  0  0  0  0
  7  3  1  0  0  0  0
  8 15  1  6  0  0  0
  8  9  1  0  0  0  0
  9 13  1  0  0  0  0
  9  6  2  0  0  0  0
 10 19  1  0  0  0  0
 10 18  1  0  0  0  0
 14  3  1  6  0  0  0
 14 15  1  0  0  0  0
 16 10  2  0  0  0  0
 16  5  1  0  0  0  0
 16 18  1  0  0  0  0
 17 13  1  0  0  0  0
 18 11  1  6  0  0  0
 19  2  2  0  0  0  0
 19  7  1  0  0  0  0
 21 22  1  0  0  0  0
 21 20  1  0  0  0  0
 22 23  1  0  0  0  0
 23 24  1  0  0  0  0
 23 25  1  0  0  0  0
M  END
>  <MODEL>
7

>  <REMARK>
 VINA RESULT:      -4.7     12.333     15.247
  Name = 
  4 active torsions:
  status: ('A' for Active; 'I' for Inactive)
    1  A    between atoms: C_2  and  C_21
    2  A    between atoms: C_6  and  C_15
    3  A    between atoms: C_15  and  C_25
    4  A    between atoms: C_21  and  C_25
                            x       y       z     vdW  Elec       q    Type
                         _______ _______ _______ _____ _____    ______ ____

>  <TORSDO>
F 4

$$$$
=
 OpenBabel11052422213D

 25 29  0  0  1  0  0  0  0  0999 V2000
  159.6270  208.3080  154.7850 C   0  0  1  0  0  3  0  0  0  0  0  0
  159.7100  209.3040  155.9650 C   0  0  0  0  0  0  0  0  0  0  0  0
  160.4580  206.6950  156.6470 C   0  0  0  0  0  2  0  0  0  0  0  0
  160.5880  208.6370  153.6970 C   0  0  1  0  0  3  0  0  0  0  0  0
  160.2410  211.7520  155.8930 C   0  0  0  0  0  0  0  0  0  0  0  0
  162.5270  206.9750  151.4180 O   0  0  0  0  0  0  0  0  0  0  0  0
  161.3130  207.8470  157.0980 C   0  0  0  0  0  2  0  0  0  0  0  0
  161.4060  207.6580  153.4330 C   0  0  2  0  0  3  0  0  0  0  0  0
  161.8010  207.7810  152.0560 C   0  0  0  0  0  0  0  0  0  0  0  0
  161.8370  210.2250  157.2610 C   0  0  0  0  0  0  0  0  0  0  0  0
  163.8900  211.4030  156.5540 C   0  0  0  0  0  1  0  0  0  0  0  0
  159.4750  210.7190  155.5270 C   0  0  0  0  0  3  0  0  0  0  0  0
  161.2040  208.9010  151.5050 O   0  0  0  0  0  0  0  0  0  0  0  0
  160.0350  206.8540  155.1780 C   0  0  2  0  0  3  0  0  0  0  0  0
  161.1870  206.4450  154.2480 C   0  0  0  0  0  2  0  0  0  0  0  0
  161.4420  211.6300  156.7990 C   0  0  0  0  0  0  0  0  0  0  0  0
  160.3640  209.5040  152.4890 C   0  0  0  0  0  2  0  0  0  0  0  0
  162.5510  210.8720  156.0890 C   0  0  2  0  0  3  0  0  0  0  0  0
  160.9640  209.1000  156.7820 C   0  0  0  0  0  0  0  0  0  0  0  0
  159.8900  213.1100  155.3710 C   0  0  0  0  0  2  0  0  0  0  0  0
  158.9190  213.0040  154.2040 C   0  0  0  0  0  2  0  0  0  0  0  0
  159.6810  212.9530  152.8850 C   0  0  0  0  0  2  0  0  0  0  0  0
  159.1090  213.9050  151.8390 C   0  0  0  0  0  3  0  0  0  0  0  0
  159.6740  213.6280  150.4570 C   0  0  0  0  0  1  0  0  0  0  0  0
  157.5920  213.8550  151.8150 C   0  0  0  0  0  1  0  0  0  0  0  0
  1 14  1  0  0  0  0
  1  2  1  1  0  0  0
  2 19  1  0  0  0  0
  3  7  1  0  0  0  0
  4 17  1  6  0  0  0
  4  1  1  0  0  0  0
  5 16  2  3  0  0  0
  6  9  2  0  0  0  0
  8  4  1  0  0  0  0
  8 15  1  6  0  0  0
  9  8  1  0  0  0  0
 12  5  1  0  0  0  0
 12  2  2  0  0  0  0
 13  9  1  0  0  0  0
 13 17  1  0  0  0  0
 14 15  1  6  0  0  0
 14  3  1  0  0  0  0
 16 10  1  0  0  0  0
 18 11  1  1  0  0  0
 18 16  1  0  0  0  0
 18 10  1  0  0  0  0
 19  7  1  0  0  0  0
 19 10  2  3  0  0  0
 20  5  1  0  0  0  0
 21 20  1  0  0  0  0
 22 21  1  0  0  0  0
 23 22  1  0  0  0  0
 24 23  1  0  0  0  0
 25 23  1  0  0  0  0
M  END
>  <MODEL>
8

>  <REMARK>
 VINA RESULT:      -4.5      2.785      6.099
  Name = 
  4 active torsions:
  status: ('A' for Active; 'I' for Inactive)
    1  A    between atoms: C_2  and  C_21
    2  A    between atoms: C_6  and  C_15
    3  A    between atoms: C_15  and  C_25
    4  A    between atoms: C_21  and  C_25
                            x       y       z     vdW  Elec       q    Type
                         _______ _______ _______ _____ _____    ______ ____

>  <TORSDO>
F 4

$$$$
=
 OpenBabel11052422213D

 25 29  0  0  1  0  0  0  0  0999 V2000
  157.2110  212.5860  137.9030 C   0  0  1  0  0  3  0  0  0  0  0  0
  158.4510  213.3720  138.3890 C   0  0  0  0  0  0  0  0  0  0  0  0
  156.0900  214.0720  139.7200 C   0  0  0  0  0  2  0  0  0  0  0  0
  157.3150  211.1300  138.1910 C   0  0  1  0  0  3  0  0  0  0  0  0
  160.8350  212.6060  138.4820 C   0  0  0  0  0  0  0  0  0  0  0  0
  155.2430  208.5450  139.0540 O   0  0  0  0  0  0  0  0  0  0  0  0
  157.3410  213.8320  140.5190 C   0  0  0  0  0  2  0  0  0  0  0  0
  156.3290  210.6870  138.9180 C   0  0  2  0  0  3  0  0  0  0  0  0
  156.1480  209.2950  138.6060 C   0  0  0  0  0  0  0  0  0  0  0  0
  159.7090  213.2810  140.7250 C   0  0  0  0  0  0  0  0  0  0  0  0
  160.7620  211.4660  142.0280 C   0  0  0  0  0  1  0  0  0  0  0  0
  159.7210  212.8530  137.7850 C   0  0  0  0  0  3  0  0  0  0  0  0
  157.0940  208.9080  137.6730 O   0  0  0  0  0  0  0  0  0  0  0  0
  155.8980  212.9910  138.6440 C   0  0  2  0  0  3  0  0  0  0  0  0
  155.3260  211.7130  139.2740 C   0  0  0  0  0  2  0  0  0  0  0  0
  160.9590  212.8200  139.9720 C   0  0  0  0  0  0  0  0  0  0  0  0
  157.8780  210.0460  137.3140 C   0  0  0  0  0  2  0  0  0  0  0  0
  160.0970  211.8150  140.7140 C   0  0  2  0  0  3  0  0  0  0  0  0
  158.4780  213.5010  139.8940 C   0  0  0  0  0  0  0  0  0  0  0  0
  162.0260  212.0800  137.7460 C   0  0  0  0  0  2  0  0  0  0  0  0
  162.4240  210.7100  138.2720 C   0  0  0  0  0  2  0  0  0  0  0  0
  161.5610  209.6260  137.6350 C   0  0  0  0  0  2  0  0  0  0  0  0
  161.3800  208.4120  138.5410 C   0  0  0  0  0  3  0  0  0  0  0  0
  161.9850  207.1600  137.9310 C   0  0  0  0  0  1  0  0  0  0  0  0
  161.9540  208.6620  139.9240 C   0  0  0  0  0  1  0  0  0  0  0  0
  1  4  1  0  0  0  0
  1  2  1  1  0  0  0
  1 14  1  0  0  0  0
  2 19  1  0  0  0  0
  3  7  1  0  0  0  0
  4 17  1  6  0  0  0
  4  8  1  0  0  0  0
  5 16  2  3  0  0  0
  8 15  1  6  0  0  0
  9  8  1  0  0  0  0
  9  6  2  0  0  0  0
 12  2  2  0  0  0  0
 12  5  1  0  0  0  0
 13  9  1  0  0  0  0
 14 15  1  1  0  0  0
 14  3  1  0  0  0  0
 16 18  1  0  0  0  0
 16 10  1  0  0  0  0
 17 13  1  0  0  0  0
 18 10  1  0  0  0  0
 18 11  1  1  0  0  0
 19  7  1  0  0  0  0
 19 10  2  3  0  0  0
 20 21  1  0  0  0  0
 20  5  1  0  0  0  0
 22 21  1  0  0  0  0
 22 23  1  0  0  0  0
 23 25  1  0  0  0  0
 24 23  1  0  0  0  0
M  END
>  <MODEL>
9

>  <REMARK>
 VINA RESULT:      -4.4     13.478     16.093
  Name = 
  4 active torsions:
  status: ('A' for Active; 'I' for Inactive)
    1  A    between atoms: C_2  and  C_21
    2  A    between atoms: C_6  and  C_15
    3  A    between atoms: C_15  and  C_25
    4  A    between atoms: C_21  and  C_25
                            x       y       z     vdW  Elec       q    Type
                         _______ _______ _______ _____ _____    ______ ____

>  <TORSDO>
F 4

$$$$
