=
 OpenBabel11062407403D

 27 31  0  0  1  0  0  0  0  0999 V2000
  162.3280  208.7880  150.7190 N   0  0  0  0  0  0  0  0  0  0  0  0
  161.3950  207.8000  152.7290 N   0  0  0  0  0  0  0  0  0  0  0  0
  160.4550  211.4560  152.5870 C   0  0  0  0  0  2  0  0  0  0  0  0
  161.2630  206.9070  153.8000 N   0  0  0  0  0  2  0  0  0  0  0  0
  161.0600  212.1330  150.2140 C   0  0  0  0  0  0  0  0  0  0  0  0
  162.3310  207.6110  151.6110 C   0  0  1  0  0  3  0  0  0  0  0  0
  160.2420  208.9500  154.3790 C   0  0  1  0  0  3  0  0  0  0  0  0
  161.7340  209.9140  150.9910 C   0  0  0  0  0  0  0  0  0  0  0  0
  160.8630  209.0460  153.0550 C   0  0  0  0  0  0  0  0  0  0  0  0
  160.0260  212.2050  151.3210 C   0  0  0  0  0  2  0  0  0  0  0  0
  160.4020  207.5310  154.7450 N   0  0  0  0  0  2  0  0  0  0  0  0
  161.8110  211.0380  150.0480 C   0  0  0  0  0  3  0  0  0  0  0  0
  160.9740  210.0920  152.2410 C   0  0  0  0  0  0  0  0  0  0  0  0
  162.3270  209.8700  155.4820 C   0  0  0  0  0  3  0  0  0  0  0  0
  162.1470  211.4560  157.2600 N   0  0  0  0  0  0  0  0  0  0  0  0
  160.7890  211.4240  157.1870 C   0  0  0  0  0  3  0  0  0  0  0  0
  160.1560  210.6060  156.2500 C   0  0  0  0  0  3  0  0  0  0  0  0
  160.9290  209.8240  155.3880 C   0  0  0  0  0  0  0  0  0  0  0  0
  162.9220  210.7020  156.4340 C   0  0  0  0  0  3  0  0  0  0  0  0
  160.9880  204.2490  149.2580 C   0  0  0  0  0  2  0  0  0  0  0  0
  161.9930  206.3440  150.8140 C   0  0  0  0  0  3  0  0  0  0  0  0
  161.6570  206.6850  149.3510 C   0  0  0  0  0  2  0  0  0  0  0  0
  160.7830  205.6330  148.6530 C   0  0  0  0  0  2  0  0  0  0  0  0
  160.6020  204.2290  150.7430 C   0  0  0  0  0  2  0  0  0  0  0  0
  160.8370  205.5690  151.4530 C   0  0  0  0  0  2  0  0  0  0  0  0
  162.1520  213.1440  148.2460 C   0  0  0  0  0  1  0  0  0  0  0  0
  161.2060  213.1820  149.3040 O   0  0  0  0  0  0  0  0  0  0  0  0
  1  8  2  0  0  0  0
  1  6  1  0  0  0  0
  2  9  1  0  0  0  0
  2  4  1  0  0  0  0
  4 11  1  0  0  0  0
  5 10  1  0  0  0  0
  6 21  1  6  0  0  0
  6  2  1  0  0  0  0
  7 11  1  0  0  0  0
  7 18  1  1  0  0  0
  8 13  1  0  0  0  0
  9  7  1  0  0  0  0
 10  3  1  0  0  0  0
 12  5  2  0  0  0  0
 12  8  1  0  0  0  0
 13  3  1  0  0  0  0
 13  9  2  0  0  0  0
 14 19  1  0  0  0  0
 16 15  1  0  0  0  0
 17 16  2  0  0  0  0
 18 14  2  0  0  0  0
 18 17  1  0  0  0  0
 19 15  2  0  0  0  0
 20 24  1  0  0  0  0
 21 25  1  0  0  0  0
 22 21  1  0  0  0  0
 23 20  1  0  0  0  0
 23 22  1  0  0  0  0
 24 25  1  0  0  0  0
 26 27  1  0  0  0  0
 27  5  1  0  0  0  0
M  END
>  <MODEL>
1

>  <REMARK>
 VINA RESULT:      -6.5      0.000      0.000
  Name = 
  3 active torsions:
  status: ('A' for Active; 'I' for Inactive)
    1  A    between atoms: C_9  and  C_15
    2  A    between atoms: C_13  and  O_22
    3  A    between atoms: C_14  and  C_17
                            x       y       z     vdW  Elec       q    Type
                         _______ _______ _______ _____ _____    ______ ____

>  <TORSDO>
F 3

$$$$
=
 OpenBabel11062407403D

 27 31  0  0  1  0  0  0  0  0999 V2000
  162.1440  209.3140  150.5980 N   0  0  0  0  0  0  0  0  0  0  0  0
  161.3680  208.1640  152.5880 N   0  0  0  0  0  0  0  0  0  0  0  0
  160.2590  211.7730  152.7230 C   0  0  0  0  0  2  0  0  0  0  0  0
  161.3340  207.2040  153.6070 N   0  0  0  0  0  2  0  0  0  0  0  0
  160.7030  212.6190  150.3680 C   0  0  0  0  0  0  0  0  0  0  0  0
  162.2490  208.0870  151.4130 C   0  0  1  0  0  3  0  0  0  0  0  0
  160.2560  209.1570  154.3640 C   0  0  1  0  0  3  0  0  0  0  0  0
  161.5160  210.3920  150.9700 C   0  0  0  0  0  0  0  0  0  0  0  0
  160.7990  209.3620  153.0180 C   0  0  0  0  0  0  0  0  0  0  0  0
  159.7290  212.5750  151.5290 C   0  0  0  0  0  2  0  0  0  0  0  0
  160.4990  207.7280  154.6320 N   0  0  0  0  0  2  0  0  0  0  0  0
  161.4910  211.5730  150.0960 C   0  0  0  0  0  3  0  0  0  0  0  0
  160.8180  210.4590  152.2660 C   0  0  0  0  0  0  0  0  0  0  0  0
  160.2440  210.8320  156.2630 C   0  0  0  0  0  3  0  0  0  0  0  0
  162.2990  211.5320  157.2610 N   0  0  0  0  0  0  0  0  0  0  0  0
  163.0110  210.7340  156.4200 C   0  0  0  0  0  3  0  0  0  0  0  0
  162.3520  209.9540  155.4680 C   0  0  0  0  0  3  0  0  0  0  0  0
  160.9580  210.0010  155.3880 C   0  0  0  0  0  0  0  0  0  0  0  0
  160.9420  211.5970  157.2020 C   0  0  0  0  0  3  0  0  0  0  0  0
  160.9110  204.7780  148.9830 C   0  0  0  0  0  2  0  0  0  0  0  0
  161.9250  206.8560  150.5580 C   0  0  0  0  0  3  0  0  0  0  0  0
  161.2970  207.2660  149.2130 C   0  0  0  0  0  2  0  0  0  0  0  0
  160.4430  206.1680  148.5660 C   0  0  0  0  0  2  0  0  0  0  0  0
  160.7990  204.5880  150.5020 C   0  0  0  0  0  2  0  0  0  0  0  0
  160.9980  205.8860  151.2970 C   0  0  0  0  0  2  0  0  0  0  0  0
  161.6280  213.7890  148.4020 C   0  0  0  0  0  1  0  0  0  0  0  0
  160.7520  213.7260  149.5180 O   0  0  0  0  0  0  0  0  0  0  0  0
  1  8  2  0  0  0  0
  1  6  1  0  0  0  0
  2  9  1  0  0  0  0
  2  4  1  0  0  0  0
  4 11  1  0  0  0  0
  5 10  1  0  0  0  0
  6 21  1  6  0  0  0
  6  2  1  0  0  0  0
  7 11  1  0  0  0  0
  7 18  1  1  0  0  0
  8 13  1  0  0  0  0
  9  7  1  0  0  0  0
 10  3  1  0  0  0  0
 12  5  2  0  0  0  0
 12  8  1  0  0  0  0
 13  3  1  0  0  0  0
 13  9  2  0  0  0  0
 14 19  1  0  0  0  0
 16 15  1  0  0  0  0
 17 16  2  0  0  0  0
 18 17  1  0  0  0  0
 18 14  2  0  0  0  0
 19 15  2  0  0  0  0
 20 24  1  0  0  0  0
 21 25  1  0  0  0  0
 22 21  1  0  0  0  0
 23 20  1  0  0  0  0
 23 22  1  0  0  0  0
 24 25  1  0  0  0  0
 26 27  1  0  0  0  0
 27  5  1  0  0  0  0
M  END
>  <MODEL>
2

>  <REMARK>
 VINA RESULT:      -6.5      0.477      1.038
  Name = 
  3 active torsions:
  status: ('A' for Active; 'I' for Inactive)
    1  A    between atoms: C_9  and  C_15
    2  A    between atoms: C_13  and  O_22
    3  A    between atoms: C_14  and  C_17
                            x       y       z     vdW  Elec       q    Type
                         _______ _______ _______ _____ _____    ______ ____

>  <TORSDO>
F 3

$$$$
=
 OpenBabel11062407403D

 27 31  0  0  1  0  0  0  0  0999 V2000
  160.2250  211.2790  151.9220 N   0  0  0  0  0  0  0  0  0  0  0  0
  161.2370  209.0930  152.2080 N   0  0  0  0  0  0  0  0  0  0  0  0
  162.2980  210.5310  148.8790 C   0  0  0  0  0  2  0  0  0  0  0  0
  161.3990  207.7850  152.6830 N   0  0  0  0  0  2  0  0  0  0  0  0
  161.5810  212.9640  149.0280 C   0  0  0  0  0  0  0  0  0  0  0  0
  160.2310  210.0350  152.7190 C   0  0  1  0  0  3  0  0  0  0  0  0
  162.5250  207.9920  150.6240 C   0  0  1  0  0  3  0  0  0  0  0  0
  160.8740  211.4390  150.8050 C   0  0  0  0  0  0  0  0  0  0  0  0
  161.8320  209.2410  150.9560 C   0  0  0  0  0  0  0  0  0  0  0  0
  162.6800  211.9950  148.6360 C   0  0  0  0  0  2  0  0  0  0  0  0
  162.3350  207.1520  151.8200 N   0  0  0  0  0  2  0  0  0  0  0  0
  160.7830  212.7090  150.0720 C   0  0  0  0  0  3  0  0  0  0  0  0
  161.7120  210.3610  150.2490 C   0  0  0  0  0  0  0  0  0  0  0  0
  160.6210  206.8170  149.4390 C   0  0  0  0  0  3  0  0  0  0  0  0
  160.8760  206.0980  147.1750 N   0  0  0  0  0  0  0  0  0  0  0  0
  162.1480  206.5780  147.1360 C   0  0  0  0  0  3  0  0  0  0  0  0
  162.6980  207.1980  148.2610 C   0  0  0  0  0  3  0  0  0  0  0  0
  161.9290  207.3210  149.4210 C   0  0  0  0  0  0  0  0  0  0  0  0
  160.1080  206.2030  148.2930 C   0  0  0  0  0  3  0  0  0  0  0  0
  161.0140  211.3680  156.7510 C   0  0  0  0  0  2  0  0  0  0  0  0
  160.4760  210.3580  154.1980 C   0  0  0  0  0  3  0  0  0  0  0  0
  159.6070  211.5430  154.6570 C   0  0  0  0  0  2  0  0  0  0  0  0
  160.1650  212.2860  155.8780 C   0  0  0  0  0  2  0  0  0  0  0  0
  162.2210  210.8240  155.9740 C   0  0  0  0  0  2  0  0  0  0  0  0
  161.9550  210.6530  154.4720 C   0  0  0  0  0  2  0  0  0  0  0  0
  161.7380  214.3230  146.9750 C   0  0  0  0  0  1  0  0  0  0  0  0
  161.4200  214.1740  148.3500 O   0  0  0  0  0  0  0  0  0  0  0  0
  1  6  1  0  0  0  0
  2  4  1  0  0  0  0
  2  6  1  0  0  0  0
  3 13  1  0  0  0  0
  5 12  2  0  0  0  0
  6 21  1  1  0  0  0
  7 18  1  6  0  0  0
  7  9  1  0  0  0  0
  7 11  1  0  0  0  0
  8  1  2  0  0  0  0
  9  2  1  0  0  0  0
 10  3  1  0  0  0  0
 10  5  1  0  0  0  0
 11  4  1  0  0  0  0
 12  8  1  0  0  0  0
 13  8  1  0  0  0  0
 13  9  2  0  0  0  0
 15 19  1  0  0  0  0
 16 15  2  0  0  0  0
 16 17  1  0  0  0  0
 17 18  2  0  0  0  0
 18 14  1  0  0  0  0
 19 14  2  0  0  0  0
 21 25  1  0  0  0  0
 21 22  1  0  0  0  0
 22 23  1  0  0  0  0
 23 20  1  0  0  0  0
 24 20  1  0  0  0  0
 25 24  1  0  0  0  0
 26 27  1  0  0  0  0
 27  5  1  0  0  0  0
M  END
>  <MODEL>
3

>  <REMARK>
 VINA RESULT:      -6.0      1.782      6.214
  Name = 
  3 active torsions:
  status: ('A' for Active; 'I' for Inactive)
    1  A    between atoms: C_9  and  C_15
    2  A    between atoms: C_13  and  O_22
    3  A    between atoms: C_14  and  C_17
                            x       y       z     vdW  Elec       q    Type
                         _______ _______ _______ _____ _____    ______ ____

>  <TORSDO>
F 3

$$$$
=
 OpenBabel11062407403D

 27 31  0  0  1  0  0  0  0  0999 V2000
  160.4560  205.5560  148.7560 N   0  0  0  0  0  0  0  0  0  0  0  0
  161.4550  207.7660  148.7940 N   0  0  0  0  0  0  0  0  0  0  0  0
  161.7710  206.1980  152.2170 C   0  0  0  0  0  2  0  0  0  0  0  0
  161.6900  209.0960  148.4200 N   0  0  0  0  0  2  0  0  0  0  0  0
  161.1620  203.7640  151.8130 C   0  0  0  0  0  0  0  0  0  0  0  0
  160.6130  206.8330  148.0320 C   0  0  1  0  0  3  0  0  0  0  0  0
  162.3270  208.8130  150.6710 C   0  0  1  0  0  3  0  0  0  0  0  0
  160.8390  205.3560  149.9840 C   0  0  0  0  0  0  0  0  0  0  0  0
  161.7560  207.5710  150.1420 C   0  0  0  0  0  0  0  0  0  0  0  0
  162.1210  204.7300  152.4820 C   0  0  0  0  0  2  0  0  0  0  0  0
  162.3920  209.7030  149.4980 N   0  0  0  0  0  2  0  0  0  0  0  0
  160.6140  204.0540  150.6270 C   0  0  0  0  0  3  0  0  0  0  0  0
  161.5050  206.4190  150.7570 C   0  0  0  0  0  0  0  0  0  0  0  0
  161.2700  208.7940  152.9720 C   0  0  0  0  0  3  0  0  0  0  0  0
  159.8560  210.5920  153.6600 N   0  0  0  0  0  0  0  0  0  0  0  0
  160.0260  211.2200  152.4650 C   0  0  0  0  0  3  0  0  0  0  0  0
  160.8310  210.6440  151.4790 C   0  0  0  0  0  3  0  0  0  0  0  0
  161.4600  209.4230  151.7330 C   0  0  0  0  0  0  0  0  0  0  0  0
  160.4560  209.4020  153.9310 C   0  0  0  0  0  3  0  0  0  0  0  0
  162.0420  205.7120  144.1150 C   0  0  0  0  0  2  0  0  0  0  0  0
  161.1930  206.5790  146.6350 C   0  0  0  0  0  3  0  0  0  0  0  0
  160.0830  206.2040  145.6350 C   0  0  0  0  0  2  0  0  0  0  0  0
  160.5820  205.4010  144.4260 C   0  0  0  0  0  2  0  0  0  0  0  0
  162.9520  205.3440  145.2950 C   0  0  0  0  0  2  0  0  0  0  0  0
  162.2680  205.4880  146.6620 C   0  0  0  0  0  2  0  0  0  0  0  0
  160.8730  201.3200  151.6350 C   0  0  0  0  0  1  0  0  0  0  0  0
  160.8800  202.5230  152.3880 O   0  0  0  0  0  0  0  0  0  0  0  0
  1  8  2  0  0  0  0
  2  9  1  0  0  0  0
  3 10  1  0  0  0  0
  4  2  1  0  0  0  0
  4 11  1  0  0  0  0
  5 27  1  0  0  0  0
  5 10  1  0  0  0  0
  6 21  1  6  0  0  0
  6  1  1  0  0  0  0
  6  2  1  0  0  0  0
  7 18  1  1  0  0  0
  8 12  1  0  0  0  0
  8 13  1  0  0  0  0
  9  7  1  0  0  0  0
  9 13  2  0  0  0  0
 11  7  1  0  0  0  0
 12  5  2  0  0  0  0
 13  3  1  0  0  0  0
 14 19  1  0  0  0  0
 15 19  2  0  0  0  0
 16 15  1  0  0  0  0
 17 18  1  0  0  0  0
 17 16  2  0  0  0  0
 18 14  2  0  0  0  0
 20 23  1  0  0  0  0
 20 24  1  0  0  0  0
 21 25  1  0  0  0  0
 22 21  1  0  0  0  0
 23 22  1  0  0  0  0
 24 25  1  0  0  0  0
 26 27  1  0  0  0  0
M  END
>  <MODEL>
4

>  <REMARK>
 VINA RESULT:      -5.5      3.156      5.849
  Name = 
  3 active torsions:
  status: ('A' for Active; 'I' for Inactive)
    1  A    between atoms: C_9  and  C_15
    2  A    between atoms: C_13  and  O_22
    3  A    between atoms: C_14  and  C_17
                            x       y       z     vdW  Elec       q    Type
                         _______ _______ _______ _____ _____    ______ ____

>  <TORSDO>
F 3

$$$$
=
 OpenBabel11062407403D

 27 31  0  0  1  0  0  0  0  0999 V2000
  160.5610  207.1990  152.5600 N   0  0  0  0  0  0  0  0  0  0  0  0
  161.4620  208.0500  150.4750 N   0  0  0  0  0  0  0  0  0  0  0  0
  161.9410  210.6370  153.1870 C   0  0  0  0  0  2  0  0  0  0  0  0
  161.6280  208.1970  149.0920 N   0  0  0  0  0  2  0  0  0  0  0  0
  161.4300  209.3590  155.3230 C   0  0  0  0  0  0  0  0  0  0  0  0
  160.6410  207.0020  151.0990 C   0  0  1  0  0  3  0  0  0  0  0  0
  162.3390  210.1740  150.1590 C   0  0  1  0  0  3  0  0  0  0  0  0
  160.9870  208.2600  153.1830 C   0  0  0  0  0  0  0  0  0  0  0  0
  161.8080  209.2250  151.1420 C   0  0  0  0  0  0  0  0  0  0  0  0
  162.3630  210.3320  154.6280 C   0  0  0  0  0  2  0  0  0  0  0  0
  162.3320  209.4170  148.8940 N   0  0  0  0  0  2  0  0  0  0  0  0
  160.8370  208.3720  154.6400 C   0  0  0  0  0  3  0  0  0  0  0  0
  161.6260  209.3680  152.4520 C   0  0  0  0  0  0  0  0  0  0  0  0
  160.5790  211.7640  151.0470 C   0  0  0  0  0  3  0  0  0  0  0  0
  159.9100  213.6590  149.7570 N   0  0  0  0  0  0  0  0  0  0  0  0
  160.7710  213.3190  148.7600 C   0  0  0  0  0  3  0  0  0  0  0  0
  161.5690  212.1790  148.8810 C   0  0  0  0  0  3  0  0  0  0  0  0
  161.4750  211.3950  150.0340 C   0  0  0  0  0  0  0  0  0  0  0  0
  159.7990  212.9110  150.8870 C   0  0  0  0  0  3  0  0  0  0  0  0
  161.7630  202.9410  150.1550 C   0  0  0  0  0  2  0  0  0  0  0  0
  161.1930  205.6060  150.7840 C   0  0  0  0  0  3  0  0  0  0  0  0
  160.6900  205.1080  149.4160 C   0  0  0  0  0  2  0  0  0  0  0  0
  160.6970  203.5800  149.2710 C   0  0  0  0  0  2  0  0  0  0  0  0
  161.5090  203.2430  151.6380 C   0  0  0  0  0  2  0  0  0  0  0  0
  160.8280  204.5980  151.8780 C   0  0  0  0  0  2  0  0  0  0  0  0
  160.0310  209.9730  157.2610 C   0  0  0  0  0  1  0  0  0  0  0  0
  161.2190  209.4320  156.7010 O   0  0  0  0  0  0  0  0  0  0  0  0
  1  8  2  0  0  0  0
  2  6  1  0  0  0  0
  2  9  1  0  0  0  0
  3 10  1  0  0  0  0
  4  2  1  0  0  0  0
  5 27  1  0  0  0  0
  6 21  1  1  0  0  0
  6  1  1  0  0  0  0
  7 18  1  6  0  0  0
  7  9  1  0  0  0  0
  8 12  1  0  0  0  0
  9 13  2  0  0  0  0
 10  5  1  0  0  0  0
 11  4  1  0  0  0  0
 11  7  1  0  0  0  0
 12  5  2  0  0  0  0
 13  8  1  0  0  0  0
 13  3  1  0  0  0  0
 15 19  2  0  0  0  0
 16 17  2  0  0  0  0
 16 15  1  0  0  0  0
 17 18  1  0  0  0  0
 18 14  2  0  0  0  0
 19 14  1  0  0  0  0
 20 24  1  0  0  0  0
 21 25  1  0  0  0  0
 22 21  1  0  0  0  0
 23 22  1  0  0  0  0
 23 20  1  0  0  0  0
 24 25  1  0  0  0  0
 27 26  1  0  0  0  0
M  END
>  <MODEL>
5

>  <REMARK>
 VINA RESULT:      -5.1      2.357      5.056
  Name = 
  3 active torsions:
  status: ('A' for Active; 'I' for Inactive)
    1  A    between atoms: C_9  and  C_15
    2  A    between atoms: C_13  and  O_22
    3  A    between atoms: C_14  and  C_17
                            x       y       z     vdW  Elec       q    Type
                         _______ _______ _______ _____ _____    ______ ____

>  <TORSDO>
F 3

$$$$
=
 OpenBabel11062407403D

 27 31  0  0  1  0  0  0  0  0999 V2000
  160.6170  206.6170  150.7530 N   0  0  0  0  0  0  0  0  0  0  0  0
  161.5440  208.4530  149.4670 N   0  0  0  0  0  0  0  0  0  0  0  0
  161.4640  209.4080  153.1210 C   0  0  0  0  0  2  0  0  0  0  0  0
  161.7900  209.2720  148.3570 N   0  0  0  0  0  2  0  0  0  0  0  0
  160.9760  207.2100  154.2990 C   0  0  0  0  0  0  0  0  0  0  0  0
  160.8310  207.1690  149.4000 C   0  0  1  0  0  3  0  0  0  0  0  0
  162.1420  210.5240  150.3220 C   0  0  1  0  0  3  0  0  0  0  0  0
  160.8470  207.2680  151.8570 C   0  0  0  0  0  0  0  0  0  0  0  0
  161.6760  209.1740  150.6530 C   0  0  0  0  0  0  0  0  0  0  0  0
  161.8160  208.4730  154.2820 C   0  0  0  0  0  2  0  0  0  0  0  0
  162.3330  210.4870  148.8620 N   0  0  0  0  0  2  0  0  0  0  0  0
  160.5760  206.6390  153.1570 C   0  0  0  0  0  3  0  0  0  0  0  0
  161.3800  208.6410  151.8350 C   0  0  0  0  0  0  0  0  0  0  0  0
  160.4790  211.5620  151.9260 C   0  0  0  0  0  3  0  0  0  0  0  0
  159.2790  213.5310  151.3050 N   0  0  0  0  0  0  0  0  0  0  0  0
  159.8980  213.5600  150.0930 C   0  0  0  0  0  3  0  0  0  0  0  0
  160.8350  212.5790  149.7620 C   0  0  0  0  0  3  0  0  0  0  0  0
  161.1310  211.5730  150.6840 C   0  0  0  0  0  0  0  0  0  0  0  0
  159.5480  212.5610  152.2190 C   0  0  0  0  0  3  0  0  0  0  0  0
  162.5940  204.2980  146.7010 C   0  0  0  0  0  2  0  0  0  0  0  0
  161.5910  206.1580  148.5320 C   0  0  0  0  0  3  0  0  0  0  0  0
  161.6010  206.5950  147.0560 C   0  0  0  0  0  2  0  0  0  0  0  0
  161.8060  205.4390  146.0670 C   0  0  0  0  0  2  0  0  0  0  0  0
  161.8530  203.7170  147.9120 C   0  0  0  0  0  2  0  0  0  0  0  0
  161.0000  204.7510  148.6600 C   0  0  0  0  0  2  0  0  0  0  0  0
  160.0800  207.2790  156.5970 C   0  0  0  0  0  1  0  0  0  0  0  0
  160.6560  206.5800  155.5030 O   0  0  0  0  0  0  0  0  0  0  0  0
  1  8  2  0  0  0  0
  2  9  1  0  0  0  0
  3 10  1  0  0  0  0
  4 11  1  0  0  0  0
  4  2  1  0  0  0  0
  5 27  1  0  0  0  0
  6 21  1  6  0  0  0
  6  2  1  0  0  0  0
  6  1  1  0  0  0  0
  7  9  1  0  0  0  0
  7 18  1  6  0  0  0
  8 12  1  0  0  0  0
  9 13  2  0  0  0  0
 10  5  1  0  0  0  0
 11  7  1  0  0  0  0
 12  5  2  0  0  0  0
 13  8  1  0  0  0  0
 13  3  1  0  0  0  0
 14 19  1  0  0  0  0
 15 19  2  0  0  0  0
 16 15  1  0  0  0  0
 17 16  2  0  0  0  0
 17 18  1  0  0  0  0
 18 14  2  0  0  0  0
 20 24  1  0  0  0  0
 21 25  1  0  0  0  0
 22 21  1  0  0  0  0
 23 20  1  0  0  0  0
 23 22  1  0  0  0  0
 24 25  1  0  0  0  0
 27 26  1  0  0  0  0
M  END
>  <MODEL>
6

>  <REMARK>
 VINA RESULT:      -4.9      2.982      5.146
  Name = 
  3 active torsions:
  status: ('A' for Active; 'I' for Inactive)
    1  A    between atoms: C_9  and  C_15
    2  A    between atoms: C_13  and  O_22
    3  A    between atoms: C_14  and  C_17
                            x       y       z     vdW  Elec       q    Type
                         _______ _______ _______ _____ _____    ______ ____

>  <TORSDO>
F 3

$$$$
=
 OpenBabel11062407403D

 27 31  0  0  1  0  0  0  0  0999 V2000
  162.4660  210.2020  150.9990 N   0  0  0  0  0  0  0  0  0  0  0  0
  161.4860  208.5730  149.4920 N   0  0  0  0  0  0  0  0  0  0  0  0
  160.6000  207.6670  153.0510 C   0  0  0  0  0  2  0  0  0  0  0  0
  161.3240  207.8050  148.3310 N   0  0  0  0  0  2  0  0  0  0  0  0
  161.2540  209.7380  154.3710 C   0  0  0  0  0  0  0  0  0  0  0  0
  162.4380  209.6870  149.6160 C   0  0  1  0  0  3  0  0  0  0  0  0
  160.3220  206.6750  150.1400 C   0  0  1  0  0  3  0  0  0  0  0  0
  161.8830  209.6240  152.0100 C   0  0  0  0  0  0  0  0  0  0  0  0
  160.9660  207.9080  150.6020 C   0  0  0  0  0  0  0  0  0  0  0  0
  160.2030  208.6690  154.1400 C   0  0  0  0  0  2  0  0  0  0  0  0
  160.4560  206.7310  148.6730 N   0  0  0  0  0  2  0  0  0  0  0  0
  161.9920  210.2030  153.3560 C   0  0  0  0  0  3  0  0  0  0  0  0
  161.1050  208.3850  151.8350 C   0  0  0  0  0  0  0  0  0  0  0  0
  162.1060  205.5440  151.5360 C   0  0  0  0  0  3  0  0  0  0  0  0
  162.2240  203.1600  151.6350 N   0  0  0  0  0  0  0  0  0  0  0  0
  161.1580  203.0450  150.7980 C   0  0  0  0  0  3  0  0  0  0  0  0
  160.5300  204.1890  150.3010 C   0  0  0  0  0  3  0  0  0  0  0  0
  161.0050  205.4490  150.6740 C   0  0  0  0  0  0  0  0  0  0  0  0
  162.7060  204.3750  152.0110 C   0  0  0  0  0  3  0  0  0  0  0  0
  161.7330  213.1410  147.1230 C   0  0  0  0  0  2  0  0  0  0  0  0
  162.0950  210.8180  148.6380 C   0  0  0  0  0  3  0  0  0  0  0  0
  163.3730  211.4710  148.0790 C   0  0  0  0  0  2  0  0  0  0  0  0
  163.1680  212.9090  147.5810 C   0  0  0  0  0  2  0  0  0  0  0  0
  160.7410  212.9270  148.2750 C   0  0  0  0  0  2  0  0  0  0  0  0
  161.2060  211.8790  149.2950 C   0  0  0  0  0  2  0  0  0  0  0  0
  162.7050  210.7010  156.1190 C   0  0  0  0  0  1  0  0  0  0  0  0
  161.4300  210.3060  155.6340 O   0  0  0  0  0  0  0  0  0  0  0  0
  1  8  2  0  0  0  0
  2  6  1  0  0  0  0
  2  9  1  0  0  0  0
  3 10  1  0  0  0  0
  4 11  1  0  0  0  0
  4  2  1  0  0  0  0
  5 27  1  0  0  0  0
  6 21  1  6  0  0  0
  6  1  1  0  0  0  0
  7  9  1  0  0  0  0
  7 18  1  1  0  0  0
  8 12  1  0  0  0  0
  9 13  2  0  0  0  0
 10  5  1  0  0  0  0
 11  7  1  0  0  0  0
 12  5  2  0  0  0  0
 13  8  1  0  0  0  0
 13  3  1  0  0  0  0
 14 19  1  0  0  0  0
 15 19  2  0  0  0  0
 16 15  1  0  0  0  0
 17 18  1  0  0  0  0
 17 16  2  0  0  0  0
 18 14  2  0  0  0  0
 20 23  1  0  0  0  0
 20 24  1  0  0  0  0
 21 25  1  0  0  0  0
 22 21  1  0  0  0  0
 23 22  1  0  0  0  0
 24 25  1  0  0  0  0
 27 26  1  0  0  0  0
M  END
>  <MODEL>
7

>  <REMARK>
 VINA RESULT:      -4.4      2.648      6.257
  Name = 
  3 active torsions:
  status: ('A' for Active; 'I' for Inactive)
    1  A    between atoms: C_9  and  C_15
    2  A    between atoms: C_13  and  O_22
    3  A    between atoms: C_14  and  C_17
                            x       y       z     vdW  Elec       q    Type
                         _______ _______ _______ _____ _____    ______ ____

>  <TORSDO>
F 3

$$$$
=
 OpenBabel11062407403D

 27 31  0  0  1  0  0  0  0  0999 V2000
  160.4020  210.4990  151.4080 N   0  0  0  0  0  0  0  0  0  0  0  0
  159.7640  212.5900  152.4580 N   0  0  0  0  0  0  0  0  0  0  0  0
  160.0650  209.9100  155.1030 C   0  0  0  0  0  2  0  0  0  0  0  0
  159.2150  213.8730  152.5760 N   0  0  0  0  0  2  0  0  0  0  0  0
  161.2270  208.0040  153.8880 C   0  0  0  0  0  0  0  0  0  0  0  0
  159.9200  211.8760  151.1820 C   0  0  1  0  0  3  0  0  0  0  0  0
  159.2670  212.8670  154.7060 C   0  0  1  0  0  3  0  0  0  0  0  0
  160.4860  209.9310  152.5770 C   0  0  0  0  0  0  0  0  0  0  0  0
  159.7520  211.9310  153.6870 C   0  0  0  0  0  0  0  0  0  0  0  0
  161.1620  208.8410  155.1510 C   0  0  0  0  0  2  0  0  0  0  0  0
  159.0750  214.1280  153.9690 N   0  0  0  0  0  2  0  0  0  0  0  0
  160.9550  208.5440  152.6940 C   0  0  0  0  0  3  0  0  0  0  0  0
  160.1160  210.6580  153.8040 C   0  0  0  0  0  0  0  0  0  0  0  0
  156.9280  211.9160  154.5130 C   0  0  0  0  0  3  0  0  0  0  0  0
  155.5950  211.5980  156.4690 N   0  0  0  0  0  0  0  0  0  0  0  0
  156.5890  212.0840  157.2600 C   0  0  0  0  0  3  0  0  0  0  0  0
  157.7940  212.5030  156.6920 C   0  0  0  0  0  3  0  0  0  0  0  0
  157.9670  212.4180  155.3080 C   0  0  0  0  0  0  0  0  0  0  0  0
  155.7380  211.5060  155.1190 C   0  0  0  0  0  3  0  0  0  0  0  0
  162.3230  213.8670  148.1990 C   0  0  0  0  0  2  0  0  0  0  0  0
  160.8740  212.6220  150.2420 C   0  0  0  0  0  3  0  0  0  0  0  0
  160.1290  213.7070  149.4440 C   0  0  0  0  0  2  0  0  0  0  0  0
  160.8170  214.0930  148.1280 C   0  0  0  0  0  2  0  0  0  0  0  0
  162.6510  212.3890  148.4520 C   0  0  0  0  0  2  0  0  0  0  0  0
  161.5870  211.6610  149.2860 C   0  0  0  0  0  2  0  0  0  0  0  0
  161.5360  205.8040  152.8130 C   0  0  0  0  0  1  0  0  0  0  0  0
  161.6330  206.6690  153.9350 O   0  0  0  0  0  0  0  0  0  0  0  0
  1  8  2  0  0  0  0
  2  4  1  0  0  0  0
  2  9  1  0  0  0  0
  3 10  1  0  0  0  0
  4 11  1  0  0  0  0
  5 27  1  0  0  0  0
  5 10  1  0  0  0  0
  6 21  1  6  0  0  0
  6  1  1  0  0  0  0
  6  2  1  0  0  0  0
  7 18  1  6  0  0  0
  8 12  1  0  0  0  0
  8 13  1  0  0  0  0
  9 13  2  0  0  0  0
  9  7  1  0  0  0  0
 11  7  1  0  0  0  0
 12  5  2  0  0  0  0
 13  3  1  0  0  0  0
 14 19  2  0  0  0  0
 14 18  1  0  0  0  0
 15 16  2  0  0  0  0
 17 16  1  0  0  0  0
 18 17  2  0  0  0  0
 19 15  1  0  0  0  0
 20 24  1  0  0  0  0
 22 21  1  0  0  0  0
 23 20  1  0  0  0  0
 23 22  1  0  0  0  0
 24 25  1  0  0  0  0
 25 21  1  0  0  0  0
 26 27  1  0  0  0  0
M  END
>  <MODEL>
8

>  <REMARK>
 VINA RESULT:      -4.2      3.340      5.975
  Name = 
  3 active torsions:
  status: ('A' for Active; 'I' for Inactive)
    1  A    between atoms: C_9  and  C_15
    2  A    between atoms: C_13  and  O_22
    3  A    between atoms: C_14  and  C_17
                            x       y       z     vdW  Elec       q    Type
                         _______ _______ _______ _____ _____    ______ ____

>  <TORSDO>
F 3

$$$$
=
 OpenBabel11062407403D

 27 31  0  0  1  0  0  0  0  0999 V2000
  160.6530  208.6980  152.2430 N   0  0  0  0  0  0  0  0  0  0  0  0
  161.3760  206.4580  152.8300 N   0  0  0  0  0  0  0  0  0  0  0  0
  162.3140  207.1680  149.2400 C   0  0  0  0  0  2  0  0  0  0  0  0
  161.3990  205.2340  153.5110 N   0  0  0  0  0  2  0  0  0  0  0  0
  161.9560  209.6740  149.0170 C   0  0  0  0  0  0  0  0  0  0  0  0
  160.5620  207.6120  153.2390 C   0  0  1  0  0  3  0  0  0  0  0  0
  162.3490  204.9370  151.3750 C   0  0  1  0  0  3  0  0  0  0  0  0
  161.2130  208.5770  151.0730 C   0  0  0  0  0  0  0  0  0  0  0  0
  161.8680  206.3120  151.5330 C   0  0  0  0  0  0  0  0  0  0  0  0
  162.8690  208.4990  148.7230 C   0  0  0  0  0  2  0  0  0  0  0  0
  162.1550  204.3370  152.7070 N   0  0  0  0  0  2  0  0  0  0  0  0
  161.2300  209.7120  150.1400 C   0  0  0  0  0  3  0  0  0  0  0  0
  161.8390  207.3110  150.6550 C   0  0  0  0  0  0  0  0  0  0  0  0
  160.8050  203.0480  150.6940 C   0  0  0  0  0  3  0  0  0  0  0  0
  160.1120  202.8240  148.4190 N   0  0  0  0  0  0  0  0  0  0  0  0
  160.8370  203.9180  148.0610 C   0  0  0  0  0  3  0  0  0  0  0  0
  161.5740  204.6150  149.0210 C   0  0  0  0  0  3  0  0  0  0  0  0
  161.5570  204.1790  150.3480 C   0  0  0  0  0  0  0  0  0  0  0  0
  160.0810  202.3790  149.7040 C   0  0  0  0  0  3  0  0  0  0  0  0
  161.3150  209.1720  157.1930 C   0  0  0  0  0  2  0  0  0  0  0  0
  160.9840  208.1260  154.6210 C   0  0  0  0  0  3  0  0  0  0  0  0
  160.1480  207.4690  155.7340 C   0  0  0  0  0  2  0  0  0  0  0  0
  160.0810  208.2920  157.0280 C   0  0  0  0  0  2  0  0  0  0  0  0
  161.4410  210.1740  156.0380 C   0  0  0  0  0  2  0  0  0  0  0  0
  160.8750  209.6510  154.7100 C   0  0  0  0  0  2  0  0  0  0  0  0
  162.2150  212.0880  148.5780 C   0  0  0  0  0  1  0  0  0  0  0  0
  161.9020  210.7700  148.1540 O   0  0  0  0  0  0  0  0  0  0  0  0
  1  6  1  0  0  0  0
  2  6  1  0  0  0  0
  2  4  1  0  0  0  0
  3 13  1  0  0  0  0
  5 12  2  0  0  0  0
  6 21  1  1  0  0  0
  7 18  1  6  0  0  0
  7  9  1  0  0  0  0
  7 11  1  0  0  0  0
  8  1  2  0  0  0  0
  9  2  1  0  0  0  0
 10  5  1  0  0  0  0
 10  3  1  0  0  0  0
 11  4  1  0  0  0  0
 12  8  1  0  0  0  0
 13  8  1  0  0  0  0
 13  9  2  0  0  0  0
 15 19  1  0  0  0  0
 16 15  2  0  0  0  0
 16 17  1  0  0  0  0
 17 18  2  0  0  0  0
 18 14  1  0  0  0  0
 19 14  2  0  0  0  0
 21 25  1  0  0  0  0
 21 22  1  0  0  0  0
 22 23  1  0  0  0  0
 23 20  1  0  0  0  0
 24 20  1  0  0  0  0
 25 24  1  0  0  0  0
 27 26  1  0  0  0  0
 27  5  1  0  0  0  0
M  END
>  <MODEL>
9

>  <REMARK>
 VINA RESULT:      -3.7      2.031      6.454
  Name = 
  3 active torsions:
  status: ('A' for Active; 'I' for Inactive)
    1  A    between atoms: C_9  and  C_15
    2  A    between atoms: C_13  and  O_22
    3  A    between atoms: C_14  and  C_17
                            x       y       z     vdW  Elec       q    Type
                         _______ _______ _______ _____ _____    ______ ____

>  <TORSDO>
F 3

$$$$
