=
 OpenBabel11062407413D

 27 31  0  0  0  0  0  0  0  0999 V2000
  161.4790  206.6790  149.3190 N   0  0  0  0  0  0  0  0  0  0  0  0
  161.2670  206.0140  151.5850 C   0  0  0  0  0  0  0  0  0  0  0  0
  161.9060  209.6540  151.4450 C   0  0  0  0  0  3  0  0  0  0  0  0
  161.1780  205.1440  152.7020 N   0  0  0  0  0  0  0  0  0  0  0  0
  162.1350  210.2850  149.1070 C   0  0  0  0  0  0  0  0  0  0  0  0
  161.2880  205.6700  150.2220 C   0  0  0  0  0  0  0  0  0  0  0  0
  161.3850  207.3670  153.4180 N   0  0  0  0  0  0  0  0  0  0  0  0
  161.6630  207.9790  149.6970 C   0  0  0  0  0  0  0  0  0  0  0  0
  161.4020  207.3090  151.9930 C   0  0  0  0  0  0  0  0  0  0  0  0
  162.1450  210.6260  150.4700 C   0  0  0  0  0  3  0  0  0  0  0  0
  161.2760  205.9850  153.8990 C   0  0  0  0  0  3  0  0  0  0  0  0
  161.8980  208.9590  148.7290 C   0  0  0  0  0  3  0  0  0  0  0  0
  161.6460  208.3320  151.0690 C   0  0  0  0  0  0  0  0  0  0  0  0
  161.4910  208.6060  155.5310 C   0  0  0  0  0  3  0  0  0  0  0  0
  160.1400  210.5840  155.8820 C   0  0  0  0  0  3  0  0  0  0  0  0
  159.6140  210.4530  154.5940 C   0  0  0  0  0  3  0  0  0  0  0  0
  160.0280  209.3990  153.7740 C   0  0  0  0  0  3  0  0  0  0  0  0
  160.9820  208.4780  154.2320 C   0  0  0  0  0  0  0  0  0  0  0  0
  161.0770  209.6590  156.3520 C   0  0  0  0  0  3  0  0  0  0  0  0
  160.8190  201.6600  148.7490 C   0  0  0  0  0  3  0  0  0  0  0  0
  161.1250  204.2780  149.7310 C   0  0  0  0  0  0  0  0  0  0  0  0
  160.7490  203.2310  150.5880 C   0  0  0  0  0  3  0  0  0  0  0  0
  160.5980  201.9290  150.1010 C   0  0  0  0  0  3  0  0  0  0  0  0
  161.1910  202.6920  147.8840 C   0  0  0  0  0  3  0  0  0  0  0  0
  161.3420  203.9920  148.3730 C   0  0  0  0  0  3  0  0  0  0  0  0
  161.3920  212.2060  147.7370 C   0  0  0  0  0  1  0  0  0  0  0  0
  162.3640  211.2400  148.1120 O   0  0  0  0  0  0  0  0  0  0  0  0
  1  8  2  0  0  0  0
  1  6  1  0  0  0  0
  2  9  1  0  0  0  0
  2  4  1  0  0  0  0
  4 11  2  0  0  0  0
  5 10  1  0  0  0  0
  6  2  2  0  0  0  0
  7 11  1  0  0  0  0
  7 18  1  0  0  0  0
  8 13  1  0  0  0  0
  9  7  1  0  0  0  0
 10  3  2  0  0  0  0
 12  5  2  0  0  0  0
 12  8  1  0  0  0  0
 13  3  1  0  0  0  0
 13  9  2  0  0  0  0
 14 19  1  0  0  0  0
 15 19  2  0  0  0  0
 16 15  1  0  0  0  0
 17 18  1  0  0  0  0
 17 16  2  0  0  0  0
 18 14  2  0  0  0  0
 20 23  1  0  0  0  0
 21  6  1  0  0  0  0
 21 22  1  0  0  0  0
 23 22  2  0  0  0  0
 24 25  1  0  0  0  0
 24 20  2  0  0  0  0
 25 21  2  0  0  0  0
 26 27  1  0  0  0  0
 27  5  1  0  0  0  0
M  END
>  <MODEL>
1

>  <REMARK>
 VINA RESULT:      -9.7      0.000      0.000
  Name = 
  3 active torsions:
  status: ('A' for Active; 'I' for Inactive)
    1  A    between atoms: C_9  and  C_15
    2  A    between atoms: C_13  and  O_22
    3  A    between atoms: C_14  and  N_17
                            x       y       z     vdW  Elec       q    Type
                         _______ _______ _______ _____ _____    ______ ____

>  <TORSDO>
F 3

$$$$
=
 OpenBabel11062407413D

 27 31  0  0  0  0  0  0  0  0999 V2000
  161.4670  206.9770  149.5590 N   0  0  0  0  0  0  0  0  0  0  0  0
  161.2260  206.5400  151.8770 C   0  0  0  0  0  0  0  0  0  0  0  0
  161.8680  210.1480  151.3850 C   0  0  0  0  0  3  0  0  0  0  0  0
  161.1220  205.7850  153.0740 N   0  0  0  0  0  0  0  0  0  0  0  0
  162.1270  210.5440  148.9990 C   0  0  0  0  0  0  0  0  0  0  0  0
  161.2640  206.0620  150.5560 C   0  0  0  0  0  0  0  0  0  0  0  0
  161.3210  208.0670  153.5690 N   0  0  0  0  0  0  0  0  0  0  0  0
  161.6460  208.3070  149.8090 C   0  0  0  0  0  0  0  0  0  0  0  0
  161.3560  207.8680  152.1570 C   0  0  0  0  0  0  0  0  0  0  0  0
  162.1200  211.0180  150.3210 C   0  0  0  0  0  3  0  0  0  0  0  0
  161.2050  206.7400  154.1830 C   0  0  0  0  0  3  0  0  0  0  0  0
  161.8950  209.1870  148.7510 C   0  0  0  0  0  3  0  0  0  0  0  0
  161.6130  208.7950  151.1380 C   0  0  0  0  0  0  0  0  0  0  0  0
  159.6410  209.7970  154.0160 C   0  0  0  0  0  3  0  0  0  0  0  0
  160.1120  211.6240  155.5320 C   0  0  0  0  0  3  0  0  0  0  0  0
  161.3840  211.0980  155.7700 C   0  0  0  0  0  3  0  0  0  0  0  0
  161.7850  209.9210  155.1330 C   0  0  0  0  0  3  0  0  0  0  0  0
  160.9090  209.2530  154.2630 C   0  0  0  0  0  0  0  0  0  0  0  0
  159.2410  210.9750  154.6530 C   0  0  0  0  0  3  0  0  0  0  0  0
  160.8020  201.9260  149.4820 C   0  0  0  0  0  3  0  0  0  0  0  0
  161.1050  204.6280  150.2030 C   0  0  0  0  0  0  0  0  0  0  0  0
  160.9050  203.6430  151.1840 C   0  0  0  0  0  3  0  0  0  0  0  0
  160.7550  202.3000  150.8260 C   0  0  0  0  0  3  0  0  0  0  0  0
  160.9980  202.8950  148.4950 C   0  0  0  0  0  3  0  0  0  0  0  0
  161.1490  204.2370  148.8550 C   0  0  0  0  0  3  0  0  0  0  0  0
  162.4890  212.8040  148.0610 C   0  0  0  0  0  1  0  0  0  0  0  0
  162.3690  211.3950  147.9170 O   0  0  0  0  0  0  0  0  0  0  0  0
  1  8  2  0  0  0  0
  1  6  1  0  0  0  0
  2  9  1  0  0  0  0
  2  4  1  0  0  0  0
  4 11  2  0  0  0  0
  5 10  1  0  0  0  0
  6  2  2  0  0  0  0
  7 11  1  0  0  0  0
  7 18  1  0  0  0  0
  8 13  1  0  0  0  0
  9  7  1  0  0  0  0
 10  3  2  0  0  0  0
 12  5  2  0  0  0  0
 12  8  1  0  0  0  0
 13  3  1  0  0  0  0
 13  9  2  0  0  0  0
 14 18  2  0  0  0  0
 14 19  1  0  0  0  0
 15 16  1  0  0  0  0
 17 16  2  0  0  0  0
 18 17  1  0  0  0  0
 19 15  2  0  0  0  0
 20 23  1  0  0  0  0
 21  6  1  0  0  0  0
 21 22  1  0  0  0  0
 23 22  2  0  0  0  0
 24 25  1  0  0  0  0
 24 20  2  0  0  0  0
 25 21  2  0  0  0  0
 27 26  1  0  0  0  0
 27  5  1  0  0  0  0
M  END
>  <MODEL>
2

>  <REMARK>
 VINA RESULT:      -9.6      0.740      1.147
  Name = 
  3 active torsions:
  status: ('A' for Active; 'I' for Inactive)
    1  A    between atoms: C_9  and  C_15
    2  A    between atoms: C_13  and  O_22
    3  A    between atoms: C_14  and  N_17
                            x       y       z     vdW  Elec       q    Type
                         _______ _______ _______ _____ _____    ______ ____

>  <TORSDO>
F 3

$$$$
=
 OpenBabel11062407413D

 27 31  0  0  0  0  0  0  0  0999 V2000
  160.8720  206.0560  152.0390 N   0  0  0  0  0  0  0  0  0  0  0  0
  161.5280  207.5680  150.3340 C   0  0  0  0  0  0  0  0  0  0  0  0
  161.4730  204.1370  148.9570 C   0  0  0  0  0  3  0  0  0  0  0  0
  161.9550  208.7840  149.7410 N   0  0  0  0  0  0  0  0  0  0  0  0
  160.8150  202.6220  150.7430 C   0  0  0  0  0  0  0  0  0  0  0  0
  161.1580  207.3420  151.6710 C   0  0  0  0  0  0  0  0  0  0  0  0
  162.0140  207.0490  148.1670 N   0  0  0  0  0  0  0  0  0  0  0  0
  160.9510  205.0080  151.1680 C   0  0  0  0  0  0  0  0  0  0  0  0
  161.5720  206.5490  149.4280 C   0  0  0  0  0  0  0  0  0  0  0  0
  161.2150  202.8420  149.4140 C   0  0  0  0  0  3  0  0  0  0  0  0
  162.2990  208.4760  148.3500 C   0  0  0  0  0  3  0  0  0  0  0  0
  160.6910  203.7100  151.6150 C   0  0  0  0  0  3  0  0  0  0  0  0
  161.3270  205.2270  149.8190 C   0  0  0  0  0  0  0  0  0  0  0  0
  160.4180  206.5780  146.3650 C   0  0  0  0  0  3  0  0  0  0  0  0
  161.1000  205.3600  144.3880 C   0  0  0  0  0  3  0  0  0  0  0  0
  162.3980  205.2650  144.8940 C   0  0  0  0  0  3  0  0  0  0  0  0
  162.7070  205.8280  146.1360 C   0  0  0  0  0  3  0  0  0  0  0  0
  161.7220  206.5030  146.8720 C   0  0  0  0  0  0  0  0  0  0  0  0
  160.1090  206.0150  145.1240 C   0  0  0  0  0  3  0  0  0  0  0  0
  160.9160  210.4310  154.6510 C   0  0  0  0  0  3  0  0  0  0  0  0
  161.0750  208.4230  152.6880 C   0  0  0  0  0  0  0  0  0  0  0  0
  160.8610  209.7620  152.3260 C   0  0  0  0  0  3  0  0  0  0  0  0
  160.7830  210.7610  153.3010 C   0  0  0  0  0  3  0  0  0  0  0  0
  161.1280  209.1020  155.0260 C   0  0  0  0  0  3  0  0  0  0  0  0
  161.2060  208.1050  154.0490 C   0  0  0  0  0  3  0  0  0  0  0  0
  160.4550  200.2030  150.3720 C   0  0  0  0  0  1  0  0  0  0  0  0
  160.5440  201.3380  151.2230 O   0  0  0  0  0  0  0  0  0  0  0  0
  2  6  2  0  0  0  0
  3 10  2  0  0  0  0
  3 13  1  0  0  0  0
  4  2  1  0  0  0  0
  5 27  1  0  0  0  0
  5 12  2  0  0  0  0
  6  1  1  0  0  0  0
  6 21  1  0  0  0  0
  7 11  1  0  0  0  0
  7  9  1  0  0  0  0
  8 12  1  0  0  0  0
  8  1  2  0  0  0  0
  9 13  2  0  0  0  0
  9  2  1  0  0  0  0
 10  5  1  0  0  0  0
 11  4  2  0  0  0  0
 13  8  1  0  0  0  0
 14 18  1  0  0  0  0
 15 16  2  0  0  0  0
 15 19  1  0  0  0  0
 16 17  1  0  0  0  0
 17 18  2  0  0  0  0
 18  7  1  0  0  0  0
 19 14  2  0  0  0  0
 20 24  1  0  0  0  0
 21 25  1  0  0  0  0
 22 21  2  0  0  0  0
 22 23  1  0  0  0  0
 23 20  2  0  0  0  0
 25 24  2  0  0  0  0
 26 27  1  0  0  0  0
M  END
>  <MODEL>
3

>  <REMARK>
 VINA RESULT:      -8.7      2.845      7.858
  Name = 
  3 active torsions:
  status: ('A' for Active; 'I' for Inactive)
    1  A    between atoms: C_9  and  C_15
    2  A    between atoms: C_13  and  O_22
    3  A    between atoms: C_14  and  N_17
                            x       y       z     vdW  Elec       q    Type
                         _______ _______ _______ _____ _____    ______ ____

>  <TORSDO>
F 3

$$$$
=
 OpenBabel11062407413D

 27 31  0  0  0  0  0  0  0  0999 V2000
  161.2120  210.6330  151.6540 N   0  0  0  0  0  0  0  0  0  0  0  0
  161.8590  209.1720  149.9010 C   0  0  0  0  0  0  0  0  0  0  0  0
  161.2790  207.1980  152.9730 C   0  0  0  0  0  3  0  0  0  0  0  0
  162.3580  208.7690  148.6360 N   0  0  0  0  0  0  0  0  0  0  0  0
  160.6380  208.7370  154.7440 C   0  0  0  0  0  0  0  0  0  0  0  0
  161.6020  210.4790  150.3520 C   0  0  0  0  0  0  0  0  0  0  0  0
  162.0620  206.9040  150.0240 N   0  0  0  0  0  0  0  0  0  0  0  0
  161.0850  209.5790  152.5120 C   0  0  0  0  0  0  0  0  0  0  0  0
  161.6970  208.0940  150.7200 C   0  0  0  0  0  0  0  0  0  0  0  0
  160.9240  207.4330  154.3040 C   0  0  0  0  0  3  0  0  0  0  0  0
  162.5230  207.3140  148.6930 C   0  0  0  0  0  3  0  0  0  0  0  0
  160.7260  209.8040  153.8440 C   0  0  0  0  0  3  0  0  0  0  0  0
  161.3450  208.2590  152.0660 C   0  0  0  0  0  0  0  0  0  0  0  0
  161.8840  204.9460  151.4890 C   0  0  0  0  0  3  0  0  0  0  0  0
  160.7410  202.9430  150.7540 C   0  0  0  0  0  3  0  0  0  0  0  0
  160.4510  203.5570  149.5330 C   0  0  0  0  0  3  0  0  0  0  0  0
  160.8760  204.8660  149.2910 C   0  0  0  0  0  3  0  0  0  0  0  0
  161.5820  205.5750  150.2750 C   0  0  0  0  0  0  0  0  0  0  0  0
  161.4600  203.6370  151.7320 C   0  0  0  0  0  3  0  0  0  0  0  0
  161.9660  213.9740  147.8780 C   0  0  0  0  0  3  0  0  0  0  0  0
  161.7440  211.6810  149.4900 C   0  0  0  0  0  0  0  0  0  0  0  0
  162.7480  211.7740  148.5120 C   0  0  0  0  0  3  0  0  0  0  0  0
  162.8600  212.9140  147.7110 C   0  0  0  0  0  3  0  0  0  0  0  0
  160.9620  213.8950  148.8450 C   0  0  0  0  0  3  0  0  0  0  0  0
  160.8530  212.7540  149.6450 C   0  0  0  0  0  3  0  0  0  0  0  0
  160.4160  208.0400  157.1070 C   0  0  0  0  0  1  0  0  0  0  0  0
  160.2740  208.9990  156.0680 O   0  0  0  0  0  0  0  0  0  0  0  0
  1  8  1  0  0  0  0
  2  6  1  0  0  0  0
  2  9  2  0  0  0  0
  3 10  1  0  0  0  0
  4 11  2  0  0  0  0
  4  2  1  0  0  0  0
  5 27  1  0  0  0  0
  6  1  2  0  0  0  0
  7 18  1  0  0  0  0
  7  9  1  0  0  0  0
  8 12  2  0  0  0  0
  9 13  1  0  0  0  0
 10  5  2  0  0  0  0
 11  7  1  0  0  0  0
 12  5  1  0  0  0  0
 13  8  1  0  0  0  0
 13  3  2  0  0  0  0
 14 19  1  0  0  0  0
 15 19  2  0  0  0  0
 16 15  1  0  0  0  0
 17 16  2  0  0  0  0
 17 18  1  0  0  0  0
 18 14  2  0  0  0  0
 20 24  1  0  0  0  0
 21 25  1  0  0  0  0
 21  6  1  0  0  0  0
 22 21  2  0  0  0  0
 23 20  2  0  0  0  0
 23 22  1  0  0  0  0
 24 25  2  0  0  0  0
 27 26  1  0  0  0  0
M  END
>  <MODEL>
4

>  <REMARK>
 VINA RESULT:      -8.6      2.250      7.106
  Name = 
  3 active torsions:
  status: ('A' for Active; 'I' for Inactive)
    1  A    between atoms: C_9  and  C_15
    2  A    between atoms: C_13  and  O_22
    3  A    between atoms: C_14  and  N_17
                            x       y       z     vdW  Elec       q    Type
                         _______ _______ _______ _____ _____    ______ ____

>  <TORSDO>
F 3

$$$$
=
 OpenBabel11062407413D

 27 31  0  0  0  0  0  0  0  0999 V2000
  161.4300  206.4460  148.0620 N   0  0  0  0  0  0  0  0  0  0  0  0
  161.4170  205.2420  150.1040 C   0  0  0  0  0  0  0  0  0  0  0  0
  161.9280  208.8330  150.8190 C   0  0  0  0  0  3  0  0  0  0  0  0
  161.4430  204.1230  150.9770 N   0  0  0  0  0  0  0  0  0  0  0  0
  161.9540  210.0240  148.6980 C   0  0  0  0  0  0  0  0  0  0  0  0
  161.3420  205.2400  148.7010 C   0  0  0  0  0  0  0  0  0  0  0  0
  161.6360  206.1130  152.2010 N   0  0  0  0  0  0  0  0  0  0  0  0
  161.6020  207.6220  148.7340 C   0  0  0  0  0  0  0  0  0  0  0  0
  161.5430  206.4030  150.8080 C   0  0  0  0  0  0  0  0  0  0  0  0
  162.0600  210.0240  150.0990 C   0  0  0  0  0  3  0  0  0  0  0  0
  161.6080  204.6530  152.3340 C   0  0  0  0  0  3  0  0  0  0  0  0
  161.7300  208.8180  148.0230 C   0  0  0  0  0  3  0  0  0  0  0  0
  161.6820  207.6310  150.1490 C   0  0  0  0  0  0  0  0  0  0  0  0
  160.5230  206.4540  154.3600 C   0  0  0  0  0  3  0  0  0  0  0  0
  160.4380  208.6470  155.3810 C   0  0  0  0  0  3  0  0  0  0  0  0
  161.1610  209.1750  154.3080 C   0  0  0  0  0  3  0  0  0  0  0  0
  161.5660  208.3420  153.2610 C   0  0  0  0  0  3  0  0  0  0  0  0
  161.2640  206.9720  153.2890 C   0  0  0  0  0  0  0  0  0  0  0  0
  160.1170  207.2870  155.4060 C   0  0  0  0  0  3  0  0  0  0  0  0
  160.8740  201.6310  146.4140 C   0  0  0  0  0  3  0  0  0  0  0  0
  161.1840  204.0020  147.8950 C   0  0  0  0  0  0  0  0  0  0  0  0
  161.5760  203.9430  146.5480 C   0  0  0  0  0  3  0  0  0  0  0  0
  161.4210  202.7650  145.8100 C   0  0  0  0  0  3  0  0  0  0  0  0
  160.4810  201.6750  147.7530 C   0  0  0  0  0  3  0  0  0  0  0  0
  160.6370  202.8540  148.4880 C   0  0  0  0  0  3  0  0  0  0  0  0
  162.1570  212.4840  148.5580 C   0  0  0  0  0  1  0  0  0  0  0  0
  162.0740  211.2010  147.9540 O   0  0  0  0  0  0  0  0  0  0  0  0
  1  6  2  0  0  0  0
  1  8  1  0  0  0  0
  2  9  2  0  0  0  0
  2  4  1  0  0  0  0
  4 11  2  0  0  0  0
  5 10  1  0  0  0  0
  6  2  1  0  0  0  0
  7 11  1  0  0  0  0
  7 18  1  0  0  0  0
  8 13  2  0  0  0  0
  9  7  1  0  0  0  0
 10  3  2  0  0  0  0
 12  5  2  0  0  0  0
 12  8  1  0  0  0  0
 13  9  1  0  0  0  0
 13  3  1  0  0  0  0
 14 19  1  0  0  0  0
 15 19  2  0  0  0  0
 16 15  1  0  0  0  0
 17 18  1  0  0  0  0
 17 16  2  0  0  0  0
 18 14  2  0  0  0  0
 20 24  1  0  0  0  0
 21 25  1  0  0  0  0
 21  6  1  0  0  0  0
 22 21  2  0  0  0  0
 23 20  2  0  0  0  0
 23 22  1  0  0  0  0
 24 25  2  0  0  0  0
 27 26  1  0  0  0  0
 27  5  1  0  0  0  0
M  END
>  <MODEL>
5

>  <REMARK>
 VINA RESULT:      -8.1      1.212      1.982
  Name = 
  3 active torsions:
  status: ('A' for Active; 'I' for Inactive)
    1  A    between atoms: C_9  and  C_15
    2  A    between atoms: C_13  and  O_22
    3  A    between atoms: C_14  and  N_17
                            x       y       z     vdW  Elec       q    Type
                         _______ _______ _______ _____ _____    ______ ____

>  <TORSDO>
F 3

$$$$
=
 OpenBabel11062407413D

 27 31  0  0  0  0  0  0  0  0999 V2000
  161.8240  209.0190  149.6950 N   0  0  0  0  0  0  0  0  0  0  0  0
  161.2500  210.3620  151.5630 C   0  0  0  0  0  0  0  0  0  0  0  0
  160.8470  206.7980  152.4630 C   0  0  0  0  0  3  0  0  0  0  0  0
  160.9290  211.5320  152.2990 N   0  0  0  0  0  0  0  0  0  0  0  0
  161.4270  205.4620  150.5150 C   0  0  0  0  0  0  0  0  0  0  0  0
  161.6640  210.2710  150.2230 C   0  0  0  0  0  0  0  0  0  0  0  0
  160.5920  209.6260  153.6190 N   0  0  0  0  0  0  0  0  0  0  0  0
  161.5810  207.8830  150.4130 C   0  0  0  0  0  0  0  0  0  0  0  0
  161.0430  209.2470  152.3200 C   0  0  0  0  0  0  0  0  0  0  0  0
  160.9830  205.5530  151.8440 C   0  0  0  0  0  3  0  0  0  0  0  0
  160.4780  211.0880  153.6200 C   0  0  0  0  0  3  0  0  0  0  0  0
  161.7190  206.6320  149.8040 C   0  0  0  0  0  3  0  0  0  0  0  0
  161.1600  207.9670  151.7630 C   0  0  0  0  0  0  0  0  0  0  0  0
  159.7910  207.9290  155.1980 C   0  0  0  0  0  3  0  0  0  0  0  0
  160.9800  207.4910  157.2610 C   0  0  0  0  0  3  0  0  0  0  0  0
  161.9310  208.4550  156.9170 C   0  0  0  0  0  3  0  0  0  0  0  0
  161.8130  209.1550  155.7130 C   0  0  0  0  0  3  0  0  0  0  0  0
  160.7500  208.8850  154.8380 C   0  0  0  0  0  0  0  0  0  0  0  0
  159.9080  207.2290  156.4020 C   0  0  0  0  0  3  0  0  0  0  0  0
  162.4590  213.6840  147.7350 C   0  0  0  0  0  3  0  0  0  0  0  0
  161.9220  211.4570  149.3670 C   0  0  0  0  0  0  0  0  0  0  0  0
  161.0730  212.5750  149.3790 C   0  0  0  0  0  3  0  0  0  0  0  0
  161.3380  213.6820  148.5670 C   0  0  0  0  0  3  0  0  0  0  0  0
  163.3150  212.5800  147.7140 C   0  0  0  0  0  3  0  0  0  0  0  0
  163.0460  211.4740  148.5270 C   0  0  0  0  0  3  0  0  0  0  0  0
  161.2060  204.0160  148.5210 C   0  0  0  0  0  1  0  0  0  0  0  0
  161.5790  204.2290  149.8750 O   0  0  0  0  0  0  0  0  0  0  0  0
  1  6  2  0  0  0  0
  1  8  1  0  0  0  0
  2  4  1  0  0  0  0
  2  9  2  0  0  0  0
  4 11  2  0  0  0  0
  5 10  2  0  0  0  0
  6  2  1  0  0  0  0
  7 11  1  0  0  0  0
  7 18  1  0  0  0  0
  8 13  1  0  0  0  0
  9  7  1  0  0  0  0
 10  3  1  0  0  0  0
 12  8  2  0  0  0  0
 12  5  1  0  0  0  0
 13  9  1  0  0  0  0
 13  3  2  0  0  0  0
 14 19  1  0  0  0  0
 16 15  1  0  0  0  0
 17 16  2  0  0  0  0
 18 14  2  0  0  0  0
 18 17  1  0  0  0  0
 19 15  2  0  0  0  0
 20 23  1  0  0  0  0
 21 22  1  0  0  0  0
 21  6  1  0  0  0  0
 23 22  2  0  0  0  0
 24 20  2  0  0  0  0
 24 25  1  0  0  0  0
 25 21  2  0  0  0  0
 26 27  1  0  0  0  0
 27  5  1  0  0  0  0
M  END
>  <MODEL>
6

>  <REMARK>
 VINA RESULT:      -7.7      2.218      5.944
  Name = 
  3 active torsions:
  status: ('A' for Active; 'I' for Inactive)
    1  A    between atoms: C_9  and  C_15
    2  A    between atoms: C_13  and  O_22
    3  A    between atoms: C_14  and  N_17
                            x       y       z     vdW  Elec       q    Type
                         _______ _______ _______ _____ _____    ______ ____

>  <TORSDO>
F 3

$$$$
=
 OpenBabel11062407413D

 27 31  0  0  0  0  0  0  0  0999 V2000
  161.6350  209.7310  150.8360 N   0  0  0  0  0  0  0  0  0  0  0  0
  161.9100  208.3280  148.9440 C   0  0  0  0  0  0  0  0  0  0  0  0
  161.6260  206.2310  151.9760 C   0  0  0  0  0  3  0  0  0  0  0  0
  162.1910  207.9620  147.6020 N   0  0  0  0  0  0  0  0  0  0  0  0
  161.3650  207.7100  153.8890 C   0  0  0  0  0  0  0  0  0  0  0  0
  161.8220  209.6220  149.4850 C   0  0  0  0  0  0  0  0  0  0  0  0
  161.9540  206.0480  148.9340 N   0  0  0  0  0  0  0  0  0  0  0  0
  161.5510  208.6420  151.6550 C   0  0  0  0  0  0  0  0  0  0  0  0
  161.7850  207.2200  149.7280 C   0  0  0  0  0  0  0  0  0  0  0  0
  161.4840  206.4170  153.3530 C   0  0  0  0  0  3  0  0  0  0  0  0
  162.2510  206.4980  147.5690 C   0  0  0  0  0  3  0  0  0  0  0  0
  161.4050  208.8170  153.0340 C   0  0  0  0  0  3  0  0  0  0  0  0
  161.6420  207.3340  151.1170 C   0  0  0  0  0  0  0  0  0  0  0  0
  161.5230  203.7420  148.2180 C   0  0  0  0  0  3  0  0  0  0  0  0
  160.2840  202.2140  149.6280 C   0  0  0  0  0  3  0  0  0  0  0  0
  160.1560  203.2120  150.5970 C   0  0  0  0  0  3  0  0  0  0  0  0
  160.7130  204.4760  150.3770 C   0  0  0  0  0  3  0  0  0  0  0  0
  161.4140  204.7430  149.1920 C   0  0  0  0  0  0  0  0  0  0  0  0
  160.9660  202.4800  148.4370 C   0  0  0  0  0  3  0  0  0  0  0  0
  162.1830  213.2090  147.1450 C   0  0  0  0  0  3  0  0  0  0  0  0
  161.9310  210.8580  148.6660 C   0  0  0  0  0  0  0  0  0  0  0  0
  160.9000  211.2680  147.8070 C   0  0  0  0  0  3  0  0  0  0  0  0
  161.0250  212.4370  147.0500 C   0  0  0  0  0  3  0  0  0  0  0  0
  163.2170  212.8140  147.9970 C   0  0  0  0  0  3  0  0  0  0  0  0
  163.0900  211.6450  148.7530 C   0  0  0  0  0  3  0  0  0  0  0  0
  160.9580  209.2060  155.8160 C   0  0  0  0  0  1  0  0  0  0  0  0
  161.2150  207.9240  155.2620 O   0  0  0  0  0  0  0  0  0  0  0  0
  1  8  1  0  0  0  0
  2  6  1  0  0  0  0
  2  9  2  0  0  0  0
  3 10  1  0  0  0  0
  4  2  1  0  0  0  0
  5 27  1  0  0  0  0
  6  1  2  0  0  0  0
  7 18  1  0  0  0  0
  7  9  1  0  0  0  0
  8 12  2  0  0  0  0
  9 13  1  0  0  0  0
 10  5  2  0  0  0  0
 11  4  2  0  0  0  0
 11  7  1  0  0  0  0
 12  5  1  0  0  0  0
 13  8  1  0  0  0  0
 13  3  2  0  0  0  0
 14 19  2  0  0  0  0
 14 18  1  0  0  0  0
 15 16  2  0  0  0  0
 17 16  1  0  0  0  0
 18 17  2  0  0  0  0
 19 15  1  0  0  0  0
 20 24  1  0  0  0  0
 21 25  1  0  0  0  0
 21  6  1  0  0  0  0
 22 21  2  0  0  0  0
 23 20  2  0  0  0  0
 23 22  1  0  0  0  0
 24 25  2  0  0  0  0
 27 26  1  0  0  0  0
M  END
>  <MODEL>
7

>  <REMARK>
 VINA RESULT:      -7.6      2.078      7.107
  Name = 
  3 active torsions:
  status: ('A' for Active; 'I' for Inactive)
    1  A    between atoms: C_9  and  C_15
    2  A    between atoms: C_13  and  O_22
    3  A    between atoms: C_14  and  N_17
                            x       y       z     vdW  Elec       q    Type
                         _______ _______ _______ _____ _____    ______ ____

>  <TORSDO>
F 3

$$$$
=
 OpenBabel11062407413D

 27 31  0  0  0  0  0  0  0  0999 V2000
  161.5770  207.9120  149.8780 N   0  0  0  0  0  0  0  0  0  0  0  0
  160.9390  207.8350  152.1610 C   0  0  0  0  0  0  0  0  0  0  0  0
  161.4210  211.3610  151.1550 C   0  0  0  0  0  3  0  0  0  0  0  0
  160.6650  207.2780  153.4360 N   0  0  0  0  0  0  0  0  0  0  0  0
  162.0920  211.3890  148.8170 C   0  0  0  0  0  0  0  0  0  0  0  0
  161.2540  207.1560  150.9710 C   0  0  0  0  0  0  0  0  0  0  0  0
  160.6160  209.6180  153.5460 N   0  0  0  0  0  0  0  0  0  0  0  0
  161.6180  209.2770  149.9150 C   0  0  0  0  0  0  0  0  0  0  0  0
  160.9270  209.1980  152.2190 C   0  0  0  0  0  0  0  0  0  0  0  0
  161.8080  212.0680  150.0140 C   0  0  0  0  0  3  0  0  0  0  0  0
  160.4770  208.4030  154.3560 C   0  0  0  0  0  3  0  0  0  0  0  0
  162.0000  209.9930  148.7780 C   0  0  0  0  0  3  0  0  0  0  0  0
  161.3060  209.9680  151.1120 C   0  0  0  0  0  0  0  0  0  0  0  0
  160.5690  211.6110  154.9740 C   0  0  0  0  0  3  0  0  0  0  0  0
  158.7770  213.2280  154.7930 C   0  0  0  0  0  3  0  0  0  0  0  0
  158.1980  212.4720  153.7720 C   0  0  0  0  0  3  0  0  0  0  0  0
  158.8050  211.2850  153.3500 C   0  0  0  0  0  3  0  0  0  0  0  0
  160.0040  210.8550  153.9380 C   0  0  0  0  0  0  0  0  0  0  0  0
  159.9620  212.7960  155.3970 C   0  0  0  0  0  3  0  0  0  0  0  0
  161.2340  202.8740  150.5970 C   0  0  0  0  0  3  0  0  0  0  0  0
  161.2600  205.6740  150.8550 C   0  0  0  0  0  0  0  0  0  0  0  0
  161.9100  204.8620  151.7980 C   0  0  0  0  0  3  0  0  0  0  0  0
  161.8990  203.4700  151.6700 C   0  0  0  0  0  3  0  0  0  0  0  0
  160.5800  203.6690  149.6520 C   0  0  0  0  0  3  0  0  0  0  0  0
  160.5940  205.0610  149.7820 C   0  0  0  0  0  3  0  0  0  0  0  0
  161.5450  212.7570  146.8310 C   0  0  0  0  0  1  0  0  0  0  0  0
  162.4740  212.0730  147.6600 O   0  0  0  0  0  0  0  0  0  0  0  0
  1  8  2  0  0  0  0
  1  6  1  0  0  0  0
  2  9  1  0  0  0  0
  2  4  1  0  0  0  0
  4 11  2  0  0  0  0
  5 10  1  0  0  0  0
  6  2  2  0  0  0  0
  7 18  1  0  0  0  0
  7 11  1  0  0  0  0
  8 13  1  0  0  0  0
  9  7  1  0  0  0  0
 10  3  2  0  0  0  0
 12  5  2  0  0  0  0
 12  8  1  0  0  0  0
 13  3  1  0  0  0  0
 13  9  2  0  0  0  0
 14 19  1  0  0  0  0
 15 19  2  0  0  0  0
 16 15  1  0  0  0  0
 17 16  2  0  0  0  0
 17 18  1  0  0  0  0
 18 14  2  0  0  0  0
 20 23  1  0  0  0  0
 21  6  1  0  0  0  0
 21 22  1  0  0  0  0
 23 22  2  0  0  0  0
 24 25  1  0  0  0  0
 24 20  2  0  0  0  0
 25 21  2  0  0  0  0
 26 27  1  0  0  0  0
 27  5  1  0  0  0  0
M  END
>  <MODEL>
8

>  <REMARK>
 VINA RESULT:      -7.2      1.416      2.142
  Name = 
  3 active torsions:
  status: ('A' for Active; 'I' for Inactive)
    1  A    between atoms: C_9  and  C_15
    2  A    between atoms: C_13  and  O_22
    3  A    between atoms: C_14  and  N_17
                            x       y       z     vdW  Elec       q    Type
                         _______ _______ _______ _____ _____    ______ ____

>  <TORSDO>
F 3

$$$$
=
 OpenBabel11062407413D

 27 31  0  0  0  0  0  0  0  0999 V2000
  161.6210  209.2670  152.4120 N   0  0  0  0  0  0  0  0  0  0  0  0
  161.0340  206.9860  152.1340 C   0  0  0  0  0  0  0  0  0  0  0  0
  161.6240  208.4990  148.8120 C   0  0  0  0  0  3  0  0  0  0  0  0
  160.5610  205.6940  152.4790 N   0  0  0  0  0  0  0  0  0  0  0  0
  162.2030  210.8380  149.1460 C   0  0  0  0  0  0  0  0  0  0  0  0
  161.2520  208.0820  152.9880 C   0  0  0  0  0  0  0  0  0  0  0  0
  160.8870  205.8480  150.1630 N   0  0  0  0  0  0  0  0  0  0  0  0
  161.7640  209.4150  151.0620 C   0  0  0  0  0  0  0  0  0  0  0  0
  161.2130  207.0890  150.7860 C   0  0  0  0  0  0  0  0  0  0  0  0
  161.9560  209.7520  148.2890 C   0  0  0  0  0  3  0  0  0  0  0  0
  160.4330  204.9450  151.2260 C   0  0  0  0  0  3  0  0  0  0  0  0
  162.1000  210.6630  150.5300 C   0  0  0  0  0  3  0  0  0  0  0  0
  161.5440  208.3150  150.1960 C   0  0  0  0  0  0  0  0  0  0  0  0
  161.9430  206.2350  147.9840 C   0  0  0  0  0  3  0  0  0  0  0  0
  162.3140  204.4070  146.4410 C   0  0  0  0  0  3  0  0  0  0  0  0
  161.7550  203.5170  147.3610 C   0  0  0  0  0  3  0  0  0  0  0  0
  161.2910  203.9850  148.5940 C   0  0  0  0  0  3  0  0  0  0  0  0
  161.3980  205.3460  148.9200 C   0  0  0  0  0  0  0  0  0  0  0  0
  162.4070  205.7670  146.7520 C   0  0  0  0  0  3  0  0  0  0  0  0
  160.8220  207.9160  157.2610 C   0  0  0  0  0  3  0  0  0  0  0  0
  161.0900  208.0110  154.4630 C   0  0  0  0  0  0  0  0  0  0  0  0
  160.3430  206.9930  155.0760 C   0  0  0  0  0  3  0  0  0  0  0  0
  160.2080  206.9450  156.4660 C   0  0  0  0  0  3  0  0  0  0  0  0
  161.5700  208.9340  156.6650 C   0  0  0  0  0  3  0  0  0  0  0  0
  161.7020  208.9790  155.2740 C   0  0  0  0  0  3  0  0  0  0  0  0
  162.0700  212.5860  147.4010 C   0  0  0  0  0  1  0  0  0  0  0  0
  162.5440  212.0990  148.6490 O   0  0  0  0  0  0  0  0  0  0  0  0
  1  6  1  0  0  0  0
  2  4  1  0  0  0  0
  2  6  2  0  0  0  0
  3 13  1  0  0  0  0
  5 12  2  0  0  0  0
  6 21  1  0  0  0  0
  7  9  1  0  0  0  0
  7 11  1  0  0  0  0
  8  1  2  0  0  0  0
  9  2  1  0  0  0  0
 10  3  2  0  0  0  0
 10  5  1  0  0  0  0
 11  4  2  0  0  0  0
 12  8  1  0  0  0  0
 13  9  2  0  0  0  0
 13  8  1  0  0  0  0
 14 18  1  0  0  0  0
 15 19  1  0  0  0  0
 15 16  2  0  0  0  0
 16 17  1  0  0  0  0
 17 18  2  0  0  0  0
 18  7  1  0  0  0  0
 19 14  2  0  0  0  0
 21 22  2  0  0  0  0
 21 25  1  0  0  0  0
 22 23  1  0  0  0  0
 23 20  2  0  0  0  0
 24 20  1  0  0  0  0
 25 24  2  0  0  0  0
 26 27  1  0  0  0  0
 27  5  1  0  0  0  0
M  END
>  <MODEL>
9

>  <REMARK>
 VINA RESULT:      -7.2      1.406      6.159
  Name = 
  3 active torsions:
  status: ('A' for Active; 'I' for Inactive)
    1  A    between atoms: C_9  and  C_15
    2  A    between atoms: C_13  and  O_22
    3  A    between atoms: C_14  and  N_17
                            x       y       z     vdW  Elec       q    Type
                         _______ _______ _______ _____ _____    ______ ____

>  <TORSDO>
F 3

$$$$
