=
 OpenBabel11052422073D

 25 28  0  0  1  0  0  0  0  0999 V2000
  161.1990  204.1980  147.9840 C   0  0  0  0  0  0  0  0  0  0  0  0
  161.0730  205.6990  148.1100 C   0  0  2  0  0  3  0  0  0  0  0  0
  161.9450  204.3950  145.5530 C   0  0  0  0  0  2  0  0  0  0  0  0
  160.9000  203.3710  149.0810 C   0  0  0  0  0  0  0  0  0  0  0  0
  160.6660  201.2520  150.2130 C   0  0  0  0  0  2  0  0  0  0  0  0
  162.1150  205.8880  145.8280 C   0  0  0  0  0  2  0  0  0  0  0  0
  161.5490  201.4040  147.8410 C   0  0  0  0  0  3  0  0  0  0  0  0
  161.0590  202.0030  149.0000 C   0  0  0  0  0  0  0  0  0  0  0  0
  159.8040  202.2030  151.0400 C   0  0  0  0  0  2  0  0  0  0  0  0
  161.7000  203.5990  146.8020 C   0  0  0  0  0  0  0  0  0  0  0  0
  161.8620  202.2070  146.7390 C   0  0  0  0  0  3  0  0  0  0  0  0
  160.2610  203.9320  150.6490 S   0  0  0  0  0  0  0  0  0  0  0  0
  161.0130  206.4040  146.7510 C   0  0  1  0  0  3  0  0  0  0  0  0
  159.7560  206.2250  146.1670 O   0  0  0  0  0  0  0  0  0  0  0  0
  159.9770  206.3080  144.8720 O   0  0  0  0  0  1  0  0  0  0  0  0
  162.1900  206.2210  148.8840 N   0  0  0  0  0  2  0  0  0  0  0  0
  162.5300  207.4220  150.9300 C   0  0  2  0  0  3  0  0  0  0  0  0
  162.6130  208.3050  149.8370 O   0  0  0  0  0  0  0  0  0  0  0  0
  161.6640  207.2730  149.7360 C   0  0  1  0  0  3  0  0  0  0  0  0
  161.6450  205.8990  153.2950 C   0  0  0  0  0  1  0  0  0  0  0  0
  161.7810  208.0780  152.0510 C   0  0  0  0  0  0  0  0  0  0  0  0
  161.3890  207.3350  153.2190 N   0  0  0  0  0  0  0  0  0  0  0  0
  161.4610  209.2940  151.9420 O   0  0  0  0  0  0  0  0  0  0  0  0
  160.3480  207.3920  155.4060 C   0  0  0  0  0  2  0  0  0  0  0  0
  160.7270  208.0150  154.2960 C   0  0  0  0  0  3  0  0  0  0  0  0
  1  2  1  0  0  0  0
  1  4  1  0  0  0  0
  2 16  1  6  0  0  0
  3  6  1  0  0  0  0
  3 10  1  0  0  0  0
  4 12  1  0  0  0  0
  5  9  1  0  0  0  0
  6 13  1  0  0  0  0
  7  8  1  0  0  0  0
  8  4  2  0  0  0  0
  8  5  1  0  0  0  0
 10  1  2  0  0  0  0
 11 10  1  0  0  0  0
 11  7  2  0  0  0  0
 12  9  1  0  0  0  0
 13 14  1  6  0  0  0
 13  2  1  0  0  0  0
 15 14  1  0  0  0  0
 17 21  1  1  0  0  0
 18 17  1  0  0  0  0
 19 16  1  6  0  0  0
 19 18  1  0  0  0  0
 19 17  1  0  0  0  0
 21 22  1  0  0  0  0
 22 20  1  0  0  0  0
 22 25  1  0  0  0  0
 23 21  2  0  0  0  0
 25 24  2  0  0  0  0
M  END
>  <MODEL>
1

>  <REMARK>
 VINA RESULT:      -6.4      0.000      0.000
  Name = 
  5 active torsions:
  status: ('A' for Active; 'I' for Inactive)
    1  A    between atoms: C_3  and  N_16
    2  A    between atoms: C_6  and  C_15
    3  A    between atoms: C_7  and  N_21
    4  A    between atoms: O_13  and  C_24
    5  A    between atoms: N_16  and  C_23
                            x       y       z     vdW  Elec       q    Type
                         _______ _______ _______ _____ _____    ______ ____

>  <TORSDO>
F 5

$$$$
=
 OpenBabel11052422073D

 25 28  0  0  1  0  0  0  0  0999 V2000
  161.2400  203.6970  148.6840 C   0  0  0  0  0  0  0  0  0  0  0  0
  161.3380  204.4720  149.9780 C   0  0  2  0  0  3  0  0  0  0  0  0
  160.4290  201.6150  149.9130 C   0  0  0  0  0  2  0  0  0  0  0  0
  161.5840  204.3110  147.4660 C   0  0  0  0  0  0  0  0  0  0  0  0
  161.8890  204.3860  145.0740 C   0  0  0  0  0  2  0  0  0  0  0  0
  160.2360  202.5240  151.1250 C   0  0  0  0  0  2  0  0  0  0  0  0
  160.9430  202.3380  146.2320 C   0  0  0  0  0  3  0  0  0  0  0  0
  161.4500  203.6360  146.2710 C   0  0  0  0  0  0  0  0  0  0  0  0
  162.7530  205.5360  145.5860 C   0  0  0  0  0  2  0  0  0  0  0  0
  160.7210  202.3790  148.6540 C   0  0  0  0  0  0  0  0  0  0  0  0
  160.5850  201.7100  147.4290 C   0  0  0  0  0  3  0  0  0  0  0  0
  162.2500  205.9560  147.2960 S   0  0  0  0  0  0  0  0  0  0  0  0
  161.3500  203.5650  151.2120 C   0  0  1  0  0  3  0  0  0  0  0  0
  162.5950  202.9440  151.3460 O   0  0  0  0  0  0  0  0  0  0  0  0
  162.3610  201.8890  152.0980 O   0  0  0  0  0  1  0  0  0  0  0  0
  160.2320  205.4130  150.0710 N   0  0  0  0  0  2  0  0  0  0  0  0
  161.1060  206.8940  151.7390 C   0  0  2  0  0  3  0  0  0  0  0  0
  162.1100  206.5830  150.8020 O   0  0  0  0  0  0  0  0  0  0  0  0
  160.8060  206.7280  150.2970 C   0  0  1  0  0  3  0  0  0  0  0  0
  160.8030  207.8140  154.5240 C   0  0  0  0  0  1  0  0  0  0  0  0
  161.1890  208.3480  152.0990 C   0  0  0  0  0  0  0  0  0  0  0  0
  161.0810  208.7820  153.4660 N   0  0  0  0  0  0  0  0  0  0  0  0
  161.3200  209.1990  151.1770 O   0  0  0  0  0  0  0  0  0  0  0  0
  161.8540  210.6040  154.8660 C   0  0  0  0  0  2  0  0  0  0  0  0
  161.2270  210.1770  153.7750 C   0  0  0  0  0  3  0  0  0  0  0  0
  1  2  1  0  0  0  0
  2 16  1  1  0  0  0
  2 13  1  0  0  0  0
  3  6  1  0  0  0  0
  4  1  2  0  0  0  0
  5  9  1  0  0  0  0
  5  8  1  0  0  0  0
  6 13  1  0  0  0  0
  7  8  2  0  0  0  0
  7 11  1  0  0  0  0
  8  4  1  0  0  0  0
  9 12  1  0  0  0  0
 10  1  1  0  0  0  0
 10  3  1  0  0  0  0
 11 10  2  0  0  0  0
 12  4  1  0  0  0  0
 13 14  1  6  0  0  0
 14 15  1  0  0  0  0
 17 21  1  6  0  0  0
 18 17  1  0  0  0  0
 19 16  1  1  0  0  0
 19 18  1  0  0  0  0
 19 17  1  0  0  0  0
 21 22  1  0  0  0  0
 22 25  1  0  0  0  0
 22 20  1  0  0  0  0
 23 21  2  0  0  0  0
 25 24  2  0  0  0  0
M  END
>  <MODEL>
2

>  <REMARK>
 VINA RESULT:      -6.0      2.355      4.017
  Name = 
  5 active torsions:
  status: ('A' for Active; 'I' for Inactive)
    1  A    between atoms: C_3  and  N_16
    2  A    between atoms: C_6  and  C_15
    3  A    between atoms: C_7  and  N_21
    4  A    between atoms: O_13  and  C_24
    5  A    between atoms: N_16  and  C_23
                            x       y       z     vdW  Elec       q    Type
                         _______ _______ _______ _____ _____    ______ ____

>  <TORSDO>
F 5

$$$$
=
 OpenBabel11052422073D

 25 28  0  0  1  0  0  0  0  0999 V2000
  160.2670  210.3520  155.2140 C   0  0  0  0  0  0  0  0  0  0  0  0
  160.3280  208.9700  154.6060 C   0  0  2  0  0  3  0  0  0  0  0  0
  161.5820  209.5850  157.2610 C   0  0  0  0  0  2  0  0  0  0  0  0
  159.6050  211.3920  154.5370 C   0  0  0  0  0  0  0  0  0  0  0  0
  158.8170  213.6560  154.2590 C   0  0  0  0  0  2  0  0  0  0  0  0
  161.8910  208.3180  156.4660 C   0  0  0  0  0  2  0  0  0  0  0  0
  160.2440  212.9780  156.2420 C   0  0  0  0  0  3  0  0  0  0  0  0
  159.5850  212.6710  155.0520 C   0  0  0  0  0  0  0  0  0  0  0  0
  157.9270  212.8440  153.3200 C   0  0  0  0  0  2  0  0  0  0  0  0
  160.9420  210.6540  156.4230 C   0  0  0  0  0  0  0  0  0  0  0  0
  160.9160  211.9630  156.9290 C   0  0  0  0  0  3  0  0  0  0  0  0
  158.7020  211.2140  153.0100 S   0  0  0  0  0  0  0  0  0  0  0  0
  160.6870  207.8880  155.6300 C   0  0  1  0  0  3  0  0  0  0  0  0
  159.5900  207.6130  156.4510 O   0  0  0  0  0  0  0  0  0  0  0  0
  160.0110  206.6640  157.2610 O   0  0  0  0  0  1  0  0  0  0  0  0
  161.2930  208.9550  153.5170 N   0  0  0  0  0  2  0  0  0  0  0  0
  162.0120  207.6430  151.6460 C   0  0  2  0  0  3  0  0  0  0  0  0
  161.8830  206.8240  152.7840 O   0  0  0  0  0  0  0  0  0  0  0  0
  160.9360  207.8520  152.6430 C   0  0  1  0  0  3  0  0  0  0  0  0
  162.0120  208.8870  148.9730 C   0  0  0  0  0  1  0  0  0  0  0  0
  161.4870  206.9180  150.4430 C   0  0  0  0  0  0  0  0  0  0  0  0
  161.5290  207.5180  149.1360 N   0  0  0  0  0  0  0  0  0  0  0  0
  160.9670  205.7770  150.5950 O   0  0  0  0  0  0  0  0  0  0  0  0
  161.9000  206.3210  147.0620 C   0  0  0  0  0  2  0  0  0  0  0  0
  161.0730  206.7660  148.0020 C   0  0  0  0  0  3  0  0  0  0  0  0
  1 10  1  0  0  0  0
  2 16  1  6  0  0  0
  2  1  1  0  0  0  0
  2 13  1  0  0  0  0
  4  8  1  0  0  0  0
  4  1  2  0  0  0  0
  5  8  1  0  0  0  0
  6  3  1  0  0  0  0
  7 11  1  0  0  0  0
  8  7  2  0  0  0  0
  9  5  1  0  0  0  0
 10 11  2  0  0  0  0
 10  3  1  0  0  0  0
 12  9  1  0  0  0  0
 12  4  1  0  0  0  0
 13 14  1  1  0  0  0
 13  6  1  0  0  0  0
 14 15  1  0  0  0  0
 17 21  1  6  0  0  0
 17 19  1  0  0  0  0
 17 18  1  0  0  0  0
 19 18  1  0  0  0  0
 19 16  1  1  0  0  0
 20 22  1  0  0  0  0
 21 23  2  0  0  0  0
 22 21  1  0  0  0  0
 24 25  2  0  0  0  0
 25 22  1  0  0  0  0
M  END
>  <MODEL>
3

>  <REMARK>
 VINA RESULT:      -6.0      3.704      9.280
  Name = 
  5 active torsions:
  status: ('A' for Active; 'I' for Inactive)
    1  A    between atoms: C_3  and  N_16
    2  A    between atoms: C_6  and  C_15
    3  A    between atoms: C_7  and  N_21
    4  A    between atoms: O_13  and  C_24
    5  A    between atoms: N_16  and  C_23
                            x       y       z     vdW  Elec       q    Type
                         _______ _______ _______ _____ _____    ______ ____

>  <TORSDO>
F 5

$$$$
=
 OpenBabel11052422073D

 25 28  0  0  1  0  0  0  0  0999 V2000
  161.2290  208.4890  153.3070 C   0  0  0  0  0  0  0  0  0  0  0  0
  161.1780  209.9980  153.3900 C   0  0  2  0  0  3  0  0  0  0  0  0
  160.8680  208.2710  155.8230 C   0  0  0  0  0  2  0  0  0  0  0  0
  161.4310  207.8580  152.0670 C   0  0  0  0  0  0  0  0  0  0  0  0
  161.6960  205.9520  150.6110 C   0  0  0  0  0  2  0  0  0  0  0  0
  160.5030  209.7540  155.8010 C   0  0  0  0  0  2  0  0  0  0  0  0
  161.1950  205.6790  153.0820 C   0  0  0  0  0  3  0  0  0  0  0  0
  161.4280  206.4820  151.9660 C   0  0  0  0  0  0  0  0  0  0  0  0
  162.3110  207.1020  149.8180 C   0  0  0  0  0  2  0  0  0  0  0  0
  160.9880  207.6820  154.4470 C   0  0  0  0  0  0  0  0  0  0  0  0
  160.9820  206.2850  154.3240 C   0  0  0  0  0  3  0  0  0  0  0  0
  161.7480  208.6940  150.5250 S   0  0  0  0  0  0  0  0  0  0  0  0
  161.3840  210.5200  154.8150 C   0  0  1  0  0  3  0  0  0  0  0  0
  162.7290  210.4230  155.1780 O   0  0  0  0  0  0  0  0  0  0  0  0
  162.8110  211.0630  156.3250 O   0  0  0  0  0  1  0  0  0  0  0  0
  159.9030  210.4740  152.8720 N   0  0  0  0  0  2  0  0  0  0  0  0
  159.4870  212.1090  151.1700 C   0  0  2  0  0  3  0  0  0  0  0  0
  158.8270  212.4750  152.3580 O   0  0  0  0  0  0  0  0  0  0  0  0
  160.0850  211.8670  152.5050 C   0  0  1  0  0  3  0  0  0  0  0  0
  161.2360  211.9080  148.8040 C   0  0  0  0  0  1  0  0  0  0  0  0
  160.0870  213.3260  150.5320 C   0  0  0  0  0  0  0  0  0  0  0  0
  160.9060  213.2210  149.3540 N   0  0  0  0  0  0  0  0  0  0  0  0
  159.8950  214.4530  151.0660 O   0  0  0  0  0  0  0  0  0  0  0  0
  162.5780  214.4530  148.1040 C   0  0  0  0  0  2  0  0  0  0  0  0
  161.4100  214.4160  148.7390 C   0  0  0  0  0  3  0  0  0  0  0  0
  1  2  1  0  0  0  0
  1 10  1  0  0  0  0
  2 16  1  1  0  0  0
  2 13  1  0  0  0  0
  4  1  2  0  0  0  0
  5  8  1  0  0  0  0
  6  3  1  0  0  0  0
  7 11  1  0  0  0  0
  8  4  1  0  0  0  0
  8  7  2  0  0  0  0
  9 12  1  0  0  0  0
  9  5  1  0  0  0  0
 10  3  1  0  0  0  0
 11 10  2  0  0  0  0
 12  4  1  0  0  0  0
 13 14  1  1  0  0  0
 13  6  1  0  0  0  0
 14 15  1  0  0  0  0
 17 21  1  6  0  0  0
 17 18  1  0  0  0  0
 17 19  1  0  0  0  0
 18 19  1  0  0  0  0
 19 16  1  1  0  0  0
 20 22  1  0  0  0  0
 21 23  2  0  0  0  0
 22 21  1  0  0  0  0
 24 25  2  0  0  0  0
 25 22  1  0  0  0  0
M  END
>  <MODEL>
4

>  <REMARK>
 VINA RESULT:      -6.0      4.553      7.765
  Name = 
  5 active torsions:
  status: ('A' for Active; 'I' for Inactive)
    1  A    between atoms: C_3  and  N_16
    2  A    between atoms: C_6  and  C_15
    3  A    between atoms: C_7  and  N_21
    4  A    between atoms: O_13  and  C_24
    5  A    between atoms: N_16  and  C_23
                            x       y       z     vdW  Elec       q    Type
                         _______ _______ _______ _____ _____    ______ ____

>  <TORSDO>
F 5

$$$$
=
 OpenBabel11052422073D

 25 28  0  0  1  0  0  0  0  0999 V2000
  161.3260  204.2620  149.1610 C   0  0  0  0  0  0  0  0  0  0  0  0
  161.4350  205.3320  150.2220 C   0  0  2  0  0  3  0  0  0  0  0  0
  160.6810  202.5090  150.8980 C   0  0  0  0  0  2  0  0  0  0  0  0
  161.5860  204.5740  147.8150 C   0  0  0  0  0  0  0  0  0  0  0  0
  161.7880  204.0760  145.4620 C   0  0  0  0  0  2  0  0  0  0  0  0
  160.4890  203.6770  151.8630 C   0  0  0  0  0  2  0  0  0  0  0  0
  161.0040  202.3330  147.1290 C   0  0  0  0  0  3  0  0  0  0  0  0
  161.4410  203.6220  146.8270 C   0  0  0  0  0  0  0  0  0  0  0  0
  162.6080  205.3530  145.6340 C   0  0  0  0  0  2  0  0  0  0  0  0
  160.8800  202.9550  149.4780 C   0  0  0  0  0  0  0  0  0  0  0  0
  160.7310  202.0010  148.4600 C   0  0  0  0  0  3  0  0  0  0  0  0
  162.1540  206.1550  147.2160 S   0  0  0  0  0  0  0  0  0  0  0  0
  161.5470  204.7550  151.6360 C   0  0  1  0  0  3  0  0  0  0  0  0
  162.8280  204.2400  151.8510 O   0  0  0  0  0  0  0  0  0  0  0  0
  163.5560  205.2860  152.1820 O   0  0  0  0  0  1  0  0  0  0  0  0
  160.2830  206.2190  150.1440 N   0  0  0  0  0  2  0  0  0  0  0  0
  161.3060  207.7810  151.6450 C   0  0  2  0  0  3  0  0  0  0  0  0
  162.1570  207.5430  150.5490 O   0  0  0  0  0  0  0  0  0  0  0  0
  160.7790  207.5770  150.2740 C   0  0  1  0  0  3  0  0  0  0  0  0
  160.5800  208.7390  154.3370 C   0  0  0  0  0  1  0  0  0  0  0  0
  161.3300  209.2400  151.9920 C   0  0  0  0  0  0  0  0  0  0  0  0
  161.0140  209.6930  153.3200 N   0  0  0  0  0  0  0  0  0  0  0  0
  161.5990  210.0790  151.0880 O   0  0  0  0  0  0  0  0  0  0  0  0
  160.0380  211.8610  153.7900 C   0  0  0  0  0  2  0  0  0  0  0  0
  161.1090  211.0930  153.6270 C   0  0  0  0  0  3  0  0  0  0  0  0
  1 10  1  0  0  0  0
  1  2  1  0  0  0  0
  2 16  1  1  0  0  0
  2 13  1  0  0  0  0
  3  6  1  0  0  0  0
  4  1  2  0  0  0  0
  5  9  1  0  0  0  0
  5  8  1  0  0  0  0
  7 11  1  0  0  0  0
  8  7  2  0  0  0  0
  8  4  1  0  0  0  0
  9 12  1  0  0  0  0
 10  3  1  0  0  0  0
 11 10  2  0  0  0  0
 12  4  1  0  0  0  0
 13 14  1  6  0  0  0
 13  6  1  0  0  0  0
 14 15  1  0  0  0  0
 17 21  1  6  0  0  0
 18 17  1  0  0  0  0
 19 16  1  1  0  0  0
 19 18  1  0  0  0  0
 19 17  1  0  0  0  0
 21 22  1  0  0  0  0
 22 25  1  0  0  0  0
 22 20  1  0  0  0  0
 23 21  2  0  0  0  0
 25 24  2  0  0  0  0
M  END
>  <MODEL>
5

>  <REMARK>
 VINA RESULT:      -5.7      2.227      4.047
  Name = 
  5 active torsions:
  status: ('A' for Active; 'I' for Inactive)
    1  A    between atoms: C_3  and  N_16
    2  A    between atoms: C_6  and  C_15
    3  A    between atoms: C_7  and  N_21
    4  A    between atoms: O_13  and  C_24
    5  A    between atoms: N_16  and  C_23
                            x       y       z     vdW  Elec       q    Type
                         _______ _______ _______ _____ _____    ______ ____

>  <TORSDO>
F 5

$$$$
=
 OpenBabel11052422073D

 25 28  0  0  1  0  0  0  0  0999 V2000
  161.0830  208.5260  152.1980 C   0  0  0  0  0  0  0  0  0  0  0  0
  161.2020  208.7800  150.7130 C   0  0  2  0  0  3  0  0  0  0  0  0
  162.2360  206.2620  151.9740 C   0  0  0  0  0  2  0  0  0  0  0  0
  160.4690  209.4810  153.0300 C   0  0  0  0  0  0  0  0  0  0  0  0
  159.6890  210.3500  155.1410 C   0  0  0  0  0  2  0  0  0  0  0  0
  162.6170  206.7050  150.5630 C   0  0  0  0  0  2  0  0  0  0  0  0
  160.9580  208.1600  154.9910 C   0  0  0  0  0  3  0  0  0  0  0  0
  160.3980  209.2880  154.3940 C   0  0  0  0  0  0  0  0  0  0  0  0
  158.8830  211.1320  154.1060 C   0  0  0  0  0  2  0  0  0  0  0  0
  161.6570  207.3770  152.7960 C   0  0  0  0  0  0  0  0  0  0  0  0
  161.5810  207.2020  154.1860 C   0  0  0  0  0  3  0  0  0  0  0  0
  159.6930  210.9850  152.4710 S   0  0  0  0  0  0  0  0  0  0  0  0
  161.4870  207.5040  149.9150 C   0  0  1  0  0  3  0  0  0  0  0  0
  160.3300  206.7260  149.8140 O   0  0  0  0  0  0  0  0  0  0  0  0
  160.3860  206.2040  148.6070 O   0  0  0  0  0  1  0  0  0  0  0  0
  162.2520  209.7580  150.4660 N   0  0  0  0  0  2  0  0  0  0  0  0
  161.9560  211.8580  149.3510 C   0  0  2  0  0  3  0  0  0  0  0  0
  163.0560  211.1740  148.7990 O   0  0  0  0  0  0  0  0  0  0  0  0
  161.9600  210.3850  149.1890 C   0  0  1  0  0  3  0  0  0  0  0  0
  159.7320  213.7030  149.9360 C   0  0  0  0  0  1  0  0  0  0  0  0
  161.1690  212.5100  148.2540 C   0  0  0  0  0  0  0  0  0  0  0  0
  160.1120  213.4410  148.5500 N   0  0  0  0  0  0  0  0  0  0  0  0
  161.4200  212.2040  147.0560 O   0  0  0  0  0  0  0  0  0  0  0  0
  158.1940  213.7480  147.1010 C   0  0  0  0  0  2  0  0  0  0  0  0
  159.4240  214.0900  147.4700 C   0  0  0  0  0  3  0  0  0  0  0  0
  1 10  2  0  0  0  0
  1  4  1  0  0  0  0
  2 16  1  1  0  0  0
  2  1  1  0  0  0  0
  3 10  1  0  0  0  0
  4  8  2  0  0  0  0
  6  3  1  0  0  0  0
  8  7  1  0  0  0  0
  8  5  1  0  0  0  0
  9  5  1  0  0  0  0
 10 11  1  0  0  0  0
 11  7  2  0  0  0  0
 12  4  1  0  0  0  0
 12  9  1  0  0  0  0
 13 14  1  1  0  0  0
 13  6  1  0  0  0  0
 13  2  1  0  0  0  0
 15 14  1  0  0  0  0
 17 21  1  6  0  0  0
 18 19  1  0  0  0  0
 18 17  1  0  0  0  0
 19 17  1  0  0  0  0
 19 16  1  1  0  0  0
 21 22  1  0  0  0  0
 22 20  1  0  0  0  0
 23 21  2  0  0  0  0
 24 25  2  0  0  0  0
 25 22  1  0  0  0  0
M  END
>  <MODEL>
6

>  <REMARK>
 VINA RESULT:      -5.4      4.130      7.028
  Name = 
  5 active torsions:
  status: ('A' for Active; 'I' for Inactive)
    1  A    between atoms: C_3  and  N_16
    2  A    between atoms: C_6  and  C_15
    3  A    between atoms: C_7  and  N_21
    4  A    between atoms: O_13  and  C_24
    5  A    between atoms: N_16  and  C_23
                            x       y       z     vdW  Elec       q    Type
                         _______ _______ _______ _____ _____    ______ ____

>  <TORSDO>
F 5

$$$$
=
 OpenBabel11052422073D

 25 28  0  0  1  0  0  0  0  0999 V2000
  161.3580  204.6700  148.3670 C   0  0  0  0  0  0  0  0  0  0  0  0
  161.4010  206.1330  147.9880 C   0  0  2  0  0  3  0  0  0  0  0  0
  161.6430  203.9610  145.9330 C   0  0  0  0  0  2  0  0  0  0  0  0
  161.1960  204.2940  149.7120 C   0  0  0  0  0  0  0  0  0  0  0  0
  160.9830  202.7110  151.5210 C   0  0  0  0  0  2  0  0  0  0  0  0
  162.0020  205.4190  145.6520 C   0  0  0  0  0  2  0  0  0  0  0  0
  161.4090  201.9580  149.1380 C   0  0  0  0  0  3  0  0  0  0  0  0
  161.2070  202.9650  150.0810 C   0  0  0  0  0  0  0  0  0  0  0  0
  160.3880  203.9970  152.0920 C   0  0  0  0  0  2  0  0  0  0  0  0
  161.5660  203.6550  147.4000 C   0  0  0  0  0  0  0  0  0  0  0  0
  161.5810  202.3080  147.7950 C   0  0  0  0  0  3  0  0  0  0  0  0
  160.9240  205.4180  151.0690 S   0  0  0  0  0  0  0  0  0  0  0  0
  161.1490  206.3660  146.4960 C   0  0  1  0  0  3  0  0  0  0  0  0
  159.7930  206.2030  146.2000 O   0  0  0  0  0  0  0  0  0  0  0  0
  159.7440  206.1450  144.8860 O   0  0  0  0  0  1  0  0  0  0  0  0
  162.6890  206.6990  148.3640 N   0  0  0  0  0  2  0  0  0  0  0  0
  161.8160  208.9290  148.4270 C   0  0  2  0  0  3  0  0  0  0  0  0
  161.0390  208.0870  149.2450 O   0  0  0  0  0  0  0  0  0  0  0  0
  162.4210  207.8360  149.2250 C   0  0  1  0  0  3  0  0  0  0  0  0
  161.0210  211.4580  147.1360 C   0  0  0  0  0  1  0  0  0  0  0  0
  162.0080  210.2520  149.1070 C   0  0  0  0  0  0  0  0  0  0  0  0
  161.5790  211.4760  148.4850 N   0  0  0  0  0  0  0  0  0  0  0  0
  162.5900  210.2840  150.2260 O   0  0  0  0  0  0  0  0  0  0  0  0
  161.5980  213.8970  148.6030 C   0  0  0  0  0  2  0  0  0  0  0  0
  161.7260  212.7150  149.1960 C   0  0  0  0  0  3  0  0  0  0  0  0
  1  4  1  0  0  0  0
  2 16  1  6  0  0  0
  2  1  1  0  0  0  0
  3 10  1  0  0  0  0
  4  8  2  0  0  0  0
  4 12  1  0  0  0  0
  5  9  1  0  0  0  0
  6  3  1  0  0  0  0
  6 13  1  0  0  0  0
  7  8  1  0  0  0  0
  8  5  1  0  0  0  0
 10 11  1  0  0  0  0
 10  1  2  0  0  0  0
 11  7  2  0  0  0  0
 12  9  1  0  0  0  0
 13 14  1  1  0  0  0
 13  2  1  0  0  0  0
 15 14  1  0  0  0  0
 17 21  1  1  0  0  0
 17 19  1  0  0  0  0
 17 18  1  0  0  0  0
 19 16  1  6  0  0  0
 19 18  1  0  0  0  0
 20 22  1  0  0  0  0
 21 23  2  0  0  0  0
 22 21  1  0  0  0  0
 22 25  1  0  0  0  0
 24 25  2  0  0  0  0
M  END
>  <MODEL>
7

>  <REMARK>
 VINA RESULT:      -5.2      2.571      3.467
  Name = 
  5 active torsions:
  status: ('A' for Active; 'I' for Inactive)
    1  A    between atoms: C_3  and  N_16
    2  A    between atoms: C_6  and  C_15
    3  A    between atoms: C_7  and  N_21
    4  A    between atoms: O_13  and  C_24
    5  A    between atoms: N_16  and  C_23
                            x       y       z     vdW  Elec       q    Type
                         _______ _______ _______ _____ _____    ______ ____

>  <TORSDO>
F 5

$$$$
=
 OpenBabel11052422073D

 25 28  0  0  1  0  0  0  0  0999 V2000
  161.4150  205.1840  150.0600 C   0  0  0  0  0  0  0  0  0  0  0  0
  161.6310  206.3410  151.0080 C   0  0  2  0  0  3  0  0  0  0  0  0
  160.9940  203.5830  152.0000 C   0  0  0  0  0  2  0  0  0  0  0  0
  161.5150  205.3820  148.6710 C   0  0  0  0  0  0  0  0  0  0  0  0
  161.4540  204.6870  146.3610 C   0  0  0  0  0  2  0  0  0  0  0  0
  160.8980  204.8280  152.8790 C   0  0  0  0  0  2  0  0  0  0  0  0
  160.8860  203.0900  148.2470 C   0  0  0  0  0  3  0  0  0  0  0  0
  161.2700  204.3500  147.7900 C   0  0  0  0  0  0  0  0  0  0  0  0
  162.2720  205.9760  146.3300 C   0  0  0  0  0  2  0  0  0  0  0  0
  161.0230  203.9080  150.5350 C   0  0  0  0  0  0  0  0  0  0  0  0
  160.7710  202.8710  149.6230 C   0  0  0  0  0  3  0  0  0  0  0  0
  161.9920  206.9080  147.8810 S   0  0  0  0  0  0  0  0  0  0  0  0
  161.9110  205.8860  152.4430 C   0  0  1  0  0  3  0  0  0  0  0  0
  163.2140  205.3940  152.5520 O   0  0  0  0  0  0  0  0  0  0  0  0
  163.8740  205.9840  151.5770 O   0  0  0  0  0  1  0  0  0  0  0  0
  160.4670  207.2150  150.9880 N   0  0  0  0  0  2  0  0  0  0  0  0
  160.3890  208.9230  152.6670 C   0  0  2  0  0  3  0  0  0  0  0  0
  161.7140  208.4760  152.4990 O   0  0  0  0  0  0  0  0  0  0  0  0
  160.9260  208.5470  151.3370 C   0  0  1  0  0  3  0  0  0  0  0  0
  159.4120  210.1920  155.1420 C   0  0  0  0  0  1  0  0  0  0  0  0
  160.3790  210.4130  152.8330 C   0  0  0  0  0  0  0  0  0  0  0  0
  159.9390  211.0210  154.0600 N   0  0  0  0  0  0  0  0  0  0  0  0
  160.7310  211.1390  151.8620 O   0  0  0  0  0  0  0  0  0  0  0  0
  158.9320  213.1870  154.4730 C   0  0  0  0  0  2  0  0  0  0  0  0
  160.0030  212.4480  154.2010 C   0  0  0  0  0  3  0  0  0  0  0  0
  1 10  1  0  0  0  0
  1  2  1  0  0  0  0
  2 16  1  1  0  0  0
  2 13  1  0  0  0  0
  3  6  1  0  0  0  0
  4  1  2  0  0  0  0
  5  8  1  0  0  0  0
  7 11  1  0  0  0  0
  8  7  2  0  0  0  0
  8  4  1  0  0  0  0
  9  5  1  0  0  0  0
  9 12  1  0  0  0  0
 10  3  1  0  0  0  0
 11 10  2  0  0  0  0
 12  4  1  0  0  0  0
 13 14  1  6  0  0  0
 13  6  1  0  0  0  0
 15 14  1  0  0  0  0
 17 21  1  6  0  0  0
 18 17  1  0  0  0  0
 19 16  1  1  0  0  0
 19 18  1  0  0  0  0
 19 17  1  0  0  0  0
 21 22  1  0  0  0  0
 22 25  1  0  0  0  0
 22 20  1  0  0  0  0
 23 21  2  0  0  0  0
 25 24  2  0  0  0  0
M  END
>  <MODEL>
8

>  <REMARK>
 VINA RESULT:      -5.1      2.752      4.598
  Name = 
  5 active torsions:
  status: ('A' for Active; 'I' for Inactive)
    1  A    between atoms: C_3  and  N_16
    2  A    between atoms: C_6  and  C_15
    3  A    between atoms: C_7  and  N_21
    4  A    between atoms: O_13  and  C_24
    5  A    between atoms: N_16  and  C_23
                            x       y       z     vdW  Elec       q    Type
                         _______ _______ _______ _____ _____    ______ ____

>  <TORSDO>
F 5

$$$$
=
 OpenBabel11052422073D

 25 28  0  0  1  0  0  0  0  0999 V2000
  161.6660  205.6530  149.0400 C   0  0  0  0  0  0  0  0  0  0  0  0
  162.1920  207.0300  149.3760 C   0  0  2  0  0  3  0  0  0  0  0  0
  160.8100  205.3240  151.4200 C   0  0  0  0  0  2  0  0  0  0  0  0
  161.8220  205.1360  147.7410 C   0  0  0  0  0  0  0  0  0  0  0  0
  161.5770  203.4650  146.0180 C   0  0  0  0  0  2  0  0  0  0  0  0
  161.0620  206.8190  151.6130 C   0  0  0  0  0  2  0  0  0  0  0  0
  160.5820  203.1490  148.3290 C   0  0  0  0  0  3  0  0  0  0  0  0
  161.3020  203.9040  147.4040 C   0  0  0  0  0  0  0  0  0  0  0  0
  162.7210  204.3410  145.5130 C   0  0  0  0  0  2  0  0  0  0  0  0
  160.9330  204.8950  149.9870 C   0  0  0  0  0  0  0  0  0  0  0  0
  160.4060  203.6470  149.6240 C   0  0  0  0  0  3  0  0  0  0  0  0
  162.7060  205.9350  146.4150 S   0  0  0  0  0  0  0  0  0  0  0  0
  162.3300  207.2600  150.8840 C   0  0  1  0  0  3  0  0  0  0  0  0
  163.4450  206.5780  151.3790 O   0  0  0  0  0  0  0  0  0  0  0  0
  163.0810  206.1710  152.5770 O   0  0  0  0  0  1  0  0  0  0  0  0
  161.3170  208.0420  148.8030 N   0  0  0  0  0  2  0  0  0  0  0  0
  161.2150  210.4300  148.6340 C   0  0  2  0  0  3  0  0  0  0  0  0
  161.9580  210.0610  149.7710 O   0  0  0  0  0  0  0  0  0  0  0  0
  162.1090  209.2470  148.6360 C   0  0  1  0  0  3  0  0  0  0  0  0
  159.8230  212.0100  146.5700 C   0  0  0  0  0  1  0  0  0  0  0  0
  161.8770  211.5940  147.9570 C   0  0  0  0  0  0  0  0  0  0  0  0
  161.1740  212.3830  146.9810 N   0  0  0  0  0  0  0  0  0  0  0  0
  163.0810  211.8540  148.2280 O   0  0  0  0  0  0  0  0  0  0  0  0
  162.4380  213.4760  145.2250 C   0  0  0  0  0  2  0  0  0  0  0  0
  161.8220  213.5260  146.4020 C   0  0  0  0  0  3  0  0  0  0  0  0
  1  2  1  0  0  0  0
  1 10  1  0  0  0  0
  2 16  1  1  0  0  0
  2 13  1  0  0  0  0
  3  6  1  0  0  0  0
  4  1  2  0  0  0  0
  5  8  1  0  0  0  0
  7 11  1  0  0  0  0
  8  4  1  0  0  0  0
  8  7  2  0  0  0  0
  9  5  1  0  0  0  0
  9 12  1  0  0  0  0
 10  3  1  0  0  0  0
 11 10  2  0  0  0  0
 12  4  1  0  0  0  0
 13 14  1  1  0  0  0
 13  6  1  0  0  0  0
 14 15  1  0  0  0  0
 17 21  1  6  0  0  0
 17 19  1  0  0  0  0
 17 18  1  0  0  0  0
 19 16  1  1  0  0  0
 19 18  1  0  0  0  0
 20 22  1  0  0  0  0
 21 23  2  0  0  0  0
 22 21  1  0  0  0  0
 24 25  2  0  0  0  0
 25 22  1  0  0  0  0
M  END
>  <MODEL>
9

>  <REMARK>
 VINA RESULT:      -5.1      3.485      5.713
  Name = 
  5 active torsions:
  status: ('A' for Active; 'I' for Inactive)
    1  A    between atoms: C_3  and  N_16
    2  A    between atoms: C_6  and  C_15
    3  A    between atoms: C_7  and  N_21
    4  A    between atoms: O_13  and  C_24
    5  A    between atoms: N_16  and  C_23
                            x       y       z     vdW  Elec       q    Type
                         _______ _______ _______ _____ _____    ______ ____

>  <TORSDO>
F 5

$$$$
