=
 OpenBabel11062409573D

 43 48  0  0  1  0  0  0  0  0999 V2000
  160.8340  203.0150  150.0070 C   0  0  0  0  0  0  0  0  0  0  0  0
  161.3320  207.6010  152.3310 C   0  0  0  0  0  0  0  0  0  0  0  0
  161.9980  209.6760  150.3790 C   0  0  0  0  0  0  0  0  0  0  0  0
  161.0180  204.8480  151.6080 C   0  0  0  0  0  0  0  0  0  0  0  0
  160.8510  203.9850  148.9090 C   0  0  0  0  0  3  0  0  0  0  0  0
  160.7460  201.7180  149.7580 C   0  0  0  0  0  1  0  0  0  0  0  0
  161.0690  205.7520  150.6020 C   0  0  0  0  0  0  0  0  0  0  0  0
  160.9100  203.4780  151.3250 O   0  0  0  0  0  0  0  0  0  0  0  0
  160.9580  205.2830  149.2000 C   0  0  0  0  0  3  0  0  0  0  0  0
  162.4890  208.0090  149.8940 S   0  0  0  0  0  0  0  0  0  0  0  0
  161.1500  207.2390  150.8670 C   0  0  2  0  0  3  0  0  0  0  0  0
  161.2200  206.5460  153.3570 C   0  0  0  0  0  3  0  0  0  0  0  0
  161.5470  208.8860  152.6820 C   0  0  1  0  0  3  0  0  0  0  0  0
  161.6850  209.9380  151.6520 C   0  0  0  0  0  3  0  0  0  0  0  0
  161.0740  205.2690  153.0170 C   0  0  0  0  0  3  0  0  0  0  0  0
  161.9510  210.7540  149.3780 C   0  0  0  0  0  0  0  0  0  0  0  0
  161.2330  211.9580  149.6620 N   0  0  0  0  0  2  0  0  0  0  0  0
  162.5420  210.6130  148.2730 O   0  0  0  0  0  0  0  0  0  0  0  0
  161.1430  213.0730  148.7300 C   0  0  1  0  0  3  0  0  0  0  0  0
  162.3990  213.6140  148.5330 F   0  0  0  0  0  0  0  0  0  0  0  0
  160.6090  212.5750  147.3990 C   0  0  0  0  0  2  0  0  0  0  0  0
  159.4750  213.3860  146.9780 N   0  0  0  0  0  0  0  0  0  0  0  0
  157.4540  212.6330  146.0540 O   0  0  0  0  0  0  0  0  0  0  0  0
  158.4970  213.3220  148.0390 C   0  0  0  0  0  2  0  0  0  0  0  0
  158.8450  212.6930  145.8630 C   0  0  1  0  0  3  0  0  0  0  0  0
  157.2720  212.6840  147.4390 C   0  0  0  0  0  2  0  0  0  0  0  0
  159.1660  213.3940  144.5760 C   0  0  0  0  0  0  0  0  0  0  0  0
  158.5440  214.4500  144.2760 O   0  0  0  0  0  0  0  0  0  0  0  0
  160.2290  212.8870  143.6870 C   0  0  0  0  0  0  0  0  0  0  0  0
  162.5800  212.7710  143.0690 C   0  0  0  0  0  3  0  0  0  0  0  0
  160.9320  211.5560  141.7770 C   0  0  0  0  0  3  0  0  0  0  0  0
  162.2610  211.9230  142.0050 C   0  0  0  0  0  3  0  0  0  0  0  0
  159.9210  212.0350  142.6150 C   0  0  0  0  0  3  0  0  0  0  0  0
  161.5680  213.2510  143.9070 C   0  0  0  0  0  3  0  0  0  0  0  0
  161.6320  209.2970  154.1240 C   0  0  0  0  0  2  0  0  0  0  0  0
  159.4270  212.3740  154.3930 C   0  0  0  0  0  3  0  0  0  0  0  0
  158.4270  211.9260  155.2660 C   0  0  0  0  0  0  0  0  0  0  0  0
  159.5130  209.7540  155.3730 C   0  0  0  0  0  3  0  0  0  0  0  0
  160.4650  211.5180  154.0100 C   0  0  0  0  0  3  0  0  0  0  0  0
  160.5070  210.2060  154.4980 C   0  0  0  0  0  0  0  0  0  0  0  0
  158.4750  210.6090  155.7550 C   0  0  0  0  0  3  0  0  0  0  0  0
  156.3460  213.1590  154.7450 C   0  0  0  0  0  1  0  0  0  0  0  0
  157.4020  212.8040  155.6300 O   0  0  0  0  0  0  0  0  0  0  0  0
  1  8  1  0  0  0  0
  2 13  1  0  0  0  0
  2 12  2  0  0  0  0
  3 14  2  0  0  0  0
  4 15  2  0  0  0  0
  5  9  1  0  0  0  0
  5  1  2  0  0  0  0
  6  1  1  0  0  0  0
  7 11  1  0  0  0  0
  7  4  1  0  0  0  0
  8  4  1  0  0  0  0
  9  7  2  0  0  0  0
 10  3  1  0  0  0  0
 11 10  1  6  0  0  0
 11  2  1  0  0  0  0
 13 35  1  1  0  0  0
 14 13  1  0  0  0  0
 15 12  1  0  0  0  0
 16 17  1  0  0  0  0
 16  3  1  0  0  0  0
 18 16  2  0  0  0  0
 19 20  1  6  0  0  0
 19 17  1  0  0  0  0
 21 19  1  0  0  0  0
 22 21  1  0  0  0  0
 22 24  1  0  0  0  0
 23 26  1  0  0  0  0
 25 27  1  6  0  0  0
 25 23  1  0  0  0  0
 25 22  1  0  0  0  0
 26 24  1  0  0  0  0
 28 27  2  0  0  0  0
 29 34  1  0  0  0  0
 29 27  1  0  0  0  0
 30 34  2  0  0  0  0
 31 32  2  0  0  0  0
 31 33  1  0  0  0  0
 32 30  1  0  0  0  0
 33 29  2  0  0  0  0
 35 40  1  0  0  0  0
 36 37  1  0  0  0  0
 37 43  1  0  0  0  0
 37 41  2  0  0  0  0
 38 41  1  0  0  0  0
 39 36  2  0  0  0  0
 39 40  1  0  0  0  0
 40 38  2  0  0  0  0
 42 43  1  0  0  0  0
M  END
>  <MODEL>
1

>  <REMARK>
 VINA RESULT:      -9.2      0.000      0.000
  Name = 
  9 active torsions:
  status: ('A' for Active; 'I' for Inactive)
    1  A    between atoms: C_1  and  C_34
    2  A    between atoms: C_1  and  C_35
    3  A    between atoms: C_2  and  C_13
    4  A    between atoms: C_3  and  N_4
    5  A    between atoms: C_3  and  C_12
    6  A    between atoms: N_6  and  C_12
    7  A    between atoms: C_11  and  C_14
    8  A    between atoms: C_14  and  C_22
    9  A    between atoms: C_19  and  O_37
                            x       y       z     vdW  Elec       q    Type
                         _______ _______ _______ _____ _____    ______ ____

>  <TORSDO>
F 9

$$$$
=
 OpenBabel11062409573D

 43 48  0  0  1  0  0  0  0  0999 V2000
  161.0970  201.9570  148.6990 C   0  0  0  0  0  0  0  0  0  0  0  0
  161.1820  206.2170  151.6180 C   0  0  0  0  0  0  0  0  0  0  0  0
  161.9580  208.5430  150.0220 C   0  0  0  0  0  0  0  0  0  0  0  0
  161.0500  203.5730  150.5280 C   0  0  0  0  0  0  0  0  0  0  0  0
  161.1860  203.0610  147.7380 C   0  0  0  0  0  3  0  0  0  0  0  0
  161.0850  200.7020  148.2810 C   0  0  0  0  0  1  0  0  0  0  0  0
  161.1650  204.6000  149.6530 C   0  0  0  0  0  0  0  0  0  0  0  0
  161.0230  202.2480  150.0650 O   0  0  0  0  0  0  0  0  0  0  0  0
  161.2120  204.3130  148.2000 C   0  0  0  0  0  3  0  0  0  0  0  0
  162.5590  206.9660  149.3850 S   0  0  0  0  0  0  0  0  0  0  0  0
  161.1610  206.0430  150.1100 C   0  0  2  0  0  3  0  0  0  0  0  0
  161.0100  205.0370  152.4880 C   0  0  0  0  0  3  0  0  0  0  0  0
  161.3110  207.4520  152.1480 C   0  0  1  0  0  3  0  0  0  0  0  0
  161.5090  208.6310  151.2780 C   0  0  0  0  0  3  0  0  0  0  0  0
  160.9480  203.8110  151.9760 C   0  0  0  0  0  3  0  0  0  0  0  0
  161.9680  209.7390  149.1650 C   0  0  0  0  0  0  0  0  0  0  0  0
  161.9710  211.0410  149.7590 N   0  0  0  0  0  2  0  0  0  0  0  0
  161.9730  209.6150  147.9100 O   0  0  0  0  0  0  0  0  0  0  0  0
  161.9880  212.2730  148.9830 C   0  0  1  0  0  3  0  0  0  0  0  0
  163.1800  212.3680  148.2900 F   0  0  0  0  0  0  0  0  0  0  0  0
  160.8410  212.2560  147.9880 C   0  0  0  0  0  2  0  0  0  0  0  0
  160.7870  213.5180  147.2640 N   0  0  0  0  0  0  0  0  0  0  0  0
  159.3650  214.0730  145.4810 O   0  0  0  0  0  0  0  0  0  0  0  0
  159.6700  214.2610  147.7990 C   0  0  0  0  0  2  0  0  0  0  0  0
  160.3930  213.2080  145.8960 C   0  0  1  0  0  3  0  0  0  0  0  0
  158.7100  214.4530  146.6550 C   0  0  0  0  0  2  0  0  0  0  0  0
  161.5760  213.3260  144.9830 C   0  0  0  0  0  0  0  0  0  0  0  0
  162.6370  213.8580  145.4120 O   0  0  0  0  0  0  0  0  0  0  0  0
  161.5240  212.7880  143.6090 C   0  0  0  0  0  0  0  0  0  0  0  0
  160.4040  211.4520  141.9130 C   0  0  0  0  0  3  0  0  0  0  0  0
  162.4760  212.5840  141.3800 C   0  0  0  0  0  3  0  0  0  0  0  0
  161.4110  211.7640  140.9970 C   0  0  0  0  0  3  0  0  0  0  0  0
  162.5310  213.0940  142.6810 C   0  0  0  0  0  3  0  0  0  0  0  0
  160.4590  211.9630  143.2140 C   0  0  0  0  0  3  0  0  0  0  0  0
  161.2360  207.6760  153.6310 C   0  0  0  0  0  2  0  0  0  0  0  0
  161.2120  211.1220  155.2190 C   0  0  0  0  0  3  0  0  0  0  0  0
  160.1050  211.7100  154.5950 C   0  0  0  0  0  0  0  0  0  0  0  0
  159.7530  209.6670  153.3260 C   0  0  0  0  0  3  0  0  0  0  0  0
  161.5900  209.8130  154.9010 C   0  0  0  0  0  3  0  0  0  0  0  0
  160.8620  209.0860  153.9510 C   0  0  0  0  0  0  0  0  0  0  0  0
  159.3760  210.9750  153.6440 C   0  0  0  0  0  3  0  0  0  0  0  0
  159.0400  213.3380  156.1240 C   0  0  0  0  0  1  0  0  0  0  0  0
  159.7520  213.0200  154.9340 O   0  0  0  0  0  0  0  0  0  0  0  0
  1  8  1  0  0  0  0
  2 13  1  0  0  0  0
  2 12  2  0  0  0  0
  3 14  2  0  0  0  0
  4 15  2  0  0  0  0
  5  9  1  0  0  0  0
  5  1  2  0  0  0  0
  6  1  1  0  0  0  0
  7 11  1  0  0  0  0
  7  4  1  0  0  0  0
  8  4  1  0  0  0  0
  9  7  2  0  0  0  0
 10  3  1  0  0  0  0
 11 10  1  6  0  0  0
 11  2  1  0  0  0  0
 13 35  1  6  0  0  0
 14 13  1  0  0  0  0
 15 12  1  0  0  0  0
 16 17  1  0  0  0  0
 16  3  1  0  0  0  0
 18 16  2  0  0  0  0
 19 20  1  6  0  0  0
 19 17  1  0  0  0  0
 21 19  1  0  0  0  0
 22 24  1  0  0  0  0
 22 21  1  0  0  0  0
 23 25  1  0  0  0  0
 23 26  1  0  0  0  0
 25 27  1  6  0  0  0
 25 22  1  0  0  0  0
 26 24  1  0  0  0  0
 27 28  2  0  0  0  0
 29 27  1  0  0  0  0
 30 34  2  0  0  0  0
 31 33  1  0  0  0  0
 32 31  2  0  0  0  0
 32 30  1  0  0  0  0
 33 29  2  0  0  0  0
 34 29  1  0  0  0  0
 35 40  1  0  0  0  0
 37 43  1  0  0  0  0
 37 36  2  0  0  0  0
 38 41  2  0  0  0  0
 38 40  1  0  0  0  0
 39 36  1  0  0  0  0
 40 39  2  0  0  0  0
 41 37  1  0  0  0  0
 43 42  1  0  0  0  0
M  END
>  <MODEL>
2

>  <REMARK>
 VINA RESULT:      -9.1      1.404      1.911
  Name = 
  9 active torsions:
  status: ('A' for Active; 'I' for Inactive)
    1  A    between atoms: C_1  and  C_34
    2  A    between atoms: C_1  and  C_35
    3  A    between atoms: C_2  and  C_13
    4  A    between atoms: C_3  and  N_4
    5  A    between atoms: C_3  and  C_12
    6  A    between atoms: N_6  and  C_12
    7  A    between atoms: C_11  and  C_14
    8  A    between atoms: C_14  and  C_22
    9  A    between atoms: C_19  and  O_37
                            x       y       z     vdW  Elec       q    Type
                         _______ _______ _______ _____ _____    ______ ____

>  <TORSDO>
F 9

$$$$
=
 OpenBabel11062409573D

 43 48  0  0  1  0  0  0  0  0999 V2000
  160.7120  207.7200  155.9430 C   0  0  0  0  0  0  0  0  0  0  0  0
  161.6440  209.9220  151.3650 C   0  0  0  0  0  0  0  0  0  0  0  0
  161.8480  207.8910  149.2700 C   0  0  0  0  0  0  0  0  0  0  0  0
  161.2150  209.2600  154.1180 C   0  0  0  0  0  0  0  0  0  0  0  0
  160.4810  206.6520  154.9660 C   0  0  0  0  0  3  0  0  0  0  0  0
  160.5890  207.4840  157.2400 C   0  0  0  0  0  1  0  0  0  0  0  0
  161.0370  208.2740  153.2070 C   0  0  0  0  0  0  0  0  0  0  0  0
  161.0650  208.9950  155.4870 O   0  0  0  0  0  0  0  0  0  0  0  0
  160.6320  206.9250  153.6690 C   0  0  0  0  0  3  0  0  0  0  0  0
  162.2430  207.2970  150.9260 S   0  0  0  0  0  0  0  0  0  0  0  0
  161.1550  208.5280  151.7200 C   0  0  2  0  0  3  0  0  0  0  0  0
  161.7680  210.9400  152.4270 C   0  0  0  0  0  3  0  0  0  0  0  0
  161.9140  210.2290  150.0790 C   0  0  1  0  0  3  0  0  0  0  0  0
  161.8130  209.2030  149.0190 C   0  0  0  0  0  3  0  0  0  0  0  0
  161.5680  210.6270  153.7040 C   0  0  0  0  0  3  0  0  0  0  0  0
  161.5740  206.9330  148.1860 C   0  0  0  0  0  0  0  0  0  0  0  0
  162.6590  206.3250  147.4810 N   0  0  0  0  0  2  0  0  0  0  0  0
  160.3820  206.6530  147.8810 O   0  0  0  0  0  0  0  0  0  0  0  0
  162.4730  205.3640  146.4030 C   0  0  1  0  0  3  0  0  0  0  0  0
  163.5650  204.5210  146.3400 F   0  0  0  0  0  0  0  0  0  0  0  0
  161.2290  204.5370  146.6760 C   0  0  0  0  0  2  0  0  0  0  0  0
  161.4950  203.1290  146.4170 N   0  0  0  0  0  0  0  0  0  0  0  0
  159.9260  201.3910  146.2650 O   0  0  0  0  0  0  0  0  0  0  0  0
  161.2170  202.9010  145.0180 C   0  0  0  0  0  2  0  0  0  0  0  0
  160.4720  202.3650  147.1180 C   0  0  1  0  0  3  0  0  0  0  0  0
  160.0930  201.8990  144.9740 C   0  0  0  0  0  2  0  0  0  0  0  0
  161.0600  201.7210  148.3380 C   0  0  0  0  0  0  0  0  0  0  0  0
  161.6380  200.6050  148.2300 O   0  0  0  0  0  0  0  0  0  0  0  0
  161.0060  202.4000  149.6480 C   0  0  0  0  0  0  0  0  0  0  0  0
  160.5250  204.3820  150.9740 C   0  0  0  0  0  3  0  0  0  0  0  0
  161.3220  202.3710  152.0590 C   0  0  0  0  0  3  0  0  0  0  0  0
  160.8950  203.7000  152.1350 C   0  0  0  0  0  3  0  0  0  0  0  0
  161.3770  201.7240  150.8210 C   0  0  0  0  0  3  0  0  0  0  0  0
  160.5800  203.7350  149.7350 C   0  0  0  0  0  3  0  0  0  0  0  0
  162.3020  211.6230  149.6750 C   0  0  0  0  0  2  0  0  0  0  0  0
  159.9410  212.9340  147.0090 C   0  0  0  0  0  3  0  0  0  0  0  0
  159.0760  213.7320  147.7690 C   0  0  0  0  0  0  0  0  0  0  0  0
  160.3090  213.1330  149.7760 C   0  0  0  0  0  3  0  0  0  0  0  0
  160.9850  212.2380  147.6270 C   0  0  0  0  0  3  0  0  0  0  0  0
  161.1680  212.3340  149.0120 C   0  0  0  0  0  0  0  0  0  0  0  0
  159.2660  213.8280  149.1590 C   0  0  0  0  0  3  0  0  0  0  0  0
  156.9570  213.7460  146.4910 C   0  0  0  0  0  1  0  0  0  0  0  0
  158.0420  214.4160  147.1230 O   0  0  0  0  0  0  0  0  0  0  0  0
  1  6  1  0  0  0  0
  2 11  1  0  0  0  0
  2 12  2  0  0  0  0
  3 10  1  0  0  0  0
  4  8  1  0  0  0  0
  5  1  2  0  0  0  0
  7  9  2  0  0  0  0
  7  4  1  0  0  0  0
  8  1  1  0  0  0  0
  9  5  1  0  0  0  0
 11 10  1  1  0  0  0
 11  7  1  0  0  0  0
 12 15  1  0  0  0  0
 13 35  1  6  0  0  0
 13  2  1  0  0  0  0
 14  3  2  0  0  0  0
 14 13  1  0  0  0  0
 15  4  2  0  0  0  0
 16  3  1  0  0  0  0
 17 16  1  0  0  0  0
 18 16  2  0  0  0  0
 19 20  1  1  0  0  0
 19 21  1  0  0  0  0
 19 17  1  0  0  0  0
 22 21  1  0  0  0  0
 22 25  1  0  0  0  0
 23 25  1  0  0  0  0
 24 22  1  0  0  0  0
 25 27  1  1  0  0  0
 26 24  1  0  0  0  0
 26 23  1  0  0  0  0
 27 29  1  0  0  0  0
 28 27  2  0  0  0  0
 29 34  2  0  0  0  0
 29 33  1  0  0  0  0
 30 32  2  0  0  0  0
 31 32  1  0  0  0  0
 33 31  2  0  0  0  0
 34 30  1  0  0  0  0
 36 39  2  0  0  0  0
 36 37  1  0  0  0  0
 37 41  2  0  0  0  0
 39 40  1  0  0  0  0
 40 35  1  0  0  0  0
 40 38  2  0  0  0  0
 41 38  1  0  0  0  0
 42 43  1  0  0  0  0
 43 37  1  0  0  0  0
M  END
>  <MODEL>
3

>  <REMARK>
 VINA RESULT:      -8.9      3.427      8.440
  Name = 
  9 active torsions:
  status: ('A' for Active; 'I' for Inactive)
    1  A    between atoms: C_1  and  C_34
    2  A    between atoms: C_1  and  C_35
    3  A    between atoms: C_2  and  C_13
    4  A    between atoms: C_3  and  N_4
    5  A    between atoms: C_3  and  C_12
    6  A    between atoms: N_6  and  C_12
    7  A    between atoms: C_11  and  C_14
    8  A    between atoms: C_14  and  C_22
    9  A    between atoms: C_19  and  O_37
                            x       y       z     vdW  Elec       q    Type
                         _______ _______ _______ _____ _____    ______ ____

>  <TORSDO>
F 9

$$$$
=
 OpenBabel11062409573D

 43 48  0  0  1  0  0  0  0  0999 V2000
  160.9310  203.6120  149.2300 C   0  0  0  0  0  0  0  0  0  0  0  0
  161.4230  208.2690  151.4110 C   0  0  0  0  0  0  0  0  0  0  0  0
  162.0390  210.2910  149.3890 C   0  0  0  0  0  0  0  0  0  0  0  0
  161.1240  205.4930  150.7740 C   0  0  0  0  0  0  0  0  0  0  0  0
  160.9230  204.5500  148.1040 C   0  0  0  0  0  3  0  0  0  0  0  0
  160.8520  202.3080  149.0200 C   0  0  0  0  0  1  0  0  0  0  0  0
  161.1500  206.3680  149.7410 C   0  0  0  0  0  0  0  0  0  0  0  0
  161.0230  204.1140  150.5320 O   0  0  0  0  0  0  0  0  0  0  0  0
  161.0220  205.8570  148.3550 C   0  0  0  0  0  3  0  0  0  0  0  0
  162.5380  208.6160  148.9450 S   0  0  0  0  0  0  0  0  0  0  0  0
  161.2220  207.8630  149.9610 C   0  0  2  0  0  3  0  0  0  0  0  0
  161.3360  207.2440  152.4690 C   0  0  0  0  0  3  0  0  0  0  0  0
  161.6320  209.5660  151.7200 C   0  0  1  0  0  3  0  0  0  0  0  0
  161.7430  210.5880  150.6580 C   0  0  0  0  0  3  0  0  0  0  0  0
  161.1970  205.9570  152.1680 C   0  0  0  0  0  3  0  0  0  0  0  0
  161.9670  211.3390  148.3580 C   0  0  0  0  0  0  0  0  0  0  0  0
  160.7010  211.8970  147.9970 N   0  0  0  0  0  2  0  0  0  0  0  0
  163.0210  211.7420  147.7940 O   0  0  0  0  0  0  0  0  0  0  0  0
  160.5440  212.9400  146.9940 C   0  0  1  0  0  3  0  0  0  0  0  0
  161.6570  213.7600  146.9990 F   0  0  0  0  0  0  0  0  0  0  0  0
  160.4090  212.3030  145.6220 C   0  0  0  0  0  2  0  0  0  0  0  0
  160.5950  213.3050  144.5820 N   0  0  0  0  0  0  0  0  0  0  0  0
  159.6240  213.3330  142.4460 O   0  0  0  0  0  0  0  0  0  0  0  0
  159.4420  214.1750  144.6270 C   0  0  0  0  0  2  0  0  0  0  0  0
  160.4800  212.6190  143.3020 C   0  0  1  0  0  3  0  0  0  0  0  0
  158.7610  214.0350  143.2920 C   0  0  0  0  0  2  0  0  0  0  0  0
  161.8350  212.4660  142.6790 C   0  0  0  0  0  0  0  0  0  0  0  0
  162.8580  212.8080  143.3330 O   0  0  0  0  0  0  0  0  0  0  0  0
  161.9830  211.8790  141.3320 C   0  0  0  0  0  0  0  0  0  0  0  0
  163.0490  211.8700  139.1460 C   0  0  0  0  0  3  0  0  0  0  0  0
  161.3560  210.2210  139.6680 C   0  0  0  0  0  3  0  0  0  0  0  0
  162.2770  210.7690  138.7700 C   0  0  0  0  0  3  0  0  0  0  0  0
  161.2110  210.7730  140.9440 C   0  0  0  0  0  3  0  0  0  0  0  0
  162.9040  212.4230  140.4220 C   0  0  0  0  0  3  0  0  0  0  0  0
  161.7350  210.0200  153.1480 C   0  0  0  0  0  2  0  0  0  0  0  0
  158.2810  211.5690  153.4210 C   0  0  0  0  0  3  0  0  0  0  0  0
  157.9330  211.2440  154.7380 C   0  0  0  0  0  0  0  0  0  0  0  0
  160.0610  210.1020  155.0070 C   0  0  0  0  0  3  0  0  0  0  0  0
  159.5130  211.1630  152.8960 C   0  0  0  0  0  3  0  0  0  0  0  0
  160.4020  210.4260  153.6880 C   0  0  0  0  0  0  0  0  0  0  0  0
  158.8310  210.5070  155.5300 C   0  0  0  0  0  3  0  0  0  0  0  0
  156.0260  212.8220  154.7480 C   0  0  0  0  0  1  0  0  0  0  0  0
  156.6950  211.6640  155.2350 O   0  0  0  0  0  0  0  0  0  0  0  0
  1  8  1  0  0  0  0
  2 13  1  0  0  0  0
  2 12  2  0  0  0  0
  3 14  2  0  0  0  0
  4 15  2  0  0  0  0
  5  9  1  0  0  0  0
  5  1  2  0  0  0  0
  6  1  1  0  0  0  0
  7 11  1  0  0  0  0
  7  4  1  0  0  0  0
  8  4  1  0  0  0  0
  9  7  2  0  0  0  0
 10  3  1  0  0  0  0
 11 10  1  6  0  0  0
 11  2  1  0  0  0  0
 13 35  1  1  0  0  0
 14 13  1  0  0  0  0
 15 12  1  0  0  0  0
 16  3  1  0  0  0  0
 17 16  1  0  0  0  0
 18 16  2  0  0  0  0
 19 20  1  6  0  0  0
 19 17  1  0  0  0  0
 21 19  1  0  0  0  0
 22 24  1  0  0  0  0
 22 21  1  0  0  0  0
 23 26  1  0  0  0  0
 23 25  1  0  0  0  0
 25 27  1  6  0  0  0
 25 22  1  0  0  0  0
 26 24  1  0  0  0  0
 27 28  2  0  0  0  0
 29 27  1  0  0  0  0
 30 34  1  0  0  0  0
 31 33  2  0  0  0  0
 32 30  2  0  0  0  0
 32 31  1  0  0  0  0
 33 29  1  0  0  0  0
 34 29  2  0  0  0  0
 35 40  1  0  0  0  0
 36 37  1  0  0  0  0
 37 43  1  0  0  0  0
 37 41  2  0  0  0  0
 38 41  1  0  0  0  0
 39 36  2  0  0  0  0
 39 40  1  0  0  0  0
 40 38  2  0  0  0  0
 42 43  1  0  0  0  0
M  END
>  <MODEL>
4

>  <REMARK>
 VINA RESULT:      -8.8      1.569      2.222
  Name = 
  9 active torsions:
  status: ('A' for Active; 'I' for Inactive)
    1  A    between atoms: C_1  and  C_34
    2  A    between atoms: C_1  and  C_35
    3  A    between atoms: C_2  and  C_13
    4  A    between atoms: C_3  and  N_4
    5  A    between atoms: C_3  and  C_12
    6  A    between atoms: N_6  and  C_12
    7  A    between atoms: C_11  and  C_14
    8  A    between atoms: C_14  and  C_22
    9  A    between atoms: C_19  and  O_37
                            x       y       z     vdW  Elec       q    Type
                         _______ _______ _______ _____ _____    ______ ____

>  <TORSDO>
F 9

$$$$
=
 OpenBabel11062409573D

 43 48  0  0  1  0  0  0  0  0999 V2000
  161.2060  203.7870  146.4030 C   0  0  0  0  0  0  0  0  0  0  0  0
  161.2830  207.1150  150.3530 C   0  0  0  0  0  0  0  0  0  0  0  0
  161.9860  209.7980  149.4240 C   0  0  0  0  0  0  0  0  0  0  0  0
  161.1710  204.8550  148.5980 C   0  0  2  0  0  3  0  0  0  0  0  0
  161.2570  205.1090  145.7720 C   0  0  0  0  0  3  0  0  0  0  0  0
  161.2060  202.6890  145.6660 C   0  0  0  0  0  1  0  0  0  0  0  0
  161.2510  206.0800  148.0280 C   0  0  0  0  0  0  0  0  0  0  0  0
  161.1570  203.7020  147.7980 O   0  0  0  0  0  0  0  0  0  0  0  0
  161.2720  206.1920  146.5500 C   0  0  0  0  0  3  0  0  0  0  0  0
  162.5990  208.4620  148.3790 S   0  0  0  0  0  0  0  0  0  0  0  0
  161.2330  207.3480  148.8530 C   0  0  0  0  0  0  0  0  0  0  0  0
  161.1490  205.7420  150.8780 C   0  0  0  0  0  3  0  0  0  0  0  0
  161.4030  208.1650  151.1910 C   0  0  1  0  0  3  0  0  0  0  0  0
  161.5630  209.5380  150.6650 C   0  0  0  0  0  3  0  0  0  0  0  0
  161.0970  204.6960  150.0590 C   0  0  0  0  0  3  0  0  0  0  0  0
  161.9580  211.1800  148.9180 C   0  0  0  0  0  0  0  0  0  0  0  0
  160.9400  212.0810  149.3620 N   0  0  0  0  0  2  0  0  0  0  0  0
  162.8310  211.5660  148.0930 O   0  0  0  0  0  0  0  0  0  0  0  0
  160.8470  213.4640  148.9160 C   0  0  1  0  0  3  0  0  0  0  0  0
  162.0930  214.0580  148.9830 F   0  0  0  0  0  0  0  0  0  0  0  0
  160.3640  213.4960  147.4760 C   0  0  0  0  0  2  0  0  0  0  0  0
  159.0160  214.0420  147.4110 N   0  0  0  0  0  0  0  0  0  0  0  0
  157.0010  212.8440  147.3050 O   0  0  0  0  0  0  0  0  0  0  0  0
  158.4700  213.9700  148.7460 C   0  0  0  0  0  2  0  0  0  0  0  0
  158.2120  213.1040  146.6400 C   0  0  1  0  0  3  0  0  0  0  0  0
  157.2720  213.0610  148.6590 C   0  0  0  0  0  2  0  0  0  0  0  0
  157.9490  213.6570  145.2720 C   0  0  0  0  0  0  0  0  0  0  0  0
  156.9840  214.4530  145.1020 O   0  0  0  0  0  0  0  0  0  0  0  0
  158.8310  213.3160  144.1380 C   0  0  0  0  0  0  0  0  0  0  0  0
  159.6990  213.8160  141.9210 C   0  0  0  0  0  3  0  0  0  0  0  0
  160.4840  211.8590  143.1100 C   0  0  0  0  0  3  0  0  0  0  0  0
  160.5100  212.6790  141.9790 C   0  0  0  0  0  3  0  0  0  0  0  0
  159.6490  212.1770  144.1850 C   0  0  0  0  0  3  0  0  0  0  0  0
  158.8630  214.1330  142.9970 C   0  0  0  0  0  3  0  0  0  0  0  0
  161.3550  207.9840  152.6820 C   0  0  0  0  0  2  0  0  0  0  0  0
  159.2710  210.9870  153.7010 C   0  0  0  0  0  3  0  0  0  0  0  0
  160.1230  211.6220  154.6130 C   0  0  0  0  0  0  0  0  0  0  0  0
  161.7710  209.8670  154.2770 C   0  0  0  0  0  3  0  0  0  0  0  0
  159.6630  209.7970  153.0780 C   0  0  0  0  0  3  0  0  0  0  0  0
  160.9130  209.2340  153.3690 C   0  0  0  0  0  0  0  0  0  0  0  0
  161.3780  211.0550  154.8980 C   0  0  0  0  0  3  0  0  0  0  0  0
  160.1520  213.2140  156.5080 C   0  0  0  0  0  1  0  0  0  0  0  0
  159.7030  212.8110  155.2190 O   0  0  0  0  0  0  0  0  0  0  0  0
  1  8  1  0  0  0  0
  2 12  1  0  0  0  0
  2 13  1  0  0  0  0
  3 14  2  0  0  0  0
  4 15  1  6  0  0  0
  5  1  2  0  0  0  0
  5  9  1  0  0  0  0
  6  1  1  0  0  0  0
  7  4  1  0  0  0  0
  7 11  1  0  0  0  0
  8  4  1  0  0  0  0
  9  7  2  0  0  0  0
 10 11  1  0  0  0  0
 10  3  1  0  0  0  0
 11  2  2  0  0  0  0
 13 35  1  6  0  0  0
 14 13  1  0  0  0  0
 15 12  2  0  0  0  0
 16 17  1  0  0  0  0
 16  3  1  0  0  0  0
 18 16  2  0  0  0  0
 19 20  1  6  0  0  0
 19 17  1  0  0  0  0
 21 19  1  0  0  0  0
 22 21  1  0  0  0  0
 22 24  1  0  0  0  0
 23 26  1  0  0  0  0
 25 27  1  6  0  0  0
 25 23  1  0  0  0  0
 25 22  1  0  0  0  0
 26 24  1  0  0  0  0
 28 27  2  0  0  0  0
 29 33  1  0  0  0  0
 29 27  1  0  0  0  0
 30 32  2  0  0  0  0
 30 34  1  0  0  0  0
 31 33  2  0  0  0  0
 32 31  1  0  0  0  0
 34 29  2  0  0  0  0
 35 40  1  0  0  0  0
 36 37  1  0  0  0  0
 37 41  2  0  0  0  0
 37 43  1  0  0  0  0
 38 41  1  0  0  0  0
 39 40  1  0  0  0  0
 39 36  2  0  0  0  0
 40 38  2  0  0  0  0
 43 42  1  0  0  0  0
M  END
>  <MODEL>
5

>  <REMARK>
 VINA RESULT:      -8.4      1.584      2.215
  Name = 
  9 active torsions:
  status: ('A' for Active; 'I' for Inactive)
    1  A    between atoms: C_1  and  C_34
    2  A    between atoms: C_1  and  C_35
    3  A    between atoms: C_2  and  C_13
    4  A    between atoms: C_3  and  N_4
    5  A    between atoms: C_3  and  C_12
    6  A    between atoms: N_6  and  C_12
    7  A    between atoms: C_11  and  C_14
    8  A    between atoms: C_14  and  C_22
    9  A    between atoms: C_19  and  O_37
                            x       y       z     vdW  Elec       q    Type
                         _______ _______ _______ _____ _____    ______ ____

>  <TORSDO>
F 9

$$$$
=
 OpenBabel11062409573D

 43 48  0  0  1  0  0  0  0  0999 V2000
  160.3330  207.9220  155.9850 C   0  0  0  0  0  0  0  0  0  0  0  0
  161.1720  210.3970  151.5300 C   0  0  0  0  0  0  0  0  0  0  0  0
  162.0800  208.5280  149.4710 C   0  0  0  0  0  0  0  0  0  0  0  0
  160.6340  209.5820  154.2220 C   0  0  0  0  0  0  0  0  0  0  0  0
  160.4710  206.8540  154.9900 C   0  0  0  0  0  3  0  0  0  0  0  0
  160.1360  207.6310  157.2610 C   0  0  0  0  0  1  0  0  0  0  0  0
  160.7960  208.6060  153.2980 C   0  0  0  0  0  0  0  0  0  0  0  0
  160.4100  209.2540  155.5680 O   0  0  0  0  0  0  0  0  0  0  0  0
  160.6850  207.1880  153.7160 C   0  0  0  0  0  3  0  0  0  0  0  0
  162.4330  208.0060  151.1600 S   0  0  0  0  0  0  0  0  0  0  0  0
  161.0030  208.9180  151.8320 C   0  0  2  0  0  3  0  0  0  0  0  0
  160.9350  211.3880  152.5980 C   0  0  0  0  0  3  0  0  0  0  0  0
  161.4910  210.7930  150.2800 C   0  0  1  0  0  3  0  0  0  0  0  0
  161.7540  209.7990  149.2160 C   0  0  0  0  0  3  0  0  0  0  0  0
  160.6840  211.0040  153.8460 C   0  0  0  0  0  3  0  0  0  0  0  0
  162.1610  207.5600  148.3650 C   0  0  0  0  0  0  0  0  0  0  0  0
  160.9830  206.8760  147.9300 N   0  0  0  0  0  2  0  0  0  0  0  0
  163.2680  207.3350  147.8040 O   0  0  0  0  0  0  0  0  0  0  0  0
  160.9760  205.9100  146.8410 C   0  0  1  0  0  3  0  0  0  0  0  0
  160.7870  206.5670  145.6400 F   0  0  0  0  0  0  0  0  0  0  0  0
  162.3110  205.1870  146.8020 C   0  0  0  0  0  2  0  0  0  0  0  0
  162.1200  203.8020  146.3950 N   0  0  0  0  0  0  0  0  0  0  0  0
  160.0820  202.6910  146.0450 O   0  0  0  0  0  0  0  0  0  0  0  0
  161.8420  203.8150  144.9780 C   0  0  0  0  0  2  0  0  0  0  0  0
  160.8770  203.3460  147.0020 C   0  0  1  0  0  3  0  0  0  0  0  0
  160.4590  203.2420  144.8170 C   0  0  0  0  0  2  0  0  0  0  0  0
  161.1740  202.4290  148.1510 C   0  0  0  0  0  0  0  0  0  0  0  0
  161.5450  201.2460  147.9170 O   0  0  0  0  0  0  0  0  0  0  0  0
  161.0790  202.9110  149.5430 C   0  0  0  0  0  0  0  0  0  0  0  0
  160.7680  204.7340  151.1230 C   0  0  0  0  0  3  0  0  0  0  0  0
  161.1100  202.4800  151.9370 C   0  0  0  0  0  3  0  0  0  0  0  0
  160.8920  203.8380  152.1880 C   0  0  0  0  0  3  0  0  0  0  0  0
  161.2020  202.0190  150.6200 C   0  0  0  0  0  3  0  0  0  0  0  0
  160.8610  204.2730  149.8060 C   0  0  0  0  0  3  0  0  0  0  0  0
  161.5690  212.2480  149.9190 C   0  0  0  0  0  2  0  0  0  0  0  0
  162.6930  212.9540  146.3630 C   0  0  0  0  0  3  0  0  0  0  0  0
  161.4800  212.8800  145.6670 C   0  0  0  0  0  0  0  0  0  0  0  0
  160.3310  212.3720  147.7480 C   0  0  0  0  0  3  0  0  0  0  0  0
  162.7280  212.7380  147.7450 C   0  0  0  0  0  3  0  0  0  0  0  0
  161.5470  212.4440  148.4380 C   0  0  0  0  0  0  0  0  0  0  0  0
  160.2970  212.5880  146.3670 C   0  0  0  0  0  3  0  0  0  0  0  0
  162.6740  213.1940  143.5220 C   0  0  0  0  0  1  0  0  0  0  0  0
  161.4770  213.1010  144.2860 O   0  0  0  0  0  0  0  0  0  0  0  0
  1  6  1  0  0  0  0
  2 11  1  0  0  0  0
  2 12  2  0  0  0  0
  3 10  1  0  0  0  0
  4  8  1  0  0  0  0
  5  1  2  0  0  0  0
  7  9  2  0  0  0  0
  7  4  1  0  0  0  0
  8  1  1  0  0  0  0
  9  5  1  0  0  0  0
 11 10  1  1  0  0  0
 11  7  1  0  0  0  0
 12 15  1  0  0  0  0
 13 35  1  6  0  0  0
 13  2  1  0  0  0  0
 14  3  2  0  0  0  0
 14 13  1  0  0  0  0
 15  4  2  0  0  0  0
 16  3  1  0  0  0  0
 17 16  1  0  0  0  0
 18 16  2  0  0  0  0
 19 20  1  6  0  0  0
 19 17  1  0  0  0  0
 21 19  1  0  0  0  0
 22 21  1  0  0  0  0
 22 25  1  0  0  0  0
 23 25  1  0  0  0  0
 24 22  1  0  0  0  0
 25 27  1  1  0  0  0
 26 24  1  0  0  0  0
 26 23  1  0  0  0  0
 27 29  1  0  0  0  0
 28 27  2  0  0  0  0
 29 34  2  0  0  0  0
 29 33  1  0  0  0  0
 30 32  2  0  0  0  0
 31 32  1  0  0  0  0
 33 31  2  0  0  0  0
 34 30  1  0  0  0  0
 36 39  1  0  0  0  0
 37 36  2  0  0  0  0
 37 41  1  0  0  0  0
 38 40  1  0  0  0  0
 39 40  2  0  0  0  0
 40 35  1  0  0  0  0
 41 38  2  0  0  0  0
 42 43  1  0  0  0  0
 43 37  1  0  0  0  0
M  END
>  <MODEL>
6

>  <REMARK>
 VINA RESULT:      -8.2      2.944      8.561
  Name = 
  9 active torsions:
  status: ('A' for Active; 'I' for Inactive)
    1  A    between atoms: C_1  and  C_34
    2  A    between atoms: C_1  and  C_35
    3  A    between atoms: C_2  and  C_13
    4  A    between atoms: C_3  and  N_4
    5  A    between atoms: C_3  and  C_12
    6  A    between atoms: N_6  and  C_12
    7  A    between atoms: C_11  and  C_14
    8  A    between atoms: C_14  and  C_22
    9  A    between atoms: C_19  and  O_37
                            x       y       z     vdW  Elec       q    Type
                         _______ _______ _______ _____ _____    ______ ____

>  <TORSDO>
F 9

$$$$
=
 OpenBabel11062409573D

 43 48  0  0  1  0  0  0  0  0999 V2000
  155.2870  212.5340  156.3410 C   0  0  0  0  0  0  0  0  0  0  0  0
  158.5940  213.1670  152.4240 C   0  0  0  0  0  0  0  0  0  0  0  0
  160.6760  211.1130  152.4940 C   0  0  0  0  0  0  0  0  0  0  0  0
  156.5380  213.3470  154.4100 C   0  0  0  0  0  0  0  0  0  0  0  0
  156.0660  211.2930  156.3120 C   0  0  0  0  0  3  0  0  0  0  0  0
  154.3540  212.7210  157.2610 C   0  0  0  0  0  1  0  0  0  0  0  0
  157.2870  212.2190  154.3920 C   0  0  0  0  0  0  0  0  0  0  0  0
  155.5430  213.5210  155.3830 O   0  0  0  0  0  0  0  0  0  0  0  0
  157.0100  211.1490  155.3790 C   0  0  0  0  0  3  0  0  0  0  0  0
  159.9260  211.4700  154.0950 S   0  0  0  0  0  0  0  0  0  0  0  0
  158.3450  211.9790  153.3380 C   0  0  2  0  0  3  0  0  0  0  0  0
  157.6960  214.3360  152.4950 C   0  0  0  0  0  3  0  0  0  0  0  0
  159.6020  213.1230  151.5280 C   0  0  1  0  0  3  0  0  0  0  0  0
  160.5170  211.9630  151.4750 C   0  0  0  0  0  3  0  0  0  0  0  0
  156.7430  214.4150  153.4180 C   0  0  0  0  0  3  0  0  0  0  0  0
  161.4740  209.8900  152.3070 C   0  0  0  0  0  0  0  0  0  0  0  0
  160.8200  208.6230  152.1920 N   0  0  0  0  0  2  0  0  0  0  0  0
  162.7320  209.9620  152.2510 O   0  0  0  0  0  0  0  0  0  0  0  0
  161.5340  207.3700  151.9980 C   0  0  1  0  0  3  0  0  0  0  0  0
  161.3050  206.5340  153.0750 F   0  0  0  0  0  0  0  0  0  0  0  0
  161.0300  206.6940  150.7350 C   0  0  0  0  0  2  0  0  0  0  0  0
  161.9600  206.9230  149.6380 N   0  0  0  0  0  0  0  0  0  0  0  0
  161.4300  207.4130  147.4050 O   0  0  0  0  0  0  0  0  0  0  0  0
  162.0550  208.3540  149.4610 C   0  0  0  0  0  2  0  0  0  0  0  0
  161.3110  206.4510  148.4230 C   0  0  1  0  0  3  0  0  0  0  0  0
  161.5520  208.6360  148.0700 C   0  0  0  0  0  2  0  0  0  0  0  0
  161.9210  205.1520  147.9870 C   0  0  0  0  0  0  0  0  0  0  0  0
  162.9060  205.1660  147.1990 O   0  0  0  0  0  0  0  0  0  0  0  0
  161.4090  203.8680  148.5070 C   0  0  0  0  0  0  0  0  0  0  0  0
  160.7660  201.5520  148.1320 C   0  0  0  0  0  3  0  0  0  0  0  0
  160.5980  202.5050  150.3510 C   0  0  0  0  0  3  0  0  0  0  0  0
  160.4420  201.4190  149.4850 C   0  0  0  0  0  3  0  0  0  0  0  0
  161.0810  203.7240  149.8630 C   0  0  0  0  0  3  0  0  0  0  0  0
  161.2480  202.7710  147.6450 C   0  0  0  0  0  3  0  0  0  0  0  0
  159.8170  214.2350  150.5420 C   0  0  0  0  0  2  0  0  0  0  0  0
  157.8590  213.3540  147.4130 C   0  0  0  0  0  3  0  0  0  0  0  0
  158.8780  212.9120  146.5600 C   0  0  0  0  0  0  0  0  0  0  0  0
  160.5120  213.3560  148.3040 C   0  0  0  0  0  3  0  0  0  0  0  0
  158.1610  213.7950  148.7050 C   0  0  0  0  0  3  0  0  0  0  0  0
  159.4890  213.8000  149.1510 C   0  0  0  0  0  0  0  0  0  0  0  0
  160.2090  212.9160  147.0130 C   0  0  0  0  0  3  0  0  0  0  0  0
  159.0250  213.1190  144.0980 C   0  0  0  0  0  1  0  0  0  0  0  0
  158.5450  212.4770  145.2740 O   0  0  0  0  0  0  0  0  0  0  0  0
  1  6  1  0  0  0  0
  2 12  2  0  0  0  0
  3 10  1  0  0  0  0
  4  8  1  0  0  0  0
  5  1  2  0  0  0  0
  7  4  1  0  0  0  0
  7  9  2  0  0  0  0
  8  1  1  0  0  0  0
  9  5  1  0  0  0  0
 11  2  1  1  0  0  0
 11 10  1  0  0  0  0
 11  7  1  0  0  0  0
 12 15  1  0  0  0  0
 13 35  1  6  0  0  0
 13  2  1  0  0  0  0
 14 13  1  0  0  0  0
 14  3  2  0  0  0  0
 15  4  2  0  0  0  0
 16  3  1  0  0  0  0
 17 16  1  0  0  0  0
 18 16  2  0  0  0  0
 19 17  1  0  0  0  0
 19 20  1  1  0  0  0
 21 19  1  0  0  0  0
 22 21  1  0  0  0  0
 23 26  1  0  0  0  0
 23 25  1  0  0  0  0
 24 22  1  0  0  0  0
 25 27  1  6  0  0  0
 25 22  1  0  0  0  0
 26 24  1  0  0  0  0
 27 29  1  0  0  0  0
 28 27  2  0  0  0  0
 29 33  1  0  0  0  0
 30 32  2  0  0  0  0
 32 31  1  0  0  0  0
 33 31  2  0  0  0  0
 34 30  1  0  0  0  0
 34 29  2  0  0  0  0
 36 39  1  0  0  0  0
 37 41  1  0  0  0  0
 37 36  2  0  0  0  0
 38 40  1  0  0  0  0
 39 40  2  0  0  0  0
 40 35  1  0  0  0  0
 41 38  2  0  0  0  0
 42 43  1  0  0  0  0
 43 37  1  0  0  0  0
M  END
>  <MODEL>
7

>  <REMARK>
 VINA RESULT:      -8.2      2.794      8.804
  Name = 
  9 active torsions:
  status: ('A' for Active; 'I' for Inactive)
    1  A    between atoms: C_1  and  C_34
    2  A    between atoms: C_1  and  C_35
    3  A    between atoms: C_2  and  C_13
    4  A    between atoms: C_3  and  N_4
    5  A    between atoms: C_3  and  C_12
    6  A    between atoms: N_6  and  C_12
    7  A    between atoms: C_11  and  C_14
    8  A    between atoms: C_14  and  C_22
    9  A    between atoms: C_19  and  O_37
                            x       y       z     vdW  Elec       q    Type
                         _______ _______ _______ _____ _____    ______ ____

>  <TORSDO>
F 9

$$$$
=
 OpenBabel11062409573D

 43 48  0  0  1  0  0  0  0  0999 V2000
  158.5010  211.8250  156.3200 C   0  0  0  0  0  0  0  0  0  0  0  0
  161.2080  208.4490  153.4990 C   0  0  0  0  0  0  0  0  0  0  0  0
  161.5560  209.4370  150.7680 C   0  0  0  0  0  0  0  0  0  0  0  0
  159.7120  209.8800  155.4780 C   0  0  0  0  0  0  0  0  0  0  0  0
  158.8640  212.5640  155.1070 C   0  0  0  0  0  3  0  0  0  0  0  0
  157.7660  212.3950  157.2610 C   0  0  0  0  0  1  0  0  0  0  0  0
  160.0260  210.5410  154.3390 C   0  0  0  0  0  0  0  0  0  0  0  0
  158.9440  210.5070  156.4710 O   0  0  0  0  0  0  0  0  0  0  0  0
  159.5920  211.9490  154.1740 C   0  0  0  0  0  3  0  0  0  0  0  0
  160.1050  210.0890  151.6180 S   0  0  0  0  0  0  0  0  0  0  0  0
  160.8820  209.9130  153.2600 C   0  0  2  0  0  3  0  0  0  0  0  0
  160.8580  207.8300  154.7920 C   0  0  0  0  0  3  0  0  0  0  0  0
  161.8530  207.7430  152.5480 C   0  0  1  0  0  3  0  0  0  0  0  0
  162.1810  208.3560  151.2430 C   0  0  0  0  0  3  0  0  0  0  0  0
  160.1640  208.4990  155.7080 C   0  0  0  0  0  3  0  0  0  0  0  0
  162.0500  210.0880  149.5430 C   0  0  0  0  0  0  0  0  0  0  0  0
  162.0680  211.5150  149.4520 N   0  0  0  0  0  2  0  0  0  0  0  0
  162.4560  209.3850  148.5770 O   0  0  0  0  0  0  0  0  0  0  0  0
  162.5470  212.2340  148.2810 C   0  0  1  0  0  3  0  0  0  0  0  0
  163.7030  211.6400  147.8120 F   0  0  0  0  0  0  0  0  0  0  0  0
  161.4910  212.1810  147.1910 C   0  0  0  0  0  2  0  0  0  0  0  0
  161.4970  213.4200  146.4250 N   0  0  0  0  0  0  0  0  0  0  0  0
  160.1100  213.9790  144.6160 O   0  0  0  0  0  0  0  0  0  0  0  0
  160.4110  214.2290  146.9290 C   0  0  0  0  0  2  0  0  0  0  0  0
  161.0960  213.0830  145.0660 C   0  0  1  0  0  3  0  0  0  0  0  0
  159.4660  214.4260  145.7730 C   0  0  0  0  0  2  0  0  0  0  0  0
  162.2880  213.1180  144.1570 C   0  0  0  0  0  0  0  0  0  0  0  0
  163.4430  213.2070  144.6560 O   0  0  0  0  0  0  0  0  0  0  0  0
  162.1230  213.0040  142.6940 C   0  0  0  0  0  0  0  0  0  0  0  0
  161.4310  211.7190  140.7470 C   0  0  0  0  0  3  0  0  0  0  0  0
  162.3290  213.9490  140.4630 C   0  0  0  0  0  3  0  0  0  0  0  0
  161.7990  212.7780  139.9130 C   0  0  0  0  0  3  0  0  0  0  0  0
  162.4890  214.0610  141.8470 C   0  0  0  0  0  3  0  0  0  0  0  0
  161.5920  211.8310  142.1320 C   0  0  0  0  0  3  0  0  0  0  0  0
  162.2810  206.3230  152.7860 C   0  0  0  0  0  2  0  0  0  0  0  0
  160.7050  203.2780  151.1590 C   0  0  0  0  0  3  0  0  0  0  0  0
  160.7040  203.6520  149.8090 C   0  0  0  0  0  0  0  0  0  0  0  0
  161.7150  205.7790  150.4100 C   0  0  0  0  0  3  0  0  0  0  0  0
  161.2070  204.1490  152.1320 C   0  0  0  0  0  3  0  0  0  0  0  0
  161.7100  205.4020  151.7580 C   0  0  0  0  0  0  0  0  0  0  0  0
  161.2130  204.9090  149.4390 C   0  0  0  0  0  3  0  0  0  0  0  0
  160.7700  201.4790  148.6260 C   0  0  0  0  0  1  0  0  0  0  0  0
  160.1960  202.7600  148.8590 O   0  0  0  0  0  0  0  0  0  0  0  0
  1  8  1  0  0  0  0
  1  6  1  0  0  0  0
  2 12  2  0  0  0  0
  3 14  2  0  0  0  0
  3 10  1  0  0  0  0
  4 15  2  0  0  0  0
  4  8  1  0  0  0  0
  5  1  2  0  0  0  0
  7  4  1  0  0  0  0
  9  7  2  0  0  0  0
  9  5  1  0  0  0  0
 11 10  1  6  0  0  0
 11  2  1  0  0  0  0
 11  7  1  0  0  0  0
 12 15  1  0  0  0  0
 13 35  1  1  0  0  0
 13  2  1  0  0  0  0
 14 13  1  0  0  0  0
 16  3  1  0  0  0  0
 17 16  1  0  0  0  0
 18 16  2  0  0  0  0
 19 20  1  6  0  0  0
 19 17  1  0  0  0  0
 21 19  1  0  0  0  0
 22 24  1  0  0  0  0
 22 21  1  0  0  0  0
 23 25  1  0  0  0  0
 23 26  1  0  0  0  0
 25 27  1  6  0  0  0
 25 22  1  0  0  0  0
 26 24  1  0  0  0  0
 27 28  2  0  0  0  0
 29 27  1  0  0  0  0
 30 34  2  0  0  0  0
 31 33  1  0  0  0  0
 32 31  2  0  0  0  0
 32 30  1  0  0  0  0
 33 29  2  0  0  0  0
 34 29  1  0  0  0  0
 36 39  1  0  0  0  0
 37 36  2  0  0  0  0
 38 40  1  0  0  0  0
 40 39  2  0  0  0  0
 40 35  1  0  0  0  0
 41 37  1  0  0  0  0
 41 38  2  0  0  0  0
 42 43  1  0  0  0  0
 43 37  1  0  0  0  0
M  END
>  <MODEL>
8

>  <REMARK>
 VINA RESULT:      -7.2      1.667      6.112
  Name = 
  9 active torsions:
  status: ('A' for Active; 'I' for Inactive)
    1  A    between atoms: C_1  and  C_34
    2  A    between atoms: C_1  and  C_35
    3  A    between atoms: C_2  and  C_13
    4  A    between atoms: C_3  and  N_4
    5  A    between atoms: C_3  and  C_12
    6  A    between atoms: N_6  and  C_12
    7  A    between atoms: C_11  and  C_14
    8  A    between atoms: C_14  and  C_22
    9  A    between atoms: C_19  and  O_37
                            x       y       z     vdW  Elec       q    Type
                         _______ _______ _______ _____ _____    ______ ____

>  <TORSDO>
F 9

$$$$
=
 OpenBabel11062409573D

 43 48  0  0  1  0  0  0  0  0999 V2000
  160.8890  201.6450  146.8340 C   0  0  0  0  0  0  0  0  0  0  0  0
  162.0240  206.4670  148.2970 C   0  0  0  0  0  0  0  0  0  0  0  0
  161.1080  206.9530  151.0320 C   0  0  0  0  0  0  0  0  0  0  0  0
  161.5840  203.9820  146.9430 C   0  0  2  0  0  3  0  0  0  0  0  0
  160.6690  201.6520  148.2830 C   0  0  0  0  0  3  0  0  0  0  0  0
  160.6570  200.5520  146.1240 C   0  0  0  0  0  1  0  0  0  0  0  0
  161.3540  204.0110  148.2770 C   0  0  0  0  0  0  0  0  0  0  0  0
  161.3480  202.8090  146.2090 O   0  0  0  0  0  0  0  0  0  0  0  0
  160.8970  202.7780  148.9610 C   0  0  0  0  0  3  0  0  0  0  0  0
  160.1980  205.6650  150.1590 S   0  0  0  0  0  0  0  0  0  0  0  0
  161.6300  205.2450  149.1080 C   0  0  0  0  0  0  0  0  0  0  0  0
  162.2910  206.3220  146.8520 C   0  0  0  0  0  3  0  0  0  0  0  0
  162.1690  207.6600  148.9100 C   0  0  1  0  0  3  0  0  0  0  0  0
  161.8770  207.8100  150.3510 C   0  0  0  0  0  3  0  0  0  0  0  0
  162.0860  205.1660  146.2290 C   0  0  0  0  0  3  0  0  0  0  0  0
  161.0010  207.0730  152.4950 C   0  0  0  0  0  0  0  0  0  0  0  0
  160.5940  208.3130  153.0800 N   0  0  0  0  0  2  0  0  0  0  0  0
  161.2690  206.0830  153.2290 O   0  0  0  0  0  0  0  0  0  0  0  0
  160.4560  208.5120  154.5160 C   0  0  1  0  0  3  0  0  0  0  0  0
  160.0350  207.3370  155.1090 F   0  0  0  0  0  0  0  0  0  0  0  0
  161.8020  208.9030  155.1000 C   0  0  0  0  0  2  0  0  0  0  0  0
  161.9160  210.3530  155.1740 N   0  0  0  0  0  0  0  0  0  0  0  0
  160.9090  211.7800  156.7400 O   0  0  0  0  0  0  0  0  0  0  0  0
  162.8890  210.6450  156.2010 C   0  0  0  0  0  2  0  0  0  0  0  0
  160.6590  210.8530  155.7130 C   0  0  1  0  0  3  0  0  0  0  0  0
  162.1560  211.4240  157.2610 C   0  0  0  0  0  2  0  0  0  0  0  0
  159.8490  211.4870  154.6220 C   0  0  0  0  0  0  0  0  0  0  0  0
  160.3940  211.7280  153.5100 O   0  0  0  0  0  0  0  0  0  0  0  0
  158.4180  211.7880  154.8240 C   0  0  0  0  0  0  0  0  0  0  0  0
  156.3520  211.4560  156.0640 C   0  0  0  0  0  3  0  0  0  0  0  0
  156.3960  212.9750  154.1800 C   0  0  0  0  0  3  0  0  0  0  0  0
  155.6970  212.3570  155.2220 C   0  0  0  0  0  3  0  0  0  0  0  0
  157.7500  212.6920  153.9830 C   0  0  0  0  0  3  0  0  0  0  0  0
  157.7070  211.1720  155.8670 C   0  0  0  0  0  3  0  0  0  0  0  0
  162.6540  208.8680  148.1600 C   0  0  0  0  0  2  0  0  0  0  0  0
  161.4380  211.4640  150.6470 C   0  0  0  0  0  3  0  0  0  0  0  0
  160.9580  212.4650  149.7930 C   0  0  0  0  0  0  0  0  0  0  0  0
  161.6070  211.1220  147.8740 C   0  0  0  0  0  3  0  0  0  0  0  0
  162.0000  210.2970  150.1200 C   0  0  0  0  0  3  0  0  0  0  0  0
  162.0880  210.1270  148.7320 C   0  0  0  0  0  0  0  0  0  0  0  0
  161.0450  212.2880  148.4010 C   0  0  0  0  0  3  0  0  0  0  0  0
  159.0080  213.7490  150.6150 C   0  0  0  0  0  1  0  0  0  0  0  0
  160.4000  213.6210  150.3490 O   0  0  0  0  0  0  0  0  0  0  0  0
  1  5  2  0  0  0  0
  2 13  1  0  0  0  0
  2 11  2  0  0  0  0
  3 16  1  0  0  0  0
  4 15  1  1  0  0  0
  4  7  1  0  0  0  0
  5  9  1  0  0  0  0
  6  1  1  0  0  0  0
  7  9  2  0  0  0  0
  7 11  1  0  0  0  0
  8  1  1  0  0  0  0
  8  4  1  0  0  0  0
 10  3  1  0  0  0  0
 11 10  1  0  0  0  0
 12  2  1  0  0  0  0
 13 35  1  1  0  0  0
 13 14  1  0  0  0  0
 14  3  2  0  0  0  0
 15 12  2  0  0  0  0
 16 17  1  0  0  0  0
 16 18  2  0  0  0  0
 17 19  1  0  0  0  0
 19 21  1  0  0  0  0
 19 20  1  1  0  0  0
 21 22  1  0  0  0  0
 22 25  1  0  0  0  0
 22 24  1  0  0  0  0
 23 26  1  0  0  0  0
 24 26  1  0  0  0  0
 25 27  1  6  0  0  0
 25 23  1  0  0  0  0
 27 29  1  0  0  0  0
 28 27  2  0  0  0  0
 29 34  1  0  0  0  0
 31 32  2  0  0  0  0
 32 30  1  0  0  0  0
 33 31  1  0  0  0  0
 33 29  2  0  0  0  0
 34 30  2  0  0  0  0
 35 40  1  0  0  0  0
 37 43  1  0  0  0  0
 37 36  2  0  0  0  0
 38 41  2  0  0  0  0
 38 40  1  0  0  0  0
 39 36  1  0  0  0  0
 40 39  2  0  0  0  0
 41 37  1  0  0  0  0
 43 42  1  0  0  0  0
M  END
>  <MODEL>
9

>  <REMARK>
 VINA RESULT:      -6.8      3.613      7.867
  Name = 
  9 active torsions:
  status: ('A' for Active; 'I' for Inactive)
    1  A    between atoms: C_1  and  C_34
    2  A    between atoms: C_1  and  C_35
    3  A    between atoms: C_2  and  C_13
    4  A    between atoms: C_3  and  N_4
    5  A    between atoms: C_3  and  C_12
    6  A    between atoms: N_6  and  C_12
    7  A    between atoms: C_11  and  C_14
    8  A    between atoms: C_14  and  C_22
    9  A    between atoms: C_19  and  O_37
                            x       y       z     vdW  Elec       q    Type
                         _______ _______ _______ _____ _____    ______ ____

>  <TORSDO>
F 9

$$$$
