=
 OpenBabel11052422373D

 31 35  0  0  1  0  0  0  0  0999 V2000
  161.1310  204.6750  149.3560 C   0  0  0  0  0  0  0  0  0  0  0  0
  161.1030  203.2540  149.4610 C   0  0  2  0  0  3  0  0  0  0  0  0
  161.2520  200.9980  148.4710 C   0  0  0  0  0  0  0  0  0  0  0  0
  161.3300  205.3440  148.1990 C   0  0  0  0  0  0  0  0  0  0  0  0
  161.6890  205.8730  146.1420 C   0  0  0  0  0  0  0  0  0  0  0  0
  161.2770  202.4660  148.3870 C   0  0  0  0  0  3  0  0  0  0  0  0
  160.9640  206.9660  150.4760 C   0  0  0  0  0  0  0  0  0  0  0  0
  160.7020  203.4510  151.8580 C   0  0  0  0  0  3  0  0  0  0  0  0
  161.4340  200.2590  147.3520 F   0  0  0  0  0  0  0  0  0  0  0  0
  161.1680  207.5710  149.2980 C   0  0  0  0  0  3  0  0  0  0  0  0
  160.9400  205.4660  150.5320 C   0  0  0  0  0  0  0  0  0  0  0  0
  161.5560  204.8170  146.8950 N   0  0  0  0  0  0  0  0  0  0  0  0
  161.0510  200.3900  149.6390 C   0  0  0  0  0  3  0  0  0  0  0  0
  161.3490  206.7460  148.1550 N   0  0  0  0  0  0  0  0  0  0  0  0
  161.5850  207.1260  146.8380 N   0  0  0  0  0  2  0  0  0  0  0  0
  160.7290  204.8380  151.7610 C   0  0  0  0  0  3  0  0  0  0  0  0
  160.8860  202.6560  150.7270 C   0  0  0  0  0  0  0  0  0  0  0  0
  160.8430  201.1590  150.9130 C   0  0  0  0  0  3  0  0  0  0  0  0
  162.4840  209.2930  151.4390 O   0  0  0  0  0  0  0  0  0  0  0  0
  161.5290  208.8580  152.1340 C   0  0  0  0  0  0  0  0  0  0  0  0
  160.7710  207.7220  151.6850 N   0  0  0  0  0  2  0  0  0  0  0  0
  160.5010  210.8770  155.7900 C   0  0  0  0  0  0  0  0  0  0  0  0
  161.1260  210.9090  153.4580 C   0  0  0  0  0  3  0  0  0  0  0  0
  160.8780  207.0320  154.7170 Cl  0  0  0  0  0  0  0  0  0  0  0  0
  160.0860  211.7290  157.2610 Cl  0  0  0  0  0  0  0  0  0  0  0  0
  160.7960  211.5910  154.6290 C   0  0  0  0  0  3  0  0  0  0  0  0
  160.8670  208.7870  154.6080 C   0  0  0  0  0  0  0  0  0  0  0  0
  161.1690  209.5050  153.4210 C   0  0  0  0  0  0  0  0  0  0  0  0
  160.5370  209.4830  155.7770 C   0  0  0  0  0  3  0  0  0  0  0  0
  161.9820  205.7840  144.6860 C   0  0  0  0  0  2  0  0  0  0  0  0
  160.8890  204.9990  143.9890 C   0  0  0  0  0  1  0  0  0  0  0  0
  1  2  1  0  0  0  0
  1 11  1  0  0  0  0
  2  6  1  6  0  0  0
  2 17  1  0  0  0  0
  3 13  1  0  0  0  0
  4  1  2  0  0  0  0
  5 15  1  0  0  0  0
  5 12  2  0  0  0  0
  6  3  2  0  0  0  0
  7 11  1  0  0  0  0
  7 21  1  0  0  0  0
  9  3  1  0  0  0  0
 10  7  2  0  0  0  0
 11 16  2  0  0  0  0
 12  4  1  0  0  0  0
 13 18  2  0  0  0  0
 14  4  1  0  0  0  0
 14 10  1  0  0  0  0
 15 14  1  0  0  0  0
 16  8  1  0  0  0  0
 17 18  1  0  0  0  0
 17  8  2  0  0  0  0
 19 20  2  0  0  0  0
 20 28  1  0  0  0  0
 21 20  1  0  0  0  0
 22 25  1  0  0  0  0
 23 26  1  0  0  0  0
 26 22  2  0  0  0  0
 27 24  1  0  0  0  0
 27 29  2  0  0  0  0
 28 23  2  0  0  0  0
 28 27  1  0  0  0  0
 29 22  1  0  0  0  0
 30  5  1  0  0  0  0
 31 30  1  0  0  0  0
M  END
>  <MODEL>
1

>  <REMARK>
 VINA RESULT:     -10.4      0.000      0.000
  Name = 
  3 active torsions:
  status: ('A' for Active; 'I' for Inactive)
    1  A    between atoms: C_2  and  C_13
    2  A    between atoms: C_9  and  C_22
    3  A    between atoms: C_15  and  N_23
                            x       y       z     vdW  Elec       q    Type
                         _______ _______ _______ _____ _____    ______ ____

>  <TORSDO>
F 3

$$$$
=
 OpenBabel11052422373D

 31 35  0  0  0  0  0  0  0  0999 V2000
  161.3630  206.9780  150.7800 C   0  0  0  0  0  0  0  0  0  0  0  0
  161.1830  205.5830  150.5460 C   0  0  0  0  0  0  0  0  0  0  0  0
  160.8520  203.2710  151.3430 C   0  0  0  0  0  0  0  0  0  0  0  0
  161.4020  207.5390  152.0080 C   0  0  0  0  0  0  0  0  0  0  0  0
  161.3770  207.8880  154.1340 C   0  0  0  0  0  0  0  0  0  0  0  0
  161.0380  204.7130  151.5600 C   0  0  0  0  0  3  0  0  0  0  0  0
  161.7020  209.3360  149.8550 C   0  0  0  0  0  0  0  0  0  0  0  0
  161.3080  205.9810  148.1440 C   0  0  0  0  0  3  0  0  0  0  0  0
  160.7110  202.4450  152.4070 F   0  0  0  0  0  0  0  0  0  0  0  0
  161.7290  209.8330  151.0990 C   0  0  0  0  0  3  0  0  0  0  0  0
  161.5130  207.8590  149.6640 C   0  0  0  0  0  0  0  0  0  0  0  0
  161.2700  206.9100  153.2790 N   0  0  0  0  0  0  0  0  0  0  0  0
  160.8220  202.7700  150.1090 C   0  0  0  0  0  3  0  0  0  0  0  0
  161.5810  208.9200  152.1790 N   0  0  0  0  0  0  0  0  0  0  0  0
  161.5640  209.1850  153.5440 N   0  0  0  0  0  2  0  0  0  0  0  0
  161.4820  207.3430  148.3660 C   0  0  0  0  0  3  0  0  0  0  0  0
  161.1580  205.1000  149.2140 C   0  0  0  0  0  0  0  0  0  0  0  0
  160.9730  203.6380  148.8920 C   0  0  0  0  0  2  0  0  0  0  0  0
  161.1300  212.2120  149.6240 O   0  0  0  0  0  0  0  0  0  0  0  0
  161.5580  211.5920  148.6150 C   0  0  0  0  0  0  0  0  0  0  0  0
  161.8440  210.1860  148.7040 N   0  0  0  0  0  2  0  0  0  0  0  0
  162.3440  213.6260  144.9090 C   0  0  0  0  0  0  0  0  0  0  0  0
  163.0960  212.6040  146.9620 C   0  0  0  0  0  3  0  0  0  0  0  0
  159.0250  212.3500  146.7620 Cl  0  0  0  0  0  0  0  0  0  0  0  0
  162.6970  214.4530  143.4080 Cl  0  0  0  0  0  0  0  0  0  0  0  0
  163.3810  213.2630  145.7670 C   0  0  0  0  0  3  0  0  0  0  0  0
  160.7250  212.6690  146.4450 C   0  0  0  0  0  0  0  0  0  0  0  0
  161.7740  212.2950  147.3250 C   0  0  0  0  0  0  0  0  0  0  0  0
  161.0240  213.3300  145.2480 C   0  0  0  0  0  3  0  0  0  0  0  0
  161.2580  207.6820  155.6020 C   0  0  0  0  0  2  0  0  0  0  0  0
  159.8110  207.4240  155.9690 C   0  0  0  0  0  1  0  0  0  0  0  0
  1  4  2  0  0  0  0
  2  1  1  0  0  0  0
  2  6  2  0  0  0  0
  3  6  1  0  0  0  0
  3  9  1  0  0  0  0
  4 14  1  0  0  0  0
  4 12  1  0  0  0  0
  5 30  1  0  0  0  0
  7 10  2  0  0  0  0
  8 16  1  0  0  0  0
  8 17  2  0  0  0  0
 10 14  1  0  0  0  0
 11  7  1  0  0  0  0
 11  1  1  0  0  0  0
 12  5  2  0  0  0  0
 13  3  2  0  0  0  0
 14 15  1  0  0  0  0
 15  5  1  0  0  0  0
 16 11  2  0  0  0  0
 17  2  1  0  0  0  0
 18 17  1  0  0  0  0
 18 13  1  0  0  0  0
 20 21  1  0  0  0  0
 20 19  2  0  0  0  0
 21  7  1  0  0  0  0
 22 29  2  0  0  0  0
 22 26  1  0  0  0  0
 23 28  1  0  0  0  0
 25 22  1  0  0  0  0
 26 23  2  0  0  0  0
 27 24  1  0  0  0  0
 27 28  2  0  0  0  0
 28 20  1  0  0  0  0
 29 27  1  0  0  0  0
 30 31  1  0  0  0  0
M  END
>  <MODEL>
2

>  <REMARK>
 VINA RESULT:      -9.6      4.539      6.969
  Name = 
  3 active torsions:
  status: ('A' for Active; 'I' for Inactive)
    1  A    between atoms: C_2  and  C_13
    2  A    between atoms: C_9  and  C_22
    3  A    between atoms: C_15  and  N_23
                            x       y       z     vdW  Elec       q    Type
                         _______ _______ _______ _____ _____    ______ ____

>  <TORSDO>
F 3

$$$$
=
 OpenBabel11052422373D

 31 35  0  0  1  0  0  0  0  0999 V2000
  161.5230  208.3770  151.2200 C   0  0  0  0  0  0  0  0  0  0  0  0
  161.3960  208.6120  152.6210 C   0  0  2  0  0  3  0  0  0  0  0  0
  161.3130  210.1180  154.5740 C   0  0  0  0  0  0  0  0  0  0  0  0
  161.6940  209.3550  150.3030 C   0  0  0  0  0  0  0  0  0  0  0  0
  161.9370  211.2500  149.3090 C   0  0  0  0  0  0  0  0  0  0  0  0
  161.4410  209.8530  153.1330 C   0  0  0  0  0  3  0  0  0  0  0  0
  161.5930  206.7350  149.2640 C   0  0  0  0  0  0  0  0  0  0  0  0
  161.1710  206.2120  152.9900 C   0  0  0  0  0  3  0  0  0  0  0  0
  161.3670  211.3930  155.0280 F   0  0  0  0  0  0  0  0  0  0  0  0
  161.7590  207.7480  148.4020 C   0  0  0  0  0  3  0  0  0  0  0  0
  161.4680  207.0360  150.7290 C   0  0  0  0  0  0  0  0  0  0  0  0
  161.7730  210.7620  150.5070 N   0  0  0  0  0  0  0  0  0  0  0  0
  161.1460  209.1160  155.4350 C   0  0  0  0  0  3  0  0  0  0  0  0
  161.8120  209.0650  148.9350 N   0  0  0  0  0  0  0  0  0  0  0  0
  161.9650  210.2700  148.2580 N   0  0  0  0  0  2  0  0  0  0  0  0
  161.2930  205.9780  151.6240 C   0  0  0  0  0  3  0  0  0  0  0  0
  161.2200  207.5100  153.4950 C   0  0  0  0  0  0  0  0  0  0  0  0
  161.0800  207.6830  154.9880 C   0  0  0  0  0  3  0  0  0  0  0  0
  160.7480  205.7150  146.6380 O   0  0  0  0  0  0  0  0  0  0  0  0
  161.1110  204.8960  147.5220 C   0  0  0  0  0  0  0  0  0  0  0  0
  161.5280  205.3700  148.8130 N   0  0  0  0  0  2  0  0  0  0  0  0
  161.1280  200.7000  146.5770 C   0  0  0  0  0  0  0  0  0  0  0  0
  161.1320  203.0200  145.9090 C   0  0  0  0  0  3  0  0  0  0  0  0
  161.0840  202.8100  149.9870 Cl  0  0  0  0  0  0  0  0  0  0  0  0
  161.1350  199.0010  146.1600 Cl  0  0  0  0  0  0  0  0  0  0  0  0
  161.1380  201.6660  145.5730 C   0  0  0  0  0  3  0  0  0  0  0  0
  161.1050  202.4450  148.2670 C   0  0  0  0  0  0  0  0  0  0  0  0
  161.1150  203.4360  147.2510 C   0  0  0  0  0  0  0  0  0  0  0  0
  161.1110  201.0890  147.9160 C   0  0  0  0  0  3  0  0  0  0  0  0
  162.0290  212.7120  149.0480 C   0  0  0  0  0  2  0  0  0  0  0  0
  162.9580  212.9680  147.8790 C   0  0  0  0  0  1  0  0  0  0  0  0
  1  2  1  0  0  0  0
  2  6  1  1  0  0  0
  2 17  1  0  0  0  0
  3  9  1  0  0  0  0
  3 13  1  0  0  0  0
  4 12  1  0  0  0  0
  4  1  2  0  0  0  0
  5 12  2  0  0  0  0
  6  3  2  0  0  0  0
  7 11  1  0  0  0  0
  8 17  2  0  0  0  0
 10 14  1  0  0  0  0
 10  7  2  0  0  0  0
 11  1  1  0  0  0  0
 11 16  2  0  0  0  0
 14  4  1  0  0  0  0
 15 14  1  0  0  0  0
 15  5  1  0  0  0  0
 16  8  1  0  0  0  0
 17 18  1  0  0  0  0
 18 13  2  0  0  0  0
 19 20  2  0  0  0  0
 20 21  1  0  0  0  0
 21  7  1  0  0  0  0
 22 29  1  0  0  0  0
 23 28  2  0  0  0  0
 25 22  1  0  0  0  0
 26 23  1  0  0  0  0
 26 22  2  0  0  0  0
 27 24  1  0  0  0  0
 28 20  1  0  0  0  0
 28 27  1  0  0  0  0
 29 27  2  0  0  0  0
 30  5  1  0  0  0  0
 31 30  1  0  0  0  0
M  END
>  <MODEL>
3

>  <REMARK>
 VINA RESULT:      -9.3      4.195      8.276
  Name = 
  3 active torsions:
  status: ('A' for Active; 'I' for Inactive)
    1  A    between atoms: C_2  and  C_13
    2  A    between atoms: C_9  and  C_22
    3  A    between atoms: C_15  and  N_23
                            x       y       z     vdW  Elec       q    Type
                         _______ _______ _______ _____ _____    ______ ____

>  <TORSDO>
F 3

$$$$
=
 OpenBabel11052422373D

 31 35  0  0  0  0  0  0  0  0999 V2000
  161.3320  205.3660  149.6950 C   0  0  0  0  0  0  0  0  0  0  0  0
  161.4490  205.5550  148.2870 C   0  0  0  0  0  0  0  0  0  0  0  0
  161.5650  204.6880  145.9800 C   0  0  0  0  0  0  0  0  0  0  0  0
  161.2100  204.1580  150.2880 C   0  0  0  0  0  0  0  0  0  0  0  0
  161.0340  202.0480  150.6840 C   0  0  0  0  0  0  0  0  0  0  0  0
  161.4460  204.5170  147.4350 C   0  0  0  0  0  3  0  0  0  0  0  0
  161.2180  206.3630  152.0460 C   0  0  0  0  0  0  0  0  0  0  0  0
  161.5810  207.9650  148.6340 C   0  0  0  0  0  3  0  0  0  0  0  0
  161.5550  203.6000  145.1740 F   0  0  0  0  0  0  0  0  0  0  0  0
  161.0970  205.1370  152.5740 C   0  0  0  0  0  3  0  0  0  0  0  0
  161.3420  206.5070  150.5560 C   0  0  0  0  0  0  0  0  0  0  0  0
  161.1600  202.8700  149.6810 N   0  0  0  0  0  0  0  0  0  0  0  0
  161.6840  205.9030  145.4480 C   0  0  0  0  0  3  0  0  0  0  0  0
  161.0970  204.0310  151.6800 N   0  0  0  0  0  0  0  0  0  0  0  0
  160.9750  202.6770  151.9750 N   0  0  0  0  0  2  0  0  0  0  0  0
  161.4660  207.7860  150.0090 C   0  0  0  0  0  3  0  0  0  0  0  0
  161.5730  206.8700  147.7720 C   0  0  0  0  0  0  0  0  0  0  0  0
  161.7020  207.1450  146.2940 C   0  0  0  0  0  2  0  0  0  0  0  0
  160.4430  206.6150  154.8710 O   0  0  0  0  0  0  0  0  0  0  0  0
  160.8440  207.6370  154.2550 C   0  0  0  0  0  0  0  0  0  0  0  0
  161.2290  207.5390  152.8740 N   0  0  0  0  0  2  0  0  0  0  0  0
  161.1390  211.3720  156.3680 C   0  0  0  0  0  0  0  0  0  0  0  0
  161.3470  208.9680  156.2790 C   0  0  0  0  0  3  0  0  0  0  0  0
  160.0760  210.3290  152.6450 Cl  0  0  0  0  0  0  0  0  0  0  0  0
  161.2690  212.8740  157.2550 Cl  0  0  0  0  0  0  0  0  0  0  0  0
  161.4520  210.1640  156.9900 C   0  0  0  0  0  3  0  0  0  0  0  0
  160.6120  210.1880  154.3140 C   0  0  0  0  0  0  0  0  0  0  0  0
  160.9280  208.9530  154.9380 C   0  0  0  0  0  0  0  0  0  0  0  0
  160.7210  211.3820  155.0380 C   0  0  0  0  0  3  0  0  0  0  0  0
  160.9030  200.5770  150.5000 C   0  0  0  0  0  2  0  0  0  0  0  0
  161.2060  200.2110  149.0610 C   0  0  0  0  0  1  0  0  0  0  0  0
  1  4  2  0  0  0  0
  1 11  1  0  0  0  0
  2  1  1  0  0  0  0
  3  6  1  0  0  0  0
  4 14  1  0  0  0  0
  5 15  1  0  0  0  0
  6  2  2  0  0  0  0
  7 10  2  0  0  0  0
  7 21  1  0  0  0  0
  8 16  1  0  0  0  0
  9  3  1  0  0  0  0
 11  7  1  0  0  0  0
 12  4  1  0  0  0  0
 12  5  2  0  0  0  0
 13  3  2  0  0  0  0
 13 18  1  0  0  0  0
 14 15  1  0  0  0  0
 14 10  1  0  0  0  0
 16 11  2  0  0  0  0
 17  2  1  0  0  0  0
 17  8  2  0  0  0  0
 18 17  1  0  0  0  0
 20 19  2  0  0  0  0
 20 28  1  0  0  0  0
 21 20  1  0  0  0  0
 22 26  1  0  0  0  0
 22 25  1  0  0  0  0
 23 26  2  0  0  0  0
 24 27  1  0  0  0  0
 27 28  2  0  0  0  0
 27 29  1  0  0  0  0
 28 23  1  0  0  0  0
 29 22  2  0  0  0  0
 30  5  1  0  0  0  0
 31 30  1  0  0  0  0
M  END
>  <MODEL>
4

>  <REMARK>
 VINA RESULT:      -7.9      2.171      4.236
  Name = 
  3 active torsions:
  status: ('A' for Active; 'I' for Inactive)
    1  A    between atoms: C_2  and  C_13
    2  A    between atoms: C_9  and  C_22
    3  A    between atoms: C_15  and  N_23
                            x       y       z     vdW  Elec       q    Type
                         _______ _______ _______ _____ _____    ______ ____

>  <TORSDO>
F 3

$$$$
