=
 OpenBabel11052423223D

 27 31  0  0  0  0  0  0  0  0999 V2000
  162.7080  209.3120  151.2650 C   0  0  0  0  0  2  0  0  0  0  0  0
  161.3750  207.2670  150.6510 C   0  0  0  0  0  0  0  0  0  0  0  0
  162.4180  208.3390  148.5300 C   0  0  0  0  0  2  0  0  0  0  0  0
  160.7330  206.1290  150.9820 N   0  0  0  0  0  2  0  0  0  0  0  0
  160.4950  212.6800  147.2660 O   0  0  0  0  0  1  0  0  0  0  0  0
  161.0460  211.8590  148.2400 C   0  0  0  0  0  0  0  0  0  0  0  0
  161.7190  208.2930  151.6130 N   0  0  0  0  0  0  0  0  0  0  0  0
  161.1400  206.1110  148.7770 C   0  0  0  0  0  0  0  0  0  0  0  0
  162.1640  210.2090  150.2030 C   0  0  0  0  0  0  0  0  0  0  0  0
  161.6420  207.2990  149.2870 C   0  0  0  0  0  0  0  0  0  0  0  0
  161.4380  210.5580  147.9150 C   0  0  0  0  0  3  0  0  0  0  0  0
  160.5870  205.4200  149.8440 C   0  0  0  0  0  3  0  0  0  0  0  0
  161.2060  212.3340  149.5450 C   0  0  0  0  0  3  0  0  0  0  0  0
  161.7610  211.5080  150.5270 C   0  0  0  0  0  3  0  0  0  0  0  0
  161.9940  209.7270  148.8940 C   0  0  0  0  0  0  0  0  0  0  0  0
  160.4550  206.3170  146.3850 C   0  0  0  0  0  3  0  0  0  0  0  0
  161.2110  204.7400  144.7120 C   0  0  0  0  0  3  0  0  0  0  0  0
  161.9260  204.0470  145.6900 C   0  0  0  0  0  3  0  0  0  0  0  0
  161.9040  204.4880  147.0160 C   0  0  0  0  0  3  0  0  0  0  0  0
  161.1680  205.6260  147.3770 C   0  0  0  0  0  0  0  0  0  0  0  0
  160.4740  205.8760  145.0590 C   0  0  0  0  0  3  0  0  0  0  0  0
  159.9130  208.4970  155.4640 C   0  0  0  0  0  3  0  0  0  0  0  0
  161.0890  208.3630  152.9110 C   0  0  0  0  0  0  0  0  0  0  0  0
  160.5360  209.5650  153.3840 C   0  0  0  0  0  3  0  0  0  0  0  0
  159.9490  209.6320  154.6510 C   0  0  0  0  0  3  0  0  0  0  0  0
  160.4660  207.2970  155.0110 C   0  0  0  0  0  3  0  0  0  0  0  0
  161.0530  207.2310  153.7440 C   0  0  0  0  0  3  0  0  0  0  0  0
  1  7  1  0  0  0  0
  2  4  1  0  0  0  0
  2  7  1  0  0  0  0
  3 15  1  0  0  0  0
  3 10  1  0  0  0  0
  5  6  1  0  0  0  0
  6 13  1  0  0  0  0
  7 23  1  0  0  0  0
  8 10  1  0  0  0  0
  8 12  2  0  0  0  0
  9 14  1  0  0  0  0
  9  1  1  0  0  0  0
 10  2  2  0  0  0  0
 11  6  2  0  0  0  0
 11 15  1  0  0  0  0
 12  4  1  0  0  0  0
 13 14  2  0  0  0  0
 15  9  2  0  0  0  0
 16 20  1  0  0  0  0
 17 21  1  0  0  0  0
 17 18  2  0  0  0  0
 18 19  1  0  0  0  0
 19 20  2  0  0  0  0
 20  8  1  0  0  0  0
 21 16  2  0  0  0  0
 23 24  2  0  0  0  0
 23 27  1  0  0  0  0
 24 25  1  0  0  0  0
 25 22  2  0  0  0  0
 26 22  1  0  0  0  0
 27 26  2  0  0  0  0
M  END
>  <MODEL>
1

>  <REMARK>
 VINA RESULT:      -8.1      0.000      0.000
  Name = 
  2 active torsions:
  status: ('A' for Active; 'I' for Inactive)
    1  A    between atoms: C_9  and  N_15
    2  A    between atoms: C_14  and  C_17
                            x       y       z     vdW  Elec       q    Type
                         _______ _______ _______ _____ _____    ______ ____

>  <TORSDO>
F 2

$$$$
=
 OpenBabel11052423223D

 27 31  0  0  1  0  0  0  0  0999 V2000
  162.5590  206.9530  152.4570 C   0  0  0  0  0  2  0  0  0  0  0  0
  161.9110  207.7720  150.1670 C   0  0  0  0  0  0  0  0  0  0  0  0
  162.3410  209.7770  151.7590 C   0  0  0  0  0  2  0  0  0  0  0  0
  161.7100  207.5690  148.8500 N   0  0  0  0  0  0  0  0  0  0  0  0
  158.9990  210.3260  155.3180 O   0  0  0  0  0  1  0  0  0  0  0  0
  159.8780  209.5050  154.6250 C   0  0  0  0  0  0  0  0  0  0  0  0
  161.9930  206.6970  151.1330 N   0  0  0  0  0  0  0  0  0  0  0  0
  161.8880  209.7730  149.2180 C   0  0  0  0  0  0  0  0  0  0  0  0
  161.6530  207.8500  153.2330 C   0  0  0  0  0  0  0  0  0  0  0  0
  162.0220  209.1310  150.4400 C   0  0  1  0  0  3  0  0  0  0  0  0
  160.6390  210.0270  153.5750 C   0  0  0  0  0  3  0  0  0  0  0  0
  161.6950  208.7840  148.2660 C   0  0  0  0  0  3  0  0  0  0  0  0
  159.9980  208.1570  154.9750 C   0  0  0  0  0  3  0  0  0  0  0  0
  160.8830  207.3290  154.2770 C   0  0  0  0  0  3  0  0  0  0  0  0
  161.5260  209.2030  152.8740 C   0  0  0  0  0  0  0  0  0  0  0  0
  162.9520  211.7410  148.1090 C   0  0  0  0  0  3  0  0  0  0  0  0
  162.0560  213.9750  148.3630 C   0  0  0  0  0  3  0  0  0  0  0  0
  161.0430  213.4740  149.1830 C   0  0  0  0  0  3  0  0  0  0  0  0
  160.9850  212.1060  149.4650 C   0  0  0  0  0  3  0  0  0  0  0  0
  161.9380  211.2260  148.9330 C   0  0  0  0  0  0  0  0  0  0  0  0
  163.0120  213.1080  147.8250 C   0  0  0  0  0  3  0  0  0  0  0  0
  160.5940  202.7740  150.2500 C   0  0  0  0  0  3  0  0  0  0  0  0
  161.5010  205.3710  150.8410 C   0  0  0  0  0  0  0  0  0  0  0  0
  161.3100  204.4270  151.8650 C   0  0  0  0  0  3  0  0  0  0  0  0
  160.8570  203.1380  151.5720 C   0  0  0  0  0  3  0  0  0  0  0  0
  160.7870  203.6980  149.2200 C   0  0  0  0  0  3  0  0  0  0  0  0
  161.2410  204.9870  149.5140 C   0  0  0  0  0  3  0  0  0  0  0  0
  1  9  1  0  0  0  0
  2 10  1  0  0  0  0
  2  7  1  0  0  0  0
  3 15  1  0  0  0  0
  4  2  2  0  0  0  0
  6 13  1  0  0  0  0
  6  5  1  0  0  0  0
  7  1  1  0  0  0  0
  8 10  1  0  0  0  0
  9 14  1  0  0  0  0
 10  3  1  6  0  0  0
 11  6  2  0  0  0  0
 12  4  1  0  0  0  0
 12  8  2  0  0  0  0
 14 13  2  0  0  0  0
 15  9  2  0  0  0  0
 15 11  1  0  0  0  0
 16 20  1  0  0  0  0
 17 18  2  0  0  0  0
 18 19  1  0  0  0  0
 20  8  1  0  0  0  0
 20 19  2  0  0  0  0
 21 16  2  0  0  0  0
 21 17  1  0  0  0  0
 22 25  1  0  0  0  0
 23  7  1  0  0  0  0
 23 24  1  0  0  0  0
 25 24  2  0  0  0  0
 26 27  1  0  0  0  0
 26 22  2  0  0  0  0
 27 23  2  0  0  0  0
M  END
>  <MODEL>
2

>  <REMARK>
 VINA RESULT:      -8.0      2.516      5.965
  Name = 
  2 active torsions:
  status: ('A' for Active; 'I' for Inactive)
    1  A    between atoms: C_9  and  N_15
    2  A    between atoms: C_14  and  C_17
                            x       y       z     vdW  Elec       q    Type
                         _______ _______ _______ _____ _____    ______ ____

>  <TORSDO>
F 2

$$$$
=
 OpenBabel11052423223D

 27 31  0  0  0  0  0  0  0  0999 V2000
  162.8640  208.2130  151.9940 C   0  0  0  0  0  2  0  0  0  0  0  0
  161.3590  206.2460  151.5430 C   0  0  0  0  0  0  0  0  0  0  0  0
  162.6530  206.9090  149.3920 C   0  0  0  0  0  2  0  0  0  0  0  0
  160.5770  205.2320  151.9640 N   0  0  0  0  0  2  0  0  0  0  0  0
  161.3030  211.2060  147.4290 O   0  0  0  0  0  1  0  0  0  0  0  0
  161.6950  210.4750  148.5410 C   0  0  0  0  0  0  0  0  0  0  0  0
  161.7480  207.3530  152.3890 N   0  0  0  0  0  0  0  0  0  0  0  0
  161.1260  204.8730  149.8200 C   0  0  0  0  0  0  0  0  0  0  0  0
  162.4920  209.0060  150.7850 C   0  0  0  0  0  0  0  0  0  0  0  0
  161.7190  206.0640  150.2120 C   0  0  0  0  0  0  0  0  0  0  0  0
  161.9640  209.1090  148.4190 C   0  0  0  0  0  3  0  0  0  0  0  0
  160.4310  204.3930  150.9190 C   0  0  0  0  0  3  0  0  0  0  0  0
  161.8180  211.1050  149.7830 C   0  0  0  0  0  3  0  0  0  0  0  0
  162.2130  210.3700  150.9050 C   0  0  0  0  0  3  0  0  0  0  0  0
  162.3590  208.3690  149.5390 C   0  0  0  0  0  0  0  0  0  0  0  0
  160.9340  202.8260  148.4040 C   0  0  0  0  0  3  0  0  0  0  0  0
  161.3070  202.9010  146.0130 C   0  0  0  0  0  3  0  0  0  0  0  0
  161.5680  204.2700  146.0990 C   0  0  0  0  0  3  0  0  0  0  0  0
  161.5120  204.9160  147.3370 C   0  0  0  0  0  3  0  0  0  0  0  0
  161.1950  204.2020  148.5010 C   0  0  0  0  0  0  0  0  0  0  0  0
  160.9900  202.1780  147.1670 C   0  0  0  0  0  3  0  0  0  0  0  0
  159.7210  208.2580  156.0230 C   0  0  0  0  0  3  0  0  0  0  0  0
  161.0440  207.6630  153.6120 C   0  0  0  0  0  0  0  0  0  0  0  0
  160.6130  208.9710  153.8890 C   0  0  0  0  0  3  0  0  0  0  0  0
  159.9530  209.2670  155.0850 C   0  0  0  0  0  3  0  0  0  0  0  0
  160.1510  206.9540  155.7650 C   0  0  0  0  0  3  0  0  0  0  0  0
  160.8110  206.6590  154.5690 C   0  0  0  0  0  3  0  0  0  0  0  0
  1  7  1  0  0  0  0
  2  4  1  0  0  0  0
  2  7  1  0  0  0  0
  3 15  1  0  0  0  0
  3 10  1  0  0  0  0
  5  6  1  0  0  0  0
  6 13  1  0  0  0  0
  7 23  1  0  0  0  0
  8 10  1  0  0  0  0
  8 12  2  0  0  0  0
  9 14  1  0  0  0  0
  9  1  1  0  0  0  0
 10  2  2  0  0  0  0
 11  6  2  0  0  0  0
 11 15  1  0  0  0  0
 12  4  1  0  0  0  0
 13 14  2  0  0  0  0
 15  9  2  0  0  0  0
 16 20  1  0  0  0  0
 17 18  2  0  0  0  0
 17 21  1  0  0  0  0
 18 19  1  0  0  0  0
 19 20  2  0  0  0  0
 20  8  1  0  0  0  0
 21 16  2  0  0  0  0
 23 24  2  0  0  0  0
 23 27  1  0  0  0  0
 24 25  1  0  0  0  0
 25 22  2  0  0  0  0
 26 22  1  0  0  0  0
 27 26  2  0  0  0  0
M  END
>  <MODEL>
3

>  <REMARK>
 VINA RESULT:      -6.9      1.209      1.732
  Name = 
  2 active torsions:
  status: ('A' for Active; 'I' for Inactive)
    1  A    between atoms: C_9  and  N_15
    2  A    between atoms: C_14  and  C_17
                            x       y       z     vdW  Elec       q    Type
                         _______ _______ _______ _____ _____    ______ ____

>  <TORSDO>
F 2

$$$$
=
 OpenBabel11052423223D

 27 31  0  0  0  0  0  0  0  0999 V2000
  162.8670  209.8660  151.8480 C   0  0  0  0  0  2  0  0  0  0  0  0
  161.4710  207.7850  152.0850 C   0  0  0  0  0  0  0  0  0  0  0  0
  162.5180  207.9090  149.7130 C   0  0  0  0  0  2  0  0  0  0  0  0
  160.8040  206.8860  152.8350 N   0  0  0  0  0  2  0  0  0  0  0  0
  160.6980  211.4630  146.8500 O   0  0  0  0  0  1  0  0  0  0  0  0
  161.2380  211.0730  148.0670 C   0  0  0  0  0  0  0  0  0  0  0  0
  161.8550  209.0940  152.5680 N   0  0  0  0  0  0  0  0  0  0  0  0
  161.1840  205.9940  150.8140 C   0  0  0  0  0  0  0  0  0  0  0  0
  162.3340  210.2910  150.5200 C   0  0  0  0  0  0  0  0  0  0  0  0
  161.7230  207.2710  150.8170 C   0  0  0  0  0  0  0  0  0  0  0  0
  161.5920  209.7370  148.2780 C   0  0  0  0  0  3  0  0  0  0  0  0
  160.6250  205.7930  152.0660 C   0  0  0  0  0  3  0  0  0  0  0  0
  161.4260  212.0160  149.0820 C   0  0  0  0  0  3  0  0  0  0  0  0
  161.9710  211.6250  150.3090 C   0  0  0  0  0  3  0  0  0  0  0  0
  162.1360  209.3400  149.5040 C   0  0  0  0  0  0  0  0  0  0  0  0
  161.3000  205.4290  148.3840 C   0  0  0  0  0  3  0  0  0  0  0  0
  161.1950  203.1380  147.6110 C   0  0  0  0  0  3  0  0  0  0  0  0
  161.0790  202.6990  148.9320 C   0  0  0  0  0  3  0  0  0  0  0  0
  161.0730  203.6260  149.9780 C   0  0  0  0  0  3  0  0  0  0  0  0
  161.1830  204.9990  149.7160 C   0  0  0  0  0  0  0  0  0  0  0  0
  161.3050  204.5040  147.3370 C   0  0  0  0  0  3  0  0  0  0  0  0
  160.0090  210.7980  156.0060 C   0  0  0  0  0  3  0  0  0  0  0  0
  161.2420  209.6860  153.7350 C   0  0  0  0  0  0  0  0  0  0  0  0
  161.8430  209.5820  155.0010 C   0  0  0  0  0  3  0  0  0  0  0  0
  161.2330  210.1360  156.1290 C   0  0  0  0  0  3  0  0  0  0  0  0
  159.3950  210.9030  154.7560 C   0  0  0  0  0  3  0  0  0  0  0  0
  160.0060  210.3470  153.6280 C   0  0  0  0  0  3  0  0  0  0  0  0
  1  7  1  0  0  0  0
  2  7  1  0  0  0  0
  2  4  1  0  0  0  0
  3 10  1  0  0  0  0
  5  6  1  0  0  0  0
  6 11  2  0  0  0  0
  6 13  1  0  0  0  0
  7 23  1  0  0  0  0
  8 10  1  0  0  0  0
  8 12  2  0  0  0  0
  9  1  1  0  0  0  0
 10  2  2  0  0  0  0
 11 15  1  0  0  0  0
 12  4  1  0  0  0  0
 13 14  2  0  0  0  0
 14  9  1  0  0  0  0
 15  3  1  0  0  0  0
 15  9  2  0  0  0  0
 16 20  1  0  0  0  0
 17 18  2  0  0  0  0
 18 19  1  0  0  0  0
 20 19  2  0  0  0  0
 20  8  1  0  0  0  0
 21 17  1  0  0  0  0
 21 16  2  0  0  0  0
 22 25  1  0  0  0  0
 23 24  1  0  0  0  0
 24 25  2  0  0  0  0
 26 22  2  0  0  0  0
 27 23  2  0  0  0  0
 27 26  1  0  0  0  0
M  END
>  <MODEL>
4

>  <REMARK>
 VINA RESULT:      -6.4      1.458      2.117
  Name = 
  2 active torsions:
  status: ('A' for Active; 'I' for Inactive)
    1  A    between atoms: C_9  and  N_15
    2  A    between atoms: C_14  and  C_17
                            x       y       z     vdW  Elec       q    Type
                         _______ _______ _______ _____ _____    ______ ____

>  <TORSDO>
F 2

$$$$
=
 OpenBabel11052423223D

 27 31  0  0  1  0  0  0  0  0999 V2000
  162.6010  210.0820  149.7630 C   0  0  0  0  0  2  0  0  0  0  0  0
  161.0600  210.8290  151.6090 C   0  0  0  0  0  0  0  0  0  0  0  0
  162.0190  208.4720  152.1260 C   0  0  0  0  0  2  0  0  0  0  0  0
  160.3560  211.7820  152.2500 N   0  0  0  0  0  0  0  0  0  0  0  0
  160.3650  204.8950  149.1920 O   0  0  0  0  0  1  0  0  0  0  0  0
  160.9210  206.1590  149.3330 C   0  0  0  0  0  0  0  0  0  0  0  0
  161.5620  210.9840  150.2600 N   0  0  0  0  0  0  0  0  0  0  0  0
  160.5860  210.0180  153.6150 C   0  0  0  0  0  0  0  0  0  0  0  0
  162.0500  208.7030  149.6150 C   0  0  0  0  0  0  0  0  0  0  0  0
  161.2220  209.7110  152.4220 C   0  0  1  0  0  3  0  0  0  0  0  0
  161.1790  206.6690  150.6090 C   0  0  0  0  0  3  0  0  0  0  0  0
  160.0640  211.2940  153.4730 C   0  0  0  0  0  3  0  0  0  0  0  0
  161.2210  206.9200  148.2000 C   0  0  0  0  0  3  0  0  0  0  0  0
  161.7820  208.1940  148.3410 C   0  0  0  0  0  3  0  0  0  0  0  0
  161.7400  207.9420  150.7550 C   0  0  0  0  0  0  0  0  0  0  0  0
  160.5150  209.7860  156.1000 C   0  0  0  0  0  3  0  0  0  0  0  0
  160.2280  207.6300  157.1620 C   0  0  0  0  0  3  0  0  0  0  0  0
  160.1760  207.0200  155.9070 C   0  0  0  0  0  3  0  0  0  0  0  0
  160.2940  207.7940  154.7490 C   0  0  0  0  0  3  0  0  0  0  0  0
  160.4650  209.1830  154.8330 C   0  0  0  0  0  0  0  0  0  0  0  0
  160.3970  209.0140  157.2590 C   0  0  0  0  0  3  0  0  0  0  0  0
  159.9930  213.9190  147.6050 C   0  0  0  0  0  3  0  0  0  0  0  0
  161.0430  211.9920  149.3650 C   0  0  0  0  0  0  0  0  0  0  0  0
  160.3350  213.1020  149.8560 C   0  0  0  0  0  3  0  0  0  0  0  0
  159.8160  214.0610  148.9830 C   0  0  0  0  0  3  0  0  0  0  0  0
  160.6880  212.8170  147.1010 C   0  0  0  0  0  3  0  0  0  0  0  0
  161.2060  211.8580  147.9750 C   0  0  0  0  0  3  0  0  0  0  0  0
  1  7  1  0  0  0  0
  2  4  2  0  0  0  0
  2 10  1  0  0  0  0
  4 12  1  0  0  0  0
  5  6  1  0  0  0  0
  6 11  1  0  0  0  0
  7  2  1  0  0  0  0
  8 20  1  0  0  0  0
  9  1  1  0  0  0  0
  9 15  1  0  0  0  0
 10  3  1  1  0  0  0
 10  8  1  0  0  0  0
 11 15  2  0  0  0  0
 12  8  2  0  0  0  0
 13 14  1  0  0  0  0
 13  6  2  0  0  0  0
 14  9  2  0  0  0  0
 15  3  1  0  0  0  0
 16 21  1  0  0  0  0
 17 21  2  0  0  0  0
 18 17  1  0  0  0  0
 19 20  1  0  0  0  0
 19 18  2  0  0  0  0
 20 16  2  0  0  0  0
 22 25  1  0  0  0  0
 23 24  1  0  0  0  0
 23  7  1  0  0  0  0
 25 24  2  0  0  0  0
 26 22  2  0  0  0  0
 26 27  1  0  0  0  0
 27 23  2  0  0  0  0
M  END
>  <MODEL>
5

>  <REMARK>
 VINA RESULT:      -6.0      2.532      7.152
  Name = 
  2 active torsions:
  status: ('A' for Active; 'I' for Inactive)
    1  A    between atoms: C_9  and  N_15
    2  A    between atoms: C_14  and  C_17
                            x       y       z     vdW  Elec       q    Type
                         _______ _______ _______ _____ _____    ______ ____

>  <TORSDO>
F 2

$$$$
=
 OpenBabel11052423223D

 27 31  0  0  1  0  0  0  0  0999 V2000
  162.6330  211.0260  149.3260 C   0  0  0  0  0  2  0  0  0  0  0  0
  160.7420  212.2600  150.4410 C   0  0  0  0  0  0  0  0  0  0  0  0
  161.5580  210.3040  151.9400 C   0  0  0  0  0  2  0  0  0  0  0  0
  159.9240  213.3250  150.5480 N   0  0  0  0  0  0  0  0  0  0  0  0
  160.5390  205.8230  150.2030 O   0  0  0  0  0  1  0  0  0  0  0  0
  161.0600  207.0920  149.9940 C   0  0  0  0  0  0  0  0  0  0  0  0
  161.5170  211.9700  149.2530 N   0  0  0  0  0  0  0  0  0  0  0  0
  159.8530  212.1680  152.4660 C   0  0  0  0  0  0  0  0  0  0  0  0
  162.1180  209.6470  149.5710 C   0  0  0  0  0  0  0  0  0  0  0  0
  160.7240  211.5100  151.6120 C   0  0  1  0  0  3  0  0  0  0  0  0
  161.0470  208.0310  151.0290 C   0  0  0  0  0  3  0  0  0  0  0  0
  159.3790  213.2750  151.7800 C   0  0  0  0  0  3  0  0  0  0  0  0
  161.5960  207.4300  148.7470 C   0  0  0  0  0  3  0  0  0  0  0  0
  162.1210  208.7080  148.5350 C   0  0  0  0  0  3  0  0  0  0  0  0
  161.5710  209.3120  150.8210 C   0  0  0  0  0  0  0  0  0  0  0  0
  158.1490  211.4420  154.1410 C   0  0  0  0  0  3  0  0  0  0  0  0
  158.7260  211.0980  156.4660 C   0  0  0  0  0  3  0  0  0  0  0  0
  160.0470  211.4550  156.1900 C   0  0  0  0  0  3  0  0  0  0  0  0
  160.4180  211.8060  154.8890 C   0  0  0  0  0  3  0  0  0  0  0  0
  159.4740  211.8040  153.8520 C   0  0  0  0  0  0  0  0  0  0  0  0
  157.7750  211.0910  155.4410 C   0  0  0  0  0  3  0  0  0  0  0  0
  160.6430  213.7020  145.4630 C   0  0  0  0  0  3  0  0  0  0  0  0
  161.2040  212.5640  147.9740 C   0  0  0  0  0  0  0  0  0  0  0  0
  160.2180  212.0100  147.1390 C   0  0  0  0  0  3  0  0  0  0  0  0
  159.9370  212.5760  145.8930 C   0  0  0  0  0  3  0  0  0  0  0  0
  161.6300  214.2600  146.2780 C   0  0  0  0  0  3  0  0  0  0  0  0
  161.9110  213.6930  147.5240 C   0  0  0  0  0  3  0  0  0  0  0  0
  1  9  1  0  0  0  0
  2  4  2  0  0  0  0
  2 10  1  0  0  0  0
  4 12  1  0  0  0  0
  6  5  1  0  0  0  0
  6 11  1  0  0  0  0
  7  1  1  0  0  0  0
  7  2  1  0  0  0  0
  8 20  1  0  0  0  0
  9 15  1  0  0  0  0
 10  3  1  1  0  0  0
 10  8  1  0  0  0  0
 12  8  2  0  0  0  0
 13  6  2  0  0  0  0
 14 13  1  0  0  0  0
 14  9  2  0  0  0  0
 15 11  2  0  0  0  0
 15  3  1  0  0  0  0
 16 21  1  0  0  0  0
 18 17  1  0  0  0  0
 19 18  2  0  0  0  0
 20 16  2  0  0  0  0
 20 19  1  0  0  0  0
 21 17  2  0  0  0  0
 22 25  2  0  0  0  0
 22 26  1  0  0  0  0
 23  7  1  0  0  0  0
 24 23  2  0  0  0  0
 25 24  1  0  0  0  0
 26 27  2  0  0  0  0
 27 23  1  0  0  0  0
M  END
>  <MODEL>
6

>  <REMARK>
 VINA RESULT:      -5.9      3.112      7.930
  Name = 
  2 active torsions:
  status: ('A' for Active; 'I' for Inactive)
    1  A    between atoms: C_9  and  N_15
    2  A    between atoms: C_14  and  C_17
                            x       y       z     vdW  Elec       q    Type
                         _______ _______ _______ _____ _____    ______ ____

>  <TORSDO>
F 2

$$$$
=
 OpenBabel11052423223D

 27 31  0  0  1  0  0  0  0  0999 V2000
  160.2230  211.2390  137.9700 C   0  0  0  0  0  2  0  0  0  0  0  0
  159.2750  212.1970  140.0970 C   0  0  0  0  0  0  0  0  0  0  0  0
  161.7460  211.4790  140.4470 C   0  0  0  0  0  2  0  0  0  0  0  0
  158.3320  212.8890  140.7660 N   0  0  0  0  0  0  0  0  0  0  0  0
  162.5040  206.6260  140.3690 O   0  0  0  0  0  1  0  0  0  0  0  0
  161.9560  207.7560  139.7780 C   0  0  0  0  0  0  0  0  0  0  0  0
  159.0710  211.6560  138.7700 N   0  0  0  0  0  0  0  0  0  0  0  0
  160.1710  212.7590  142.0430 C   0  0  0  0  0  0  0  0  0  0  0  0
  160.8570  210.0340  138.5820 C   0  0  0  0  0  0  0  0  0  0  0  0
  160.4340  212.0880  140.8580 C   0  0  1  0  0  3  0  0  0  0  0  0
  162.1130  209.0060  140.3850 C   0  0  0  0  0  3  0  0  0  0  0  0
  158.8720  213.2340  141.9530 C   0  0  0  0  0  3  0  0  0  0  0  0
  161.2460  207.6430  138.5790 C   0  0  0  0  0  3  0  0  0  0  0  0
  160.6940  208.7810  137.9830 C   0  0  0  0  0  3  0  0  0  0  0  0
  161.5620  210.1470  139.7920 C   0  0  0  0  0  0  0  0  0  0  0  0
  160.5390  212.9600  144.5040 C   0  0  0  0  0  3  0  0  0  0  0  0
  162.7460  213.3280  145.4280 C   0  0  0  0  0  3  0  0  0  0  0  0
  163.2840  213.3280  144.1390 C   0  0  0  0  0  3  0  0  0  0  0  0
  162.4490  213.1450  143.0340 C   0  0  0  0  0  3  0  0  0  0  0  0
  161.0690  212.9600  143.2040 C   0  0  0  0  0  0  0  0  0  0  0  0
  161.3730  213.1440  145.6110 C   0  0  0  0  0  3  0  0  0  0  0  0
  155.1550  211.1500  137.1770 C   0  0  0  0  0  3  0  0  0  0  0  0
  157.7500  211.4840  138.2110 C   0  0  0  0  0  0  0  0  0  0  0  0
  157.1100  212.5320  137.5270 C   0  0  0  0  0  3  0  0  0  0  0  0
  155.8220  212.3650  137.0110 C   0  0  0  0  0  3  0  0  0  0  0  0
  155.7750  210.1020  137.8610 C   0  0  0  0  0  3  0  0  0  0  0  0
  157.0620  210.2690  138.3780 C   0  0  0  0  0  3  0  0  0  0  0  0
  1  9  1  0  0  0  0
  1  7  1  0  0  0  0
  2  4  2  0  0  0  0
  2 10  1  0  0  0  0
  4 12  1  0  0  0  0
  6  5  1  0  0  0  0
  6 11  1  0  0  0  0
  7  2  1  0  0  0  0
  8 20  1  0  0  0  0
  9 15  1  0  0  0  0
 10  3  1  6  0  0  0
 10  8  1  0  0  0  0
 12  8  2  0  0  0  0
 13  6  2  0  0  0  0
 14 13  1  0  0  0  0
 14  9  2  0  0  0  0
 15 11  2  0  0  0  0
 15  3  1  0  0  0  0
 16 21  1  0  0  0  0
 17 21  2  0  0  0  0
 18 17  1  0  0  0  0
 19 20  1  0  0  0  0
 19 18  2  0  0  0  0
 20 16  2  0  0  0  0
 22 26  1  0  0  0  0
 23 27  1  0  0  0  0
 23  7  1  0  0  0  0
 24 23  2  0  0  0  0
 25 22  2  0  0  0  0
 25 24  1  0  0  0  0
 26 27  2  0  0  0  0
M  END
>  <MODEL>
7

>  <REMARK>
 VINA RESULT:      -5.6      8.094     12.238
  Name = 
  2 active torsions:
  status: ('A' for Active; 'I' for Inactive)
    1  A    between atoms: C_9  and  N_15
    2  A    between atoms: C_14  and  C_17
                            x       y       z     vdW  Elec       q    Type
                         _______ _______ _______ _____ _____    ______ ____

>  <TORSDO>
F 2

$$$$
