=
 OpenBabel11052423033D

 28 32  0  0  1  0  0  0  0  0999 V2000
  158.9650  211.4410  154.4020 C   0  0  0  0  0  2  0  0  0  0  0  0
  158.9000  211.0140  157.2590 C   0  0  0  0  0  1  0  0  0  0  0  0
  160.2760  211.0760  156.5990 C   0  0  1  0  0  0  0  0  0  0  0  0
  158.7910  212.4120  151.4260 C   0  0  0  0  0  2  0  0  0  0  0  0
  160.6900  208.7210  156.2010 C   0  0  0  0  0  2  0  0  0  0  0  0
  161.1780  208.8750  153.7400 C   0  0  2  0  0  3  0  0  0  0  0  0
  161.0750  209.8720  157.1170 C   0  0  1  0  0  3  0  0  0  0  0  0
  160.1340  210.4040  151.9950 C   0  0  0  0  0  2  0  0  0  0  0  0
  160.2310  209.3230  154.8760 C   0  0  2  0  0  3  0  0  0  0  0  0
  158.2460  212.8880  152.6320 O   0  0  0  0  0  0  0  0  0  0  0  0
  161.4220  209.9430  152.6610 C   0  0  0  0  0  2  0  0  0  0  0  0
  160.0490  211.9240  152.0890 C   0  0  2  0  0  3  0  0  0  0  0  0
  159.3810  212.4680  153.3450 C   0  0  2  0  0  3  0  0  0  0  0  0
  160.1880  210.8350  155.0870 C   0  0  1  0  0  3  0  0  0  0  0  0
  161.2010  205.1580  152.8020 C   0  0  0  0  0  2  0  0  0  0  0  0
  161.1230  207.3710  151.6170 C   0  0  1  0  0  3  0  0  0  0  0  0
  161.2010  205.8700  151.4740 C   0  0  2  0  0  0  0  0  0  0  0  0
  160.7390  207.5440  153.0960 C   0  0  1  0  0  3  0  0  0  0  0  0
  160.1440  205.4020  150.6750 O   0  0  0  0  0  0  0  0  0  0  0  0
  161.4470  205.1770  150.1920 C   0  0  0  0  0  2  0  0  0  0  0  0
  161.2280  206.2870  153.8220 C   0  0  0  0  0  2  0  0  0  0  0  0
  162.4460  208.0440  151.2110 C   0  0  0  0  0  2  0  0  0  0  0  0
  162.7330  207.9670  149.7160 C   0  0  0  0  0  2  0  0  0  0  0  0
  161.9900  209.0750  149.0020 C   0  0  0  0  0  1  0  0  0  0  0  0
  163.1090  210.7440  155.7040 O   0  0  0  0  0  0  0  0  0  0  0  0
  162.8770  210.0600  157.0450 S   0  0  0  0  0  3  0  0  0  0  0  0
  160.8650  212.4260  156.9330 C   0  0  0  0  0  3  0  0  0  0  0  0
  160.1470  213.5490  157.0090 C   0  0  0  0  0  2  0  0  0  0  0  0
  3 27  1  0  0  0  0
  3  7  1  0  0  0  0
  3  2  1  1  0  0  0
  4 10  1  0  0  0  0
  5  7  1  0  0  0  0
  6 11  1  6  0  0  0
  6  9  1  0  0  0  0
  7 26  1  6  0  0  0
  8 12  1  0  0  0  0
  8 11  1  0  0  0  0
  9 14  1  0  0  0  0
  9  5  1  1  0  0  0
 10 13  1  0  0  0  0
 12  4  1  6  0  0  0
 12 13  1  0  0  0  0
 13  1  1  1  0  0  0
 14  1  1  1  0  0  0
 14  3  1  0  0  0  0
 15 21  1  0  0  0  0
 16 22  1  1  0  0  0
 16 18  1  0  0  0  0
 17 20  1  6  0  0  0
 17 16  1  0  0  0  0
 17 15  1  0  0  0  0
 18  6  1  0  0  0  0
 18 21  1  1  0  0  0
 19 17  1  0  0  0  0
 20 19  1  0  0  0  0
 23 22  1  0  0  0  0
 24 23  1  0  0  0  0
 25 26  2  0  0  0  0
 27 28  2  0  0  0  0
M  END
>  <MODEL>
1

>  <REMARK>
 VINA RESULT:      -6.0      0.000      0.000
  Name = 
  5 active torsions:
  status: ('A' for Active; 'I' for Inactive)
    1  A    between atoms: C_3  and  C_7
    2  A    between atoms: C_9  and  C_18
    3  A    between atoms: C_10  and  C_13
    4  A    between atoms: C_11  and  S_22
    5  A    between atoms: C_14  and  C_18
                            x       y       z     vdW  Elec       q    Type
                         _______ _______ _______ _____ _____    ______ ____

>  <TORSDO>
F 5

$$$$
=
 OpenBabel11052423033D

 28 32  0  0  1  0  0  0  0  0999 V2000
  160.5570  211.7600  155.3330 C   0  0  0  0  0  2  0  0  0  0  0  0
  159.7310  214.2770  156.4880 C   0  0  0  0  0  1  0  0  0  0  0  0
  158.6280  213.3570  155.9670 C   0  0  1  0  0  0  0  0  0  0  0  0
  161.6530  208.9130  154.6090 C   0  0  0  0  0  2  0  0  0  0  0  0
  158.3370  214.2280  153.7240 C   0  0  0  0  0  2  0  0  0  0  0  0
  158.6370  212.0650  152.4800 C   0  0  2  0  0  3  0  0  0  0  0  0
  157.6980  214.2200  155.1040 C   0  0  1  0  0  3  0  0  0  0  0  0
  160.1830  210.1150  153.0110 C   0  0  0  0  0  2  0  0  0  0  0  0
  159.1900  212.9680  153.6060 C   0  0  2  0  0  3  0  0  0  0  0  0
  161.8010  209.7500  155.7300 O   0  0  0  0  0  0  0  0  0  0  0  0
  158.7480  210.5580  152.7650 C   0  0  0  0  0  2  0  0  0  0  0  0
  160.2480  209.3760  154.3440 C   0  0  2  0  0  3  0  0  0  0  0  0
  160.4990  210.2480  155.5670 C   0  0  2  0  0  3  0  0  0  0  0  0
  159.1770  212.3150  154.9870 C   0  0  1  0  0  3  0  0  0  0  0  0
  160.4920  214.0180  149.7520 C   0  0  0  0  0  2  0  0  0  0  0  0
  158.2470  212.9320  150.0580 C   0  0  1  0  0  3  0  0  0  0  0  0
  159.1310  213.7630  149.1580 C   0  0  2  0  0  0  0  0  0  0  0  0
  159.2430  212.4020  151.1030 C   0  0  1  0  0  3  0  0  0  0  0  0
  159.2610  213.1460  147.9010 O   0  0  0  0  0  0  0  0  0  0  0  0
  158.6590  214.4190  147.9200 C   0  0  0  0  0  2  0  0  0  0  0  0
  160.4060  213.3980  151.1400 C   0  0  0  0  0  2  0  0  0  0  0  0
  157.0900  213.7670  150.6340 C   0  0  0  0  0  2  0  0  0  0  0  0
  155.8510  213.7840  149.7460 C   0  0  0  0  0  2  0  0  0  0  0  0
  154.6610  214.2610  150.5490 C   0  0  0  0  0  1  0  0  0  0  0  0
  155.4170  214.4530  153.8240 O   0  0  0  0  0  0  0  0  0  0  0  0
  156.0080  213.5860  154.9280 S   0  0  0  0  0  3  0  0  0  0  0  0
  157.9750  212.7240  157.1740 C   0  0  0  0  0  3  0  0  0  0  0  0
  157.2540  211.6020  157.1220 C   0  0  0  0  0  2  0  0  0  0  0  0
  3  2  1  1  0  0  0
  3 27  1  0  0  0  0
  4 10  1  0  0  0  0
  5  7  1  0  0  0  0
  6 11  1  1  0  0  0
  6  9  1  0  0  0  0
  7 26  1  6  0  0  0
  7  3  1  0  0  0  0
  9  5  1  1  0  0  0
  9 14  1  0  0  0  0
 11  8  1  0  0  0  0
 12  8  1  6  0  0  0
 12  4  1  0  0  0  0
 12 13  1  0  0  0  0
 13  1  1  6  0  0  0
 13 10  1  0  0  0  0
 14  1  1  1  0  0  0
 14  3  1  0  0  0  0
 15 21  1  0  0  0  0
 16 22  1  1  0  0  0
 16 18  1  0  0  0  0
 17 20  1  6  0  0  0
 17 15  1  0  0  0  0
 17 16  1  0  0  0  0
 18 21  1  1  0  0  0
 18  6  1  0  0  0  0
 19 20  1  0  0  0  0
 19 17  1  0  0  0  0
 23 24  1  0  0  0  0
 23 22  1  0  0  0  0
 25 26  2  0  0  0  0
 28 27  2  0  0  0  0
M  END
>  <MODEL>
2

>  <REMARK>
 VINA RESULT:      -4.5      3.259      6.198
  Name = 
  5 active torsions:
  status: ('A' for Active; 'I' for Inactive)
    1  A    between atoms: C_3  and  C_7
    2  A    between atoms: C_9  and  C_18
    3  A    between atoms: C_10  and  C_13
    4  A    between atoms: C_11  and  S_22
    5  A    between atoms: C_14  and  C_18
                            x       y       z     vdW  Elec       q    Type
                         _______ _______ _______ _____ _____    ______ ____

>  <TORSDO>
F 5

$$$$
=
 OpenBabel11052423033D

 28 32  0  0  1  0  0  0  0  0999 V2000
  159.5510  211.9140  151.0100 C   0  0  0  0  0  2  0  0  0  0  0  0
  157.7890  211.7680  153.2970 C   0  0  0  0  0  1  0  0  0  0  0  0
  159.2810  211.9300  153.5800 C   0  0  1  0  0  0  0  0  0  0  0  0
  161.1730  212.5560  148.4060 C   0  0  0  0  0  2  0  0  0  0  0  0
  159.9390  209.6150  153.8700 C   0  0  0  0  0  2  0  0  0  0  0  0
  161.8070  209.5820  152.1890 C   0  0  2  0  0  3  0  0  0  0  0  0
  159.6490  210.8890  154.6470 C   0  0  1  0  0  3  0  0  0  0  0  0
  161.9730  210.7920  149.9580 C   0  0  0  0  0  2  0  0  0  0  0  0
  160.3510  210.0230  152.4580 C   0  0  2  0  0  3  0  0  0  0  0  0
  159.9930  213.0810  148.9650 O   0  0  0  0  0  0  0  0  0  0  0  0
  162.6140  210.5590  151.3180 C   0  0  0  0  0  2  0  0  0  0  0  0
  161.7920  212.2930  149.7500 C   0  0  2  0  0  3  0  0  0  0  0  0
  160.4820  212.8730  150.2650 C   0  0  2  0  0  3  0  0  0  0  0  0
  160.1330  211.5310  152.3700 C   0  0  1  0  0  3  0  0  0  0  0  0
  160.7350  206.3240  150.4770 C   0  0  0  0  0  2  0  0  0  0  0  0
  161.7650  207.0230  152.6590 C   0  0  1  0  0  3  0  0  0  0  0  0
  161.2240  205.8810  151.8310 C   0  0  2  0  0  0  0  0  0  0  0  0
  161.8960  208.1510  151.6220 C   0  0  1  0  0  3  0  0  0  0  0  0
  162.1990  204.8790  151.6900 O   0  0  0  0  0  0  0  0  0  0  0  0
  161.0120  204.5150  152.3550 C   0  0  0  0  0  2  0  0  0  0  0  0
  160.8890  207.8380  150.5100 C   0  0  0  0  0  2  0  0  0  0  0  0
  160.8430  207.3420  153.8480 C   0  0  0  0  0  2  0  0  0  0  0  0
  161.2380  206.6260  155.1340 C   0  0  0  0  0  2  0  0  0  0  0  0
  160.2580  206.9800  156.2310 C   0  0  0  0  0  1  0  0  0  0  0  0
  161.9070  209.9820  155.6320 O   0  0  0  0  0  0  0  0  0  0  0  0
  161.1210  211.2860  155.6300 S   0  0  0  0  0  3  0  0  0  0  0  0
  159.4980  213.3680  153.9890 C   0  0  0  0  0  3  0  0  0  0  0  0
  158.5800  214.3260  153.8420 C   0  0  0  0  0  2  0  0  0  0  0  0
  3  2  1  6  0  0  0
  3 27  1  0  0  0  0
  3  7  1  0  0  0  0
  4 10  1  0  0  0  0
  5  7  1  0  0  0  0
  6 11  1  6  0  0  0
  6  9  1  0  0  0  0
  7 26  1  6  0  0  0
  8 11  1  0  0  0  0
  9  5  1  1  0  0  0
 10 13  1  0  0  0  0
 12  4  1  6  0  0  0
 12  8  1  0  0  0  0
 12 13  1  0  0  0  0
 13  1  1  1  0  0  0
 14  1  1  6  0  0  0
 14  9  1  0  0  0  0
 14  3  1  0  0  0  0
 15 21  1  0  0  0  0
 16 22  1  1  0  0  0
 17 15  1  6  0  0  0
 17 20  1  0  0  0  0
 17 16  1  0  0  0  0
 18 21  1  6  0  0  0
 18  6  1  0  0  0  0
 18 16  1  0  0  0  0
 19 17  1  0  0  0  0
 19 20  1  0  0  0  0
 22 23  1  0  0  0  0
 23 24  1  0  0  0  0
 26 25  2  0  0  0  0
 28 27  2  0  0  0  0
M  END
>  <MODEL>
3

>  <REMARK>
 VINA RESULT:      -4.2      1.838      3.323
  Name = 
  5 active torsions:
  status: ('A' for Active; 'I' for Inactive)
    1  A    between atoms: C_3  and  C_7
    2  A    between atoms: C_9  and  C_18
    3  A    between atoms: C_10  and  C_13
    4  A    between atoms: C_11  and  S_22
    5  A    between atoms: C_14  and  C_18
                            x       y       z     vdW  Elec       q    Type
                         _______ _______ _______ _____ _____    ______ ____

>  <TORSDO>
F 5

$$$$
=
 OpenBabel11052423033D

 28 32  0  0  1  0  0  0  0  0999 V2000
  161.2280  211.7130  155.5940 C   0  0  0  0  0  2  0  0  0  0  0  0
  159.3230  213.4590  154.3000 C   0  0  0  0  0  1  0  0  0  0  0  0
  158.7610  212.3960  155.2410 C   0  0  1  0  0  0  0  0  0  0  0  0
  163.4880  210.3020  157.2460 C   0  0  0  0  0  2  0  0  0  0  0  0
  158.2770  210.6140  153.6710 C   0  0  0  0  0  2  0  0  0  0  0  0
  159.5620  208.7880  154.8250 C   0  0  2  0  0  3  0  0  0  0  0  0
  157.6110  211.7030  154.4970 C   0  0  1  0  0  3  0  0  0  0  0  0
  161.7560  208.9390  156.1050 C   0  0  0  0  0  2  0  0  0  0  0  0
  159.5950  210.2600  154.3560 C   0  0  2  0  0  3  0  0  0  0  0  0
  163.1850  211.6490  156.9750 O   0  0  0  0  0  0  0  0  0  0  0  0
  160.2910  208.5320  156.1550 C   0  0  0  0  0  2  0  0  0  0  0  0
  162.0420  209.8920  157.2610 C   0  0  2  0  0  3  0  0  0  0  0  0
  161.8090  211.3680  156.9670 C   0  0  2  0  0  3  0  0  0  0  0  0
  159.7700  211.2690  155.4880 C   0  0  1  0  0  3  0  0  0  0  0  0
  161.7450  206.1650  153.0780 C   0  0  0  0  0  2  0  0  0  0  0  0
  160.8370  208.4550  152.5820 C   0  0  1  0  0  3  0  0  0  0  0  0
  161.7150  207.3200  152.1100 C   0  0  2  0  0  0  0  0  0  0  0  0
  160.0570  207.8110  153.7400 C   0  0  1  0  0  3  0  0  0  0  0  0
  161.2980  206.8770  150.8430 O   0  0  0  0  0  0  0  0  0  0  0  0
  162.6020  207.4010  150.9300 C   0  0  0  0  0  2  0  0  0  0  0  0
  160.9220  206.6590  154.2600 C   0  0  0  0  0  2  0  0  0  0  0  0
  161.6730  209.6870  152.9720 C   0  0  0  0  0  2  0  0  0  0  0  0
  162.2750  210.4160  151.7770 C   0  0  0  0  0  2  0  0  0  0  0  0
  161.1830  211.1540  151.0340 C   0  0  0  0  0  1  0  0  0  0  0  0
  155.2090  210.6500  154.6180 O   0  0  0  0  0  0  0  0  0  0  0  0
  156.3740  210.9120  155.5630 S   0  0  0  0  0  3  0  0  0  0  0  0
  158.3630  213.1010  156.5170 C   0  0  0  0  0  3  0  0  0  0  0  0
  159.1320  214.0010  157.1360 C   0  0  0  0  0  2  0  0  0  0  0  0
  3  2  1  6  0  0  0
  3 14  1  0  0  0  0
  3 27  1  0  0  0  0
  4 12  1  0  0  0  0
  5  7  1  0  0  0  0
  6 11  1  1  0  0  0
  7  3  1  0  0  0  0
  7 26  1  1  0  0  0
  8 11  1  0  0  0  0
  9  5  1  1  0  0  0
  9  6  1  0  0  0  0
  9 14  1  0  0  0  0
 10  4  1  0  0  0  0
 12  8  1  6  0  0  0
 13  1  1  6  0  0  0
 13 10  1  0  0  0  0
 13 12  1  0  0  0  0
 14  1  1  6  0  0  0
 15 21  1  0  0  0  0
 16 22  1  1  0  0  0
 16 18  1  0  0  0  0
 17 20  1  6  0  0  0
 17 16  1  0  0  0  0
 17 15  1  0  0  0  0
 18 21  1  1  0  0  0
 18  6  1  0  0  0  0
 19 20  1  0  0  0  0
 19 17  1  0  0  0  0
 23 22  1  0  0  0  0
 24 23  1  0  0  0  0
 25 26  2  0  0  0  0
 27 28  2  0  0  0  0
M  END
>  <MODEL>
4

>  <REMARK>
 VINA RESULT:      -3.8      2.079      3.917
  Name = 
  5 active torsions:
  status: ('A' for Active; 'I' for Inactive)
    1  A    between atoms: C_3  and  C_7
    2  A    between atoms: C_9  and  C_18
    3  A    between atoms: C_10  and  C_13
    4  A    between atoms: C_11  and  S_22
    5  A    between atoms: C_14  and  C_18
                            x       y       z     vdW  Elec       q    Type
                         _______ _______ _______ _____ _____    ______ ____

>  <TORSDO>
F 5

$$$$
=
 OpenBabel11052423033D

 28 32  0  0  1  0  0  0  0  0999 V2000
  160.7690  212.6320  150.8300 C   0  0  0  0  0  2  0  0  0  0  0  0
  163.1600  211.5850  149.5910 C   0  0  0  0  0  1  0  0  0  0  0  0
  161.9310  210.6780  149.6030 C   0  0  1  0  0  0  0  0  0  0  0  0
  158.1940  214.1630  151.7540 C   0  0  0  0  0  2  0  0  0  0  0  0
  162.3420  209.3880  151.6140 C   0  0  0  0  0  2  0  0  0  0  0  0
  160.1470  209.8340  152.7550 C   0  0  2  0  0  3  0  0  0  0  0  0
  162.3970  209.3010  150.0970 C   0  0  1  0  0  3  0  0  0  0  0  0
  158.7380  211.9520  152.7410 C   0  0  0  0  0  2  0  0  0  0  0  0
  161.3230  210.4650  151.9750 C   0  0  2  0  0  3  0  0  0  0  0  0
  159.2080  214.4500  150.8220 O   0  0  0  0  0  0  0  0  0  0  0  0
  158.7760  210.4590  152.4490 C   0  0  0  0  0  2  0  0  0  0  0  0
  158.2560  212.6850  151.4930 C   0  0  2  0  0  3  0  0  0  0  0  0
  159.3440  213.0890  150.5070 C   0  0  2  0  0  3  0  0  0  0  0  0
  160.9120  211.1210  150.6590 C   0  0  1  0  0  3  0  0  0  0  0  0
  161.9970  210.1560  156.0980 C   0  0  0  0  0  2  0  0  0  0  0  0
  160.6810  208.4070  154.8640 C   0  0  1  0  0  3  0  0  0  0  0  0
  161.5080  208.7300  156.0860 C   0  0  2  0  0  0  0  0  0  0  0  0
  160.4000  209.7990  154.2760 C   0  0  1  0  0  3  0  0  0  0  0  0
  160.7750  208.4610  157.2550 O   0  0  0  0  0  0  0  0  0  0  0  0
  161.9570  207.7190  157.0670 C   0  0  0  0  0  2  0  0  0  0  0  0
  161.5310  210.7120  154.7600 C   0  0  0  0  0  2  0  0  0  0  0  0
  161.4250  207.4450  153.9210 C   0  0  0  0  0  2  0  0  0  0  0  0
  160.8540  206.0320  153.9190 C   0  0  0  0  0  2  0  0  0  0  0  0
  161.0960  205.3920  152.5700 C   0  0  0  0  0  1  0  0  0  0  0  0
  162.2600  207.1090  148.6580 O   0  0  0  0  0  0  0  0  0  0  0  0
  161.3530  207.9090  149.5840 S   0  0  0  0  0  3  0  0  0  0  0  0
  161.3570  210.6950  148.2050 C   0  0  0  0  0  3  0  0  0  0  0  0
  161.2250  211.8040  147.4730 C   0  0  0  0  0  2  0  0  0  0  0  0
  3  2  1  1  0  0  0
  3  7  1  0  0  0  0
  3 14  1  0  0  0  0
  6 11  1  1  0  0  0
  6 18  1  0  0  0  0
  7 26  1  6  0  0  0
  7  5  1  0  0  0  0
  9  5  1  6  0  0  0
  9  6  1  0  0  0  0
 10  4  1  0  0  0  0
 11  8  1  0  0  0  0
 12  4  1  1  0  0  0
 12  8  1  0  0  0  0
 13 10  1  0  0  0  0
 13  1  1  1  0  0  0
 13 12  1  0  0  0  0
 14  1  1  1  0  0  0
 14  9  1  0  0  0  0
 16 22  1  6  0  0  0
 16 17  1  0  0  0  0
 17 15  1  6  0  0  0
 17 20  1  0  0  0  0
 17 19  1  0  0  0  0
 18 21  1  6  0  0  0
 18 16  1  0  0  0  0
 20 19  1  0  0  0  0
 21 15  1  0  0  0  0
 23 22  1  0  0  0  0
 24 23  1  0  0  0  0
 25 26  2  0  0  0  0
 27  3  1  0  0  0  0
 28 27  2  0  0  0  0
M  END
>  <MODEL>
5

>  <REMARK>
 VINA RESULT:      -3.5      2.433      5.557
  Name = 
  5 active torsions:
  status: ('A' for Active; 'I' for Inactive)
    1  A    between atoms: C_3  and  C_7
    2  A    between atoms: C_9  and  C_18
    3  A    between atoms: C_10  and  C_13
    4  A    between atoms: C_11  and  S_22
    5  A    between atoms: C_14  and  C_18
                            x       y       z     vdW  Elec       q    Type
                         _______ _______ _______ _____ _____    ______ ____

>  <TORSDO>
F 5

$$$$
=
 OpenBabel11052423033D

 28 32  0  0  1  0  0  0  0  0999 V2000
  160.4740  207.4550  154.1510 C   0  0  0  0  0  2  0  0  0  0  0  0
  160.2370  206.8690  151.3310 C   0  0  0  0  0  1  0  0  0  0  0  0
  161.3230  207.8610  151.7450 C   0  0  1  0  0  0  0  0  0  0  0  0
  160.8640  207.5310  157.2610 C   0  0  0  0  0  2  0  0  0  0  0  0
  160.1450  209.9610  151.4630 C   0  0  0  0  0  2  0  0  0  0  0  0
  160.5480  210.8850  153.7660 C   0  0  2  0  0  3  0  0  0  0  0  0
  161.1970  209.0750  150.8140 C   0  0  1  0  0  3  0  0  0  0  0  0
  160.6530  209.6510  155.9890 C   0  0  0  0  0  2  0  0  0  0  0  0
  160.1310  209.6370  152.9550 C   0  0  2  0  0  3  0  0  0  0  0  0
  160.7790  206.4860  156.3220 O   0  0  0  0  0  0  0  0  0  0  0  0
  161.3800  210.5740  155.0210 C   0  0  0  0  0  2  0  0  0  0  0  0
  161.5500  208.4560  156.2950 C   0  0  2  0  0  3  0  0  0  0  0  0
  161.4130  207.2720  155.3460 C   0  0  2  0  0  3  0  0  0  0  0  0
  161.0580  208.4390  153.1400 C   0  0  1  0  0  3  0  0  0  0  0  0
  156.9260  212.1190  153.9950 C   0  0  0  0  0  2  0  0  0  0  0  0
  159.1390  212.9970  153.1950 C   0  0  1  0  0  3  0  0  0  0  0  0
  157.6570  213.2530  153.3240 C   0  0  2  0  0  0  0  0  0  0  0  0
  159.3480  211.7870  154.1200 C   0  0  1  0  0  3  0  0  0  0  0  0
  157.4290  214.4530  154.0190 O   0  0  0  0  0  0  0  0  0  0  0  0
  156.9610  214.3950  152.6920 C   0  0  0  0  0  2  0  0  0  0  0  0
  158.0010  211.0620  154.1980 C   0  0  0  0  0  2  0  0  0  0  0  0
  159.5450  212.7660  151.7280 C   0  0  0  0  0  2  0  0  0  0  0  0
  160.0790  214.0170  151.0410 C   0  0  0  0  0  2  0  0  0  0  0  0
  159.8870  213.8920  149.5460 C   0  0  0  0  0  1  0  0  0  0  0  0
  162.3460  211.0660  149.5450 O   0  0  0  0  0  0  0  0  0  0  0  0
  162.7100  210.0570  150.6260 S   0  0  0  0  0  3  0  0  0  0  0  0
  162.6420  207.1290  151.6660 C   0  0  0  0  0  3  0  0  0  0  0  0
  162.8100  205.8610  152.0490 C   0  0  0  0  0  2  0  0  0  0  0  0
  3  2  1  6  0  0  0
  3 14  1  0  0  0  0
  6 18  1  0  0  0  0
  6 11  1  1  0  0  0
  7 26  1  1  0  0  0
  7  5  1  0  0  0  0
  7  3  1  0  0  0  0
  9  5  1  6  0  0  0
  9 14  1  0  0  0  0
  9  6  1  0  0  0  0
 10  4  1  0  0  0  0
 11  8  1  0  0  0  0
 12  8  1  6  0  0  0
 12  4  1  0  0  0  0
 13  1  1  6  0  0  0
 13 12  1  0  0  0  0
 13 10  1  0  0  0  0
 14  1  1  1  0  0  0
 15 21  1  0  0  0  0
 16 22  1  6  0  0  0
 16 17  1  0  0  0  0
 16 18  1  0  0  0  0
 17 20  1  6  0  0  0
 17 15  1  0  0  0  0
 17 19  1  0  0  0  0
 18 21  1  6  0  0  0
 20 19  1  0  0  0  0
 23 22  1  0  0  0  0
 24 23  1  0  0  0  0
 25 26  2  0  0  0  0
 27  3  1  0  0  0  0
 27 28  2  0  0  0  0
M  END
>  <MODEL>
6

>  <REMARK>
 VINA RESULT:      -3.5      2.442      6.493
  Name = 
  5 active torsions:
  status: ('A' for Active; 'I' for Inactive)
    1  A    between atoms: C_3  and  C_7
    2  A    between atoms: C_9  and  C_18
    3  A    between atoms: C_10  and  C_13
    4  A    between atoms: C_11  and  S_22
    5  A    between atoms: C_14  and  C_18
                            x       y       z     vdW  Elec       q    Type
                         _______ _______ _______ _____ _____    ______ ____

>  <TORSDO>
F 5

$$$$
=
 OpenBabel11052423033D

 28 32  0  0  1  0  0  0  0  0999 V2000
  161.1660  209.9210  155.7480 C   0  0  0  0  0  2  0  0  0  0  0  0
  160.4640  212.7240  155.7650 C   0  0  0  0  0  1  0  0  0  0  0  0
  159.4730  211.7650  155.1090 C   0  0  1  0  0  0  0  0  0  0  0  0
  161.8970  206.9230  156.3040 C   0  0  0  0  0  2  0  0  0  0  0  0
  160.1800  211.8990  152.7940 C   0  0  0  0  0  2  0  0  0  0  0  0
  160.4990  209.4380  152.3950 C   0  0  2  0  0  3  0  0  0  0  0  0
  159.0960  212.3720  153.7500 C   0  0  1  0  0  3  0  0  0  0  0  0
  161.3560  207.6560  153.9960 C   0  0  0  0  0  2  0  0  0  0  0  0
  160.7660  210.6110  153.3660 C   0  0  2  0  0  3  0  0  0  0  0  0
  161.7840  208.0600  157.1260 O   0  0  0  0  0  0  0  0  0  0  0  0
  160.2160  208.0950  153.0880 C   0  0  0  0  0  2  0  0  0  0  0  0
  160.7960  207.3730  155.3860 C   0  0  2  0  0  3  0  0  0  0  0  0
  160.7460  208.5690  156.3290 C   0  0  2  0  0  3  0  0  0  0  0  0
  160.1340  210.4310  154.7440 C   0  0  1  0  0  3  0  0  0  0  0  0
  162.3320  209.7040  149.0390 C   0  0  0  0  0  2  0  0  0  0  0  0
  161.6870  207.9010  150.6650 C   0  0  1  0  0  3  0  0  0  0  0  0
  162.3150  208.2260  149.3300 C   0  0  2  0  0  0  0  0  0  0  0  0
  161.6130  209.2800  151.3410 C   0  0  1  0  0  3  0  0  0  0  0  0
  163.6200  207.7060  149.2670 O   0  0  0  0  0  0  0  0  0  0  0  0
  162.6960  207.2050  148.3300 C   0  0  0  0  0  2  0  0  0  0  0  0
  161.5810  210.3150  150.2120 C   0  0  0  0  0  2  0  0  0  0  0  0
  160.3320  207.1930  150.4910 C   0  0  0  0  0  2  0  0  0  0  0  0
  160.4570  205.6950  150.2380 C   0  0  0  0  0  2  0  0  0  0  0  0
  161.3980  205.0890  151.2560 C   0  0  0  0  0  1  0  0  0  0  0  0
  156.5630  212.9840  153.4280 O   0  0  0  0  0  0  0  0  0  0  0  0
  157.4970  211.8310  153.0860 S   0  0  0  0  0  3  0  0  0  0  0  0
  158.3220  211.5920  156.0730 C   0  0  0  0  0  3  0  0  0  0  0  0
  157.8790  212.5610  156.8780 C   0  0  0  0  0  2  0  0  0  0  0  0
  3  2  1  1  0  0  0
  3 27  1  0  0  0  0
  4 10  1  0  0  0  0
  5  7  1  0  0  0  0
  6 11  1  1  0  0  0
  6  9  1  0  0  0  0
  7 26  1  6  0  0  0
  7  3  1  0  0  0  0
  9  5  1  6  0  0  0
  9 14  1  0  0  0  0
 11  8  1  0  0  0  0
 12  8  1  6  0  0  0
 12  4  1  0  0  0  0
 12 13  1  0  0  0  0
 13  1  1  6  0  0  0
 13 10  1  0  0  0  0
 14  3  1  0  0  0  0
 14  1  1  1  0  0  0
 15 17  1  0  0  0  0
 15 21  1  0  0  0  0
 16 22  1  6  0  0  0
 16 18  1  0  0  0  0
 17 20  1  6  0  0  0
 17 16  1  0  0  0  0
 18 21  1  6  0  0  0
 18  6  1  0  0  0  0
 19 17  1  0  0  0  0
 20 19  1  0  0  0  0
 23 22  1  0  0  0  0
 23 24  1  0  0  0  0
 26 25  2  0  0  0  0
 27 28  2  0  0  0  0
M  END
>  <MODEL>
7

>  <REMARK>
 VINA RESULT:      -3.3      2.051      4.361
  Name = 
  5 active torsions:
  status: ('A' for Active; 'I' for Inactive)
    1  A    between atoms: C_3  and  C_7
    2  A    between atoms: C_9  and  C_18
    3  A    between atoms: C_10  and  C_13
    4  A    between atoms: C_11  and  S_22
    5  A    between atoms: C_14  and  C_18
                            x       y       z     vdW  Elec       q    Type
                         _______ _______ _______ _____ _____    ______ ____

>  <TORSDO>
F 5

$$$$
