=
 OpenBabel11052423063D

 27 31  0  0  1  0  0  0  0  0999 V2000
  160.4370  209.7500  151.7810 C   0  0  0  0  0  2  0  0  0  0  0  0
  160.7610  207.2480  151.7020 N   0  0  0  0  0  0  0  0  0  0  0  0
  162.7930  207.9210  150.0790 S   0  0  0  0  0  0  0  0  0  0  0  0
  160.8340  203.0410  149.8200 C   0  0  0  0  0  3  0  0  0  0  0  0
  161.4070  203.1090  147.5010 F   0  0  0  0  0  0  0  0  0  0  0  0
  160.5150  205.9440  152.1620 N   0  0  0  0  0  2  0  0  0  0  0  0
  161.2500  208.5480  156.6140 N   0  0  0  0  0  2  0  0  0  0  0  0
  161.3070  205.1670  148.7180 C   0  0  0  0  0  0  0  0  0  0  0  0
  160.6980  208.4270  153.8500 C   0  0  0  0  0  0  0  0  0  0  0  0
  161.6710  211.5520  148.6420 C   0  0  2  0  0  3  0  0  0  0  0  0
  160.9340  207.1550  154.6250 C   0  0  0  0  0  2  0  0  0  0  0  0
  161.6350  205.8790  147.6100 F   0  0  0  0  0  0  0  0  0  0  0  0
  160.8680  211.6750  147.3650 C   0  0  0  0  0  1  0  0  0  0  0  0
  161.0790  205.8050  149.9390 C   0  0  0  0  0  0  0  0  0  0  0  0
  160.6130  208.4400  152.5010 C   0  0  0  0  0  0  0  0  0  0  0  0
  161.1880  203.7670  148.6650 C   0  0  0  0  0  0  0  0  0  0  0  0
  160.5970  203.7050  151.0370 C   0  0  0  0  0  3  0  0  0  0  0  0
  161.7720  210.3050  151.2870 C   0  0  2  0  0  3  0  0  0  0  0  0
  161.1110  207.2590  150.2750 C   0  0  1  0  0  3  0  0  0  0  0  0
  162.0620  210.1680  148.8470 N   0  0  0  0  0  0  0  0  0  0  0  0
  160.7280  205.0910  151.0570 C   0  0  0  0  0  0  0  0  0  0  0  0
  160.8750  212.1090  149.8150 C   0  0  0  0  0  2  0  0  0  0  0  0
  161.7950  207.4250  155.8570 C   0  0  0  0  0  2  0  0  0  0  0  0
  161.6420  211.8140  151.0950 C   0  0  0  0  0  2  0  0  0  0  0  0
  160.7370  209.7040  155.9430 C   0  0  0  0  0  3  0  0  0  0  0  0
  162.1970  209.6120  150.0050 C   0  0  0  0  0  0  0  0  0  0  0  0
  160.4990  209.6720  154.6300 C   0  0  0  0  0  3  0  0  0  0  0  0
  1 15  1  0  0  0  0
  2  6  1  0  0  0  0
  2 15  1  0  0  0  0
  3 19  1  0  0  0  0
  4 17  1  0  0  0  0
  5 16  1  0  0  0  0
  8 14  2  0  0  0  0
  9 11  1  0  0  0  0
  9 27  1  0  0  0  0
 10 13  1  6  0  0  0
 10 20  1  0  0  0  0
 10 22  1  0  0  0  0
 11 23  1  0  0  0  0
 12  8  1  0  0  0  0
 14 21  1  0  0  0  0
 15  9  2  0  0  0  0
 16  8  1  0  0  0  0
 16  4  2  0  0  0  0
 17 21  2  0  0  0  0
 18 24  1  6  0  0  0
 18  1  1  0  0  0  0
 19 14  1  1  0  0  0
 19  2  1  0  0  0  0
 20 26  2  0  0  0  0
 21  6  1  0  0  0  0
 22 24  1  0  0  0  0
 23  7  1  0  0  0  0
 25  7  1  0  0  0  0
 26  3  1  0  0  0  0
 26 18  1  0  0  0  0
 27 25  2  0  0  0  0
M  END
>  <MODEL>
1

>  <REMARK>
 VINA RESULT:      -6.3      0.000      0.000
  Name = 
  0 active torsions:
  status: ('A' for Active; 'I' for Inactive)
                            x       y       z     vdW  Elec       q    Type
                         _______ _______ _______ _____ _____    ______ ____

>  <TORSDO>
F 0

$$$$
=
 OpenBabel11052423063D

 27 31  0  0  1  0  0  0  0  0999 V2000
  159.5080  212.0990  151.6480 C   0  0  0  0  0  2  0  0  0  0  0  0
  160.2600  209.9990  152.8290 N   0  0  0  0  0  0  0  0  0  0  0  0
  162.4260  210.3280  151.2760 S   0  0  0  0  0  0  0  0  0  0  0  0
  161.4130  205.5560  153.2550 C   0  0  0  0  0  3  0  0  0  0  0  0
  162.4100  204.6970  151.2600 F   0  0  0  0  0  0  0  0  0  0  0  0
  160.1540  209.0320  153.8420 N   0  0  0  0  0  2  0  0  0  0  0  0
  159.5490  213.4700  156.5030 N   0  0  0  0  0  2  0  0  0  0  0  0
  161.7260  206.9890  151.3030 C   0  0  0  0  0  0  0  0  0  0  0  0
  159.5780  211.9730  154.1130 C   0  0  0  0  0  0  0  0  0  0  0  0
  161.0090  212.5100  148.1550 C   0  0  2  0  0  3  0  0  0  0  0  0
  159.8710  211.2940  155.4280 C   0  0  0  0  0  2  0  0  0  0  0  0
  162.1380  207.1730  150.0240 F   0  0  0  0  0  0  0  0  0  0  0  0
  160.4620  211.8380  146.9130 C   0  0  0  0  0  1  0  0  0  0  0  0
  161.1580  208.0370  152.0310 C   0  0  0  0  0  0  0  0  0  0  0  0
  159.7590  211.3480  152.9280 C   0  0  0  0  0  0  0  0  0  0  0  0
  161.8580  205.7370  151.9300 C   0  0  0  0  0  0  0  0  0  0  0  0
  160.8330  206.6220  153.9660 C   0  0  0  0  0  3  0  0  0  0  0  0
  160.8000  212.6720  151.0690 C   0  0  2  0  0  3  0  0  0  0  0  0
  160.8760  209.4430  151.6170 C   0  0  1  0  0  3  0  0  0  0  0  0
  161.5810  211.5130  149.0430 N   0  0  0  0  0  0  0  0  0  0  0  0
  160.7210  207.8510  153.3190 C   0  0  0  0  0  0  0  0  0  0  0  0
  159.9160  213.3280  148.8300 C   0  0  0  0  0  2  0  0  0  0  0  0
  160.4140  212.2960  156.4430 C   0  0  0  0  0  2  0  0  0  0  0  0
  160.4560  213.8460  150.1540 C   0  0  0  0  0  2  0  0  0  0  0  0
  158.9900  214.0300  155.3100 C   0  0  0  0  0  3  0  0  0  0  0  0
  161.5790  211.5980  150.3330 C   0  0  0  0  0  0  0  0  0  0  0  0
  159.0220  213.3460  154.1650 C   0  0  0  0  0  3  0  0  0  0  0  0
  1 15  1  0  0  0  0
  2 15  1  0  0  0  0
  2  6  1  0  0  0  0
  4 17  1  0  0  0  0
  5 16  1  0  0  0  0
  8 16  1  0  0  0  0
  8 14  2  0  0  0  0
  9 27  1  0  0  0  0
  9 11  1  0  0  0  0
 10 13  1  6  0  0  0
 10 22  1  0  0  0  0
 10 20  1  0  0  0  0
 11 23  1  0  0  0  0
 12  8  1  0  0  0  0
 14 21  1  0  0  0  0
 15  9  2  0  0  0  0
 16  4  2  0  0  0  0
 18 24  1  6  0  0  0
 18  1  1  0  0  0  0
 19  3  1  1  0  0  0
 19 14  1  0  0  0  0
 19  2  1  0  0  0  0
 20 26  2  0  0  0  0
 21  6  1  0  0  0  0
 21 17  2  0  0  0  0
 22 24  1  0  0  0  0
 23  7  1  0  0  0  0
 25  7  1  0  0  0  0
 26 18  1  0  0  0  0
 26  3  1  0  0  0  0
 27 25  2  0  0  0  0
M  END
>  <MODEL>
2

>  <REMARK>
 VINA RESULT:      -5.6      2.451      3.380
  Name = 
  0 active torsions:
  status: ('A' for Active; 'I' for Inactive)
                            x       y       z     vdW  Elec       q    Type
                         _______ _______ _______ _____ _____    ______ ____

>  <TORSDO>
F 0

$$$$
=
 OpenBabel11052423063D

 27 31  0  0  1  0  0  0  0  0999 V2000
  159.2290  213.1530  154.8690 C   0  0  0  0  0  2  0  0  0  0  0  0
  158.8960  213.3620  152.3760 N   0  0  0  0  0  0  0  0  0  0  0  0
  159.6430  210.7820  152.4190 S   0  0  0  0  0  0  0  0  0  0  0  0
  160.1160  213.4960  147.9330 C   0  0  0  0  0  3  0  0  0  0  0  0
  162.0100  212.1090  147.4840 F   0  0  0  0  0  0  0  0  0  0  0  0
  158.4300  214.0310  151.2320 N   0  0  0  0  0  2  0  0  0  0  0  0
  154.3700  214.4530  154.4690 N   0  0  0  0  0  2  0  0  0  0  0  0
  161.1690  212.2100  149.7220 C   0  0  0  0  0  0  0  0  0  0  0  0
  157.0940  213.9600  153.9270 C   0  0  0  0  0  0  0  0  0  0  0  0
  161.8000  210.4970  155.8510 C   0  0  2  0  0  3  0  0  0  0  0  0
  156.1540  214.3020  152.7980 C   0  0  0  0  0  2  0  0  0  0  0  0
  162.1260  211.3550  150.1590 F   0  0  0  0  0  0  0  0  0  0  0  0
  163.2960  210.7270  155.8580 C   0  0  0  0  0  1  0  0  0  0  0  0
  160.2170  212.7310  150.6010 C   0  0  0  0  0  0  0  0  0  0  0  0
  158.3590  213.5370  153.7030 C   0  0  0  0  0  0  0  0  0  0  0  0
  161.1090  212.5960  148.3710 C   0  0  0  0  0  0  0  0  0  0  0  0
  159.1760  214.0180  148.8380 C   0  0  0  0  0  3  0  0  0  0  0  0
  159.2110  211.6450  155.1130 C   0  0  2  0  0  3  0  0  0  0  0  0
  160.0580  212.5170  152.0700 C   0  0  1  0  0  3  0  0  0  0  0  0
  161.3050  210.5120  154.4860 N   0  0  0  0  0  0  0  0  0  0  0  0
  159.2580  213.6120  150.1680 C   0  0  0  0  0  0  0  0  0  0  0  0
  161.1080  211.5310  156.7300 C   0  0  0  0  0  2  0  0  0  0  0  0
  154.7200  213.9200  153.1560 C   0  0  0  0  0  2  0  0  0  0  0  0
  159.6050  211.3710  156.5620 C   0  0  0  0  0  2  0  0  0  0  0  0
  155.3130  214.4240  155.5460 C   0  0  0  0  0  3  0  0  0  0  0  0
  160.1340  210.9350  154.1390 C   0  0  0  0  0  0  0  0  0  0  0  0
  156.6000  214.1630  155.3090 C   0  0  0  0  0  3  0  0  0  0  0  0
  2 15  1  0  0  0  0
  3 26  1  0  0  0  0
  4 16  2  0  0  0  0
  4 17  1  0  0  0  0
  5 16  1  0  0  0  0
  6  2  1  0  0  0  0
  7 25  1  0  0  0  0
  8 12  1  0  0  0  0
  8 14  2  0  0  0  0
  9 27  1  0  0  0  0
 10 13  1  6  0  0  0
 10 22  1  0  0  0  0
 11 23  1  0  0  0  0
 11  9  1  0  0  0  0
 15  9  2  0  0  0  0
 15  1  1  0  0  0  0
 16  8  1  0  0  0  0
 17 21  2  0  0  0  0
 18  1  1  6  0  0  0
 18 24  1  0  0  0  0
 19 14  1  6  0  0  0
 19  2  1  0  0  0  0
 19  3  1  0  0  0  0
 20 10  1  0  0  0  0
 21 14  1  0  0  0  0
 21  6  1  0  0  0  0
 23  7  1  0  0  0  0
 24 22  1  0  0  0  0
 26 20  2  0  0  0  0
 26 18  1  0  0  0  0
 27 25  2  0  0  0  0
M  END
>  <MODEL>
3

>  <REMARK>
 VINA RESULT:      -4.7      4.976      7.475
  Name = 
  0 active torsions:
  status: ('A' for Active; 'I' for Inactive)
                            x       y       z     vdW  Elec       q    Type
                         _______ _______ _______ _____ _____    ______ ____

>  <TORSDO>
F 0

$$$$
=
 OpenBabel11052423063D

 27 31  0  0  1  0  0  0  0  0999 V2000
  160.0370  210.2240  152.3790 C   0  0  0  0  0  2  0  0  0  0  0  0
  158.5320  212.1840  152.8940 N   0  0  0  0  0  0  0  0  0  0  0  0
  159.7190  212.0060  155.2970 S   0  0  0  0  0  0  0  0  0  0  0  0
  155.0720  214.4530  154.9250 C   0  0  0  0  0  3  0  0  0  0  0  0
  154.6590  213.6560  157.1400 F   0  0  0  0  0  0  0  0  0  0  0  0
  157.6600  213.2180  152.5180 N   0  0  0  0  0  2  0  0  0  0  0  0
  161.4810  213.6890  149.0090 N   0  0  0  0  0  2  0  0  0  0  0  0
  156.4160  212.6460  155.8680 C   0  0  0  0  0  0  0  0  0  0  0  0
  160.0550  212.2530  150.9740 C   0  0  0  0  0  0  0  0  0  0  0  0
  160.9250  208.1300  155.4540 C   0  0  2  0  0  3  0  0  0  0  0  0
  159.6280  213.6530  150.6080 C   0  0  0  0  0  2  0  0  0  0  0  0
  156.7110  211.7970  156.8830 F   0  0  0  0  0  0  0  0  0  0  0  0
  160.0320  207.0540  156.0330 C   0  0  0  0  0  1  0  0  0  0  0  0
  157.1350  212.6110  154.6710 C   0  0  0  0  0  0  0  0  0  0  0  0
  159.5260  211.5950  152.0300 C   0  0  0  0  0  0  0  0  0  0  0  0
  155.3770  213.5850  155.9930 C   0  0  0  0  0  0  0  0  0  0  0  0
  155.8010  214.3920  153.7240 C   0  0  0  0  0  3  0  0  0  0  0  0
  161.0970  210.2810  153.4780 C   0  0  2  0  0  3  0  0  0  0  0  0
  158.2560  211.7150  154.2580 C   0  0  1  0  0  3  0  0  0  0  0  0
  160.3190  209.4340  155.6540 N   0  0  0  0  0  0  0  0  0  0  0  0
  156.8280  213.4540  153.6340 C   0  0  0  0  0  0  0  0  0  0  0  0
  161.2060  207.8410  153.9850 C   0  0  0  0  0  2  0  0  0  0  0  0
  160.8070  214.4510  150.0560 C   0  0  0  0  0  2  0  0  0  0  0  0
  161.9610  209.0250  153.4010 C   0  0  0  0  0  2  0  0  0  0  0  0
  161.6890  212.2790  149.1460 C   0  0  0  0  0  3  0  0  0  0  0  0
  160.4470  210.4310  154.8410 C   0  0  0  0  0  0  0  0  0  0  0  0
  161.0440  211.5920  150.0900 C   0  0  0  0  0  3  0  0  0  0  0  0
  2 19  1  0  0  0  0
  4 16  1  0  0  0  0
  6  2  1  0  0  0  0
  6 21  1  0  0  0  0
  7 25  1  0  0  0  0
  7 23  1  0  0  0  0
  8 16  2  0  0  0  0
  8 12  1  0  0  0  0
  9 15  2  0  0  0  0
 10 20  1  0  0  0  0
 10 13  1  6  0  0  0
 11  9  1  0  0  0  0
 14  8  1  0  0  0  0
 15  1  1  0  0  0  0
 15  2  1  0  0  0  0
 16  5  1  0  0  0  0
 17  4  2  0  0  0  0
 18  1  1  6  0  0  0
 18 26  1  0  0  0  0
 19 14  1  1  0  0  0
 19  3  1  0  0  0  0
 21 17  1  0  0  0  0
 21 14  2  0  0  0  0
 22 10  1  0  0  0  0
 23 11  1  0  0  0  0
 24 18  1  0  0  0  0
 24 22  1  0  0  0  0
 25 27  2  0  0  0  0
 26  3  1  0  0  0  0
 26 20  2  0  0  0  0
 27  9  1  0  0  0  0
M  END
>  <MODEL>
4

>  <REMARK>
 VINA RESULT:      -4.3      5.239      8.688
  Name = 
  0 active torsions:
  status: ('A' for Active; 'I' for Inactive)
                            x       y       z     vdW  Elec       q    Type
                         _______ _______ _______ _____ _____    ______ ____

>  <TORSDO>
F 0

$$$$
=
 OpenBabel11052423063D

 27 31  0  0  1  0  0  0  0  0999 V2000
  158.1150  211.5620  153.5930 C   0  0  0  0  0  2  0  0  0  0  0  0
  160.0820  211.6270  152.0120 N   0  0  0  0  0  0  0  0  0  0  0  0
  159.5070  214.2510  151.9730 S   0  0  0  0  0  0  0  0  0  0  0  0
  162.2780  212.1900  147.9990 C   0  0  0  0  0  3  0  0  0  0  0  0
  161.2190  213.8340  146.6240 F   0  0  0  0  0  0  0  0  0  0  0  0
  161.2110  211.0570  151.4030 N   0  0  0  0  0  2  0  0  0  0  0  0
  161.9010  209.7650  156.4030 N   0  0  0  0  0  2  0  0  0  0  0  0
  160.2770  213.3570  148.7710 C   0  0  0  0  0  0  0  0  0  0  0  0
  160.3100  210.6350  154.2420 C   0  0  0  0  0  0  0  0  0  0  0  0
  155.5740  214.3550  152.9890 C   0  0  2  0  0  3  0  0  0  0  0  0
  161.7700  210.3290  154.0240 C   0  0  0  0  0  2  0  0  0  0  0  0
  159.2810  214.2570  148.5740 F   0  0  0  0  0  0  0  0  0  0  0  0
  154.4910  214.3020  151.9340 C   0  0  0  0  0  1  0  0  0  0  0  0
  160.3560  212.6240  149.9570 C   0  0  0  0  0  0  0  0  0  0  0  0
  159.5510  211.2270  153.2930 C   0  0  0  0  0  0  0  0  0  0  0  0
  161.2560  213.1380  147.7860 C   0  0  0  0  0  0  0  0  0  0  0  0
  162.3310  211.4530  149.1950 C   0  0  0  0  0  3  0  0  0  0  0  0
  157.9560  213.0150  154.0350 C   0  0  2  0  0  3  0  0  0  0  0  0
  159.4530  212.6330  151.1460 C   0  0  1  0  0  3  0  0  0  0  0  0
  156.8760  214.4530  152.3540 N   0  0  0  0  0  0  0  0  0  0  0  0
  161.3490  211.6980  150.1530 C   0  0  0  0  0  0  0  0  0  0  0  0
  155.4680  213.1470  153.9100 C   0  0  0  0  0  2  0  0  0  0  0  0
  162.5570  210.4950  155.3220 C   0  0  0  0  0  2  0  0  0  0  0  0
  156.6680  213.1500  154.8440 C   0  0  0  0  0  2  0  0  0  0  0  0
  160.4750  209.7690  156.5300 C   0  0  0  0  0  3  0  0  0  0  0  0
  157.9630  213.9430  152.8340 C   0  0  0  0  0  0  0  0  0  0  0  0
  159.7100  210.2050  155.5280 C   0  0  0  0  0  3  0  0  0  0  0  0
  2 15  1  0  0  0  0
  3 26  1  0  0  0  0
  4 17  1  0  0  0  0
  5 16  1  0  0  0  0
  6  2  1  0  0  0  0
  7 25  1  0  0  0  0
  8 14  2  0  0  0  0
  9 27  1  0  0  0  0
 10 13  1  6  0  0  0
 10 22  1  0  0  0  0
 11  9  1  0  0  0  0
 11 23  1  0  0  0  0
 12  8  1  0  0  0  0
 14 21  1  0  0  0  0
 15  1  1  0  0  0  0
 15  9  2  0  0  0  0
 16  4  2  0  0  0  0
 16  8  1  0  0  0  0
 17 21  2  0  0  0  0
 18  1  1  6  0  0  0
 18 24  1  0  0  0  0
 19 14  1  6  0  0  0
 19  3  1  0  0  0  0
 19  2  1  0  0  0  0
 20 26  2  0  0  0  0
 20 10  1  0  0  0  0
 21  6  1  0  0  0  0
 22 24  1  0  0  0  0
 23  7  1  0  0  0  0
 26 18  1  0  0  0  0
 27 25  2  0  0  0  0
M  END
>  <MODEL>
5

>  <REMARK>
 VINA RESULT:      -4.3      4.923      6.482
  Name = 
  0 active torsions:
  status: ('A' for Active; 'I' for Inactive)
                            x       y       z     vdW  Elec       q    Type
                         _______ _______ _______ _____ _____    ______ ____

>  <TORSDO>
F 0

$$$$
=
 OpenBabel11052423063D

 27 31  0  0  1  0  0  0  0  0999 V2000
  160.3290  211.7030  141.6380 C   0  0  0  0  0  2  0  0  0  0  0  0
  158.9190  212.2050  139.6060 N   0  0  0  0  0  0  0  0  0  0  0  0
  158.2670  214.3820  141.0380 S   0  0  0  0  0  0  0  0  0  0  0  0
  155.0490  212.8150  137.1780 C   0  0  0  0  0  3  0  0  0  0  0  0
  153.2760  213.6840  138.5250 F   0  0  0  0  0  0  0  0  0  0  0  0
  158.5320  211.9920  138.2730 N   0  0  0  0  0  2  0  0  0  0  0  0
  163.7300  211.9510  137.9180 N   0  0  0  0  0  2  0  0  0  0  0  0
  155.4020  213.2830  139.5480 C   0  0  0  0  0  0  0  0  0  0  0  0
  161.3220  211.7780  139.3780 C   0  0  0  0  0  0  0  0  0  0  0  0
  158.9490  213.2130  144.8690 C   0  0  2  0  0  3  0  0  0  0  0  0
  161.2820  211.9970  137.8860 C   0  0  0  0  0  2  0  0  0  0  0  0
  154.9410  213.7030  140.7530 F   0  0  0  0  0  0  0  0  0  0  0  0
  157.8550  212.5780  145.7010 C   0  0  0  0  0  1  0  0  0  0  0  0
  156.7210  212.8520  139.3950 C   0  0  0  0  0  0  0  0  0  0  0  0
  160.2140  211.8720  140.1470 C   0  0  0  0  0  0  0  0  0  0  0  0
  154.5610  213.2680  138.4210 C   0  0  0  0  0  0  0  0  0  0  0  0
  156.3780  212.3740  137.0490 C   0  0  0  0  0  3  0  0  0  0  0  0
  160.4320  213.0490  142.3510 C   0  0  2  0  0  3  0  0  0  0  0  0
  157.8110  212.7390  140.4090 C   0  0  1  0  0  3  0  0  0  0  0  0
  158.4040  213.6680  143.6020 N   0  0  0  0  0  0  0  0  0  0  0  0
  157.1860  212.4070  138.1830 C   0  0  0  0  0  0  0  0  0  0  0  0
  160.1010  212.2330  144.6850 C   0  0  0  0  0  2  0  0  0  0  0  0
  162.5660  212.6670  137.4040 C   0  0  0  0  0  2  0  0  0  0  0  0
  161.0960  212.8430  143.7100 C   0  0  0  0  0  2  0  0  0  0  0  0
  163.7490  211.4530  139.2610 C   0  0  0  0  0  3  0  0  0  0  0  0
  159.0610  213.6860  142.4900 C   0  0  0  0  0  0  0  0  0  0  0  0
  162.6240  211.3930  139.9740 C   0  0  0  0  0  3  0  0  0  0  0  0
  2 15  1  0  0  0  0
  2 19  1  0  0  0  0
  3 26  1  0  0  0  0
  4 16  1  0  0  0  0
  6  2  1  0  0  0  0
  7 25  1  0  0  0  0
  8 12  1  0  0  0  0
  9 27  1  0  0  0  0
  9 15  2  0  0  0  0
 10 13  1  1  0  0  0
 11  9  1  0  0  0  0
 14  8  1  0  0  0  0
 15  1  1  0  0  0  0
 16  5  1  0  0  0  0
 16  8  2  0  0  0  0
 17  4  2  0  0  0  0
 17 21  1  0  0  0  0
 18  1  1  1  0  0  0
 18 26  1  0  0  0  0
 18 24  1  0  0  0  0
 19 14  1  6  0  0  0
 19  3  1  0  0  0  0
 20 10  1  0  0  0  0
 21  6  1  0  0  0  0
 21 14  2  0  0  0  0
 22 10  1  0  0  0  0
 23 11  1  0  0  0  0
 23  7  1  0  0  0  0
 24 22  1  0  0  0  0
 25 27  2  0  0  0  0
 26 20  2  0  0  0  0
M  END
>  <MODEL>
6

>  <REMARK>
 VINA RESULT:      -3.9      9.592     13.477
  Name = 
  0 active torsions:
  status: ('A' for Active; 'I' for Inactive)
                            x       y       z     vdW  Elec       q    Type
                         _______ _______ _______ _____ _____    ______ ____

>  <TORSDO>
F 0

$$$$
=
 OpenBabel11052423063D

 27 31  0  0  1  0  0  0  0  0999 V2000
  160.7490  210.6130  141.2090 C   0  0  0  0  0  2  0  0  0  0  0  0
  158.7860  210.7050  139.6240 N   0  0  0  0  0  0  0  0  0  0  0  0
  159.5190  213.2830  139.4330 S   0  0  0  0  0  0  0  0  0  0  0  0
  154.6020  211.9280  138.1260 C   0  0  0  0  0  3  0  0  0  0  0  0
  153.9710  214.0960  138.9090 F   0  0  0  0  0  0  0  0  0  0  0  0
  157.7950  210.1050  138.8320 N   0  0  0  0  0  2  0  0  0  0  0  0
  162.0030  207.2750  137.6390 N   0  0  0  0  0  2  0  0  0  0  0  0
  156.1090  213.2270  139.5410 C   0  0  0  0  0  0  0  0  0  0  0  0
  160.5850  209.0740  139.2840 C   0  0  0  0  0  0  0  0  0  0  0  0
  161.4880  213.9500  142.9240 C   0  0  2  0  0  3  0  0  0  0  0  0
  159.9390  208.5310  138.0340 C   0  0  0  0  0  2  0  0  0  0  0  0
  156.3890  214.3420  140.2610 F   0  0  0  0  0  0  0  0  0  0  0  0
  160.7590  214.4520  144.1510 C   0  0  0  0  0  1  0  0  0  0  0  0
  157.0270  212.1780  139.4580 C   0  0  0  0  0  0  0  0  0  0  0  0
  160.0260  210.0730  140.0040 C   0  0  0  0  0  0  0  0  0  0  0  0
  154.8860  213.0970  138.8590 C   0  0  0  0  0  0  0  0  0  0  0  0
  155.5360  210.8780  138.0660 C   0  0  0  0  0  3  0  0  0  0  0  0
  161.5500  211.8690  140.8680 C   0  0  2  0  0  3  0  0  0  0  0  0
  158.3710  212.0350  140.0900 C   0  0  1  0  0  3  0  0  0  0  0  0
  160.5870  213.9400  141.7850 N   0  0  0  0  0  0  0  0  0  0  0  0
  156.7400  211.0390  138.7480 C   0  0  0  0  0  0  0  0  0  0  0  0
  162.0910  212.5790  143.1980 C   0  0  0  0  0  2  0  0  0  0  0  0
  160.9980  208.1280  137.0110 C   0  0  0  0  0  2  0  0  0  0  0  0
  162.6650  212.0410  141.8960 C   0  0  0  0  0  2  0  0  0  0  0  0
  162.4830  207.5570  138.9580 C   0  0  0  0  0  3  0  0  0  0  0  0
  160.6430  213.0840  140.8180 C   0  0  0  0  0  0  0  0  0  0  0  0
  161.8390  208.4280  139.7370 C   0  0  0  0  0  3  0  0  0  0  0  0
  2 15  1  0  0  0  0
  2 19  1  0  0  0  0
  3 26  1  0  0  0  0
  4 16  1  0  0  0  0
  6  2  1  0  0  0  0
  7 25  1  0  0  0  0
  8 12  1  0  0  0  0
  9 27  1  0  0  0  0
  9 15  2  0  0  0  0
 10 22  1  0  0  0  0
 10 13  1  1  0  0  0
 11  9  1  0  0  0  0
 14  8  1  0  0  0  0
 14 19  1  0  0  0  0
 15  1  1  0  0  0  0
 16  5  1  0  0  0  0
 16  8  2  0  0  0  0
 17  4  2  0  0  0  0
 17 21  1  0  0  0  0
 18  1  1  1  0  0  0
 18 24  1  0  0  0  0
 19  3  1  6  0  0  0
 20 10  1  0  0  0  0
 21  6  1  0  0  0  0
 21 14  2  0  0  0  0
 23  7  1  0  0  0  0
 23 11  1  0  0  0  0
 24 22  1  0  0  0  0
 25 27  2  0  0  0  0
 26 18  1  0  0  0  0
 26 20  2  0  0  0  0
M  END
>  <MODEL>
7

>  <REMARK>
 VINA RESULT:      -3.9     10.746     13.318
  Name = 
  0 active torsions:
  status: ('A' for Active; 'I' for Inactive)
                            x       y       z     vdW  Elec       q    Type
                         _______ _______ _______ _____ _____    ______ ____

>  <TORSDO>
F 0

$$$$
=
 OpenBabel11052423063D

 27 31  0  0  1  0  0  0  0  0999 V2000
  159.1520  213.8910  141.8500 C   0  0  0  0  0  2  0  0  0  0  0  0
  160.6060  213.7630  139.7900 N   0  0  0  0  0  0  0  0  0  0  0  0
  162.0760  212.1560  141.3620 S   0  0  0  0  0  0  0  0  0  0  0  0
  164.3620  214.4360  137.2040 C   0  0  0  0  0  3  0  0  0  0  0  0
  166.3590  214.4510  138.5160 F   0  0  0  0  0  0  0  0  0  0  0  0
  160.8530  213.9730  138.4240 N   0  0  0  0  0  2  0  0  0  0  0  0
  156.0360  211.9900  138.3670 N   0  0  0  0  0  2  0  0  0  0  0  0
  164.2640  214.1110  139.6220 C   0  0  0  0  0  0  0  0  0  0  0  0
  158.2200  213.2150  139.6660 C   0  0  0  0  0  0  0  0  0  0  0  0
  161.0740  213.3560  145.1130 C   0  0  2  0  0  3  0  0  0  0  0  0
  158.3110  212.8790  138.1980 C   0  0  0  0  0  2  0  0  0  0  0  0
  164.8760  214.0210  140.8290 F   0  0  0  0  0  0  0  0  0  0  0  0
  161.8550  214.4400  145.8230 C   0  0  0  0  0  1  0  0  0  0  0  0
  162.8780  213.9870  139.5090 C   0  0  0  0  0  0  0  0  0  0  0  0
  159.2940  213.6300  140.3750 C   0  0  0  0  0  0  0  0  0  0  0  0
  165.0110  214.3320  138.4510 C   0  0  0  0  0  0  0  0  0  0  0  0
  162.9630  214.3210  137.1150 C   0  0  0  0  0  3  0  0  0  0  0  0
  159.5920  212.6870  142.6800 C   0  0  2  0  0  3  0  0  0  0  0  0
  161.8500  213.7770  140.5710 C   0  0  1  0  0  3  0  0  0  0  0  0
  161.7260  213.0190  143.8600 N   0  0  0  0  0  0  0  0  0  0  0  0
  162.2530  214.0970  138.2920 C   0  0  0  0  0  0  0  0  0  0  0  0
  159.6300  213.7980  144.9130 C   0  0  0  0  0  2  0  0  0  0  0  0
  157.3740  211.7250  137.8490 C   0  0  0  0  0  2  0  0  0  0  0  0
  158.9270  212.7590  144.0520 C   0  0  0  0  0  2  0  0  0  0  0  0
  155.8530  212.5750  139.6610 C   0  0  0  0  0  3  0  0  0  0  0  0
  161.1050  212.6380  142.7930 C   0  0  0  0  0  0  0  0  0  0  0  0
  156.8830  213.1320  140.3010 C   0  0  0  0  0  3  0  0  0  0  0  0
  2 15  1  0  0  0  0
  2 19  1  0  0  0  0
  3 26  1  0  0  0  0
  4 16  1  0  0  0  0
  6  2  1  0  0  0  0
  7 25  1  0  0  0  0
  8 12  1  0  0  0  0
  9 27  1  0  0  0  0
  9 15  2  0  0  0  0
 10 13  1  6  0  0  0
 11  9  1  0  0  0  0
 14  8  1  0  0  0  0
 15  1  1  0  0  0  0
 16  5  1  0  0  0  0
 16  8  2  0  0  0  0
 17  4  2  0  0  0  0
 17 21  1  0  0  0  0
 18  1  1  6  0  0  0
 18 26  1  0  0  0  0
 18 24  1  0  0  0  0
 19 14  1  6  0  0  0
 19  3  1  0  0  0  0
 20 10  1  0  0  0  0
 21  6  1  0  0  0  0
 21 14  2  0  0  0  0
 22 10  1  0  0  0  0
 23 11  1  0  0  0  0
 23  7  1  0  0  0  0
 24 22  1  0  0  0  0
 25 27  2  0  0  0  0
 26 20  2  0  0  0  0
M  END
>  <MODEL>
8

>  <REMARK>
 VINA RESULT:      -3.7      9.480     13.410
  Name = 
  0 active torsions:
  status: ('A' for Active; 'I' for Inactive)
                            x       y       z     vdW  Elec       q    Type
                         _______ _______ _______ _____ _____    ______ ____

>  <TORSDO>
F 0

$$$$
