=
 OpenBabel11052422343D

 31 34  0  0  1  0  0  0  0  0999 V2000
  160.8500  207.1990  154.2450 C   0  0  0  0  0  0  0  0  0  0  0  0
  161.5490  207.1430  150.4790 C   0  0  0  0  0  0  0  0  0  0  0  0
  161.3030  205.8090  150.0400 C   0  0  0  0  0  0  0  0  0  0  0  0
  160.5720  203.5130  150.4350 C   0  0  0  0  0  3  0  0  0  0  0  0
  161.3360  207.6110  151.8900 C   0  0  0  0  0  0  0  0  0  0  0  0
  160.8490  208.5720  154.4960 C   0  0  0  0  0  3  0  0  0  0  0  0
  160.8070  204.8100  150.8960 C   0  0  0  0  0  3  0  0  0  0  0  0
  162.3190  209.5170  149.8960 C   0  0  1  0  0  3  0  0  0  0  0  0
  160.6070  206.3270  155.2520 F   0  0  0  0  0  0  0  0  0  0  0  0
  162.0250  206.4200  147.8090 C   0  0  0  0  0  3  0  0  0  0  0  0
  160.8270  203.1890  149.1030 C   0  0  0  0  0  0  0  0  0  0  0  0
  161.6510  209.9190  151.1260 N   0  0  0  0  0  2  0  0  0  0  0  0
  161.9930  208.0860  149.5130 C   0  0  0  0  0  0  0  0  0  0  0  0
  161.0870  206.7260  152.9530 C   0  0  0  0  0  3  0  0  0  0  0  0
  160.5340  201.5640  148.5240 Cl  0  0  0  0  0  0  0  0  0  0  0  0
  161.3660  208.9910  152.1670 C   0  0  0  0  0  0  0  0  0  0  0  0
  161.1070  209.4660  153.4570 C   0  0  0  0  0  3  0  0  0  0  0  0
  162.2380  207.6870  148.2340 N   0  0  0  0  0  0  0  0  0  0  0  0
  161.5490  205.4620  148.6900 C   0  0  0  0  0  0  0  0  0  0  0  0
  161.3140  204.1630  148.2310 C   0  0  0  0  0  3  0  0  0  0  0  0
  161.6840  211.7040  149.0950 N   0  0  0  0  0  0  0  0  0  0  0  0
  161.9550  210.4810  148.8130 C   0  0  0  0  0  3  0  0  0  0  0  0
  160.4860  214.0720  148.7560 S   0  0  0  0  0  1  0  0  0  0  0  0
  161.3800  212.6530  148.0540 C   0  0  1  0  0  3  0  0  0  0  0  0
  162.6530  213.1140  147.3390 C   0  0  0  0  0  2  0  0  0  0  0  0
  162.3420  213.9300  146.0900 C   0  0  0  0  0  2  0  0  0  0  0  0
  160.4790  213.4670  144.6660 O   0  0  0  0  0  1  0  0  0  0  0  0
  161.7620  213.0360  145.0090 C   0  0  1  0  0  3  0  0  0  0  0  0
  162.6460  213.0520  143.8080 C   0  0  0  0  0  0  0  0  0  0  0  0
  162.3300  212.4110  142.7710 O   0  0  0  0  0  0  0  0  0  0  0  0
  163.8130  213.8040  143.8230 O   0  0  0  0  0  1  0  0  0  0  0  0
  1  6  1  0  0  0  0
  1  9  1  0  0  0  0
  2  5  1  0  0  0  0
  3  2  1  0  0  0  0
  3  7  1  0  0  0  0
  4  7  2  0  0  0  0
  5 16  2  0  0  0  0
  5 14  1  0  0  0  0
  8 22  1  6  0  0  0
  8 12  1  0  0  0  0
 10 18  2  0  0  0  0
 10 19  1  0  0  0  0
 11  4  1  0  0  0  0
 12 16  1  0  0  0  0
 13  8  1  0  0  0  0
 13  2  2  0  0  0  0
 14  1  2  0  0  0  0
 15 11  1  0  0  0  0
 16 17  1  0  0  0  0
 17  6  2  0  0  0  0
 18 13  1  0  0  0  0
 19  3  2  0  0  0  0
 20 19  1  0  0  0  0
 20 11  2  0  0  0  0
 22 21  2  0  0  0  0
 24 23  1  1  0  0  0
 24 21  1  0  0  0  0
 25 24  1  0  0  0  0
 26 25  1  0  0  0  0
 28 27  1  6  0  0  0
 28 26  1  0  0  0  0
 29 31  1  0  0  0  0
 29 28  1  0  0  0  0
 30 29  2  0  0  0  0
M  END
>  <MODEL>
1

>  <REMARK>
 VINA RESULT:      -9.7      0.000      0.000
  Name = 
  6 active torsions:
  status: ('A' for Active; 'I' for Inactive)
    1  A    between atoms: C_1  and  C_24
    2  A    between atoms: C_3  and  C_19
    3  A    between atoms: C_3  and  C_22
    4  A    between atoms: N_9  and  C_22
    5  A    between atoms: C_15  and  C_23
    6  A    between atoms: C_19  and  C_24
                            x       y       z     vdW  Elec       q    Type
                         _______ _______ _______ _____ _____    ______ ____

>  <TORSDO>
F 6

$$$$
=
 OpenBabel11052422343D

 31 34  0  0  1  0  0  0  0  0999 V2000
  160.8230  207.4420  154.3100 C   0  0  0  0  0  0  0  0  0  0  0  0
  161.5470  207.5510  150.5500 C   0  0  0  0  0  0  0  0  0  0  0  0
  161.3390  206.2290  150.0570 C   0  0  0  0  0  0  0  0  0  0  0  0
  160.6650  203.9020  150.3580 C   0  0  0  0  0  3  0  0  0  0  0  0
  161.3130  207.9580  151.9760 C   0  0  0  0  0  0  0  0  0  0  0  0
  160.7860  208.8040  154.6130 C   0  0  0  0  0  3  0  0  0  0  0  0
  160.8630  205.1860  150.8700 C   0  0  0  0  0  3  0  0  0  0  0  0
  162.2600  209.9650  150.0650 C   0  0  1  0  0  3  0  0  0  0  0  0
  160.5970  206.5250  155.2810 F   0  0  0  0  0  0  0  0  0  0  0  0
  162.0590  206.9450  147.8570 C   0  0  0  0  0  3  0  0  0  0  0  0
  160.9370  203.6370  149.0160 C   0  0  0  0  0  0  0  0  0  0  0  0
  161.5730  210.3010  151.3040 N   0  0  0  0  0  2  0  0  0  0  0  0
  161.9730  208.5420  149.6240 C   0  0  0  0  0  0  0  0  0  0  0  0
  161.0810  207.0260  153.0020 C   0  0  0  0  0  3  0  0  0  0  0  0
  160.6890  202.0280  148.3720 Cl  0  0  0  0  0  0  0  0  0  0  0  0
  161.3060  209.3260  152.3070 C   0  0  0  0  0  0  0  0  0  0  0  0
  161.0270  209.7440  153.6120 C   0  0  0  0  0  3  0  0  0  0  0  0
  162.2360  208.2000  148.3320 N   0  0  0  0  0  0  0  0  0  0  0  0
  161.6020  205.9410  148.6970 C   0  0  0  0  0  0  0  0  0  0  0  0
  161.4040  204.6560  148.1860 C   0  0  0  0  0  3  0  0  0  0  0  0
  161.4770  212.1340  149.3510 N   0  0  0  0  0  0  0  0  0  0  0  0
  161.8770  210.9610  149.0180 C   0  0  0  0  0  3  0  0  0  0  0  0
  160.6100  212.2870  146.8250 S   0  0  0  0  0  1  0  0  0  0  0  0
  161.1530  213.1180  148.3480 C   0  0  1  0  0  3  0  0  0  0  0  0
  160.0780  214.0850  148.8510 C   0  0  0  0  0  2  0  0  0  0  0  0
  159.8660  213.9670  150.3560 C   0  0  0  0  0  2  0  0  0  0  0  0
  157.6810  213.3280  149.6270 O   0  0  0  0  0  1  0  0  0  0  0  0
  158.3820  213.9270  150.6760 C   0  0  1  0  0  3  0  0  0  0  0  0
  158.1550  213.1710  151.9410 C   0  0  0  0  0  0  0  0  0  0  0  0
  158.7780  212.1000  152.1680 O   0  0  0  0  0  0  0  0  0  0  0  0
  157.2700  213.6660  152.8880 O   0  0  0  0  0  1  0  0  0  0  0  0
  1  6  1  0  0  0  0
  1  9  1  0  0  0  0
  2  5  1  0  0  0  0
  3  2  1  0  0  0  0
  3  7  1  0  0  0  0
  4  7  2  0  0  0  0
  5 16  2  0  0  0  0
  5 14  1  0  0  0  0
  8 22  1  6  0  0  0
  8 12  1  0  0  0  0
 10 18  2  0  0  0  0
 10 19  1  0  0  0  0
 11  4  1  0  0  0  0
 12 16  1  0  0  0  0
 13  8  1  0  0  0  0
 13  2  2  0  0  0  0
 14  1  2  0  0  0  0
 15 11  1  0  0  0  0
 16 17  1  0  0  0  0
 17  6  2  0  0  0  0
 18 13  1  0  0  0  0
 19  3  2  0  0  0  0
 20 19  1  0  0  0  0
 20 11  2  0  0  0  0
 22 21  2  0  0  0  0
 24 23  1  6  0  0  0
 24 25  1  0  0  0  0
 24 21  1  0  0  0  0
 25 26  1  0  0  0  0
 26 28  1  0  0  0  0
 28 27  1  6  0  0  0
 28 29  1  0  0  0  0
 29 30  2  0  0  0  0
 29 31  1  0  0  0  0
M  END
>  <MODEL>
2

>  <REMARK>
 VINA RESULT:      -9.4      2.775      3.744
  Name = 
  6 active torsions:
  status: ('A' for Active; 'I' for Inactive)
    1  A    between atoms: C_1  and  C_24
    2  A    between atoms: C_3  and  C_19
    3  A    between atoms: C_3  and  C_22
    4  A    between atoms: N_9  and  C_22
    5  A    between atoms: C_15  and  C_23
    6  A    between atoms: C_19  and  C_24
                            x       y       z     vdW  Elec       q    Type
                         _______ _______ _______ _____ _____    ______ ____

>  <TORSDO>
F 6

$$$$
=
 OpenBabel11052422343D

 31 34  0  0  1  0  0  0  0  0999 V2000
  161.1010  208.9720  154.8430 C   0  0  0  0  0  0  0  0  0  0  0  0
  161.3080  207.8480  151.1860 C   0  0  0  0  0  0  0  0  0  0  0  0
  161.6280  209.0090  150.4220 C   0  0  0  0  0  0  0  0  0  0  0  0
  162.2060  211.3740  150.2400 C   0  0  0  0  0  3  0  0  0  0  0  0
  161.1910  207.8400  152.6830 C   0  0  0  0  0  0  0  0  0  0  0  0
  161.0660  207.7400  155.4980 C   0  0  0  0  0  3  0  0  0  0  0  0
  161.8910  210.2560  151.0150 C   0  0  0  0  0  3  0  0  0  0  0  0
  160.7380  205.3500  151.2100 C   0  0  1  0  0  3  0  0  0  0  0  0
  161.0840  210.1210  155.5590 F   0  0  0  0  0  0  0  0  0  0  0  0
  161.4620  207.7040  148.3870 C   0  0  0  0  0  3  0  0  0  0  0  0
  162.2660  211.2650  148.8510 C   0  0  0  0  0  0  0  0  0  0  0  0
  161.1050  205.3910  152.6190 N   0  0  0  0  0  2  0  0  0  0  0  0
  161.1210  206.6270  150.4850 C   0  0  0  0  0  0  0  0  0  0  0  0
  161.1660  209.0180  153.4490 C   0  0  0  0  0  3  0  0  0  0  0  0
  162.6600  212.6660  147.8780 Cl  0  0  0  0  0  0  0  0  0  0  0  0
  161.1200  206.6070  153.3590 C   0  0  0  0  0  0  0  0  0  0  0  0
  161.0760  206.5600  154.7560 C   0  0  0  0  0  3  0  0  0  0  0  0
  161.1780  206.6050  149.1250 N   0  0  0  0  0  0  0  0  0  0  0  0
  161.7010  208.9180  149.0110 C   0  0  0  0  0  0  0  0  0  0  0  0
  162.0150  210.0380  148.2370 C   0  0  0  0  0  3  0  0  0  0  0  0
  160.7930  203.5520  149.6000 N   0  0  0  0  0  0  0  0  0  0  0  0
  161.3640  204.1440  150.5850 C   0  0  0  0  0  3  0  0  0  0  0  0
  160.7710  200.8780  149.6820 S   0  0  0  0  0  1  0  0  0  0  0  0
  161.4120  202.4180  148.9600 C   0  0  1  0  0  3  0  0  0  0  0  0
  161.1790  202.4450  147.4470 C   0  0  0  0  0  2  0  0  0  0  0  0
  161.5440  203.7940  146.8380 C   0  0  0  0  0  2  0  0  0  0  0  0
  160.4430  202.8250  144.9510 O   0  0  0  0  0  1  0  0  0  0  0  0
  161.4340  203.7350  145.3250 C   0  0  1  0  0  3  0  0  0  0  0  0
  161.1170  205.0880  144.7850 C   0  0  0  0  0  0  0  0  0  0  0  0
  161.4940  205.4220  143.6310 O   0  0  0  0  0  0  0  0  0  0  0  0
  160.3750  205.9780  145.5510 O   0  0  0  0  0  1  0  0  0  0  0  0
  1  6  1  0  0  0  0
  1  9  1  0  0  0  0
  2  5  1  0  0  0  0
  3  7  1  0  0  0  0
  3  2  2  0  0  0  0
  4  7  2  0  0  0  0
  5 16  2  0  0  0  0
  5 14  1  0  0  0  0
  8 22  1  6  0  0  0
  8 12  1  0  0  0  0
 10 19  2  0  0  0  0
 10 18  1  0  0  0  0
 11  4  1  0  0  0  0
 12 16  1  0  0  0  0
 13  2  1  0  0  0  0
 13  8  1  0  0  0  0
 14  1  2  0  0  0  0
 15 11  1  0  0  0  0
 16 17  1  0  0  0  0
 17  6  2  0  0  0  0
 18 13  2  0  0  0  0
 19  3  1  0  0  0  0
 20 11  2  0  0  0  0
 20 19  1  0  0  0  0
 21 22  2  0  0  0  0
 24 21  1  0  0  0  0
 24 23  1  1  0  0  0
 25 24  1  0  0  0  0
 26 25  1  0  0  0  0
 28 27  1  1  0  0  0
 28 26  1  0  0  0  0
 29 28  1  0  0  0  0
 29 31  1  0  0  0  0
 30 29  2  0  0  0  0
M  END
>  <MODEL>
3

>  <REMARK>
 VINA RESULT:      -8.3      4.527      6.843
  Name = 
  6 active torsions:
  status: ('A' for Active; 'I' for Inactive)
    1  A    between atoms: C_1  and  C_24
    2  A    between atoms: C_3  and  C_19
    3  A    between atoms: C_3  and  C_22
    4  A    between atoms: N_9  and  C_22
    5  A    between atoms: C_15  and  C_23
    6  A    between atoms: C_19  and  C_24
                            x       y       z     vdW  Elec       q    Type
                         _______ _______ _______ _____ _____    ______ ____

>  <TORSDO>
F 6

$$$$
=
 OpenBabel11052422343D

 31 34  0  0  1  0  0  0  0  0999 V2000
  160.9280  201.9460  150.6500 C   0  0  0  0  0  0  0  0  0  0  0  0
  161.5310  205.5400  149.4680 C   0  0  0  0  0  0  0  0  0  0  0  0
  161.5100  205.5070  148.0420 C   0  0  0  0  0  0  0  0  0  0  0  0
  161.1980  204.3410  145.9200 C   0  0  0  0  0  3  0  0  0  0  0  0
  161.2750  204.3400  150.3350 C   0  0  0  0  0  0  0  0  0  0  0  0
  160.6950  202.1490  152.0110 C   0  0  0  0  0  3  0  0  0  0  0  0
  161.2160  204.3400  147.3170 C   0  0  0  0  0  3  0  0  0  0  0  0
  161.8630  206.9120  151.6070 C   0  0  1  0  0  3  0  0  0  0  0  0
  160.8660  200.6970  150.1310 F   0  0  0  0  0  0  0  0  0  0  0  0
  162.0590  207.8680  147.9900 C   0  0  0  0  0  3  0  0  0  0  0  0
  161.4720  205.5160  145.2200 C   0  0  0  0  0  0  0  0  0  0  0  0
  161.1660  205.8260  152.2820 N   0  0  0  0  0  2  0  0  0  0  0  0
  161.7800  206.7890  150.0970 C   0  0  0  0  0  0  0  0  0  0  0  0
  161.2110  203.0340  149.8210 C   0  0  0  0  0  3  0  0  0  0  0  0
  161.4510  205.5180  143.4700 Cl  0  0  0  0  0  0  0  0  0  0  0  0
  161.0720  204.5230  151.7160 C   0  0  0  0  0  0  0  0  0  0  0  0
  160.7670  203.4370  152.5420 C   0  0  0  0  0  3  0  0  0  0  0  0
  162.0580  207.8890  149.3430 N   0  0  0  0  0  0  0  0  0  0  0  0
  161.7780  206.6910  147.3130 C   0  0  0  0  0  0  0  0  0  0  0  0
  161.7610  206.6900  145.9160 C   0  0  0  0  0  3  0  0  0  0  0  0
  161.0940  208.4030  153.3440 N   0  0  0  0  0  0  0  0  0  0  0  0
  161.3090  208.2130  152.0920 C   0  0  0  0  0  3  0  0  0  0  0  0
  161.8350  210.4170  154.9410 S   0  0  0  0  0  1  0  0  0  0  0  0
  160.6080  209.6710  153.8270 C   0  0  1  0  0  3  0  0  0  0  0  0
  160.2850  210.6150  152.6660 C   0  0  0  0  0  2  0  0  0  0  0  0
  158.8640  211.1600  152.7530 C   0  0  0  0  0  2  0  0  0  0  0  0
  159.3420  213.0150  154.1830 O   0  0  0  0  0  1  0  0  0  0  0  0
  158.6340  211.8140  154.1040 C   0  0  1  0  0  3  0  0  0  0  0  0
  157.1780  212.0630  154.3070 C   0  0  0  0  0  0  0  0  0  0  0  0
  156.4560  211.2090  154.8850 O   0  0  0  0  0  1  0  0  0  0  0  0
  156.6200  213.2600  153.8790 O   0  0  0  0  0  0  0  0  0  0  0  0
  1  6  1  0  0  0  0
  2 13  1  0  0  0  0
  2  5  1  0  0  0  0
  3  2  2  0  0  0  0
  4  7  2  0  0  0  0
  5 16  2  0  0  0  0
  6 17  2  0  0  0  0
  7  3  1  0  0  0  0
  8 22  1  1  0  0  0
  8 12  1  0  0  0  0
  9  1  1  0  0  0  0
 10 18  1  0  0  0  0
 11 20  2  0  0  0  0
 11  4  1  0  0  0  0
 13  8  1  0  0  0  0
 14  5  1  0  0  0  0
 14  1  2  0  0  0  0
 15 11  1  0  0  0  0
 16 12  1  0  0  0  0
 16 17  1  0  0  0  0
 18 13  2  0  0  0  0
 19 10  2  0  0  0  0
 19  3  1  0  0  0  0
 20 19  1  0  0  0  0
 21 24  1  0  0  0  0
 22 21  2  0  0  0  0
 24 23  1  1  0  0  0
 25 26  1  0  0  0  0
 25 24  1  0  0  0  0
 26 28  1  0  0  0  0
 28 27  1  6  0  0  0
 28 29  1  0  0  0  0
 29 30  1  0  0  0  0
 31 29  2  0  0  0  0
M  END
>  <MODEL>
4

>  <REMARK>
 VINA RESULT:      -7.9      4.891      6.485
  Name = 
  6 active torsions:
  status: ('A' for Active; 'I' for Inactive)
    1  A    between atoms: C_1  and  C_24
    2  A    between atoms: C_3  and  C_19
    3  A    between atoms: C_3  and  C_22
    4  A    between atoms: N_9  and  C_22
    5  A    between atoms: C_15  and  C_23
    6  A    between atoms: C_19  and  C_24
                            x       y       z     vdW  Elec       q    Type
                         _______ _______ _______ _____ _____    ______ ____

>  <TORSDO>
F 6

$$$$
=
 OpenBabel11052422343D

 31 34  0  0  1  0  0  0  0  0999 V2000
  161.9260  210.6470  149.7510 C   0  0  0  0  0  0  0  0  0  0  0  0
  161.4940  207.2240  151.4160 C   0  0  0  0  0  0  0  0  0  0  0  0
  161.1710  207.4760  152.7820 C   0  0  0  0  0  0  0  0  0  0  0  0
  160.6570  208.9860  154.6300 C   0  0  0  0  0  3  0  0  0  0  0  0
  161.6890  208.3050  150.3920 C   0  0  0  0  0  0  0  0  0  0  0  0
  161.9570  210.2850  148.4030 C   0  0  0  0  0  3  0  0  0  0  0  0
  160.9780  208.7730  153.2880 C   0  0  0  0  0  3  0  0  0  0  0  0
  161.9870  205.5080  149.5790 C   0  0  1  0  0  3  0  0  0  0  0  0
  162.0160  211.9510  150.1040 F   0  0  0  0  0  0  0  0  0  0  0  0
  161.1900  205.0910  153.2150 C   0  0  0  0  0  3  0  0  0  0  0  0
  160.5210  207.9010  155.4960 C   0  0  0  0  0  0  0  0  0  0  0  0
  161.6960  206.5860  148.6440 N   0  0  0  0  0  2  0  0  0  0  0  0
  161.6070  205.8700  151.0020 C   0  0  0  0  0  0  0  0  0  0  0  0
  161.7890  209.6650  150.7340 C   0  0  0  0  0  3  0  0  0  0  0  0
  160.1210  208.1680  157.1790 Cl  0  0  0  0  0  0  0  0  0  0  0  0
  161.7570  207.9550  149.0300 C   0  0  0  0  0  0  0  0  0  0  0  0
  161.8720  208.9400  148.0450 C   0  0  0  0  0  3  0  0  0  0  0  0
  161.4790  204.8660  151.9120 N   0  0  0  0  0  0  0  0  0  0  0  0
  161.0210  206.3880  153.6760 C   0  0  0  0  0  0  0  0  0  0  0  0
  160.7020  206.6030  155.0190 C   0  0  0  0  0  3  0  0  0  0  0  0
  161.8360  203.5100  148.2310 N   0  0  0  0  0  0  0  0  0  0  0  0
  161.2930  204.2680  149.1140 C   0  0  0  0  0  3  0  0  0  0  0  0
  159.9550  201.7900  149.0430 S   0  0  0  0  0  1  0  0  0  0  0  0
  161.1970  202.2880  147.8120 C   0  0  1  0  0  3  0  0  0  0  0  0
  160.5580  202.4450  146.4300 C   0  0  0  0  0  2  0  0  0  0  0  0
  161.5270  203.0450  145.4190 C   0  0  0  0  0  2  0  0  0  0  0  0
  159.4620  203.8330  144.5100 O   0  0  0  0  0  1  0  0  0  0  0  0
  160.8290  204.1060  144.5870 C   0  0  1  0  0  3  0  0  0  0  0  0
  161.0500  205.4520  145.1890 C   0  0  0  0  0  0  0  0  0  0  0  0
  160.0830  206.2360  145.3770 O   0  0  0  0  0  0  0  0  0  0  0  0
  162.3290  205.8330  145.5710 O   0  0  0  0  0  1  0  0  0  0  0  0
  1  9  1  0  0  0  0
  1 14  1  0  0  0  0
  2  3  1  0  0  0  0
  3  7  2  0  0  0  0
  3 19  1  0  0  0  0
  4 11  2  0  0  0  0
  5 14  2  0  0  0  0
  5  2  1  0  0  0  0
  6  1  2  0  0  0  0
  7  4  1  0  0  0  0
  8 22  1  6  0  0  0
  8 13  1  0  0  0  0
 10 19  1  0  0  0  0
 11 15  1  0  0  0  0
 12 16  1  0  0  0  0
 12  8  1  0  0  0  0
 13  2  2  0  0  0  0
 13 18  1  0  0  0  0
 16  5  1  0  0  0  0
 17  6  1  0  0  0  0
 17 16  2  0  0  0  0
 18 10  2  0  0  0  0
 19 20  2  0  0  0  0
 20 11  1  0  0  0  0
 21 22  2  0  0  0  0
 24 21  1  0  0  0  0
 24 23  1  1  0  0  0
 25 24  1  0  0  0  0
 26 25  1  0  0  0  0
 28 27  1  1  0  0  0
 28 29  1  0  0  0  0
 28 26  1  0  0  0  0
 29 30  2  0  0  0  0
 29 31  1  0  0  0  0
M  END
>  <MODEL>
5

>  <REMARK>
 VINA RESULT:      -7.7      4.575      7.157
  Name = 
  6 active torsions:
  status: ('A' for Active; 'I' for Inactive)
    1  A    between atoms: C_1  and  C_24
    2  A    between atoms: C_3  and  C_19
    3  A    between atoms: C_3  and  C_22
    4  A    between atoms: N_9  and  C_22
    5  A    between atoms: C_15  and  C_23
    6  A    between atoms: C_19  and  C_24
                            x       y       z     vdW  Elec       q    Type
                         _______ _______ _______ _____ _____    ______ ____

>  <TORSDO>
F 6

$$$$
=
 OpenBabel11052422343D

 31 34  0  0  1  0  0  0  0  0999 V2000
  160.9140  202.1790  150.8640 C   0  0  0  0  0  0  0  0  0  0  0  0
  161.5420  205.7060  149.5080 C   0  0  0  0  0  0  0  0  0  0  0  0
  161.5250  205.6030  148.0860 C   0  0  0  0  0  0  0  0  0  0  0  0
  161.2120  204.3350  146.0230 C   0  0  0  0  0  3  0  0  0  0  0  0
  161.2770  204.5530  150.4320 C   0  0  0  0  0  0  0  0  0  0  0  0
  160.6790  202.4500  152.2130 C   0  0  0  0  0  3  0  0  0  0  0  0
  161.2260  204.4030  147.4180 C   0  0  0  0  0  3  0  0  0  0  0  0
  161.8770  207.1800  151.5770 C   0  0  1  0  0  3  0  0  0  0  0  0
  160.8460  200.9060  150.4080 F   0  0  0  0  0  0  0  0  0  0  0  0
  162.0890  207.9550  147.9180 C   0  0  0  0  0  3  0  0  0  0  0  0
  161.4950  205.4720  145.2660 C   0  0  0  0  0  0  0  0  0  0  0  0
  161.1710  206.1330  152.3030 N   0  0  0  0  0  2  0  0  0  0  0  0
  161.7980  206.9840  150.0750 C   0  0  0  0  0  0  0  0  0  0  0  0
  161.2060  203.2230  149.9840 C   0  0  0  0  0  3  0  0  0  0  0  0
  161.4790  205.3880  143.5180 Cl  0  0  0  0  0  0  0  0  0  0  0  0
  161.0710  204.8040  151.8020 C   0  0  0  0  0  0  0  0  0  0  0  0
  160.7570  203.7620  152.6800 C   0  0  0  0  0  3  0  0  0  0  0  0
  162.0850  208.0430  149.2690 N   0  0  0  0  0  0  0  0  0  0  0  0
  161.8020  206.7470  147.2990 C   0  0  0  0  0  0  0  0  0  0  0  0
  161.7900  206.6780  145.9050 C   0  0  0  0  0  3  0  0  0  0  0  0
  161.8610  209.1510  152.9720 N   0  0  0  0  0  0  0  0  0  0  0  0
  161.3300  208.5070  151.9960 C   0  0  0  0  0  3  0  0  0  0  0  0
  159.7320  210.7330  152.6180 S   0  0  0  0  0  1  0  0  0  0  0  0
  161.3720  210.4530  153.3510 C   0  0  1  0  0  3  0  0  0  0  0  0
  161.3160  210.5980  154.8740 C   0  0  0  0  0  2  0  0  0  0  0  0
  161.9420  209.4040  155.5840 C   0  0  0  0  0  2  0  0  0  0  0  0
  160.0710  209.9000  156.9850 O   0  0  0  0  0  1  0  0  0  0  0  0
  161.0490  208.9400  156.7200 C   0  0  1  0  0  3  0  0  0  0  0  0
  160.4080  207.6410  156.3650 C   0  0  0  0  0  0  0  0  0  0  0  0
  159.8120  206.9600  157.2410 O   0  0  0  0  0  1  0  0  0  0  0  0
  160.4460  207.1910  155.0520 O   0  0  0  0  0  0  0  0  0  0  0  0
  1  6  1  0  0  0  0
  2 13  1  0  0  0  0
  2  5  1  0  0  0  0
  3  2  2  0  0  0  0
  4  7  2  0  0  0  0
  5 16  2  0  0  0  0
  6 17  2  0  0  0  0
  7  3  1  0  0  0  0
  8 22  1  6  0  0  0
  8 12  1  0  0  0  0
  9  1  1  0  0  0  0
 10 18  1  0  0  0  0
 11 20  2  0  0  0  0
 11  4  1  0  0  0  0
 13  8  1  0  0  0  0
 14  5  1  0  0  0  0
 14  1  2  0  0  0  0
 15 11  1  0  0  0  0
 16 12  1  0  0  0  0
 16 17  1  0  0  0  0
 18 13  2  0  0  0  0
 19 10  2  0  0  0  0
 19  3  1  0  0  0  0
 20 19  1  0  0  0  0
 21 24  1  0  0  0  0
 22 21  2  0  0  0  0
 24 23  1  6  0  0  0
 24 25  1  0  0  0  0
 25 26  1  0  0  0  0
 26 28  1  0  0  0  0
 28 27  1  6  0  0  0
 29 28  1  0  0  0  0
 29 30  1  0  0  0  0
 31 29  2  0  0  0  0
M  END
>  <MODEL>
6

>  <REMARK>
 VINA RESULT:      -7.7      5.229      7.118
  Name = 
  6 active torsions:
  status: ('A' for Active; 'I' for Inactive)
    1  A    between atoms: C_1  and  C_24
    2  A    between atoms: C_3  and  C_19
    3  A    between atoms: C_3  and  C_22
    4  A    between atoms: N_9  and  C_22
    5  A    between atoms: C_15  and  C_23
    6  A    between atoms: C_19  and  C_24
                            x       y       z     vdW  Elec       q    Type
                         _______ _______ _______ _____ _____    ______ ____

>  <TORSDO>
F 6

$$$$
=
 OpenBabel11052422343D

 31 34  0  0  1  0  0  0  0  0999 V2000
  161.2120  204.2000  149.4660 C   0  0  0  0  0  0  0  0  0  0  0  0
  161.2830  207.7270  150.9580 C   0  0  0  0  0  0  0  0  0  0  0  0
  161.1570  207.5730  152.3710 C   0  0  0  0  0  0  0  0  0  0  0  0
  161.0000  206.1950  154.3800 C   0  0  0  0  0  3  0  0  0  0  0  0
  161.3580  206.5760  149.9960 C   0  0  0  0  0  0  0  0  0  0  0  0
  161.6140  204.4570  148.1550 C   0  0  0  0  0  3  0  0  0  0  0  0
  161.1190  206.3130  152.9940 C   0  0  0  0  0  3  0  0  0  0  0  0
  161.4650  209.3100  148.9520 C   0  0  1  0  0  3  0  0  0  0  0  0
  160.9520  202.9290  149.8580 F   0  0  0  0  0  0  0  0  0  0  0  0
  161.1260  209.9830  152.6210 C   0  0  0  0  0  3  0  0  0  0  0  0
  160.9180  207.3390  155.1730 C   0  0  0  0  0  0  0  0  0  0  0  0
  161.9750  208.1550  148.2250 N   0  0  0  0  0  2  0  0  0  0  0  0
  161.3710  209.0480  150.4430 C   0  0  0  0  0  0  0  0  0  0  0  0
  161.0890  205.2510  150.3770 C   0  0  0  0  0  3  0  0  0  0  0  0
  160.7680  207.1920  156.9110 Cl  0  0  0  0  0  0  0  0  0  0  0  0
  161.7300  206.8220  148.6610 C   0  0  0  0  0  0  0  0  0  0  0  0
  161.8730  205.7670  147.7540 C   0  0  0  0  0  3  0  0  0  0  0  0
  161.2630  210.1160  151.2810 N   0  0  0  0  0  0  0  0  0  0  0  0
  161.0790  208.7210  153.1940 C   0  0  0  0  0  0  0  0  0  0  0  0
  160.9580  208.6020  154.5810 C   0  0  0  0  0  3  0  0  0  0  0  0
  161.8140  211.5750  148.1930 N   0  0  0  0  0  0  0  0  0  0  0  0
  162.3300  210.4910  148.6460 C   0  0  0  0  0  3  0  0  0  0  0  0
  162.8500  212.9580  146.1510 S   0  0  0  0  0  1  0  0  0  0  0  0
  162.6330  212.7350  147.9420 C   0  0  1  0  0  3  0  0  0  0  0  0
  162.0230  213.9880  148.5740 C   0  0  0  0  0  2  0  0  0  0  0  0
  160.7330  213.6780  149.3240 C   0  0  0  0  0  2  0  0  0  0  0  0
  159.6100  214.0750  147.2520 O   0  0  0  0  0  1  0  0  0  0  0  0
  159.5500  214.3230  148.6250 C   0  0  1  0  0  3  0  0  0  0  0  0
  158.2750  213.7910  149.1860 C   0  0  0  0  0  0  0  0  0  0  0  0
  158.0650  213.8080  150.4280 O   0  0  0  0  0  1  0  0  0  0  0  0
  157.3000  213.2980  148.3300 O   0  0  0  0  0  0  0  0  0  0  0  0
  1  9  1  0  0  0  0
  1 14  1  0  0  0  0
  2  3  1  0  0  0  0
  3  7  2  0  0  0  0
  3 19  1  0  0  0  0
  4 11  2  0  0  0  0
  5 14  2  0  0  0  0
  5  2  1  0  0  0  0
  6  1  2  0  0  0  0
  7  4  1  0  0  0  0
  8 22  1  1  0  0  0
  8 13  1  0  0  0  0
 10 19  1  0  0  0  0
 11 15  1  0  0  0  0
 12 16  1  0  0  0  0
 12  8  1  0  0  0  0
 13  2  2  0  0  0  0
 13 18  1  0  0  0  0
 16  5  1  0  0  0  0
 17  6  1  0  0  0  0
 17 16  2  0  0  0  0
 18 10  2  0  0  0  0
 19 20  2  0  0  0  0
 20 11  1  0  0  0  0
 21 22  2  0  0  0  0
 24 23  1  6  0  0  0
 24 21  1  0  0  0  0
 24 25  1  0  0  0  0
 25 26  1  0  0  0  0
 28 27  1  6  0  0  0
 28 29  1  0  0  0  0
 28 26  1  0  0  0  0
 29 30  1  0  0  0  0
 31 29  2  0  0  0  0
M  END
>  <MODEL>
7

>  <REMARK>
 VINA RESULT:      -7.7      2.964      5.119
  Name = 
  6 active torsions:
  status: ('A' for Active; 'I' for Inactive)
    1  A    between atoms: C_1  and  C_24
    2  A    between atoms: C_3  and  C_19
    3  A    between atoms: C_3  and  C_22
    4  A    between atoms: N_9  and  C_22
    5  A    between atoms: C_15  and  C_23
    6  A    between atoms: C_19  and  C_24
                            x       y       z     vdW  Elec       q    Type
                         _______ _______ _______ _____ _____    ______ ____

>  <TORSDO>
F 6

$$$$
=
 OpenBabel11052422343D

 31 34  0  0  1  0  0  0  0  0999 V2000
  161.2110  204.3880  148.4930 C   0  0  0  0  0  0  0  0  0  0  0  0
  161.6530  207.3280  150.9090 C   0  0  0  0  0  0  0  0  0  0  0  0
  161.7740  208.5000  150.1040 C   0  0  0  0  0  0  0  0  0  0  0  0
  161.7600  209.6390  147.9450 C   0  0  0  0  0  3  0  0  0  0  0  0
  161.4060  205.9550  150.3530 C   0  0  0  0  0  0  0  0  0  0  0  0
  160.8320  203.3740  149.3740 C   0  0  0  0  0  3  0  0  0  0  0  0
  161.6420  208.4730  148.7050 C   0  0  0  0  0  3  0  0  0  0  0  0
  161.6700  206.2870  153.2500 C   0  0  1  0  0  3  0  0  0  0  0  0
  161.2950  204.1350  147.1650 F   0  0  0  0  0  0  0  0  0  0  0  0
  162.1450  209.8210  152.1020 C   0  0  0  0  0  3  0  0  0  0  0  0
  162.0110  210.8590  148.5730 C   0  0  0  0  0  0  0  0  0  0  0  0
  160.9940  205.1540  152.6330 N   0  0  0  0  0  2  0  0  0  0  0  0
  161.7450  207.4820  152.3180 C   0  0  0  0  0  0  0  0  0  0  0  0
  161.4910  205.6660  148.9800 C   0  0  0  0  0  3  0  0  0  0  0  0
  162.1610  212.3200  147.6220 Cl  0  0  0  0  0  0  0  0  0  0  0  0
  161.0560  204.9120  151.2310 C   0  0  0  0  0  0  0  0  0  0  0  0
  160.7540  203.6380  150.7410 C   0  0  0  0  0  3  0  0  0  0  0  0
  162.0110  208.7040  152.8550 N   0  0  0  0  0  0  0  0  0  0  0  0
  162.0210  209.7490  150.7230 C   0  0  0  0  0  0  0  0  0  0  0  0
  162.1410  210.9130  149.9610 C   0  0  0  0  0  3  0  0  0  0  0  0
  160.4980  207.7970  154.7250 N   0  0  0  0  0  0  0  0  0  0  0  0
  160.9750  206.6210  154.5310 C   0  0  0  0  0  3  0  0  0  0  0  0
  160.2790  206.9710  157.2610 S   0  0  0  0  0  1  0  0  0  0  0  0
  159.7840  208.1150  155.9360 C   0  0  1  0  0  3  0  0  0  0  0  0
  160.0280  209.5670  156.3550 C   0  0  0  0  0  2  0  0  0  0  0  0
  159.0450  210.5240  155.6920 C   0  0  0  0  0  2  0  0  0  0  0  0
  161.1660  211.4440  155.0840 O   0  0  0  0  0  1  0  0  0  0  0  0
  159.7900  211.6810  155.0500 C   0  0  1  0  0  3  0  0  0  0  0  0
  159.3350  211.8590  153.6410 C   0  0  0  0  0  0  0  0  0  0  0  0
  158.2290  211.3930  153.2610 O   0  0  0  0  0  1  0  0  0  0  0  0
  160.1260  212.5700  152.7490 O   0  0  0  0  0  0  0  0  0  0  0  0
  1 14  2  0  0  0  0
  1  6  1  0  0  0  0
  2 13  1  0  0  0  0
  3 19  1  0  0  0  0
  3  2  2  0  0  0  0
  4 11  1  0  0  0  0
  4  7  2  0  0  0  0
  5  2  1  0  0  0  0
  5 16  2  0  0  0  0
  6 17  2  0  0  0  0
  7  3  1  0  0  0  0
  8 22  1  1  0  0  0
  9  1  1  0  0  0  0
 10 18  1  0  0  0  0
 11 20  2  0  0  0  0
 12  8  1  0  0  0  0
 13 18  2  0  0  0  0
 13  8  1  0  0  0  0
 14  5  1  0  0  0  0
 15 11  1  0  0  0  0
 16 12  1  0  0  0  0
 17 16  1  0  0  0  0
 19 10  2  0  0  0  0
 20 19  1  0  0  0  0
 21 24  1  0  0  0  0
 22 21  2  0  0  0  0
 24 25  1  0  0  0  0
 24 23  1  1  0  0  0
 26 25  1  0  0  0  0
 28 27  1  6  0  0  0
 28 26  1  0  0  0  0
 29 28  1  0  0  0  0
 30 29  1  0  0  0  0
 31 29  2  0  0  0  0
M  END
>  <MODEL>
8

>  <REMARK>
 VINA RESULT:      -7.6      4.801      7.513
  Name = 
  6 active torsions:
  status: ('A' for Active; 'I' for Inactive)
    1  A    between atoms: C_1  and  C_24
    2  A    between atoms: C_3  and  C_19
    3  A    between atoms: C_3  and  C_22
    4  A    between atoms: N_9  and  C_22
    5  A    between atoms: C_15  and  C_23
    6  A    between atoms: C_19  and  C_24
                            x       y       z     vdW  Elec       q    Type
                         _______ _______ _______ _____ _____    ______ ____

>  <TORSDO>
F 6

$$$$
=
 OpenBabel11052422343D

 31 34  0  0  1  0  0  0  0  0999 V2000
  161.0490  212.5210  150.3700 C   0  0  0  0  0  0  0  0  0  0  0  0
  161.6920  208.8020  151.0220 C   0  0  0  0  0  0  0  0  0  0  0  0
  161.2780  208.5470  152.3630 C   0  0  0  0  0  0  0  0  0  0  0  0
  160.2730  209.2460  154.4750 C   0  0  0  0  0  3  0  0  0  0  0  0
  161.5550  210.1350  150.3440 C   0  0  0  0  0  0  0  0  0  0  0  0
  161.2210  212.5830  148.9860 C   0  0  0  0  0  3  0  0  0  0  0  0
  160.6720  209.5280  153.1660 C   0  0  0  0  0  3  0  0  0  0  0  0
  162.7440  207.9060  148.8640 C   0  0  1  0  0  3  0  0  0  0  0  0
  160.7120  213.6360  151.0600 F   0  0  0  0  0  0  0  0  0  0  0  0
  162.0450  206.2570  152.1540 C   0  0  0  0  0  3  0  0  0  0  0  0
  160.4710  207.9720  155.0050 C   0  0  0  0  0  0  0  0  0  0  0  0
  162.1450  209.0660  148.2180 N   0  0  0  0  0  2  0  0  0  0  0  0
  162.2390  207.7190  150.2820 C   0  0  0  0  0  0  0  0  0  0  0  0
  161.2110  211.3070  151.0390 C   0  0  0  0  0  3  0  0  0  0  0  0
  159.9720  207.6180  156.6450 Cl  0  0  0  0  0  0  0  0  0  0  0  0
  161.7590  210.2220  148.9540 C   0  0  0  0  0  0  0  0  0  0  0  0
  161.5750  211.4330  148.2800 C   0  0  0  0  0  3  0  0  0  0  0  0
  162.4180  206.5070  150.8770 N   0  0  0  0  0  0  0  0  0  0  0  0
  161.4640  207.2580  152.9170 C   0  0  0  0  0  0  0  0  0  0  0  0
  161.0650  206.9780  154.2270 C   0  0  0  0  0  3  0  0  0  0  0  0
  161.3040  206.4310  147.6060 N   0  0  0  0  0  0  0  0  0  0  0  0
  162.4900  206.7000  148.0170 C   0  0  0  0  0  3  0  0  0  0  0  0
  161.4290  205.7390  145.0250 S   0  0  0  0  0  1  0  0  0  0  0  0
  161.0560  205.2990  146.7490 C   0  0  1  0  0  3  0  0  0  0  0  0
  161.8800  204.0850  147.1880 C   0  0  0  0  0  2  0  0  0  0  0  0
  161.2240  203.3400  148.3440 C   0  0  0  0  0  2  0  0  0  0  0  0
  160.8460  201.8880  146.4830 O   0  0  0  0  0  1  0  0  0  0  0  0
  160.6080  202.0430  147.8500 C   0  0  1  0  0  3  0  0  0  0  0  0
  161.1790  200.8890  148.6030 C   0  0  0  0  0  0  0  0  0  0  0  0
  161.6250  199.8830  147.9920 O   0  0  0  0  0  0  0  0  0  0  0  0
  161.2470  200.9380  149.9890 O   0  0  0  0  0  1  0  0  0  0  0  0
  1 14  1  0  0  0  0
  1  9  1  0  0  0  0
  2  3  1  0  0  0  0
  3 19  2  0  0  0  0
  3  7  1  0  0  0  0
  4 11  1  0  0  0  0
  5  2  1  0  0  0  0
  5 14  2  0  0  0  0
  6  1  2  0  0  0  0
  7  4  2  0  0  0  0
  8 22  1  6  0  0  0
  8 13  1  0  0  0  0
 10 19  1  0  0  0  0
 11 15  1  0  0  0  0
 12  8  1  0  0  0  0
 12 16  1  0  0  0  0
 13 18  1  0  0  0  0
 13  2  2  0  0  0  0
 16  5  1  0  0  0  0
 17 16  2  0  0  0  0
 17  6  1  0  0  0  0
 18 10  2  0  0  0  0
 19 20  1  0  0  0  0
 20 11  2  0  0  0  0
 21 22  2  0  0  0  0
 24 23  1  6  0  0  0
 24 25  1  0  0  0  0
 24 21  1  0  0  0  0
 25 26  1  0  0  0  0
 28 27  1  6  0  0  0
 28 26  1  0  0  0  0
 28 29  1  0  0  0  0
 29 31  1  0  0  0  0
 30 29  2  0  0  0  0
M  END
>  <MODEL>
9

>  <REMARK>
 VINA RESULT:      -7.5      5.094      7.660
  Name = 
  6 active torsions:
  status: ('A' for Active; 'I' for Inactive)
    1  A    between atoms: C_1  and  C_24
    2  A    between atoms: C_3  and  C_19
    3  A    between atoms: C_3  and  C_22
    4  A    between atoms: N_9  and  C_22
    5  A    between atoms: C_15  and  C_23
    6  A    between atoms: C_19  and  C_24
                            x       y       z     vdW  Elec       q    Type
                         _______ _______ _______ _____ _____    ______ ____

>  <TORSDO>
F 6

$$$$
