=
 OpenBabel11062407503D

 34 39  0  0  1  0  0  0  0  0999 V2000
  161.7230  210.2930  150.1350 C   0  0  0  0  0  0  0  0  0  0  0  0
  160.6770  210.9340  152.4090 C   0  0  0  0  0  0  0  0  0  0  0  0
  160.3350  209.0280  156.7500 C   0  0  1  0  0  3  0  0  0  0  0  0
  161.1810  208.5850  151.7740 C   0  0  0  0  0  0  0  0  0  0  0  0
  160.6720  206.9990  155.0470 C   0  0  0  0  0  2  0  0  0  0  0  0
  160.3550  212.1090  152.0900 O   0  0  0  0  0  0  0  0  0  0  0  0
  161.1110  209.1930  154.1010 C   0  0  2  0  0  3  0  0  0  0  0  0
  161.1650  209.9440  151.3850 C   0  0  0  0  0  0  0  0  0  0  0  0
  160.6970  208.4910  155.3580 C   0  0  1  0  0  0  0  0  0  0  0  0
  160.6840  206.8670  153.5800 N   0  0  2  0  0  0  0  0  0  0  0  0
  161.8660  207.6190  151.0340 C   0  0  0  0  0  0  0  0  0  0  0  0
  162.3470  209.3030  149.3580 C   0  0  0  0  0  3  0  0  0  0  0  0
  160.5650  210.5110  153.7880 N   0  0  0  0  0  2  0  0  0  0  0  0
  161.9530  206.2680  153.1500 C   0  0  0  0  0  2  0  0  0  0  0  0
  162.0450  206.2340  151.6100 C   0  0  1  0  0  3  0  0  0  0  0  0
  161.7800  208.7540  156.3850 C   0  0  0  0  0  2  0  0  0  0  0  0
  160.5600  208.2460  153.0880 C   0  0  2  0  0  3  0  0  0  0  0  0
  162.4350  207.9810  149.8100 C   0  0  0  0  0  3  0  0  0  0  0  0
  157.9400  211.9570  157.0750 C   0  0  0  0  0  2  0  0  0  0  0  0
  159.9710  210.4880  156.7160 C   0  0  0  0  0  0  0  0  0  0  0  0
  158.5660  210.8290  156.2680 C   0  0  0  0  0  2  0  0  0  0  0  0
  159.7830  213.4530  156.1140 C   0  0  0  0  0  2  0  0  0  0  0  0
  160.6730  212.8960  157.2150 C   0  0  0  0  0  2  0  0  0  0  0  0
  160.8870  211.4090  157.0900 C   0  0  0  0  0  3  0  0  0  0  0  0
  158.3030  213.3210  156.4830 C   0  0  0  0  0  2  0  0  0  0  0  0
  162.4020  211.7640  148.2710 C   0  0  0  0  0  1  0  0  0  0  0  0
  161.7480  211.7010  149.6390 C   0  0  0  0  0  2  0  0  0  0  0  0
  161.0860  205.1900  151.0170 C   0  0  1  0  0  3  0  0  0  0  0  0
  161.0300  205.1860  148.4860 C   0  0  0  0  0  0  0  0  0  0  0  0
  160.1390  206.0750  148.4670 O   0  0  0  0  0  0  0  0  0  0  0  0
  161.5570  204.7080  149.7230 N   0  0  0  0  0  2  0  0  0  0  0  0
  161.5440  204.6320  147.2070 C   0  0  0  0  0  1  0  0  0  0  0  0
  160.9290  202.5710  150.8230 C   0  0  0  0  0  1  0  0  0  0  0  0
  160.8530  203.7930  152.1630 S   0  0  0  0  0  0  0  0  0  0  0  0
  1  8  1  0  0  0  0
  2 13  1  0  0  0  0
  3 20  1  6  0  0  0
  6  2  2  0  0  0  0
  7 13  1  6  0  0  0
  7  9  1  0  0  0  0
  8  4  2  0  0  0  0
  8  2  1  0  0  0  0
  9  5  1  6  0  0  0
  9 16  1  0  0  0  0
  9  3  1  0  0  0  0
 10 14  1  1  0  0  0
 10  5  1  0  0  0  0
 11 15  1  0  0  0  0
 11  4  1  0  0  0  0
 12 18  1  0  0  0  0
 12  1  2  0  0  0  0
 15 28  1  6  0  0  0
 15 14  1  0  0  0  0
 16  3  1  0  0  0  0
 17  4  1  6  0  0  0
 17 10  1  0  0  0  0
 17  7  1  0  0  0  0
 18 11  2  0  0  0  0
 20 24  2  0  0  0  0
 21 20  1  0  0  0  0
 21 19  1  0  0  0  0
 22 25  1  0  0  0  0
 22 23  1  0  0  0  0
 24 23  1  0  0  0  0
 25 19  1  0  0  0  0
 26 27  1  0  0  0  0
 27  1  1  0  0  0  0
 28 31  1  6  0  0  0
 28 34  1  0  0  0  0
 29 31  1  0  0  0  0
 30 29  2  0  0  0  0
 32 29  1  0  0  0  0
 33 34  1  0  0  0  0
M  END
>  <MODEL>
1

>  <REMARK>
 VINA RESULT:      -8.0      0.000      0.000
  Name = 
  5 active torsions:
  status: ('A' for Active; 'I' for Inactive)
    1  A    between atoms: C_1  and  C_19
    2  A    between atoms: C_3  and  C_13
    3  A    between atoms: C_12  and  N_23
    4  A    between atoms: C_12  and  S_27
    5  A    between atoms: C_12  and  C_28
                            x       y       z     vdW  Elec       q    Type
                         _______ _______ _______ _____ _____    ______ ____

>  <TORSDO>
F 5

$$$$
=
 OpenBabel11062407503D

 34 39  0  0  1  0  0  0  0  0999 V2000
  161.6250  211.0840  149.6130 C   0  0  0  0  0  0  0  0  0  0  0  0
  160.4740  211.4300  151.9010 C   0  0  0  0  0  0  0  0  0  0  0  0
  160.3250  209.2090  156.1000 C   0  0  1  0  0  3  0  0  0  0  0  0
  161.2890  209.2140  151.1250 C   0  0  0  0  0  0  0  0  0  0  0  0
  160.9480  207.3590  154.2770 C   0  0  0  0  0  2  0  0  0  0  0  0
  160.0050  212.5720  151.6510 O   0  0  0  0  0  0  0  0  0  0  0  0
  161.1090  209.6510  153.4850 C   0  0  2  0  0  3  0  0  0  0  0  0
  161.1010  210.5820  150.8250 C   0  0  0  0  0  0  0  0  0  0  0  0
  160.7730  208.8180  154.6850 C   0  0  1  0  0  0  0  0  0  0  0  0
  160.9970  207.3290  152.8050 N   0  0  2  0  0  0  0  0  0  0  0  0
  162.1050  208.3970  150.3400 C   0  0  0  0  0  0  0  0  0  0  0  0
  162.3830  210.2380  148.7870 C   0  0  0  0  0  3  0  0  0  0  0  0
  160.3990  210.9050  153.2450 N   0  0  0  0  0  2  0  0  0  0  0  0
  162.3390  206.9300  152.3650 C   0  0  0  0  0  2  0  0  0  0  0  0
  162.4550  207.0110  150.8280 C   0  0  1  0  0  3  0  0  0  0  0  0
  161.7990  209.1500  155.7490 C   0  0  0  0  0  2  0  0  0  0  0  0
  160.7000  208.7100  152.4010 C   0  0  2  0  0  3  0  0  0  0  0  0
  162.6380  208.9110  149.1550 C   0  0  0  0  0  3  0  0  0  0  0  0
  157.5840  211.7790  156.6470 C   0  0  0  0  0  2  0  0  0  0  0  0
  159.7740  210.6080  156.1530 C   0  0  0  0  0  0  0  0  0  0  0  0
  158.3210  210.7830  155.7650 C   0  0  0  0  0  2  0  0  0  0  0  0
  159.1810  213.5480  155.7110 C   0  0  0  0  0  2  0  0  0  0  0  0
  160.1750  213.0620  156.7540 C   0  0  0  0  0  2  0  0  0  0  0  0
  160.5760  211.6230  156.5460 C   0  0  0  0  0  3  0  0  0  0  0  0
  157.7450  213.2050  156.1170 C   0  0  0  0  0  2  0  0  0  0  0  0
  162.3000  212.8010  147.9710 C   0  0  0  0  0  1  0  0  0  0  0  0
  161.4720  212.5140  149.2090 C   0  0  0  0  0  2  0  0  0  0  0  0
  161.6490  205.8940  150.1490 C   0  0  1  0  0  3  0  0  0  0  0  0
  161.0510  203.4990  150.7120 C   0  0  0  0  0  0  0  0  0  0  0  0
  161.2010  203.1410  149.5140 O   0  0  0  0  0  0  0  0  0  0  0  0
  161.2700  204.8550  151.1000 N   0  0  0  0  0  2  0  0  0  0  0  0
  160.6460  202.5000  151.7330 C   0  0  0  0  0  1  0  0  0  0  0  0
  160.7720  206.1110  147.6780 C   0  0  0  0  0  1  0  0  0  0  0  0
  160.1680  206.5650  149.3270 S   0  0  0  0  0  0  0  0  0  0  0  0
  1  8  1  0  0  0  0
  2 13  1  0  0  0  0
  3 20  1  6  0  0  0
  6  2  2  0  0  0  0
  7 13  1  1  0  0  0
  7  9  1  0  0  0  0
  8  4  2  0  0  0  0
  8  2  1  0  0  0  0
  9  5  1  6  0  0  0
  9 16  1  0  0  0  0
  9  3  1  0  0  0  0
 10 14  1  1  0  0  0
 10  5  1  0  0  0  0
 11 15  1  0  0  0  0
 11  4  1  0  0  0  0
 12 18  1  0  0  0  0
 12  1  2  0  0  0  0
 15 28  1  6  0  0  0
 15 14  1  0  0  0  0
 16  3  1  0  0  0  0
 17  4  1  6  0  0  0
 17 10  1  0  0  0  0
 17  7  1  0  0  0  0
 18 11  2  0  0  0  0
 20 24  2  0  0  0  0
 21 20  1  0  0  0  0
 21 19  1  0  0  0  0
 22 25  1  0  0  0  0
 22 23  1  0  0  0  0
 24 23  1  0  0  0  0
 25 19  1  0  0  0  0
 26 27  1  0  0  0  0
 27  1  1  0  0  0  0
 28 34  1  1  0  0  0
 28 31  1  0  0  0  0
 29 31  1  0  0  0  0
 29 32  1  0  0  0  0
 30 29  2  0  0  0  0
 33 34  1  0  0  0  0
M  END
>  <MODEL>
2

>  <REMARK>
 VINA RESULT:      -5.8      1.247      1.771
  Name = 
  5 active torsions:
  status: ('A' for Active; 'I' for Inactive)
    1  A    between atoms: C_1  and  C_19
    2  A    between atoms: C_3  and  C_13
    3  A    between atoms: C_12  and  N_23
    4  A    between atoms: C_12  and  S_27
    5  A    between atoms: C_12  and  C_28
                            x       y       z     vdW  Elec       q    Type
                         _______ _______ _______ _____ _____    ______ ____

>  <TORSDO>
F 5

$$$$
=
 OpenBabel11062407503D

 34 39  0  0  1  0  0  0  0  0999 V2000
  161.9220  210.1110  149.5780 C   0  0  0  0  0  0  0  0  0  0  0  0
  160.9950  210.3250  151.9810 C   0  0  0  0  0  0  0  0  0  0  0  0
  160.5730  207.5470  155.8150 C   0  0  1  0  0  3  0  0  0  0  0  0
  161.2570  208.1380  150.8290 C   0  0  0  0  0  0  0  0  0  0  0  0
  160.6750  205.9210  153.6980 C   0  0  0  0  0  2  0  0  0  0  0  0
  160.7790  211.5650  151.9380 O   0  0  0  0  0  0  0  0  0  0  0  0
  161.3000  208.2230  153.2330 C   0  0  2  0  0  3  0  0  0  0  0  0
  161.3620  209.5450  150.7450 C   0  0  0  0  0  0  0  0  0  0  0  0
  160.8500  207.3000  154.3250 C   0  0  1  0  0  0  0  0  0  0  0  0
  160.6410  206.1150  152.2390 N   0  0  2  0  0  0  0  0  0  0  0  0
  161.8300  207.3030  149.8680 C   0  0  0  0  0  0  0  0  0  0  0  0
  162.4300  209.2650  148.5780 C   0  0  0  0  0  3  0  0  0  0  0  0
  160.8750  209.6200  153.2380 N   0  0  0  0  0  2  0  0  0  0  0  0
  161.8360  205.5160  151.6340 C   0  0  0  0  0  2  0  0  0  0  0  0
  161.8880  205.8140  150.1210 C   0  0  1  0  0  3  0  0  0  0  0  0
  161.9770  207.2340  155.3360 C   0  0  0  0  0  2  0  0  0  0  0  0
  160.6370  207.5740  152.0640 C   0  0  2  0  0  3  0  0  0  0  0  0
  162.4020  207.8730  148.7280 C   0  0  0  0  0  3  0  0  0  0  0  0
  161.6420  211.1820  156.0730 C   0  0  0  0  0  2  0  0  0  0  0  0
  160.3490  209.0050  156.1140 C   0  0  0  0  0  0  0  0  0  0  0  0
  161.5330  209.7790  156.6530 C   0  0  0  0  0  2  0  0  0  0  0  0
  159.4090  211.6610  157.2330 C   0  0  0  0  0  2  0  0  0  0  0  0
  158.7540  211.0030  156.0280 C   0  0  0  0  0  2  0  0  0  0  0  0
  159.1340  209.5510  155.8840 C   0  0  0  0  0  3  0  0  0  0  0  0
  160.8080  212.1760  156.8850 C   0  0  0  0  0  2  0  0  0  0  0  0
  161.3280  212.0400  148.1550 C   0  0  0  0  0  1  0  0  0  0  0  0
  162.0700  211.5860  149.3990 C   0  0  0  0  0  2  0  0  0  0  0  0
  160.8210  205.0150  149.3580 C   0  0  1  0  0  3  0  0  0  0  0  0
  161.0390  205.5590  146.8950 C   0  0  0  0  0  0  0  0  0  0  0  0
  162.0160  204.7730  146.7700 O   0  0  0  0  0  0  0  0  0  0  0  0
  160.3880  205.7180  148.1550 N   0  0  0  0  0  2  0  0  0  0  0  0
  160.5560  206.3240  145.7170 C   0  0  0  0  0  1  0  0  0  0  0  0
  160.4580  202.5650  150.2440 C   0  0  0  0  0  1  0  0  0  0  0  0
  161.4310  203.3530  148.9300 S   0  0  0  0  0  0  0  0  0  0  0  0
  1  8  1  0  0  0  0
  2 13  1  0  0  0  0
  3 20  1  6  0  0  0
  6  2  2  0  0  0  0
  7 13  1  1  0  0  0
  7  9  1  0  0  0  0
  8  4  2  0  0  0  0
  8  2  1  0  0  0  0
  9  5  1  6  0  0  0
  9 16  1  0  0  0  0
  9  3  1  0  0  0  0
 10 14  1  6  0  0  0
 10  5  1  0  0  0  0
 11 15  1  0  0  0  0
 11  4  1  0  0  0  0
 12 18  1  0  0  0  0
 12  1  2  0  0  0  0
 15 28  1  6  0  0  0
 15 14  1  0  0  0  0
 16  3  1  0  0  0  0
 17  4  1  6  0  0  0
 17 10  1  0  0  0  0
 17  7  1  0  0  0  0
 18 11  2  0  0  0  0
 19 21  1  0  0  0  0
 19 25  1  0  0  0  0
 20 21  1  0  0  0  0
 23 22  1  0  0  0  0
 24 23  1  0  0  0  0
 24 20  2  0  0  0  0
 25 22  1  0  0  0  0
 26 27  1  0  0  0  0
 27  1  1  0  0  0  0
 28 31  1  6  0  0  0
 29 31  1  0  0  0  0
 30 29  2  0  0  0  0
 32 29  1  0  0  0  0
 34 28  1  0  0  0  0
 34 33  1  0  0  0  0
M  END
>  <MODEL>
3

>  <REMARK>
 VINA RESULT:      -5.5      1.337      1.919
  Name = 
  5 active torsions:
  status: ('A' for Active; 'I' for Inactive)
    1  A    between atoms: C_1  and  C_19
    2  A    between atoms: C_3  and  C_13
    3  A    between atoms: C_12  and  N_23
    4  A    between atoms: C_12  and  S_27
    5  A    between atoms: C_12  and  C_28
                            x       y       z     vdW  Elec       q    Type
                         _______ _______ _______ _____ _____    ______ ____

>  <TORSDO>
F 5

$$$$
=
 OpenBabel11062407503D

 34 39  0  0  1  0  0  0  0  0999 V2000
  161.1520  204.4830  151.9030 C   0  0  0  0  0  0  0  0  0  0  0  0
  160.5910  203.6710  149.5140 C   0  0  0  0  0  0  0  0  0  0  0  0
  161.6620  204.9400  145.0600 C   0  0  1  0  0  3  0  0  0  0  0  0
  161.3410  205.9890  150.0070 C   0  0  0  0  0  0  0  0  0  0  0  0
  161.9360  207.1280  146.5670 C   0  0  0  0  0  2  0  0  0  0  0  0
  159.9940  202.6170  149.8600 O   0  0  0  0  0  0  0  0  0  0  0  0
  161.7300  205.0580  147.8220 C   0  0  2  0  0  3  0  0  0  0  0  0
  160.9860  204.7200  150.5200 C   0  0  0  0  0  0  0  0  0  0  0  0
  161.7670  205.6180  146.4330 C   0  0  1  0  0  0  0  0  0  0  0  0
  161.6160  207.4730  147.9620 N   0  0  2  0  0  0  0  0  0  0  0  0
  161.9890  206.9420  150.7950 C   0  0  0  0  0  0  0  0  0  0  0  0
  161.7360  205.4740  152.7080 C   0  0  0  0  0  3  0  0  0  0  0  0
  160.8950  203.8960  148.1180 N   0  0  0  0  0  2  0  0  0  0  0  0
  162.8300  207.9360  148.6460 C   0  0  0  0  0  2  0  0  0  0  0  0
  162.5490  208.1850  150.1430 C   0  0  1  0  0  3  0  0  0  0  0  0
  163.0000  205.0490  145.7630 C   0  0  0  0  0  2  0  0  0  0  0  0
  161.1290  206.2170  148.5480 C   0  0  2  0  0  3  0  0  0  0  0  0
  162.1690  206.6870  152.1570 C   0  0  0  0  0  3  0  0  0  0  0  0
  161.0680  201.5650  146.6960 C   0  0  0  0  0  2  0  0  0  0  0  0
  161.0430  203.5710  145.1520 C   0  0  0  0  0  0  0  0  0  0  0  0
  161.8790  202.4880  145.7980 C   0  0  0  0  0  2  0  0  0  0  0  0
  159.8210  200.8580  144.5730 C   0  0  0  0  0  2  0  0  0  0  0  0
  158.9800  202.1090  144.7690 C   0  0  0  0  0  2  0  0  0  0  0  0
  159.7940  203.3750  144.6750 C   0  0  0  0  0  3  0  0  0  0  0  0
  160.4600  200.4130  145.8910 C   0  0  0  0  0  2  0  0  0  0  0  0
  161.7920  202.1070  152.1140 C   0  0  0  0  0  1  0  0  0  0  0  0
  160.8010  203.1760  152.5340 C   0  0  0  0  0  2  0  0  0  0  0  0
  161.6800  209.4350  150.3480 C   0  0  1  0  0  3  0  0  0  0  0  0
  161.0630  210.0200  152.7330 C   0  0  0  0  0  0  0  0  0  0  0  0
  159.9820  209.3800  152.6490 O   0  0  0  0  0  0  0  0  0  0  0  0
  161.9630  210.0780  151.6260 N   0  0  0  0  0  2  0  0  0  0  0  0
  161.4100  210.7180  153.9970 C   0  0  0  0  0  1  0  0  0  0  0  0
  161.1590  211.9780  149.9230 C   0  0  0  0  0  1  0  0  0  0  0  0
  161.9090  210.6200  148.9830 S   0  0  0  0  0  0  0  0  0  0  0  0
  1 27  1  0  0  0  0
  1 12  1  0  0  0  0
  2  6  2  0  0  0  0
  2  8  1  0  0  0  0
  3 20  1  1  0  0  0
  3 16  1  0  0  0  0
  3  9  1  0  0  0  0
  4  8  1  0  0  0  0
  4 11  2  0  0  0  0
  7 13  1  6  0  0  0
  7 17  1  0  0  0  0
  8  1  2  0  0  0  0
  9 16  1  6  0  0  0
  9  5  1  0  0  0  0
  9  7  1  0  0  0  0
 10  5  1  6  0  0  0
 10 17  1  0  0  0  0
 10 14  1  0  0  0  0
 11 18  1  0  0  0  0
 13  2  1  0  0  0  0
 14 15  1  0  0  0  0
 15 28  1  6  0  0  0
 15 11  1  0  0  0  0
 17  4  1  1  0  0  0
 18 12  2  0  0  0  0
 20 21  1  0  0  0  0
 21 19  1  0  0  0  0
 22 23  1  0  0  0  0
 22 25  1  0  0  0  0
 24 23  1  0  0  0  0
 24 20  2  0  0  0  0
 25 19  1  0  0  0  0
 26 27  1  0  0  0  0
 28 34  1  6  0  0  0
 28 31  1  0  0  0  0
 29 32  1  0  0  0  0
 30 29  2  0  0  0  0
 31 29  1  0  0  0  0
 34 33  1  0  0  0  0
M  END
>  <MODEL>
4

>  <REMARK>
 VINA RESULT:      -5.2      2.859      9.613
  Name = 
  5 active torsions:
  status: ('A' for Active; 'I' for Inactive)
    1  A    between atoms: C_1  and  C_19
    2  A    between atoms: C_3  and  C_13
    3  A    between atoms: C_12  and  N_23
    4  A    between atoms: C_12  and  S_27
    5  A    between atoms: C_12  and  C_28
                            x       y       z     vdW  Elec       q    Type
                         _______ _______ _______ _____ _____    ______ ____

>  <TORSDO>
F 5

$$$$
