=
 OpenBabel11062410473D

 32 36  0  0  1  0  0  0  0  0999 V2000
  160.8040  208.2620  151.8520 C   0  0  0  0  0  0  0  0  0  0  0  0
  160.7260  207.5770  156.6030 C   0  0  0  0  0  3  0  0  0  0  0  0
  160.5710  208.9190  156.7650 N   0  0  0  0  0  0  0  0  0  0  0  0
  161.0430  206.3120  151.0270 N   0  0  0  0  0  0  0  0  0  0  0  0
  161.0170  206.1460  152.3760 C   0  0  0  0  0  3  0  0  0  0  0  0
  160.8270  207.0280  155.3230 C   0  0  0  0  0  3  0  0  0  0  0  0
  160.8630  207.4080  152.9110 C   0  0  0  0  0  0  0  0  0  0  0  0
  160.7690  207.8770  154.2170 C   0  0  0  0  0  0  0  0  0  0  0  0
  160.5540  210.1290  153.2590 C   0  0  0  0  0  0  0  0  0  0  0  0
  160.5120  209.7700  155.7040 C   0  0  0  0  0  3  0  0  0  0  0  0
  160.6110  209.2760  154.3970 C   0  0  0  0  0  0  0  0  0  0  0  0
  160.9150  207.5950  150.6950 N   0  0  0  0  0  0  0  0  0  0  0  0
  160.6530  209.6000  152.0000 N   0  0  0  0  0  0  0  0  0  0  0  0
  161.5540  204.6310  147.7290 C   0  0  0  0  0  3  0  0  0  0  0  0
  161.6730  205.5420  148.7000 C   0  0  0  0  0  3  0  0  0  0  0  0
  161.1080  202.8610  149.4320 C   0  0  0  0  0  2  0  0  0  0  0  0
  161.1910  205.2510  150.0700 C   0  0  0  0  0  0  0  0  0  0  0  0
  160.8820  203.9890  150.4020 C   0  0  0  0  0  3  0  0  0  0  0  0
  160.8520  203.3280  147.9940 C   0  0  2  0  0  3  0  0  0  0  0  0
  161.2950  202.3470  147.0640 O   0  0  0  0  0  0  0  0  0  0  0  0
  160.8270  202.2970  145.7500 C   0  0  0  0  0  0  0  0  0  0  0  0
  160.9790  203.2770  144.9720 O   0  0  0  0  0  0  0  0  0  0  0  0
  160.1820  201.1200  145.2800 N   0  0  0  0  0  1  0  0  0  0  0  0
  160.3940  211.6090  153.4100 C   0  0  0  0  0  2  0  0  0  0  0  0
  158.1630  212.8560  153.6120 C   0  0  1  0  0  3  0  0  0  0  0  0
  159.5140  213.2130  151.7820 C   0  0  0  0  0  0  0  0  0  0  0  0
  159.0650  214.4530  152.2670 N   0  0  0  0  0  2  0  0  0  0  0  0
  158.3960  214.3030  153.4890 N   0  0  0  0  0  2  0  0  0  0  0  0
  160.1390  213.0850  150.6960 O   0  0  0  0  0  0  0  0  0  0  0  0
  159.1440  212.1080  152.6790 C   0  0  1  0  0  3  0  0  0  0  0  0
  158.1700  212.4300  155.0500 C   0  0  0  0  0  3  0  0  0  0  0  0
  157.2260  211.6200  155.5230 C   0  0  0  0  0  2  0  0  0  0  0  0
  1 13  1  0  0  0  0
  1  7  1  0  0  0  0
  2  3  1  0  0  0  0
  4  5  1  0  0  0  0
  5  7  2  0  0  0  0
  6  2  2  0  0  0  0
  7  8  1  0  0  0  0
  8 11  2  0  0  0  0
  8  6  1  0  0  0  0
  9 24  1  0  0  0  0
  9 11  1  0  0  0  0
 10  3  2  0  0  0  0
 11 10  1  0  0  0  0
 12  4  1  0  0  0  0
 12  1  2  0  0  0  0
 13  9  2  0  0  0  0
 14 19  1  0  0  0  0
 14 15  2  0  0  0  0
 15 17  1  0  0  0  0
 16 18  1  0  0  0  0
 17 18  2  0  0  0  0
 17  4  1  0  0  0  0
 19 20  1  6  0  0  0
 19 16  1  0  0  0  0
 21 20  1  0  0  0  0
 22 21  2  0  0  0  0
 23 21  1  0  0  0  0
 25 31  1  1  0  0  0
 26 27  1  0  0  0  0
 26 30  1  0  0  0  0
 27 28  1  0  0  0  0
 28 25  1  0  0  0  0
 29 26  2  0  0  0  0
 30 24  1  1  0  0  0
 30 25  1  0  0  0  0
 31 32  2  0  0  0  0
M  END
>  <MODEL>
1

>  <REMARK>
 VINA RESULT:      -8.5      0.000      0.000
  Name = 
  6 active torsions:
  status: ('A' for Active; 'I' for Inactive)
    1  A    between atoms: C_1  and  O_10
    2  A    between atoms: C_6  and  C_7
    3  A    between atoms: N_8  and  C_21
    4  A    between atoms: O_10  and  C_24
    5  A    between atoms: C_16  and  C_27
    6  A    between atoms: C_27  and  C_32
                            x       y       z     vdW  Elec       q    Type
                         _______ _______ _______ _____ _____    ______ ____

>  <TORSDO>
F 6

$$$$
=
 OpenBabel11062410473D

 32 36  0  0  1  0  0  0  0  0999 V2000
  161.0310  208.8140  151.5180 C   0  0  0  0  0  0  0  0  0  0  0  0
  160.5130  206.9080  155.8940 C   0  0  0  0  0  3  0  0  0  0  0  0
  160.3810  208.1660  156.3950 N   0  0  0  0  0  0  0  0  0  0  0  0
  161.2890  207.1400  150.2260 N   0  0  0  0  0  0  0  0  0  0  0  0
  161.1380  206.6270  151.4750 C   0  0  0  0  0  3  0  0  0  0  0  0
  160.7120  206.7110  154.5260 C   0  0  0  0  0  3  0  0  0  0  0  0
  160.9720  207.7100  152.3130 C   0  0  0  0  0  0  0  0  0  0  0  0
  160.7760  207.8230  153.6850 C   0  0  0  0  0  0  0  0  0  0  0  0
  160.7080  210.2550  153.3480 C   0  0  0  0  0  0  0  0  0  0  0  0
  160.4390  209.2680  155.5970 C   0  0  0  0  0  3  0  0  0  0  0  0
  160.6400  209.1310  154.2190 C   0  0  0  0  0  0  0  0  0  0  0  0
  161.2260  208.4700  150.2380 N   0  0  0  0  0  0  0  0  0  0  0  0
  160.9040  210.0720  152.0050 N   0  0  0  0  0  0  0  0  0  0  0  0
  161.5010  204.1390  148.0090 C   0  0  0  0  0  3  0  0  0  0  0  0
  161.0760  204.9420  148.9900 C   0  0  0  0  0  3  0  0  0  0  0  0
  162.2210  206.1270  146.6810 C   0  0  0  0  0  2  0  0  0  0  0  0
  161.4920  206.3630  149.0350 C   0  0  0  0  0  0  0  0  0  0  0  0
  162.0740  206.9100  147.9580 C   0  0  0  0  0  3  0  0  0  0  0  0
  162.4790  204.6460  146.9850 C   0  0  2  0  0  3  0  0  0  0  0  0
  162.3760  203.8690  145.7980 O   0  0  0  0  0  0  0  0  0  0  0  0
  161.1470  203.4810  145.2610 C   0  0  0  0  0  0  0  0  0  0  0  0
  160.4510  204.2900  144.5900 O   0  0  0  0  0  0  0  0  0  0  0  0
  160.6810  202.1530  145.4650 N   0  0  0  0  0  1  0  0  0  0  0  0
  160.5750  211.6490  153.8740 C   0  0  0  0  0  2  0  0  0  0  0  0
  158.8030  213.0130  155.1280 C   0  0  1  0  0  3  0  0  0  0  0  0
  158.8330  213.0140  152.8260 C   0  0  0  0  0  0  0  0  0  0  0  0
  158.6790  214.3350  153.2810 N   0  0  0  0  0  2  0  0  0  0  0  0
  158.8440  214.4100  154.6700 N   0  0  0  0  0  2  0  0  0  0  0  0
  158.7260  212.6880  151.6140 O   0  0  0  0  0  0  0  0  0  0  0  0
  159.1080  212.0840  153.9300 C   0  0  1  0  0  3  0  0  0  0  0  0
  159.6600  212.8210  156.3440 C   0  0  0  0  0  3  0  0  0  0  0  0
  160.1820  213.8680  156.9790 C   0  0  0  0  0  2  0  0  0  0  0  0
  1 13  1  0  0  0  0
  1  7  1  0  0  0  0
  2  3  1  0  0  0  0
  4 12  1  0  0  0  0
  4  5  1  0  0  0  0
  5  7  2  0  0  0  0
  6  2  2  0  0  0  0
  7  8  1  0  0  0  0
  8 11  2  0  0  0  0
  8  6  1  0  0  0  0
  9 24  1  0  0  0  0
  9 11  1  0  0  0  0
 10  3  2  0  0  0  0
 11 10  1  0  0  0  0
 12  1  2  0  0  0  0
 13  9  2  0  0  0  0
 14 15  2  0  0  0  0
 15 17  1  0  0  0  0
 16 19  1  0  0  0  0
 16 18  1  0  0  0  0
 17  4  1  0  0  0  0
 18 17  2  0  0  0  0
 19 20  1  6  0  0  0
 19 14  1  0  0  0  0
 21 23  1  0  0  0  0
 21 20  1  0  0  0  0
 22 21  2  0  0  0  0
 25 31  1  1  0  0  0
 26 27  1  0  0  0  0
 26 30  1  0  0  0  0
 27 28  1  0  0  0  0
 28 25  1  0  0  0  0
 29 26  2  0  0  0  0
 30 24  1  1  0  0  0
 30 25  1  0  0  0  0
 31 32  2  0  0  0  0
M  END
>  <MODEL>
2

>  <REMARK>
 VINA RESULT:      -8.4      1.197      1.711
  Name = 
  6 active torsions:
  status: ('A' for Active; 'I' for Inactive)
    1  A    between atoms: C_1  and  O_10
    2  A    between atoms: C_6  and  C_7
    3  A    between atoms: N_8  and  C_21
    4  A    between atoms: O_10  and  C_24
    5  A    between atoms: C_16  and  C_27
    6  A    between atoms: C_27  and  C_32
                            x       y       z     vdW  Elec       q    Type
                         _______ _______ _______ _____ _____    ______ ____

>  <TORSDO>
F 6

$$$$
=
 OpenBabel11062410473D

 32 36  0  0  1  0  0  0  0  0999 V2000
  161.6750  207.9820  149.5840 C   0  0  0  0  0  0  0  0  0  0  0  0
  160.8240  208.8630  154.2260 C   0  0  0  0  0  3  0  0  0  0  0  0
  161.0320  210.1860  153.9830 N   0  0  0  0  0  0  0  0  0  0  0  0
  161.4600  205.8720  149.3850 N   0  0  0  0  0  0  0  0  0  0  0  0
  161.2220  206.1490  150.6940 C   0  0  0  0  0  3  0  0  0  0  0  0
  160.9250  207.9320  153.1900 C   0  0  0  0  0  3  0  0  0  0  0  0
  161.3630  207.5150  150.8240 C   0  0  0  0  0  0  0  0  0  0  0  0
  161.2440  208.3800  151.9070 C   0  0  0  0  0  0  0  0  0  0  0  0
  161.7860  210.2010  150.3520 C   0  0  0  0  0  0  0  0  0  0  0  0
  161.3440  210.6490  152.7420 C   0  0  0  0  0  3  0  0  0  0  0  0
  161.4610  209.7610  151.6660 C   0  0  0  0  0  0  0  0  0  0  0  0
  161.7370  206.9780  148.6990 N   0  0  0  0  0  0  0  0  0  0  0  0
  161.8880  209.2960  149.3300 N   0  0  0  0  0  0  0  0  0  0  0  0
  161.7200  203.1960  146.7900 C   0  0  0  0  0  3  0  0  0  0  0  0
  161.9900  204.3240  147.4530 C   0  0  0  0  0  3  0  0  0  0  0  0
  160.8880  202.1450  148.8960 C   0  0  0  0  0  2  0  0  0  0  0  0
  161.4230  204.5600  148.8020 C   0  0  0  0  0  0  0  0  0  0  0  0
  160.8630  203.5380  149.4650 C   0  0  0  0  0  3  0  0  0  0  0  0
  160.7680  202.1850  147.3670 C   0  0  2  0  0  3  0  0  0  0  0  0
  161.0350  200.9030  146.8120 O   0  0  0  0  0  0  0  0  0  0  0  0
  160.5180  200.4990  145.5790 C   0  0  0  0  0  0  0  0  0  0  0  0
  160.7280  199.3360  145.1400 O   0  0  0  0  0  0  0  0  0  0  0  0
  159.7350  201.4090  144.8160 N   0  0  0  0  0  1  0  0  0  0  0  0
  162.0280  211.6490  150.0600 C   0  0  0  0  0  2  0  0  0  0  0  0
  160.7150  213.1760  148.4730 C   0  0  1  0  0  3  0  0  0  0  0  0
  162.8750  212.5690  147.9540 C   0  0  0  0  0  0  0  0  0  0  0  0
  162.7250  213.9500  147.7400 N   0  0  0  0  0  2  0  0  0  0  0  0
  161.4890  214.4010  148.2190 N   0  0  0  0  0  2  0  0  0  0  0  0
  163.9010  211.9270  147.6060 O   0  0  0  0  0  0  0  0  0  0  0  0
  161.6930  211.9840  148.6040 C   0  0  1  0  0  3  0  0  0  0  0  0
  159.7590  213.3700  149.6120 C   0  0  0  0  0  3  0  0  0  0  0  0
  158.8010  214.2900  149.5430 C   0  0  0  0  0  2  0  0  0  0  0  0
  1  7  1  0  0  0  0
  3  2  1  0  0  0  0
  4  5  1  0  0  0  0
  5  7  2  0  0  0  0
  6  2  2  0  0  0  0
  7  8  1  0  0  0  0
  8  6  1  0  0  0  0
  9 11  1  0  0  0  0
 10  3  2  0  0  0  0
 11  8  2  0  0  0  0
 11 10  1  0  0  0  0
 12  4  1  0  0  0  0
 12  1  2  0  0  0  0
 13  1  1  0  0  0  0
 13  9  2  0  0  0  0
 14 19  1  0  0  0  0
 14 15  2  0  0  0  0
 15 17  1  0  0  0  0
 16 18  1  0  0  0  0
 17  4  1  0  0  0  0
 17 18  2  0  0  0  0
 19 20  1  6  0  0  0
 19 16  1  0  0  0  0
 21 20  1  0  0  0  0
 22 21  2  0  0  0  0
 23 21  1  0  0  0  0
 24  9  1  0  0  0  0
 25 30  1  0  0  0  0
 25 31  1  1  0  0  0
 26 30  1  0  0  0  0
 27 26  1  0  0  0  0
 27 28  1  0  0  0  0
 28 25  1  0  0  0  0
 29 26  2  0  0  0  0
 30 24  1  1  0  0  0
 32 31  2  0  0  0  0
M  END
>  <MODEL>
3

>  <REMARK>
 VINA RESULT:      -7.9      2.650      3.500
  Name = 
  6 active torsions:
  status: ('A' for Active; 'I' for Inactive)
    1  A    between atoms: C_1  and  O_10
    2  A    between atoms: C_6  and  C_7
    3  A    between atoms: N_8  and  C_21
    4  A    between atoms: O_10  and  C_24
    5  A    between atoms: C_16  and  C_27
    6  A    between atoms: C_27  and  C_32
                            x       y       z     vdW  Elec       q    Type
                         _______ _______ _______ _____ _____    ______ ____

>  <TORSDO>
F 6

$$$$
=
 OpenBabel11062410473D

 32 36  0  0  1  0  0  0  0  0999 V2000
  161.3860  206.4120  151.0760 C   0  0  0  0  0  0  0  0  0  0  0  0
  162.1430  210.4960  148.6680 C   0  0  0  0  0  3  0  0  0  0  0  0
  162.1390  211.1620  149.8550 N   0  0  0  0  0  0  0  0  0  0  0  0
  161.3040  204.9040  149.5730 N   0  0  0  0  0  0  0  0  0  0  0  0
  161.5190  206.0750  148.9160 C   0  0  0  0  0  3  0  0  0  0  0  0
  161.9560  209.1120  148.6360 C   0  0  0  0  0  3  0  0  0  0  0  0
  161.5710  207.0520  149.8880 C   0  0  0  0  0  0  0  0  0  0  0  0
  161.7640  208.4280  149.8370 C   0  0  0  0  0  0  0  0  0  0  0  0
  161.5610  208.4210  152.2840 C   0  0  0  0  0  0  0  0  0  0  0  0
  161.9540  210.5200  151.0400 C   0  0  0  0  0  3  0  0  0  0  0  0
  161.7590  209.1330  151.0680 C   0  0  0  0  0  0  0  0  0  0  0  0
  161.2210  205.0960  150.8880 N   0  0  0  0  0  0  0  0  0  0  0  0
  161.3770  207.0650  152.2630 N   0  0  0  0  0  0  0  0  0  0  0  0
  160.9550  201.1990  149.2430 C   0  0  0  0  0  3  0  0  0  0  0  0
  160.8080  202.4280  149.7450 C   0  0  0  0  0  3  0  0  0  0  0  0
  161.2040  202.1540  146.9490 C   0  0  0  0  0  2  0  0  0  0  0  0
  161.1780  203.6190  148.9440 C   0  0  0  0  0  0  0  0  0  0  0  0
  161.4090  203.4800  147.6310 C   0  0  0  0  0  3  0  0  0  0  0  0
  161.5810  201.0020  147.8890 C   0  0  2  0  0  3  0  0  0  0  0  0
  161.1630  199.7560  147.3440 O   0  0  0  0  0  0  0  0  0  0  0  0
  161.0370  199.5460  145.9700 C   0  0  0  0  0  0  0  0  0  0  0  0
  160.4560  200.3920  145.2370 O   0  0  0  0  0  0  0  0  0  0  0  0
  161.5810  198.3690  145.3880 N   0  0  0  0  0  1  0  0  0  0  0  0
  161.5440  209.1310  153.6020 C   0  0  0  0  0  2  0  0  0  0  0  0
  159.7140  208.8750  155.3800 C   0  0  1  0  0  3  0  0  0  0  0  0
  160.0550  210.9170  154.3710 C   0  0  0  0  0  0  0  0  0  0  0  0
  159.9300  211.1080  155.7580 N   0  0  0  0  0  2  0  0  0  0  0  0
  159.9110  209.8820  156.4350 N   0  0  0  0  0  2  0  0  0  0  0  0
  160.0910  211.8680  153.5470 O   0  0  0  0  0  0  0  0  0  0  0  0
  160.1150  209.4910  154.0190 C   0  0  1  0  0  3  0  0  0  0  0  0
  160.3840  207.5820  155.7390 C   0  0  0  0  0  3  0  0  0  0  0  0
  160.0810  206.9530  156.8720 C   0  0  0  0  0  2  0  0  0  0  0  0
  1 13  1  0  0  0  0
  2  3  1  0  0  0  0
  3 10  2  0  0  0  0
  4 12  1  0  0  0  0
  5  4  1  0  0  0  0
  5  7  2  0  0  0  0
  6  2  2  0  0  0  0
  6  8  1  0  0  0  0
  7  1  1  0  0  0  0
  8  7  1  0  0  0  0
  8 11  2  0  0  0  0
  9 24  1  0  0  0  0
 10 11  1  0  0  0  0
 11  9  1  0  0  0  0
 12  1  2  0  0  0  0
 13  9  2  0  0  0  0
 14 15  2  0  0  0  0
 16 18  1  0  0  0  0
 16 19  1  0  0  0  0
 17  4  1  0  0  0  0
 17 15  1  0  0  0  0
 18 17  2  0  0  0  0
 19 20  1  6  0  0  0
 19 14  1  0  0  0  0
 21 20  1  0  0  0  0
 22 21  2  0  0  0  0
 23 21  1  0  0  0  0
 25 31  1  1  0  0  0
 25 28  1  0  0  0  0
 26 27  1  0  0  0  0
 27 28  1  0  0  0  0
 29 26  2  0  0  0  0
 30 24  1  1  0  0  0
 30 26  1  0  0  0  0
 30 25  1  0  0  0  0
 31 32  2  0  0  0  0
M  END
>  <MODEL>
4

>  <REMARK>
 VINA RESULT:      -7.7      2.185      4.124
  Name = 
  6 active torsions:
  status: ('A' for Active; 'I' for Inactive)
    1  A    between atoms: C_1  and  O_10
    2  A    between atoms: C_6  and  C_7
    3  A    between atoms: N_8  and  C_21
    4  A    between atoms: O_10  and  C_24
    5  A    between atoms: C_16  and  C_27
    6  A    between atoms: C_27  and  C_32
                            x       y       z     vdW  Elec       q    Type
                         _______ _______ _______ _____ _____    ______ ____

>  <TORSDO>
F 6

$$$$
=
 OpenBabel11062410473D

 32 36  0  0  1  0  0  0  0  0999 V2000
  161.0320  206.5200  151.4400 C   0  0  0  0  0  0  0  0  0  0  0  0
  162.1160  210.6150  149.1800 C   0  0  0  0  0  3  0  0  0  0  0  0
  161.9090  211.2810  150.3480 N   0  0  0  0  0  0  0  0  0  0  0  0
  161.2180  205.0120  149.9470 N   0  0  0  0  0  0  0  0  0  0  0  0
  161.5220  206.1850  149.3320 C   0  0  0  0  0  3  0  0  0  0  0  0
  161.9570  209.2280  149.1200 C   0  0  0  0  0  3  0  0  0  0  0  0
  161.4000  207.1630  150.2970 C   0  0  0  0  0  0  0  0  0  0  0  0
  161.5800  208.5420  150.2750 C   0  0  0  0  0  0  0  0  0  0  0  0
  160.9790  208.5320  152.6560 C   0  0  0  0  0  0  0  0  0  0  0  0
  161.5410  210.6360  151.4890 C   0  0  0  0  0  3  0  0  0  0  0  0
  161.3630  209.2470  151.4870 C   0  0  0  0  0  0  0  0  0  0  0  0
  160.9180  205.2020  151.2300 N   0  0  0  0  0  0  0  0  0  0  0  0
  160.8190  207.1730  152.6080 N   0  0  0  0  0  0  0  0  0  0  0  0
  161.4150  202.4670  147.2180 C   0  0  0  0  0  3  0  0  0  0  0  0
  161.6690  203.5840  147.9060 C   0  0  0  0  0  3  0  0  0  0  0  0
  160.8540  201.2760  149.3400 C   0  0  0  0  0  2  0  0  0  0  0  0
  161.2150  203.7250  149.3100 C   0  0  0  0  0  0  0  0  0  0  0  0
  160.7890  202.6400  149.9730 C   0  0  0  0  0  3  0  0  0  0  0  0
  160.5910  201.3690  147.8320 C   0  0  2  0  0  3  0  0  0  0  0  0
  160.8900  200.1320  147.1960 O   0  0  0  0  0  0  0  0  0  0  0  0
  160.7660  199.9500  145.8180 C   0  0  0  0  0  0  0  0  0  0  0  0
  161.2420  198.9270  145.2550 O   0  0  0  0  0  0  0  0  0  0  0  0
  160.0820  200.9250  145.0410 N   0  0  0  0  0  1  0  0  0  0  0  0
  160.7350  209.2410  153.9520 C   0  0  0  0  0  2  0  0  0  0  0  0
  162.0230  209.2970  156.1680 C   0  0  1  0  0  3  0  0  0  0  0  0
  160.1360  207.9920  155.9710 C   0  0  0  0  0  0  0  0  0  0  0  0
  160.0760  208.7030  157.1820 N   0  0  0  0  0  2  0  0  0  0  0  0
  161.1040  209.6510  157.2610 N   0  0  0  0  0  2  0  0  0  0  0  0
  159.3220  207.0810  155.6670 O   0  0  0  0  0  0  0  0  0  0  0  0
  161.2650  208.4290  155.1370 C   0  0  1  0  0  3  0  0  0  0  0  0
  162.7060  210.5170  155.6240 C   0  0  0  0  0  3  0  0  0  0  0  0
  163.7160  211.0790  156.2840 C   0  0  0  0  0  2  0  0  0  0  0  0
  1 13  1  0  0  0  0
  2  3  1  0  0  0  0
  3 10  2  0  0  0  0
  4 12  1  0  0  0  0
  5  4  1  0  0  0  0
  5  7  2  0  0  0  0
  6  2  2  0  0  0  0
  6  8  1  0  0  0  0
  7  1  1  0  0  0  0
  8  7  1  0  0  0  0
  8 11  2  0  0  0  0
  9 24  1  0  0  0  0
 11 10  1  0  0  0  0
 11  9  1  0  0  0  0
 12  1  2  0  0  0  0
 13  9  2  0  0  0  0
 14 19  1  0  0  0  0
 14 15  2  0  0  0  0
 15 17  1  0  0  0  0
 16 18  1  0  0  0  0
 17  4  1  0  0  0  0
 17 18  2  0  0  0  0
 19 20  1  6  0  0  0
 19 16  1  0  0  0  0
 21 20  1  0  0  0  0
 22 21  2  0  0  0  0
 23 21  1  0  0  0  0
 25 31  1  6  0  0  0
 25 28  1  0  0  0  0
 26 27  1  0  0  0  0
 27 28  1  0  0  0  0
 29 26  2  0  0  0  0
 30 24  1  6  0  0  0
 30 26  1  0  0  0  0
 30 25  1  0  0  0  0
 31 32  2  0  0  0  0
M  END
>  <MODEL>
5

>  <REMARK>
 VINA RESULT:      -7.6      2.800      4.449
  Name = 
  6 active torsions:
  status: ('A' for Active; 'I' for Inactive)
    1  A    between atoms: C_1  and  O_10
    2  A    between atoms: C_6  and  C_7
    3  A    between atoms: N_8  and  C_21
    4  A    between atoms: O_10  and  C_24
    5  A    between atoms: C_16  and  C_27
    6  A    between atoms: C_27  and  C_32
                            x       y       z     vdW  Elec       q    Type
                         _______ _______ _______ _____ _____    ______ ____

>  <TORSDO>
F 6

$$$$
=
 OpenBabel11062410473D

 32 36  0  0  1  0  0  0  0  0999 V2000
  160.9540  206.2840  150.4620 C   0  0  0  0  0  0  0  0  0  0  0  0
  161.2310  201.6040  151.4970 C   0  0  0  0  0  3  0  0  0  0  0  0
  161.1650  201.3350  150.1650 N   0  0  0  0  0  0  0  0  0  0  0  0
  161.0260  207.2620  152.3530 N   0  0  0  0  0  0  0  0  0  0  0  0
  161.1040  205.9320  152.6170 C   0  0  0  0  0  3  0  0  0  0  0  0
  161.1990  202.9240  151.9520 C   0  0  0  0  0  3  0  0  0  0  0  0
  161.0560  205.2970  151.3940 C   0  0  0  0  0  0  0  0  0  0  0  0
  161.0950  203.9580  151.0200 C   0  0  0  0  0  0  0  0  0  0  0  0
  160.9170  204.7310  148.6960 C   0  0  0  0  0  0  0  0  0  0  0  0
  161.0630  202.3240  149.2350 C   0  0  0  0  0  3  0  0  0  0  0  0
  161.0230  203.6660  149.6340 C   0  0  0  0  0  0  0  0  0  0  0  0
  160.9340  207.4900  151.0440 N   0  0  0  0  0  0  0  0  0  0  0  0
  160.8840  206.0280  149.1330 N   0  0  0  0  0  0  0  0  0  0  0  0
  161.1670  210.7040  153.8020 C   0  0  0  0  0  3  0  0  0  0  0  0
  160.8840  209.7200  152.9430 C   0  0  0  0  0  3  0  0  0  0  0  0
  161.1370  209.0740  155.6940 C   0  0  0  0  0  2  0  0  0  0  0  0
  161.0370  208.3010  153.3440 C   0  0  0  0  0  0  0  0  0  0  0  0
  161.2000  208.0010  154.6410 C   0  0  0  0  0  3  0  0  0  0  0  0
  161.7260  210.3860  155.1620 C   0  0  2  0  0  3  0  0  0  0  0  0
  161.4490  211.4560  156.0560 O   0  0  0  0  0  0  0  0  0  0  0  0
  160.1900  212.0540  156.1400 C   0  0  0  0  0  0  0  0  0  0  0  0
  160.0750  213.2910  156.3560 O   0  0  0  0  0  0  0  0  0  0  0  0
  159.0240  211.2590  155.9670 N   0  0  0  0  0  1  0  0  0  0  0  0
  160.8330  204.4620  147.2260 C   0  0  0  0  0  2  0  0  0  0  0  0
  162.3860  205.8250  145.7090 C   0  0  1  0  0  3  0  0  0  0  0  0
  160.1350  205.7080  145.2370 C   0  0  0  0  0  0  0  0  0  0  0  0
  160.8620  205.5020  144.0520 N   0  0  0  0  0  2  0  0  0  0  0  0
  162.2310  205.3750  144.3170 N   0  0  0  0  0  2  0  0  0  0  0  0
  158.8850  205.8570  145.2600 O   0  0  0  0  0  0  0  0  0  0  0  0
  161.0130  205.7490  146.4160 C   0  0  1  0  0  3  0  0  0  0  0  0
  163.5140  205.1050  146.3850 C   0  0  0  0  0  3  0  0  0  0  0  0
  163.9750  203.9560  145.8960 C   0  0  0  0  0  2  0  0  0  0  0  0
  1 12  2  0  0  0  0
  1  7  1  0  0  0  0
  2  6  1  0  0  0  0
  3  2  2  0  0  0  0
  4  5  1  0  0  0  0
  4 17  1  0  0  0  0
  7  5  2  0  0  0  0
  8  7  1  0  0  0  0
  8  6  2  0  0  0  0
  9 13  2  0  0  0  0
  9 11  1  0  0  0  0
 10 11  2  0  0  0  0
 10  3  1  0  0  0  0
 11  8  1  0  0  0  0
 12  4  1  0  0  0  0
 13  1  1  0  0  0  0
 14 19  1  0  0  0  0
 15 17  1  0  0  0  0
 15 14  2  0  0  0  0
 17 18  2  0  0  0  0
 18 16  1  0  0  0  0
 19 16  1  0  0  0  0
 19 20  1  1  0  0  0
 20 21  1  0  0  0  0
 21 22  2  0  0  0  0
 23 21  1  0  0  0  0
 24  9  1  0  0  0  0
 25 31  1  1  0  0  0
 25 30  1  0  0  0  0
 26 29  2  0  0  0  0
 26 30  1  0  0  0  0
 27 28  1  0  0  0  0
 27 26  1  0  0  0  0
 28 25  1  0  0  0  0
 30 24  1  6  0  0  0
 32 31  2  0  0  0  0
M  END
>  <MODEL>
6

>  <REMARK>
 VINA RESULT:      -6.7      2.635      9.330
  Name = 
  6 active torsions:
  status: ('A' for Active; 'I' for Inactive)
    1  A    between atoms: C_1  and  O_10
    2  A    between atoms: C_6  and  C_7
    3  A    between atoms: N_8  and  C_21
    4  A    between atoms: O_10  and  C_24
    5  A    between atoms: C_16  and  C_27
    6  A    between atoms: C_27  and  C_32
                            x       y       z     vdW  Elec       q    Type
                         _______ _______ _______ _____ _____    ______ ____

>  <TORSDO>
F 6

$$$$
=
 OpenBabel11062410473D

 32 36  0  0  1  0  0  0  0  0999 V2000
  160.9940  209.1250  152.4240 C   0  0  0  0  0  0  0  0  0  0  0  0
  160.2120  207.2290  156.7640 C   0  0  0  0  0  3  0  0  0  0  0  0
  160.0800  208.4890  157.2590 N   0  0  0  0  0  0  0  0  0  0  0  0
  161.2840  207.4470  151.1440 N   0  0  0  0  0  0  0  0  0  0  0  0
  161.0590  206.9370  152.3840 C   0  0  0  0  0  3  0  0  0  0  0  0
  160.4780  207.0280  155.4080 C   0  0  0  0  0  3  0  0  0  0  0  0
  160.8720  208.0220  153.2130 C   0  0  0  0  0  0  0  0  0  0  0  0
  160.6080  208.1390  154.5730 C   0  0  0  0  0  0  0  0  0  0  0  0
  160.6060  210.5710  154.2370 C   0  0  0  0  0  0  0  0  0  0  0  0
  160.2020  209.5900  156.4680 C   0  0  0  0  0  3  0  0  0  0  0  0
  160.4710  209.4490  155.1010 C   0  0  0  0  0  0  0  0  0  0  0  0
  161.2470  208.7770  151.1550 N   0  0  0  0  0  0  0  0  0  0  0  0
  160.8670  210.3850  152.9060 N   0  0  0  0  0  0  0  0  0  0  0  0
  162.2930  206.6430  147.6370 C   0  0  0  0  0  3  0  0  0  0  0  0
  162.2910  207.2440  148.8310 C   0  0  0  0  0  3  0  0  0  0  0  0
  161.3930  204.5580  148.6740 C   0  0  0  0  0  2  0  0  0  0  0  0
  161.5330  206.6660  149.9650 C   0  0  0  0  0  0  0  0  0  0  0  0
  161.0710  205.4100  149.8720 C   0  0  0  0  0  3  0  0  0  0  0  0
  161.4550  205.4160  147.4040 C   0  0  2  0  0  3  0  0  0  0  0  0
  161.9930  204.6660  146.3220 O   0  0  0  0  0  0  0  0  0  0  0  0
  161.2010  204.1850  145.2780 C   0  0  0  0  0  0  0  0  0  0  0  0
  160.8300  204.9450  144.3440 O   0  0  0  0  0  0  0  0  0  0  0  0
  160.8180  202.8150  145.2630 N   0  0  0  0  0  1  0  0  0  0  0  0
  160.4750  211.9680  154.7570 C   0  0  0  0  0  2  0  0  0  0  0  0
  158.8470  212.8870  153.0020 C   0  0  1  0  0  3  0  0  0  0  0  0
  158.0830  211.4560  154.6370 C   0  0  0  0  0  0  0  0  0  0  0  0
  157.5660  211.0480  153.3950 N   0  0  0  0  0  2  0  0  0  0  0  0
  158.1510  211.7690  152.3460 N   0  0  0  0  0  2  0  0  0  0  0  0
  157.7120  210.9590  155.7330 O   0  0  0  0  0  0  0  0  0  0  0  0
  159.0760  212.5310  154.4900 C   0  0  1  0  0  3  0  0  0  0  0  0
  160.0660  213.2900  152.2280 C   0  0  0  0  0  3  0  0  0  0  0  0
  160.0730  213.2370  150.8980 C   0  0  0  0  0  2  0  0  0  0  0  0
  1 13  1  0  0  0  0
  1  7  1  0  0  0  0
  2  3  1  0  0  0  0
  4 12  1  0  0  0  0
  4  5  1  0  0  0  0
  5  7  2  0  0  0  0
  6  2  2  0  0  0  0
  7  8  1  0  0  0  0
  8 11  2  0  0  0  0
  8  6  1  0  0  0  0
  9 24  1  0  0  0  0
  9 11  1  0  0  0  0
 10  3  2  0  0  0  0
 11 10  1  0  0  0  0
 12  1  2  0  0  0  0
 13  9  2  0  0  0  0
 14 15  2  0  0  0  0
 15 17  1  0  0  0  0
 16 18  1  0  0  0  0
 17  4  1  0  0  0  0
 18 17  2  0  0  0  0
 19 20  1  6  0  0  0
 19 14  1  0  0  0  0
 19 16  1  0  0  0  0
 21 20  1  0  0  0  0
 22 21  2  0  0  0  0
 23 21  1  0  0  0  0
 25 31  1  6  0  0  0
 25 30  1  0  0  0  0
 26 29  2  0  0  0  0
 27 26  1  0  0  0  0
 28 25  1  0  0  0  0
 28 27  1  0  0  0  0
 30 26  1  0  0  0  0
 30 24  1  6  0  0  0
 32 31  2  0  0  0  0
M  END
>  <MODEL>
7

>  <REMARK>
 VINA RESULT:      -6.1      1.732      2.312
  Name = 
  6 active torsions:
  status: ('A' for Active; 'I' for Inactive)
    1  A    between atoms: C_1  and  O_10
    2  A    between atoms: C_6  and  C_7
    3  A    between atoms: N_8  and  C_21
    4  A    between atoms: O_10  and  C_24
    5  A    between atoms: C_16  and  C_27
    6  A    between atoms: C_27  and  C_32
                            x       y       z     vdW  Elec       q    Type
                         _______ _______ _______ _____ _____    ______ ____

>  <TORSDO>
F 6

$$$$
=
 OpenBabel11062410473D

 32 36  0  0  1  0  0  0  0  0999 V2000
  161.6250  210.4130  150.8350 C   0  0  0  0  0  0  0  0  0  0  0  0
  161.5620  205.6240  150.5000 C   0  0  0  0  0  3  0  0  0  0  0  0
  161.4870  205.5590  151.8570 N   0  0  0  0  0  0  0  0  0  0  0  0
  161.7430  211.0950  148.8200 N   0  0  0  0  0  0  0  0  0  0  0  0
  161.7220  209.7380  148.7540 C   0  0  0  0  0  3  0  0  0  0  0  0
  161.6170  206.8620  149.8550 C   0  0  0  0  0  3  0  0  0  0  0  0
  161.6470  209.2940  150.0580 C   0  0  0  0  0  0  0  0  0  0  0  0
  161.5960  208.0260  150.6250 C   0  0  0  0  0  0  0  0  0  0  0  0
  161.4990  209.1420  152.8100 C   0  0  0  0  0  0  0  0  0  0  0  0
  161.4640  206.6780  152.6310 C   0  0  0  0  0  3  0  0  0  0  0  0
  161.5200  207.9460  152.0390 C   0  0  0  0  0  0  0  0  0  0  0  0
  161.6850  211.5180  150.0810 N   0  0  0  0  0  0  0  0  0  0  0  0
  161.5530  210.3610  152.1870 N   0  0  0  0  0  0  0  0  0  0  0  0
  160.7440  212.7910  145.6440 C   0  0  0  0  0  3  0  0  0  0  0  0
  160.6250  212.2090  146.8410 C   0  0  0  0  0  3  0  0  0  0  0  0
  163.0440  213.5600  146.2350 C   0  0  0  0  0  2  0  0  0  0  0  0
  161.8190  211.9730  147.6870 C   0  0  0  0  0  0  0  0  0  0  0  0
  162.9740  212.5790  147.3730 C   0  0  0  0  0  3  0  0  0  0  0  0
  162.1020  213.1380  145.1000 C   0  0  2  0  0  3  0  0  0  0  0  0
  161.9830  214.1780  144.1380 O   0  0  0  0  0  0  0  0  0  0  0  0
  161.9410  213.9270  142.7650 C   0  0  0  0  0  0  0  0  0  0  0  0
  160.8650  213.5880  142.2020 O   0  0  0  0  0  0  0  0  0  0  0  0
  163.1260  214.0670  141.9910 N   0  0  0  0  0  1  0  0  0  0  0  0
  161.4260  209.0990  154.3040 C   0  0  0  0  0  2  0  0  0  0  0  0
  159.5550  208.8610  156.0410 C   0  0  1  0  0  3  0  0  0  0  0  0
  160.2830  210.9550  155.4200 C   0  0  0  0  0  0  0  0  0  0  0  0
  160.1750  210.9050  156.8200 N   0  0  0  0  0  2  0  0  0  0  0  0
  159.9190  209.6000  157.2590 N   0  0  0  0  0  2  0  0  0  0  0  0
  160.5070  212.0190  154.7850 O   0  0  0  0  0  0  0  0  0  0  0  0
  160.0830  209.6330  154.8090 C   0  0  1  0  0  3  0  0  0  0  0  0
  159.9680  207.4220  156.1410 C   0  0  0  0  0  3  0  0  0  0  0  0
  160.5100  206.9490  157.2600 C   0  0  0  0  0  2  0  0  0  0  0  0
  1 13  1  0  0  0  0
  2  3  1  0  0  0  0
  3 10  2  0  0  0  0
  4 12  1  0  0  0  0
  5  4  1  0  0  0  0
  5  7  2  0  0  0  0
  6  2  2  0  0  0  0
  6  8  1  0  0  0  0
  7  8  1  0  0  0  0
  7  1  1  0  0  0  0
  8 11  2  0  0  0  0
  9 24  1  0  0  0  0
 11 10  1  0  0  0  0
 11  9  1  0  0  0  0
 12  1  2  0  0  0  0
 13  9  2  0  0  0  0
 14 15  2  0  0  0  0
 15 17  1  0  0  0  0
 16 18  1  0  0  0  0
 17  4  1  0  0  0  0
 18 17  2  0  0  0  0
 19 20  1  6  0  0  0
 19 14  1  0  0  0  0
 19 16  1  0  0  0  0
 21 20  1  0  0  0  0
 22 21  2  0  0  0  0
 23 21  1  0  0  0  0
 25 31  1  1  0  0  0
 25 28  1  0  0  0  0
 26 27  1  0  0  0  0
 27 28  1  0  0  0  0
 29 26  2  0  0  0  0
 30 24  1  1  0  0  0
 30 26  1  0  0  0  0
 30 25  1  0  0  0  0
 31 32  2  0  0  0  0
M  END
>  <MODEL>
8

>  <REMARK>
 VINA RESULT:      -6.1      4.450      6.963
  Name = 
  6 active torsions:
  status: ('A' for Active; 'I' for Inactive)
    1  A    between atoms: C_1  and  O_10
    2  A    between atoms: C_6  and  C_7
    3  A    between atoms: N_8  and  C_21
    4  A    between atoms: O_10  and  C_24
    5  A    between atoms: C_16  and  C_27
    6  A    between atoms: C_27  and  C_32
                            x       y       z     vdW  Elec       q    Type
                         _______ _______ _______ _____ _____    ______ ____

>  <TORSDO>
F 6

$$$$
=
 OpenBabel11062410473D

 32 36  0  0  1  0  0  0  0  0999 V2000
  161.2960  207.2120  150.4330 C   0  0  0  0  0  0  0  0  0  0  0  0
  160.9510  202.8730  152.4590 C   0  0  0  0  0  3  0  0  0  0  0  0
  161.2210  202.3180  151.2470 N   0  0  0  0  0  0  0  0  0  0  0  0
  160.9330  208.5830  152.0230 N   0  0  0  0  0  0  0  0  0  0  0  0
  160.8430  207.3420  152.5710 C   0  0  0  0  0  3  0  0  0  0  0  0
  160.8940  204.2620  152.6020 C   0  0  0  0  0  3  0  0  0  0  0  0
  161.0760  206.4540  151.5430 C   0  0  0  0  0  0  0  0  0  0  0  0
  161.1160  205.0650  151.4820 C   0  0  0  0  0  0  0  0  0  0  0  0
  161.6160  205.3080  149.0900 C   0  0  0  0  0  0  0  0  0  0  0  0
  161.4410  203.0780  150.1390 C   0  0  0  0  0  3  0  0  0  0  0  0
  161.3930  204.4750  150.2220 C   0  0  0  0  0  0  0  0  0  0  0  0
  161.2080  208.5170  150.7220 N   0  0  0  0  0  0  0  0  0  0  0  0
  161.5620  206.6700  149.2200 N   0  0  0  0  0  0  0  0  0  0  0  0
  160.8430  210.9670  154.8990 C   0  0  0  0  0  3  0  0  0  0  0  0
  161.2390  209.9440  154.1350 C   0  0  0  0  0  3  0  0  0  0  0  0
  160.0200  212.1740  152.8740 C   0  0  0  0  0  2  0  0  0  0  0  0
  160.7560  209.8150  152.7400 C   0  0  0  0  0  0  0  0  0  0  0  0
  160.1410  210.8550  152.1590 C   0  0  0  0  0  3  0  0  0  0  0  0
  159.8340  211.9550  154.3810 C   0  0  2  0  0  3  0  0  0  0  0  0
  159.9640  213.1850  155.0830 O   0  0  0  0  0  0  0  0  0  0  0  0
  158.8870  213.7920  155.7330 C   0  0  0  0  0  0  0  0  0  0  0  0
  158.9630  214.1100  156.9510 O   0  0  0  0  0  0  0  0  0  0  0  0
  157.6960  214.0670  155.0080 N   0  0  0  0  0  1  0  0  0  0  0  0
  161.9060  204.7230  147.7440 C   0  0  0  0  0  2  0  0  0  0  0  0
  160.3680  204.4830  145.7060 C   0  0  1  0  0  3  0  0  0  0  0  0
  160.9590  202.6190  146.9220 C   0  0  0  0  0  0  0  0  0  0  0  0
  161.0970  202.3340  145.5530 N   0  0  0  0  0  2  0  0  0  0  0  0
  160.9330  203.4900  144.7790 N   0  0  0  0  0  2  0  0  0  0  0  0
  161.0590  201.7420  147.8200 O   0  0  0  0  0  0  0  0  0  0  0  0
  160.6660  204.0410  147.1580 C   0  0  1  0  0  3  0  0  0  0  0  0
  160.8050  205.8700  145.3390 C   0  0  0  0  0  3  0  0  0  0  0  0
  161.2700  206.1350  144.1210 C   0  0  0  0  0  2  0  0  0  0  0  0
  1 12  2  0  0  0  0
  1  7  1  0  0  0  0
  2  6  1  0  0  0  0
  3  2  2  0  0  0  0
  4  5  1  0  0  0  0
  4 17  1  0  0  0  0
  7  5  2  0  0  0  0
  8  7  1  0  0  0  0
  8  6  2  0  0  0  0
  9 13  2  0  0  0  0
  9 11  1  0  0  0  0
 10 11  2  0  0  0  0
 10  3  1  0  0  0  0
 11  8  1  0  0  0  0
 12  4  1  0  0  0  0
 13  1  1  0  0  0  0
 15 14  2  0  0  0  0
 16 19  1  0  0  0  0
 17 15  1  0  0  0  0
 18 17  2  0  0  0  0
 18 16  1  0  0  0  0
 19 14  1  0  0  0  0
 19 20  1  1  0  0  0
 20 21  1  0  0  0  0
 21 22  2  0  0  0  0
 23 21  1  0  0  0  0
 24  9  1  0  0  0  0
 25 31  1  6  0  0  0
 25 30  1  0  0  0  0
 26 30  1  0  0  0  0
 26 29  2  0  0  0  0
 27 26  1  0  0  0  0
 28 27  1  0  0  0  0
 28 25  1  0  0  0  0
 30 24  1  6  0  0  0
 32 31  2  0  0  0  0
M  END
>  <MODEL>
9

>  <REMARK>
 VINA RESULT:      -5.7      2.188      9.736
  Name = 
  6 active torsions:
  status: ('A' for Active; 'I' for Inactive)
    1  A    between atoms: C_1  and  O_10
    2  A    between atoms: C_6  and  C_7
    3  A    between atoms: N_8  and  C_21
    4  A    between atoms: O_10  and  C_24
    5  A    between atoms: C_16  and  C_27
    6  A    between atoms: C_27  and  C_32
                            x       y       z     vdW  Elec       q    Type
                         _______ _______ _______ _____ _____    ______ ____

>  <TORSDO>
F 6

$$$$
