=
 OpenBabel11052423113D

 27 31  0  0  1  0  0  0  0  0999 V2000
  163.1060  208.4400  149.0760 C   0  0  0  0  0  2  0  0  0  0  0  0
  161.6990  209.5080  150.8780 C   0  0  1  0  0  3  0  0  0  0  0  0
  160.8690  207.2480  150.5790 O   0  0  0  0  0  0  0  0  0  0  0  0
  160.9030  209.0040  155.0360 C   0  0  0  0  0  3  0  0  0  0  0  0
  160.1570  207.6420  156.9910 C   0  0  0  0  0  1  0  0  0  0  0  0
  162.4140  210.4170  151.8700 C   0  0  0  0  0  2  0  0  0  0  0  0
  160.8840  206.7450  153.3920 C   0  0  0  0  0  3  0  0  0  0  0  0
  160.7800  204.6670  148.2370 C   0  0  0  0  0  3  0  0  0  0  0  0
  160.5330  206.6320  154.7390 C   0  0  0  0  0  3  0  0  0  0  0  0
  161.7320  204.5770  147.3110 C   0  0  0  0  0  3  0  0  0  0  0  0
  161.2300  207.9890  152.8480 C   0  0  0  0  0  0  0  0  0  0  0  0
  162.3400  209.5870  149.5610 N   0  0  0  0  0  0  0  0  0  0  0  0
  160.5380  207.7610  155.5590 C   0  0  0  0  0  0  0  0  0  0  0  0
  161.2680  209.1250  153.6920 C   0  0  0  0  0  0  0  0  0  0  0  0
  162.1900  207.3870  148.5300 C   0  0  0  0  0  0  0  0  0  0  0  0
  161.6870  208.0670  151.4120 C   0  0  2  0  0  3  0  0  0  0  0  0
  160.1570  205.9680  148.6110 C   0  0  0  0  0  2  0  0  0  0  0  0
  161.6050  210.4890  153.1590 C   0  0  0  0  0  2  0  0  0  0  0  0
  162.3320  205.7360  146.6250 C   0  0  0  0  0  3  0  0  0  0  0  0
  162.5180  206.9520  147.1520 C   0  0  0  0  0  3  0  0  0  0  0  0
  161.1440  206.8940  149.2440 C   0  0  0  0  0  0  0  0  0  0  0  0
  161.6220  212.9040  146.9930 C   0  0  0  0  0  3  0  0  0  0  0  0
  162.0950  210.7130  148.6910 C   0  0  0  0  0  0  0  0  0  0  0  0
  160.8920  210.8150  147.9720 C   0  0  0  0  0  3  0  0  0  0  0  0
  160.6560  211.9040  147.1300 C   0  0  0  0  0  3  0  0  0  0  0  0
  162.8230  212.8150  147.7010 C   0  0  0  0  0  3  0  0  0  0  0  0
  163.0580  211.7250  148.5450 C   0  0  0  0  0  3  0  0  0  0  0  0
  1 12  1  0  0  0  0
  2 16  1  0  0  0  0
  2  6  1  1  0  0  0
  4 13  1  0  0  0  0
  6 18  1  0  0  0  0
  7  9  1  0  0  0  0
  8 17  1  0  0  0  0
  9 13  2  0  0  0  0
 10  8  2  0  0  0  0
 11  7  2  0  0  0  0
 11 14  1  0  0  0  0
 12  2  1  0  0  0  0
 13  5  1  0  0  0  0
 14  4  2  0  0  0  0
 15  1  1  0  0  0  0
 15 21  2  0  0  0  0
 16  3  1  6  0  0  0
 16 11  1  0  0  0  0
 17 21  1  0  0  0  0
 18 14  1  0  0  0  0
 19 20  2  0  0  0  0
 19 10  1  0  0  0  0
 20 15  1  0  0  0  0
 21  3  1  0  0  0  0
 22 25  2  0  0  0  0
 22 26  1  0  0  0  0
 23 12  1  0  0  0  0
 24 23  2  0  0  0  0
 25 24  1  0  0  0  0
 26 27  2  0  0  0  0
 27 23  1  0  0  0  0
M  END
>  <MODEL>
1

>  <REMARK>
 VINA RESULT:      -6.5      0.000      0.000
  Name = 
  1 active torsions:
  status: ('A' for Active; 'I' for Inactive)
    1  A    between atoms: C_9  and  N_15
                            x       y       z     vdW  Elec       q    Type
                         _______ _______ _______ _____ _____    ______ ____

>  <TORSDO>
F 1

$$$$
=
 OpenBabel11052423113D

 27 31  0  0  1  0  0  0  0  0999 V2000
  161.4740  210.1210  153.7550 C   0  0  0  0  0  2  0  0  0  0  0  0
  161.1970  209.9440  151.2530 C   0  0  1  0  0  3  0  0  0  0  0  0
  159.5610  211.5560  152.0340 O   0  0  0  0  0  0  0  0  0  0  0  0
  161.6390  212.4080  147.8020 C   0  0  0  0  0  3  0  0  0  0  0  0
  161.1160  214.4530  146.4700 C   0  0  0  0  0  1  0  0  0  0  0  0
  162.4670  209.8080  150.4220 C   0  0  0  0  0  2  0  0  0  0  0  0
  160.2870  213.4450  150.0170 C   0  0  0  0  0  3  0  0  0  0  0  0
  157.8100  212.4880  154.9010 C   0  0  0  0  0  3  0  0  0  0  0  0
  160.3670  214.1860  148.8360 C   0  0  0  0  0  3  0  0  0  0  0  0
  158.3180  212.2300  156.1030 C   0  0  0  0  0  3  0  0  0  0  0  0
  160.8660  212.1710  150.0980 C   0  0  0  0  0  0  0  0  0  0  0  0
  161.3700  209.2900  152.5560 N   0  0  0  0  0  0  0  0  0  0  0  0
  161.0380  213.6660  147.7280 C   0  0  0  0  0  0  0  0  0  0  0  0
  161.5760  211.6630  148.9840 C   0  0  0  0  0  0  0  0  0  0  0  0
  160.1180  210.5770  154.2000 C   0  0  0  0  0  0  0  0  0  0  0  0
  160.8380  211.4290  151.4120 C   0  0  2  0  0  3  0  0  0  0  0  0
  157.8500  211.4940  153.7910 C   0  0  0  0  0  2  0  0  0  0  0  0
  162.1930  210.2930  149.0030 C   0  0  0  0  0  2  0  0  0  0  0  0
  159.0430  210.9930  156.4470 C   0  0  0  0  0  3  0  0  0  0  0  0
  159.8120  210.2760  155.6180 C   0  0  0  0  0  3  0  0  0  0  0  0
  159.2500  211.2010  153.3600 C   0  0  0  0  0  0  0  0  0  0  0  0
  161.1210  205.0570  152.9040 C   0  0  0  0  0  3  0  0  0  0  0  0
  161.2830  207.8550  152.6750 C   0  0  0  0  0  0  0  0  0  0  0  0
  161.2070  207.2430  153.9380 C   0  0  0  0  0  3  0  0  0  0  0  0
  161.1250  205.8530  154.0520 C   0  0  0  0  0  3  0  0  0  0  0  0
  161.1960  205.6520  151.6420 C   0  0  0  0  0  3  0  0  0  0  0  0
  161.2760  207.0420  151.5290 C   0  0  0  0  0  3  0  0  0  0  0  0
  1 15  1  0  0  0  0
  2  6  1  6  0  0  0
  2 16  1  0  0  0  0
  2 12  1  0  0  0  0
  3 21  1  0  0  0  0
  4 14  1  0  0  0  0
  5 13  1  0  0  0  0
  7 11  1  0  0  0  0
  8 10  2  0  0  0  0
  9  7  2  0  0  0  0
 10 19  1  0  0  0  0
 12 23  1  0  0  0  0
 12  1  1  0  0  0  0
 13  4  2  0  0  0  0
 13  9  1  0  0  0  0
 14 18  1  0  0  0  0
 14 11  2  0  0  0  0
 15 20  1  0  0  0  0
 16 11  1  6  0  0  0
 16  3  1  0  0  0  0
 17  8  1  0  0  0  0
 18  6  1  0  0  0  0
 20 19  2  0  0  0  0
 21 17  1  0  0  0  0
 21 15  2  0  0  0  0
 22 25  1  0  0  0  0
 23 24  1  0  0  0  0
 24 25  2  0  0  0  0
 26 22  2  0  0  0  0
 27 26  1  0  0  0  0
 27 23  2  0  0  0  0
M  END
>  <MODEL>
2

>  <REMARK>
 VINA RESULT:      -6.0      2.486      7.716
  Name = 
  1 active torsions:
  status: ('A' for Active; 'I' for Inactive)
    1  A    between atoms: C_9  and  N_15
                            x       y       z     vdW  Elec       q    Type
                         _______ _______ _______ _____ _____    ______ ____

>  <TORSDO>
F 1

$$$$
=
 OpenBabel11052423113D

 27 31  0  0  1  0  0  0  0  0999 V2000
  162.8080  210.9490  150.1960 C   0  0  0  0  0  2  0  0  0  0  0  0
  161.4690  208.8260  150.4480 C   0  0  1  0  0  3  0  0  0  0  0  0
  161.2060  209.5600  148.1510 O   0  0  0  0  0  0  0  0  0  0  0  0
  161.4730  204.8410  148.9330 C   0  0  0  0  0  3  0  0  0  0  0  0
  161.4070  203.1920  147.0600 C   0  0  0  0  0  1  0  0  0  0  0  0
  162.0720  207.7230  151.3090 C   0  0  0  0  0  2  0  0  0  0  0  0
  161.7780  206.9530  147.1300 C   0  0  0  0  0  3  0  0  0  0  0  0
  161.4190  212.4160  146.1620 C   0  0  0  0  0  3  0  0  0  0  0  0
  161.6780  205.6410  146.6600 C   0  0  0  0  0  3  0  0  0  0  0  0
  162.2090  213.4220  146.5280 C   0  0  0  0  0  3  0  0  0  0  0  0
  161.7090  207.2250  148.5030 C   0  0  0  0  0  0  0  0  0  0  0  0
  161.8590  210.1440  150.9620 N   0  0  0  0  0  0  0  0  0  0  0  0
  161.5210  204.5870  147.5610 C   0  0  0  0  0  0  0  0  0  0  0  0
  161.5860  206.1490  149.4150 C   0  0  0  0  0  0  0  0  0  0  0  0
  162.1180  211.6350  149.0560 C   0  0  0  0  0  0  0  0  0  0  0  0
  161.9060  208.6410  148.9870 C   0  0  2  0  0  3  0  0  0  0  0  0
  160.5500  211.6950  147.1350 C   0  0  0  0  0  2  0  0  0  0  0  0
  161.4780  206.3820  150.8950 C   0  0  0  0  0  2  0  0  0  0  0  0
  162.3820  213.8750  147.9200 C   0  0  0  0  0  3  0  0  0  0  0  0
  162.3310  213.1010  149.0110 C   0  0  0  0  0  3  0  0  0  0  0  0
  161.3540  210.9600  148.1580 C   0  0  0  0  0  0  0  0  0  0  0  0
  159.9390  211.7960  154.3810 C   0  0  0  0  0  3  0  0  0  0  0  0
  161.2060  210.7030  152.1210 C   0  0  0  0  0  0  0  0  0  0  0  0
  160.1390  211.6060  151.9770 C   0  0  0  0  0  3  0  0  0  0  0  0
  159.5080  212.1480  153.1000 C   0  0  0  0  0  3  0  0  0  0  0  0
  160.9980  210.9000  154.5390 C   0  0  0  0  0  3  0  0  0  0  0  0
  161.6280  210.3560  153.4160 C   0  0  0  0  0  3  0  0  0  0  0  0
  1 12  1  0  0  0  0
  2 12  1  0  0  0  0
  2  6  1  1  0  0  0
  3 21  1  0  0  0  0
  4 14  1  0  0  0  0
  5 13  1  0  0  0  0
  7 11  1  0  0  0  0
  8 10  2  0  0  0  0
  8 17  1  0  0  0  0
  9  7  2  0  0  0  0
  9 13  1  0  0  0  0
 10 19  1  0  0  0  0
 11 16  1  0  0  0  0
 11 14  2  0  0  0  0
 12 23  1  0  0  0  0
 13  4  2  0  0  0  0
 14 18  1  0  0  0  0
 15  1  1  0  0  0  0
 16  3  1  6  0  0  0
 16  2  1  0  0  0  0
 17 21  1  0  0  0  0
 18  6  1  0  0  0  0
 19 20  2  0  0  0  0
 20 15  1  0  0  0  0
 21 15  2  0  0  0  0
 22 26  1  0  0  0  0
 23 27  1  0  0  0  0
 24 23  2  0  0  0  0
 24 25  1  0  0  0  0
 25 22  2  0  0  0  0
 27 26  2  0  0  0  0
M  END
>  <MODEL>
3

>  <REMARK>
 VINA RESULT:      -5.7      1.801      6.067
  Name = 
  1 active torsions:
  status: ('A' for Active; 'I' for Inactive)
    1  A    between atoms: C_9  and  N_15
                            x       y       z     vdW  Elec       q    Type
                         _______ _______ _______ _____ _____    ______ ____

>  <TORSDO>
F 1

$$$$
=
 OpenBabel11052423113D

 27 31  0  0  1  0  0  0  0  0999 V2000
  162.3330  207.1480  152.8040 C   0  0  0  0  0  2  0  0  0  0  0  0
  161.5540  207.8700  150.5150 C   0  0  1  0  0  3  0  0  0  0  0  0
  160.5970  209.4260  152.1120 O   0  0  0  0  0  0  0  0  0  0  0  0
  161.9970  211.1960  147.8860 C   0  0  0  0  0  3  0  0  0  0  0  0
  161.8130  213.6290  147.3540 C   0  0  0  0  0  1  0  0  0  0  0  0
  162.5590  207.7650  149.3750 C   0  0  0  0  0  2  0  0  0  0  0  0
  161.4200  211.6900  150.5750 C   0  0  0  0  0  3  0  0  0  0  0  0
  159.7370  209.6870  155.4800 C   0  0  0  0  0  3  0  0  0  0  0  0
  161.4760  212.7490  149.6660 C   0  0  0  0  0  3  0  0  0  0  0  0
  160.3710  208.9480  156.3860 C   0  0  0  0  0  3  0  0  0  0  0  0
  161.6330  210.3730  150.1470 C   0  0  0  0  0  0  0  0  0  0  0  0
  161.7820  206.8010  151.4940 N   0  0  0  0  0  0  0  0  0  0  0  0
  161.7610  212.5020  148.3220 C   0  0  0  0  0  0  0  0  0  0  0  0
  161.9560  210.1300  148.7900 C   0  0  0  0  0  0  0  0  0  0  0  0
  161.2620  207.6930  153.6990 C   0  0  0  0  0  0  0  0  0  0  0  0
  161.6510  209.2580  151.1650 C   0  0  2  0  0  3  0  0  0  0  0  0
  159.2950  209.1300  154.1700 C   0  0  0  0  0  2  0  0  0  0  0  0
  162.1670  208.7370  148.2690 C   0  0  0  0  0  2  0  0  0  0  0  0
  160.7820  207.5480  156.1740 C   0  0  0  0  0  3  0  0  0  0  0  0
  161.1550  207.0070  155.0080 C   0  0  0  0  0  3  0  0  0  0  0  0
  160.4550  208.7210  153.3220 C   0  0  0  0  0  0  0  0  0  0  0  0
  160.4560  202.8330  150.7170 C   0  0  0  0  0  3  0  0  0  0  0  0
  161.3310  205.4560  151.2320 C   0  0  0  0  0  0  0  0  0  0  0  0
  161.2670  204.5060  152.2660 C   0  0  0  0  0  3  0  0  0  0  0  0
  160.8310  203.2030  152.0110 C   0  0  0  0  0  3  0  0  0  0  0  0
  160.5150  203.7670  149.6800 C   0  0  0  0  0  3  0  0  0  0  0  0
  160.9490  205.0700  149.9360 C   0  0  0  0  0  3  0  0  0  0  0  0
  1 15  1  0  0  0  0
  2  6  1  6  0  0  0
  2 16  1  0  0  0  0
  2 12  1  0  0  0  0
  3 21  1  0  0  0  0
  4 13  2  0  0  0  0
  4 14  1  0  0  0  0
  5 13  1  0  0  0  0
  8 10  2  0  0  0  0
  9  7  2  0  0  0  0
 11  7  1  0  0  0  0
 12  1  1  0  0  0  0
 13  9  1  0  0  0  0
 14 11  2  0  0  0  0
 15 20  1  0  0  0  0
 16 11  1  6  0  0  0
 16  3  1  0  0  0  0
 17  8  1  0  0  0  0
 18 14  1  0  0  0  0
 18  6  1  0  0  0  0
 19 10  1  0  0  0  0
 20 19  2  0  0  0  0
 21 15  2  0  0  0  0
 21 17  1  0  0  0  0
 22 25  1  0  0  0  0
 23 12  1  0  0  0  0
 23 24  1  0  0  0  0
 25 24  2  0  0  0  0
 26 27  1  0  0  0  0
 26 22  2  0  0  0  0
 27 23  2  0  0  0  0
M  END
>  <MODEL>
4

>  <REMARK>
 VINA RESULT:      -5.6      1.838      7.107
  Name = 
  1 active torsions:
  status: ('A' for Active; 'I' for Inactive)
    1  A    between atoms: C_9  and  N_15
                            x       y       z     vdW  Elec       q    Type
                         _______ _______ _______ _____ _____    ______ ____

>  <TORSDO>
F 1

$$$$
=
 OpenBabel11052423113D

 27 31  0  0  1  0  0  0  0  0999 V2000
  162.5730  204.1530  148.2840 C   0  0  0  0  0  2  0  0  0  0  0  0
  161.5210  206.3710  148.8670 C   0  0  1  0  0  3  0  0  0  0  0  0
  160.5500  204.7160  150.3510 O   0  0  0  0  0  0  0  0  0  0  0  0
  161.3710  209.0760  152.1590 C   0  0  0  0  0  3  0  0  0  0  0  0
  160.8830  209.6210  154.5460 C   0  0  0  0  0  1  0  0  0  0  0  0
  162.4250  207.5970  148.8410 C   0  0  0  0  0  2  0  0  0  0  0  0
  160.9870  206.3520  152.6520 C   0  0  0  0  0  3  0  0  0  0  0  0
  159.9710  201.2870  150.5990 C   0  0  0  0  0  3  0  0  0  0  0  0
  160.8500  207.2770  153.6900 C   0  0  0  0  0  3  0  0  0  0  0  0
  160.7590  200.4320  149.9520 C   0  0  0  0  0  3  0  0  0  0  0  0
  161.3000  206.7790  151.3550 C   0  0  0  0  0  0  0  0  0  0  0  0
  161.9480  205.4020  147.8510 N   0  0  0  0  0  0  0  0  0  0  0  0
  161.0370  208.6370  153.4430 C   0  0  0  0  0  0  0  0  0  0  0  0
  161.5240  208.1560  151.1160 C   0  0  0  0  0  0  0  0  0  0  0  0
  161.5340  203.1720  148.7350 C   0  0  0  0  0  0  0  0  0  0  0  0
  161.5270  205.7520  150.2730 C   0  0  2  0  0  3  0  0  0  0  0  0
  159.4760  202.5430  149.9690 C   0  0  0  0  0  2  0  0  0  0  0  0
  161.8350  208.6760  149.7410 C   0  0  0  0  0  2  0  0  0  0  0  0
  161.2960  200.6620  148.5980 C   0  0  0  0  0  3  0  0  0  0  0  0
  161.6190  201.8500  148.0720 C   0  0  0  0  0  3  0  0  0  0  0  0
  160.5930  203.4880  149.6640 C   0  0  0  0  0  0  0  0  0  0  0  0
  160.9820  205.9890  143.7490 C   0  0  0  0  0  3  0  0  0  0  0  0
  161.6200  205.6030  146.4600 C   0  0  0  0  0  0  0  0  0  0  0  0
  160.4050  206.2040  146.0890 C   0  0  0  0  0  3  0  0  0  0  0  0
  160.0880  206.3970  144.7420 C   0  0  0  0  0  3  0  0  0  0  0  0
  162.1930  205.3900  144.1030 C   0  0  0  0  0  3  0  0  0  0  0  0
  162.5100  205.1990  145.4510 C   0  0  0  0  0  3  0  0  0  0  0  0
  1 15  1  0  0  0  0
  2  6  1  1  0  0  0
  2 16  1  0  0  0  0
  4 13  1  0  0  0  0
  6 18  1  0  0  0  0
  7  9  1  0  0  0  0
 10  8  2  0  0  0  0
 11  7  2  0  0  0  0
 12  1  1  0  0  0  0
 12  2  1  0  0  0  0
 13  9  2  0  0  0  0
 13  5  1  0  0  0  0
 14 11  1  0  0  0  0
 14  4  2  0  0  0  0
 15 21  2  0  0  0  0
 16  3  1  6  0  0  0
 16 11  1  0  0  0  0
 17  8  1  0  0  0  0
 18 14  1  0  0  0  0
 19 10  1  0  0  0  0
 20 19  2  0  0  0  0
 20 15  1  0  0  0  0
 21 17  1  0  0  0  0
 21  3  1  0  0  0  0
 22 26  2  0  0  0  0
 22 25  1  0  0  0  0
 23 12  1  0  0  0  0
 24 23  1  0  0  0  0
 25 24  2  0  0  0  0
 26 27  1  0  0  0  0
 27 23  2  0  0  0  0
M  END
>  <MODEL>
5

>  <REMARK>
 VINA RESULT:      -5.6      2.421      4.535
  Name = 
  1 active torsions:
  status: ('A' for Active; 'I' for Inactive)
    1  A    between atoms: C_9  and  N_15
                            x       y       z     vdW  Elec       q    Type
                         _______ _______ _______ _____ _____    ______ ____

>  <TORSDO>
F 1

$$$$
=
 OpenBabel11052423113D

 27 31  0  0  1  0  0  0  0  0999 V2000
  160.2450  213.9380  139.7830 C   0  0  0  0  0  2  0  0  0  0  0  0
  159.9940  212.5780  141.8930 C   0  0  1  0  0  3  0  0  0  0  0  0
  162.3640  212.6580  141.3800 O   0  0  0  0  0  0  0  0  0  0  0  0
  161.1100  212.8080  146.0010 C   0  0  0  0  0  3  0  0  0  0  0  0
  162.8100  213.0210  147.8170 C   0  0  0  0  0  1  0  0  0  0  0  0
  158.9540  213.0470  142.9030 C   0  0  0  0  0  2  0  0  0  0  0  0
  163.0400  213.3760  144.0610 C   0  0  0  0  0  3  0  0  0  0  0  0
  164.5590  213.1610  138.7180 C   0  0  0  0  0  3  0  0  0  0  0  0
  163.3940  213.3470  145.4120 C   0  0  0  0  0  3  0  0  0  0  0  0
  164.1760  213.8880  137.6710 C   0  0  0  0  0  3  0  0  0  0  0  0
  161.7240  213.1040  143.6650 C   0  0  0  0  0  0  0  0  0  0  0  0
  159.5540  212.8870  140.5280 N   0  0  0  0  0  0  0  0  0  0  0  0
  162.4310  213.0590  146.3810 C   0  0  0  0  0  0  0  0  0  0  0  0
  160.7430  212.8470  144.6520 C   0  0  0  0  0  0  0  0  0  0  0  0
  161.5330  213.4240  139.2160 C   0  0  0  0  0  0  0  0  0  0  0  0
  161.3510  213.2260  142.2070 C   0  0  2  0  0  3  0  0  0  0  0  0
  163.6610  212.1580  139.3580 C   0  0  0  0  0  2  0  0  0  0  0  0
  159.3230  212.5220  144.2850 C   0  0  0  0  0  2  0  0  0  0  0  0
  162.8230  213.8530  137.0870 C   0  0  0  0  0  3  0  0  0  0  0  0
  161.6840  213.6410  137.7580 C   0  0  0  0  0  3  0  0  0  0  0  0
  162.4670  212.8020  139.9830 C   0  0  0  0  0  0  0  0  0  0  0  0
  156.6300  210.4690  138.6010 C   0  0  0  0  0  3  0  0  0  0  0  0
  158.5620  212.0690  139.8730 C   0  0  0  0  0  0  0  0  0  0  0  0
  157.2440  212.5300  139.7120 C   0  0  0  0  0  3  0  0  0  0  0  0
  156.2840  211.7360  139.0790 C   0  0  0  0  0  3  0  0  0  0  0  0
  157.9360  209.9980  138.7540 C   0  0  0  0  0  3  0  0  0  0  0  0
  158.8960  210.7940  139.3860 C   0  0  0  0  0  3  0  0  0  0  0  0
  1 12  1  0  0  0  0
  2 16  1  0  0  0  0
  2  6  1  1  0  0  0
  4 13  1  0  0  0  0
  6 18  1  0  0  0  0
  7  9  1  0  0  0  0
  8 17  1  0  0  0  0
  9 13  2  0  0  0  0
 10  8  2  0  0  0  0
 11  7  2  0  0  0  0
 11 14  1  0  0  0  0
 12  2  1  0  0  0  0
 13  5  1  0  0  0  0
 14  4  2  0  0  0  0
 15  1  1  0  0  0  0
 15 21  2  0  0  0  0
 16  3  1  6  0  0  0
 16 11  1  0  0  0  0
 17 21  1  0  0  0  0
 18 14  1  0  0  0  0
 19 10  1  0  0  0  0
 19 20  2  0  0  0  0
 20 15  1  0  0  0  0
 21  3  1  0  0  0  0
 22 26  2  0  0  0  0
 22 25  1  0  0  0  0
 23 12  1  0  0  0  0
 24 23  1  0  0  0  0
 25 24  2  0  0  0  0
 26 27  1  0  0  0  0
 27 23  2  0  0  0  0
M  END
>  <MODEL>
6

>  <REMARK>
 VINA RESULT:      -5.4      7.117     10.817
  Name = 
  1 active torsions:
  status: ('A' for Active; 'I' for Inactive)
    1  A    between atoms: C_9  and  N_15
                            x       y       z     vdW  Elec       q    Type
                         _______ _______ _______ _____ _____    ______ ____

>  <TORSDO>
F 1

$$$$
=
 OpenBabel11052423113D

 27 31  0  0  1  0  0  0  0  0999 V2000
  162.6620  207.9120  152.0540 C   0  0  0  0  0  2  0  0  0  0  0  0
  161.0850  205.9450  151.9560 C   0  0  1  0  0  3  0  0  0  0  0  0
  161.1220  206.9330  149.7410 O   0  0  0  0  0  0  0  0  0  0  0  0
  160.8030  202.1600  150.0150 C   0  0  0  0  0  3  0  0  0  0  0  0
  160.7390  200.7280  147.9710 C   0  0  0  0  0  1  0  0  0  0  0  0
  161.4800  204.6980  152.7370 C   0  0  0  0  0  2  0  0  0  0  0  0
  161.5050  204.3930  148.4880 C   0  0  0  0  0  3  0  0  0  0  0  0
  161.8290  209.9300  148.1060 C   0  0  0  0  0  3  0  0  0  0  0  0
  161.3090  203.1560  147.8690 C   0  0  0  0  0  3  0  0  0  0  0  0
  162.6850  210.7940  148.6460 C   0  0  0  0  0  3  0  0  0  0  0  0
  161.3350  204.5310  149.8720 C   0  0  0  0  0  0  0  0  0  0  0  0
  161.5630  207.1500  152.6450 N   0  0  0  0  0  0  0  0  0  0  0  0
  160.9540  202.0420  148.6310 C   0  0  0  0  0  0  0  0  0  0  0  0
  161.0100  203.3910  150.6460 C   0  0  0  0  0  0  0  0  0  0  0  0
  162.1620  208.7850  150.9440 C   0  0  0  0  0  0  0  0  0  0  0  0
  161.6360  205.8580  150.5250 C   0  0  2  0  0  3  0  0  0  0  0  0
  160.7990  209.2210  148.9170 C   0  0  0  0  0  2  0  0  0  0  0  0
  160.7880  203.4840  152.1290 C   0  0  0  0  0  2  0  0  0  0  0  0
  162.7720  211.0820  150.0890 C   0  0  0  0  0  3  0  0  0  0  0  0
  162.5340  210.2130  151.0790 C   0  0  0  0  0  3  0  0  0  0  0  0
  161.4180  208.2980  149.9150 C   0  0  0  0  0  0  0  0  0  0  0  0
  159.5140  208.6580  156.0550 C   0  0  0  0  0  3  0  0  0  0  0  0
  160.8670  207.6620  153.8000 C   0  0  0  0  0  0  0  0  0  0  0  0
  160.5960  209.0350  153.9230 C   0  0  0  0  0  3  0  0  0  0  0  0
  159.9220  209.5300  155.0430 C   0  0  0  0  0  3  0  0  0  0  0  0
  159.7770  207.2910  155.9450 C   0  0  0  0  0  3  0  0  0  0  0  0
  160.4490  206.7960  154.8240 C   0  0  0  0  0  3  0  0  0  0  0  0
  1 12  1  0  0  0  0
  2 12  1  0  0  0  0
  2  6  1  1  0  0  0
  3 21  1  0  0  0  0
  4 14  1  0  0  0  0
  5 13  1  0  0  0  0
  7 11  1  0  0  0  0
  8 10  2  0  0  0  0
  8 17  1  0  0  0  0
  9  7  2  0  0  0  0
  9 13  1  0  0  0  0
 10 19  1  0  0  0  0
 11 16  1  0  0  0  0
 11 14  2  0  0  0  0
 12 23  1  0  0  0  0
 13  4  2  0  0  0  0
 14 18  1  0  0  0  0
 15 20  1  0  0  0  0
 15  1  1  0  0  0  0
 16  3  1  6  0  0  0
 16  2  1  0  0  0  0
 17 21  1  0  0  0  0
 18  6  1  0  0  0  0
 19 20  2  0  0  0  0
 21 15  2  0  0  0  0
 23 24  2  0  0  0  0
 23 27  1  0  0  0  0
 24 25  1  0  0  0  0
 25 22  2  0  0  0  0
 26 22  1  0  0  0  0
 27 26  2  0  0  0  0
M  END
>  <MODEL>
7

>  <REMARK>
 VINA RESULT:      -4.7      1.962      6.533
  Name = 
  1 active torsions:
  status: ('A' for Active; 'I' for Inactive)
    1  A    between atoms: C_9  and  N_15
                            x       y       z     vdW  Elec       q    Type
                         _______ _______ _______ _____ _____    ______ ____

>  <TORSDO>
F 1

$$$$
=
 OpenBabel11052423113D

 27 31  0  0  1  0  0  0  0  0999 V2000
  159.8700  210.6910  151.6930 C   0  0  0  0  0  2  0  0  0  0  0  0
  161.3520  208.9170  150.6840 C   0  0  1  0  0  3  0  0  0  0  0  0
  161.5500  208.7180  153.0940 O   0  0  0  0  0  0  0  0  0  0  0  0
  161.6110  204.6630  150.5420 C   0  0  0  0  0  3  0  0  0  0  0  0
  161.7770  202.4250  151.6360 C   0  0  0  0  0  1  0  0  0  0  0  0
  160.8310  208.1990  149.4450 C   0  0  0  0  0  2  0  0  0  0  0  0
  161.1510  205.8900  153.0110 C   0  0  0  0  0  3  0  0  0  0  0  0
  161.1310  210.5630  156.0220 C   0  0  0  0  0  3  0  0  0  0  0  0
  161.3380  204.5070  152.9410 C   0  0  0  0  0  3  0  0  0  0  0  0
  160.2760  211.5820  156.0480 C   0  0  0  0  0  3  0  0  0  0  0  0
  161.2100  206.6750  151.8520 C   0  0  0  0  0  0  0  0  0  0  0  0
  160.8760  210.3040  150.7060 N   0  0  0  0  0  0  0  0  0  0  0  0
  161.5720  203.8960  151.7080 C   0  0  0  0  0  0  0  0  0  0  0  0
  161.4120  206.0470  150.6000 C   0  0  0  0  0  0  0  0  0  0  0  0
  160.5050  210.9230  153.0310 C   0  0  0  0  0  0  0  0  0  0  0  0
  160.9200  208.1540  151.9460 C   0  0  2  0  0  3  0  0  0  0  0  0
  162.0530  210.3290  154.8750 C   0  0  0  0  0  2  0  0  0  0  0  0
  161.5120  206.8400  149.3280 C   0  0  0  0  0  2  0  0  0  0  0  0
  160.0810  212.5280  154.9340 C   0  0  0  0  0  3  0  0  0  0  0  0
  160.1920  212.2410  153.6310 C   0  0  0  0  0  3  0  0  0  0  0  0
  161.3070  210.0000  153.6230 C   0  0  0  0  0  0  0  0  0  0  0  0
  162.7060  213.2580  148.2480 C   0  0  0  0  0  3  0  0  0  0  0  0
  161.4970  211.3070  149.8740 C   0  0  0  0  0  0  0  0  0  0  0  0
  160.9800  212.6130  149.8180 C   0  0  0  0  0  3  0  0  0  0  0  0
  161.5810  213.5820  149.0110 C   0  0  0  0  0  3  0  0  0  0  0  0
  163.2300  211.9630  148.2950 C   0  0  0  0  0  3  0  0  0  0  0  0
  162.6290  210.9940  149.1030 C   0  0  0  0  0  3  0  0  0  0  0  0
  1 15  1  0  0  0  0
  2  6  1  6  0  0  0
  2 12  1  0  0  0  0
  2 16  1  0  0  0  0
  3 21  1  0  0  0  0
  4 14  2  0  0  0  0
  4 13  1  0  0  0  0
  5 13  1  0  0  0  0
  8 10  2  0  0  0  0
  9  7  1  0  0  0  0
 11  7  2  0  0  0  0
 12  1  1  0  0  0  0
 13  9  2  0  0  0  0
 14 11  1  0  0  0  0
 15 21  2  0  0  0  0
 15 20  1  0  0  0  0
 16 11  1  6  0  0  0
 16  3  1  0  0  0  0
 17  8  1  0  0  0  0
 18  6  1  0  0  0  0
 18 14  1  0  0  0  0
 19 10  1  0  0  0  0
 20 19  2  0  0  0  0
 21 17  1  0  0  0  0
 22 26  2  0  0  0  0
 22 25  1  0  0  0  0
 23 12  1  0  0  0  0
 24 23  1  0  0  0  0
 25 24  2  0  0  0  0
 26 27  1  0  0  0  0
 27 23  2  0  0  0  0
M  END
>  <MODEL>
8

>  <REMARK>
 VINA RESULT:      -3.9      2.042      5.457
  Name = 
  1 active torsions:
  status: ('A' for Active; 'I' for Inactive)
    1  A    between atoms: C_9  and  N_15
                            x       y       z     vdW  Elec       q    Type
                         _______ _______ _______ _____ _____    ______ ____

>  <TORSDO>
F 1

$$$$
=
 OpenBabel11052423113D

 27 31  0  0  1  0  0  0  0  0999 V2000
  159.8270  209.5770  152.7860 C   0  0  0  0  0  2  0  0  0  0  0  0
  160.8330  211.7480  151.9870 C   0  0  1  0  0  3  0  0  0  0  0  0
  161.8250  209.9760  150.6590 O   0  0  0  0  0  0  0  0  0  0  0  0
  160.9120  214.1280  148.4510 C   0  0  0  0  0  3  0  0  0  0  0  0
  161.3750  214.4530  146.0190 C   0  0  0  0  0  1  0  0  0  0  0  0
  159.9070  212.9540  151.9030 C   0  0  0  0  0  2  0  0  0  0  0  0
  161.3440  211.3770  148.2160 C   0  0  0  0  0  3  0  0  0  0  0  0
  162.4670  206.5500  150.7330 C   0  0  0  0  0  3  0  0  0  0  0  0
  161.4580  212.2020  147.0940 C   0  0  0  0  0  3  0  0  0  0  0  0
  161.6990  205.7470  151.4650 C   0  0  0  0  0  3  0  0  0  0  0  0
  161.0310  211.9210  149.4690 C   0  0  0  0  0  0  0  0  0  0  0  0
  160.4310  210.8720  153.0940 N   0  0  0  0  0  0  0  0  0  0  0  0
  161.2460  213.5760  147.2120 C   0  0  0  0  0  0  0  0  0  0  0  0
  160.7830  213.3100  149.5780 C   0  0  0  0  0  0  0  0  0  0  0  0
  160.8810  208.5760  152.4220 C   0  0  0  0  0  0  0  0  0  0  0  0
  160.8300  210.9970  150.6460 C   0  0  2  0  0  3  0  0  0  0  0  0
  162.9420  207.8690  151.2370 C   0  0  0  0  0  2  0  0  0  0  0  0
  160.4710  213.9530  150.9000 C   0  0  0  0  0  2  0  0  0  0  0  0
  161.1670  206.0950  152.7950 C   0  0  0  0  0  3  0  0  0  0  0  0
  160.8250  207.3210  153.2080 C   0  0  0  0  0  3  0  0  0  0  0  0
  161.8100  208.8180  151.4600 C   0  0  0  0  0  0  0  0  0  0  0  0
  161.4060  211.8680  157.1140 C   0  0  0  0  0  3  0  0  0  0  0  0
  160.7640  211.2110  154.4560 C   0  0  0  0  0  0  0  0  0  0  0  0
  161.9260  210.7000  155.0590 C   0  0  0  0  0  3  0  0  0  0  0  0
  162.2460  211.0280  156.3790 C   0  0  0  0  0  3  0  0  0  0  0  0
  160.2470  212.3820  156.5280 C   0  0  0  0  0  3  0  0  0  0  0  0
  159.9280  212.0550  155.2070 C   0  0  0  0  0  3  0  0  0  0  0  0
  1 12  1  0  0  0  0
  2  6  1  6  0  0  0
  2 12  1  0  0  0  0
  3 21  1  0  0  0  0
  4 14  1  0  0  0  0
  5 13  1  0  0  0  0
  7 11  1  0  0  0  0
  8 17  1  0  0  0  0
  8 10  2  0  0  0  0
  9 13  1  0  0  0  0
  9  7  2  0  0  0  0
 10 19  1  0  0  0  0
 11 14  2  0  0  0  0
 12 23  1  0  0  0  0
 13  4  2  0  0  0  0
 14 18  1  0  0  0  0
 15  1  1  0  0  0  0
 15 20  1  0  0  0  0
 16 11  1  6  0  0  0
 16  3  1  0  0  0  0
 16  2  1  0  0  0  0
 17 21  1  0  0  0  0
 18  6  1  0  0  0  0
 19 20  2  0  0  0  0
 21 15  2  0  0  0  0
 23 24  2  0  0  0  0
 23 27  1  0  0  0  0
 24 25  1  0  0  0  0
 25 22  2  0  0  0  0
 26 22  1  0  0  0  0
 27 26  2  0  0  0  0
M  END
>  <MODEL>
9

>  <REMARK>
 VINA RESULT:      -3.8      2.411      6.712
  Name = 
  1 active torsions:
  status: ('A' for Active; 'I' for Inactive)
    1  A    between atoms: C_9  and  N_15
                            x       y       z     vdW  Elec       q    Type
                         _______ _______ _______ _____ _____    ______ ____

>  <TORSDO>
F 1

$$$$
