=
 OpenBabel11052423123D

 27 31  0  0  1  0  0  0  0  0999 V2000
  160.5050  208.1050  153.3250 C   0  0  0  0  0  3  0  0  0  0  0  0
  160.0110  210.3270  152.3630 C   0  0  1  0  0  3  0  0  0  0  0  0
  160.2000  211.1880  154.7080 N   0  0  0  0  0  0  0  0  0  0  0  0
  157.7470  213.7090  152.3860 N   0  0  0  0  0  0  0  0  0  0  0  0
  155.6640  214.3800  153.9660 S   0  0  0  0  0  0  0  0  0  0  0  0
  160.4810  211.5570  151.5990 C   0  0  0  0  0  3  0  0  0  0  0  0
  157.2130  212.1010  154.0430 C   0  0  0  0  0  0  0  0  0  0  0  0
  162.9070  210.9270  157.1520 C   0  0  0  0  0  3  0  0  0  0  0  0
  156.6540  211.4790  155.2780 C   0  0  0  0  0  1  0  0  0  0  0  0
  163.0850  209.6100  157.2610 C   0  0  0  0  0  2  0  0  0  0  0  0
  158.2860  211.7100  153.3810 C   0  0  0  0  0  0  0  0  0  0  0  0
  161.0200  209.1770  152.4100 C   0  0  2  0  0  3  0  0  0  0  0  0
  156.8130  213.3580  153.4110 C   0  0  0  0  0  0  0  0  0  0  0  0
  158.5770  212.7180  152.3800 C   0  0  0  0  0  0  0  0  0  0  0  0
  160.7380  208.1550  154.6380 C   0  0  0  0  0  3  0  0  0  0  0  0
  159.2880  210.6480  153.7010 C   0  0  1  0  0  3  0  0  0  0  0  0
  161.8640  211.4530  156.3240 N   0  0  0  0  0  0  0  0  0  0  0  0
  159.7640  212.6480  151.5840 N   0  0  0  0  0  0  0  0  0  0  0  0
  162.1390  208.6520  156.5980 C   0  0  0  0  0  2  0  0  0  0  0  0
  161.6390  209.1860  155.2550 C   0  0  2  0  0  3  0  0  0  0  0  0
  161.1350  210.6180  155.4160 C   0  0  0  0  0  0  0  0  0  0  0  0
  161.7350  207.5310  148.5020 C   0  0  0  0  0  3  0  0  0  0  0  0
  161.2840  208.6170  151.0450 C   0  0  0  0  0  0  0  0  0  0  0  0
  160.8340  207.3270  150.7410 C   0  0  0  0  0  3  0  0  0  0  0  0
  161.0610  206.7850  149.4720 C   0  0  0  0  0  3  0  0  0  0  0  0
  162.1830  208.8210  148.7980 C   0  0  0  0  0  3  0  0  0  0  0  0
  161.9590  209.3650  150.0660 C   0  0  0  0  0  3  0  0  0  0  0  0
  1 15  2  0  0  0  0
  2  6  1  1  0  0  0
  2 12  1  0  0  0  0
  2 16  1  0  0  0  0
  3 21  2  0  0  0  0
  4 13  1  0  0  0  0
  7  9  1  0  0  0  0
  8 10  1  0  0  0  0
 11  7  2  0  0  0  0
 12 23  1  6  0  0  0
 12  1  1  0  0  0  0
 13  5  2  0  0  0  0
 13  7  1  0  0  0  0
 14  4  2  0  0  0  0
 14 11  1  0  0  0  0
 16 11  1  6  0  0  0
 16  3  1  0  0  0  0
 17  8  2  0  0  0  0
 18  6  2  0  0  0  0
 18 14  1  0  0  0  0
 19 10  1  0  0  0  0
 20 15  1  1  0  0  0
 20 21  1  0  0  0  0
 20 19  1  0  0  0  0
 21 17  1  0  0  0  0
 22 26  2  0  0  0  0
 22 25  1  0  0  0  0
 24 23  1  0  0  0  0
 25 24  2  0  0  0  0
 26 27  1  0  0  0  0
 27 23  2  0  0  0  0
M  END
>  <MODEL>
1

>  <REMARK>
 VINA RESULT:      -6.8      0.000      0.000
  Name = 
  1 active torsions:
  status: ('A' for Active; 'I' for Inactive)
    1  A    between atoms: C_9  and  C_15
                            x       y       z     vdW  Elec       q    Type
                         _______ _______ _______ _____ _____    ______ ____

>  <TORSDO>
F 1

$$$$
=
 OpenBabel11052423123D

 27 31  0  0  1  0  0  0  0  0999 V2000
  160.1290  207.6350  153.7180 C   0  0  0  0  0  3  0  0  0  0  0  0
  161.1310  208.7900  151.7770 C   0  0  1  0  0  3  0  0  0  0  0  0
  161.6680  210.6390  153.3810 N   0  0  0  0  0  0  0  0  0  0  0  0
  161.3700  212.1170  149.4450 N   0  0  0  0  0  0  0  0  0  0  0  0
  160.0300  214.4530  149.6270 S   0  0  0  0  0  0  0  0  0  0  0  0
  162.2900  208.9490  150.8030 C   0  0  0  0  0  3  0  0  0  0  0  0
  159.8820  212.2540  151.2830 C   0  0  0  0  0  0  0  0  0  0  0  0
  163.5260  210.6230  156.5300 C   0  0  0  0  0  3  0  0  0  0  0  0
  158.9920  212.8150  152.3400 C   0  0  0  0  0  1  0  0  0  0  0  0
  162.8670  209.7240  157.2610 C   0  0  0  0  0  2  0  0  0  0  0  0
  160.5360  211.1090  151.3320 C   0  0  0  0  0  0  0  0  0  0  0  0
  161.2360  207.5800  152.7080 C   0  0  2  0  0  3  0  0  0  0  0  0
  160.3580  212.9120  150.0670 C   0  0  0  0  0  0  0  0  0  0  0  0
  161.4330  211.0650  150.1930 C   0  0  0  0  0  0  0  0  0  0  0  0
  160.2700  208.3220  154.8530 C   0  0  0  0  0  3  0  0  0  0  0  0
  160.6740  210.1180  152.4430 C   0  0  1  0  0  3  0  0  0  0  0  0
  163.0600  210.9790  155.2230 N   0  0  0  0  0  0  0  0  0  0  0  0
  162.3790  210.0040  150.0380 N   0  0  0  0  0  0  0  0  0  0  0  0
  161.5730  209.1400  156.7720 C   0  0  0  0  0  2  0  0  0  0  0  0
  161.5740  208.9500  155.2550 C   0  0  2  0  0  3  0  0  0  0  0  0
  162.0280  210.2340  154.5670 C   0  0  0  0  0  0  0  0  0  0  0  0
  161.0860  203.8510  150.5700 C   0  0  0  0  0  3  0  0  0  0  0  0
  161.1850  206.2910  151.9450 C   0  0  0  0  0  0  0  0  0  0  0  0
  161.4730  205.0950  152.6130 C   0  0  0  0  0  3  0  0  0  0  0  0
  161.4250  203.8770  151.9260 C   0  0  0  0  0  3  0  0  0  0  0  0
  160.7960  205.0420  149.8990 C   0  0  0  0  0  3  0  0  0  0  0  0
  160.8440  206.2600  150.5830 C   0  0  0  0  0  3  0  0  0  0  0  0
  1 15  2  0  0  0  0
  2  6  1  1  0  0  0
  2 16  1  0  0  0  0
  2 12  1  0  0  0  0
  3 21  2  0  0  0  0
  4 13  1  0  0  0  0
  4 14  2  0  0  0  0
  5 13  2  0  0  0  0
  7 11  2  0  0  0  0
  7  9  1  0  0  0  0
  8 10  1  0  0  0  0
 12 23  1  6  0  0  0
 12  1  1  0  0  0  0
 13  7  1  0  0  0  0
 14 11  1  0  0  0  0
 16 11  1  6  0  0  0
 16  3  1  0  0  0  0
 17  8  2  0  0  0  0
 18 14  1  0  0  0  0
 18  6  2  0  0  0  0
 19 10  1  0  0  0  0
 20 15  1  6  0  0  0
 20 19  1  0  0  0  0
 21 17  1  0  0  0  0
 21 20  1  0  0  0  0
 22 25  1  0  0  0  0
 23 24  1  0  0  0  0
 25 24  2  0  0  0  0
 26 22  2  0  0  0  0
 26 27  1  0  0  0  0
 27 23  2  0  0  0  0
M  END
>  <MODEL>
2

>  <REMARK>
 VINA RESULT:      -6.6      2.215      3.145
  Name = 
  1 active torsions:
  status: ('A' for Active; 'I' for Inactive)
    1  A    between atoms: C_9  and  C_15
                            x       y       z     vdW  Elec       q    Type
                         _______ _______ _______ _____ _____    ______ ____

>  <TORSDO>
F 1

$$$$
=
 OpenBabel11052423123D

 27 31  0  0  1  0  0  0  0  0999 V2000
  160.5020  210.4500  139.7600 C   0  0  0  0  0  3  0  0  0  0  0  0
  159.0870  212.2110  140.7620 C   0  0  1  0  0  3  0  0  0  0  0  0
  161.2370  213.2970  141.4520 N   0  0  0  0  0  0  0  0  0  0  0  0
  158.0930  214.4530  144.0100 N   0  0  0  0  0  0  0  0  0  0  0  0
  159.1160  214.4220  146.5070 S   0  0  0  0  0  0  0  0  0  0  0  0
  158.2180  213.4490  140.5890 C   0  0  0  0  0  3  0  0  0  0  0  0
  159.8810  212.9290  144.3200 C   0  0  0  0  0  0  0  0  0  0  0  0
  164.1460  214.3270  139.4910 C   0  0  0  0  0  3  0  0  0  0  0  0
  161.0810  212.2600  144.9000 C   0  0  0  0  0  1  0  0  0  0  0  0
  164.5170  213.1960  138.8910 C   0  0  0  0  0  3  0  0  0  0  0  0
  159.5080  212.9180  143.0530 C   0  0  0  0  0  0  0  0  0  0  0  0
  159.5230  211.5450  139.4540 C   0  0  2  0  0  3  0  0  0  0  0  0
  158.9730  213.8710  144.9750 C   0  0  0  0  0  0  0  0  0  0  0  0
  158.4160  213.8610  142.9070 C   0  0  0  0  0  0  0  0  0  0  0  0
  161.8060  210.7100  139.8790 C   0  0  0  0  0  3  0  0  0  0  0  0
  160.1900  212.3560  141.8480 C   0  0  1  0  0  3  0  0  0  0  0  0
  163.0600  214.3310  140.4240 N   0  0  0  0  0  2  0  0  0  0  0  0
  157.8780  214.1750  141.6200 N   0  0  0  0  0  0  0  0  0  0  0  0
  163.8710  211.8890  139.2520 C   0  0  0  0  0  2  0  0  0  0  0  0
  162.3860  212.0610  139.5740 C   0  0  2  0  0  3  0  0  0  0  0  0
  162.1950  213.1990  140.5730 C   0  0  0  0  0  0  0  0  0  0  0  0
  156.1680  210.0290  137.2320 C   0  0  0  0  0  3  0  0  0  0  0  0
  158.3510  211.0020  138.6940 C   0  0  0  0  0  0  0  0  0  0  0  0
  157.7270  211.8130  137.7400 C   0  0  0  0  0  3  0  0  0  0  0  0
  156.6360  211.3280  137.0110 C   0  0  0  0  0  3  0  0  0  0  0  0
  156.7900  209.2140  138.1810 C   0  0  0  0  0  3  0  0  0  0  0  0
  157.8790  209.6970  138.9120 C   0  0  0  0  0  3  0  0  0  0  0  0
  1 15  2  0  0  0  0
  2  6  1  6  0  0  0
  2 16  1  0  0  0  0
  4 13  1  0  0  0  0
  6 18  2  0  0  0  0
  7  9  1  0  0  0  0
  7 13  1  0  0  0  0
  8 17  1  0  0  0  0
 10 19  1  0  0  0  0
 10  8  2  0  0  0  0
 11  7  2  0  0  0  0
 12 23  1  1  0  0  0
 12  1  1  0  0  0  0
 12  2  1  0  0  0  0
 13  5  2  0  0  0  0
 14 11  1  0  0  0  0
 14  4  2  0  0  0  0
 16  3  1  6  0  0  0
 16 11  1  0  0  0  0
 17 21  1  0  0  0  0
 18 14  1  0  0  0  0
 20 19  1  1  0  0  0
 20 15  1  0  0  0  0
 20 21  1  0  0  0  0
 21  3  2  0  0  0  0
 22 26  1  0  0  0  0
 23 27  1  0  0  0  0
 24 23  2  0  0  0  0
 25 22  2  0  0  0  0
 25 24  1  0  0  0  0
 26 27  2  0  0  0  0
M  END
>  <MODEL>
3

>  <REMARK>
 VINA RESULT:      -4.3      9.888     13.168
  Name = 
  1 active torsions:
  status: ('A' for Active; 'I' for Inactive)
    1  A    between atoms: C_9  and  C_15
                            x       y       z     vdW  Elec       q    Type
                         _______ _______ _______ _____ _____    ______ ____

>  <TORSDO>
F 1

$$$$
=
 OpenBabel11052423123D

 27 31  0  0  1  0  0  0  0  0999 V2000
  160.8390  209.1690  152.5570 C   0  0  0  0  0  3  0  0  0  0  0  0
  159.9710  211.4520  152.1800 C   0  0  1  0  0  3  0  0  0  0  0  0
  159.8410  211.6230  154.6760 N   0  0  0  0  0  0  0  0  0  0  0  0
  157.0810  214.2370  152.8550 N   0  0  0  0  0  0  0  0  0  0  0  0
  154.8140  214.0540  154.3090 S   0  0  0  0  0  0  0  0  0  0  0  0
  160.2320  212.9120  151.8350 C   0  0  0  0  0  3  0  0  0  0  0  0
  156.7780  212.1550  153.9450 C   0  0  0  0  0  0  0  0  0  0  0  0
  162.3920  211.1490  157.2520 C   0  0  0  0  0  3  0  0  0  0  0  0
  156.2800  211.1170  154.8930 C   0  0  0  0  0  1  0  0  0  0  0  0
  162.8230  209.9080  157.0210 C   0  0  0  0  0  2  0  0  0  0  0  0
  157.9460  212.1630  153.3290 C   0  0  0  0  0  0  0  0  0  0  0  0
  161.1840  210.5300  152.0300 C   0  0  2  0  0  3  0  0  0  0  0  0
  156.1760  213.4510  153.6340 C   0  0  0  0  0  0  0  0  0  0  0  0
  158.0910  213.4500  152.6770 C   0  0  0  0  0  0  0  0  0  0  0  0
  160.9760  208.8800  153.8530 C   0  0  0  0  0  3  0  0  0  0  0  0
  159.1180  211.2450  153.4630 C   0  0  1  0  0  3  0  0  0  0  0  0
  161.3180  211.7000  156.4830 N   0  0  0  0  0  0  0  0  0  0  0  0
  159.3140  213.8190  152.0330 N   0  0  0  0  0  0  0  0  0  0  0  0
  162.1280  209.0310  156.0200 C   0  0  0  0  0  2  0  0  0  0  0  0
  161.6140  209.8320  154.8240 C   0  0  2  0  0  3  0  0  0  0  0  0
  160.8270  211.0470  155.3060 C   0  0  0  0  0  0  0  0  0  0  0  0
  162.4660  210.2160  147.9370 C   0  0  0  0  0  3  0  0  0  0  0  0
  161.6370  210.4400  150.6040 C   0  0  0  0  0  0  0  0  0  0  0  0
  161.8740  209.1800  150.0460 C   0  0  0  0  0  3  0  0  0  0  0  0
  162.2900  209.0680  148.7150 C   0  0  0  0  0  3  0  0  0  0  0  0
  162.2270  211.4770  148.4890 C   0  0  0  0  0  3  0  0  0  0  0  0
  161.8130  211.5920  149.8190 C   0  0  0  0  0  3  0  0  0  0  0  0
  1 15  2  0  0  0  0
  2  6  1  1  0  0  0
  2 16  1  0  0  0  0
  3 21  2  0  0  0  0
  4 13  1  0  0  0  0
  6 18  2  0  0  0  0
  7  9  1  0  0  0  0
 10  8  1  0  0  0  0
 11  7  2  0  0  0  0
 12 23  1  6  0  0  0
 12  2  1  0  0  0  0
 12  1  1  0  0  0  0
 13  7  1  0  0  0  0
 13  5  2  0  0  0  0
 14  4  2  0  0  0  0
 14 11  1  0  0  0  0
 16 11  1  6  0  0  0
 16  3  1  0  0  0  0
 17  8  2  0  0  0  0
 18 14  1  0  0  0  0
 19 10  1  0  0  0  0
 20 15  1  6  0  0  0
 20 21  1  0  0  0  0
 20 19  1  0  0  0  0
 21 17  1  0  0  0  0
 22 26  2  0  0  0  0
 22 25  1  0  0  0  0
 24 23  1  0  0  0  0
 25 24  2  0  0  0  0
 26 27  1  0  0  0  0
 27 23  2  0  0  0  0
M  END
>  <MODEL>
4

>  <REMARK>
 VINA RESULT:      -4.0      1.065      1.407
  Name = 
  1 active torsions:
  status: ('A' for Active; 'I' for Inactive)
    1  A    between atoms: C_9  and  C_15
                            x       y       z     vdW  Elec       q    Type
                         _______ _______ _______ _____ _____    ______ ____

>  <TORSDO>
F 1

$$$$
