=
 OpenBabel11052423093D

 27 31  0  0  1  0  0  0  0  0999 V2000
  160.3770  209.2310  152.9300 C   0  0  2  0  0  3  0  0  0  0  0  0
  160.4480  211.7230  154.2720 C   0  0  2  0  0  3  0  0  0  0  0  0
  160.5950  210.4500  152.0120 C   0  0  1  0  0  3  0  0  0  0  0  0
  156.9430  213.4440  152.5070 C   0  0  0  0  0  3  0  0  0  0  0  0
  155.7630  214.4530  150.6220 N   0  0  0  0  0  1  0  0  0  0  0  0
  159.0720  211.4090  154.8630 C   0  0  0  0  0  2  0  0  0  0  0  0
  161.8820  208.7590  157.2590 O   0  0  0  0  0  0  0  0  0  0  0  0
  159.1270  212.8850  150.8560 C   0  0  0  0  0  3  0  0  0  0  0  0
  161.2230  209.2610  154.2190 C   0  0  1  0  0  3  0  0  0  0  0  0
  162.7000  210.0180  149.0960 O   0  0  0  0  0  1  0  0  0  0  0  0
  161.8530  210.8930  156.2050 C   0  0  0  0  0  2  0  0  0  0  0  0
  158.0010  213.5240  150.3320 C   0  0  0  0  0  3  0  0  0  0  0  0
  161.8470  207.2210  149.4610 F   0  0  0  0  0  0  0  0  0  0  0  0
  160.3910  211.7960  152.7300 C   0  0  1  0  0  3  0  0  0  0  0  0
  161.5000  210.7060  154.7230 C   0  0  2  0  0  3  0  0  0  0  0  0
  156.9080  213.7990  151.1560 C   0  0  0  0  0  0  0  0  0  0  0  0
  158.0620  212.7940  153.0380 C   0  0  0  0  0  0  0  0  0  0  0  0
  160.4770  207.8920  152.1880 C   0  0  0  0  0  2  0  0  0  0  0  0
  159.1700  212.5160  152.2080 C   0  0  0  0  0  0  0  0  0  0  0  0
  161.8940  209.5110  150.1140 C   0  0  1  0  0  3  0  0  0  0  0  0
  158.0930  212.5200  154.5130 C   0  0  0  0  0  2  0  0  0  0  0  0
  162.3250  208.0760  150.4360 C   0  0  1  0  0  3  0  0  0  0  0  0
  162.7140  209.7640  156.7510 C   0  0  0  0  0  2  0  0  0  0  0  0
  161.9210  207.5600  151.8190 C   0  0  0  0  0  2  0  0  0  0  0  0
  161.6890  207.8440  156.2180 C   0  0  0  0  0  2  0  0  0  0  0  0
  161.9520  210.4410  151.3170 C   0  0  0  0  0  2  0  0  0  0  0  0
  160.6050  208.3380  155.2670 C   0  0  0  0  0  2  0  0  0  0  0  0
  1 18  1  6  0  0  0
  1  9  1  0  0  0  0
  2 15  1  0  0  0  0
  2  6  1  6  0  0  0
  3 26  1  1  0  0  0
  3 14  1  0  0  0  0
  3  1  1  0  0  0  0
  4 17  1  0  0  0  0
  5 16  1  0  0  0  0
  8 19  1  0  0  0  0
  9 15  1  0  0  0  0
  9 27  1  1  0  0  0
 11 23  1  0  0  0  0
 12  8  2  0  0  0  0
 12 16  1  0  0  0  0
 14 19  1  1  0  0  0
 14  2  1  0  0  0  0
 15 11  1  1  0  0  0
 16  4  2  0  0  0  0
 17 21  1  0  0  0  0
 19 17  2  0  0  0  0
 20 10  1  6  0  0  0
 20 22  1  0  0  0  0
 20 26  1  0  0  0  0
 21  6  1  0  0  0  0
 22 13  1  6  0  0  0
 22 24  1  0  0  0  0
 23  7  1  0  0  0  0
 24 18  1  0  0  0  0
 25  7  1  0  0  0  0
 27 25  1  0  0  0  0
M  END
>  <MODEL>
1

>  <REMARK>
 VINA RESULT:      -6.1      0.000      0.000
  Name = 
  0 active torsions:
  status: ('A' for Active; 'I' for Inactive)
                            x       y       z     vdW  Elec       q    Type
                         _______ _______ _______ _____ _____    ______ ____

>  <TORSDO>
F 0

$$$$
=
 OpenBabel11052423093D

 27 31  0  0  1  0  0  0  0  0999 V2000
  160.6060  211.7740  140.7830 C   0  0  2  0  0  3  0  0  0  0  0  0
  161.8940  213.9110  142.1210 C   0  0  2  0  0  3  0  0  0  0  0  0
  159.6510  212.8000  141.4260 C   0  0  1  0  0  3  0  0  0  0  0  0
  160.5270  213.0340  146.0870 C   0  0  0  0  0  3  0  0  0  0  0  0
  158.7800  212.9750  147.7910 N   0  0  0  0  0  1  0  0  0  0  0  0
  162.6460  212.8850  142.9700 C   0  0  0  0  0  2  0  0  0  0  0  0
  164.7340  212.6590  138.9400 O   0  0  0  0  0  0  0  0  0  0  0  0
  158.6400  213.7630  144.1590 C   0  0  0  0  0  3  0  0  0  0  0  0
  161.7850  212.4120  140.0220 C   0  0  1  0  0  3  0  0  0  0  0  0
  156.5150  213.4780  139.7450 O   0  0  0  0  0  1  0  0  0  0  0  0
  163.6600  214.2530  140.3430 C   0  0  0  0  0  2  0  0  0  0  0  0
  158.2430  213.5530  145.4820 C   0  0  0  0  0  3  0  0  0  0  0  0
  157.0180  210.7700  138.6970 F   0  0  0  0  0  0  0  0  0  0  0  0
  160.3680  213.8090  142.3410 C   0  0  1  0  0  3  0  0  0  0  0  0
  162.2330  213.7710  140.6340 C   0  0  2  0  0  3  0  0  0  0  0  0
  159.1850  213.1840  146.4430 C   0  0  0  0  0  0  0  0  0  0  0  0
  160.9330  213.2310  144.7630 C   0  0  0  0  0  0  0  0  0  0  0  0
  159.8770  210.7080  139.9560 C   0  0  0  0  0  2  0  0  0  0  0  0
  159.9820  213.6060  143.7870 C   0  0  0  0  0  0  0  0  0  0  0  0
  157.6270  212.6750  139.9900 C   0  0  1  0  0  3  0  0  0  0  0  0
  162.3970  213.1540  144.4470 C   0  0  0  0  0  2  0  0  0  0  0  0
  157.9170  211.8180  138.7530 C   0  0  1  0  0  3  0  0  0  0  0  0
  164.1180  213.9150  138.9310 C   0  0  0  0  0  2  0  0  0  0  0  0
  159.3460  211.2790  138.6440 C   0  0  0  0  0  2  0  0  0  0  0  0
  163.7370  211.7280  138.6270 C   0  0  0  0  0  2  0  0  0  0  0  0
  158.8010  213.5490  140.4050 C   0  0  0  0  0  2  0  0  0  0  0  0
  162.9120  211.3930  139.8640 C   0  0  0  0  0  2  0  0  0  0  0  0
  1 18  1  6  0  0  0
  1  3  1  0  0  0  0
  2 14  1  0  0  0  0
  2  6  1  1  0  0  0
  3 26  1  6  0  0  0
  3 14  1  0  0  0  0
  4 16  1  0  0  0  0
  6 21  1  0  0  0  0
  8 12  1  0  0  0  0
  9 27  1  1  0  0  0
  9 15  1  0  0  0  0
  9  1  1  0  0  0  0
 12 16  2  0  0  0  0
 14 19  1  1  0  0  0
 15 11  1  1  0  0  0
 15  2  1  0  0  0  0
 16  5  1  0  0  0  0
 17  4  2  0  0  0  0
 19  8  2  0  0  0  0
 19 17  1  0  0  0  0
 20 10  1  6  0  0  0
 20 26  1  0  0  0  0
 21 17  1  0  0  0  0
 22 13  1  1  0  0  0
 22 20  1  0  0  0  0
 23  7  1  0  0  0  0
 23 11  1  0  0  0  0
 24 22  1  0  0  0  0
 24 18  1  0  0  0  0
 25  7  1  0  0  0  0
 25 27  1  0  0  0  0
M  END
>  <MODEL>
2

>  <REMARK>
 VINA RESULT:      -5.4      9.395     12.442
  Name = 
  0 active torsions:
  status: ('A' for Active; 'I' for Inactive)
                            x       y       z     vdW  Elec       q    Type
                         _______ _______ _______ _____ _____    ______ ____

>  <TORSDO>
F 0

$$$$
=
 OpenBabel11052423093D

 27 31  0  0  1  0  0  0  0  0999 V2000
  160.3390  211.7720  155.0740 C   0  0  2  0  0  3  0  0  0  0  0  0
  160.2840  209.8530  152.9930 C   0  0  2  0  0  3  0  0  0  0  0  0
  159.2370  211.9980  154.0190 C   0  0  1  0  0  3  0  0  0  0  0  0
  161.2490  212.4750  149.7440 C   0  0  0  0  0  3  0  0  0  0  0  0
  160.6650  214.2480  148.1710 N   0  0  0  0  0  1  0  0  0  0  0  0
  161.7490  210.1790  152.6950 C   0  0  0  0  0  2  0  0  0  0  0  0
  161.9700  207.7070  156.5020 O   0  0  0  0  0  0  0  0  0  0  0  0
  158.8400  212.8700  151.1030 C   0  0  0  0  0  3  0  0  0  0  0  0
  160.4770  210.3050  155.5270 C   0  0  1  0  0  3  0  0  0  0  0  0
  156.0900  213.4020  155.1330 O   0  0  0  0  0  1  0  0  0  0  0  0
  160.6740  207.8680  154.5130 C   0  0  0  0  0  2  0  0  0  0  0  0
  159.1480  213.6500  149.9870 C   0  0  0  0  0  3  0  0  0  0  0  0
  157.8370  214.4530  157.2600 F   0  0  0  0  0  0  0  0  0  0  0  0
  159.3820  211.0890  152.7850 C   0  0  1  0  0  3  0  0  0  0  0  0
  160.1080  209.2910  154.4070 C   0  0  2  0  0  3  0  0  0  0  0  0
  160.3540  213.4560  149.3110 C   0  0  0  0  0  0  0  0  0  0  0  0
  160.9550  211.6970  150.8680 C   0  0  0  0  0  0  0  0  0  0  0  0
  160.2550  212.7500  156.2530 C   0  0  0  0  0  2  0  0  0  0  0  0
  159.7340  211.8900  151.5540 C   0  0  0  0  0  0  0  0  0  0  0  0
  157.4540  213.1620  155.2960 C   0  0  1  0  0  3  0  0  0  0  0  0
  161.9000  210.5920  151.2380 C   0  0  0  0  0  2  0  0  0  0  0  0
  157.7920  213.1540  156.7910 C   0  0  1  0  0  3  0  0  0  0  0  0
  160.7320  207.3640  155.9470 C   0  0  0  0  0  2  0  0  0  0  0  0
  159.0810  212.4220  157.1720 C   0  0  0  0  0  2  0  0  0  0  0  0
  161.7860  208.9340  157.1490 C   0  0  0  0  0  2  0  0  0  0  0  0
  157.8290  211.8690  154.5880 C   0  0  0  0  0  2  0  0  0  0  0  0
  161.8550  210.0810  156.1480 C   0  0  0  0  0  2  0  0  0  0  0  0
  1  9  1  0  0  0  0
  1 18  1  1  0  0  0
  2  6  1  1  0  0  0
  2 15  1  0  0  0  0
  3 26  1  1  0  0  0
  3  1  1  0  0  0  0
  4 17  1  0  0  0  0
  5 16  1  0  0  0  0
  7 25  1  0  0  0  0
  8 19  1  0  0  0  0
  9 27  1  6  0  0  0
 11 23  1  0  0  0  0
 12  8  2  0  0  0  0
 14 19  1  6  0  0  0
 14  2  1  0  0  0  0
 14  3  1  0  0  0  0
 15 11  1  6  0  0  0
 15  9  1  0  0  0  0
 16  4  2  0  0  0  0
 16 12  1  0  0  0  0
 17 21  1  0  0  0  0
 17 19  2  0  0  0  0
 18 24  1  0  0  0  0
 20 10  1  1  0  0  0
 20 22  1  0  0  0  0
 21  6  1  0  0  0  0
 22 24  1  0  0  0  0
 22 13  1  6  0  0  0
 23  7  1  0  0  0  0
 26 20  1  0  0  0  0
 27 25  1  0  0  0  0
M  END
>  <MODEL>
3

>  <REMARK>
 VINA RESULT:      -4.5      3.176      5.077
  Name = 
  0 active torsions:
  status: ('A' for Active; 'I' for Inactive)
                            x       y       z     vdW  Elec       q    Type
                         _______ _______ _______ _____ _____    ______ ____

>  <TORSDO>
F 0

$$$$
=
 OpenBabel11052423093D

 27 31  0  0  1  0  0  0  0  0999 V2000
  160.3090  210.6400  151.4740 C   0  0  2  0  0  3  0  0  0  0  0  0
  162.3310  209.5270  149.8330 C   0  0  2  0  0  3  0  0  0  0  0  0
  161.2580  209.6620  152.1960 C   0  0  1  0  0  3  0  0  0  0  0  0
  161.0720  205.4360  150.0370 C   0  0  0  0  0  3  0  0  0  0  0  0
  160.8310  203.3220  151.2340 N   0  0  0  0  0  1  0  0  0  0  0  0
  161.2410  209.0240  148.8850 C   0  0  0  0  0  2  0  0  0  0  0  0
  161.4180  213.4820  148.0210 O   0  0  0  0  0  0  0  0  0  0  0  0
  161.9490  206.6780  152.3820 C   0  0  0  0  0  3  0  0  0  0  0  0
  161.0310  211.6400  150.5480 C   0  0  1  0  0  3  0  0  0  0  0  0
  162.0440  210.3200  155.6690 O   0  0  0  0  0  1  0  0  0  0  0  0
  162.8600  211.6920  148.6360 C   0  0  0  0  0  2  0  0  0  0  0  0
  161.6130  205.3220  152.3930 C   0  0  0  0  0  3  0  0  0  0  0  0
  159.4520  211.7140  155.5160 F   0  0  0  0  0  0  0  0  0  0  0  0
  162.1870  208.8970  151.2360 C   0  0  1  0  0  3  0  0  0  0  0  0
  162.3330  211.0560  149.9290 C   0  0  2  0  0  3  0  0  0  0  0  0
  161.1700  204.7040  151.2230 C   0  0  0  0  0  0  0  0  0  0  0  0
  161.3970  206.7970  150.0190 C   0  0  0  0  0  0  0  0  0  0  0  0
  159.3130  211.3230  152.4200 C   0  0  0  0  0  2  0  0  0  0  0  0
  161.8470  207.4260  151.2020 C   0  0  0  0  0  0  0  0  0  0  0  0
  161.2370  210.4740  154.5430 C   0  0  1  0  0  3  0  0  0  0  0  0
  161.3690  207.5180  148.7040 C   0  0  0  0  0  2  0  0  0  0  0  0
  160.5030  211.8160  154.6240 C   0  0  1  0  0  3  0  0  0  0  0  0
  162.6610  213.2000  148.5990 C   0  0  0  0  0  2  0  0  0  0  0  0
  159.9960  212.3740  153.2920 C   0  0  0  0  0  2  0  0  0  0  0  0
  160.5070  213.5860  149.0790 C   0  0  0  0  0  2  0  0  0  0  0  0
  162.0860  210.3280  153.2890 C   0  0  0  0  0  2  0  0  0  0  0  0
  160.0470  212.2030  149.5250 C   0  0  0  0  0  2  0  0  0  0  0  0
  1  3  1  0  0  0  0
  1 18  1  1  0  0  0
  2  6  1  6  0  0  0
  2 15  1  0  0  0  0
  2 14  1  0  0  0  0
  3 26  1  1  0  0  0
  4 16  1  0  0  0  0
  7 23  1  0  0  0  0
  7 25  1  0  0  0  0
  8 12  1  0  0  0  0
  9 27  1  6  0  0  0
  9  1  1  0  0  0  0
 14 19  1  6  0  0  0
 14  3  1  0  0  0  0
 15 11  1  6  0  0  0
 15  9  1  0  0  0  0
 16  5  1  0  0  0  0
 16 12  2  0  0  0  0
 17  4  2  0  0  0  0
 17 19  1  0  0  0  0
 18 24  1  0  0  0  0
 19  8  2  0  0  0  0
 20 22  1  0  0  0  0
 20 10  1  1  0  0  0
 21  6  1  0  0  0  0
 21 17  1  0  0  0  0
 22 13  1  1  0  0  0
 23 11  1  0  0  0  0
 24 22  1  0  0  0  0
 25 27  1  0  0  0  0
 26 20  1  0  0  0  0
M  END
>  <MODEL>
4

>  <REMARK>
 VINA RESULT:      -4.3      3.422      7.083
  Name = 
  0 active torsions:
  status: ('A' for Active; 'I' for Inactive)
                            x       y       z     vdW  Elec       q    Type
                         _______ _______ _______ _____ _____    ______ ____

>  <TORSDO>
F 0

$$$$
=
 OpenBabel11052423093D

 27 31  0  0  1  0  0  0  0  0999 V2000
  161.9960  203.8450  148.1970 C   0  0  2  0  0  3  0  0  0  0  0  0
  160.6090  206.3070  148.3810 C   0  0  2  0  0  3  0  0  0  0  0  0
  160.9450  203.9090  149.3240 C   0  0  1  0  0  3  0  0  0  0  0  0
  162.0190  207.4910  152.2510 C   0  0  0  0  0  3  0  0  0  0  0  0
  162.0420  207.2820  154.6840 N   0  0  0  0  0  1  0  0  0  0  0  0
  161.9560  207.0210  148.5090 C   0  0  0  0  0  2  0  0  0  0  0  0
  161.7460  205.9380  144.1000 O   0  0  0  0  0  0  0  0  0  0  0  0
  160.4250  205.2040  152.0570 C   0  0  0  0  0  3  0  0  0  0  0  0
  161.5080  204.4280  146.8560 C   0  0  1  0  0  3  0  0  0  0  0  0
  159.1510  200.8700  150.1390 O   0  0  0  0  0  1  0  0  0  0  0  0
  160.3080  206.5780  145.8840 C   0  0  0  0  0  2  0  0  0  0  0  0
  160.8310  205.6680  153.3100 C   0  0  0  0  0  3  0  0  0  0  0  0
  161.5810  199.6690  148.9830 F   0  0  0  0  0  0  0  0  0  0  0  0
  160.3830  205.3240  149.5520 C   0  0  1  0  0  3  0  0  0  0  0  0
  160.4800  205.5820  147.0390 C   0  0  2  0  0  3  0  0  0  0  0  0
  161.6320  206.8070  153.4070 C   0  0  0  0  0  0  0  0  0  0  0  0
  161.6260  207.0270  150.9910 C   0  0  0  0  0  0  0  0  0  0  0  0
  162.6310  202.4570  148.0420 C   0  0  0  0  0  2  0  0  0  0  0  0
  160.8140  205.8750  150.8900 C   0  0  0  0  0  0  0  0  0  0  0  0
  160.2360  201.5420  149.5780 C   0  0  1  0  0  3  0  0  0  0  0  0
  161.9830  207.8470  149.7870 C   0  0  0  0  0  2  0  0  0  0  0  0
  160.8280  200.6960  148.4460 C   0  0  1  0  0  3  0  0  0  0  0  0
  160.4100  205.9180  144.5170 C   0  0  0  0  0  2  0  0  0  0  0  0
  161.6590  201.4610  147.4140 C   0  0  0  0  0  2  0  0  0  0  0  0
  162.3060  204.7230  144.5110 C   0  0  0  0  0  2  0  0  0  0  0  0
  159.7960  202.9270  149.1270 C   0  0  0  0  0  2  0  0  0  0  0  0
  162.7060  204.7890  145.9800 C   0  0  0  0  0  2  0  0  0  0  0  0
  1 18  1  6  0  0  0
  1  3  1  0  0  0  0
  2  6  1  1  0  0  0
  2 14  1  0  0  0  0
  3 26  1  6  0  0  0
  3 14  1  0  0  0  0
  4 16  1  0  0  0  0
  6 21  1  0  0  0  0
  7 25  1  0  0  0  0
  7 23  1  0  0  0  0
  8 12  1  0  0  0  0
  9 27  1  1  0  0  0
  9 15  1  0  0  0  0
  9  1  1  0  0  0  0
 12 16  2  0  0  0  0
 14 19  1  1  0  0  0
 15 11  1  6  0  0  0
 15  2  1  0  0  0  0
 16  5  1  0  0  0  0
 17  4  2  0  0  0  0
 19 17  1  0  0  0  0
 19  8  2  0  0  0  0
 20 10  1  6  0  0  0
 21 17  1  0  0  0  0
 22 13  1  1  0  0  0
 22 20  1  0  0  0  0
 23 11  1  0  0  0  0
 24 18  1  0  0  0  0
 24 22  1  0  0  0  0
 25 27  1  0  0  0  0
 26 20  1  0  0  0  0
M  END
>  <MODEL>
5

>  <REMARK>
 VINA RESULT:      -4.0      5.616      8.987
  Name = 
  0 active torsions:
  status: ('A' for Active; 'I' for Inactive)
                            x       y       z     vdW  Elec       q    Type
                         _______ _______ _______ _____ _____    ______ ____

>  <TORSDO>
F 0

$$$$
=
 OpenBabel11052423093D

 27 31  0  0  1  0  0  0  0  0999 V2000
  160.4990  206.0450  150.2220 C   0  0  2  0  0  3  0  0  0  0  0  0
  161.9190  205.6820  152.6450 C   0  0  2  0  0  3  0  0  0  0  0  0
  161.4840  207.1800  150.5670 C   0  0  1  0  0  3  0  0  0  0  0  0
  160.3120  209.0320  154.7790 C   0  0  0  0  0  3  0  0  0  0  0  0
  160.1450  211.4320  155.1960 N   0  0  0  0  0  1  0  0  0  0  0  0
  160.5810  205.5430  153.3720 C   0  0  0  0  0  2  0  0  0  0  0  0
  161.0230  201.5740  151.2030 O   0  0  0  0  0  0  0  0  0  0  0  0
  161.8710  209.5220  152.5120 C   0  0  0  0  0  3  0  0  0  0  0  0
  161.0740  204.6310  150.4430 C   0  0  1  0  0  3  0  0  0  0  0  0
  163.1710  208.8460  147.8280 O   0  0  0  0  0  1  0  0  0  0  0  0
  162.3680  203.2210  152.2710 C   0  0  0  0  0  2  0  0  0  0  0  0
  161.4020  210.5890  153.2810 C   0  0  0  0  0  3  0  0  0  0  0  0
  160.7890  207.8880  146.3820 F   0  0  0  0  0  0  0  0  0  0  0  0
  162.0580  207.0750  151.9910 C   0  0  1  0  0  3  0  0  0  0  0  0
  162.1110  204.5780  151.6010 C   0  0  2  0  0  3  0  0  0  0  0  0
  160.6190  210.3450  154.4110 C   0  0  0  0  0  0  0  0  0  0  0  0
  160.7680  207.9570  154.0090 C   0  0  0  0  0  0  0  0  0  0  0  0
  159.8480  206.2090  148.8430 C   0  0  0  0  0  2  0  0  0  0  0  0
  161.5620  208.2010  152.8660 C   0  0  0  0  0  0  0  0  0  0  0  0
  162.1320  208.0690  148.3400 C   0  0  1  0  0  3  0  0  0  0  0  0
  160.4950  206.5650  154.4970 C   0  0  0  0  0  2  0  0  0  0  0  0
  161.5910  207.1550  147.2350 C   0  0  1  0  0  3  0  0  0  0  0  0
  162.3320  202.0620  151.2850 C   0  0  0  0  0  2  0  0  0  0  0  0
  160.8350  205.9140  147.7160 C   0  0  0  0  0  2  0  0  0  0  0  0
  160.4180  202.2450  150.1340 C   0  0  0  0  0  2  0  0  0  0  0  0
  162.6240  207.3080  149.5630 C   0  0  0  0  0  2  0  0  0  0  0  0
  159.9350  203.6220  150.5730 C   0  0  0  0  0  2  0  0  0  0  0  0
  1 18  1  6  0  0  0
  1  9  1  0  0  0  0
  1  3  1  0  0  0  0
  2  6  1  6  0  0  0
  3 26  1  6  0  0  0
  3 14  1  0  0  0  0
  6 21  1  0  0  0  0
  7 23  1  0  0  0  0
  8 19  2  0  0  0  0
  8 12  1  0  0  0  0
  9 27  1  1  0  0  0
  9 15  1  0  0  0  0
 12 16  2  0  0  0  0
 14  2  1  0  0  0  0
 14 19  1  1  0  0  0
 15 11  1  1  0  0  0
 15  2  1  0  0  0  0
 16  4  1  0  0  0  0
 16  5  1  0  0  0  0
 17 21  1  0  0  0  0
 17  4  2  0  0  0  0
 19 17  1  0  0  0  0
 20 10  1  6  0  0  0
 20 26  1  0  0  0  0
 22 13  1  6  0  0  0
 22 24  1  0  0  0  0
 22 20  1  0  0  0  0
 23 11  1  0  0  0  0
 24 18  1  0  0  0  0
 25 27  1  0  0  0  0
 25  7  1  0  0  0  0
M  END
>  <MODEL>
6

>  <REMARK>
 VINA RESULT:      -3.7      3.567      5.892
  Name = 
  0 active torsions:
  status: ('A' for Active; 'I' for Inactive)
                            x       y       z     vdW  Elec       q    Type
                         _______ _______ _______ _____ _____    ______ ____

>  <TORSDO>
F 0

$$$$
=
 OpenBabel11052423093D

 27 31  0  0  1  0  0  0  0  0999 V2000
  158.6200  211.9150  139.9120 C   0  0  2  0  0  3  0  0  0  0  0  0
  160.6200  213.7240  140.7750 C   0  0  2  0  0  3  0  0  0  0  0  0
  158.0970  213.1050  140.7420 C   0  0  1  0  0  3  0  0  0  0  0  0
  160.2120  213.0880  144.9930 C   0  0  0  0  0  3  0  0  0  0  0  0
  159.0070  213.3630  147.0990 N   0  0  0  0  0  1  0  0  0  0  0  0
  161.3500  212.5530  141.4370 C   0  0  0  0  0  2  0  0  0  0  0  0
  162.1990  211.9630  137.0120 O   0  0  0  0  0  0  0  0  0  0  0  0
  158.0660  214.2150  143.6030 C   0  0  0  0  0  3  0  0  0  0  0  0
  159.6580  212.3090  138.8420 C   0  0  1  0  0  3  0  0  0  0  0  0
  154.8290  214.4340  139.9200 O   0  0  0  0  0  1  0  0  0  0  0  0
  161.8810  213.7220  138.5820 C   0  0  0  0  0  2  0  0  0  0  0  0
  158.0010  214.0720  144.9910 C   0  0  0  0  0  3  0  0  0  0  0  0
  154.4810  211.6960  138.8890 F   0  0  0  0  0  0  0  0  0  0  0  0
  159.2200  213.9320  141.3930 C   0  0  1  0  0  3  0  0  0  0  0  0
  160.5160  213.5380  139.2590 C   0  0  2  0  0  3  0  0  0  0  0  0
  159.0720  213.5040  145.6850 C   0  0  0  0  0  0  0  0  0  0  0  0
  160.2820  213.2170  143.6020 C   0  0  0  0  0  0  0  0  0  0  0  0
  157.4990  211.0320  139.3510 C   0  0  0  0  0  2  0  0  0  0  0  0
  159.2010  213.7920  142.8970 C   0  0  0  0  0  0  0  0  0  0  0  0
  155.7820  213.4170  139.8970 C   0  0  1  0  0  3  0  0  0  0  0  0
  161.5630  212.8470  142.9150 C   0  0  0  0  0  2  0  0  0  0  0  0
  155.5540  212.5370  138.6630 C   0  0  1  0  0  3  0  0  0  0  0  0
  161.8690  213.3190  137.1150 C   0  0  0  0  0  2  0  0  0  0  0  0
  156.7630  211.7190  138.2030 C   0  0  0  0  0  2  0  0  0  0  0  0
  160.9880  211.2610  137.0110 C   0  0  0  0  0  2  0  0  0  0  0  0
  157.1750  214.0270  139.9510 C   0  0  0  0  0  2  0  0  0  0  0  0
  160.4740  211.0840  138.4340 C   0  0  0  0  0  2  0  0  0  0  0  0
  1 18  1  6  0  0  0
  1  3  1  0  0  0  0
  2 14  1  0  0  0  0
  2  6  1  1  0  0  0
  3 26  1  6  0  0  0
  3 14  1  0  0  0  0
  4 16  1  0  0  0  0
  6 21  1  0  0  0  0
  7 23  1  0  0  0  0
  8 12  1  0  0  0  0
  9 27  1  1  0  0  0
  9 15  1  0  0  0  0
  9  1  1  0  0  0  0
 12 16  2  0  0  0  0
 14 19  1  1  0  0  0
 15 11  1  1  0  0  0
 15  2  1  0  0  0  0
 16  5  1  0  0  0  0
 17  4  2  0  0  0  0
 19 17  1  0  0  0  0
 19  8  2  0  0  0  0
 20 10  1  6  0  0  0
 20 26  1  0  0  0  0
 21 17  1  0  0  0  0
 22 13  1  1  0  0  0
 22 20  1  0  0  0  0
 23 11  1  0  0  0  0
 24 22  1  0  0  0  0
 24 18  1  0  0  0  0
 25  7  1  0  0  0  0
 25 27  1  0  0  0  0
M  END
>  <MODEL>
7

>  <REMARK>
 VINA RESULT:      -3.6     10.285     13.559
  Name = 
  0 active torsions:
  status: ('A' for Active; 'I' for Inactive)
                            x       y       z     vdW  Elec       q    Type
                         _______ _______ _______ _____ _____    ______ ____

>  <TORSDO>
F 0

$$$$
=
 OpenBabel11052423093D

 27 31  0  0  1  0  0  0  0  0999 V2000
  162.0180  204.6350  148.6530 C   0  0  2  0  0  3  0  0  0  0  0  0
  160.6750  207.0460  148.0200 C   0  0  2  0  0  3  0  0  0  0  0  0
  161.0570  205.1420  149.7460 C   0  0  1  0  0  3  0  0  0  0  0  0
  162.3870  209.4980  151.0890 C   0  0  0  0  0  3  0  0  0  0  0  0
  162.5930  210.1840  153.4230 N   0  0  0  0  0  1  0  0  0  0  0  0
  162.0350  207.7060  147.7890 C   0  0  0  0  0  2  0  0  0  0  0  0
  161.4790  205.1080  144.1020 O   0  0  0  0  0  0  0  0  0  0  0  0
  160.7590  207.3580  151.8490 C   0  0  0  0  0  3  0  0  0  0  0  0
  161.4360  204.7100  147.2270 C   0  0  1  0  0  3  0  0  0  0  0  0
  159.2980  202.6740  151.7310 O   0  0  0  0  0  1  0  0  0  0  0  0
  160.1870  206.4050  145.6220 C   0  0  0  0  0  2  0  0  0  0  0  0
  161.2650  208.2290  152.8170 C   0  0  0  0  0  3  0  0  0  0  0  0
  161.6200  201.0460  150.9320 F   0  0  0  0  0  0  0  0  0  0  0  0
  160.5290  206.5630  149.4800 C   0  0  1  0  0  3  0  0  0  0  0  0
  160.4370  205.8890  147.0460 C   0  0  2  0  0  3  0  0  0  0  0  0
  162.0820  209.2950  152.4370 C   0  0  0  0  0  0  0  0  0  0  0  0
  161.8950  208.6250  150.1140 C   0  0  0  0  0  0  0  0  0  0  0  0
  162.6250  203.2620  148.9720 C   0  0  0  0  0  2  0  0  0  0  0  0
  161.0660  207.5450  150.4940 C   0  0  0  0  0  0  0  0  0  0  0  0
  160.3440  203.0560  150.8930 C   0  0  1  0  0  3  0  0  0  0  0  0
  162.1680  208.9380  148.6730 C   0  0  0  0  0  2  0  0  0  0  0  0
  160.8390  201.8360  150.1090 C   0  0  1  0  0  3  0  0  0  0  0  0
  160.1790  205.2900  144.5860 C   0  0  0  0  0  2  0  0  0  0  0  0
  161.5980  202.1440  148.8160 C   0  0  0  0  0  2  0  0  0  0  0  0
  162.0560  204.1040  144.8880 C   0  0  0  0  0  2  0  0  0  0  0  0
  159.8860  204.1990  149.9980 C   0  0  0  0  0  2  0  0  0  0  0  0
  162.5670  204.6830  146.2020 C   0  0  0  0  0  2  0  0  0  0  0  0
  1 18  1  1  0  0  0
  1  3  1  0  0  0  0
  2  6  1  1  0  0  0
  2 14  1  0  0  0  0
  3 26  1  6  0  0  0
  4 16  1  0  0  0  0
  6 21  1  0  0  0  0
  7 23  1  0  0  0  0
  7 25  1  0  0  0  0
  8 12  1  0  0  0  0
  9 27  1  6  0  0  0
  9  1  1  0  0  0  0
 14  3  1  0  0  0  0
 14 19  1  1  0  0  0
 15 11  1  6  0  0  0
 15  9  1  0  0  0  0
 15  2  1  0  0  0  0
 16 12  2  0  0  0  0
 16  5  1  0  0  0  0
 17 19  1  0  0  0  0
 17  4  2  0  0  0  0
 19  8  2  0  0  0  0
 20 10  1  6  0  0  0
 21 17  1  0  0  0  0
 22 20  1  0  0  0  0
 22 13  1  1  0  0  0
 23 11  1  0  0  0  0
 24 18  1  0  0  0  0
 24 22  1  0  0  0  0
 25 27  1  0  0  0  0
 26 20  1  0  0  0  0
M  END
>  <MODEL>
8

>  <REMARK>
 VINA RESULT:      -3.3      4.846      8.254
  Name = 
  0 active torsions:
  status: ('A' for Active; 'I' for Inactive)
                            x       y       z     vdW  Elec       q    Type
                         _______ _______ _______ _____ _____    ______ ____

>  <TORSDO>
F 0

$$$$
