=
 OpenBabel11052423093D

 27 31  0  0  1  0  0  0  0  0999 V2000
  158.5350  212.9860  154.4980 C   0  0  2  0  0  0  0  0  0  0  0  0
  159.5020  213.5740  152.2090 C   0  0  1  0  0  3  0  0  0  0  0  0
  157.0340  213.2060  152.4380 C   0  0  0  0  0  2  0  0  0  0  0  0
  159.0220  214.4420  147.9800 C   0  0  0  0  0  2  0  0  0  0  0  0
  157.4430  214.3970  146.2270 O   0  0  0  0  0  0  0  0  0  0  0  0
  160.7280  213.5330  151.2960 C   0  0  0  0  0  2  0  0  0  0  0  0
  156.7570  213.1580  149.4580 C   0  0  0  0  0  2  0  0  0  0  0  0
  155.0930  211.5540  154.1650 O   0  0  0  0  0  1  0  0  0  0  0  0
  156.9420  212.8800  147.9610 C   0  0  0  0  0  2  0  0  0  0  0  0
  156.2870  212.2410  156.1210 C   0  0  0  0  0  2  0  0  0  0  0  0
  158.2400  213.0270  151.5130 C   0  0  1  0  0  3  0  0  0  0  0  0
  159.7610  212.8700  153.5590 C   0  0  2  0  0  3  0  0  0  0  0  0
  157.7720  213.9480  147.3120 C   0  0  0  0  0  0  0  0  0  0  0  0
  159.2630  213.6950  149.2890 C   0  0  2  0  0  3  0  0  0  0  0  0
  158.3700  214.4530  154.8890 C   0  0  0  0  0  1  0  0  0  0  0  0
  158.0000  213.7360  150.1720 C   0  0  1  0  0  3  0  0  0  0  0  0
  156.0010  212.5020  154.6370 C   0  0  1  0  0  3  0  0  0  0  0  0
  160.4500  214.3090  150.0170 C   0  0  0  0  0  2  0  0  0  0  0  0
  157.5610  211.4260  156.3140 C   0  0  0  0  0  2  0  0  0  0  0  0
  158.7810  212.2010  155.8050 C   0  0  0  0  0  2  0  0  0  0  0  0
  157.2650  212.4790  153.7640 C   0  0  2  0  0  3  0  0  0  0  0  0
  161.3160  208.8620  153.1810 C   0  0  0  0  0  3  0  0  0  0  0  0
  160.2940  211.4630  153.4050 C   0  0  0  0  0  0  0  0  0  0  0  0
  159.9570  210.6620  152.3020 C   0  0  0  0  0  3  0  0  0  0  0  0
  160.4670  209.3660  152.1910 C   0  0  0  0  0  3  0  0  0  0  0  0
  161.6540  209.6550  154.2810 C   0  0  0  0  0  3  0  0  0  0  0  0
  161.1440  210.9520  154.3920 C   0  0  0  0  0  3  0  0  0  0  0  0
  1 15  1  1  0  0  0
  1 20  1  0  0  0  0
  2  6  1  6  0  0  0
  2 12  1  0  0  0  0
  5 13  2  0  0  0  0
  9  7  1  0  0  0  0
 10 19  1  0  0  0  0
 11  2  1  0  0  0  0
 11  3  1  1  0  0  0
 12 23  1  6  0  0  0
 12  1  1  0  0  0  0
 13  9  1  0  0  0  0
 13  4  1  0  0  0  0
 14  4  1  6  0  0  0
 14 18  1  0  0  0  0
 14 16  1  0  0  0  0
 16  7  1  6  0  0  0
 16 11  1  0  0  0  0
 17  8  1  6  0  0  0
 17 10  1  0  0  0  0
 18  6  1  0  0  0  0
 20 19  1  0  0  0  0
 21  3  1  6  0  0  0
 21  1  1  0  0  0  0
 21 17  1  0  0  0  0
 22 26  1  0  0  0  0
 23 27  1  0  0  0  0
 24 23  2  0  0  0  0
 25 24  1  0  0  0  0
 25 22  2  0  0  0  0
 26 27  2  0  0  0  0
M  END
>  <MODEL>
1

>  <REMARK>
 VINA RESULT:      -3.6      0.000      0.000
  Name = 
  1 active torsions:
  status: ('A' for Active; 'I' for Inactive)
    1  A    between atoms: C_9  and  C_15
                            x       y       z     vdW  Elec       q    Type
                         _______ _______ _______ _____ _____    ______ ____

>  <TORSDO>
F 1

$$$$
=
 OpenBabel11052423093D

 27 31  0  0  1  0  0  0  0  0999 V2000
  161.4490  209.6250  154.6280 C   0  0  2  0  0  0  0  0  0  0  0  0
  161.8280  210.5150  152.2650 C   0  0  1  0  0  3  0  0  0  0  0  0
  159.8390  211.3060  153.5670 C   0  0  0  0  0  2  0  0  0  0  0  0
  160.7110  213.0620  148.9290 C   0  0  0  0  0  2  0  0  0  0  0  0
  158.9790  214.4530  148.1340 O   0  0  0  0  0  0  0  0  0  0  0  0
  162.4420  210.2540  150.8900 C   0  0  0  0  0  2  0  0  0  0  0  0
  158.7060  212.5510  151.0920 C   0  0  0  0  0  2  0  0  0  0  0  0
  157.9310  210.2540  155.7420 O   0  0  0  0  0  1  0  0  0  0  0  0
  158.2260  212.8210  149.6600 C   0  0  0  0  0  2  0  0  0  0  0  0
  159.8190  209.4760  156.9880 C   0  0  0  0  0  2  0  0  0  0  0  0
  160.3520  210.9500  152.1700 C   0  0  1  0  0  3  0  0  0  0  0  0
  162.0100  209.3150  153.2190 C   0  0  2  0  0  3  0  0  0  0  0  0
  159.2840  213.5230  148.8610 C   0  0  0  0  0  0  0  0  0  0  0  0
  160.8420  211.8520  149.8490 C   0  0  2  0  0  3  0  0  0  0  0  0
  162.3150  210.7130  155.2580 C   0  0  0  0  0  1  0  0  0  0  0  0
  160.1910  212.1420  151.2160 C   0  0  1  0  0  3  0  0  0  0  0  0
  159.3130  210.3900  155.8660 C   0  0  1  0  0  3  0  0  0  0  0  0
  162.3100  211.4930  150.0170 C   0  0  0  0  0  2  0  0  0  0  0  0
  160.3430  208.1520  156.4410 C   0  0  0  0  0  2  0  0  0  0  0  0
  161.5590  208.3830  155.5390 C   0  0  0  0  0  2  0  0  0  0  0  0
  159.9800  210.1100  154.5090 C   0  0  2  0  0  3  0  0  0  0  0  0
  160.6450  205.5530  151.6020 C   0  0  0  0  0  3  0  0  0  0  0  0
  161.5250  208.0070  152.6320 C   0  0  0  0  0  0  0  0  0  0  0  0
  160.9470  207.9420  151.3540 C   0  0  0  0  0  3  0  0  0  0  0  0
  160.5090  206.7180  150.8410 C   0  0  0  0  0  3  0  0  0  0  0  0
  161.2190  205.6130  152.8740 C   0  0  0  0  0  3  0  0  0  0  0  0
  161.6580  206.8370  153.3870 C   0  0  0  0  0  3  0  0  0  0  0  0
  1 15  1  1  0  0  0
  1 20  1  0  0  0  0
  2  6  1  6  0  0  0
  2 12  1  0  0  0  0
  5 13  2  0  0  0  0
  9  7  1  0  0  0  0
 11  2  1  0  0  0  0
 11  3  1  1  0  0  0
 12 23  1  6  0  0  0
 12  1  1  0  0  0  0
 13  4  1  0  0  0  0
 13  9  1  0  0  0  0
 14  4  1  6  0  0  0
 14 18  1  0  0  0  0
 14 16  1  0  0  0  0
 16  7  1  6  0  0  0
 16 11  1  0  0  0  0
 17  8  1  6  0  0  0
 17 10  1  0  0  0  0
 18  6  1  0  0  0  0
 19 10  1  0  0  0  0
 20 19  1  0  0  0  0
 21  3  1  6  0  0  0
 21  1  1  0  0  0  0
 21 17  1  0  0  0  0
 22 26  1  0  0  0  0
 23 27  1  0  0  0  0
 24 23  2  0  0  0  0
 25 24  1  0  0  0  0
 25 22  2  0  0  0  0
 26 27  2  0  0  0  0
M  END
>  <MODEL>
2

>  <REMARK>
 VINA RESULT:      -2.8      2.108      3.646
  Name = 
  1 active torsions:
  status: ('A' for Active; 'I' for Inactive)
    1  A    between atoms: C_9  and  C_15
                            x       y       z     vdW  Elec       q    Type
                         _______ _______ _______ _____ _____    ______ ____

>  <TORSDO>
F 1

$$$$
=
 OpenBabel11052423093D

 27 31  0  0  1  0  0  0  0  0999 V2000
  161.3870  210.1360  155.3600 C   0  0  2  0  0  0  0  0  0  0  0  0
  160.1370  211.9220  154.0300 C   0  0  1  0  0  3  0  0  0  0  0  0
  158.8890  210.5550  155.7190 C   0  0  0  0  0  2  0  0  0  0  0  0
  156.5250  214.1490  153.1020 C   0  0  0  0  0  2  0  0  0  0  0  0
  154.2000  214.1960  153.5000 O   0  0  0  0  0  0  0  0  0  0  0  0
  160.0750  212.7360  152.7380 C   0  0  0  0  0  2  0  0  0  0  0  0
  156.2930  211.6040  154.6600 C   0  0  0  0  0  2  0  0  0  0  0  0
  158.9940  207.7320  156.9430 O   0  0  0  0  0  1  0  0  0  0  0  0
  155.1380  212.0470  153.7530 C   0  0  0  0  0  2  0  0  0  0  0  0
  161.3520  207.9840  157.2610 C   0  0  0  0  0  2  0  0  0  0  0  0
  158.7880  211.2520  154.3610 C   0  0  1  0  0  3  0  0  0  0  0  0
  161.2930  210.8990  154.0160 C   0  0  2  0  0  3  0  0  0  0  0  0
  155.2120  213.5180  153.4650 C   0  0  0  0  0  0  0  0  0  0  0  0
  157.6330  213.1010  153.0600 C   0  0  2  0  0  3  0  0  0  0  0  0
  161.8030  211.1280  156.4440 C   0  0  0  0  0  1  0  0  0  0  0  0
  157.6500  212.2830  154.3670 C   0  0  1  0  0  3  0  0  0  0  0  0
  160.0130  208.6830  156.9960 C   0  0  1  0  0  3  0  0  0  0  0  0
  158.9740  213.7830  152.8340 C   0  0  0  0  0  2  0  0  0  0  0  0
  162.1200  207.7330  155.9670 C   0  0  0  0  0  2  0  0  0  0  0  0
  162.4910  209.0580  155.2930 C   0  0  0  0  0  2  0  0  0  0  0  0
  160.0070  209.5130  155.7020 C   0  0  2  0  0  3  0  0  0  0  0  0
  161.3150  208.3960  150.5000 C   0  0  0  0  0  3  0  0  0  0  0  0
  161.2860  210.0060  152.7940 C   0  0  0  0  0  0  0  0  0  0  0  0
  160.5560  208.8070  152.7610 C   0  0  0  0  0  3  0  0  0  0  0  0
  160.5710  208.0060  151.6170 C   0  0  0  0  0  3  0  0  0  0  0  0
  162.0430  209.5890  150.5280 C   0  0  0  0  0  3  0  0  0  0  0  0
  162.0280  210.3910  151.6720 C   0  0  0  0  0  3  0  0  0  0  0  0
  1 21  1  0  0  0  0
  1 15  1  1  0  0  0
  2  6  1  6  0  0  0
  2 11  1  0  0  0  0
  4 13  1  0  0  0  0
  6 18  1  0  0  0  0
  9  7  1  0  0  0  0
 11 16  1  0  0  0  0
 11  3  1  1  0  0  0
 12 23  1  6  0  0  0
 12  2  1  0  0  0  0
 12  1  1  0  0  0  0
 13  5  2  0  0  0  0
 13  9  1  0  0  0  0
 14 18  1  1  0  0  0
 14  4  1  0  0  0  0
 14 16  1  0  0  0  0
 16  7  1  6  0  0  0
 17  8  1  6  0  0  0
 17 10  1  0  0  0  0
 19 10  1  0  0  0  0
 20  1  1  0  0  0  0
 20 19  1  0  0  0  0
 21  3  1  1  0  0  0
 21 17  1  0  0  0  0
 22 26  2  0  0  0  0
 22 25  1  0  0  0  0
 24 23  1  0  0  0  0
 25 24  2  0  0  0  0
 26 27  1  0  0  0  0
 27 23  2  0  0  0  0
M  END
>  <MODEL>
3

>  <REMARK>
 VINA RESULT:      -2.1      2.911      4.649
  Name = 
  1 active torsions:
  status: ('A' for Active; 'I' for Inactive)
    1  A    between atoms: C_9  and  C_15
                            x       y       z     vdW  Elec       q    Type
                         _______ _______ _______ _____ _____    ______ ____

>  <TORSDO>
F 1

$$$$
=
 OpenBabel11052423093D

 27 31  0  0  1  0  0  0  0  0999 V2000
  162.0730  212.5260  148.7490 C   0  0  2  0  0  0  0  0  0  0  0  0
  162.2370  210.3770  150.1180 C   0  0  1  0  0  3  0  0  0  0  0  0
  161.6860  210.2360  147.6770 C   0  0  0  0  0  2  0  0  0  0  0  0
  162.1020  206.0480  150.4420 C   0  0  0  0  0  2  0  0  0  0  0  0
  161.5190  204.0980  149.2480 O   0  0  0  0  0  0  0  0  0  0  0  0
  162.1170  209.7370  151.5010 C   0  0  0  0  0  2  0  0  0  0  0  0
  160.9580  207.3500  148.0020 C   0  0  0  0  0  2  0  0  0  0  0  0
  160.2710  211.9210  145.5250 O   0  0  0  0  0  1  0  0  0  0  0  0
  160.3780  206.0190  148.4950 C   0  0  0  0  0  2  0  0  0  0  0  0
  161.4850  213.8440  146.2660 C   0  0  0  0  0  2  0  0  0  0  0  0
  161.4280  209.6120  149.0510 C   0  0  1  0  0  3  0  0  0  0  0  0
  161.8750  211.8780  150.1410 C   0  0  2  0  0  3  0  0  0  0  0  0
  161.3540  205.2990  149.3780 C   0  0  0  0  0  0  0  0  0  0  0  0
  161.6890  207.5160  150.4580 C   0  0  2  0  0  3  0  0  0  0  0  0
  163.5670  212.5250  148.4300 C   0  0  0  0  0  1  0  0  0  0  0  0
  161.7990  208.1220  149.0440 C   0  0  1  0  0  3  0  0  0  0  0  0
  161.3840  212.3140  146.2670 C   0  0  1  0  0  3  0  0  0  0  0  0
  162.5610  208.2820  151.4410 C   0  0  0  0  0  2  0  0  0  0  0  0
  160.8620  214.4500  147.5190 C   0  0  0  0  0  2  0  0  0  0  0  0
  161.6220  214.0030  148.7720 C   0  0  0  0  0  2  0  0  0  0  0  0
  161.2950  211.7140  147.6800 C   0  0  2  0  0  3  0  0  0  0  0  0
  158.0470  212.6320  151.9860 C   0  0  0  0  0  3  0  0  0  0  0  0
  160.5280  212.1580  150.7700 C   0  0  0  0  0  0  0  0  0  0  0  0
  159.6280  213.0780  150.2090 C   0  0  0  0  0  3  0  0  0  0  0  0
  158.3920  213.3140  150.8160 C   0  0  0  0  0  3  0  0  0  0  0  0
  158.9390  211.7140  152.5480 C   0  0  0  0  0  3  0  0  0  0  0  0
  160.1760  211.4790  151.9420 C   0  0  0  0  0  3  0  0  0  0  0  0
  1 15  1  6  0  0  0
  1 20  1  0  0  0  0
  1 12  1  0  0  0  0
  2 12  1  0  0  0  0
  2  6  1  1  0  0  0
  5 13  2  0  0  0  0
  7  9  1  0  0  0  0
  9 13  1  0  0  0  0
 10 17  1  0  0  0  0
 10 19  1  0  0  0  0
 11  3  1  6  0  0  0
 11  2  1  0  0  0  0
 12 23  1  6  0  0  0
 13  4  1  0  0  0  0
 14  4  1  6  0  0  0
 14 18  1  0  0  0  0
 16  7  1  6  0  0  0
 16 11  1  0  0  0  0
 16 14  1  0  0  0  0
 17  8  1  6  0  0  0
 17 21  1  0  0  0  0
 18  6  1  0  0  0  0
 19 20  1  0  0  0  0
 21  3  1  6  0  0  0
 21  1  1  0  0  0  0
 22 26  1  0  0  0  0
 23 27  1  0  0  0  0
 24 23  2  0  0  0  0
 24 25  1  0  0  0  0
 25 22  2  0  0  0  0
 27 26  2  0  0  0  0
M  END
>  <MODEL>
4

>  <REMARK>
 VINA RESULT:      -1.7      3.694      7.302
  Name = 
  1 active torsions:
  status: ('A' for Active; 'I' for Inactive)
    1  A    between atoms: C_9  and  C_15
                            x       y       z     vdW  Elec       q    Type
                         _______ _______ _______ _____ _____    ______ ____

>  <TORSDO>
F 1

$$$$
=
 OpenBabel11052423093D

 27 31  0  0  1  0  0  0  0  0999 V2000
  161.3810  210.8170  152.3820 C   0  0  2  0  0  0  0  0  0  0  0  0
  159.7130  212.1890  153.7440 C   0  0  1  0  0  3  0  0  0  0  0  0
  159.4540  209.6990  153.6400 C   0  0  0  0  0  2  0  0  0  0  0  0
  156.2570  212.4810  156.3590 C   0  0  0  0  0  2  0  0  0  0  0  0
  154.4800  211.2190  157.2610 O   0  0  0  0  0  0  0  0  0  0  0  0
  159.0310  213.5450  153.9300 C   0  0  0  0  0  2  0  0  0  0  0  0
  156.7400  209.9230  154.8830 C   0  0  0  0  0  2  0  0  0  0  0  0
  160.0390  207.3930  151.6860 O   0  0  0  0  0  1  0  0  0  0  0  0
  155.3060  210.3370  155.2360 C   0  0  0  0  0  2  0  0  0  0  0  0
  162.2300  208.2850  151.3270 C   0  0  0  0  0  2  0  0  0  0  0  0
  158.6990  211.0280  153.7090 C   0  0  1  0  0  3  0  0  0  0  0  0
  160.6440  212.1720  152.5120 C   0  0  2  0  0  3  0  0  0  0  0  0
  155.2930  211.3310  156.3600 C   0  0  0  0  0  0  0  0  0  0  0  0
  157.1310  212.4510  155.1080 C   0  0  2  0  0  3  0  0  0  0  0  0
  162.3470  210.6850  153.5590 C   0  0  0  0  0  1  0  0  0  0  0  0
  157.7820  211.0630  154.9400 C   0  0  1  0  0  3  0  0  0  0  0  0
  160.9830  208.2690  152.2210 C   0  0  1  0  0  3  0  0  0  0  0  0
  158.1930  213.5360  155.1990 C   0  0  0  0  0  2  0  0  0  0  0  0
  162.2040  209.4530  150.3470 C   0  0  0  0  0  2  0  0  0  0  0  0
  162.2370  210.7890  151.0970 C   0  0  0  0  0  2  0  0  0  0  0  0
  160.3500  209.6580  152.4010 C   0  0  2  0  0  3  0  0  0  0  0  0
  158.7580  213.4890  148.8600 C   0  0  0  0  0  3  0  0  0  0  0  0
  159.9610  212.6310  151.2420 C   0  0  0  0  0  0  0  0  0  0  0  0
  158.5620  212.6900  151.1360 C   0  0  0  0  0  3  0  0  0  0  0  0
  157.9640  213.1180  149.9490 C   0  0  0  0  0  3  0  0  0  0  0  0
  160.1510  213.4320  148.9600 C   0  0  0  0  0  3  0  0  0  0  0  0
  160.7500  213.0030  150.1480 C   0  0  0  0  0  3  0  0  0  0  0  0
  1 21  1  0  0  0  0
  1 12  1  0  0  0  0
  1 15  1  1  0  0  0
  2  6  1  6  0  0  0
  4 13  1  0  0  0  0
  6 18  1  0  0  0  0
  7  9  1  0  0  0  0
  9 13  1  0  0  0  0
 10 17  1  0  0  0  0
 11  3  1  1  0  0  0
 11  2  1  0  0  0  0
 11 16  1  0  0  0  0
 12 23  1  6  0  0  0
 12  2  1  0  0  0  0
 13  5  2  0  0  0  0
 14 18  1  1  0  0  0
 14  4  1  0  0  0  0
 16  7  1  6  0  0  0
 16 14  1  0  0  0  0
 17  8  1  6  0  0  0
 17 21  1  0  0  0  0
 19 20  1  0  0  0  0
 19 10  1  0  0  0  0
 20  1  1  0  0  0  0
 21  3  1  1  0  0  0
 22 26  2  0  0  0  0
 22 25  1  0  0  0  0
 24 23  1  0  0  0  0
 25 24  2  0  0  0  0
 26 27  1  0  0  0  0
 27 23  2  0  0  0  0
M  END
>  <MODEL>
5

>  <REMARK>
 VINA RESULT:      -0.8      2.247      6.252
  Name = 
  1 active torsions:
  status: ('A' for Active; 'I' for Inactive)
    1  A    between atoms: C_9  and  C_15
                            x       y       z     vdW  Elec       q    Type
                         _______ _______ _______ _____ _____    ______ ____

>  <TORSDO>
F 1

$$$$
