=
 OpenBabel11062408353D

 32 35  0  0  1  0  0  0  0  0999 V2000
  161.9170  209.8430  151.4230 C   0  0  0  0  0  0  0  0  0  0  0  0
  162.3030  210.6440  150.4020 F   0  0  0  0  0  0  0  0  0  0  0  0
  161.1220  208.1880  153.5320 C   0  0  0  0  0  3  0  0  0  0  0  0
  161.5300  208.5240  151.1690 C   0  0  0  0  0  3  0  0  0  0  0  0
  161.5090  209.5090  153.7880 C   0  0  0  0  0  0  0  0  0  0  0  0
  161.9110  210.3340  152.7340 C   0  0  0  0  0  3  0  0  0  0  0  0
  161.1330  207.6930  152.2240 C   0  0  0  0  0  0  0  0  0  0  0  0
  160.7520  206.2700  151.9630 C   0  0  0  0  0  2  0  0  0  0  0  0
  161.4260  205.6920  150.7160 C   0  0  2  0  0  3  0  0  0  0  0  0
  160.5520  205.8630  149.4810 C   0  0  0  0  0  2  0  0  0  0  0  0
  161.5810  206.2790  148.0410 S   0  0  0  0  0  0  0  0  0  0  0  0
  161.6450  204.5560  147.4760 C   0  0  0  0  0  2  0  0  0  0  0  0
  161.7420  204.5180  145.9650 C   0  0  0  0  0  2  0  0  0  0  0  0
  160.2270  205.8380  144.9510 O   0  0  0  0  0  1  0  0  0  0  0  0
  161.4930  205.8440  145.4320 N   0  0  0  0  0  2  0  0  0  0  0  0
  161.7440  204.3430  150.9070 O   0  0  0  0  0  0  0  0  0  0  0  0
  160.5530  203.7000  150.8700 N   0  0  0  0  0  2  0  0  0  0  0  0
  160.8490  202.2840  150.7340 C   0  0  0  0  0  2  0  0  0  0  0  0
  161.2230  200.9100  148.6920 C   0  0  0  0  0  1  0  0  0  0  0  0
  160.2160  201.7410  149.4650 C   0  0  0  0  0  2  0  0  0  0  0  0
  161.5260  210.0240  155.1850 C   0  0  0  0  0  2  0  0  0  0  0  0
  159.3660  210.3400  156.7400 O   0  0  0  0  0  0  0  0  0  0  0  0
  160.4240  212.3640  155.8470 O   0  0  0  0  0  0  0  0  0  0  0  0
  160.0370  210.9420  155.5380 S   0  0  0  0  0  0  0  0  0  0  0  0
  158.9640  210.8220  154.1510 N   0  0  0  0  0  0  0  0  0  0  0  0
  157.6600  211.5820  154.1750 C   0  0  2  0  0  0  0  0  0  0  0  0
  157.4810  212.4750  155.2690 O   0  0  0  0  0  0  0  0  0  0  0  0
  157.0580  211.1840  155.4950 C   0  0  0  0  0  2  0  0  0  0  0  0
  158.8960  212.1510  153.5950 C   0  0  2  0  0  3  0  0  0  0  0  0
  158.8420  212.0570  152.0850 C   0  0  0  0  0  3  0  0  0  0  0  0
  158.1940  213.3100  151.5340 C   0  0  0  0  0  2  0  0  0  0  0  0
  159.6980  213.1550  151.4880 C   0  0  0  0  0  2  0  0  0  0  0  0
  1  6  1  0  0  0  0
  2  1  1  0  0  0  0
  3  5  1  0  0  0  0
  4  1  2  0  0  0  0
  4  7  1  0  0  0  0
  5 21  1  0  0  0  0
  6  5  2  0  0  0  0
  7  3  2  0  0  0  0
  8  7  1  0  0  0  0
  9 10  1  6  0  0  0
  9 16  1  0  0  0  0
  9  8  1  0  0  0  0
 11 10  1  0  0  0  0
 12 11  1  0  0  0  0
 13 12  1  0  0  0  0
 14 15  1  0  0  0  0
 15 13  1  0  0  0  0
 17 16  1  0  0  0  0
 18 17  1  0  0  0  0
 19 20  1  0  0  0  0
 20 18  1  0  0  0  0
 21 24  1  0  0  0  0
 24 23  2  0  0  0  0
 24 22  2  0  0  0  0
 25 26  1  0  0  0  0
 25 24  1  0  0  0  0
 26 27  1  0  0  0  0
 26 28  1  6  0  0  0
 27 28  1  0  0  0  0
 29 30  1  6  0  0  0
 29 25  1  0  0  0  0
 29 26  1  0  0  0  0
 31 30  1  0  0  0  0
 32 31  1  0  0  0  0
 32 30  1  0  0  0  0
M  END
>  <MODEL>
1

>  <REMARK>
 VINA RESULT:      -6.3      0.000      0.000
  Name = 
  15 active torsions:
  status: ('A' for Active; 'I' for Inactive)
    1  A    between atoms: C_1  and  C_30
    2  A    between atoms: N_2  and  S_27
    3  A    between atoms: C_6  and  S_17
    4  A    between atoms: C_6  and  C_31
    5  A    between atoms: C_7  and  C_26
    6  A    between atoms: C_7  and  C_31
    7  A    between atoms: O_9  and  C_31
    8  A    between atoms: O_9  and  N_32
    9  A    between atoms: C_12  and  C_28
   10  A    between atoms: C_12  and  N_32
   11  A    between atoms: C_16  and  C_20
   12  A    between atoms: C_16  and  S_27
   13  A    between atoms: S_17  and  C_29
   14  A    between atoms: C_18  and  N_25
   15  A    between atoms: C_18  and  C_29
                            x       y       z     vdW  Elec       q    Type
                         _______ _______ _______ _____ _____    ______ ____

>  <TORSDO>
F 15

$$$$
=
 OpenBabel11062408353D

 32 35  0  0  1  0  0  0  0  0999 V2000
  161.9710  210.8300  149.1320 C   0  0  0  0  0  0  0  0  0  0  0  0
  161.9200  211.8870  148.2870 F   0  0  0  0  0  0  0  0  0  0  0  0
  162.0800  208.6470  150.8750 C   0  0  0  0  0  3  0  0  0  0  0  0
  162.0080  209.5280  148.6220 C   0  0  0  0  0  3  0  0  0  0  0  0
  162.0440  209.9490  151.3880 C   0  0  0  0  0  0  0  0  0  0  0  0
  161.9940  211.0400  150.5150 C   0  0  0  0  0  3  0  0  0  0  0  0
  162.0640  208.4340  149.4940 C   0  0  0  0  0  0  0  0  0  0  0  0
  162.1390  207.0410  148.9540 C   0  0  0  0  0  2  0  0  0  0  0  0
  160.7820  206.3350  148.9350 C   0  0  2  0  0  3  0  0  0  0  0  0
  160.9150  204.8630  149.3050 C   0  0  0  0  0  2  0  0  0  0  0  0
  161.1500  204.6880  151.0990 S   0  0  0  0  0  0  0  0  0  0  0  0
  160.9890  202.8820  151.0350 C   0  0  0  0  0  2  0  0  0  0  0  0
  160.7660  202.4410  149.6030 C   0  0  0  0  0  2  0  0  0  0  0  0
  161.3920  200.6620  148.3750 O   0  0  0  0  0  1  0  0  0  0  0  0
  160.7800  200.9910  149.5370 N   0  0  0  0  0  2  0  0  0  0  0  0
  160.1700  206.4720  147.6850 O   0  0  0  0  0  0  0  0  0  0  0  0
  161.0880  206.0150  146.8010 N   0  0  0  0  0  2  0  0  0  0  0  0
  160.4530  206.0340  145.4940 C   0  0  0  0  0  2  0  0  0  0  0  0
  162.0700  204.1470  145.3340 C   0  0  0  0  0  1  0  0  0  0  0  0
  161.1760  205.0900  144.5500 C   0  0  0  0  0  2  0  0  0  0  0  0
  162.0920  210.1740  152.8590 C   0  0  0  0  0  2  0  0  0  0  0  0
  160.4060  212.2470  153.0660 O   0  0  0  0  0  0  0  0  0  0  0  0
  159.4290  210.0150  152.7950 O   0  0  0  0  0  0  0  0  0  0  0  0
  160.5310  210.8010  153.4540 S   0  0  0  0  0  0  0  0  0  0  0  0
  160.5030  210.6630  155.2060 N   0  0  0  0  0  0  0  0  0  0  0  0
  159.1840  210.8070  155.9240 C   0  0  2  0  0  0  0  0  0  0  0  0
  158.0290  210.8830  155.0940 O   0  0  0  0  0  0  0  0  0  0  0  0
  158.6310  212.0910  155.3680 C   0  0  0  0  0  2  0  0  0  0  0  0
  159.7090  209.4930  155.4920 C   0  0  2  0  0  3  0  0  0  0  0  0
  160.3030  208.7650  156.6790 C   0  0  0  0  0  3  0  0  0  0  0  0
  159.9210  207.3020  156.6040 C   0  0  0  0  0  2  0  0  0  0  0  0
  161.3060  207.7430  156.1830 C   0  0  0  0  0  2  0  0  0  0  0  0
  1  6  1  0  0  0  0
  2  1  1  0  0  0  0
  3  5  1  0  0  0  0
  4  1  2  0  0  0  0
  4  7  1  0  0  0  0
  5 21  1  0  0  0  0
  6  5  2  0  0  0  0
  7  3  2  0  0  0  0
  8  7  1  0  0  0  0
  9  8  1  6  0  0  0
  9 10  1  0  0  0  0
 10 11  1  0  0  0  0
 12 11  1  0  0  0  0
 13 12  1  0  0  0  0
 14 15  1  0  0  0  0
 15 13  1  0  0  0  0
 16  9  1  0  0  0  0
 17 16  1  0  0  0  0
 18 17  1  0  0  0  0
 20 19  1  0  0  0  0
 20 18  1  0  0  0  0
 21 24  1  0  0  0  0
 22 24  2  0  0  0  0
 23 24  2  0  0  0  0
 24 25  1  0  0  0  0
 25 29  1  0  0  0  0
 25 26  1  0  0  0  0
 26 28  1  1  0  0  0
 27 28  1  0  0  0  0
 27 26  1  0  0  0  0
 29 26  1  0  0  0  0
 29 30  1  1  0  0  0
 31 30  1  0  0  0  0
 32 31  1  0  0  0  0
 32 30  1  0  0  0  0
M  END
>  <MODEL>
2

>  <REMARK>
 VINA RESULT:      -6.0      2.246      4.172
  Name = 
  15 active torsions:
  status: ('A' for Active; 'I' for Inactive)
    1  A    between atoms: C_1  and  C_30
    2  A    between atoms: N_2  and  S_27
    3  A    between atoms: C_6  and  S_17
    4  A    between atoms: C_6  and  C_31
    5  A    between atoms: C_7  and  C_26
    6  A    between atoms: C_7  and  C_31
    7  A    between atoms: O_9  and  C_31
    8  A    between atoms: O_9  and  N_32
    9  A    between atoms: C_12  and  C_28
   10  A    between atoms: C_12  and  N_32
   11  A    between atoms: C_16  and  C_20
   12  A    between atoms: C_16  and  S_27
   13  A    between atoms: S_17  and  C_29
   14  A    between atoms: C_18  and  N_25
   15  A    between atoms: C_18  and  C_29
                            x       y       z     vdW  Elec       q    Type
                         _______ _______ _______ _____ _____    ______ ____

>  <TORSDO>
F 15

$$$$
=
 OpenBabel11062408353D

 32 35  0  0  1  0  0  0  0  0999 V2000
  162.0720  208.3200  150.0100 C   0  0  0  0  0  0  0  0  0  0  0  0
  162.4340  208.7890  148.7920 F   0  0  0  0  0  0  0  0  0  0  0  0
  161.3200  207.3500  152.5220 C   0  0  0  0  0  3  0  0  0  0  0  0
  161.4130  209.1580  150.9140 C   0  0  0  0  0  3  0  0  0  0  0  0
  161.9790  206.5100  151.6180 C   0  0  0  0  0  0  0  0  0  0  0  0
  162.3500  206.9940  150.3600 C   0  0  0  0  0  3  0  0  0  0  0  0
  161.0340  208.6740  152.1720 C   0  0  0  0  0  0  0  0  0  0  0  0
  160.2980  209.5550  153.1310 C   0  0  0  0  0  2  0  0  0  0  0  0
  161.0690  210.8300  153.4820 C   0  0  2  0  0  3  0  0  0  0  0  0
  162.0600  210.5870  154.6130 C   0  0  0  0  0  2  0  0  0  0  0  0
  161.1970  210.5950  156.2130 S   0  0  0  0  0  0  0  0  0  0  0  0
  162.2160  209.2460  156.8710 C   0  0  0  0  0  2  0  0  0  0  0  0
  161.3510  208.0290  157.1220 C   0  0  0  0  0  2  0  0  0  0  0  0
  159.8370  207.1770  155.6910 O   0  0  0  0  0  1  0  0  0  0  0  0
  160.0470  208.2300  156.5160 N   0  0  0  0  0  2  0  0  0  0  0  0
  160.1890  211.8640  153.8150 O   0  0  0  0  0  0  0  0  0  0  0  0
  158.9890  211.4630  153.3340 N   0  0  0  0  0  2  0  0  0  0  0  0
  157.9760  212.0930  154.1630 C   0  0  0  0  0  2  0  0  0  0  0  0
  155.9650  211.2400  155.3590 C   0  0  0  0  0  1  0  0  0  0  0  0
  157.4680  211.1080  155.2010 C   0  0  0  0  0  2  0  0  0  0  0  0
  162.2560  205.0920  151.9810 C   0  0  0  0  0  2  0  0  0  0  0  0
  160.7730  202.8630  152.1050 O   0  0  0  0  0  0  0  0  0  0  0  0
  159.8450  204.7730  150.8800 O   0  0  0  0  0  0  0  0  0  0  0  0
  161.1010  203.9970  151.1750 S   0  0  0  0  0  0  0  0  0  0  0  0
  161.8560  203.3590  149.7210 N   0  0  0  0  0  0  0  0  0  0  0  0
  161.0620  202.4220  148.8440 C   0  0  2  0  0  0  0  0  0  0  0  0
  159.6910  202.2590  149.1880 O   0  0  0  0  0  0  0  0  0  0  0  0
  160.5560  201.3910  149.8150 C   0  0  0  0  0  2  0  0  0  0  0  0
  161.0870  203.8840  148.6200 C   0  0  2  0  0  3  0  0  0  0  0  0
  162.0190  204.2100  147.4730 C   0  0  0  0  0  3  0  0  0  0  0  0
  161.4270  203.6700  146.1870 C   0  0  0  0  0  2  0  0  0  0  0  0
  161.3130  205.1440  146.5100 C   0  0  0  0  0  2  0  0  0  0  0  0
  1  6  2  0  0  0  0
  1  4  1  0  0  0  0
  2  1  1  0  0  0  0
  4  7  2  0  0  0  0
  5 21  1  0  0  0  0
  5  3  2  0  0  0  0
  6  5  1  0  0  0  0
  7  3  1  0  0  0  0
  7  8  1  0  0  0  0
  9  8  1  1  0  0  0
  9 16  1  0  0  0  0
  9 10  1  0  0  0  0
 10 11  1  0  0  0  0
 11 12  1  0  0  0  0
 12 13  1  0  0  0  0
 14 15  1  0  0  0  0
 15 13  1  0  0  0  0
 17 16  1  0  0  0  0
 17 18  1  0  0  0  0
 18 20  1  0  0  0  0
 20 19  1  0  0  0  0
 23 24  2  0  0  0  0
 24 21  1  0  0  0  0
 24 22  2  0  0  0  0
 25 24  1  0  0  0  0
 26 27  1  0  0  0  0
 26 25  1  0  0  0  0
 26 28  1  6  0  0  0
 27 28  1  0  0  0  0
 29 30  1  6  0  0  0
 29 26  1  0  0  0  0
 29 25  1  0  0  0  0
 31 32  1  0  0  0  0
 31 30  1  0  0  0  0
 32 30  1  0  0  0  0
M  END
>  <MODEL>
3

>  <REMARK>
 VINA RESULT:      -6.0      2.240      8.762
  Name = 
  15 active torsions:
  status: ('A' for Active; 'I' for Inactive)
    1  A    between atoms: C_1  and  C_30
    2  A    between atoms: N_2  and  S_27
    3  A    between atoms: C_6  and  S_17
    4  A    between atoms: C_6  and  C_31
    5  A    between atoms: C_7  and  C_26
    6  A    between atoms: C_7  and  C_31
    7  A    between atoms: O_9  and  C_31
    8  A    between atoms: O_9  and  N_32
    9  A    between atoms: C_12  and  C_28
   10  A    between atoms: C_12  and  N_32
   11  A    between atoms: C_16  and  C_20
   12  A    between atoms: C_16  and  S_27
   13  A    between atoms: S_17  and  C_29
   14  A    between atoms: C_18  and  N_25
   15  A    between atoms: C_18  and  C_29
                            x       y       z     vdW  Elec       q    Type
                         _______ _______ _______ _____ _____    ______ ____

>  <TORSDO>
F 15

$$$$
=
 OpenBabel11062408353D

 32 35  0  0  1  0  0  0  0  0999 V2000
  160.9050  203.7320  151.5450 C   0  0  0  0  0  0  0  0  0  0  0  0
  160.8570  202.3900  151.7190 F   0  0  0  0  0  0  0  0  0  0  0  0
  161.0090  206.5020  151.1850 C   0  0  0  0  0  3  0  0  0  0  0  0
  161.2900  204.5610  152.6040 C   0  0  0  0  0  3  0  0  0  0  0  0
  160.6250  205.6740  150.1250 C   0  0  0  0  0  0  0  0  0  0  0  0
  160.5780  204.2890  150.3040 C   0  0  0  0  0  3  0  0  0  0  0  0
  161.3440  205.9480  152.4250 C   0  0  0  0  0  0  0  0  0  0  0  0
  161.7880  206.8370  153.5430 C   0  0  0  0  0  2  0  0  0  0  0  0
  160.8970  208.0700  153.7140 C   0  0  2  0  0  3  0  0  0  0  0  0
  161.6910  209.3590  153.5450 C   0  0  0  0  0  2  0  0  0  0  0  0
  161.1640  210.2250  152.0370 S   0  0  0  0  0  0  0  0  0  0  0  0
  159.6430  210.8390  152.8140 C   0  0  0  0  0  2  0  0  0  0  0  0
  159.7200  212.3450  152.9650 C   0  0  0  0  0  2  0  0  0  0  0  0
  158.3380  212.9060  151.2810 O   0  0  0  0  0  1  0  0  0  0  0  0
  159.6370  212.9660  151.6560 N   0  0  0  0  0  2  0  0  0  0  0  0
  160.2570  208.0490  154.9580 O   0  0  0  0  0  0  0  0  0  0  0  0
  161.1810  208.5210  155.8280 N   0  0  0  0  0  2  0  0  0  0  0  0
  160.4490  209.0490  156.9670 C   0  0  0  0  0  2  0  0  0  0  0  0
  158.9420  210.9710  156.4800 C   0  0  0  0  0  1  0  0  0  0  0  0
  160.3500  210.5610  156.8660 C   0  0  0  0  0  2  0  0  0  0  0  0
  160.2980  206.2640  148.7970 C   0  0  0  0  0  2  0  0  0  0  0  0
  161.5500  206.6430  146.4580 O   0  0  0  0  0  0  0  0  0  0  0  0
  162.7090  205.3120  148.1590 O   0  0  0  0  0  0  0  0  0  0  0  0
  161.3720  205.6080  147.5320 S   0  0  0  0  0  0  0  0  0  0  0  0
  160.6180  204.1770  146.8440 N   0  0  0  0  0  0  0  0  0  0  0  0
  161.3460  203.4260  145.7570 C   0  0  2  0  0  0  0  0  0  0  0  0
  162.6770  203.8550  145.4880 O   0  0  0  0  0  0  0  0  0  0  0  0
  161.6990  204.5080  144.7720 C   0  0  0  0  0  2  0  0  0  0  0  0
  161.4860  203.0770  147.1870 C   0  0  2  0  0  3  0  0  0  0  0  0
  160.6440  201.8580  147.5000 C   0  0  0  0  0  3  0  0  0  0  0  0
  161.4520  200.6110  147.2090 C   0  0  0  0  0  2  0  0  0  0  0  0
  161.2880  201.0880  148.6350 C   0  0  0  0  0  2  0  0  0  0  0  0
  1  2  1  0  0  0  0
  1  4  1  0  0  0  0
  3  7  1  0  0  0  0
  5  6  1  0  0  0  0
  5  3  2  0  0  0  0
  6  1  2  0  0  0  0
  7  4  2  0  0  0  0
  7  8  1  0  0  0  0
  9  8  1  1  0  0  0
  9 16  1  0  0  0  0
 10  9  1  0  0  0  0
 11 12  1  0  0  0  0
 11 10  1  0  0  0  0
 12 13  1  0  0  0  0
 14 15  1  0  0  0  0
 15 13  1  0  0  0  0
 16 17  1  0  0  0  0
 17 18  1  0  0  0  0
 19 20  1  0  0  0  0
 20 18  1  0  0  0  0
 21  5  1  0  0  0  0
 22 24  2  0  0  0  0
 24 23  2  0  0  0  0
 24 21  1  0  0  0  0
 25 29  1  0  0  0  0
 25 24  1  0  0  0  0
 26 28  1  6  0  0  0
 26 25  1  0  0  0  0
 26 29  1  0  0  0  0
 27 26  1  0  0  0  0
 28 27  1  0  0  0  0
 29 30  1  6  0  0  0
 30 32  1  0  0  0  0
 31 30  1  0  0  0  0
 31 32  1  0  0  0  0
M  END
>  <MODEL>
4

>  <REMARK>
 VINA RESULT:      -6.0      2.674      9.278
  Name = 
  15 active torsions:
  status: ('A' for Active; 'I' for Inactive)
    1  A    between atoms: C_1  and  C_30
    2  A    between atoms: N_2  and  S_27
    3  A    between atoms: C_6  and  S_17
    4  A    between atoms: C_6  and  C_31
    5  A    between atoms: C_7  and  C_26
    6  A    between atoms: C_7  and  C_31
    7  A    between atoms: O_9  and  C_31
    8  A    between atoms: O_9  and  N_32
    9  A    between atoms: C_12  and  C_28
   10  A    between atoms: C_12  and  N_32
   11  A    between atoms: C_16  and  C_20
   12  A    between atoms: C_16  and  S_27
   13  A    between atoms: S_17  and  C_29
   14  A    between atoms: C_18  and  N_25
   15  A    between atoms: C_18  and  C_29
                            x       y       z     vdW  Elec       q    Type
                         _______ _______ _______ _____ _____    ______ ____

>  <TORSDO>
F 15

$$$$
=
 OpenBabel11062408353D

 32 35  0  0  1  0  0  0  0  0999 V2000
  161.0510  206.9560  153.8370 C   0  0  0  0  0  0  0  0  0  0  0  0
  160.9030  205.8390  154.5880 F   0  0  0  0  0  0  0  0  0  0  0  0
  161.3530  209.2620  152.2860 C   0  0  0  0  0  3  0  0  0  0  0  0
  161.0410  206.8670  152.4420 C   0  0  0  0  0  3  0  0  0  0  0  0
  161.3630  209.3540  153.6830 C   0  0  0  0  0  0  0  0  0  0  0  0
  161.2070  208.2000  154.4570 C   0  0  0  0  0  3  0  0  0  0  0  0
  161.1910  208.0210  151.6640 C   0  0  0  0  0  0  0  0  0  0  0  0
  161.1460  207.9370  150.1710 C   0  0  0  0  0  2  0  0  0  0  0  0
  161.5210  206.5510  149.6400 C   0  0  2  0  0  3  0  0  0  0  0  0
  162.2830  206.6460  148.3250 C   0  0  0  0  0  2  0  0  0  0  0  0
  161.1500  206.3910  146.9260 S   0  0  0  0  0  0  0  0  0  0  0  0
  162.0750  204.9510  146.3230 C   0  0  0  0  0  2  0  0  0  0  0  0
  161.3340  204.3190  145.1630 C   0  0  0  0  0  2  0  0  0  0  0  0
  161.2730  202.7690  146.7930 O   0  0  0  0  0  1  0  0  0  0  0  0
  161.0630  202.9260  145.4650 N   0  0  0  0  0  2  0  0  0  0  0  0
  160.3810  205.7540  149.4890 O   0  0  0  0  0  0  0  0  0  0  0  0
  160.8290  204.4840  149.6270 N   0  0  0  0  0  2  0  0  0  0  0  0
  160.5220  204.0780  150.9880 C   0  0  0  0  0  2  0  0  0  0  0  0
  160.8250  201.7290  150.2220 C   0  0  0  0  0  1  0  0  0  0  0  0
  161.1770  202.7430  151.2930 C   0  0  0  0  0  2  0  0  0  0  0  0
  161.5060  210.6810  154.3440 C   0  0  0  0  0  2  0  0  0  0  0  0
  159.4860  210.2820  156.0590 O   0  0  0  0  0  0  0  0  0  0  0  0
  160.1400  212.5990  155.5990 O   0  0  0  0  0  0  0  0  0  0  0  0
  159.9400  211.2360  154.9910 S   0  0  0  0  0  0  0  0  0  0  0  0
  158.7660  211.2480  153.6830 N   0  0  0  0  0  0  0  0  0  0  0  0
  157.4670  211.9890  153.8810 C   0  0  2  0  0  0  0  0  0  0  0  0
  157.3680  212.7650  155.0700 O   0  0  0  0  0  0  0  0  0  0  0  0
  156.9650  211.4540  155.1950 C   0  0  0  0  0  2  0  0  0  0  0  0
  158.6540  212.6260  153.2710 C   0  0  2  0  0  3  0  0  0  0  0  0
  158.4870  212.6840  151.7680 C   0  0  0  0  0  3  0  0  0  0  0  0
  157.9990  214.0640  151.3780 C   0  0  0  0  0  2  0  0  0  0  0  0
  159.4570  213.7010  151.2000 C   0  0  0  0  0  2  0  0  0  0  0  0
  1  6  1  0  0  0  0
  1  2  1  0  0  0  0
  3  5  1  0  0  0  0
  4  1  2  0  0  0  0
  5 21  1  0  0  0  0
  5  6  2  0  0  0  0
  7  3  2  0  0  0  0
  7  4  1  0  0  0  0
  8  7  1  0  0  0  0
  9 10  1  6  0  0  0
  9  8  1  0  0  0  0
 11 10  1  0  0  0  0
 12 11  1  0  0  0  0
 13 15  1  0  0  0  0
 13 12  1  0  0  0  0
 15 14  1  0  0  0  0
 16 17  1  0  0  0  0
 16  9  1  0  0  0  0
 17 18  1  0  0  0  0
 18 20  1  0  0  0  0
 19 20  1  0  0  0  0
 21 24  1  0  0  0  0
 24 23  2  0  0  0  0
 24 22  2  0  0  0  0
 25 26  1  0  0  0  0
 25 24  1  0  0  0  0
 26 27  1  0  0  0  0
 26 28  1  6  0  0  0
 27 28  1  0  0  0  0
 29 30  1  6  0  0  0
 29 25  1  0  0  0  0
 29 26  1  0  0  0  0
 31 30  1  0  0  0  0
 32 31  1  0  0  0  0
 32 30  1  0  0  0  0
M  END
>  <MODEL>
5

>  <REMARK>
 VINA RESULT:      -5.9      1.756      2.078
  Name = 
  15 active torsions:
  status: ('A' for Active; 'I' for Inactive)
    1  A    between atoms: C_1  and  C_30
    2  A    between atoms: N_2  and  S_27
    3  A    between atoms: C_6  and  S_17
    4  A    between atoms: C_6  and  C_31
    5  A    between atoms: C_7  and  C_26
    6  A    between atoms: C_7  and  C_31
    7  A    between atoms: O_9  and  C_31
    8  A    between atoms: O_9  and  N_32
    9  A    between atoms: C_12  and  C_28
   10  A    between atoms: C_12  and  N_32
   11  A    between atoms: C_16  and  C_20
   12  A    between atoms: C_16  and  S_27
   13  A    between atoms: S_17  and  C_29
   14  A    between atoms: C_18  and  N_25
   15  A    between atoms: C_18  and  C_29
                            x       y       z     vdW  Elec       q    Type
                         _______ _______ _______ _____ _____    ______ ____

>  <TORSDO>
F 15

$$$$
=
 OpenBabel11062408353D

 32 35  0  0  1  0  0  0  0  0999 V2000
  161.0370  203.9770  151.7120 C   0  0  0  0  0  0  0  0  0  0  0  0
  161.1020  202.6550  151.9970 F   0  0  0  0  0  0  0  0  0  0  0  0
  160.9080  206.7070  151.1240 C   0  0  0  0  0  3  0  0  0  0  0  0
  161.3540  204.9200  152.6950 C   0  0  0  0  0  3  0  0  0  0  0  0
  160.5910  205.7640  150.1390 C   0  0  0  0  0  0  0  0  0  0  0  0
  160.6620  204.3990  150.4330 C   0  0  0  0  0  3  0  0  0  0  0  0
  161.2900  206.2880  152.4020 C   0  0  0  0  0  0  0  0  0  0  0  0
  161.6610  207.3000  153.4380 C   0  0  0  0  0  2  0  0  0  0  0  0
  160.9490  208.6410  153.2430 C   0  0  2  0  0  3  0  0  0  0  0  0
  161.9190  209.7280  152.7990 C   0  0  0  0  0  2  0  0  0  0  0  0
  161.2120  210.6700  151.4150 S   0  0  0  0  0  0  0  0  0  0  0  0
  162.2260  209.8010  150.1860 C   0  0  0  0  0  2  0  0  0  0  0  0
  161.9690  210.3810  148.8110 C   0  0  0  0  0  2  0  0  0  0  0  0
  162.8480  212.2670  147.9530 O   0  0  0  0  0  1  0  0  0  0  0  0
  161.9720  211.8300  148.8890 N   0  0  0  0  0  2  0  0  0  0  0  0
  160.2880  209.0250  154.4140 O   0  0  0  0  0  0  0  0  0  0  0  0
  161.1750  209.8100  155.0690 N   0  0  0  0  0  2  0  0  0  0  0  0
  160.5480  210.1900  156.3240 C   0  0  0  0  0  2  0  0  0  0  0  0
  159.9070  212.5490  155.8500 C   0  0  0  0  0  1  0  0  0  0  0  0
  159.3920  211.1380  156.0610 C   0  0  0  0  0  2  0  0  0  0  0  0
  160.2130  206.2120  148.7700 C   0  0  0  0  0  2  0  0  0  0  0  0
  161.5640  206.6020  146.4880 O   0  0  0  0  0  0  0  0  0  0  0  0
  162.6620  205.2900  148.2440 O   0  0  0  0  0  0  0  0  0  0  0  0
  161.3510  205.5670  147.5570 S   0  0  0  0  0  0  0  0  0  0  0  0
  160.6480  204.1250  146.8400 N   0  0  0  0  0  0  0  0  0  0  0  0
  161.4280  203.3880  145.7800 C   0  0  2  0  0  0  0  0  0  0  0  0
  162.7610  203.8380  145.5620 O   0  0  0  0  0  0  0  0  0  0  0  0
  161.7990  204.4760  144.8100 C   0  0  0  0  0  2  0  0  0  0  0  0
  161.5190  203.0390  147.2140 C   0  0  2  0  0  3  0  0  0  0  0  0
  160.6870  201.8060  147.4940 C   0  0  0  0  0  3  0  0  0  0  0  0
  161.5780  200.5830  147.4310 C   0  0  0  0  0  2  0  0  0  0  0  0
  161.1770  201.1560  148.7720 C   0  0  0  0  0  2  0  0  0  0  0  0
  1  2  1  0  0  0  0
  1  4  1  0  0  0  0
  3  7  1  0  0  0  0
  5  6  1  0  0  0  0
  5  3  2  0  0  0  0
  6  1  2  0  0  0  0
  7  4  2  0  0  0  0
  7  8  1  0  0  0  0
  9 10  1  1  0  0  0
  9  8  1  0  0  0  0
  9 16  1  0  0  0  0
 11 10  1  0  0  0  0
 12 11  1  0  0  0  0
 13 15  1  0  0  0  0
 13 12  1  0  0  0  0
 14 15  1  0  0  0  0
 16 17  1  0  0  0  0
 17 18  1  0  0  0  0
 19 20  1  0  0  0  0
 20 18  1  0  0  0  0
 21  5  1  0  0  0  0
 22 24  2  0  0  0  0
 24 23  2  0  0  0  0
 24 21  1  0  0  0  0
 25 29  1  0  0  0  0
 25 24  1  0  0  0  0
 26 28  1  6  0  0  0
 26 25  1  0  0  0  0
 26 29  1  0  0  0  0
 27 26  1  0  0  0  0
 28 27  1  0  0  0  0
 29 30  1  6  0  0  0
 30 32  1  0  0  0  0
 31 30  1  0  0  0  0
 31 32  1  0  0  0  0
M  END
>  <MODEL>
6

>  <REMARK>
 VINA RESULT:      -5.9      2.919      8.996
  Name = 
  15 active torsions:
  status: ('A' for Active; 'I' for Inactive)
    1  A    between atoms: C_1  and  C_30
    2  A    between atoms: N_2  and  S_27
    3  A    between atoms: C_6  and  S_17
    4  A    between atoms: C_6  and  C_31
    5  A    between atoms: C_7  and  C_26
    6  A    between atoms: C_7  and  C_31
    7  A    between atoms: O_9  and  C_31
    8  A    between atoms: O_9  and  N_32
    9  A    between atoms: C_12  and  C_28
   10  A    between atoms: C_12  and  N_32
   11  A    between atoms: C_16  and  C_20
   12  A    between atoms: C_16  and  S_27
   13  A    between atoms: S_17  and  C_29
   14  A    between atoms: C_18  and  N_25
   15  A    between atoms: C_18  and  C_29
                            x       y       z     vdW  Elec       q    Type
                         _______ _______ _______ _____ _____    ______ ____

>  <TORSDO>
F 15

$$$$
=
 OpenBabel11062408353D

 32 35  0  0  1  0  0  0  0  0999 V2000
  161.9430  209.2590  151.5830 C   0  0  0  0  0  0  0  0  0  0  0  0
  162.3050  210.3550  150.8740 F   0  0  0  0  0  0  0  0  0  0  0  0
  161.2000  206.9970  153.0470 C   0  0  0  0  0  3  0  0  0  0  0  0
  162.0580  207.9880  151.0120 C   0  0  0  0  0  3  0  0  0  0  0  0
  161.0850  208.2680  153.6200 C   0  0  0  0  0  0  0  0  0  0  0  0
  161.4620  209.3990  152.8890 C   0  0  0  0  0  3  0  0  0  0  0  0
  161.6870  206.8540  151.7440 C   0  0  0  0  0  0  0  0  0  0  0  0
  161.8410  205.4890  151.1520 C   0  0  0  0  0  2  0  0  0  0  0  0
  160.6820  205.1070  150.2270 C   0  0  2  0  0  3  0  0  0  0  0  0
  160.1030  203.7460  150.5920 C   0  0  0  0  0  2  0  0  0  0  0  0
  161.3880  202.7020  151.3440 S   0  0  0  0  0  0  0  0  0  0  0  0
  160.9770  201.2830  150.2900 C   0  0  0  0  0  2  0  0  0  0  0  0
  160.1680  201.7500  149.0980 C   0  0  0  0  0  2  0  0  0  0  0  0
  161.5060  200.3360  147.9700 O   0  0  0  0  0  1  0  0  0  0  0  0
  160.9440  201.5640  147.8860 N   0  0  0  0  0  2  0  0  0  0  0  0
  161.0920  205.1210  148.8900 O   0  0  0  0  0  0  0  0  0  0  0  0
  160.4270  206.1630  148.3380 N   0  0  0  0  0  2  0  0  0  0  0  0
  160.9220  206.3000  146.9780 C   0  0  0  0  0  2  0  0  0  0  0  0
  162.5580  204.8610  145.7740 C   0  0  0  0  0  1  0  0  0  0  0  0
  162.3710  205.8550  146.9050 C   0  0  0  0  0  2  0  0  0  0  0  0
  160.5940  208.4160  155.0190 C   0  0  0  0  0  2  0  0  0  0  0  0
  160.5780  210.1800  157.0360 O   0  0  0  0  0  0  0  0  0  0  0  0
  161.9870  210.6910  155.0960 O   0  0  0  0  0  0  0  0  0  0  0  0
  160.6650  210.1210  155.5370 S   0  0  0  0  0  0  0  0  0  0  0  0
  159.2970  210.9760  154.8390 N   0  0  0  0  0  0  0  0  0  0  0  0
  159.1170  212.4400  155.1600 C   0  0  2  0  0  0  0  0  0  0  0  0
  160.1790  213.0540  155.8820 O   0  0  0  0  0  0  0  0  0  0  0  0
  159.2030  212.4730  156.6610 C   0  0  0  0  0  2  0  0  0  0  0  0
  159.8650  211.9780  153.9700 C   0  0  2  0  0  3  0  0  0  0  0  0
  158.9990  212.1160  152.7370 C   0  0  0  0  0  3  0  0  0  0  0  0
  158.8940  213.5810  152.3680 C   0  0  0  0  0  2  0  0  0  0  0  0
  159.8360  212.6760  151.6040 C   0  0  0  0  0  2  0  0  0  0  0  0
  1  6  1  0  0  0  0
  2  1  1  0  0  0  0
  3  5  1  0  0  0  0
  4  1  2  0  0  0  0
  4  7  1  0  0  0  0
  5 21  1  0  0  0  0
  6  5  2  0  0  0  0
  7  3  2  0  0  0  0
  8  7  1  0  0  0  0
  9 10  1  1  0  0  0
  9  8  1  0  0  0  0
 10 11  1  0  0  0  0
 12 11  1  0  0  0  0
 13 12  1  0  0  0  0
 15 14  1  0  0  0  0
 15 13  1  0  0  0  0
 16  9  1  0  0  0  0
 17 16  1  0  0  0  0
 18 17  1  0  0  0  0
 19 20  1  0  0  0  0
 20 18  1  0  0  0  0
 21 24  1  0  0  0  0
 23 24  2  0  0  0  0
 24 22  2  0  0  0  0
 25 26  1  0  0  0  0
 25 24  1  0  0  0  0
 26 27  1  0  0  0  0
 26 28  1  6  0  0  0
 27 28  1  0  0  0  0
 29 30  1  6  0  0  0
 29 25  1  0  0  0  0
 29 26  1  0  0  0  0
 31 30  1  0  0  0  0
 32 31  1  0  0  0  0
 32 30  1  0  0  0  0
M  END
>  <MODEL>
7

>  <REMARK>
 VINA RESULT:      -5.9      1.933      2.968
  Name = 
  15 active torsions:
  status: ('A' for Active; 'I' for Inactive)
    1  A    between atoms: C_1  and  C_30
    2  A    between atoms: N_2  and  S_27
    3  A    between atoms: C_6  and  S_17
    4  A    between atoms: C_6  and  C_31
    5  A    between atoms: C_7  and  C_26
    6  A    between atoms: C_7  and  C_31
    7  A    between atoms: O_9  and  C_31
    8  A    between atoms: O_9  and  N_32
    9  A    between atoms: C_12  and  C_28
   10  A    between atoms: C_12  and  N_32
   11  A    between atoms: C_16  and  C_20
   12  A    between atoms: C_16  and  S_27
   13  A    between atoms: S_17  and  C_29
   14  A    between atoms: C_18  and  N_25
   15  A    between atoms: C_18  and  C_29
                            x       y       z     vdW  Elec       q    Type
                         _______ _______ _______ _____ _____    ______ ____

>  <TORSDO>
F 15

$$$$
=
 OpenBabel11062408353D

 32 35  0  0  1  0  0  0  0  0999 V2000
  160.4130  207.4680  155.1740 C   0  0  0  0  0  0  0  0  0  0  0  0
  159.8530  206.8290  156.2280 F   0  0  0  0  0  0  0  0  0  0  0  0
  161.5660  208.7880  152.9960 C   0  0  0  0  0  3  0  0  0  0  0  0
  160.8590  206.7370  154.0690 C   0  0  0  0  0  3  0  0  0  0  0  0
  161.1200  209.5220  154.1010 C   0  0  0  0  0  0  0  0  0  0  0  0
  160.5390  208.8620  155.1870 C   0  0  0  0  0  3  0  0  0  0  0  0
  161.4350  207.3960  152.9770 C   0  0  0  0  0  0  0  0  0  0  0  0
  161.8820  206.6220  151.7770 C   0  0  0  0  0  2  0  0  0  0  0  0
  160.7580  206.3900  150.7650 C   0  0  2  0  0  3  0  0  0  0  0  0
  160.7400  204.9490  150.2730 C   0  0  0  0  0  2  0  0  0  0  0  0
  161.4390  203.8470  151.5390 S   0  0  0  0  0  0  0  0  0  0  0  0
  160.8580  202.3530  150.6900 C   0  0  0  0  0  2  0  0  0  0  0  0
  160.9300  202.5580  149.1910 C   0  0  0  0  0  2  0  0  0  0  0  0
  160.8030  201.5000  147.2090 O   0  0  0  0  0  1  0  0  0  0  0  0
  160.4860  201.3520  148.5170 N   0  0  0  0  0  2  0  0  0  0  0  0
  160.8730  207.2730  149.6870 O   0  0  0  0  0  0  0  0  0  0  0  0
  160.6910  206.5020  148.5890 N   0  0  0  0  0  2  0  0  0  0  0  0
  161.5530  207.0430  147.5520 C   0  0  0  0  0  2  0  0  0  0  0  0
  161.3470  204.8870  146.3230 C   0  0  0  0  0  1  0  0  0  0  0  0
  162.3140  205.9200  146.8700 C   0  0  0  0  0  2  0  0  0  0  0  0
  161.2330  211.0070  154.1060 C   0  0  0  0  0  2  0  0  0  0  0  0
  160.2900  212.2640  151.9350 O   0  0  0  0  0  0  0  0  0  0  0  0
  158.7950  210.6860  153.0690 O   0  0  0  0  0  0  0  0  0  0  0  0
  159.8410  211.7500  153.2740 S   0  0  0  0  0  0  0  0  0  0  0  0
  159.2560  213.0910  154.2470 N   0  0  0  0  0  0  0  0  0  0  0  0
  158.0120  213.8200  153.8050 C   0  0  2  0  0  0  0  0  0  0  0  0
  157.3130  213.2470  152.7050 O   0  0  0  0  0  0  0  0  0  0  0  0
  158.3000  214.1450  152.3640 C   0  0  0  0  0  2  0  0  0  0  0  0
  157.9670  212.6790  154.7450 C   0  0  2  0  0  3  0  0  0  0  0  0
  157.7920  213.1890  156.1590 C   0  0  0  0  0  3  0  0  0  0  0  0
  156.3700  212.9270  156.6070 C   0  0  0  0  0  2  0  0  0  0  0  0
  157.4860  212.0200  157.0740 C   0  0  0  0  0  2  0  0  0  0  0  0
  1  6  1  0  0  0  0
  1  2  1  0  0  0  0
  3  5  1  0  0  0  0
  4  1  2  0  0  0  0
  5 21  1  0  0  0  0
  5  6  2  0  0  0  0
  7  3  2  0  0  0  0
  7  4  1  0  0  0  0
  8  7  1  0  0  0  0
  9 10  1  6  0  0  0
  9  8  1  0  0  0  0
 10 11  1  0  0  0  0
 12 11  1  0  0  0  0
 13 12  1  0  0  0  0
 14 15  1  0  0  0  0
 15 13  1  0  0  0  0
 16  9  1  0  0  0  0
 17 16  1  0  0  0  0
 18 17  1  0  0  0  0
 19 20  1  0  0  0  0
 20 18  1  0  0  0  0
 22 24  2  0  0  0  0
 23 24  2  0  0  0  0
 24 21  1  0  0  0  0
 24 25  1  0  0  0  0
 25 29  1  0  0  0  0
 26 28  1  1  0  0  0
 26 25  1  0  0  0  0
 26 29  1  0  0  0  0
 27 26  1  0  0  0  0
 28 27  1  0  0  0  0
 29 30  1  1  0  0  0
 30 31  1  0  0  0  0
 30 32  1  0  0  0  0
 31 32  1  0  0  0  0
M  END
>  <MODEL>
8

>  <REMARK>
 VINA RESULT:      -5.8      2.610      3.913
  Name = 
  15 active torsions:
  status: ('A' for Active; 'I' for Inactive)
    1  A    between atoms: C_1  and  C_30
    2  A    between atoms: N_2  and  S_27
    3  A    between atoms: C_6  and  S_17
    4  A    between atoms: C_6  and  C_31
    5  A    between atoms: C_7  and  C_26
    6  A    between atoms: C_7  and  C_31
    7  A    between atoms: O_9  and  C_31
    8  A    between atoms: O_9  and  N_32
    9  A    between atoms: C_12  and  C_28
   10  A    between atoms: C_12  and  N_32
   11  A    between atoms: C_16  and  C_20
   12  A    between atoms: C_16  and  S_27
   13  A    between atoms: S_17  and  C_29
   14  A    between atoms: C_18  and  N_25
   15  A    between atoms: C_18  and  C_29
                            x       y       z     vdW  Elec       q    Type
                         _______ _______ _______ _____ _____    ______ ____

>  <TORSDO>
F 15

$$$$
=
 OpenBabel11062408353D

 32 35  0  0  1  0  0  0  0  0999 V2000
  161.1800  206.2860  153.0000 C   0  0  0  0  0  0  0  0  0  0  0  0
  161.1480  205.3400  153.9690 F   0  0  0  0  0  0  0  0  0  0  0  0
  161.2420  208.2390  151.0000 C   0  0  0  0  0  3  0  0  0  0  0  0
  160.8460  205.9500  151.6840 C   0  0  0  0  0  3  0  0  0  0  0  0
  161.5760  208.5760  152.3170 C   0  0  0  0  0  0  0  0  0  0  0  0
  161.5390  207.6000  153.3170 C   0  0  0  0  0  3  0  0  0  0  0  0
  160.8750  206.9280  150.6820 C   0  0  0  0  0  0  0  0  0  0  0  0
  160.4860  206.5830  149.2790 C   0  0  0  0  0  2  0  0  0  0  0  0
  161.5390  205.7390  148.5580 C   0  0  2  0  0  3  0  0  0  0  0  0
  161.2120  205.5850  147.0780 C   0  0  0  0  0  2  0  0  0  0  0  0
  162.7440  205.4540  146.1090 S   0  0  0  0  0  0  0  0  0  0  0  0
  162.1900  203.9430  145.2700 C   0  0  0  0  0  2  0  0  0  0  0  0
  160.7480  204.1020  144.8340 C   0  0  0  0  0  2  0  0  0  0  0  0
  160.8350  202.0170  145.6750 O   0  0  0  0  0  1  0  0  0  0  0  0
  160.0870  202.8110  144.8720 N   0  0  0  0  0  2  0  0  0  0  0  0
  161.6680  204.4850  149.1640 O   0  0  0  0  0  0  0  0  0  0  0  0
  160.6490  203.7520  148.6570 N   0  0  0  0  0  2  0  0  0  0  0  0
  160.2380  202.8310  149.7030 C   0  0  0  0  0  2  0  0  0  0  0  0
  161.1660  200.7680  148.6620 C   0  0  0  0  0  1  0  0  0  0  0  0
  161.2580  201.7150  149.8430 C   0  0  0  0  0  2  0  0  0  0  0  0
  161.9370  209.9800  152.6600 C   0  0  0  0  0  2  0  0  0  0  0  0
  160.4030  212.1760  152.5850 O   0  0  0  0  0  0  0  0  0  0  0  0
  159.2930  210.0340  153.0200 O   0  0  0  0  0  0  0  0  0  0  0  0
  160.5220  210.8590  153.2980 S   0  0  0  0  0  0  0  0  0  0  0  0
  160.7670  211.1450  155.0140 N   0  0  0  0  0  0  0  0  0  0  0  0
  159.5820  211.5380  155.8610 C   0  0  2  0  0  0  0  0  0  0  0  0
  158.3130  211.4850  155.2170 O   0  0  0  0  0  0  0  0  0  0  0  0
  158.9800  212.6840  155.0940 C   0  0  0  0  0  2  0  0  0  0  0  0
  160.0000  210.1290  155.6930 C   0  0  2  0  0  3  0  0  0  0  0  0
  160.7560  209.6710  156.9210 C   0  0  0  0  0  3  0  0  0  0  0  0
  160.4010  208.2270  157.2100 C   0  0  0  0  0  2  0  0  0  0  0  0
  161.7100  208.5600  156.5300 C   0  0  0  0  0  2  0  0  0  0  0  0
  1  6  1  0  0  0  0
  1  2  1  0  0  0  0
  3  5  1  0  0  0  0
  4  1  2  0  0  0  0
  5 21  1  0  0  0  0
  5  6  2  0  0  0  0
  7  3  2  0  0  0  0
  7  4  1  0  0  0  0
  8  7  1  0  0  0  0
  9 10  1  6  0  0  0
  9 16  1  0  0  0  0
  9  8  1  0  0  0  0
 11 10  1  0  0  0  0
 12 11  1  0  0  0  0
 13 15  1  0  0  0  0
 13 12  1  0  0  0  0
 15 14  1  0  0  0  0
 17 16  1  0  0  0  0
 17 18  1  0  0  0  0
 18 20  1  0  0  0  0
 19 20  1  0  0  0  0
 21 24  1  0  0  0  0
 22 24  2  0  0  0  0
 23 24  2  0  0  0  0
 24 25  1  0  0  0  0
 25 29  1  0  0  0  0
 25 26  1  0  0  0  0
 26 28  1  1  0  0  0
 27 26  1  0  0  0  0
 28 27  1  0  0  0  0
 29 26  1  0  0  0  0
 29 30  1  1  0  0  0
 30 31  1  0  0  0  0
 32 30  1  0  0  0  0
 32 31  1  0  0  0  0
M  END
>  <MODEL>
9

>  <REMARK>
 VINA RESULT:      -5.7      2.294      3.438
  Name = 
  15 active torsions:
  status: ('A' for Active; 'I' for Inactive)
    1  A    between atoms: C_1  and  C_30
    2  A    between atoms: N_2  and  S_27
    3  A    between atoms: C_6  and  S_17
    4  A    between atoms: C_6  and  C_31
    5  A    between atoms: C_7  and  C_26
    6  A    between atoms: C_7  and  C_31
    7  A    between atoms: O_9  and  C_31
    8  A    between atoms: O_9  and  N_32
    9  A    between atoms: C_12  and  C_28
   10  A    between atoms: C_12  and  N_32
   11  A    between atoms: C_16  and  C_20
   12  A    between atoms: C_16  and  S_27
   13  A    between atoms: S_17  and  C_29
   14  A    between atoms: C_18  and  N_25
   15  A    between atoms: C_18  and  C_29
                            x       y       z     vdW  Elec       q    Type
                         _______ _______ _______ _____ _____    ______ ____

>  <TORSDO>
F 15

$$$$
