=
 OpenBabel11062408203D

 32 37  0  0  1  0  0  0  0  0999 V2000
  161.4360  205.5880  149.9830 C   0  0  0  0  0  0  0  0  0  0  0  0
  161.0000  207.8460  150.9340 C   0  0  1  0  0  3  0  0  0  0  0  0
  161.4490  204.1130  150.1160 C   0  0  0  0  0  3  0  0  0  0  0  0
  161.1680  206.3520  151.0700 C   0  0  0  0  0  0  0  0  0  0  0  0
  161.3090  208.6010  152.2430 C   0  0  1  0  0  3  0  0  0  0  0  0
  162.4790  212.9760  148.5220 O   0  0  0  0  0  0  0  0  0  0  0  0
  161.7870  208.4400  149.7520 C   0  0  1  0  0  3  0  0  0  0  0  0
  161.9930  211.9280  150.5710 N   0  0  0  0  0  2  0  0  0  0  0  0
  161.9160  210.5100  150.8530 C   0  0  1  0  0  3  0  0  0  0  0  0
  160.6700  205.6930  152.3480 C   0  0  2  0  0  3  0  0  0  0  0  0
  161.0840  210.1130  152.0580 C   0  0  0  0  0  2  0  0  0  0  0  0
  160.9330  206.5530  153.5850 C   0  0  0  0  0  2  0  0  0  0  0  0
  161.3330  204.3310  152.5660 C   0  0  0  0  0  2  0  0  0  0  0  0
  161.3870  207.6700  148.5050 C   0  0  0  0  0  2  0  0  0  0  0  0
  161.8140  206.2040  148.6420 C   0  0  2  0  0  3  0  0  0  0  0  0
  161.4080  209.8490  149.6500 N   0  0  1  0  0  0  0  0  0  0  0  0
  160.4980  208.0060  153.3950 C   0  0  1  0  0  3  0  0  0  0  0  0
  161.3560  203.5190  151.3060 C   0  0  0  0  0  3  0  0  0  0  0  0
  162.2110  211.9320  149.1730 C   0  0  0  0  0  0  0  0  0  0  0  0
  162.0710  210.5830  148.5770 C   0  0  0  0  0  2  0  0  0  0  0  0
  163.0850  204.7690  145.6240 C   0  0  1  0  0  3  0  0  0  0  0  0
  160.5320  204.9100  143.2560 O   0  0  0  0  0  1  0  0  0  0  0  0
  163.7660  203.6900  145.0890 F   0  0  0  0  0  0  0  0  0  0  0  0
  160.0680  205.4050  145.5490 C   0  0  0  0  0  2  0  0  0  0  0  0
  161.3000  205.3780  147.4600 C   0  0  1  0  0  3  0  0  0  0  0  0
  162.2940  205.4040  144.6330 O   0  0  0  0  0  0  0  0  0  0  0  0
  160.7660  206.2160  146.4610 O   0  0  0  0  0  0  0  0  0  0  0  0
  162.3880  204.3990  146.9620 C   0  0  1  0  0  3  0  0  0  0  0  0
  161.8600  203.1070  146.9010 O   0  0  0  0  0  1  0  0  0  0  0  0
  161.0400  204.7740  144.5480 C   0  0  2  0  0  3  0  0  0  0  0  0
  160.7540  208.7690  154.6890 C   0  0  0  0  0  2  0  0  0  0  0  0
  160.2430  207.9790  155.8780 C   0  0  0  0  0  1  0  0  0  0  0  0
  1  3  1  0  0  0  0
  1  4  2  0  0  0  0
  2  4  1  1  0  0  0
  2  5  1  0  0  0  0
  3 18  2  0  0  0  0
  4 10  1  0  0  0  0
  5 11  1  6  0  0  0
  5 17  1  0  0  0  0
  6 19  2  0  0  0  0
  7 14  1  6  0  0  0
  7  2  1  0  0  0  0
  8  9  1  0  0  0  0
  9 11  1  1  0  0  0
 10 13  1  1  0  0  0
 10 12  1  0  0  0  0
 15 14  1  1  0  0  0
 15  1  1  0  0  0  0
 16 20  1  6  0  0  0
 16  7  1  0  0  0  0
 16  9  1  0  0  0  0
 17 12  1  0  0  0  0
 17 31  1  1  0  0  0
 18 13  1  0  0  0  0
 19  8  1  0  0  0  0
 20 19  1  0  0  0  0
 21 23  1  6  0  0  0
 21 28  1  0  0  0  0
 24 27  1  0  0  0  0
 25 27  1  6  0  0  0
 25 15  1  0  0  0  0
 26 21  1  0  0  0  0
 28 29  1  6  0  0  0
 28 25  1  0  0  0  0
 30 22  1  6  0  0  0
 30 26  1  0  0  0  0
 30 24  1  0  0  0  0
 31 32  1  0  0  0  0
M  END
>  <MODEL>
1

>  <REMARK>
 VINA RESULT:      -7.9      0.000      0.000
  Name = 
  2 active torsions:
  status: ('A' for Active; 'I' for Inactive)
    1  A    between atoms: C_13  and  C_29
    2  A    between atoms: C_16  and  C_27
                            x       y       z     vdW  Elec       q    Type
                         _______ _______ _______ _____ _____    ______ ____

>  <TORSDO>
F 2

$$$$
=
 OpenBabel11062408203D

 32 37  0  0  1  0  0  0  0  0999 V2000
  161.9860  208.2860  148.8840 C   0  0  0  0  0  0  0  0  0  0  0  0
  161.1370  207.7000  151.1490 C   0  0  1  0  0  3  0  0  0  0  0  0
  162.2430  207.9270  147.4700 C   0  0  0  0  0  3  0  0  0  0  0  0
  161.5490  207.3330  149.7430 C   0  0  0  0  0  0  0  0  0  0  0  0
  161.2610  206.5180  152.1330 C   0  0  1  0  0  3  0  0  0  0  0  0
  161.8290  210.8500  156.0400 O   0  0  0  0  0  0  0  0  0  0  0  0
  161.8610  208.9470  151.6880 C   0  0  1  0  0  3  0  0  0  0  0  0
  161.4430  208.6710  155.2410 N   0  0  0  0  0  2  0  0  0  0  0  0
  161.5940  208.1760  153.8890 C   0  0  1  0  0  3  0  0  0  0  0  0
  161.1160  205.9770  149.2060 C   0  0  2  0  0  3  0  0  0  0  0  0
  160.7910  206.9370  153.5390 C   0  0  0  0  0  2  0  0  0  0  0  0
  161.1800  204.8830  150.2730 C   0  0  0  0  0  2  0  0  0  0  0  0
  161.9900  205.5420  148.0270 C   0  0  0  0  0  2  0  0  0  0  0  0
  161.6480  210.0670  150.6830 C   0  0  0  0  0  2  0  0  0  0  0  0
  162.3110  209.6990  149.3500 C   0  0  2  0  0  3  0  0  0  0  0  0
  161.2540  209.2700  152.9780 N   0  0  1  0  0  0  0  0  0  0  0  0
  160.5140  205.3010  151.5840 C   0  0  1  0  0  3  0  0  0  0  0  0
  162.2020  206.6610  147.0530 C   0  0  0  0  0  3  0  0  0  0  0  0
  161.7140  210.0500  155.0750 C   0  0  0  0  0  0  0  0  0  0  0  0
  161.8280  210.4330  153.6480 C   0  0  0  0  0  2  0  0  0  0  0  0
  161.4300  213.1600  149.1710 C   0  0  1  0  0  3  0  0  0  0  0  0
  159.2890  213.5450  146.4500 O   0  0  0  0  0  1  0  0  0  0  0  0
  161.9270  214.4520  149.1920 F   0  0  0  0  0  0  0  0  0  0  0  0
  160.4560  211.4830  146.7740 C   0  0  0  0  0  2  0  0  0  0  0  0
  161.9920  210.7480  148.2810 C   0  0  1  0  0  3  0  0  0  0  0  0
  160.1730  213.1180  148.5180 O   0  0  0  0  0  0  0  0  0  0  0  0
  160.6260  210.7110  147.9370 O   0  0  0  0  0  0  0  0  0  0  0  0
  162.5080  212.1410  148.7090 C   0  0  1  0  0  3  0  0  0  0  0  0
  163.2920  212.6830  147.6870 O   0  0  0  0  0  1  0  0  0  0  0  0
  160.3590  212.9690  147.1320 C   0  0  2  0  0  3  0  0  0  0  0  0
  160.5840  204.1360  152.5640 C   0  0  0  0  0  2  0  0  0  0  0  0
  161.1500  202.9050  151.8820 C   0  0  0  0  0  1  0  0  0  0  0  0
  1 15  1  0  0  0  0
  1  4  2  0  0  0  0
  2  4  1  6  0  0  0
  2  7  1  0  0  0  0
  2  5  1  0  0  0  0
  3  1  1  0  0  0  0
  5 11  1  1  0  0  0
  7 14  1  6  0  0  0
  7 16  1  0  0  0  0
  9 11  1  1  0  0  0
  9  8  1  0  0  0  0
 10 13  1  6  0  0  0
 10  4  1  0  0  0  0
 10 12  1  0  0  0  0
 12 17  1  0  0  0  0
 15 14  1  1  0  0  0
 16 20  1  1  0  0  0
 16  9  1  0  0  0  0
 17  5  1  0  0  0  0
 17 31  1  1  0  0  0
 18  3  2  0  0  0  0
 18 13  1  0  0  0  0
 19  8  1  0  0  0  0
 19  6  2  0  0  0  0
 20 19  1  0  0  0  0
 21 23  1  6  0  0  0
 24 30  1  0  0  0  0
 24 27  1  0  0  0  0
 25 27  1  1  0  0  0
 25 28  1  0  0  0  0
 25 15  1  0  0  0  0
 26 21  1  0  0  0  0
 28 29  1  6  0  0  0
 28 21  1  0  0  0  0
 30 22  1  6  0  0  0
 30 26  1  0  0  0  0
 32 31  1  0  0  0  0
M  END
>  <MODEL>
2

>  <REMARK>
 VINA RESULT:      -7.3      3.499      5.935
  Name = 
  2 active torsions:
  status: ('A' for Active; 'I' for Inactive)
    1  A    between atoms: C_13  and  C_29
    2  A    between atoms: C_16  and  C_27
                            x       y       z     vdW  Elec       q    Type
                         _______ _______ _______ _____ _____    ______ ____

>  <TORSDO>
F 2

$$$$
=
 OpenBabel11062408203D

 32 37  0  0  1  0  0  0  0  0999 V2000
  161.3980  208.8690  150.7630 C   0  0  0  0  0  0  0  0  0  0  0  0
  161.8600  206.6200  149.8030 C   0  0  1  0  0  3  0  0  0  0  0  0
  161.2430  209.7660  151.9310 C   0  0  0  0  0  3  0  0  0  0  0  0
  161.5510  207.5370  150.9620 C   0  0  0  0  0  0  0  0  0  0  0  0
  161.4090  205.1670  150.0580 C   0  0  1  0  0  3  0  0  0  0  0  0
  161.2060  205.0320  144.2020 O   0  0  0  0  0  0  0  0  0  0  0  0
  161.3220  207.1390  148.4570 C   0  0  1  0  0  3  0  0  0  0  0  0
  161.2730  204.1990  146.4010 N   0  0  0  0  0  2  0  0  0  0  0  0
  161.1880  204.9430  147.6400 C   0  0  1  0  0  3  0  0  0  0  0  0
  161.7850  207.0090  152.3690 C   0  0  2  0  0  3  0  0  0  0  0  0
  161.7840  204.2700  148.8630 C   0  0  0  0  0  2  0  0  0  0  0  0
  161.3990  205.5350  152.5080 C   0  0  0  0  0  2  0  0  0  0  0  0
  160.9860  207.8070  153.4020 C   0  0  0  0  0  2  0  0  0  0  0  0
  161.8510  208.5510  148.2690 C   0  0  0  0  0  2  0  0  0  0  0  0
  161.2890  209.4650  149.3650 C   0  0  2  0  0  3  0  0  0  0  0  0
  161.8260  206.2410  147.4200 N   0  0  1  0  0  0  0  0  0  0  0  0
  161.9760  204.6690  151.3880 C   0  0  1  0  0  3  0  0  0  0  0  0
  161.0970  209.2840  153.1660 C   0  0  0  0  0  3  0  0  0  0  0  0
  161.2810  205.2400  145.4410 C   0  0  0  0  0  0  0  0  0  0  0  0
  161.4030  206.5780  146.0640 C   0  0  0  0  0  2  0  0  0  0  0  0
  160.4550  212.7020  148.0960 C   0  0  1  0  0  3  0  0  0  0  0  0
  163.4130  214.1710  146.9830 O   0  0  0  0  0  1  0  0  0  0  0  0
  159.7630  213.8710  148.3580 F   0  0  0  0  0  0  0  0  0  0  0  0
  163.4850  212.1500  148.2610 C   0  0  0  0  0  2  0  0  0  0  0  0
  161.9150  210.8590  149.2800 C   0  0  1  0  0  3  0  0  0  0  0  0
  161.4940  212.9340  147.1590 O   0  0  0  0  0  0  0  0  0  0  0  0
  162.7300  210.9710  148.1350 O   0  0  0  0  0  0  0  0  0  0  0  0
  160.8310  211.9550  149.4050 C   0  0  1  0  0  3  0  0  0  0  0  0
  161.1990  212.8630  150.4010 O   0  0  0  0  0  1  0  0  0  0  0  0
  162.6540  213.3620  147.8280 C   0  0  2  0  0  3  0  0  0  0  0  0
  161.5810  203.2180  151.6360 C   0  0  0  0  0  2  0  0  0  0  0  0
  160.2650  203.1500  152.3860 C   0  0  0  0  0  1  0  0  0  0  0  0
  1  4  2  0  0  0  0
  1  3  1  0  0  0  0
  2  5  1  0  0  0  0
  2  4  1  1  0  0  0
  3 18  2  0  0  0  0
  4 10  1  0  0  0  0
  5 11  1  6  0  0  0
  5 17  1  0  0  0  0
  6 19  2  0  0  0  0
  7 14  1  6  0  0  0
  7  2  1  0  0  0  0
  8  9  1  0  0  0  0
  9 11  1  1  0  0  0
 10 12  1  6  0  0  0
 10 13  1  0  0  0  0
 15 14  1  6  0  0  0
 15  1  1  0  0  0  0
 16 20  1  6  0  0  0
 16  9  1  0  0  0  0
 16  7  1  0  0  0  0
 17 31  1  1  0  0  0
 17 12  1  0  0  0  0
 18 13  1  0  0  0  0
 19 20  1  0  0  0  0
 19  8  1  0  0  0  0
 21 23  1  1  0  0  0
 21 28  1  0  0  0  0
 25 27  1  6  0  0  0
 25 15  1  0  0  0  0
 25 28  1  0  0  0  0
 26 30  1  0  0  0  0
 26 21  1  0  0  0  0
 27 24  1  0  0  0  0
 28 29  1  1  0  0  0
 30 22  1  6  0  0  0
 30 24  1  0  0  0  0
 31 32  1  0  0  0  0
M  END
>  <MODEL>
3

>  <REMARK>
 VINA RESULT:      -7.1      2.786      6.489
  Name = 
  2 active torsions:
  status: ('A' for Active; 'I' for Inactive)
    1  A    between atoms: C_13  and  C_29
    2  A    between atoms: C_16  and  C_27
                            x       y       z     vdW  Elec       q    Type
                         _______ _______ _______ _____ _____    ______ ____

>  <TORSDO>
F 2

$$$$
=
 OpenBabel11062408203D

 32 37  0  0  1  0  0  0  0  0999 V2000
  161.3570  207.1520  150.5960 C   0  0  0  0  0  0  0  0  0  0  0  0
  161.6740  205.1310  149.1780 C   0  0  1  0  0  3  0  0  0  0  0  0
  161.2610  207.7900  151.9280 C   0  0  0  0  0  3  0  0  0  0  0  0
  161.4250  205.8010  150.5080 C   0  0  0  0  0  0  0  0  0  0  0  0
  161.1320  203.6870  149.1280 C   0  0  1  0  0  3  0  0  0  0  0  0
  160.9170  204.8020  143.3780 O   0  0  0  0  0  0  0  0  0  0  0  0
  161.1690  205.9530  147.9790 C   0  0  1  0  0  3  0  0  0  0  0  0
  160.9320  203.5210  145.3520 N   0  0  0  0  0  2  0  0  0  0  0  0
  160.8960  203.9910  146.7210 C   0  0  1  0  0  3  0  0  0  0  0  0
  161.6260  204.9740  151.7700 C   0  0  2  0  0  3  0  0  0  0  0  0
  161.4480  203.0400  147.7670 C   0  0  0  0  0  2  0  0  0  0  0  0
  161.1460  203.5310  151.6010 C   0  0  0  0  0  2  0  0  0  0  0  0
  160.8800  205.5850  152.9580 C   0  0  0  0  0  2  0  0  0  0  0  0
  161.7870  207.3380  148.0850 C   0  0  0  0  0  2  0  0  0  0  0  0
  161.2850  208.0330  149.3560 C   0  0  2  0  0  3  0  0  0  0  0  0
  161.6140  205.2650  146.7690 N   0  0  1  0  0  0  0  0  0  0  0  0
  161.6670  202.8860  150.3160 C   0  0  1  0  0  3  0  0  0  0  0  0
  161.0850  207.0690  153.0360 C   0  0  0  0  0  3  0  0  0  0  0  0
  161.0060  204.7380  144.6320 C   0  0  0  0  0  0  0  0  0  0  0  0
  161.2130  205.9050  145.5200 C   0  0  0  0  0  2  0  0  0  0  0  0
  160.6300  211.2210  150.8360 C   0  0  1  0  0  3  0  0  0  0  0  0
  162.2770  213.6150  148.9130 O   0  0  0  0  0  1  0  0  0  0  0  0
  160.6120  211.9290  152.0260 F   0  0  0  0  0  0  0  0  0  0  0  0
  162.7060  211.2890  148.5570 C   0  0  0  0  0  2  0  0  0  0  0  0
  161.9990  209.3730  149.5570 C   0  0  1  0  0  3  0  0  0  0  0  0
  160.7680  212.1000  149.7330 O   0  0  0  0  0  0  0  0  0  0  0  0
  161.8120  210.2110  148.4380 O   0  0  0  0  0  0  0  0  0  0  0  0
  161.5990  210.0090  150.9080 C   0  0  1  0  0  3  0  0  0  0  0  0
  162.7500  210.3420  151.6260 O   0  0  0  0  0  1  0  0  0  0  0  0
  162.1300  212.3560  149.4940 C   0  0  2  0  0  3  0  0  0  0  0  0
  161.1800  201.4430  150.2590 C   0  0  0  0  0  2  0  0  0  0  0  0
  159.7570  201.3860  149.7390 C   0  0  0  0  0  1  0  0  0  0  0  0
  1  3  1  0  0  0  0
  2  4  1  1  0  0  0
  3 18  2  0  0  0  0
  4  1  2  0  0  0  0
  4 10  1  0  0  0  0
  5 11  1  6  0  0  0
  5  2  1  0  0  0  0
  5 17  1  0  0  0  0
  6 19  2  0  0  0  0
  7 14  1  1  0  0  0
  7  2  1  0  0  0  0
  8  9  1  0  0  0  0
  9 16  1  0  0  0  0
  9 11  1  1  0  0  0
 10 12  1  6  0  0  0
 10 13  1  0  0  0  0
 13 18  1  0  0  0  0
 15 14  1  6  0  0  0
 15 25  1  0  0  0  0
 15  1  1  0  0  0  0
 16 20  1  6  0  0  0
 16  7  1  0  0  0  0
 17 31  1  6  0  0  0
 17 12  1  0  0  0  0
 19  8  1  0  0  0  0
 19 20  1  0  0  0  0
 21 28  1  0  0  0  0
 21 23  1  1  0  0  0
 24 30  1  0  0  0  0
 25 27  1  6  0  0  0
 25 28  1  0  0  0  0
 26 21  1  0  0  0  0
 27 24  1  0  0  0  0
 28 29  1  6  0  0  0
 30 22  1  6  0  0  0
 30 26  1  0  0  0  0
 32 31  1  0  0  0  0
M  END
>  <MODEL>
4

>  <REMARK>
 VINA RESULT:      -6.7      2.978      6.723
  Name = 
  2 active torsions:
  status: ('A' for Active; 'I' for Inactive)
    1  A    between atoms: C_13  and  C_29
    2  A    between atoms: C_16  and  C_27
                            x       y       z     vdW  Elec       q    Type
                         _______ _______ _______ _____ _____    ______ ____

>  <TORSDO>
F 2

$$$$
=
 OpenBabel11062408203D

 32 37  0  0  1  0  0  0  0  0999 V2000
  160.7940  210.8160  151.6590 C   0  0  0  0  0  0  0  0  0  0  0  0
  161.3630  208.4490  152.1780 C   0  0  1  0  0  3  0  0  0  0  0  0
  160.4560  212.1880  152.1020 C   0  0  0  0  0  3  0  0  0  0  0  0
  160.8760  209.8210  152.5770 C   0  0  0  0  0  0  0  0  0  0  0  0
  160.8380  207.3370  153.1110 C   0  0  1  0  0  3  0  0  0  0  0  0
  161.6750  204.0300  148.3450 O   0  0  0  0  0  0  0  0  0  0  0  0
  161.0850  208.1110  150.7030 C   0  0  1  0  0  3  0  0  0  0  0  0
  161.3300  204.5320  150.6170 N   0  0  0  0  0  2  0  0  0  0  0  0
  161.0450  205.8200  151.2130 C   0  0  1  0  0  3  0  0  0  0  0  0
  160.8430  210.1620  154.0590 C   0  0  2  0  0  3  0  0  0  0  0  0
  161.3960  205.9670  152.6830 C   0  0  0  0  0  2  0  0  0  0  0  0
  160.4010  208.9750  154.9180 C   0  0  0  0  0  2  0  0  0  0  0  0
  159.8930  211.3290  154.3400 C   0  0  0  0  0  2  0  0  0  0  0  0
  161.6740  209.2300  149.8600 C   0  0  0  0  0  2  0  0  0  0  0  0
  160.9490  210.5460  150.1680 C   0  0  2  0  0  3  0  0  0  0  0  0
  161.7430  206.8360  150.4240 N   0  0  1  0  0  0  0  0  0  0  0  0
  161.1470  207.6870  154.5670 C   0  0  1  0  0  3  0  0  0  0  0  0
  160.0810  212.4440  153.3560 C   0  0  0  0  0  3  0  0  0  0  0  0
  161.5340  204.8810  149.2610 C   0  0  0  0  0  0  0  0  0  0  0  0
  161.5770  206.3490  149.0580 C   0  0  0  0  0  2  0  0  0  0  0  0
  160.1510  212.8980  147.5970 C   0  0  1  0  0  3  0  0  0  0  0  0
  163.0870  213.5390  145.8320 O   0  0  0  0  0  1  0  0  0  0  0  0
  159.5140  214.0960  147.3230 F   0  0  0  0  0  0  0  0  0  0  0  0
  163.1660  212.3150  147.8850 C   0  0  0  0  0  2  0  0  0  0  0  0
  161.6150  211.7140  149.4360 C   0  0  1  0  0  3  0  0  0  0  0  0
  161.1420  212.6240  146.6200 O   0  0  0  0  0  0  0  0  0  0  0  0
  162.3670  211.2510  148.3370 O   0  0  0  0  0  0  0  0  0  0  0  0
  160.5770  212.8060  149.0880 C   0  0  1  0  0  3  0  0  0  0  0  0
  161.0300  214.0440  149.5480 O   0  0  0  0  0  1  0  0  0  0  0  0
  162.3510  213.2440  146.9790 C   0  0  2  0  0  3  0  0  0  0  0  0
  160.6780  206.5780  155.5010 C   0  0  0  0  0  2  0  0  0  0  0  0
  160.0830  207.1680  156.7650 C   0  0  0  0  0  1  0  0  0  0  0  0
  1  3  1  0  0  0  0
  1  4  2  0  0  0  0
  2  4  1  1  0  0  0
  2  5  1  0  0  0  0
  3 18  2  0  0  0  0
  4 10  1  0  0  0  0
  5 11  1  6  0  0  0
  5 17  1  0  0  0  0
  6 19  2  0  0  0  0
  7 14  1  6  0  0  0
  7  2  1  0  0  0  0
  8  9  1  0  0  0  0
  9 11  1  1  0  0  0
 10 13  1  6  0  0  0
 10 12  1  0  0  0  0
 15 14  1  1  0  0  0
 15  1  1  0  0  0  0
 16 20  1  6  0  0  0
 16  7  1  0  0  0  0
 16  9  1  0  0  0  0
 17 12  1  0  0  0  0
 17 31  1  1  0  0  0
 18 13  1  0  0  0  0
 19  8  1  0  0  0  0
 20 19  1  0  0  0  0
 21 23  1  6  0  0  0
 21 28  1  0  0  0  0
 24 27  1  0  0  0  0
 25 27  1  6  0  0  0
 25 15  1  0  0  0  0
 26 30  1  0  0  0  0
 26 21  1  0  0  0  0
 28 25  1  0  0  0  0
 28 29  1  6  0  0  0
 30 22  1  6  0  0  0
 30 24  1  0  0  0  0
 31 32  1  0  0  0  0
M  END
>  <MODEL>
5

>  <REMARK>
 VINA RESULT:      -6.5      3.123      6.520
  Name = 
  2 active torsions:
  status: ('A' for Active; 'I' for Inactive)
    1  A    between atoms: C_13  and  C_29
    2  A    between atoms: C_16  and  C_27
                            x       y       z     vdW  Elec       q    Type
                         _______ _______ _______ _____ _____    ______ ____

>  <TORSDO>
F 2

$$$$
=
 OpenBabel11062408203D

 32 37  0  0  1  0  0  0  0  0999 V2000
  160.9450  208.8840  154.2660 C   0  0  0  0  0  0  0  0  0  0  0  0
  159.5110  210.8480  153.7370 C   0  0  1  0  0  3  0  0  0  0  0  0
  161.3650  207.8050  155.1890 C   0  0  0  0  0  3  0  0  0  0  0  0
  160.0710  209.8260  154.6970 C   0  0  0  0  0  0  0  0  0  0  0  0
  159.0630  212.1450  154.4430 C   0  0  1  0  0  3  0  0  0  0  0  0
  160.1080  214.4530  149.1580 O   0  0  0  0  0  0  0  0  0  0  0  0
  160.4530  211.1560  152.5590 C   0  0  1  0  0  3  0  0  0  0  0  0
  159.2490  214.3100  151.3430 N   0  0  0  0  0  2  0  0  0  0  0  0
  159.5170  213.2970  152.3430 C   0  0  1  0  0  3  0  0  0  0  0  0
  159.3660  209.6430  156.0320 C   0  0  2  0  0  3  0  0  0  0  0  0
  158.4650  213.1330  153.4240 C   0  0  0  0  0  2  0  0  0  0  0  0
  158.8720  210.9680  156.6150 C   0  0  0  0  0  2  0  0  0  0  0  0
  160.2880  208.9870  157.0620 C   0  0  0  0  0  2  0  0  0  0  0  0
  160.8040  209.8330  151.8990 C   0  0  0  0  0  2  0  0  0  0  0  0
  161.5820  208.9530  152.8840 C   0  0  2  0  0  3  0  0  0  0  0  0
  159.7220  212.0290  151.6430 N   0  0  1  0  0  0  0  0  0  0  0  0
  158.1100  211.8120  155.5920 C   0  0  1  0  0  3  0  0  0  0  0  0
  161.0270  207.8200  156.4790 C   0  0  0  0  0  3  0  0  0  0  0  0
  159.9560  213.8050  150.2260 C   0  0  0  0  0  0  0  0  0  0  0  0
  160.4730  212.4360  150.4590 C   0  0  0  0  0  2  0  0  0  0  0  0
  161.1250  207.2510  149.7730 C   0  0  1  0  0  3  0  0  0  0  0  0
  160.3700  203.9300  150.5090 O   0  0  0  0  0  1  0  0  0  0  0  0
  161.6630  207.0380  148.5150 F   0  0  0  0  0  0  0  0  0  0  0  0
  161.1310  205.3980  152.2370 C   0  0  0  0  0  2  0  0  0  0  0  0
  161.8260  207.5620  152.2900 C   0  0  1  0  0  3  0  0  0  0  0  0
  160.2620  206.1860  150.1360 O   0  0  0  0  0  0  0  0  0  0  0  0
  160.7340  206.7100  152.5520 O   0  0  0  0  0  0  0  0  0  0  0  0
  162.2160  207.6650  150.7980 C   0  0  1  0  0  3  0  0  0  0  0  0
  163.3970  206.9520  150.5740 O   0  0  0  0  0  1  0  0  0  0  0  0
  161.0050  205.1520  150.7310 C   0  0  2  0  0  3  0  0  0  0  0  0
  157.6180  213.0830  156.2730 C   0  0  0  0  0  2  0  0  0  0  0  0
  156.1030  213.0980  156.3320 C   0  0  0  0  0  1  0  0  0  0  0  0
  1  4  2  0  0  0  0
  1  3  1  0  0  0  0
  2  5  1  0  0  0  0
  2  4  1  1  0  0  0
  3 18  2  0  0  0  0
  4 10  1  0  0  0  0
  5 11  1  6  0  0  0
  5 17  1  0  0  0  0
  6 19  2  0  0  0  0
  7 14  1  6  0  0  0
  7  2  1  0  0  0  0
  8  9  1  0  0  0  0
  9 11  1  1  0  0  0
 10 12  1  1  0  0  0
 10 13  1  0  0  0  0
 15 14  1  6  0  0  0
 15  1  1  0  0  0  0
 16 20  1  6  0  0  0
 16  9  1  0  0  0  0
 16  7  1  0  0  0  0
 17 31  1  1  0  0  0
 17 12  1  0  0  0  0
 18 13  1  0  0  0  0
 19 20  1  0  0  0  0
 19  8  1  0  0  0  0
 21 23  1  6  0  0  0
 21 26  1  0  0  0  0
 21 28  1  0  0  0  0
 24 27  1  0  0  0  0
 25 27  1  6  0  0  0
 25 15  1  0  0  0  0
 26 30  1  0  0  0  0
 28 29  1  1  0  0  0
 28 25  1  0  0  0  0
 30 22  1  1  0  0  0
 30 24  1  0  0  0  0
 31 32  1  0  0  0  0
M  END
>  <MODEL>
6

>  <REMARK>
 VINA RESULT:      -6.5      3.227      5.254
  Name = 
  2 active torsions:
  status: ('A' for Active; 'I' for Inactive)
    1  A    between atoms: C_13  and  C_29
    2  A    between atoms: C_16  and  C_27
                            x       y       z     vdW  Elec       q    Type
                         _______ _______ _______ _____ _____    ______ ____

>  <TORSDO>
F 2

$$$$
=
 OpenBabel11062408203D

 32 37  0  0  1  0  0  0  0  0999 V2000
  161.0440  204.5730  150.3950 C   0  0  0  0  0  0  0  0  0  0  0  0
  161.4760  203.6030  148.1430 C   0  0  1  0  0  3  0  0  0  0  0  0
  160.8250  204.4070  151.8500 C   0  0  0  0  0  3  0  0  0  0  0  0
  161.1060  203.4750  149.6010 C   0  0  0  0  0  0  0  0  0  0  0  0
  160.9260  202.4450  147.2860 C   0  0  1  0  0  3  0  0  0  0  0  0
  161.2850  206.4640  143.0340 O   0  0  0  0  0  0  0  0  0  0  0  0
  161.0990  204.9680  147.5390 C   0  0  1  0  0  3  0  0  0  0  0  0
  161.0940  204.3310  144.0070 N   0  0  0  0  0  2  0  0  0  0  0  0
  160.9290  204.0000  145.4070 C   0  0  1  0  0  3  0  0  0  0  0  0
  161.1740  202.0930  150.2340 C   0  0  2  0  0  3  0  0  0  0  0  0
  161.3670  202.6060  145.8180 C   0  0  0  0  0  2  0  0  0  0  0  0
  160.6980  200.9950  149.2810 C   0  0  0  0  0  2  0  0  0  0  0  0
  160.3230  202.0210  151.5040 C   0  0  0  0  0  2  0  0  0  0  0  0
  161.7180  206.0420  148.4170 C   0  0  0  0  0  2  0  0  0  0  0  0
  161.1020  205.9820  149.8200 C   0  0  2  0  0  3  0  0  0  0  0  0
  161.6530  205.0050  146.1860 N   0  0  1  0  0  0  0  0  0  0  0  0
  161.3350  201.1030  147.8960 C   0  0  1  0  0  3  0  0  0  0  0  0
  160.5340  203.2180  152.3810 C   0  0  0  0  0  3  0  0  0  0  0  0
  161.2510  205.7360  144.0610 C   0  0  0  0  0  0  0  0  0  0  0  0
  161.3820  206.2350  145.4500 C   0  0  0  0  0  2  0  0  0  0  0  0
  160.5490  207.4950  153.0120 C   0  0  1  0  0  3  0  0  0  0  0  0
  161.9290  210.6930  152.8950 O   0  0  0  0  0  1  0  0  0  0  0  0
  160.6460  207.3090  154.3800 F   0  0  0  0  0  0  0  0  0  0  0  0
  162.3630  209.1350  151.1330 C   0  0  0  0  0  2  0  0  0  0  0  0
  161.8070  206.9620  150.7630 C   0  0  1  0  0  3  0  0  0  0  0  0
  160.5490  208.8770  152.6940 O   0  0  0  0  0  0  0  0  0  0  0  0
  161.4830  208.2930  150.4310 O   0  0  0  0  0  0  0  0  0  0  0  0
  161.5440  206.5870  152.2390 C   0  0  1  0  0  3  0  0  0  0  0  0
  162.7600  206.4970  152.9210 O   0  0  0  0  0  1  0  0  0  0  0  0
  161.8710  209.3380  152.5690 C   0  0  2  0  0  3  0  0  0  0  0  0
  160.8410  199.9460  147.0360 C   0  0  0  0  0  2  0  0  0  0  0  0
  162.0110  199.1090  146.5550 C   0  0  0  0  0  1  0  0  0  0  0  0
  1  3  1  0  0  0  0
  2  4  1  1  0  0  0
  3 18  2  0  0  0  0
  4 10  1  0  0  0  0
  4  1  2  0  0  0  0
  5 11  1  6  0  0  0
  5 17  1  0  0  0  0
  5  2  1  0  0  0  0
  6 19  2  0  0  0  0
  7  2  1  0  0  0  0
  7 14  1  1  0  0  0
  8 19  1  0  0  0  0
  8  9  1  0  0  0  0
  9 11  1  6  0  0  0
  9 16  1  0  0  0  0
 10 12  1  6  0  0  0
 10 13  1  0  0  0  0
 13 18  1  0  0  0  0
 15 14  1  6  0  0  0
 15  1  1  0  0  0  0
 15 25  1  0  0  0  0
 16 20  1  6  0  0  0
 16  7  1  0  0  0  0
 17 31  1  6  0  0  0
 17 12  1  0  0  0  0
 19 20  1  0  0  0  0
 21 23  1  1  0  0  0
 24 30  1  0  0  0  0
 25 27  1  1  0  0  0
 25 28  1  0  0  0  0
 26 21  1  0  0  0  0
 27 24  1  0  0  0  0
 28 29  1  1  0  0  0
 28 21  1  0  0  0  0
 30 26  1  0  0  0  0
 30 22  1  6  0  0  0
 32 31  1  0  0  0  0
M  END
>  <MODEL>
7

>  <REMARK>
 VINA RESULT:      -6.3      3.749      7.286
  Name = 
  2 active torsions:
  status: ('A' for Active; 'I' for Inactive)
    1  A    between atoms: C_13  and  C_29
    2  A    between atoms: C_16  and  C_27
                            x       y       z     vdW  Elec       q    Type
                         _______ _______ _______ _____ _____    ______ ____

>  <TORSDO>
F 2

$$$$
=
 OpenBabel11062408203D

 32 37  0  0  1  0  0  0  0  0999 V2000
  161.3520  209.3660  152.1040 C   0  0  0  0  0  0  0  0  0  0  0  0
  160.4630  211.4220  151.0170 C   0  0  1  0  0  3  0  0  0  0  0  0
  161.3520  208.3970  153.2240 C   0  0  0  0  0  3  0  0  0  0  0  0
  160.6010  210.4910  152.1980 C   0  0  0  0  0  0  0  0  0  0  0  0
  160.1290  212.8690  151.4360 C   0  0  1  0  0  3  0  0  0  0  0  0
  162.6980  214.1090  146.3160 O   0  0  0  0  0  0  0  0  0  0  0  0
  161.6760  211.3850  150.0710 C   0  0  1  0  0  3  0  0  0  0  0  0
  161.3810  214.4530  148.2340 N   0  0  0  0  0  2  0  0  0  0  0  0
  161.2320  213.5850  149.3830 C   0  0  1  0  0  3  0  0  0  0  0  0
  159.6050  210.6370  153.3390 C   0  0  2  0  0  3  0  0  0  0  0  0
  159.9610  213.7630  150.1930 C   0  0  0  0  0  2  0  0  0  0  0  0
  159.2590  212.1000  153.6240 C   0  0  0  0  0  2  0  0  0  0  0  0
  160.1440  210.0170  154.6310 C   0  0  0  0  0  2  0  0  0  0  0  0
  161.9020  209.9350  149.6760 C   0  0  0  0  0  2  0  0  0  0  0  0
  162.2700  209.1120  150.9160 C   0  0  2  0  0  3  0  0  0  0  0  0
  161.3370  212.2040  148.9090 N   0  0  1  0  0  0  0  0  0  0  0  0
  158.9080  212.8780  152.3560 C   0  0  1  0  0  3  0  0  0  0  0  0
  160.7550  208.6710  154.3840 C   0  0  0  0  0  3  0  0  0  0  0  0
  162.2010  213.6710  147.3860 C   0  0  0  0  0  0  0  0  0  0  0  0
  162.3870  212.2930  147.8980 C   0  0  0  0  0  2  0  0  0  0  0  0
  160.4760  206.6890  148.9950 C   0  0  1  0  0  3  0  0  0  0  0  0
  160.7630  203.6360  150.6510 O   0  0  0  0  0  1  0  0  0  0  0  0
  160.2750  206.1830  147.7220 F   0  0  0  0  0  0  0  0  0  0  0  0
  162.0980  205.4990  151.3330 C   0  0  0  0  0  2  0  0  0  0  0  0
  162.3670  207.6240  150.5690 C   0  0  1  0  0  3  0  0  0  0  0  0
  160.1230  205.7280  149.9770 O   0  0  0  0  0  0  0  0  0  0  0  0
  161.7370  206.8390  151.5560 O   0  0  0  0  0  0  0  0  0  0  0  0
  161.8680  207.3640  149.1290 C   0  0  1  0  0  3  0  0  0  0  0  0
  162.8350  206.6440  148.4230 O   0  0  0  0  0  1  0  0  0  0  0  0
  161.2190  204.8870  150.2380 C   0  0  2  0  0  3  0  0  0  0  0  0
  158.5320  214.3040  152.7420 C   0  0  0  0  0  2  0  0  0  0  0  0
  158.3700  214.4180  154.2460 C   0  0  0  0  0  1  0  0  0  0  0  0
  1  4  2  0  0  0  0
  1  3  1  0  0  0  0
  2  5  1  0  0  0  0
  2  4  1  1  0  0  0
  3 18  2  0  0  0  0
  4 10  1  0  0  0  0
  5 11  1  6  0  0  0
  5 17  1  0  0  0  0
  6 19  2  0  0  0  0
  7 14  1  6  0  0  0
  7  2  1  0  0  0  0
  8  9  1  0  0  0  0
  9 11  1  6  0  0  0
 10 12  1  1  0  0  0
 10 13  1  0  0  0  0
 15 14  1  6  0  0  0
 15  1  1  0  0  0  0
 16 20  1  6  0  0  0
 16  9  1  0  0  0  0
 16  7  1  0  0  0  0
 17 31  1  1  0  0  0
 17 12  1  0  0  0  0
 18 13  1  0  0  0  0
 19 20  1  0  0  0  0
 19  8  1  0  0  0  0
 21 23  1  6  0  0  0
 21 28  1  0  0  0  0
 21 26  1  0  0  0  0
 24 27  1  0  0  0  0
 25 15  1  0  0  0  0
 25 27  1  1  0  0  0
 26 30  1  0  0  0  0
 28 29  1  1  0  0  0
 28 25  1  0  0  0  0
 30 22  1  1  0  0  0
 30 24  1  0  0  0  0
 31 32  1  0  0  0  0
M  END
>  <MODEL>
8

>  <REMARK>
 VINA RESULT:      -6.3      2.747      4.747
  Name = 
  2 active torsions:
  status: ('A' for Active; 'I' for Inactive)
    1  A    between atoms: C_13  and  C_29
    2  A    between atoms: C_16  and  C_27
                            x       y       z     vdW  Elec       q    Type
                         _______ _______ _______ _____ _____    ______ ____

>  <TORSDO>
F 2

$$$$
=
 OpenBabel11062408203D

 32 37  0  0  1  0  0  0  0  0999 V2000
  161.8610  209.0570  151.1260 C   0  0  0  0  0  0  0  0  0  0  0  0
  161.0840  206.9810  149.9960 C   0  0  1  0  0  3  0  0  0  0  0  0
  162.2630  210.4820  151.0730 C   0  0  0  0  0  3  0  0  0  0  0  0
  161.6370  208.3850  149.9710 C   0  0  0  0  0  0  0  0  0  0  0  0
  161.4530  206.1730  148.7340 C   0  0  1  0  0  3  0  0  0  0  0  0
  160.7450  201.6420  152.3860 O   0  0  0  0  0  0  0  0  0  0  0  0
  161.4480  206.2070  151.2760 C   0  0  1  0  0  3  0  0  0  0  0  0
  160.9520  202.7800  150.3370 N   0  0  0  0  0  2  0  0  0  0  0  0
  161.2830  204.1720  150.1180 C   0  0  1  0  0  3  0  0  0  0  0  0
  161.5810  209.1480  148.6560 C   0  0  2  0  0  3  0  0  0  0  0  0
  160.8310  204.7650  148.7960 C   0  0  0  0  0  2  0  0  0  0  0  0
  161.8680  208.2500  147.4510 C   0  0  0  0  0  2  0  0  0  0  0  0
  162.5880  210.3010  148.6390 C   0  0  0  0  0  2  0  0  0  0  0  0
  161.0080  207.0520  152.4600 C   0  0  0  0  0  2  0  0  0  0  0  0
  161.8010  208.3650  152.4820 C   0  0  2  0  0  3  0  0  0  0  0  0
  160.7220  204.9390  151.2310 N   0  0  1  0  0  0  0  0  0  0  0  0
  161.0600  206.9530  147.4800 C   0  0  1  0  0  3  0  0  0  0  0  0
  162.5580  211.0810  149.9190 C   0  0  0  0  0  3  0  0  0  0  0  0
  160.8770  202.7200  151.7490 C   0  0  0  0  0  0  0  0  0  0  0  0
  160.9570  204.0610  152.3740 C   0  0  0  0  0  2  0  0  0  0  0  0
  160.3720  208.1060  155.7490 C   0  0  1  0  0  3  0  0  0  0  0  0
  158.0980  210.7230  156.0950 O   0  0  0  0  0  1  0  0  0  0  0  0
  160.6560  207.9370  157.0930 F   0  0  0  0  0  0  0  0  0  0  0  0
  159.5910  210.6720  154.2280 C   0  0  0  0  0  2  0  0  0  0  0  0
  161.2800  209.2930  153.5820 C   0  0  1  0  0  3  0  0  0  0  0  0
  159.1140  208.7380  155.5790 O   0  0  0  0  0  0  0  0  0  0  0  0
  159.9250  209.6150  153.3630 O   0  0  0  0  0  0  0  0  0  0  0  0
  161.5810  208.7070  154.9810 C   0  0  1  0  0  3  0  0  0  0  0  0
  162.2300  209.6690  155.7590 O   0  0  0  0  0  1  0  0  0  0  0  0
  159.2710  210.1340  155.6260 C   0  0  2  0  0  3  0  0  0  0  0  0
  161.3740  206.1510  146.2230 C   0  0  0  0  0  2  0  0  0  0  0  0
  160.2020  206.1960  145.2610 C   0  0  0  0  0  1  0  0  0  0  0  0
  1 15  1  0  0  0  0
  2  4  1  6  0  0  0
  2  7  1  0  0  0  0
  3  1  1  0  0  0  0
  4  1  2  0  0  0  0
  5 11  1  1  0  0  0
  5  2  1  0  0  0  0
  7 14  1  1  0  0  0
  8 19  1  0  0  0  0
  9 11  1  6  0  0  0
  9  8  1  0  0  0  0
  9 16  1  0  0  0  0
 10 12  1  6  0  0  0
 10  4  1  0  0  0  0
 12 17  1  0  0  0  0
 13 10  1  0  0  0  0
 13 18  1  0  0  0  0
 15 14  1  6  0  0  0
 15 25  1  0  0  0  0
 16  7  1  0  0  0  0
 16 20  1  1  0  0  0
 17 31  1  6  0  0  0
 17  5  1  0  0  0  0
 18  3  2  0  0  0  0
 19 20  1  0  0  0  0
 19  6  2  0  0  0  0
 21 23  1  1  0  0  0
 24 30  1  0  0  0  0
 25 27  1  6  0  0  0
 25 28  1  0  0  0  0
 26 30  1  0  0  0  0
 26 21  1  0  0  0  0
 27 24  1  0  0  0  0
 28 21  1  0  0  0  0
 28 29  1  1  0  0  0
 30 22  1  6  0  0  0
 32 31  1  0  0  0  0
M  END
>  <MODEL>
9

>  <REMARK>
 VINA RESULT:      -6.2      4.277      8.368
  Name = 
  2 active torsions:
  status: ('A' for Active; 'I' for Inactive)
    1  A    between atoms: C_13  and  C_29
    2  A    between atoms: C_16  and  C_27
                            x       y       z     vdW  Elec       q    Type
                         _______ _______ _______ _____ _____    ______ ____

>  <TORSDO>
F 2

$$$$
