=
 OpenBabel11062408563D

 55 63  0  0  1  0  0  0  0  0999 V2000
  161.9340  209.6610  150.7290 C   0  0  0  0  0  3  0  0  0  0  0  0
  161.5640  207.2470  152.1080 C   0  0  0  0  0  0  0  0  0  0  0  0
  161.0430  208.4350  152.6230 C   0  0  0  0  0  3  0  0  0  0  0  0
  162.4600  208.4720  150.2110 C   0  0  0  0  0  3  0  0  0  0  0  0
  161.2280  209.6450  151.9400 C   0  0  0  0  0  0  0  0  0  0  0  0
  162.2760  207.2660  150.9000 C   0  0  0  0  0  3  0  0  0  0  0  0
  160.6200  210.8970  152.4680 C   0  0  0  0  0  2  0  0  0  0  0  0
  159.1850  210.6170  152.8930 C   0  0  0  0  0  2  0  0  0  0  0  0
  156.9070  212.7510  156.7570 C   0  0  0  0  0  2  0  0  0  0  0  0
  159.8010  213.7050  151.0810 C   0  0  0  0  0  2  0  0  0  0  0  0
  155.1970  214.4520  156.2050 N   0  0  0  0  0  2  0  0  0  0  0  0
  157.1500  214.0920  154.6410 C   0  0  1  0  0  3  0  0  0  0  0  0
  155.6700  214.4440  154.8090 C   0  0  0  0  0  2  0  0  0  0  0  0
  156.2110  214.0410  157.1860 C   0  0  0  0  0  2  0  0  0  0  0  0
  157.4800  212.8900  155.4140 N   0  0  0  0  0  0  0  0  0  0  0  0
  158.1100  212.9410  152.7080 C   0  0  0  0  0  0  0  0  0  0  0  0
  157.5680  213.2600  150.2920 C   0  0  0  0  0  2  0  0  0  0  0  0
  157.4580  213.9420  153.2240 N   0  0  0  0  0  0  0  0  0  0  0  0
  158.2140  214.2510  149.3430 C   0  0  1  0  0  3  0  0  0  0  0  0
  158.3240  211.8460  154.8860 C   0  0  0  0  0  0  0  0  0  0  0  0
  159.6980  214.2830  149.6760 C   0  0  0  0  0  2  0  0  0  0  0  0
  158.5620  211.8130  153.5560 C   0  0  0  0  0  0  0  0  0  0  0  0
  158.5400  213.0390  151.3460 N   0  0  0  0  0  0  0  0  0  0  0  0
  160.3980  211.0080  155.8550 C   0  0  1  0  0  3  0  0  0  0  0  0
  159.8110  208.5270  156.1160 C   0  0  0  0  0  1  0  0  0  0  0  0
  158.8880  210.8250  155.8590 C   0  0  2  0  0  3  0  0  0  0  0  0
  160.9530  210.8300  157.2610 C   0  0  0  0  0  1  0  0  0  0  0  0
  159.7800  209.7610  155.2320 C   0  0  1  0  0  3  0  0  0  0  0  0
  158.8420  213.1240  147.1310 C   0  0  0  0  0  0  0  0  0  0  0  0
  160.0000  212.5690  147.6620 O   0  0  0  0  0  1  0  0  0  0  0  0
  157.9640  213.9180  147.9430 N   0  0  0  0  0  2  0  0  0  0  0  0
  158.5080  212.8570  145.9440 O   0  0  0  0  0  0  0  0  0  0  0  0
  161.3500  205.9680  152.8500 C   0  0  0  0  0  2  0  0  0  0  0  0
  161.4900  203.4870  152.6460 C   0  0  0  0  0  2  0  0  0  0  0  0
  160.8230  204.0420  151.4040 C   0  0  1  0  0  3  0  0  0  0  0  0
  161.9470  204.8100  152.0670 C   0  0  1  0  0  3  0  0  0  0  0  0
  161.3400  203.4140  150.2630 O   0  0  0  0  0  0  0  0  0  0  0  0
  160.3330  201.4070  145.6420 C   0  0  0  0  0  0  0  0  0  0  0  0
  163.3400  204.7710  145.7690 C   0  0  0  0  0  1  0  0  0  0  0  0
  161.5390  202.8250  147.2670 C   0  0  2  0  0  0  0  0  0  0  0  0
  160.9470  201.0130  149.0060 C   0  0  0  0  0  1  0  0  0  0  0  0
  160.4510  204.7340  148.4800 C   0  0  0  0  0  2  0  0  0  0  0  0
  161.2060  204.3290  147.2260 C   0  0  2  0  0  0  0  0  0  0  0  0
  160.4930  202.2940  148.2860 C   0  0  1  0  0  0  0  0  0  0  0  0
  159.3140  201.0760  146.6760 C   0  0  0  0  0  2  0  0  0  0  0  0
  160.3180  203.4470  149.2980 C   0  0  1  0  0  3  0  0  0  0  0  0
  160.7470  205.1090  145.9770 C   0  0  1  0  0  3  0  0  0  0  0  0
  160.2200  200.9600  144.4720 O   0  0  0  0  0  0  0  0  0  0  0  0
  162.1550  205.3280  146.5600 C   0  0  2  0  0  0  0  0  0  0  0  0
  159.2360  202.0950  147.6530 O   0  0  0  0  0  0  0  0  0  0  0  0
  162.8360  202.6530  147.7680 O   0  0  0  0  0  1  0  0  0  0  0  0
  160.7910  204.3610  144.7960 O   0  0  0  0  0  1  0  0  0  0  0  0
  161.4420  202.1770  145.9940 O   0  0  0  0  0  0  0  0  0  0  0  0
  162.3450  206.6560  147.2680 C   0  0  0  0  0  2  0  0  0  0  0  0
  161.1930  207.4370  147.1500 O   0  0  0  0  0  1  0  0  0  0  0  0
  1  5  1  0  0  0  0
  2  3  1  0  0  0  0
  2 33  1  0  0  0  0
  4  1  2  0  0  0  0
  4  6  1  0  0  0  0
  5  7  1  0  0  0  0
  5  3  2  0  0  0  0
  6  2  2  0  0  0  0
  7  8  1  0  0  0  0
  8 22  1  0  0  0  0
  9 14  1  0  0  0  0
 10 23  1  0  0  0  0
 11 14  1  0  0  0  0
 12 13  1  6  0  0  0
 12 15  1  0  0  0  0
 13 11  1  0  0  0  0
 15  9  1  0  0  0  0
 16 18  2  0  0  0  0
 16 22  1  0  0  0  0
 17 23  1  0  0  0  0
 18 12  1  0  0  0  0
 19 31  1  6  0  0  0
 19 21  1  0  0  0  0
 19 17  1  0  0  0  0
 20 15  1  0  0  0  0
 21 10  1  0  0  0  0
 22 20  2  0  0  0  0
 23 16  1  0  0  0  0
 24 26  1  0  0  0  0
 24 27  1  1  0  0  0
 26 20  1  6  0  0  0
 28 24  1  0  0  0  0
 28 26  1  0  0  0  0
 28 25  1  1  0  0  0
 29 30  1  0  0  0  0
 29 31  1  0  0  0  0
 32 29  2  0  0  0  0
 35 37  1  6  0  0  0
 35 36  1  0  0  0  0
 35 34  1  0  0  0  0
 36 34  1  0  0  0  0
 36 33  1  1  0  0  0
 38 53  1  0  0  0  0
 38 45  1  0  0  0  0
 40 51  1  1  0  0  0
 40 44  1  0  0  0  0
 42 46  1  0  0  0  0
 43 40  1  0  0  0  0
 43 42  1  1  0  0  0
 44 41  1  1  0  0  0
 44 46  1  0  0  0  0
 45 50  1  0  0  0  0
 46 37  1  1  0  0  0
 47 52  1  6  0  0  0
 47 49  1  0  0  0  0
 47 43  1  0  0  0  0
 48 38  2  0  0  0  0
 49 39  1  6  0  0  0
 49 43  1  0  0  0  0
 49 54  1  0  0  0  0
 50 44  1  0  0  0  0
 53 40  1  0  0  0  0
 55 54  1  0  0  0  0
M  END
>  <MODEL>
1

>  <REMARK>
 VINA RESULT:      -6.1      0.000      0.000
  Name = 
  10 active torsions:
  status: ('A' for Active; 'I' for Inactive)
    1  A    between atoms: C_2  and  C_28
    2  A    between atoms: C_2  and  C_44
    3  A    between atoms: O_8  and  C_22
    4  A    between atoms: O_8  and  C_43
    5  A    between atoms: C_11  and  C_38
    6  A    between atoms: C_19  and  C_45
    7  A    between atoms: C_27  and  C_54
    8  A    between atoms: C_28  and  C_49
    9  A    between atoms: N_32  and  C_39
   10  A    between atoms: C_51  and  C_54
                            x       y       z     vdW  Elec       q    Type
                         _______ _______ _______ _____ _____    ______ ____

>  <TORSDO>
F 10

$$$$
