=
 OpenBabel11052422253D

 31 33  0  0  1  0  0  0  0  0999 V2000
  160.8920  208.9940  154.8090 C   0  0  0  0  0  0  0  0  0  0  0  0
  161.2070  207.9570  151.1360 C   0  0  2  0  0  3  0  0  0  0  0  0
  161.8130  209.1770  150.4800 C   0  0  0  0  0  0  0  0  0  0  0  0
  161.1710  207.9180  152.6480 C   0  0  0  0  0  0  0  0  0  0  0  0
  160.8340  207.7420  155.4290 C   0  0  0  0  0  3  0  0  0  0  0  0
  162.3240  210.0800  151.1290 O   0  0  0  0  0  0  0  0  0  0  0  0
  161.4460  205.4460  151.2320 C   0  0  0  0  0  0  0  0  0  0  0  0
  160.7860  210.1790  155.5880 N   0  0  0  0  0  1  0  0  0  0  0  0
  162.3730  207.9110  148.4080 C   0  0  0  0  0  2  0  0  0  0  0  0
  161.1220  205.4570  152.4950 N   0  0  0  0  0  0  0  0  0  0  0  0
  161.9020  206.7150  150.5570 C   0  0  1  0  0  3  0  0  0  0  0  0
  161.0390  209.0810  153.4230 C   0  0  0  0  0  3  0  0  0  0  0  0
  161.0830  206.6590  153.2770 C   0  0  0  0  0  0  0  0  0  0  0  0
  160.9210  206.5770  154.6620 C   0  0  0  0  0  3  0  0  0  0  0  0
  161.7120  206.6800  149.0390 C   0  0  0  0  0  2  0  0  0  0  0  0
  161.7940  209.2140  148.9730 C   0  0  2  0  0  3  0  0  0  0  0  0
  161.4600  204.2460  150.5160 O   0  0  0  0  0  0  0  0  0  0  0  0
  160.9560  203.0290  151.0540 C   0  0  0  0  0  2  0  0  0  0  0  0
  160.4430  202.1380  149.9350 C   0  0  0  0  0  2  0  0  0  0  0  0
  160.9540  202.6070  148.5780 C   0  0  0  0  0  2  0  0  0  0  0  0
  160.8370  201.5140  147.5250 C   0  0  0  0  0  2  0  0  0  0  0  0
  160.1300  201.6560  145.3130 C   0  0  0  0  0  1  0  0  0  0  0  0
  161.2010  202.0330  146.2170 N   0  0  0  0  0  0  0  0  0  0  0  0
  161.1640  203.4860  146.3140 C   0  0  0  0  0  2  0  0  0  0  0  0
  162.1190  204.1340  145.3150 C   0  0  2  0  0  3  0  0  0  0  0  0
  163.2050  204.9180  146.0290 C   0  0  0  0  0  1  0  0  0  0  0  0
  161.4240  204.9720  144.4440 O   0  0  0  0  0  1  0  0  0  0  0  0
  162.5510  210.3480  148.4630 N   0  0  0  0  0  2  0  0  0  0  0  0
  161.5950  211.4050  148.1750 C   0  0  0  0  0  2  0  0  0  0  0  0
  162.7470  213.3270  147.4480 O   0  0  0  0  0  0  0  0  0  0  0  0
  162.2340  212.7370  148.3850 C   0  0  0  0  0  3  0  0  0  0  0  0
  1  5  1  0  0  0  0
  1  8  1  0  0  0  0
  2  3  1  1  0  0  0
  2  4  1  0  0  0  0
  3  6  2  0  0  0  0
  4 13  2  0  0  0  0
  4 12  1  0  0  0  0
  7 10  2  0  0  0  0
  9 16  1  0  0  0  0
  9 15  1  0  0  0  0
 10 13  1  0  0  0  0
 11 15  1  6  0  0  0
 11  2  1  0  0  0  0
 11  7  1  0  0  0  0
 12  1  2  0  0  0  0
 13 14  1  0  0  0  0
 14  5  2  0  0  0  0
 16 28  1  6  0  0  0
 16  3  1  0  0  0  0
 17 18  1  0  0  0  0
 17  7  1  0  0  0  0
 19 18  1  0  0  0  0
 20 19  1  0  0  0  0
 21 20  1  0  0  0  0
 22 23  1  0  0  0  0
 23 24  1  0  0  0  0
 23 21  1  0  0  0  0
 25 26  1  1  0  0  0
 25 24  1  0  0  0  0
 27 25  1  0  0  0  0
 29 31  1  0  0  0  0
 29 28  1  0  0  0  0
 30 31  2  0  0  0  0
M  END
>  <MODEL>
1

>  <REMARK>
 VINA RESULT:      -8.0      0.000      0.000
  Name = 
  11 active torsions:
  status: ('A' for Active; 'I' for Inactive)
    1  A    between atoms: C_1  and  C_24
    2  A    between atoms: C_3  and  C_9
    3  A    between atoms: C_3  and  C_22
    4  A    between atoms: C_7  and  C_9
    5  A    between atoms: C_7  and  O_23
    6  A    between atoms: C_15  and  O_23
    7  A    between atoms: C_18  and  C_26
    8  A    between atoms: N_19  and  C_22
    9  A    between atoms: N_19  and  C_24
   10  A    between atoms: C_26  and  N_31
   11  A    between atoms: C_30  and  N_31
                            x       y       z     vdW  Elec       q    Type
                         _______ _______ _______ _____ _____    ______ ____

>  <TORSDO>
F 11

$$$$
=
 OpenBabel11052422253D

 31 33  0  0  1  0  0  0  0  0999 V2000
  162.0770  210.0260  149.1150 C   0  0  0  0  0  0  0  0  0  0  0  0
  161.6920  208.5020  152.6070 C   0  0  2  0  0  3  0  0  0  0  0  0
  161.1740  209.6550  153.4350 C   0  0  0  0  0  0  0  0  0  0  0  0
  161.7250  208.6760  151.1040 C   0  0  0  0  0  0  0  0  0  0  0  0
  162.0470  208.8750  148.3220 C   0  0  0  0  0  3  0  0  0  0  0  0
  160.7270  210.6750  152.9260 O   0  0  0  0  0  0  0  0  0  0  0  0
  161.2770  206.0530  152.1570 C   0  0  0  0  0  0  0  0  0  0  0  0
  162.2660  211.3000  148.5100 N   0  0  0  0  0  1  0  0  0  0  0  0
  160.5280  208.1490  155.3120 C   0  0  0  0  0  2  0  0  0  0  0  0
  161.6010  206.2210  150.9050 N   0  0  0  0  0  0  0  0  0  0  0  0
  160.9120  207.2420  153.0100 C   0  0  1  0  0  3  0  0  0  0  0  0
  161.9370  209.9250  150.5000 C   0  0  0  0  0  3  0  0  0  0  0  0
  161.7230  207.5170  150.3020 C   0  0  0  0  0  0  0  0  0  0  0  0
  161.8780  207.6210  148.9170 C   0  0  0  0  0  3  0  0  0  0  0  0
  161.1000  206.9780  154.5060 C   0  0  0  0  0  2  0  0  0  0  0  0
  161.1970  209.4760  154.9320 C   0  0  2  0  0  3  0  0  0  0  0  0
  161.1790  204.7670  152.6950 O   0  0  0  0  0  0  0  0  0  0  0  0
  160.5470  203.6960  152.0060 C   0  0  0  0  0  2  0  0  0  0  0  0
  161.5740  202.6430  151.6260 C   0  0  0  0  0  2  0  0  0  0  0  0
  161.0890  201.7950  150.4550 C   0  0  0  0  0  2  0  0  0  0  0  0
  160.5000  202.6550  149.3460 C   0  0  0  0  0  2  0  0  0  0  0  0
  160.8830  202.0400  147.1350 C   0  0  0  0  0  1  0  0  0  0  0  0
  161.4460  202.7800  148.2490 N   0  0  0  0  0  0  0  0  0  0  0  0
  161.4500  204.1820  147.8520 C   0  0  0  0  0  2  0  0  0  0  0  0
  161.7560  204.3370  146.3650 C   0  0  2  0  0  3  0  0  0  0  0  0
  163.2050  204.7310  146.1450 C   0  0  0  0  0  1  0  0  0  0  0  0
  160.9140  205.2860  145.7870 O   0  0  0  0  0  1  0  0  0  0  0  0
  160.5220  210.5750  155.6060 N   0  0  0  0  0  2  0  0  0  0  0  0
  159.2610  210.0580  156.1090 C   0  0  0  0  0  2  0  0  0  0  0  0
  157.9330  211.2330  154.5570 O   0  0  0  0  0  0  0  0  0  0  0  0
  158.1490  210.9790  155.7310 C   0  0  0  0  0  3  0  0  0  0  0  0
  1 12  1  0  0  0  0
  2  4  1  6  0  0  0
  2 11  1  0  0  0  0
  2  3  1  0  0  0  0
  3 16  1  0  0  0  0
  5 14  1  0  0  0  0
  5  1  2  0  0  0  0
  6  3  2  0  0  0  0
  7 17  1  0  0  0  0
  7 11  1  0  0  0  0
  8  1  1  0  0  0  0
 10  7  2  0  0  0  0
 11 15  1  1  0  0  0
 12  4  2  0  0  0  0
 13 10  1  0  0  0  0
 13  4  1  0  0  0  0
 14 13  2  0  0  0  0
 15  9  1  0  0  0  0
 16  9  1  0  0  0  0
 16 28  1  1  0  0  0
 18 17  1  0  0  0  0
 19 18  1  0  0  0  0
 20 19  1  0  0  0  0
 21 20  1  0  0  0  0
 22 23  1  0  0  0  0
 23 21  1  0  0  0  0
 24 23  1  0  0  0  0
 25 26  1  1  0  0  0
 25 24  1  0  0  0  0
 27 25  1  0  0  0  0
 28 29  1  0  0  0  0
 30 31  2  0  0  0  0
 31 29  1  0  0  0  0
M  END
>  <MODEL>
2

>  <REMARK>
 VINA RESULT:      -7.6      1.719      4.614
  Name = 
  11 active torsions:
  status: ('A' for Active; 'I' for Inactive)
    1  A    between atoms: C_1  and  C_24
    2  A    between atoms: C_3  and  C_9
    3  A    between atoms: C_3  and  C_22
    4  A    between atoms: C_7  and  C_9
    5  A    between atoms: C_7  and  O_23
    6  A    between atoms: C_15  and  O_23
    7  A    between atoms: C_18  and  C_26
    8  A    between atoms: N_19  and  C_22
    9  A    between atoms: N_19  and  C_24
   10  A    between atoms: C_26  and  N_31
   11  A    between atoms: C_30  and  N_31
                            x       y       z     vdW  Elec       q    Type
                         _______ _______ _______ _____ _____    ______ ____

>  <TORSDO>
F 11

$$$$
=
 OpenBabel11052422253D

 31 33  0  0  1  0  0  0  0  0999 V2000
  161.0660  203.5840  149.3590 C   0  0  0  0  0  0  0  0  0  0  0  0
  161.8760  207.0230  150.8380 C   0  0  2  0  0  3  0  0  0  0  0  0
  161.7010  207.9580  149.6630 C   0  0  0  0  0  0  0  0  0  0  0  0
  161.3920  205.5980  150.6790 C   0  0  0  0  0  0  0  0  0  0  0  0
  160.7390  202.8730  150.5170 C   0  0  0  0  0  3  0  0  0  0  0  0
  161.1280  207.6150  148.6370 O   0  0  0  0  0  0  0  0  0  0  0  0
  161.2770  206.7900  153.2790 C   0  0  0  0  0  0  0  0  0  0  0  0
  161.0630  202.9290  148.0970 N   0  0  0  0  0  1  0  0  0  0  0  0
  161.7090  209.9700  151.1330 C   0  0  0  0  0  2  0  0  0  0  0  0
  161.1530  205.5000  153.1330 N   0  0  0  0  0  0  0  0  0  0  0  0
  161.2560  207.6940  152.0730 C   0  0  1  0  0  3  0  0  0  0  0  0
  161.4100  204.9350  149.4430 C   0  0  0  0  0  3  0  0  0  0  0  0
  161.0880  204.8670  151.8460 C   0  0  0  0  0  0  0  0  0  0  0  0
  160.7580  203.5120  151.7590 C   0  0  0  0  0  3  0  0  0  0  0  0
  161.9420  209.0380  152.3270 C   0  0  0  0  0  2  0  0  0  0  0  0
  162.2350  209.3580  149.8290 C   0  0  2  0  0  3  0  0  0  0  0  0
  161.3430  207.3520  154.5570 O   0  0  0  0  0  0  0  0  0  0  0  0
  160.2040  207.4670  155.4010 C   0  0  0  0  0  2  0  0  0  0  0  0
  160.6300  207.4280  156.8590 C   0  0  0  0  0  2  0  0  0  0  0  0
  161.4910  208.6340  157.2150 C   0  0  0  0  0  2  0  0  0  0  0  0
  160.7160  209.9370  157.0800 C   0  0  0  0  0  2  0  0  0  0  0  0
  162.9110  210.4150  156.4730 C   0  0  0  0  0  1  0  0  0  0  0  0
  161.5790  210.9850  156.5600 N   0  0  0  0  0  0  0  0  0  0  0  0
  161.1530  211.2430  155.1910 C   0  0  0  0  0  2  0  0  0  0  0  0
  159.6450  211.4640  155.1100 C   0  0  2  0  0  3  0  0  0  0  0  0
  159.1150  211.1050  153.7340 C   0  0  0  0  0  1  0  0  0  0  0  0
  159.3260  212.7870  155.4110 O   0  0  0  0  0  1  0  0  0  0  0  0
  161.8580  210.2030  148.7040 N   0  0  0  0  0  2  0  0  0  0  0  0
  161.8590  211.5760  149.1830 C   0  0  0  0  0  2  0  0  0  0  0  0
  163.5280  212.2690  147.6700 O   0  0  0  0  0  0  0  0  0  0  0  0
  162.4180  212.4780  148.1330 C   0  0  0  0  0  3  0  0  0  0  0  0
  1 12  2  0  0  0  0
  1  5  1  0  0  0  0
  2  3  1  6  0  0  0
  2 11  1  0  0  0  0
  3 16  1  0  0  0  0
  4  2  1  0  0  0  0
  4 13  2  0  0  0  0
  5 14  2  0  0  0  0
  6  3  2  0  0  0  0
  7 17  1  0  0  0  0
  8  1  1  0  0  0  0
  9 15  1  0  0  0  0
 10  7  2  0  0  0  0
 11 15  1  1  0  0  0
 11  7  1  0  0  0  0
 12  4  1  0  0  0  0
 13 10  1  0  0  0  0
 14 13  1  0  0  0  0
 16 28  1  6  0  0  0
 16  9  1  0  0  0  0
 17 18  1  0  0  0  0
 18 19  1  0  0  0  0
 19 20  1  0  0  0  0
 21 20  1  0  0  0  0
 22 23  1  0  0  0  0
 23 21  1  0  0  0  0
 24 23  1  0  0  0  0
 25 26  1  6  0  0  0
 25 24  1  0  0  0  0
 25 27  1  0  0  0  0
 28 29  1  0  0  0  0
 30 31  2  0  0  0  0
 31 29  1  0  0  0  0
M  END
>  <MODEL>
3

>  <REMARK>
 VINA RESULT:      -7.5      2.218      7.508
  Name = 
  11 active torsions:
  status: ('A' for Active; 'I' for Inactive)
    1  A    between atoms: C_1  and  C_24
    2  A    between atoms: C_3  and  C_9
    3  A    between atoms: C_3  and  C_22
    4  A    between atoms: C_7  and  C_9
    5  A    between atoms: C_7  and  O_23
    6  A    between atoms: C_15  and  O_23
    7  A    between atoms: C_18  and  C_26
    8  A    between atoms: N_19  and  C_22
    9  A    between atoms: N_19  and  C_24
   10  A    between atoms: C_26  and  N_31
   11  A    between atoms: C_30  and  N_31
                            x       y       z     vdW  Elec       q    Type
                         _______ _______ _______ _____ _____    ______ ____

>  <TORSDO>
F 11

$$$$
=
 OpenBabel11052422253D

 31 33  0  0  1  0  0  0  0  0999 V2000
  162.0390  210.1600  149.3260 C   0  0  0  0  0  0  0  0  0  0  0  0
  161.6160  207.8970  152.3860 C   0  0  2  0  0  3  0  0  0  0  0  0
  161.0900  208.8380  153.4460 C   0  0  0  0  0  0  0  0  0  0  0  0
  161.6650  208.4010  150.9610 C   0  0  0  0  0  0  0  0  0  0  0  0
  162.0160  209.2140  148.2970 C   0  0  0  0  0  3  0  0  0  0  0  0
  160.6500  209.9460  153.1720 O   0  0  0  0  0  0  0  0  0  0  0  0
  161.2030  205.6100  151.3980 C   0  0  0  0  0  0  0  0  0  0  0  0
  162.2350  211.5350  149.0230 N   0  0  0  0  0  1  0  0  0  0  0  0
  160.4230  206.9530  154.9330 C   0  0  0  0  0  2  0  0  0  0  0  0
  161.5400  206.0520  150.2180 N   0  0  0  0  0  0  0  0  0  0  0  0
  160.8310  206.5800  152.4910 C   0  0  1  0  0  3  0  0  0  0  0  0
  161.8840  209.7530  150.6520 C   0  0  0  0  0  3  0  0  0  0  0  0
  161.6700  207.4500  149.9200 C   0  0  0  0  0  0  0  0  0  0  0  0
  161.8400  207.8600  148.5950 C   0  0  0  0  0  3  0  0  0  0  0  0
  161.0020  205.9890  153.8920 C   0  0  0  0  0  2  0  0  0  0  0  0
  161.0980  208.3290  154.8650 C   0  0  2  0  0  3  0  0  0  0  0  0
  161.0990  204.2370  151.6350 O   0  0  0  0  0  0  0  0  0  0  0  0
  161.5880  203.2640  150.7210 C   0  0  0  0  0  2  0  0  0  0  0  0
  160.4430  202.7020  149.8950 C   0  0  0  0  0  2  0  0  0  0  0  0
  160.9350  202.1870  148.5470 C   0  0  0  0  0  2  0  0  0  0  0  0
  161.3090  203.3290  147.6130 C   0  0  0  0  0  2  0  0  0  0  0  0
  160.7360  201.6710  146.0840 C   0  0  0  0  0  1  0  0  0  0  0  0
  161.6040  202.8160  146.2850 N   0  0  0  0  0  0  0  0  0  0  0  0
  161.1710  203.8320  145.3340 C   0  0  0  0  0  2  0  0  0  0  0  0
  161.3730  205.2380  145.8910 C   0  0  2  0  0  3  0  0  0  0  0  0
  160.2630  206.1690  145.4380 C   0  0  0  0  0  1  0  0  0  0  0  0
  162.6100  205.7480  145.4990 O   0  0  0  0  0  1  0  0  0  0  0  0
  160.4160  209.2530  155.7610 N   0  0  0  0  0  2  0  0  0  0  0  0
  161.3860  209.6730  156.7590 C   0  0  0  0  0  2  0  0  0  0  0  0
  160.9560  211.8940  156.0980 O   0  0  0  0  0  0  0  0  0  0  0  0
  161.7750  211.0940  156.5200 C   0  0  0  0  0  3  0  0  0  0  0  0
  1 12  1  0  0  0  0
  2  4  1  6  0  0  0
  2 11  1  0  0  0  0
  2  3  1  0  0  0  0
  3 16  1  0  0  0  0
  5 14  1  0  0  0  0
  5  1  2  0  0  0  0
  6  3  2  0  0  0  0
  7 17  1  0  0  0  0
  7 11  1  0  0  0  0
  8  1  1  0  0  0  0
 10  7  2  0  0  0  0
 11 15  1  1  0  0  0
 12  4  2  0  0  0  0
 13 10  1  0  0  0  0
 13  4  1  0  0  0  0
 14 13  2  0  0  0  0
 15  9  1  0  0  0  0
 16  9  1  0  0  0  0
 16 28  1  1  0  0  0
 18 17  1  0  0  0  0
 19 18  1  0  0  0  0
 20 19  1  0  0  0  0
 21 20  1  0  0  0  0
 22 23  1  0  0  0  0
 23 21  1  0  0  0  0
 24 25  1  0  0  0  0
 24 23  1  0  0  0  0
 25 26  1  6  0  0  0
 27 25  1  0  0  0  0
 28 29  1  0  0  0  0
 30 31  2  0  0  0  0
 31 29  1  0  0  0  0
M  END
>  <MODEL>
4

>  <REMARK>
 VINA RESULT:      -7.4      1.760      4.558
  Name = 
  11 active torsions:
  status: ('A' for Active; 'I' for Inactive)
    1  A    between atoms: C_1  and  C_24
    2  A    between atoms: C_3  and  C_9
    3  A    between atoms: C_3  and  C_22
    4  A    between atoms: C_7  and  C_9
    5  A    between atoms: C_7  and  O_23
    6  A    between atoms: C_15  and  O_23
    7  A    between atoms: C_18  and  C_26
    8  A    between atoms: N_19  and  C_22
    9  A    between atoms: N_19  and  C_24
   10  A    between atoms: C_26  and  N_31
   11  A    between atoms: C_30  and  N_31
                            x       y       z     vdW  Elec       q    Type
                         _______ _______ _______ _____ _____    ______ ____

>  <TORSDO>
F 11

$$$$
=
 OpenBabel11052422253D

 31 33  0  0  1  0  0  0  0  0999 V2000
  161.2040  204.2860  148.6860 C   0  0  0  0  0  0  0  0  0  0  0  0
  160.9960  207.3310  150.9990 C   0  0  2  0  0  3  0  0  0  0  0  0
  161.0830  206.7250  152.3810 C   0  0  0  0  0  0  0  0  0  0  0  0
  161.2990  206.4340  149.8190 C   0  0  0  0  0  0  0  0  0  0  0  0
  161.6310  204.8890  147.4990 C   0  0  0  0  0  3  0  0  0  0  0  0
  161.4500  205.5720  152.5660 O   0  0  0  0  0  0  0  0  0  0  0  0
  161.9400  209.2150  149.6090 C   0  0  0  0  0  0  0  0  0  0  0  0
  160.9430  202.8880  148.7190 N   0  0  0  0  0  1  0  0  0  0  0  0
  161.5140  208.9420  153.4370 C   0  0  0  0  0  2  0  0  0  0  0  0
  161.9050  208.4580  148.5470 N   0  0  0  0  0  0  0  0  0  0  0  0
  161.8680  208.5960  150.9820 C   0  0  1  0  0  3  0  0  0  0  0  0
  161.0200  205.0580  149.8340 C   0  0  0  0  0  3  0  0  0  0  0  0
  161.7020  207.0390  148.6120 C   0  0  0  0  0  0  0  0  0  0  0  0
  161.8720  206.2650  147.4610 C   0  0  0  0  0  3  0  0  0  0  0  0
  161.3730  209.5760  152.0490 C   0  0  0  0  0  2  0  0  0  0  0  0
  160.7300  207.6270  153.5370 C   0  0  2  0  0  3  0  0  0  0  0  0
  162.1320  210.5940  149.4870 O   0  0  0  0  0  0  0  0  0  0  0  0
  161.9300  211.2890  148.2640 C   0  0  0  0  0  2  0  0  0  0  0  0
  163.0380  212.3080  148.0530 C   0  0  0  0  0  2  0  0  0  0  0  0
  162.5440  213.5000  147.2430 C   0  0  0  0  0  2  0  0  0  0  0  0
  161.7400  213.0600  146.0280 C   0  0  0  0  0  2  0  0  0  0  0  0
  163.1540  213.3620  144.2050 C   0  0  0  0  0  1  0  0  0  0  0  0
  162.0140  213.9330  144.8990 N   0  0  0  0  0  0  0  0  0  0  0  0
  160.8800  213.8170  143.9900 C   0  0  0  0  0  2  0  0  0  0  0  0
  160.2630  212.4230  144.0460 C   0  0  2  0  0  3  0  0  0  0  0  0
  160.3780  211.7210  142.7050 C   0  0  0  0  0  1  0  0  0  0  0  0
  158.9240  212.4940  144.4320 O   0  0  0  0  0  1  0  0  0  0  0  0
  161.0130  206.9850  154.8130 N   0  0  0  0  0  2  0  0  0  0  0  0
  160.0300  207.4740  155.7650 C   0  0  0  0  0  2  0  0  0  0  0  0
  161.9210  208.2620  156.9300 O   0  0  0  0  0  0  0  0  0  0  0  0
  160.7210  208.0420  156.9600 C   0  0  0  0  0  3  0  0  0  0  0  0
  1  8  1  0  0  0  0
  1 12  1  0  0  0  0
  2  4  1  6  0  0  0
  2  3  1  0  0  0  0
  3  6  2  0  0  0  0
  3 16  1  0  0  0  0
  4 12  2  0  0  0  0
  5  1  2  0  0  0  0
  7 11  1  0  0  0  0
  9 16  1  0  0  0  0
 10 13  1  0  0  0  0
 10  7  2  0  0  0  0
 11  2  1  0  0  0  0
 11 15  1  1  0  0  0
 13  4  1  0  0  0  0
 14  5  1  0  0  0  0
 14 13  2  0  0  0  0
 15  9  1  0  0  0  0
 16 28  1  1  0  0  0
 17  7  1  0  0  0  0
 18 17  1  0  0  0  0
 19 18  1  0  0  0  0
 20 19  1  0  0  0  0
 21 20  1  0  0  0  0
 22 23  1  0  0  0  0
 23 21  1  0  0  0  0
 24 25  1  0  0  0  0
 24 23  1  0  0  0  0
 25 26  1  6  0  0  0
 25 27  1  0  0  0  0
 28 29  1  0  0  0  0
 29 31  1  0  0  0  0
 30 31  2  0  0  0  0
M  END
>  <MODEL>
5

>  <REMARK>
 VINA RESULT:      -7.2      2.772      7.903
  Name = 
  11 active torsions:
  status: ('A' for Active; 'I' for Inactive)
    1  A    between atoms: C_1  and  C_24
    2  A    between atoms: C_3  and  C_9
    3  A    between atoms: C_3  and  C_22
    4  A    between atoms: C_7  and  C_9
    5  A    between atoms: C_7  and  O_23
    6  A    between atoms: C_15  and  O_23
    7  A    between atoms: C_18  and  C_26
    8  A    between atoms: N_19  and  C_22
    9  A    between atoms: N_19  and  C_24
   10  A    between atoms: C_26  and  N_31
   11  A    between atoms: C_30  and  N_31
                            x       y       z     vdW  Elec       q    Type
                         _______ _______ _______ _____ _____    ______ ____

>  <TORSDO>
F 11

$$$$
=
 OpenBabel11052422253D

 31 33  0  0  1  0  0  0  0  0999 V2000
  160.7510  202.9350  149.2100 C   0  0  0  0  0  0  0  0  0  0  0  0
  161.0310  206.4240  150.7620 C   0  0  2  0  0  3  0  0  0  0  0  0
  161.1050  206.1420  152.2450 C   0  0  0  0  0  0  0  0  0  0  0  0
  161.1650  205.2510  149.8160 C   0  0  0  0  0  0  0  0  0  0  0  0
  161.1950  203.1910  147.9090 C   0  0  0  0  0  3  0  0  0  0  0  0
  161.3330  205.0220  152.6850 O   0  0  0  0  0  0  0  0  0  0  0  0
  162.1380  207.8030  148.9590 C   0  0  0  0  0  0  0  0  0  0  0  0
  160.3190  201.6280  149.5690 N   0  0  0  0  0  1  0  0  0  0  0  0
  161.8570  208.4630  152.7540 C   0  0  0  0  0  2  0  0  0  0  0  0
  161.9600  206.8370  148.1020 N   0  0  0  0  0  0  0  0  0  0  0  0
  162.0520  207.5270  150.4400 C   0  0  1  0  0  3  0  0  0  0  0  0
  160.7170  203.9640  150.1520 C   0  0  0  0  0  3  0  0  0  0  0  0
  161.5850  205.5090  148.4950 C   0  0  0  0  0  0  0  0  0  0  0  0
  161.6040  204.4790  147.5510 C   0  0  0  0  0  3  0  0  0  0  0  0
  161.7330  208.7790  151.2590 C   0  0  0  0  0  2  0  0  0  0  0  0
  160.9200  207.3200  153.1670 C   0  0  2  0  0  3  0  0  0  0  0  0
  162.4960  209.0810  148.5210 O   0  0  0  0  0  0  0  0  0  0  0  0
  161.5610  210.1490  148.4360 C   0  0  0  0  0  2  0  0  0  0  0  0
  162.2940  211.4790  148.3690 C   0  0  0  0  0  2  0  0  0  0  0  0
  161.3520  212.6430  148.6520 C   0  0  0  0  0  2  0  0  0  0  0  0
  161.2220  213.5660  147.4490 C   0  0  0  0  0  2  0  0  0  0  0  0
  159.5360  212.5760  146.1880 C   0  0  0  0  0  1  0  0  0  0  0  0
  160.9700  212.7910  146.2450 N   0  0  0  0  0  0  0  0  0  0  0  0
  161.3020  213.6480  145.1140 C   0  0  0  0  0  2  0  0  0  0  0  0
  162.1960  212.9240  144.1110 C   0  0  2  0  0  3  0  0  0  0  0  0
  163.4550  213.7210  143.8280 C   0  0  0  0  0  1  0  0  0  0  0  0
  161.5070  212.6860  142.9220 O   0  0  0  0  0  1  0  0  0  0  0  0
  161.1790  206.9520  154.5520 N   0  0  0  0  0  2  0  0  0  0  0  0
  161.0700  208.1660  155.3440 C   0  0  0  0  0  2  0  0  0  0  0  0
  160.1150  207.0190  157.1680 O   0  0  0  0  0  0  0  0  0  0  0  0
  160.0510  207.9810  156.4180 C   0  0  0  0  0  3  0  0  0  0  0  0
  1  8  1  0  0  0  0
  1 12  1  0  0  0  0
  2  4  1  6  0  0  0
  2  3  1  0  0  0  0
  3  6  2  0  0  0  0
  3 16  1  0  0  0  0
  4 12  2  0  0  0  0
  5  1  2  0  0  0  0
  7 11  1  0  0  0  0
  9 16  1  0  0  0  0
 10 13  1  0  0  0  0
 10  7  2  0  0  0  0
 11  2  1  0  0  0  0
 11 15  1  1  0  0  0
 13  4  1  0  0  0  0
 14  5  1  0  0  0  0
 14 13  2  0  0  0  0
 15  9  1  0  0  0  0
 16 28  1  1  0  0  0
 17  7  1  0  0  0  0
 18 17  1  0  0  0  0
 19 18  1  0  0  0  0
 19 20  1  0  0  0  0
 21 20  1  0  0  0  0
 22 23  1  0  0  0  0
 23 21  1  0  0  0  0
 24 23  1  0  0  0  0
 25 26  1  6  0  0  0
 25 24  1  0  0  0  0
 27 25  1  0  0  0  0
 28 29  1  0  0  0  0
 29 31  1  0  0  0  0
 31 30  2  0  0  0  0
M  END
>  <MODEL>
6

>  <REMARK>
 VINA RESULT:      -7.1      2.644      7.728
  Name = 
  11 active torsions:
  status: ('A' for Active; 'I' for Inactive)
    1  A    between atoms: C_1  and  C_24
    2  A    between atoms: C_3  and  C_9
    3  A    between atoms: C_3  and  C_22
    4  A    between atoms: C_7  and  C_9
    5  A    between atoms: C_7  and  O_23
    6  A    between atoms: C_15  and  O_23
    7  A    between atoms: C_18  and  C_26
    8  A    between atoms: N_19  and  C_22
    9  A    between atoms: N_19  and  C_24
   10  A    between atoms: C_26  and  N_31
   11  A    between atoms: C_30  and  N_31
                            x       y       z     vdW  Elec       q    Type
                         _______ _______ _______ _____ _____    ______ ____

>  <TORSDO>
F 11

$$$$
=
 OpenBabel11052422253D

 31 33  0  0  1  0  0  0  0  0999 V2000
  160.8700  202.8450  148.3200 C   0  0  0  0  0  0  0  0  0  0  0  0
  161.8270  206.0280  150.2230 C   0  0  2  0  0  3  0  0  0  0  0  0
  161.6890  207.1130  149.1810 C   0  0  0  0  0  0  0  0  0  0  0  0
  161.2830  204.6560  149.8870 C   0  0  0  0  0  0  0  0  0  0  0  0
  160.5160  202.0040  149.3790 C   0  0  0  0  0  3  0  0  0  0  0  0
  161.1000  206.9290  148.1230 O   0  0  0  0  0  0  0  0  0  0  0  0
  161.2240  205.5060  152.6190 C   0  0  0  0  0  0  0  0  0  0  0  0
  160.8370  202.3590  146.9840 N   0  0  0  0  0  1  0  0  0  0  0  0
  161.7840  208.9170  150.8980 C   0  0  0  0  0  2  0  0  0  0  0  0
  161.0460  204.2520  152.3080 N   0  0  0  0  0  0  0  0  0  0  0  0
  161.2380  206.5590  151.5390 C   0  0  1  0  0  3  0  0  0  0  0  0
  161.2710  204.1580  148.5740 C   0  0  0  0  0  3  0  0  0  0  0  0
  160.9520  203.7940  150.9520 C   0  0  0  0  0  0  0  0  0  0  0  0
  160.5650  202.4770  150.6930 C   0  0  0  0  0  3  0  0  0  0  0  0
  161.9800  207.8290  151.9590 C   0  0  0  0  0  2  0  0  0  0  0  0
  162.2810  208.4570  149.5210 C   0  0  2  0  0  3  0  0  0  0  0  0
  161.3160  205.8960  153.9580 O   0  0  0  0  0  0  0  0  0  0  0  0
  160.3020  206.6540  154.6040 C   0  0  0  0  0  2  0  0  0  0  0  0
  160.9240  207.6000  155.6180 C   0  0  0  0  0  2  0  0  0  0  0  0
  160.6090  209.0530  155.2830 C   0  0  0  0  0  2  0  0  0  0  0  0
  160.1290  209.8200  156.5060 C   0  0  0  0  0  2  0  0  0  0  0  0
  160.6850  212.0670  156.7500 C   0  0  0  0  0  1  0  0  0  0  0  0
  159.7290  211.1670  156.1320 N   0  0  0  0  0  0  0  0  0  0  0  0
  159.9280  211.2820  154.6930 C   0  0  0  0  0  2  0  0  0  0  0  0
  158.6890  211.8480  154.0040 C   0  0  2  0  0  3  0  0  0  0  0  0
  157.4320  211.5200  154.7870 C   0  0  0  0  0  1  0  0  0  0  0  0
  158.5820  211.3540  152.7040 O   0  0  0  0  0  1  0  0  0  0  0  0
  161.9380  209.4550  148.5180 N   0  0  0  0  0  2  0  0  0  0  0  0
  161.9760  210.7510  149.1750 C   0  0  0  0  0  2  0  0  0  0  0  0
  160.8190  211.9210  147.4880 O   0  0  0  0  0  0  0  0  0  0  0  0
  161.8340  211.8370  148.1620 C   0  0  0  0  0  3  0  0  0  0  0  0
  1 12  2  0  0  0  0
  1  5  1  0  0  0  0
  2  3  1  6  0  0  0
  2 11  1  0  0  0  0
  3 16  1  0  0  0  0
  4  2  1  0  0  0  0
  4 13  2  0  0  0  0
  5 14  2  0  0  0  0
  6  3  2  0  0  0  0
  7 17  1  0  0  0  0
  8  1  1  0  0  0  0
  9 15  1  0  0  0  0
 10  7  2  0  0  0  0
 11 15  1  1  0  0  0
 11  7  1  0  0  0  0
 12  4  1  0  0  0  0
 13 10  1  0  0  0  0
 14 13  1  0  0  0  0
 16 28  1  6  0  0  0
 16  9  1  0  0  0  0
 17 18  1  0  0  0  0
 18 19  1  0  0  0  0
 20 19  1  0  0  0  0
 20 21  1  0  0  0  0
 23 21  1  0  0  0  0
 23 22  1  0  0  0  0
 24 23  1  0  0  0  0
 25 24  1  0  0  0  0
 25 26  1  1  0  0  0
 27 25  1  0  0  0  0
 28 29  1  0  0  0  0
 30 31  2  0  0  0  0
 31 29  1  0  0  0  0
M  END
>  <MODEL>
7

>  <REMARK>
 VINA RESULT:      -7.1      2.036      7.566
  Name = 
  11 active torsions:
  status: ('A' for Active; 'I' for Inactive)
    1  A    between atoms: C_1  and  C_24
    2  A    between atoms: C_3  and  C_9
    3  A    between atoms: C_3  and  C_22
    4  A    between atoms: C_7  and  C_9
    5  A    between atoms: C_7  and  O_23
    6  A    between atoms: C_15  and  O_23
    7  A    between atoms: C_18  and  C_26
    8  A    between atoms: N_19  and  C_22
    9  A    between atoms: N_19  and  C_24
   10  A    between atoms: C_26  and  N_31
   11  A    between atoms: C_30  and  N_31
                            x       y       z     vdW  Elec       q    Type
                         _______ _______ _______ _____ _____    ______ ____

>  <TORSDO>
F 11

$$$$
=
 OpenBabel11052422253D

 31 33  0  0  1  0  0  0  0  0999 V2000
  161.1990  204.2850  148.8050 C   0  0  0  0  0  0  0  0  0  0  0  0
  161.0300  207.3540  151.0890 C   0  0  2  0  0  3  0  0  0  0  0  0
  161.1550  206.7650  152.4750 C   0  0  0  0  0  0  0  0  0  0  0  0
  161.3090  206.4460  149.9120 C   0  0  0  0  0  0  0  0  0  0  0  0
  161.5930  204.8770  147.6010 C   0  0  0  0  0  3  0  0  0  0  0  0
  161.5330  205.6160  152.6630 O   0  0  0  0  0  0  0  0  0  0  0  0
  161.9270  209.2290  149.6550 C   0  0  0  0  0  0  0  0  0  0  0  0
  160.9470  202.8870  148.8600 N   0  0  0  0  0  1  0  0  0  0  0  0
  161.5970  208.9950  153.4950 C   0  0  0  0  0  2  0  0  0  0  0  0
  161.8700  208.4600  148.6030 N   0  0  0  0  0  0  0  0  0  0  0  0
  161.8930  208.6250  151.0360 C   0  0  1  0  0  3  0  0  0  0  0  0
  161.0380  205.0690  149.9490 C   0  0  0  0  0  3  0  0  0  0  0  0
  161.6780  207.0400  148.6880 C   0  0  0  0  0  0  0  0  0  0  0  0
  161.8240  206.2550  147.5420 C   0  0  0  0  0  3  0  0  0  0  0  0
  161.4180  209.6130  152.1040 C   0  0  0  0  0  2  0  0  0  0  0  0
  160.8250  207.6770  153.6290 C   0  0  2  0  0  3  0  0  0  0  0  0
  162.1080  210.6070  149.5140 O   0  0  0  0  0  0  0  0  0  0  0  0
  161.9950  211.2680  148.2600 C   0  0  0  0  0  2  0  0  0  0  0  0
  161.7550  212.7540  148.4740 C   0  0  0  0  0  2  0  0  0  0  0  0
  160.8450  212.9990  149.6710 C   0  0  0  0  0  2  0  0  0  0  0  0
  159.7520  214.0070  149.3490 C   0  0  0  0  0  2  0  0  0  0  0  0
  157.4320  213.8660  149.4650 C   0  0  0  0  0  1  0  0  0  0  0  0
  158.5960  213.3330  148.7810 N   0  0  0  0  0  0  0  0  0  0  0  0
  158.4920  213.7670  147.3940 C   0  0  0  0  0  2  0  0  0  0  0  0
  158.3630  212.5780  146.4470 C   0  0  2  0  0  3  0  0  0  0  0  0
  159.2880  212.7290  145.2530 C   0  0  0  0  0  1  0  0  0  0  0  0
  157.0460  212.4360  146.0120 O   0  0  0  0  0  1  0  0  0  0  0  0
  161.1430  207.0510  154.9050 N   0  0  0  0  0  2  0  0  0  0  0  0
  160.1570  207.5150  155.8670 C   0  0  0  0  0  2  0  0  0  0  0  0
  161.9790  208.4760  157.0110 O   0  0  0  0  0  0  0  0  0  0  0  0
  160.8440  208.0340  157.0860 C   0  0  0  0  0  3  0  0  0  0  0  0
  1  8  1  0  0  0  0
  1 12  1  0  0  0  0
  2  4  1  6  0  0  0
  2  3  1  0  0  0  0
  3  6  2  0  0  0  0
  3 16  1  0  0  0  0
  4 12  2  0  0  0  0
  5  1  2  0  0  0  0
  7 11  1  0  0  0  0
  9 16  1  0  0  0  0
 10 13  1  0  0  0  0
 10  7  2  0  0  0  0
 11  2  1  0  0  0  0
 11 15  1  1  0  0  0
 13  4  1  0  0  0  0
 14  5  1  0  0  0  0
 14 13  2  0  0  0  0
 15  9  1  0  0  0  0
 16 28  1  1  0  0  0
 17  7  1  0  0  0  0
 18 19  1  0  0  0  0
 18 17  1  0  0  0  0
 19 20  1  0  0  0  0
 21 20  1  0  0  0  0
 23 21  1  0  0  0  0
 23 22  1  0  0  0  0
 24 23  1  0  0  0  0
 25 26  1  6  0  0  0
 25 24  1  0  0  0  0
 27 25  1  0  0  0  0
 28 29  1  0  0  0  0
 29 31  1  0  0  0  0
 30 31  2  0  0  0  0
M  END
>  <MODEL>
8

>  <REMARK>
 VINA RESULT:      -6.9      2.738      8.049
  Name = 
  11 active torsions:
  status: ('A' for Active; 'I' for Inactive)
    1  A    between atoms: C_1  and  C_24
    2  A    between atoms: C_3  and  C_9
    3  A    between atoms: C_3  and  C_22
    4  A    between atoms: C_7  and  C_9
    5  A    between atoms: C_7  and  O_23
    6  A    between atoms: C_15  and  O_23
    7  A    between atoms: C_18  and  C_26
    8  A    between atoms: N_19  and  C_22
    9  A    between atoms: N_19  and  C_24
   10  A    between atoms: C_26  and  N_31
   11  A    between atoms: C_30  and  N_31
                            x       y       z     vdW  Elec       q    Type
                         _______ _______ _______ _____ _____    ______ ____

>  <TORSDO>
F 11

$$$$
=
 OpenBabel11052422253D

 31 33  0  0  1  0  0  0  0  0999 V2000
  161.0920  209.3960  153.6000 C   0  0  0  0  0  0  0  0  0  0  0  0
  160.7740  206.6230  150.9780 C   0  0  2  0  0  3  0  0  0  0  0  0
  161.2410  207.2920  149.7050 C   0  0  0  0  0  0  0  0  0  0  0  0
  161.0030  207.3570  152.2810 C   0  0  0  0  0  0  0  0  0  0  0  0
  161.1590  208.6390  154.7740 C   0  0  0  0  0  3  0  0  0  0  0  0
  161.8450  208.3560  149.7120 O   0  0  0  0  0  0  0  0  0  0  0  0
  161.0600  204.4950  152.3070 C   0  0  0  0  0  0  0  0  0  0  0  0
  161.1070  210.8160  153.6690 N   0  0  0  0  0  1  0  0  0  0  0  0
  161.4470  205.1120  148.5150 C   0  0  0  0  0  2  0  0  0  0  0  0
  160.9600  205.1690  153.4190 N   0  0  0  0  0  0  0  0  0  0  0  0
  161.3740  205.2090  151.0160 C   0  0  1  0  0  3  0  0  0  0  0  0
  160.9940  208.7580  152.3620 C   0  0  0  0  0  3  0  0  0  0  0  0
  161.0430  206.6000  153.4700 C   0  0  0  0  0  0  0  0  0  0  0  0
  161.1270  207.2430  154.7080 C   0  0  0  0  0  3  0  0  0  0  0  0
  160.9230  204.4260  149.7810 C   0  0  0  0  0  2  0  0  0  0  0  0
  160.9580  206.5620  148.4160 C   0  0  2  0  0  3  0  0  0  0  0  0
  160.9640  203.1010  152.3140 O   0  0  0  0  0  0  0  0  0  0  0  0
  161.6260  202.2850  151.3560 C   0  0  0  0  0  2  0  0  0  0  0  0
  160.7270  201.1320  150.9430 C   0  0  0  0  0  2  0  0  0  0  0  0
  160.5050  201.1180  149.4350 C   0  0  0  0  0  2  0  0  0  0  0  0
  161.6950  200.5190  148.6980 C   0  0  0  0  0  2  0  0  0  0  0  0
  161.4210  199.4630  146.6430 C   0  0  0  0  0  1  0  0  0  0  0  0
  161.5780  200.7630  147.2700 N   0  0  0  0  0  0  0  0  0  0  0  0
  160.3220  201.4720  147.0640 C   0  0  0  0  0  2  0  0  0  0  0  0
  160.4040  202.4130  145.8650 C   0  0  2  0  0  3  0  0  0  0  0  0
  159.8520  201.7530  144.6150 C   0  0  0  0  0  1  0  0  0  0  0  0
  161.7220  202.8150  145.6470 O   0  0  0  0  0  1  0  0  0  0  0  0
  161.5990  207.2190  147.2860 N   0  0  0  0  0  2  0  0  0  0  0  0
  161.6220  206.2620  146.1930 C   0  0  0  0  0  2  0  0  0  0  0  0
  159.9630  205.3780  144.7720 O   0  0  0  0  0  0  0  0  0  0  0  0
  160.3430  206.3350  145.4280 C   0  0  0  0  0  3  0  0  0  0  0  0
  1  8  1  0  0  0  0
  1  5  1  0  0  0  0
  2  3  1  6  0  0  0
  2 11  1  0  0  0  0
  2  4  1  0  0  0  0
  3  6  2  0  0  0  0
  4 12  1  0  0  0  0
  4 13  2  0  0  0  0
  7 17  1  0  0  0  0
  7 10  2  0  0  0  0
  9 15  1  0  0  0  0
 10 13  1  0  0  0  0
 11 15  1  6  0  0  0
 11  7  1  0  0  0  0
 12  1  2  0  0  0  0
 13 14  1  0  0  0  0
 14  5  2  0  0  0  0
 16 28  1  6  0  0  0
 16  9  1  0  0  0  0
 16  3  1  0  0  0  0
 18 17  1  0  0  0  0
 19 18  1  0  0  0  0
 20 19  1  0  0  0  0
 21 20  1  0  0  0  0
 22 23  1  0  0  0  0
 23 21  1  0  0  0  0
 24 23  1  0  0  0  0
 25 26  1  6  0  0  0
 25 24  1  0  0  0  0
 27 25  1  0  0  0  0
 29 28  1  0  0  0  0
 30 31  2  0  0  0  0
 31 29  1  0  0  0  0
M  END
>  <MODEL>
9

>  <REMARK>
 VINA RESULT:      -6.1      2.215      3.060
  Name = 
  11 active torsions:
  status: ('A' for Active; 'I' for Inactive)
    1  A    between atoms: C_1  and  C_24
    2  A    between atoms: C_3  and  C_9
    3  A    between atoms: C_3  and  C_22
    4  A    between atoms: C_7  and  C_9
    5  A    between atoms: C_7  and  O_23
    6  A    between atoms: C_15  and  O_23
    7  A    between atoms: C_18  and  C_26
    8  A    between atoms: N_19  and  C_22
    9  A    between atoms: N_19  and  C_24
   10  A    between atoms: C_26  and  N_31
   11  A    between atoms: C_30  and  N_31
                            x       y       z     vdW  Elec       q    Type
                         _______ _______ _______ _____ _____    ______ ____

>  <TORSDO>
F 11

$$$$
