=
 OpenBabel11062409033D

 37 44  0  0  1  0  0  0  0  0999 V2000
  161.3050  209.8790  148.5290 C   0  0  0  0  0  2  0  0  0  0  0  0
  161.6890  205.7300  146.3290 C   0  0  0  0  0  0  0  0  0  0  0  0
  160.9890  205.6600  150.4960 C   0  0  0  0  0  0  0  0  0  0  0  0
  161.9710  211.1040  148.0770 N   0  0  0  0  0  0  0  0  0  0  0  0
  160.8500  208.8320  152.4510 O   0  0  0  0  0  0  0  0  0  0  0  0
  161.1960  204.4330  148.4110 C   0  0  0  0  0  0  0  0  0  0  0  0
  161.2560  206.9090  150.8700 C   0  0  0  0  0  0  0  0  0  0  0  0
  161.3490  211.8900  150.3590 C   0  0  0  0  0  0  0  0  0  0  0  0
  161.2740  205.5400  149.1080 C   0  0  0  0  0  0  0  0  0  0  0  0
  161.0580  207.4480  152.2690 C   0  0  0  0  0  0  0  0  0  0  0  0
  160.7690  203.2020  149.1150 C   0  0  0  0  0  3  0  0  0  0  0  0
  162.2530  212.0530  149.1690 C   0  0  0  0  0  2  0  0  0  0  0  0
  161.7310  206.7810  148.6070 C   0  0  0  0  0  0  0  0  0  0  0  0
  160.3320  206.1350  145.7810 C   0  0  0  0  0  1  0  0  0  0  0  0
  161.3050  204.2970  152.4830 C   0  0  0  0  0  3  0  0  0  0  0  0
  160.4380  203.2350  150.4290 C   0  0  0  0  0  3  0  0  0  0  0  0
  162.2420  206.8920  147.2030 C   0  0  0  0  0  2  0  0  0  0  0  0
  161.6980  210.9000  151.4280 C   0  0  1  0  0  3  0  0  0  0  0  0
  160.8920  209.6950  151.3390 C   0  0  1  0  0  3  0  0  0  0  0  0
  160.4560  204.5070  151.2800 C   0  0  2  0  0  3  0  0  0  0  0  0
  161.7360  207.6400  149.6270 C   0  0  0  0  0  0  0  0  0  0  0  0
  161.5490  204.4800  147.0520 O   0  0  0  0  0  0  0  0  0  0  0  0
  161.1210  206.6650  153.3840 C   0  0  0  0  0  0  0  0  0  0  0  0
  162.6260  205.5150  145.1610 C   0  0  0  0  0  1  0  0  0  0  0  0
  162.2980  209.6520  150.8830 N   0  0  1  0  0  0  0  0  0  0  0  0
  160.3320  212.5590  150.4480 O   0  0  0  0  0  0  0  0  0  0  0  0
  162.1760  209.0890  149.5240 C   0  0  2  0  0  3  0  0  0  0  0  0
  161.5570  205.2400  153.3910 C   0  0  0  0  0  3  0  0  0  0  0  0
  159.9650  206.7170  155.6080 C   0  0  0  0  0  3  0  0  0  0  0  0
  160.9150  207.2640  154.7280 C   0  0  0  0  0  0  0  0  0  0  0  0
  161.6230  208.4110  155.1230 C   0  0  0  0  0  3  0  0  0  0  0  0
  162.1350  210.1410  156.7680 N   0  0  0  0  0  1  0  0  0  0  0  0
  160.4670  208.4250  157.2480 C   0  0  0  0  0  3  0  0  0  0  0  0
  161.4040  208.9850  156.3780 C   0  0  0  0  0  0  0  0  0  0  0  0
  159.7460  207.2930  156.8630 C   0  0  0  0  0  3  0  0  0  0  0  0
  161.5890  213.1360  146.7980 C   0  0  0  0  0  1  0  0  0  0  0  0
  161.0610  211.7590  147.1520 C   0  0  0  0  0  2  0  0  0  0  0  0
  1 27  1  0  0  0  0
  2 22  1  0  0  0  0
  2 17  1  0  0  0  0
  3  7  2  0  0  0  0
  3 20  1  0  0  0  0
  4  1  1  0  0  0  0
  4 12  1  0  0  0  0
  6  9  2  0  0  0  0
  6 11  1  0  0  0  0
  7 10  1  0  0  0  0
  8 26  2  0  0  0  0
  9  3  1  0  0  0  0
 10  5  1  0  0  0  0
 10 23  2  0  0  0  0
 11 16  2  0  0  0  0
 12  8  1  0  0  0  0
 13  9  1  0  0  0  0
 13 21  2  0  0  0  0
 14  2  1  0  0  0  0
 15 28  2  0  0  0  0
 17 13  1  0  0  0  0
 18  8  1  6  0  0  0
 19 18  1  0  0  0  0
 19  5  1  1  0  0  0
 20 16  1  6  0  0  0
 20 15  1  0  0  0  0
 21  7  1  0  0  0  0
 22  6  1  0  0  0  0
 23 28  1  0  0  0  0
 23 30  1  0  0  0  0
 24  2  1  0  0  0  0
 25 19  1  0  0  0  0
 25 18  1  0  0  0  0
 27 21  1  0  0  0  0
 27 25  1  0  0  0  0
 29 35  1  0  0  0  0
 30 31  1  0  0  0  0
 30 29  2  0  0  0  0
 31 34  2  0  0  0  0
 34 32  1  0  0  0  0
 34 33  1  0  0  0  0
 35 33  2  0  0  0  0
 36 37  1  0  0  0  0
 37  4  1  0  0  0  0
M  END
>  <MODEL>
1

>  <REMARK>
 VINA RESULT:     -10.5      0.000      0.000
  Name = 
  2 active torsions:
  status: ('A' for Active; 'I' for Inactive)
    1  A    between atoms: N_5  and  C_23
    2  A    between atoms: C_6  and  C_31
                            x       y       z     vdW  Elec       q    Type
                         _______ _______ _______ _____ _____    ______ ____

>  <TORSDO>
F 2

$$$$
