=
 OpenBabel11052422353D

 31 34  0  0  1  0  0  0  0  0999 V2000
  161.0570  203.4840  151.1140 C   0  0  0  0  0  0  0  0  0  0  0  0
  161.6490  207.2990  151.4160 C   0  0  0  0  0  0  0  0  0  0  0  0
  161.2390  207.5980  152.8260 C   0  0  0  0  0  0  0  0  0  0  0  0
  160.5520  206.8900  155.0520 C   0  0  0  0  0  3  0  0  0  0  0  0
  161.4720  205.9350  150.8220 C   0  0  0  0  0  0  0  0  0  0  0  0
  160.8530  203.3570  149.7970 C   0  0  0  0  0  3  0  0  0  0  0  0
  160.9480  206.5810  153.7480 C   0  0  0  0  0  3  0  0  0  0  0  0
  162.4190  208.0730  149.1790 C   0  0  2  0  0  3  0  0  0  0  0  0
  160.6220  202.4020  152.0390 C   0  0  0  0  0  1  0  0  0  0  0  0
  161.3230  210.0520  152.2580 C   0  0  0  0  0  2  0  0  0  0  0  0
  160.4350  208.2220  155.4500 C   0  0  0  0  0  0  0  0  0  0  0  0
  160.9960  207.2150  148.4400 S   0  0  0  0  0  0  0  0  0  0  0  0
  162.1220  208.3120  150.6450 C   0  0  0  0  0  0  0  0  0  0  0  0
  161.7480  204.7060  151.6610 C   0  0  0  0  0  2  0  0  0  0  0  0
  160.0090  208.5500  156.8350 C   0  0  0  0  0  1  0  0  0  0  0  0
  161.2560  205.7870  149.4950 C   0  0  0  0  0  0  0  0  0  0  0  0
  161.3270  204.4280  148.8530 C   0  0  0  0  0  2  0  0  0  0  0  0
  162.4100  209.6600  151.2640 C   0  0  0  0  0  2  0  0  0  0  0  0
  161.1120  208.9430  153.2400 C   0  0  0  0  0  0  0  0  0  0  0  0
  160.7050  209.2480  154.5420 C   0  0  0  0  0  3  0  0  0  0  0  0
  162.7030  209.3570  148.4090 C   0  0  0  0  0  2  0  0  0  0  0  0
  160.3120  212.3030  148.0270 N   0  0  0  0  0  2  0  0  0  0  0  0
  161.2330  214.4410  147.7440 O   0  0  0  0  0  0  0  0  0  0  0  0
  162.6470  212.1510  147.9350 O   0  0  0  0  0  0  0  0  0  0  0  0
  161.4950  210.1610  148.3200 N   0  0  0  0  0  2  0  0  0  0  0  0
  160.2060  213.7200  147.8510 C   0  0  0  0  0  0  0  0  0  0  0  0
  161.5390  211.5690  148.0880 C   0  0  0  0  0  0  0  0  0  0  0  0
  158.8560  214.3470  147.7720 C   0  0  0  0  0  2  0  0  0  0  0  0
  157.7790  213.2850  147.6360 C   0  0  2  0  0  3  0  0  0  0  0  0
  156.9880  213.5510  146.5160 O   0  0  0  0  0  1  0  0  0  0  0  0
  156.9090  213.2950  148.8740 C   0  0  0  0  0  1  0  0  0  0  0  0
  1 14  1  0  0  0  0
  1  9  1  0  0  0  0
  2  3  1  0  0  0  0
  3 19  2  0  0  0  0
  3  7  1  0  0  0  0
  4 11  1  0  0  0  0
  5  2  1  0  0  0  0
  5 14  1  0  0  0  0
  6  1  2  0  0  0  0
  7  4  2  0  0  0  0
  8 21  1  6  0  0  0
  8 13  1  0  0  0  0
 10 19  1  0  0  0  0
 11 15  1  0  0  0  0
 12  8  1  0  0  0  0
 12 16  1  0  0  0  0
 13 18  1  0  0  0  0
 13  2  2  0  0  0  0
 16  5  2  0  0  0  0
 17 16  1  0  0  0  0
 17  6  1  0  0  0  0
 18 10  1  0  0  0  0
 19 20  1  0  0  0  0
 20 11  2  0  0  0  0
 22 27  1  0  0  0  0
 23 26  2  0  0  0  0
 24 27  2  0  0  0  0
 25 21  1  0  0  0  0
 26 22  1  0  0  0  0
 27 25  1  0  0  0  0
 28 26  1  0  0  0  0
 29 28  1  0  0  0  0
 29 31  1  1  0  0  0
 30 29  1  0  0  0  0
M  END
>  <MODEL>
1

>  <REMARK>
 VINA RESULT:      -8.7      0.000      0.000
  Name = 
  4 active torsions:
  status: ('A' for Active; 'I' for Inactive)
    1  A    between atoms: C_1  and  C_24
    2  A    between atoms: N_9  and  C_23
    3  A    between atoms: C_15  and  C_23
    4  A    between atoms: C_19  and  C_24
                            x       y       z     vdW  Elec       q    Type
                         _______ _______ _______ _____ _____    ______ ____

>  <TORSDO>
F 4

$$$$
=
 OpenBabel11052422353D

 31 34  0  0  1  0  0  0  0  0999 V2000
  160.7190  201.9710  150.5240 C   0  0  0  0  0  0  0  0  0  0  0  0
  161.2640  205.6510  149.4480 C   0  0  0  0  0  0  0  0  0  0  0  0
  161.3950  205.5560  147.9590 C   0  0  0  0  0  0  0  0  0  0  0  0
  161.2800  204.3010  145.8750 C   0  0  0  0  0  3  0  0  0  0  0  0
  161.1530  204.4260  150.3040 C   0  0  0  0  0  0  0  0  0  0  0  0
  161.1830  201.9970  151.7800 C   0  0  0  0  0  3  0  0  0  0  0  0
  161.1330  204.3650  147.2630 C   0  0  0  0  0  3  0  0  0  0  0  0
  161.3260  206.9970  151.5410 C   0  0  2  0  0  3  0  0  0  0  0  0
  160.5670  200.6700  149.8160 C   0  0  0  0  0  1  0  0  0  0  0  0
  162.2020  207.9430  147.9450 C   0  0  0  0  0  2  0  0  0  0  0  0
  161.6990  205.4260  145.1640 C   0  0  0  0  0  0  0  0  0  0  0  0
  162.5520  205.8300  152.2040 S   0  0  0  0  0  0  0  0  0  0  0  0
  161.3210  206.8770  150.0320 C   0  0  0  0  0  0  0  0  0  0  0  0
  160.3230  203.2510  149.8350 C   0  0  0  0  0  2  0  0  0  0  0  0
  161.8590  205.3560  143.6880 C   0  0  0  0  0  1  0  0  0  0  0  0
  161.6250  204.4300  151.5720 C   0  0  0  0  0  0  0  0  0  0  0  0
  161.2990  203.3040  152.5160 C   0  0  0  0  0  2  0  0  0  0  0  0
  161.3180  208.1200  149.1740 C   0  0  0  0  0  2  0  0  0  0  0  0
  161.8240  206.6860  147.2270 C   0  0  0  0  0  0  0  0  0  0  0  0
  161.9790  206.6150  145.8400 C   0  0  0  0  0  3  0  0  0  0  0  0
  161.6390  208.4060  152.0280 C   0  0  0  0  0  2  0  0  0  0  0  0
  159.3440  210.6410  154.0980 N   0  0  0  0  0  2  0  0  0  0  0  0
  160.3280  212.3270  155.3990 O   0  0  0  0  0  0  0  0  0  0  0  0
  161.6600  210.6570  153.7510 O   0  0  0  0  0  0  0  0  0  0  0  0
  160.4600  208.9930  152.6440 N   0  0  0  0  0  2  0  0  0  0  0  0
  159.2820  211.7330  155.0210 C   0  0  0  0  0  0  0  0  0  0  0  0
  160.5430  210.1240  153.5110 C   0  0  0  0  0  0  0  0  0  0  0  0
  157.9560  212.1880  155.5260 C   0  0  0  0  0  2  0  0  0  0  0  0
  156.8530  211.8100  154.5520 C   0  0  2  0  0  3  0  0  0  0  0  0
  156.2180  212.9620  154.0820 O   0  0  0  0  0  1  0  0  0  0  0  0
  155.8400  210.9370  155.2600 C   0  0  0  0  0  1  0  0  0  0  0  0
  1  6  2  0  0  0  0
  2 13  2  0  0  0  0
  2  5  1  0  0  0  0
  3  2  1  0  0  0  0
  4  7  2  0  0  0  0
  5 16  2  0  0  0  0
  6 17  1  0  0  0  0
  7  3  1  0  0  0  0
  8 21  1  6  0  0  0
  8 12  1  0  0  0  0
  9  1  1  0  0  0  0
 10 18  1  0  0  0  0
 11 20  2  0  0  0  0
 11  4  1  0  0  0  0
 13  8  1  0  0  0  0
 14  5  1  0  0  0  0
 14  1  1  0  0  0  0
 15 11  1  0  0  0  0
 16 12  1  0  0  0  0
 16 17  1  0  0  0  0
 18 13  1  0  0  0  0
 19 10  1  0  0  0  0
 19  3  2  0  0  0  0
 20 19  1  0  0  0  0
 21 25  1  0  0  0  0
 22 26  1  0  0  0  0
 25 27  1  0  0  0  0
 26 23  2  0  0  0  0
 26 28  1  0  0  0  0
 27 24  2  0  0  0  0
 27 22  1  0  0  0  0
 29 31  1  1  0  0  0
 29 28  1  0  0  0  0
 30 29  1  0  0  0  0
M  END
>  <MODEL>
2

>  <REMARK>
 VINA RESULT:      -8.1      3.805      6.217
  Name = 
  4 active torsions:
  status: ('A' for Active; 'I' for Inactive)
    1  A    between atoms: C_1  and  C_24
    2  A    between atoms: N_9  and  C_23
    3  A    between atoms: C_15  and  C_23
    4  A    between atoms: C_19  and  C_24
                            x       y       z     vdW  Elec       q    Type
                         _______ _______ _______ _____ _____    ______ ____

>  <TORSDO>
F 4

$$$$
=
 OpenBabel11052422353D

 31 34  0  0  1  0  0  0  0  0999 V2000
  161.0150  203.5720  150.3690 C   0  0  0  0  0  0  0  0  0  0  0  0
  161.6030  207.2700  151.3560 C   0  0  0  0  0  0  0  0  0  0  0  0
  161.1790  207.3120  152.7920 C   0  0  0  0  0  0  0  0  0  0  0  0
  160.4670  206.2170  154.8480 C   0  0  0  0  0  3  0  0  0  0  0  0
  161.4330  206.0340  150.5250 C   0  0  0  0  0  0  0  0  0  0  0  0
  160.8250  203.6830  149.0480 C   0  0  0  0  0  3  0  0  0  0  0  0
  160.8770  206.1470  153.5140 C   0  0  0  0  0  3  0  0  0  0  0  0
  162.3980  208.4310  149.3020 C   0  0  2  0  0  3  0  0  0  0  0  0
  160.5710  202.3410  151.0800 C   0  0  0  0  0  1  0  0  0  0  0  0
  161.2680  209.8280  152.6740 C   0  0  0  0  0  2  0  0  0  0  0  0
  160.3450  207.4570  155.4760 C   0  0  0  0  0  0  0  0  0  0  0  0
  160.9830  207.7210  148.4060 S   0  0  0  0  0  0  0  0  0  0  0  0
  162.0850  208.4040  150.7840 C   0  0  0  0  0  0  0  0  0  0  0  0
  161.7000  204.6740  151.1330 C   0  0  0  0  0  2  0  0  0  0  0  0
  159.9050  207.5320  156.8940 C   0  0  0  0  0  1  0  0  0  0  0  0
  161.2310  206.1270  149.1910 C   0  0  0  0  0  0  0  0  0  0  0  0
  161.3100  204.9050  148.3160 C   0  0  0  0  0  2  0  0  0  0  0  0
  162.3660  209.6180  151.6380 C   0  0  0  0  0  2  0  0  0  0  0  0
  161.0460  208.5610  153.4390 C   0  0  0  0  0  0  0  0  0  0  0  0
  160.6260  208.6280  154.7710 C   0  0  0  0  0  3  0  0  0  0  0  0
  162.6900  209.8310  148.7780 C   0  0  0  0  0  2  0  0  0  0  0  0
  160.2410  212.1920  147.0540 N   0  0  0  0  0  2  0  0  0  0  0  0
  160.8360  214.4530  146.8670 O   0  0  0  0  0  0  0  0  0  0  0  0
  162.3880  212.5190  147.9320 O   0  0  0  0  0  0  0  0  0  0  0  0
  161.5210  210.3620  148.0980 N   0  0  0  0  0  2  0  0  0  0  0  0
  159.9920  213.5430  146.6520 C   0  0  0  0  0  0  0  0  0  0  0  0
  161.4300  211.7310  147.7070 C   0  0  0  0  0  0  0  0  0  0  0  0
  158.7190  213.8720  145.9490 C   0  0  0  0  0  2  0  0  0  0  0  0
  158.8030  213.4890  144.4820 C   0  0  2  0  0  3  0  0  0  0  0  0
  160.1080  213.6680  144.0170 O   0  0  0  0  0  1  0  0  0  0  0  0
  157.8640  214.3680  143.6830 C   0  0  0  0  0  1  0  0  0  0  0  0
  1  9  1  0  0  0  0
  1 14  1  0  0  0  0
  2  3  1  0  0  0  0
  3 19  2  0  0  0  0
  3  7  1  0  0  0  0
  4 11  1  0  0  0  0
  5 14  1  0  0  0  0
  5  2  1  0  0  0  0
  6  1  2  0  0  0  0
  7  4  2  0  0  0  0
  8 21  1  6  0  0  0
  8 13  1  0  0  0  0
 10 19  1  0  0  0  0
 11 15  1  0  0  0  0
 12 16  1  0  0  0  0
 12  8  1  0  0  0  0
 13  2  2  0  0  0  0
 13 18  1  0  0  0  0
 16  5  2  0  0  0  0
 17  6  1  0  0  0  0
 17 16  1  0  0  0  0
 18 10  1  0  0  0  0
 19 20  1  0  0  0  0
 20 11  2  0  0  0  0
 22 27  1  0  0  0  0
 25 21  1  0  0  0  0
 26 23  2  0  0  0  0
 26 22  1  0  0  0  0
 27 24  2  0  0  0  0
 27 25  1  0  0  0  0
 28 26  1  0  0  0  0
 29 31  1  6  0  0  0
 29 28  1  0  0  0  0
 30 29  1  0  0  0  0
M  END
>  <MODEL>
3

>  <REMARK>
 VINA RESULT:      -8.0      1.372      1.514
  Name = 
  4 active torsions:
  status: ('A' for Active; 'I' for Inactive)
    1  A    between atoms: C_1  and  C_24
    2  A    between atoms: N_9  and  C_23
    3  A    between atoms: C_15  and  C_23
    4  A    between atoms: C_19  and  C_24
                            x       y       z     vdW  Elec       q    Type
                         _______ _______ _______ _____ _____    ______ ____

>  <TORSDO>
F 4

$$$$
=
 OpenBabel11052422353D

 31 34  0  0  1  0  0  0  0  0999 V2000
  160.7160  201.9320  150.4620 C   0  0  0  0  0  0  0  0  0  0  0  0
  161.2730  205.6110  149.3880 C   0  0  0  0  0  0  0  0  0  0  0  0
  161.3950  205.5170  147.8980 C   0  0  0  0  0  0  0  0  0  0  0  0
  161.2620  204.2660  145.8130 C   0  0  0  0  0  3  0  0  0  0  0  0
  161.1610  204.3850  150.2430 C   0  0  0  0  0  0  0  0  0  0  0  0
  161.1870  201.9530  151.7150 C   0  0  0  0  0  3  0  0  0  0  0  0
  161.1240  204.3290  147.2020 C   0  0  0  0  0  3  0  0  0  0  0  0
  161.3530  206.9530  151.4830 C   0  0  2  0  0  3  0  0  0  0  0  0
  160.5540  200.6330  149.7530 C   0  0  0  0  0  1  0  0  0  0  0  0
  162.2140  207.9010  147.8840 C   0  0  0  0  0  2  0  0  0  0  0  0
  161.6830  205.3910  145.1010 C   0  0  0  0  0  0  0  0  0  0  0  0
  162.5770  205.7790  152.1380 S   0  0  0  0  0  0  0  0  0  0  0  0
  161.3390  206.8350  149.9740 C   0  0  0  0  0  0  0  0  0  0  0  0
  160.3230  203.2140  149.7770 C   0  0  0  0  0  2  0  0  0  0  0  0
  161.8350  205.3220  143.6250 C   0  0  0  0  0  1  0  0  0  0  0  0
  161.6400  204.3850  151.5080 C   0  0  0  0  0  0  0  0  0  0  0  0
  161.3130  203.2580  152.4520 C   0  0  0  0  0  2  0  0  0  0  0  0
  161.3380  208.0800  149.1180 C   0  0  0  0  0  2  0  0  0  0  0  0
  161.8250  206.6470  147.1660 C   0  0  0  0  0  0  0  0  0  0  0  0
  161.9730  206.5770  145.7780 C   0  0  0  0  0  3  0  0  0  0  0  0
  161.6750  208.3600  151.9710 C   0  0  0  0  0  2  0  0  0  0  0  0
  159.1170  211.0040  152.9740 N   0  0  0  0  0  2  0  0  0  0  0  0
  159.7340  212.5710  154.6080 O   0  0  0  0  0  0  0  0  0  0  0  0
  161.3440  210.6490  153.6080 O   0  0  0  0  0  0  0  0  0  0  0  0
  160.4560  209.1450  152.0640 N   0  0  0  0  0  2  0  0  0  0  0  0
  158.8550  212.1300  153.8180 C   0  0  0  0  0  0  0  0  0  0  0  0
  160.3540  210.2850  152.9180 C   0  0  0  0  0  0  0  0  0  0  0  0
  157.5280  212.8030  153.7470 C   0  0  0  0  0  2  0  0  0  0  0  0
  157.6130  214.0690  152.9120 C   0  0  2  0  0  3  0  0  0  0  0  0
  156.4700  214.1950  152.1200 O   0  0  0  0  0  1  0  0  0  0  0  0
  158.8320  213.9960  152.0180 C   0  0  0  0  0  1  0  0  0  0  0  0
  1  6  2  0  0  0  0
  2 13  2  0  0  0  0
  2  5  1  0  0  0  0
  3  2  1  0  0  0  0
  4  7  2  0  0  0  0
  5 16  2  0  0  0  0
  6 17  1  0  0  0  0
  7  3  1  0  0  0  0
  8 21  1  6  0  0  0
  8 12  1  0  0  0  0
  9  1  1  0  0  0  0
 10 18  1  0  0  0  0
 11 20  2  0  0  0  0
 11  4  1  0  0  0  0
 13  8  1  0  0  0  0
 14  5  1  0  0  0  0
 14  1  1  0  0  0  0
 15 11  1  0  0  0  0
 16 12  1  0  0  0  0
 16 17  1  0  0  0  0
 18 13  1  0  0  0  0
 19 10  1  0  0  0  0
 19  3  2  0  0  0  0
 20 19  1  0  0  0  0
 21 25  1  0  0  0  0
 22 26  1  0  0  0  0
 25 27  1  0  0  0  0
 26 23  2  0  0  0  0
 27 22  1  0  0  0  0
 27 24  2  0  0  0  0
 28 26  1  0  0  0  0
 29 31  1  6  0  0  0
 29 28  1  0  0  0  0
 30 29  1  0  0  0  0
M  END
>  <MODEL>
4

>  <REMARK>
 VINA RESULT:      -7.4      3.357      5.815
  Name = 
  4 active torsions:
  status: ('A' for Active; 'I' for Inactive)
    1  A    between atoms: C_1  and  C_24
    2  A    between atoms: N_9  and  C_23
    3  A    between atoms: C_15  and  C_23
    4  A    between atoms: C_19  and  C_24
                            x       y       z     vdW  Elec       q    Type
                         _______ _______ _______ _____ _____    ______ ____

>  <TORSDO>
F 4

$$$$
=
 OpenBabel11052422353D

 31 34  0  0  1  0  0  0  0  0999 V2000
  160.6970  208.0040  154.7210 C   0  0  0  0  0  0  0  0  0  0  0  0
  161.3220  207.8660  150.9020 C   0  0  0  0  0  0  0  0  0  0  0  0
  161.1890  206.4080  150.5860 C   0  0  0  0  0  0  0  0  0  0  0  0
  160.6240  204.1240  151.2140 C   0  0  0  0  0  3  0  0  0  0  0  0
  161.2690  208.3700  152.3120 C   0  0  0  0  0  0  0  0  0  0  0  0
  161.3700  209.1120  155.0540 C   0  0  0  0  0  3  0  0  0  0  0  0
  160.7230  205.4810  151.5310 C   0  0  0  0  0  3  0  0  0  0  0  0
  161.8420  210.1940  150.1880 C   0  0  2  0  0  3  0  0  0  0  0  0
  160.3300  207.0150  155.7720 C   0  0  0  0  0  1  0  0  0  0  0  0
  162.1580  206.8830  148.3080 C   0  0  0  0  0  2  0  0  0  0  0  0
  160.9980  203.6740  149.9470 C   0  0  0  0  0  0  0  0  0  0  0  0
  163.0740  210.2820  151.5230 S   0  0  0  0  0  0  0  0  0  0  0  0
  161.5700  208.7350  149.8870 C   0  0  0  0  0  0  0  0  0  0  0  0
  160.2860  207.7660  153.2920 C   0  0  0  0  0  2  0  0  0  0  0  0
  160.8980  202.2300  149.6110 C   0  0  0  0  0  1  0  0  0  0  0  0
  161.9500  209.4820  152.6700 C   0  0  0  0  0  0  0  0  0  0  0  0
  161.7070  210.1350  154.0050 C   0  0  0  0  0  2  0  0  0  0  0  0
  161.5130  208.2560  148.4550 C   0  0  0  0  0  2  0  0  0  0  0  0
  161.5690  205.9380  149.3090 C   0  0  0  0  0  0  0  0  0  0  0  0
  161.4780  204.5780  148.9980 C   0  0  0  0  0  3  0  0  0  0  0  0
  162.3390  210.9720  148.9760 C   0  0  0  0  0  2  0  0  0  0  0  0
  160.1920  212.7350  146.3630 N   0  0  0  0  0  2  0  0  0  0  0  0
  161.2040  214.3810  145.0330 O   0  0  0  0  0  0  0  0  0  0  0  0
  162.4690  212.8850  146.8880 O   0  0  0  0  0  0  0  0  0  0  0  0
  161.2120  211.3850  148.1550 N   0  0  0  0  0  2  0  0  0  0  0  0
  160.1670  213.7330  145.3370 C   0  0  0  0  0  0  0  0  0  0  0  0
  161.3460  212.3630  147.1240 C   0  0  0  0  0  0  0  0  0  0  0  0
  158.8970  213.9930  144.6030 C   0  0  0  0  0  2  0  0  0  0  0  0
  159.1400  214.0240  143.1040 C   0  0  2  0  0  3  0  0  0  0  0  0
  157.9870  214.4530  142.4430 O   0  0  0  0  0  1  0  0  0  0  0  0
  159.5000  212.6340  142.6280 C   0  0  0  0  0  1  0  0  0  0  0  0
  1  6  2  0  0  0  0
  1  9  1  0  0  0  0
  2  5  1  0  0  0  0
  3  2  1  0  0  0  0
  3  7  1  0  0  0  0
  4  7  2  0  0  0  0
  5 16  2  0  0  0  0
  5 14  1  0  0  0  0
  8 21  1  6  0  0  0
  8 12  1  0  0  0  0
 10 18  1  0  0  0  0
 10 19  1  0  0  0  0
 11  4  1  0  0  0  0
 12 16  1  0  0  0  0
 13  8  1  0  0  0  0
 13  2  2  0  0  0  0
 14  1  1  0  0  0  0
 15 11  1  0  0  0  0
 16 17  1  0  0  0  0
 17  6  1  0  0  0  0
 18 13  1  0  0  0  0
 19  3  2  0  0  0  0
 20 19  1  0  0  0  0
 20 11  2  0  0  0  0
 22 27  1  0  0  0  0
 23 26  2  0  0  0  0
 24 27  2  0  0  0  0
 25 21  1  0  0  0  0
 26 22  1  0  0  0  0
 27 25  1  0  0  0  0
 28 26  1  0  0  0  0
 29 31  1  6  0  0  0
 29 28  1  0  0  0  0
 30 29  1  0  0  0  0
M  END
>  <MODEL>
5

>  <REMARK>
 VINA RESULT:      -7.2      2.152      4.693
  Name = 
  4 active torsions:
  status: ('A' for Active; 'I' for Inactive)
    1  A    between atoms: C_1  and  C_24
    2  A    between atoms: N_9  and  C_23
    3  A    between atoms: C_15  and  C_23
    4  A    between atoms: C_19  and  C_24
                            x       y       z     vdW  Elec       q    Type
                         _______ _______ _______ _____ _____    ______ ____

>  <TORSDO>
F 4

$$$$
=
 OpenBabel11052422353D

 31 34  0  0  1  0  0  0  0  0999 V2000
  160.6190  207.3250  155.5900 C   0  0  0  0  0  0  0  0  0  0  0  0
  160.7310  210.0410  152.8320 C   0  0  0  0  0  0  0  0  0  0  0  0
  159.9530  211.1710  153.4330 C   0  0  0  0  0  0  0  0  0  0  0  0
  158.8040  212.2220  155.3060 C   0  0  0  0  0  3  0  0  0  0  0  0
  160.8460  208.7160  153.5220 C   0  0  0  0  0  0  0  0  0  0  0  0
  160.7660  206.2100  154.8630 C   0  0  0  0  0  3  0  0  0  0  0  0
  159.5430  211.1610  154.7760 C   0  0  0  0  0  3  0  0  0  0  0  0
  161.9560  209.0430  150.9090 C   0  0  2  0  0  3  0  0  0  0  0  0
  160.0770  207.2400  156.9740 C   0  0  0  0  0  1  0  0  0  0  0  0
  159.9300  212.2710  151.1660 C   0  0  0  0  0  2  0  0  0  0  0  0
  158.4580  213.3050  154.4960 C   0  0  0  0  0  0  0  0  0  0  0  0
  160.8580  207.5980  151.0140 S   0  0  0  0  0  0  0  0  0  0  0  0
  161.2790  210.2070  151.6000 C   0  0  0  0  0  0  0  0  0  0  0  0
  161.0250  208.6600  155.0240 C   0  0  0  0  0  2  0  0  0  0  0  0
  157.6670  214.4310  155.0590 C   0  0  0  0  0  1  0  0  0  0  0  0
  160.9860  207.5780  152.8040 C   0  0  0  0  0  0  0  0  0  0  0  0
  161.3520  206.2830  153.4790 C   0  0  0  0  0  2  0  0  0  0  0  0
  161.2660  211.5700  150.9480 C   0  0  0  0  0  2  0  0  0  0  0  0
  159.5920  212.2710  152.6240 C   0  0  0  0  0  0  0  0  0  0  0  0
  158.8430  213.3260  153.1550 C   0  0  0  0  0  3  0  0  0  0  0  0
  162.2950  209.3280  149.4510 C   0  0  0  0  0  2  0  0  0  0  0  0
  161.3950  206.4890  147.0680 N   0  0  0  0  0  2  0  0  0  0  0  0
  163.1200  205.0810  146.3310 O   0  0  0  0  0  0  0  0  0  0  0  0
  163.4090  207.1040  148.0930 O   0  0  0  0  0  0  0  0  0  0  0  0
  161.5540  208.4270  148.5830 N   0  0  0  0  0  2  0  0  0  0  0  0
  161.8980  205.3880  146.3050 C   0  0  0  0  0  0  0  0  0  0  0  0
  162.1810  207.3290  147.9210 C   0  0  0  0  0  0  0  0  0  0  0  0
  160.9550  204.5780  145.4830 C   0  0  0  0  0  2  0  0  0  0  0  0
  161.2460  203.0950  145.6370 C   0  0  2  0  0  3  0  0  0  0  0  0
  160.2940  202.3490  144.9390 O   0  0  0  0  0  1  0  0  0  0  0  0
  161.1930  202.7260  147.1030 C   0  0  0  0  0  1  0  0  0  0  0  0
  1  9  1  0  0  0  0
  2  3  1  0  0  0  0
  2  5  1  0  0  0  0
  3  7  1  0  0  0  0
  5 14  1  0  0  0  0
  6  1  2  0  0  0  0
  7  4  2  0  0  0  0
  8 21  1  6  0  0  0
  8 12  1  0  0  0  0
  8 13  1  0  0  0  0
 10 19  1  0  0  0  0
 11 15  1  0  0  0  0
 11  4  1  0  0  0  0
 12 16  1  0  0  0  0
 13  2  2  0  0  0  0
 14  1  1  0  0  0  0
 16 17  1  0  0  0  0
 16  5  2  0  0  0  0
 17  6  1  0  0  0  0
 18 10  1  0  0  0  0
 18 13  1  0  0  0  0
 19 20  1  0  0  0  0
 19  3  2  0  0  0  0
 20 11  2  0  0  0  0
 22 27  1  0  0  0  0
 25 21  1  0  0  0  0
 26 23  2  0  0  0  0
 26 22  1  0  0  0  0
 27 24  2  0  0  0  0
 27 25  1  0  0  0  0
 28 29  1  0  0  0  0
 28 26  1  0  0  0  0
 29 31  1  1  0  0  0
 30 29  1  0  0  0  0
M  END
>  <MODEL>
6

>  <REMARK>
 VINA RESULT:      -6.9      3.498      6.138
  Name = 
  4 active torsions:
  status: ('A' for Active; 'I' for Inactive)
    1  A    between atoms: C_1  and  C_24
    2  A    between atoms: N_9  and  C_23
    3  A    between atoms: C_15  and  C_23
    4  A    between atoms: C_19  and  C_24
                            x       y       z     vdW  Elec       q    Type
                         _______ _______ _______ _____ _____    ______ ____

>  <TORSDO>
F 4

$$$$
=
 OpenBabel11052422353D

 31 34  0  0  1  0  0  0  0  0999 V2000
  161.0180  204.6310  148.8340 C   0  0  0  0  0  0  0  0  0  0  0  0
  161.2410  207.6690  151.2250 C   0  0  0  0  0  0  0  0  0  0  0  0
  161.6130  208.7970  150.3110 C   0  0  0  0  0  0  0  0  0  0  0  0
  161.9870  209.7170  148.0880 C   0  0  0  0  0  3  0  0  0  0  0  0
  161.1590  206.2560  150.7320 C   0  0  0  0  0  0  0  0  0  0  0  0
  161.2750  203.6210  149.6740 C   0  0  0  0  0  3  0  0  0  0  0  0
  161.6200  208.6530  148.9150 C   0  0  0  0  0  3  0  0  0  0  0  0
  160.8010  206.7980  153.5150 C   0  0  2  0  0  3  0  0  0  0  0  0
  161.1500  204.4250  147.3650 C   0  0  0  0  0  1  0  0  0  0  0  0
  162.0960  210.1980  152.3490 C   0  0  0  0  0  2  0  0  0  0  0  0
  162.3620  210.9390  148.6470 C   0  0  0  0  0  0  0  0  0  0  0  0
  162.0510  205.5110  153.2190 S   0  0  0  0  0  0  0  0  0  0  0  0
  161.0470  207.9330  152.5430 C   0  0  0  0  0  0  0  0  0  0  0  0
  160.5720  205.9670  149.3670 C   0  0  0  0  0  2  0  0  0  0  0  0
  162.7580  212.0700  147.7670 C   0  0  0  0  0  1  0  0  0  0  0  0
  161.4230  205.2230  151.5630 C   0  0  0  0  0  0  0  0  0  0  0  0
  161.1040  203.8090  151.1560 C   0  0  0  0  0  2  0  0  0  0  0  0
  161.0160  209.3640  153.0280 C   0  0  0  0  0  2  0  0  0  0  0  0
  162.0000  210.0380  150.8650 C   0  0  0  0  0  0  0  0  0  0  0  0
  162.3770  211.0970  150.0340 C   0  0  0  0  0  3  0  0  0  0  0  0
  160.8490  207.2380  154.9730 C   0  0  0  0  0  2  0  0  0  0  0  0
  158.8420  210.2600  156.1500 N   0  0  0  0  0  2  0  0  0  0  0  0
  159.9870  211.9790  157.2600 O   0  0  0  0  0  0  0  0  0  0  0  0
  161.1310  209.7700  156.2160 O   0  0  0  0  0  0  0  0  0  0  0  0
  159.7550  208.1540  155.2520 N   0  0  0  0  0  2  0  0  0  0  0  0
  158.8970  211.5210  156.8240 C   0  0  0  0  0  0  0  0  0  0  0  0
  159.9670  209.4130  155.8900 C   0  0  0  0  0  0  0  0  0  0  0  0
  157.6470  212.3130  156.9950 C   0  0  0  0  0  2  0  0  0  0  0  0
  156.5100  211.7000  156.1950 C   0  0  2  0  0  3  0  0  0  0  0  0
  156.3970  212.3410  154.9600 O   0  0  0  0  0  1  0  0  0  0  0  0
  155.2160  211.8640  156.9620 C   0  0  0  0  0  1  0  0  0  0  0  0
  1 14  1  0  0  0  0
  1  6  2  0  0  0  0
  2 13  2  0  0  0  0
  3 19  1  0  0  0  0
  3  2  1  0  0  0  0
  4 11  2  0  0  0  0
  4  7  1  0  0  0  0
  5  2  1  0  0  0  0
  5 16  2  0  0  0  0
  6 17  1  0  0  0  0
  7  3  2  0  0  0  0
  8 21  1  1  0  0  0
  9  1  1  0  0  0  0
 10 18  1  0  0  0  0
 11 20  1  0  0  0  0
 12  8  1  0  0  0  0
 13 18  1  0  0  0  0
 13  8  1  0  0  0  0
 14  5  1  0  0  0  0
 15 11  1  0  0  0  0
 16 12  1  0  0  0  0
 17 16  1  0  0  0  0
 19 10  1  0  0  0  0
 20 19  2  0  0  0  0
 21 25  1  0  0  0  0
 22 26  1  0  0  0  0
 25 27  1  0  0  0  0
 26 28  1  0  0  0  0
 26 23  2  0  0  0  0
 27 22  1  0  0  0  0
 27 24  2  0  0  0  0
 29 31  1  1  0  0  0
 29 28  1  0  0  0  0
 30 29  1  0  0  0  0
M  END
>  <MODEL>
7

>  <REMARK>
 VINA RESULT:      -6.8      4.005      6.275
  Name = 
  4 active torsions:
  status: ('A' for Active; 'I' for Inactive)
    1  A    between atoms: C_1  and  C_24
    2  A    between atoms: N_9  and  C_23
    3  A    between atoms: C_15  and  C_23
    4  A    between atoms: C_19  and  C_24
                            x       y       z     vdW  Elec       q    Type
                         _______ _______ _______ _____ _____    ______ ____

>  <TORSDO>
F 4

$$$$
=
 OpenBabel11052422353D

 31 34  0  0  1  0  0  0  0  0999 V2000
  161.2580  212.2330  149.6140 C   0  0  0  0  0  0  0  0  0  0  0  0
  160.9050  209.4530  152.2870 C   0  0  0  0  0  0  0  0  0  0  0  0
  160.7180  210.2230  153.5580 C   0  0  0  0  0  0  0  0  0  0  0  0
  160.3630  212.3070  154.7670 C   0  0  0  0  0  3  0  0  0  0  0  0
  161.2010  210.1440  150.9900 C   0  0  0  0  0  0  0  0  0  0  0  0
  161.9780  211.6020  148.6780 C   0  0  0  0  0  3  0  0  0  0  0  0
  160.5180  211.6130  153.5650 C   0  0  0  0  0  3  0  0  0  0  0  0
  161.1950  207.2880  151.0950 C   0  0  2  0  0  3  0  0  0  0  0  0
  161.1810  213.7200  149.6140 C   0  0  0  0  0  1  0  0  0  0  0  0
  161.0760  208.0780  154.8310 C   0  0  0  0  0  2  0  0  0  0  0  0
  160.4130  211.6220  155.9820 C   0  0  0  0  0  0  0  0  0  0  0  0
  162.7210  207.9470  150.3580 S   0  0  0  0  0  0  0  0  0  0  0  0
  160.8770  208.0960  152.3350 C   0  0  0  0  0  0  0  0  0  0  0  0
  160.5040  211.4440  150.6520 C   0  0  0  0  0  2  0  0  0  0  0  0
  160.2520  212.3610  157.2610 C   0  0  0  0  0  1  0  0  0  0  0  0
  161.9340  209.5260  150.0360 C   0  0  0  0  0  0  0  0  0  0  0  0
  162.0250  210.1000  148.6470 C   0  0  0  0  0  2  0  0  0  0  0  0
  160.4700  207.3960  153.6100 C   0  0  0  0  0  2  0  0  0  0  0  0
  160.7710  209.5420  154.7950 C   0  0  0  0  0  0  0  0  0  0  0  0
  160.6260  210.2420  155.9960 C   0  0  0  0  0  3  0  0  0  0  0  0
  161.3600  205.7990  151.3770 C   0  0  0  0  0  2  0  0  0  0  0  0
  161.2750  203.1130  148.6720 N   0  0  0  0  0  2  0  0  0  0  0  0
  160.1860  201.0930  149.1570 O   0  0  0  0  0  0  0  0  0  0  0  0
  160.3280  203.2210  150.8110 O   0  0  0  0  0  0  0  0  0  0  0  0
  161.5640  205.0770  150.1320 N   0  0  0  0  0  2  0  0  0  0  0  0
  160.8400  201.7910  148.3370 C   0  0  0  0  0  0  0  0  0  0  0  0
  161.0220  203.7740  149.9160 C   0  0  0  0  0  0  0  0  0  0  0  0
  161.1480  201.2410  146.9860 C   0  0  0  0  0  2  0  0  0  0  0  0
  160.3470  201.9630  145.9170 C   0  0  2  0  0  3  0  0  0  0  0  0
  160.0470  201.0860  144.8730 O   0  0  0  0  0  1  0  0  0  0  0  0
  161.1620  203.1190  145.3790 C   0  0  0  0  0  1  0  0  0  0  0  0
  1 14  1  0  0  0  0
  2 13  2  0  0  0  0
  2  3  1  0  0  0  0
  3  7  2  0  0  0  0
  3 19  1  0  0  0  0
  4 11  2  0  0  0  0
  5  2  1  0  0  0  0
  6  1  2  0  0  0  0
  7  4  1  0  0  0  0
  8 21  1  1  0  0  0
  8 13  1  0  0  0  0
  9  1  1  0  0  0  0
 11 20  1  0  0  0  0
 11 15  1  0  0  0  0
 12  8  1  0  0  0  0
 13 18  1  0  0  0  0
 14  5  1  0  0  0  0
 16 12  1  0  0  0  0
 16  5  2  0  0  0  0
 17  6  1  0  0  0  0
 17 16  1  0  0  0  0
 18 10  1  0  0  0  0
 19 10  1  0  0  0  0
 19 20  2  0  0  0  0
 22 27  1  0  0  0  0
 25 21  1  0  0  0  0
 26 22  1  0  0  0  0
 26 23  2  0  0  0  0
 27 25  1  0  0  0  0
 27 24  2  0  0  0  0
 28 26  1  0  0  0  0
 29 31  1  6  0  0  0
 29 28  1  0  0  0  0
 30 29  1  0  0  0  0
M  END
>  <MODEL>
8

>  <REMARK>
 VINA RESULT:      -6.6      4.240      7.572
  Name = 
  4 active torsions:
  status: ('A' for Active; 'I' for Inactive)
    1  A    between atoms: C_1  and  C_24
    2  A    between atoms: N_9  and  C_23
    3  A    between atoms: C_15  and  C_23
    4  A    between atoms: C_19  and  C_24
                            x       y       z     vdW  Elec       q    Type
                         _______ _______ _______ _____ _____    ______ ____

>  <TORSDO>
F 4

$$$$
=
 OpenBabel11052422353D

 31 34  0  0  1  0  0  0  0  0999 V2000
  159.4450  212.7590  152.4020 C   0  0  0  0  0  0  0  0  0  0  0  0
  160.8240  209.1680  151.9560 C   0  0  0  0  0  0  0  0  0  0  0  0
  160.7040  208.5820  153.3290 C   0  0  0  0  0  0  0  0  0  0  0  0
  159.9410  208.6810  155.6400 C   0  0  0  0  0  3  0  0  0  0  0  0
  160.5050  210.6070  151.6880 C   0  0  0  0  0  0  0  0  0  0  0  0
  160.0770  213.4040  151.4140 C   0  0  0  0  0  3  0  0  0  0  0  0
  160.0230  209.2430  154.3640 C   0  0  0  0  0  3  0  0  0  0  0  0
  161.5630  208.9850  149.5860 C   0  0  2  0  0  3  0  0  0  0  0  0
  158.8370  213.5300  153.5210 C   0  0  0  0  0  1  0  0  0  0  0  0
  162.1300  206.6530  152.5580 C   0  0  0  0  0  2  0  0  0  0  0  0
  160.5460  207.4510  155.9020 C   0  0  0  0  0  0  0  0  0  0  0  0
  162.5010  210.5270  149.8040 S   0  0  0  0  0  0  0  0  0  0  0  0
  161.3040  208.3870  150.9520 C   0  0  0  0  0  0  0  0  0  0  0  0
  159.3230  211.2580  152.3720 C   0  0  0  0  0  2  0  0  0  0  0  0
  160.4630  206.8550  157.2610 C   0  0  0  0  0  1  0  0  0  0  0  0
  161.1400  211.2780  150.7000 C   0  0  0  0  0  0  0  0  0  0  0  0
  160.6570  212.6340  150.2590 C   0  0  0  0  0  2  0  0  0  0  0  0
  161.5200  206.9100  151.1850 C   0  0  0  0  0  2  0  0  0  0  0  0
  161.3170  207.3400  153.6090 C   0  0  0  0  0  0  0  0  0  0  0  0
  161.2410  206.7860  154.8900 C   0  0  0  0  0  3  0  0  0  0  0  0
  162.3220  208.0460  148.6560 C   0  0  0  0  0  2  0  0  0  0  0  0
  161.2920  204.4880  147.7500 N   0  0  0  0  0  2  0  0  0  0  0  0
  161.9580  203.6450  145.6650 O   0  0  0  0  0  0  0  0  0  0  0  0
  162.6130  206.0730  146.6430 O   0  0  0  0  0  0  0  0  0  0  0  0
  161.7340  206.7180  148.7030 N   0  0  0  0  0  2  0  0  0  0  0  0
  161.3430  203.4650  146.7500 C   0  0  0  0  0  0  0  0  0  0  0  0
  161.9130  205.7740  147.6470 C   0  0  0  0  0  0  0  0  0  0  0  0
  160.6760  202.1580  147.0080 C   0  0  0  0  0  2  0  0  0  0  0  0
  161.1890  201.5380  148.2970 C   0  0  2  0  0  3  0  0  0  0  0  0
  161.5690  200.2140  148.0690 O   0  0  0  0  0  1  0  0  0  0  0  0
  160.0910  201.5690  149.3370 C   0  0  0  0  0  1  0  0  0  0  0  0
  1  9  1  0  0  0  0
  2  3  1  0  0  0  0
  3 19  2  0  0  0  0
  3  7  1  0  0  0  0
  4 11  1  0  0  0  0
  5  2  1  0  0  0  0
  5 14  1  0  0  0  0
  6  1  2  0  0  0  0
  7  4  2  0  0  0  0
  8 21  1  6  0  0  0
  8 12  1  0  0  0  0
  8 13  1  0  0  0  0
 10 19  1  0  0  0  0
 11 15  1  0  0  0  0
 12 16  1  0  0  0  0
 13 18  1  0  0  0  0
 13  2  2  0  0  0  0
 14  1  1  0  0  0  0
 16  5  2  0  0  0  0
 17 16  1  0  0  0  0
 17  6  1  0  0  0  0
 18 10  1  0  0  0  0
 19 20  1  0  0  0  0
 20 11  2  0  0  0  0
 21 25  1  0  0  0  0
 23 26  2  0  0  0  0
 24 27  2  0  0  0  0
 26 28  1  0  0  0  0
 26 22  1  0  0  0  0
 27 22  1  0  0  0  0
 27 25  1  0  0  0  0
 28 29  1  0  0  0  0
 29 31  1  1  0  0  0
 30 29  1  0  0  0  0
M  END
>  <MODEL>
9

>  <REMARK>
 VINA RESULT:      -6.6      3.685      7.177
  Name = 
  4 active torsions:
  status: ('A' for Active; 'I' for Inactive)
    1  A    between atoms: C_1  and  C_24
    2  A    between atoms: N_9  and  C_23
    3  A    between atoms: C_15  and  C_23
    4  A    between atoms: C_19  and  C_24
                            x       y       z     vdW  Elec       q    Type
                         _______ _______ _______ _____ _____    ______ ____

>  <TORSDO>
F 4

$$$$
