=
 OpenBabel11052422543D

 28 32  0  0  1  0  0  0  0  0999 V2000
  161.4210  207.4530  152.2300 C   0  0  0  0  0  0  0  0  0  0  0  0
  160.9370  206.4490  147.1340 C   0  0  0  0  0  3  0  0  0  0  0  0
  161.7470  202.6260  152.0430 C   0  0  0  0  0  1  0  0  0  0  0  0
  161.2020  204.0360  147.0420 C   0  0  0  0  0  0  0  0  0  0  0  0
  160.8790  205.1640  149.3030 C   0  0  2  0  0  3  0  0  0  0  0  0
  161.1990  205.3430  144.9980 C   0  0  0  0  0  0  0  0  0  0  0  0
  161.0580  205.2200  147.8010 C   0  0  0  0  0  0  0  0  0  0  0  0
  160.7470  202.6770  149.1000 C   0  0  0  0  0  2  0  0  0  0  0  0
  161.2920  204.1100  145.6480 C   0  0  0  0  0  3  0  0  0  0  0  0
  161.0760  205.0320  152.1450 C   0  0  0  0  0  0  0  0  0  0  0  0
  161.6460  206.2740  150.0100 C   0  0  0  0  0  2  0  0  0  0  0  0
  161.3450  202.6910  147.6980 C   0  0  0  0  0  2  0  0  0  0  0  0
  160.8850  206.2270  154.2530 C   0  0  0  0  0  3  0  0  0  0  0  0
  160.9310  203.7280  151.3810 C   0  0  1  0  0  3  0  0  0  0  0  0
  160.8190  205.0410  153.5230 C   0  0  0  0  0  3  0  0  0  0  0  0
  161.2860  205.4070  143.6150 O   0  0  0  0  0  1  0  0  0  0  0  0
  161.0160  206.5100  145.7410 C   0  0  0  0  0  3  0  0  0  0  0  0
  161.3300  203.8300  149.9040 C   0  0  2  0  0  3  0  0  0  0  0  0
  161.1910  207.4250  153.6100 C   0  0  0  0  0  3  0  0  0  0  0  0
  161.3580  206.2570  151.4860 C   0  0  0  0  0  0  0  0  0  0  0  0
  161.7430  208.7740  151.5700 C   0  0  0  0  0  2  0  0  0  0  0  0
  160.7690  209.8430  151.8370 N   0  0  0  0  0  0  0  0  0  0  0  0
  159.6560  212.2560  152.7650 C   0  0  0  0  0  0  0  0  0  0  0  0
  161.2260  211.1010  151.2420 C   0  0  0  0  0  2  0  0  0  0  0  0
  160.5850  210.0230  153.2810 C   0  0  0  0  0  2  0  0  0  0  0  0
  159.4440  210.9990  153.5530 C   0  0  0  0  0  2  0  0  0  0  0  0
  159.3630  213.3380  153.2460 O   0  0  0  0  0  0  0  0  0  0  0  0
  160.1370  212.1670  151.3490 C   0  0  0  0  0  2  0  0  0  0  0  0
  1 19  1  0  0  0  0
  2  7  1  0  0  0  0
  4 12  1  0  0  0  0
  4  7  2  0  0  0  0
  5 18  1  0  0  0  0
  5 11  1  1  0  0  0
  6  9  2  0  0  0  0
  6 17  1  0  0  0  0
  7  5  1  0  0  0  0
  9  4  1  0  0  0  0
 10 15  2  0  0  0  0
 11 20  1  0  0  0  0
 12  8  1  0  0  0  0
 14  3  1  1  0  0  0
 14 10  1  0  0  0  0
 15 13  1  0  0  0  0
 16  6  1  0  0  0  0
 17  2  2  0  0  0  0
 18  8  1  6  0  0  0
 18 14  1  0  0  0  0
 19 13  2  0  0  0  0
 20 10  1  0  0  0  0
 20  1  2  0  0  0  0
 21 22  1  0  0  0  0
 21  1  1  0  0  0  0
 22 25  1  0  0  0  0
 23 27  2  0  0  0  0
 23 26  1  0  0  0  0
 24 28  1  0  0  0  0
 24 22  1  0  0  0  0
 25 26  1  0  0  0  0
 28 23  1  0  0  0  0
M  END
>  <MODEL>
1

>  <REMARK>
 VINA RESULT:      -9.3      0.000      0.000
  Name = 
  2 active torsions:
  status: ('A' for Active; 'I' for Inactive)
    1  A    between atoms: C_1  and  C_2
    2  A    between atoms: C_2  and  N_3
                            x       y       z     vdW  Elec       q    Type
                         _______ _______ _______ _____ _____    ______ ____

>  <TORSDO>
F 2

$$$$
=
 OpenBabel11052422543D

 28 32  0  0  1  0  0  0  0  0999 V2000
  161.8110  208.2010  149.7330 C   0  0  0  0  0  0  0  0  0  0  0  0
  161.1020  203.2570  148.2310 C   0  0  0  0  0  3  0  0  0  0  0  0
  161.5770  205.8160  153.9400 C   0  0  0  0  0  1  0  0  0  0  0  0
  161.0870  202.0580  150.3440 C   0  0  0  0  0  0  0  0  0  0  0  0
  160.9450  204.6010  150.3580 C   0  0  2  0  0  3  0  0  0  0  0  0
  161.1890  200.8390  148.2500 C   0  0  0  0  0  0  0  0  0  0  0  0
  161.0960  203.2820  149.6350 C   0  0  0  0  0  0  0  0  0  0  0  0
  160.5240  203.3000  152.4500 C   0  0  0  0  0  2  0  0  0  0  0  0
  161.1540  200.8480  149.6460 C   0  0  0  0  0  3  0  0  0  0  0  0
  161.1890  207.0500  151.8010 C   0  0  0  0  0  0  0  0  0  0  0  0
  161.8500  205.6780  149.7740 C   0  0  0  0  0  2  0  0  0  0  0  0
  161.0890  202.0180  151.8470 C   0  0  0  0  0  2  0  0  0  0  0  0
  161.1830  209.4780  151.6980 C   0  0  0  0  0  3  0  0  0  0  0  0
  160.8780  205.7890  152.5880 C   0  0  1  0  0  3  0  0  0  0  0  0
  160.9650  208.2950  152.4030 C   0  0  0  0  0  3  0  0  0  0  0  0
  161.2520  199.6330  147.5650 O   0  0  0  0  0  1  0  0  0  0  0  0
  161.1570  202.0420  147.5430 C   0  0  0  0  0  3  0  0  0  0  0  0
  161.2540  204.4950  151.8540 C   0  0  2  0  0  3  0  0  0  0  0  0
  161.6100  209.4300  150.3710 C   0  0  0  0  0  3  0  0  0  0  0  0
  161.5950  207.0020  150.4420 C   0  0  0  0  0  0  0  0  0  0  0  0
  162.2680  208.1940  148.2930 C   0  0  0  0  0  2  0  0  0  0  0  0
  161.8710  206.9980  147.5340 N   0  0  0  0  0  0  0  0  0  0  0  0
  161.2940  205.2910  145.3710 C   0  0  0  0  0  0  0  0  0  0  0  0
  162.9720  206.5610  146.6710 C   0  0  0  0  0  2  0  0  0  0  0  0
  160.6890  207.2780  146.7120 C   0  0  0  0  0  2  0  0  0  0  0  0
  160.1710  205.9940  146.0710 C   0  0  0  0  0  2  0  0  0  0  0  0
  161.0930  204.7150  144.3150 O   0  0  0  0  0  0  0  0  0  0  0  0
  162.6400  205.2170  146.0240 C   0  0  0  0  0  2  0  0  0  0  0  0
  1 19  2  0  0  0  0
  1 20  1  0  0  0  0
  2  7  1  0  0  0  0
  4 12  1  0  0  0  0
  5 11  1  6  0  0  0
  5 18  1  0  0  0  0
  6  9  2  0  0  0  0
  7  4  2  0  0  0  0
  7  5  1  0  0  0  0
  9  4  1  0  0  0  0
 10 15  1  0  0  0  0
 10 14  1  0  0  0  0
 11 20  1  0  0  0  0
 12  8  1  0  0  0  0
 13 15  2  0  0  0  0
 14  3  1  1  0  0  0
 16  6  1  0  0  0  0
 17  2  2  0  0  0  0
 17  6  1  0  0  0  0
 18  8  1  1  0  0  0
 18 14  1  0  0  0  0
 19 13  1  0  0  0  0
 20 10  2  0  0  0  0
 21  1  1  0  0  0  0
 22 21  1  0  0  0  0
 23 28  1  0  0  0  0
 23 26  1  0  0  0  0
 24 22  1  0  0  0  0
 25 22  1  0  0  0  0
 26 25  1  0  0  0  0
 27 23  2  0  0  0  0
 28 24  1  0  0  0  0
M  END
>  <MODEL>
2

>  <REMARK>
 VINA RESULT:      -8.4      2.941      5.466
  Name = 
  2 active torsions:
  status: ('A' for Active; 'I' for Inactive)
    1  A    between atoms: C_1  and  C_2
    2  A    between atoms: C_2  and  N_3
                            x       y       z     vdW  Elec       q    Type
                         _______ _______ _______ _____ _____    ______ ____

>  <TORSDO>
F 2

$$$$
=
 OpenBabel11052422543D

 28 32  0  0  1  0  0  0  0  0999 V2000
  161.6960  209.2630  151.7360 C   0  0  0  0  0  0  0  0  0  0  0  0
  161.2510  206.6150  147.2640 C   0  0  0  0  0  3  0  0  0  0  0  0
  161.4020  204.6660  153.2260 C   0  0  0  0  0  1  0  0  0  0  0  0
  161.2060  204.3060  148.0180 C   0  0  0  0  0  0  0  0  0  0  0  0
  160.9570  206.1760  149.7300 C   0  0  2  0  0  3  0  0  0  0  0  0
  161.4370  204.8160  145.6580 C   0  0  0  0  0  0  0  0  0  0  0  0
  161.1910  205.6890  148.3170 C   0  0  0  0  0  0  0  0  0  0  0  0
  160.5120  203.8040  150.3760 C   0  0  0  0  0  2  0  0  0  0  0  0
  161.3490  203.8820  146.6930 C   0  0  0  0  0  3  0  0  0  0  0  0
  161.0440  207.0160  152.4540 C   0  0  0  0  0  0  0  0  0  0  0  0
  161.8380  207.3710  150.0730 C   0  0  0  0  0  2  0  0  0  0  0  0
  161.1520  203.2650  149.1010 C   0  0  0  0  0  2  0  0  0  0  0  0
  160.9410  208.8810  154.0100 C   0  0  0  0  0  3  0  0  0  0  0  0
  160.7560  205.5530  152.1700 C   0  0  1  0  0  3  0  0  0  0  0  0
  160.7460  207.5300  153.7240 C   0  0  0  0  0  3  0  0  0  0  0  0
  161.5760  204.3860  144.3460 O   0  0  0  0  0  1  0  0  0  0  0  0
  161.3820  206.1810  145.9430 C   0  0  0  0  0  3  0  0  0  0  0  0
  161.2130  205.0920  150.7800 C   0  0  2  0  0  3  0  0  0  0  0  0
  161.4200  209.7410  153.0220 C   0  0  0  0  0  3  0  0  0  0  0  0
  161.5030  207.8980  151.4410 C   0  0  0  0  0  0  0  0  0  0  0  0
  162.2070  210.2300  150.6930 C   0  0  0  0  0  2  0  0  0  0  0  0
  161.5460  211.5430  150.7030 N   0  0  0  0  0  0  0  0  0  0  0  0
  159.6030  213.5450  150.3300 C   0  0  0  0  0  0  0  0  0  0  0  0
  160.3130  211.4810  151.4920 C   0  0  0  0  0  2  0  0  0  0  0  0
  161.2290  211.9710  149.3370 C   0  0  0  0  0  2  0  0  0  0  0  0
  160.7140  213.4080  149.3350 C   0  0  0  0  0  2  0  0  0  0  0  0
  158.6460  214.2610  150.0850 O   0  0  0  0  0  0  0  0  0  0  0  0
  159.7210  212.8790  151.6660 C   0  0  0  0  0  2  0  0  0  0  0  0
  1 19  1  0  0  0  0
  2  7  1  0  0  0  0
  4  7  2  0  0  0  0
  4 12  1  0  0  0  0
  5 11  1  1  0  0  0
  5 18  1  0  0  0  0
  6 17  1  0  0  0  0
  6  9  2  0  0  0  0
  7  5  1  0  0  0  0
  9  4  1  0  0  0  0
 10 15  2  0  0  0  0
 11 20  1  0  0  0  0
 12  8  1  0  0  0  0
 14 10  1  0  0  0  0
 14  3  1  1  0  0  0
 15 13  1  0  0  0  0
 16  6  1  0  0  0  0
 17  2  2  0  0  0  0
 18  8  1  6  0  0  0
 18 14  1  0  0  0  0
 19 13  2  0  0  0  0
 20  1  2  0  0  0  0
 20 10  1  0  0  0  0
 21 22  1  0  0  0  0
 21  1  1  0  0  0  0
 22 24  1  0  0  0  0
 23 28  1  0  0  0  0
 24 28  1  0  0  0  0
 25 22  1  0  0  0  0
 26 25  1  0  0  0  0
 26 23  1  0  0  0  0
 27 23  2  0  0  0  0
M  END
>  <MODEL>
3

>  <REMARK>
 VINA RESULT:      -8.2      1.306      2.141
  Name = 
  2 active torsions:
  status: ('A' for Active; 'I' for Inactive)
    1  A    between atoms: C_1  and  C_2
    2  A    between atoms: C_2  and  N_3
                            x       y       z     vdW  Elec       q    Type
                         _______ _______ _______ _____ _____    ______ ____

>  <TORSDO>
F 2

$$$$
=
 OpenBabel11052422543D

 28 32  0  0  1  0  0  0  0  0999 V2000
  161.1030  204.4610  150.2330 C   0  0  0  0  0  0  0  0  0  0  0  0
  162.1090  209.3980  148.8830 C   0  0  0  0  0  3  0  0  0  0  0  0
  160.1760  206.9080  154.3080 C   0  0  0  0  0  1  0  0  0  0  0  0
  161.5450  210.6250  150.9020 C   0  0  0  0  0  0  0  0  0  0  0  0
  161.7170  208.0860  151.0000 C   0  0  2  0  0  3  0  0  0  0  0  0
  161.9840  211.8140  148.8330 C   0  0  0  0  0  0  0  0  0  0  0  0
  161.7430  209.3920  150.2380 C   0  0  0  0  0  0  0  0  0  0  0  0
  161.5480  209.4240  153.1040 C   0  0  0  0  0  2  0  0  0  0  0  0
  161.6470  211.8240  150.1890 C   0  0  0  0  0  3  0  0  0  0  0  0
  161.1360  205.6530  152.3700 C   0  0  0  0  0  0  0  0  0  0  0  0
  161.0160  206.9840  150.2160 C   0  0  0  0  0  2  0  0  0  0  0  0
  161.1440  210.6850  152.3490 C   0  0  0  0  0  2  0  0  0  0  0  0
  161.2060  203.2240  152.3170 C   0  0  0  0  0  3  0  0  0  0  0  0
  161.2080  206.9300  153.1880 C   0  0  1  0  0  3  0  0  0  0  0  0
  161.2110  204.4200  153.0330 C   0  0  0  0  0  3  0  0  0  0  0  0
  162.0870  213.0080  148.1350 O   0  0  0  0  0  1  0  0  0  0  0  0
  162.2210  210.6020  148.1830 C   0  0  0  0  0  3  0  0  0  0  0  0
  161.0210  208.2060  152.3580 C   0  0  2  0  0  3  0  0  0  0  0  0
  161.1460  203.2450  150.9240 C   0  0  0  0  0  3  0  0  0  0  0  0
  161.1050  205.6750  150.9520 C   0  0  0  0  0  0  0  0  0  0  0  0
  161.0440  204.4410  148.7230 C   0  0  0  0  0  2  0  0  0  0  0  0
  160.7670  203.1190  148.1410 N   0  0  0  0  0  0  0  0  0  0  0  0
  161.1560  200.6400  146.8650 C   0  0  0  0  0  0  0  0  0  0  0  0
  161.5550  202.0920  148.8280 C   0  0  0  0  0  2  0  0  0  0  0  0
  161.0910  203.1070  146.7110 C   0  0  0  0  0  2  0  0  0  0  0  0
  160.6320  201.7990  146.0730 C   0  0  0  0  0  2  0  0  0  0  0  0
  161.5240  199.6260  146.2970 O   0  0  0  0  0  0  0  0  0  0  0  0
  161.1350  200.6990  148.3620 C   0  0  0  0  0  2  0  0  0  0  0  0
  1 19  2  0  0  0  0
  1 20  1  0  0  0  0
  2  7  1  0  0  0  0
  4 12  1  0  0  0  0
  5 11  1  6  0  0  0
  5 18  1  0  0  0  0
  6  9  2  0  0  0  0
  7  4  2  0  0  0  0
  7  5  1  0  0  0  0
  9  4  1  0  0  0  0
 10 15  1  0  0  0  0
 10 14  1  0  0  0  0
 11 20  1  0  0  0  0
 12  8  1  0  0  0  0
 13 15  2  0  0  0  0
 14  3  1  1  0  0  0
 16  6  1  0  0  0  0
 17  6  1  0  0  0  0
 17  2  2  0  0  0  0
 18  8  1  1  0  0  0
 18 14  1  0  0  0  0
 19 13  1  0  0  0  0
 20 10  2  0  0  0  0
 21  1  1  0  0  0  0
 22 21  1  0  0  0  0
 22 24  1  0  0  0  0
 23 28  1  0  0  0  0
 25 22  1  0  0  0  0
 26 25  1  0  0  0  0
 26 23  1  0  0  0  0
 27 23  2  0  0  0  0
 28 24  1  0  0  0  0
M  END
>  <MODEL>
4

>  <REMARK>
 VINA RESULT:      -7.7      2.608      7.500
  Name = 
  2 active torsions:
  status: ('A' for Active; 'I' for Inactive)
    1  A    between atoms: C_1  and  C_2
    2  A    between atoms: C_2  and  N_3
                            x       y       z     vdW  Elec       q    Type
                         _______ _______ _______ _____ _____    ______ ____

>  <TORSDO>
F 2

$$$$
=
 OpenBabel11052422543D

 28 32  0  0  1  0  0  0  0  0999 V2000
  161.3750  207.6380  153.2570 C   0  0  0  0  0  0  0  0  0  0  0  0
  162.2160  211.2000  149.5400 C   0  0  0  0  0  3  0  0  0  0  0  0
  158.1310  211.0780  154.3000 C   0  0  0  0  0  1  0  0  0  0  0  0
  160.5180  212.8710  150.0130 C   0  0  0  0  0  0  0  0  0  0  0  0
  160.9760  211.0460  151.7290 C   0  0  2  0  0  3  0  0  0  0  0  0
  161.7900  212.9730  147.9500 C   0  0  0  0  0  0  0  0  0  0  0  0
  161.2060  211.6910  150.3810 C   0  0  0  0  0  0  0  0  0  0  0  0
  159.5510  213.0110  152.3230 C   0  0  0  0  0  2  0  0  0  0  0  0
  160.8020  213.4900  148.7910 C   0  0  0  0  0  3  0  0  0  0  0  0
  160.1250  209.5940  154.0320 C   0  0  0  0  0  0  0  0  0  0  0  0
  160.9490  209.5250  151.6360 C   0  0  0  0  0  2  0  0  0  0  0  0
  159.4210  213.4430  150.8670 C   0  0  0  0  0  2  0  0  0  0  0  0
  160.5590  207.7370  155.5390 C   0  0  0  0  0  3  0  0  0  0  0  0
  159.5780  210.9960  153.8340 C   0  0  1  0  0  3  0  0  0  0  0  0
  160.0210  209.0010  155.2980 C   0  0  0  0  0  3  0  0  0  0  0  0
  162.0680  213.5960  146.7410 O   0  0  0  0  0  1  0  0  0  0  0  0
  162.5010  211.8320  148.3270 C   0  0  0  0  0  3  0  0  0  0  0  0
  159.6680  211.4950  152.3860 C   0  0  2  0  0  3  0  0  0  0  0  0
  161.2270  207.0580  154.5210 C   0  0  0  0  0  3  0  0  0  0  0  0
  160.8300  208.9140  153.0050 C   0  0  0  0  0  0  0  0  0  0  0  0
  162.1110  206.8710  152.1830 C   0  0  0  0  0  2  0  0  0  0  0  0
  161.3140  205.8250  151.5250 N   0  0  0  0  0  0  0  0  0  0  0  0
  160.6370  203.5930  149.9500 C   0  0  0  0  0  0  0  0  0  0  0  0
  161.7710  204.5000  151.9520 C   0  0  0  0  0  2  0  0  0  0  0  0
  161.4250  205.9330  150.0670 C   0  0  0  0  0  2  0  0  0  0  0  0
  160.4560  204.9690  149.3870 C   0  0  0  0  0  2  0  0  0  0  0  0
  160.5470  202.6170  149.2230 O   0  0  0  0  0  0  0  0  0  0  0  0
  160.8310  203.4170  151.4250 C   0  0  0  0  0  2  0  0  0  0  0  0
  1 19  1  0  0  0  0
  2  7  1  0  0  0  0
  4  7  2  0  0  0  0
  4 12  1  0  0  0  0
  5 11  1  6  0  0  0
  5 18  1  0  0  0  0
  6 17  1  0  0  0  0
  6  9  2  0  0  0  0
  7  5  1  0  0  0  0
  9  4  1  0  0  0  0
 10 15  2  0  0  0  0
 11 20  1  0  0  0  0
 12  8  1  0  0  0  0
 14 10  1  0  0  0  0
 14  3  1  6  0  0  0
 15 13  1  0  0  0  0
 16  6  1  0  0  0  0
 17  2  2  0  0  0  0
 18  8  1  1  0  0  0
 18 14  1  0  0  0  0
 19 13  2  0  0  0  0
 20  1  2  0  0  0  0
 20 10  1  0  0  0  0
 21  1  1  0  0  0  0
 22 24  1  0  0  0  0
 22 21  1  0  0  0  0
 23 28  1  0  0  0  0
 25 22  1  0  0  0  0
 26 23  1  0  0  0  0
 26 25  1  0  0  0  0
 27 23  2  0  0  0  0
 28 24  1  0  0  0  0
M  END
>  <MODEL>
5

>  <REMARK>
 VINA RESULT:      -7.6      2.662      7.240
  Name = 
  2 active torsions:
  status: ('A' for Active; 'I' for Inactive)
    1  A    between atoms: C_1  and  C_2
    2  A    between atoms: C_2  and  N_3
                            x       y       z     vdW  Elec       q    Type
                         _______ _______ _______ _____ _____    ______ ____

>  <TORSDO>
F 2

$$$$
=
 OpenBabel11052422543D

 28 32  0  0  1  0  0  0  0  0999 V2000
  161.3560  208.6710  152.9630 C   0  0  0  0  0  0  0  0  0  0  0  0
  161.1380  203.7280  151.3120 C   0  0  0  0  0  3  0  0  0  0  0  0
  161.5820  209.1270  148.1470 C   0  0  0  0  0  1  0  0  0  0  0  0
  161.1500  203.9750  148.8950 C   0  0  0  0  0  0  0  0  0  0  0  0
  161.6940  205.9920  150.3530 C   0  0  2  0  0  3  0  0  0  0  0  0
  160.6720  201.8190  149.8990 C   0  0  0  0  0  0  0  0  0  0  0  0
  161.2720  204.5490  150.1820 C   0  0  0  0  0  0  0  0  0  0  0  0
  162.0870  206.0720  147.8860 C   0  0  0  0  0  2  0  0  0  0  0  0
  160.8310  202.6200  148.7650 C   0  0  0  0  0  3  0  0  0  0  0  0
  161.9690  208.8200  150.5980 C   0  0  0  0  0  0  0  0  0  0  0  0
  160.9220  206.6820  151.4700 C   0  0  0  0  0  2  0  0  0  0  0  0
  161.2750  204.8030  147.6470 C   0  0  0  0  0  2  0  0  0  0  0  0
  162.3500  210.7030  152.0870 C   0  0  0  0  0  3  0  0  0  0  0  0
  162.1450  208.2060  149.2210 C   0  0  1  0  0  3  0  0  0  0  0  0
  162.4400  210.1210  150.8230 C   0  0  0  0  0  3  0  0  0  0  0  0
  160.3580  200.4740  149.7610 O   0  0  0  0  0  1  0  0  0  0  0  0
  160.8310  202.3720  151.1710 C   0  0  0  0  0  3  0  0  0  0  0  0
  161.5060  206.8190  149.0780 C   0  0  2  0  0  3  0  0  0  0  0  0
  161.8050  209.9830  153.1490 C   0  0  0  0  0  3  0  0  0  0  0  0
  161.4420  208.0770  151.6860 C   0  0  0  0  0  0  0  0  0  0  0  0
  160.7780  207.9230  154.1420 C   0  0  0  0  0  2  0  0  0  0  0  0
  160.0900  208.7720  155.1250 N   0  0  0  0  0  0  0  0  0  0  0  0
  159.3870  211.0170  156.6700 C   0  0  0  0  0  0  0  0  0  0  0  0
  159.4750  209.9210  154.4550 C   0  0  0  0  0  2  0  0  0  0  0  0
  161.0310  209.2470  156.1440 C   0  0  0  0  0  2  0  0  0  0  0  0
  160.2850  209.9730  157.2600 C   0  0  0  0  0  2  0  0  0  0  0  0
  159.2360  212.0860  157.2380 O   0  0  0  0  0  0  0  0  0  0  0  0
  158.6010  210.7030  155.4340 C   0  0  0  0  0  2  0  0  0  0  0  0
  1 19  1  0  0  0  0
  1 21  1  0  0  0  0
  4  7  1  0  0  0  0
  5 11  1  1  0  0  0
  6 17  2  0  0  0  0
  7  5  1  0  0  0  0
  7  2  2  0  0  0  0
  9  4  2  0  0  0  0
  9  6  1  0  0  0  0
 10 15  2  0  0  0  0
 10 20  1  0  0  0  0
 11 20  1  0  0  0  0
 12  8  1  0  0  0  0
 12  4  1  0  0  0  0
 13 19  2  0  0  0  0
 14  3  1  6  0  0  0
 14 10  1  0  0  0  0
 15 13  1  0  0  0  0
 16  6  1  0  0  0  0
 17  2  1  0  0  0  0
 18  8  1  6  0  0  0
 18 14  1  0  0  0  0
 18  5  1  0  0  0  0
 20  1  2  0  0  0  0
 21 22  1  0  0  0  0
 22 25  1  0  0  0  0
 23 27  2  0  0  0  0
 23 26  1  0  0  0  0
 24 22  1  0  0  0  0
 24 28  1  0  0  0  0
 25 26  1  0  0  0  0
 28 23  1  0  0  0  0
M  END
>  <MODEL>
6

>  <REMARK>
 VINA RESULT:      -7.2      2.434      4.305
  Name = 
  2 active torsions:
  status: ('A' for Active; 'I' for Inactive)
    1  A    between atoms: C_1  and  C_2
    2  A    between atoms: C_2  and  N_3
                            x       y       z     vdW  Elec       q    Type
                         _______ _______ _______ _____ _____    ______ ____

>  <TORSDO>
F 2

$$$$
=
 OpenBabel11052422543D

 28 32  0  0  1  0  0  0  0  0999 V2000
  161.9210  208.0050  152.1600 C   0  0  0  0  0  0  0  0  0  0  0  0
  161.7340  206.3720  147.2090 C   0  0  0  0  0  3  0  0  0  0  0  0
  160.9230  203.2880  152.6130 C   0  0  0  0  0  1  0  0  0  0  0  0
  161.3330  203.9890  147.4520 C   0  0  0  0  0  0  0  0  0  0  0  0
  161.0890  205.5020  149.4860 C   0  0  2  0  0  3  0  0  0  0  0  0
  161.9110  204.9150  145.2860 C   0  0  0  0  0  0  0  0  0  0  0  0
  161.4390  205.2740  148.0320 C   0  0  0  0  0  0  0  0  0  0  0  0
  160.3000  203.1320  149.5720 C   0  0  0  0  0  2  0  0  0  0  0  0
  161.5900  203.8170  146.0880 C   0  0  0  0  0  3  0  0  0  0  0  0
  160.9340  205.7710  152.3210 C   0  0  0  0  0  0  0  0  0  0  0  0
  162.0520  206.4740  150.1570 C   0  0  0  0  0  2  0  0  0  0  0  0
  161.0270  202.7730  148.2810 C   0  0  0  0  0  2  0  0  0  0  0  0
  160.8520  207.2900  154.2170 C   0  0  0  0  0  3  0  0  0  0  0  0
  160.5180  204.4450  151.7100 C   0  0  1  0  0  3  0  0  0  0  0  0
  160.5410  206.0620  153.6350 C   0  0  0  0  0  3  0  0  0  0  0  0
  162.1620  204.7360  143.9330 O   0  0  0  0  0  1  0  0  0  0  0  0
  161.9770  206.1920  145.8460 C   0  0  0  0  0  3  0  0  0  0  0  0
  161.0880  204.2090  150.3050 C   0  0  2  0  0  3  0  0  0  0  0  0
  161.5440  208.2540  153.4840 C   0  0  0  0  0  3  0  0  0  0  0  0
  161.6120  206.7630  151.5670 C   0  0  0  0  0  0  0  0  0  0  0  0
  162.6640  209.0780  151.3990 C   0  0  0  0  0  2  0  0  0  0  0  0
  161.8510  209.7950  150.4050 N   0  0  0  0  0  0  0  0  0  0  0  0
  161.1330  211.5290  148.3070 C   0  0  0  0  0  0  0  0  0  0  0  0
  162.3290  209.4960  149.0530 C   0  0  0  0  0  2  0  0  0  0  0  0
  161.9120  211.2410  150.6360 C   0  0  0  0  0  2  0  0  0  0  0  0
  160.9260  211.9680  149.7250 C   0  0  0  0  0  2  0  0  0  0  0  0
  161.0240  212.3320  147.3950 O   0  0  0  0  0  0  0  0  0  0  0  0
  161.3770  210.0810  148.0110 C   0  0  0  0  0  2  0  0  0  0  0  0
  1 19  1  0  0  0  0
  2  7  1  0  0  0  0
  4  7  2  0  0  0  0
  4 12  1  0  0  0  0
  5 11  1  1  0  0  0
  5 18  1  0  0  0  0
  6 17  1  0  0  0  0
  6  9  2  0  0  0  0
  7  5  1  0  0  0  0
  9  4  1  0  0  0  0
 10 15  2  0  0  0  0
 11 20  1  0  0  0  0
 12  8  1  0  0  0  0
 14 10  1  0  0  0  0
 14  3  1  1  0  0  0
 15 13  1  0  0  0  0
 16  6  1  0  0  0  0
 17  2  2  0  0  0  0
 18  8  1  6  0  0  0
 18 14  1  0  0  0  0
 19 13  2  0  0  0  0
 20  1  2  0  0  0  0
 20 10  1  0  0  0  0
 21  1  1  0  0  0  0
 22 25  1  0  0  0  0
 22 21  1  0  0  0  0
 23 26  1  0  0  0  0
 24 22  1  0  0  0  0
 26 25  1  0  0  0  0
 27 23  2  0  0  0  0
 28 23  1  0  0  0  0
 28 24  1  0  0  0  0
M  END
>  <MODEL>
7

>  <REMARK>
 VINA RESULT:      -6.9      1.749      2.168
  Name = 
  2 active torsions:
  status: ('A' for Active; 'I' for Inactive)
    1  A    between atoms: C_1  and  C_2
    2  A    between atoms: C_2  and  N_3
                            x       y       z     vdW  Elec       q    Type
                         _______ _______ _______ _____ _____    ______ ____

>  <TORSDO>
F 2

$$$$
=
 OpenBabel11052422543D

 28 32  0  0  1  0  0  0  0  0999 V2000
  161.4860  208.8690  152.3150 C   0  0  0  0  0  0  0  0  0  0  0  0
  161.2970  203.7260  151.4690 C   0  0  0  0  0  3  0  0  0  0  0  0
  161.2900  208.5740  147.4860 C   0  0  0  0  0  1  0  0  0  0  0  0
  161.0970  203.5940  149.0510 C   0  0  0  0  0  0  0  0  0  0  0  0
  161.6930  205.8240  150.1280 C   0  0  2  0  0  3  0  0  0  0  0  0
  160.7780  201.6120  150.4130 C   0  0  0  0  0  0  0  0  0  0  0  0
  161.3070  204.3640  150.2190 C   0  0  0  0  0  0  0  0  0  0  0  0
  161.8740  205.5260  147.6530 C   0  0  0  0  0  2  0  0  0  0  0  0
  160.8140  202.2280  149.1600 C   0  0  0  0  0  3  0  0  0  0  0  0
  161.8920  208.6610  149.9110 C   0  0  0  0  0  0  0  0  0  0  0  0
  160.9950  206.6640  151.1900 C   0  0  0  0  0  2  0  0  0  0  0  0
  161.0880  204.2200  147.6850 C   0  0  0  0  0  2  0  0  0  0  0  0
  162.3330  210.7600  151.0540 C   0  0  0  0  0  3  0  0  0  0  0  0
  161.9720  207.8430  148.6340 C   0  0  1  0  0  3  0  0  0  0  0  0
  162.3360  209.9900  149.8910 C   0  0  0  0  0  3  0  0  0  0  0  0
  160.5000  200.2550  150.5110 O   0  0  0  0  0  1  0  0  0  0  0  0
  161.0250  202.3590  151.5650 C   0  0  0  0  0  3  0  0  0  0  0  0
  161.3710  206.4380  148.7630 C   0  0  2  0  0  3  0  0  0  0  0  0
  161.9050  210.2030  152.2580 C   0  0  0  0  0  3  0  0  0  0  0  0
  161.4840  208.0860  151.1430 C   0  0  0  0  0  0  0  0  0  0  0  0
  161.0350  208.3020  153.6420 C   0  0  0  0  0  2  0  0  0  0  0  0
  160.7370  209.3130  154.6670 N   0  0  0  0  0  0  0  0  0  0  0  0
  159.3120  210.8830  156.5190 C   0  0  0  0  0  0  0  0  0  0  0  0
  160.2020  208.6680  155.8690 C   0  0  0  0  0  2  0  0  0  0  0  0
  159.7640  210.2880  154.1620 C   0  0  0  0  0  2  0  0  0  0  0  0
  159.5960  211.4350  155.1550 C   0  0  0  0  0  2  0  0  0  0  0  0
  158.5280  211.4530  157.2600 O   0  0  0  0  0  0  0  0  0  0  0  0
  160.0680  209.6840  157.0030 C   0  0  0  0  0  2  0  0  0  0  0  0
  1 21  1  0  0  0  0
  2 17  1  0  0  0  0
  4  9  2  0  0  0  0
  4  7  1  0  0  0  0
  5  7  1  0  0  0  0
  5 11  1  1  0  0  0
  6 16  1  0  0  0  0
  6 17  2  0  0  0  0
  7  2  2  0  0  0  0
  8 12  1  0  0  0  0
  9  6  1  0  0  0  0
 10 20  1  0  0  0  0
 12  4  1  0  0  0  0
 13 19  2  0  0  0  0
 14  3  1  6  0  0  0
 14 18  1  0  0  0  0
 14 10  1  0  0  0  0
 15 10  2  0  0  0  0
 15 13  1  0  0  0  0
 18  8  1  6  0  0  0
 18  5  1  0  0  0  0
 19  1  1  0  0  0  0
 20 11  1  0  0  0  0
 20  1  2  0  0  0  0
 21 22  1  0  0  0  0
 22 24  1  0  0  0  0
 23 28  1  0  0  0  0
 23 27  2  0  0  0  0
 24 28  1  0  0  0  0
 25 22  1  0  0  0  0
 25 26  1  0  0  0  0
 26 23  1  0  0  0  0
M  END
>  <MODEL>
8

>  <REMARK>
 VINA RESULT:      -6.9      2.453      4.464
  Name = 
  2 active torsions:
  status: ('A' for Active; 'I' for Inactive)
    1  A    between atoms: C_1  and  C_2
    2  A    between atoms: C_2  and  N_3
                            x       y       z     vdW  Elec       q    Type
                         _______ _______ _______ _____ _____    ______ ____

>  <TORSDO>
F 2

$$$$
=
 OpenBabel11052422543D

 28 32  0  0  1  0  0  0  0  0999 V2000
  161.0140  204.6370  148.5880 C   0  0  0  0  0  0  0  0  0  0  0  0
  161.3710  208.9490  151.5020 C   0  0  0  0  0  3  0  0  0  0  0  0
  160.1730  202.9910  153.0630 C   0  0  0  0  0  1  0  0  0  0  0  0
  160.8490  208.1280  153.7280 C   0  0  0  0  0  0  0  0  0  0  0  0
  161.2990  206.4540  151.8620 C   0  0  2  0  0  3  0  0  0  0  0  0
  160.9850  210.5130  153.3060 C   0  0  0  0  0  0  0  0  0  0  0  0
  161.1220  207.8700  152.3640 C   0  0  0  0  0  0  0  0  0  0  0  0
  161.1640  205.6930  154.2380 C   0  0  0  0  0  2  0  0  0  0  0  0
  160.7630  209.4480  154.1830 C   0  0  0  0  0  3  0  0  0  0  0  0
  161.0980  203.7840  150.8800 C   0  0  0  0  0  0  0  0  0  0  0  0
  160.6570  206.2510  150.4950 C   0  0  0  0  0  2  0  0  0  0  0  0
  160.5660  207.0170  154.7000 C   0  0  0  0  0  2  0  0  0  0  0  0
  161.4220  202.2810  148.9970 C   0  0  0  0  0  3  0  0  0  0  0  0
  161.1000  203.9900  152.3840 C   0  0  1  0  0  3  0  0  0  0  0  0
  161.3590  202.5040  150.3720 C   0  0  0  0  0  3  0  0  0  0  0  0
  160.9000  211.8200  153.7670 O   0  0  0  0  0  1  0  0  0  0  0  0
  161.2940  210.2630  151.9690 C   0  0  0  0  0  3  0  0  0  0  0  0
  160.7090  205.4100  152.8130 C   0  0  2  0  0  3  0  0  0  0  0  0
  161.2440  203.3420  148.1100 C   0  0  0  0  0  3  0  0  0  0  0  0
  160.9460  204.8680  149.9770 C   0  0  0  0  0  0  0  0  0  0  0  0
  160.8320  205.7600  147.5930 C   0  0  0  0  0  2  0  0  0  0  0  0
  161.1260  205.3940  146.1990 N   0  0  0  0  0  0  0  0  0  0  0  0
  161.6310  205.6210  143.4400 C   0  0  0  0  0  0  0  0  0  0  0  0
  162.3720  206.0280  145.7640 C   0  0  0  0  0  2  0  0  0  0  0  0
  160.0320  205.8090  145.3160 C   0  0  0  0  0  2  0  0  0  0  0  0
  160.2510  205.2670  143.9060 C   0  0  0  0  0  2  0  0  0  0  0  0
  161.8240  205.9230  142.2740 O   0  0  0  0  0  0  0  0  0  0  0  0
  162.7840  205.5050  144.3880 C   0  0  0  0  0  2  0  0  0  0  0  0
  1 20  1  0  0  0  0
  2 17  2  0  0  0  0
  2  7  1  0  0  0  0
  4  9  1  0  0  0  0
  4 12  1  0  0  0  0
  5 11  1  6  0  0  0
  5  7  1  0  0  0  0
  5 18  1  0  0  0  0
  6 16  1  0  0  0  0
  6  9  2  0  0  0  0
  7  4  2  0  0  0  0
  8 12  1  0  0  0  0
 10 14  1  0  0  0  0
 13 15  2  0  0  0  0
 14 18  1  0  0  0  0
 14  3  1  1  0  0  0
 15 10  1  0  0  0  0
 17  6  1  0  0  0  0
 18  8  1  1  0  0  0
 19  1  2  0  0  0  0
 19 13  1  0  0  0  0
 20 11  1  0  0  0  0
 20 10  2  0  0  0  0
 21  1  1  0  0  0  0
 22 21  1  0  0  0  0
 23 26  1  0  0  0  0
 23 28  1  0  0  0  0
 24 22  1  0  0  0  0
 25 22  1  0  0  0  0
 26 25  1  0  0  0  0
 27 23  2  0  0  0  0
 28 24  1  0  0  0  0
M  END
>  <MODEL>
9

>  <REMARK>
 VINA RESULT:      -6.8      1.833      7.402
  Name = 
  2 active torsions:
  status: ('A' for Active; 'I' for Inactive)
    1  A    between atoms: C_1  and  C_2
    2  A    between atoms: C_2  and  N_3
                            x       y       z     vdW  Elec       q    Type
                         _______ _______ _______ _____ _____    ______ ____

>  <TORSDO>
F 2

$$$$
