=
 OpenBabel11052423053D

 27 30  0  0  1  0  0  0  0  0999 V2000
  160.5630  205.7390  148.6390 C   0  0  0  0  0  3  0  0  0  0  0  0
  161.0840  205.5720  151.0720 C   0  0  0  0  0  0  0  0  0  0  0  0
  161.8950  207.8140  150.4250 C   0  0  0  0  0  3  0  0  0  0  0  0
  161.0920  207.5260  155.1500 S   0  0  0  0  0  0  0  0  0  0  0  0
  160.3570  210.2370  155.2310 C   0  0  0  0  0  1  0  0  0  0  0  0
  161.4260  204.7620  152.2770 C   0  0  0  0  0  3  0  0  0  0  0  0
  160.5460  208.8470  153.0770 C   0  0  0  0  0  0  0  0  0  0  0  0
  160.1390  209.9510  152.1580 C   0  0  0  0  0  1  0  0  0  0  0  0
  160.8660  207.5490  152.6450 C   0  0  0  0  0  0  0  0  0  0  0  0
  160.9160  204.9750  149.8640 C   0  0  0  0  0  0  0  0  0  0  0  0
  160.6350  208.9930  154.4600 C   0  0  0  0  0  0  0  0  0  0  0  0
  161.1870  206.7000  153.6910 C   0  0  0  0  0  0  0  0  0  0  0  0
  160.9690  206.9710  148.2960 C   0  0  0  0  0  0  0  0  0  0  0  0
  160.8670  207.0730  151.2140 C   0  0  2  0  0  3  0  0  0  0  0  0
  161.4820  205.2830  153.5030 C   0  0  0  0  0  3  0  0  0  0  0  0
  161.9380  207.7680  149.0930 C   0  0  0  0  0  0  0  0  0  0  0  0
  161.0890  200.7490  149.3860 N   0  0  0  0  0  0  0  0  0  0  0  0
  161.0090  203.5020  149.6920 C   0  0  0  0  0  0  0  0  0  0  0  0
  161.1860  202.9320  148.4240 C   0  0  0  0  0  3  0  0  0  0  0  0
  161.2300  201.5420  148.2910 C   0  0  0  0  0  3  0  0  0  0  0  0
  160.9000  201.2730  150.6250 C   0  0  0  0  0  3  0  0  0  0  0  0
  160.8510  202.6580  150.7990 C   0  0  0  0  0  3  0  0  0  0  0  0
  160.5230  207.4840  146.9660 C   0  0  0  0  0  2  0  0  0  0  0  0
  160.5330  206.4500  146.0290 O   0  0  0  0  0  1  0  0  0  0  0  0
  162.9490  208.6200  148.3990 C   0  0  0  0  0  2  0  0  0  0  0  0
  162.7440  210.0820  148.7520 C   0  0  0  0  0  2  0  0  0  0  0  0
  161.6080  210.5620  148.1020 O   0  0  0  0  0  1  0  0  0  0  0  0
  1 10  1  0  0  0  0
  2 14  1  0  0  0  0
  2  6  1  0  0  0  0
  6 15  2  0  0  0  0
  7 11  2  0  0  0  0
  8  7  1  0  0  0  0
  9  7  1  0  0  0  0
  9 12  2  0  0  0  0
 10  2  2  0  0  0  0
 11  4  1  0  0  0  0
 11  5  1  0  0  0  0
 12  4  1  0  0  0  0
 13  1  2  0  0  0  0
 13 16  1  0  0  0  0
 14  3  1  6  0  0  0
 14  9  1  0  0  0  0
 15 12  1  0  0  0  0
 16  3  2  0  0  0  0
 17 21  1  0  0  0  0
 18 10  1  0  0  0  0
 18 22  1  0  0  0  0
 19 18  2  0  0  0  0
 20 19  1  0  0  0  0
 20 17  2  0  0  0  0
 21 22  2  0  0  0  0
 23 13  1  0  0  0  0
 24 23  1  0  0  0  0
 25 26  1  0  0  0  0
 25 16  1  0  0  0  0
 27 26  1  0  0  0  0
M  END
>  <MODEL>
1

>  <REMARK>
 VINA RESULT:      -7.3      0.000      0.000
  Name = 
  4 active torsions:
  status: ('A' for Active; 'I' for Inactive)
    1  A    between atoms: C_9  and  C_15
    2  A    between atoms: C_10  and  C_20
    3  A    between atoms: C_18  and  C_22
    4  A    between atoms: C_20  and  C_26
                            x       y       z     vdW  Elec       q    Type
                         _______ _______ _______ _____ _____    ______ ____

>  <TORSDO>
F 4

$$$$
=
 OpenBabel11052423053D

 27 30  0  0  1  0  0  0  0  0999 V2000
  162.1360  207.3620  150.1750 C   0  0  0  0  0  3  0  0  0  0  0  0
  161.1110  205.1860  150.8360 C   0  0  0  0  0  0  0  0  0  0  0  0
  160.7010  205.3420  148.4050 C   0  0  0  0  0  3  0  0  0  0  0  0
  160.4800  200.7980  149.9420 S   0  0  0  0  0  0  0  0  0  0  0  0
  161.4760  199.8760  147.4810 C   0  0  0  0  0  1  0  0  0  0  0  0
  160.4430  204.3160  151.8460 C   0  0  0  0  0  3  0  0  0  0  0  0
  161.5820  202.3210  148.2650 C   0  0  0  0  0  0  0  0  0  0  0  0
  162.2870  202.8300  147.0520 C   0  0  0  0  0  1  0  0  0  0  0  0
  161.2170  203.1310  149.3550 C   0  0  0  0  0  0  0  0  0  0  0  0
  161.4570  206.4630  151.1450 C   0  0  0  0  0  0  0  0  0  0  0  0
  161.2280  200.9850  148.4430 C   0  0  0  0  0  0  0  0  0  0  0  0
  160.5980  202.4190  150.3670 C   0  0  0  0  0  0  0  0  0  0  0  0
  161.9460  207.4290  148.8480 C   0  0  0  0  0  0  0  0  0  0  0  0
  161.4570  204.6160  149.4670 C   0  0  2  0  0  3  0  0  0  0  0  0
  160.1940  203.0240  151.6330 C   0  0  0  0  0  3  0  0  0  0  0  0
  160.9280  206.6260  148.1230 C   0  0  0  0  0  0  0  0  0  0  0  0
  160.7490  208.1080  155.0060 N   0  0  0  0  0  0  0  0  0  0  0  0
  161.2410  207.0330  152.4990 C   0  0  0  0  0  0  0  0  0  0  0  0
  161.2330  206.2130  153.6370 C   0  0  0  0  0  3  0  0  0  0  0  0
  160.9880  206.7750  154.8920 C   0  0  0  0  0  3  0  0  0  0  0  0
  160.7350  208.9240  153.9200 C   0  0  0  0  0  3  0  0  0  0  0  0
  160.9760  208.4000  152.6480 C   0  0  0  0  0  3  0  0  0  0  0  0
  162.7090  208.4780  148.1090 C   0  0  0  0  0  2  0  0  0  0  0  0
  162.2880  209.7460  148.5120 O   0  0  0  0  0  1  0  0  0  0  0  0
  160.1800  207.2300  146.9800 C   0  0  0  0  0  2  0  0  0  0  0  0
  160.2940  206.3520  145.7470 C   0  0  0  0  0  2  0  0  0  0  0  0
  161.6360  206.0700  145.5000 O   0  0  0  0  0  1  0  0  0  0  0  0
  1 10  1  0  0  0  0
  2 10  2  0  0  0  0
  2  6  1  0  0  0  0
  4 12  1  0  0  0  0
  5 11  1  0  0  0  0
  7 11  2  0  0  0  0
  7  9  1  0  0  0  0
  8  7  1  0  0  0  0
  9 14  1  0  0  0  0
  9 12  2  0  0  0  0
 10 18  1  0  0  0  0
 11  4  1  0  0  0  0
 12 15  1  0  0  0  0
 13  1  2  0  0  0  0
 14  3  1  6  0  0  0
 14  2  1  0  0  0  0
 15  6  2  0  0  0  0
 16  3  2  0  0  0  0
 16 13  1  0  0  0  0
 18 22  2  0  0  0  0
 18 19  1  0  0  0  0
 19 20  2  0  0  0  0
 20 17  1  0  0  0  0
 21 17  2  0  0  0  0
 22 21  1  0  0  0  0
 23 24  1  0  0  0  0
 23 13  1  0  0  0  0
 25 16  1  0  0  0  0
 26 25  1  0  0  0  0
 27 26  1  0  0  0  0
M  END
>  <MODEL>
2

>  <REMARK>
 VINA RESULT:      -6.7      2.589      6.133
  Name = 
  4 active torsions:
  status: ('A' for Active; 'I' for Inactive)
    1  A    between atoms: C_9  and  C_15
    2  A    between atoms: C_10  and  C_20
    3  A    between atoms: C_18  and  C_22
    4  A    between atoms: C_20  and  C_26
                            x       y       z     vdW  Elec       q    Type
                         _______ _______ _______ _____ _____    ______ ____

>  <TORSDO>
F 4

$$$$
=
 OpenBabel11052423053D

 27 30  0  0  0  0  0  0  0  0999 V2000
  162.5500  208.7420  148.5900 C   0  0  0  0  0  3  0  0  0  0  0  0
  161.4720  209.8710  150.5350 C   0  0  0  0  0  0  0  0  0  0  0  0
  160.7110  207.5270  150.6910 C   0  0  0  0  0  3  0  0  0  0  0  0
  160.3750  209.7740  154.9210 S   0  0  0  0  0  0  0  0  0  0  0  0
  160.9110  207.3750  156.2830 C   0  0  0  0  0  1  0  0  0  0  0  0
  160.9000  211.0890  151.1790 C   0  0  0  0  0  2  0  0  0  0  0  0
  161.3240  207.7430  153.7730 C   0  0  0  0  0  0  0  0  0  0  0  0
  161.8740  206.3800  153.5170 C   0  0  0  0  0  1  0  0  0  0  0  0
  161.1920  208.7310  152.7820 C   0  0  0  0  0  0  0  0  0  0  0  0
  161.9580  209.9250  149.2680 C   0  0  0  0  0  0  0  0  0  0  0  0
  160.8990  208.1760  155.0270 C   0  0  0  0  0  0  0  0  0  0  0  0
  160.6810  209.9190  153.2760 C   0  0  0  0  0  0  0  0  0  0  0  0
  162.1670  207.4600  148.6960 C   0  0  0  0  0  0  0  0  0  0  0  0
  161.5610  208.5740  151.3280 C   0  0  0  0  0  0  0  0  0  0  0  0
  160.5210  211.1170  152.4570 C   0  0  0  0  0  3  0  0  0  0  0  0
  160.9910  207.0170  149.4910 C   0  0  0  0  0  0  0  0  0  0  0  0
  162.1200  213.5080  146.9760 N   0  0  0  0  0  0  0  0  0  0  0  0
  161.9950  211.1900  148.4900 C   0  0  0  0  0  0  0  0  0  0  0  0
  160.8940  211.6020  147.7260 C   0  0  0  0  0  3  0  0  0  0  0  0
  160.9750  212.7760  146.9750 C   0  0  0  0  0  3  0  0  0  0  0  0
  163.2090  213.1250  147.6940 C   0  0  0  0  0  3  0  0  0  0  0  0
  163.1670  211.9570  148.4580 C   0  0  0  0  0  3  0  0  0  0  0  0
  162.8870  206.4660  147.8460 C   0  0  0  0  0  2  0  0  0  0  0  0
  162.2830  206.3880  146.5910 O   0  0  0  0  0  1  0  0  0  0  0  0
  160.1270  205.9080  148.9860 C   0  0  0  0  0  2  0  0  0  0  0  0
  160.4630  204.6090  149.6960 C   0  0  0  0  0  2  0  0  0  0  0  0
  160.9980  203.7050  148.7810 O   0  0  0  0  0  1  0  0  0  0  0  0
  1 13  2  0  0  0  0
  1 10  1  0  0  0  0
  2  6  1  0  0  0  0
  2 14  1  0  0  0  0
  3 14  1  0  0  0  0
  4 11  1  0  0  0  0
  6 15  1  0  0  0  0
  7 11  2  0  0  0  0
  8  7  1  0  0  0  0
  9 12  1  0  0  0  0
  9  7  1  0  0  0  0
 10  2  2  0  0  0  0
 11  5  1  0  0  0  0
 12  4  1  0  0  0  0
 13 16  1  0  0  0  0
 14  9  2  0  0  0  0
 15 12  2  0  0  0  0
 16  3  2  0  0  0  0
 17 21  1  0  0  0  0
 18 10  1  0  0  0  0
 19 18  2  0  0  0  0
 20 17  2  0  0  0  0
 20 19  1  0  0  0  0
 21 22  2  0  0  0  0
 22 18  1  0  0  0  0
 23 13  1  0  0  0  0
 24 23  1  0  0  0  0
 25 16  1  0  0  0  0
 25 26  1  0  0  0  0
 27 26  1  0  0  0  0
M  END
>  <MODEL>
3

>  <REMARK>
 VINA RESULT:      -6.5      3.128      6.051
  Name = 
  4 active torsions:
  status: ('A' for Active; 'I' for Inactive)
    1  A    between atoms: C_9  and  C_15
    2  A    between atoms: C_10  and  C_20
    3  A    between atoms: C_18  and  C_22
    4  A    between atoms: C_20  and  C_26
                            x       y       z     vdW  Elec       q    Type
                         _______ _______ _______ _____ _____    ______ ____

>  <TORSDO>
F 4

$$$$
=
 OpenBabel11052423053D

 27 30  0  0  1  0  0  0  0  0999 V2000
  161.7560  202.7630  147.8310 C   0  0  0  0  0  3  0  0  0  0  0  0
  161.2280  205.0830  148.5780 C   0  0  1  0  0  3  0  0  0  0  0  0
  160.1220  203.6360  150.2470 C   0  0  0  0  0  3  0  0  0  0  0  0
  160.8890  208.0510  151.9730 S   0  0  0  0  0  0  0  0  0  0  0  0
  161.2380  207.0210  154.5640 C   0  0  0  0  0  1  0  0  0  0  0  0
  160.9850  206.5230  148.2770 C   0  0  0  0  0  3  0  0  0  0  0  0
  161.2760  205.6030  152.4210 C   0  0  0  0  0  0  0  0  0  0  0  0
  161.5380  204.3060  153.1110 C   0  0  0  0  0  1  0  0  0  0  0  0
  161.1460  205.7340  151.0270 C   0  0  0  0  0  0  0  0  0  0  0  0
  161.4950  204.2040  147.5780 C   0  0  0  0  0  0  0  0  0  0  0  0
  161.1480  206.8180  153.0910 C   0  0  0  0  0  0  0  0  0  0  0  0
  160.9320  207.0430  150.6300 C   0  0  0  0  0  0  0  0  0  0  0  0
  161.1870  201.9770  148.7590 C   0  0  0  0  0  0  0  0  0  0  0  0
  161.2310  204.6090  150.0260 C   0  0  0  0  0  0  0  0  0  0  0  0
  160.8390  207.4440  149.2300 C   0  0  0  0  0  3  0  0  0  0  0  0
  160.1050  202.4340  149.6700 C   0  0  0  0  0  0  0  0  0  0  0  0
  161.7690  205.5030  143.5330 N   0  0  0  0  0  0  0  0  0  0  0  0
  161.6110  204.6330  146.1600 C   0  0  0  0  0  0  0  0  0  0  0  0
  162.7630  205.2800  145.6920 C   0  0  0  0  0  3  0  0  0  0  0  0
  162.8250  205.7060  144.3640 C   0  0  0  0  0  3  0  0  0  0  0  0
  160.6330  204.8920  143.9630 C   0  0  0  0  0  3  0  0  0  0  0  0
  160.5330  204.4520  145.2850 C   0  0  0  0  0  3  0  0  0  0  0  0
  161.5760  200.5360  148.7560 C   0  0  0  0  0  2  0  0  0  0  0  0
  161.5510  200.0390  147.4520 O   0  0  0  0  0  1  0  0  0  0  0  0
  158.9950  201.5030  150.0320 C   0  0  0  0  0  2  0  0  0  0  0  0
  158.3280  200.9610  148.7810 C   0  0  0  0  0  2  0  0  0  0  0  0
  156.9760  201.3020  148.7910 O   0  0  0  0  0  1  0  0  0  0  0  0
  1 13  1  0  0  0  0
  2  6  1  1  0  0  0
  2 14  1  0  0  0  0
  4 11  1  0  0  0  0
  6 15  2  0  0  0  0
  7 11  2  0  0  0  0
  7  8  1  0  0  0  0
  9  7  1  0  0  0  0
 10  1  2  0  0  0  0
 10  2  1  0  0  0  0
 11  5  1  0  0  0  0
 12  9  2  0  0  0  0
 12  4  1  0  0  0  0
 13 16  2  0  0  0  0
 14  3  2  0  0  0  0
 14  9  1  0  0  0  0
 15 12  1  0  0  0  0
 16 25  1  0  0  0  0
 16  3  1  0  0  0  0
 17 21  2  0  0  0  0
 17 20  1  0  0  0  0
 18 10  1  0  0  0  0
 19 18  1  0  0  0  0
 20 19  2  0  0  0  0
 21 22  1  0  0  0  0
 22 18  2  0  0  0  0
 23 13  1  0  0  0  0
 24 23  1  0  0  0  0
 26 27  1  0  0  0  0
 26 25  1  0  0  0  0
M  END
>  <MODEL>
4

>  <REMARK>
 VINA RESULT:      -5.8      3.255      5.551
  Name = 
  4 active torsions:
  status: ('A' for Active; 'I' for Inactive)
    1  A    between atoms: C_9  and  C_15
    2  A    between atoms: C_10  and  C_20
    3  A    between atoms: C_18  and  C_22
    4  A    between atoms: C_20  and  C_26
                            x       y       z     vdW  Elec       q    Type
                         _______ _______ _______ _____ _____    ______ ____

>  <TORSDO>
F 4

$$$$
=
 OpenBabel11052423053D

 27 30  0  0  1  0  0  0  0  0999 V2000
  158.9680  209.9820  155.8940 C   0  0  0  0  0  3  0  0  0  0  0  0
  159.0910  211.7320  154.1220 C   0  0  0  0  0  0  0  0  0  0  0  0
  161.3770  210.8010  154.2220 C   0  0  0  0  0  3  0  0  0  0  0  0
  160.5340  212.9580  150.0150 S   0  0  0  0  0  0  0  0  0  0  0  0
  162.2270  211.1420  148.7000 C   0  0  0  0  0  1  0  0  0  0  0  0
  158.6270  213.0200  153.5320 C   0  0  0  0  0  3  0  0  0  0  0  0
  161.3000  210.8040  151.0720 C   0  0  0  0  0  0  0  0  0  0  0  0
  161.9490  209.4790  151.2930 C   0  0  0  0  0  1  0  0  0  0  0  0
  160.4800  211.4400  152.0210 C   0  0  1  0  0  3  0  0  0  0  0  0
  158.5470  211.2660  155.2760 C   0  0  0  0  0  0  0  0  0  0  0  0
  161.4330  211.5380  149.8950 C   0  0  0  0  0  0  0  0  0  0  0  0
  159.9770  212.6480  151.5690 C   0  0  0  0  0  0  0  0  0  0  0  0
  160.2000  209.4500  155.9220 C   0  0  0  0  0  0  0  0  0  0  0  0
  160.1420  210.9070  153.3910 C   0  0  0  0  0  0  0  0  0  0  0  0
  159.0410  213.4590  152.3430 C   0  0  0  0  0  3  0  0  0  0  0  0
  161.4020  210.1330  155.3760 C   0  0  0  0  0  0  0  0  0  0  0  0
  155.3820  213.3640  157.2000 N   0  0  0  0  0  0  0  0  0  0  0  0
  157.4430  211.9760  155.9710 C   0  0  0  0  0  0  0  0  0  0  0  0
  156.1390  211.4620  155.9700 C   0  0  0  0  0  3  0  0  0  0  0  0
  155.1150  212.1740  156.5990 C   0  0  0  0  0  3  0  0  0  0  0  0
  156.6340  213.8940  157.2040 C   0  0  0  0  0  3  0  0  0  0  0  0
  157.6850  213.2120  156.5850 C   0  0  0  0  0  3  0  0  0  0  0  0
  160.3690  208.1730  156.6770 C   0  0  0  0  0  2  0  0  0  0  0  0
  159.6400  207.1560  156.0600 O   0  0  0  0  0  1  0  0  0  0  0  0
  162.7120  210.0120  156.0820 C   0  0  0  0  0  2  0  0  0  0  0  0
  162.8490  211.0960  157.1360 C   0  0  0  0  0  2  0  0  0  0  0  0
  164.1880  211.4590  157.2590 O   0  0  0  0  0  1  0  0  0  0  0  0
  1 13  1  0  0  0  0
  2 10  1  0  0  0  0
  3 16  1  0  0  0  0
  4 12  1  0  0  0  0
  5 11  1  0  0  0  0
  6  2  2  0  0  0  0
  7  8  1  0  0  0  0
  9  7  1  6  0  0  0
  9 14  1  0  0  0  0
 10  1  2  0  0  0  0
 10 18  1  0  0  0  0
 11  4  1  0  0  0  0
 11  7  2  0  0  0  0
 12  9  1  0  0  0  0
 12 15  2  0  0  0  0
 13 23  1  0  0  0  0
 14  2  1  0  0  0  0
 14  3  2  0  0  0  0
 15  6  1  0  0  0  0
 16 13  2  0  0  0  0
 16 25  1  0  0  0  0
 17 21  1  0  0  0  0
 18 22  1  0  0  0  0
 19 18  2  0  0  0  0
 19 20  1  0  0  0  0
 20 17  2  0  0  0  0
 22 21  2  0  0  0  0
 24 23  1  0  0  0  0
 25 26  1  0  0  0  0
 26 27  1  0  0  0  0
M  END
>  <MODEL>
5

>  <REMARK>
 VINA RESULT:      -4.7      5.983      9.134
  Name = 
  4 active torsions:
  status: ('A' for Active; 'I' for Inactive)
    1  A    between atoms: C_9  and  C_15
    2  A    between atoms: C_10  and  C_20
    3  A    between atoms: C_18  and  C_22
    4  A    between atoms: C_20  and  C_26
                            x       y       z     vdW  Elec       q    Type
                         _______ _______ _______ _____ _____    ______ ____

>  <TORSDO>
F 4

$$$$
=
 OpenBabel11052423053D

 27 30  0  0  1  0  0  0  0  0999 V2000
  160.8380  206.7090  149.4490 C   0  0  0  0  0  3  0  0  0  0  0  0
  160.9970  206.8540  151.9340 C   0  0  0  0  0  0  0  0  0  0  0  0
  161.9750  208.9760  151.1330 C   0  0  0  0  0  3  0  0  0  0  0  0
  160.4900  209.3250  155.6870 S   0  0  0  0  0  0  0  0  0  0  0  0
  159.8520  212.0360  155.3120 C   0  0  0  0  0  1  0  0  0  0  0  0
  161.1310  206.2030  153.2690 C   0  0  0  0  0  3  0  0  0  0  0  0
  160.2970  210.3730  153.4050 C   0  0  0  0  0  0  0  0  0  0  0  0
  160.0680  211.3530  152.3030 C   0  0  0  0  0  1  0  0  0  0  0  0
  160.6280  209.0230  153.1930 C   0  0  0  0  0  0  0  0  0  0  0  0
  160.9820  206.1060  150.8000 C   0  0  0  0  0  0  0  0  0  0  0  0
  160.1910  210.6970  154.7560 C   0  0  0  0  0  0  0  0  0  0  0  0
  160.7630  208.3130  154.3740 C   0  0  0  0  0  0  0  0  0  0  0  0
  161.3340  207.8780  149.0160 C   0  0  0  0  0  0  0  0  0  0  0  0
  160.8170  208.3640  151.8500 C   0  0  2  0  0  3  0  0  0  0  0  0
  161.0290  206.8790  154.4130 C   0  0  0  0  0  3  0  0  0  0  0  0
  162.2070  208.7550  149.8390 C   0  0  0  0  0  0  0  0  0  0  0  0
  161.2260  201.8560  150.8280 N   0  0  0  0  0  0  0  0  0  0  0  0
  161.0440  204.6220  150.8320 C   0  0  0  0  0  0  0  0  0  0  0  0
  161.6210  203.9450  151.9160 C   0  0  0  0  0  3  0  0  0  0  0  0
  161.6990  202.5510  151.8970 C   0  0  0  0  0  3  0  0  0  0  0  0
  160.6760  202.4870  149.7570 C   0  0  0  0  0  3  0  0  0  0  0  0
  160.5800  203.8800  149.7380 C   0  0  0  0  0  3  0  0  0  0  0  0
  161.1040  208.2210  147.5810 C   0  0  0  0  0  2  0  0  0  0  0  0
  160.9850  207.0530  146.8260 O   0  0  0  0  0  1  0  0  0  0  0  0
  163.3390  209.4900  149.1990 C   0  0  0  0  0  2  0  0  0  0  0  0
  163.0580  210.9820  149.1780 C   0  0  0  0  0  2  0  0  0  0  0  0
  162.7090  211.3710  147.8860 O   0  0  0  0  0  1  0  0  0  0  0  0
  1 10  1  0  0  0  0
  2  6  1  0  0  0  0
  6 15  2  0  0  0  0
  7 11  2  0  0  0  0
  8  7  1  0  0  0  0
  9  7  1  0  0  0  0
  9 12  2  0  0  0  0
 10 18  1  0  0  0  0
 10  2  2  0  0  0  0
 11  5  1  0  0  0  0
 11  4  1  0  0  0  0
 12 15  1  0  0  0  0
 12  4  1  0  0  0  0
 13  1  2  0  0  0  0
 13 16  1  0  0  0  0
 14  3  1  1  0  0  0
 14  2  1  0  0  0  0
 14  9  1  0  0  0  0
 16  3  2  0  0  0  0
 17 20  1  0  0  0  0
 18 19  1  0  0  0  0
 20 19  2  0  0  0  0
 21 17  2  0  0  0  0
 22 21  1  0  0  0  0
 22 18  2  0  0  0  0
 23 13  1  0  0  0  0
 24 23  1  0  0  0  0
 25 16  1  0  0  0  0
 26 25  1  0  0  0  0
 27 26  1  0  0  0  0
M  END
>  <MODEL>
6

>  <REMARK>
 VINA RESULT:      -4.5      1.159      1.788
  Name = 
  4 active torsions:
  status: ('A' for Active; 'I' for Inactive)
    1  A    between atoms: C_9  and  C_15
    2  A    between atoms: C_10  and  C_20
    3  A    between atoms: C_18  and  C_22
    4  A    between atoms: C_20  and  C_26
                            x       y       z     vdW  Elec       q    Type
                         _______ _______ _______ _____ _____    ______ ____

>  <TORSDO>
F 4

$$$$
