=
 OpenBabel11062408463D

 55 60  0  0  1  0  0  0  0  0999 V2000
  160.9620  213.9040  148.9520 N   0  0  0  0  0  0  0  0  0  0  0  0
  159.9590  213.1660  149.6980 C   0  0  0  0  0  2  0  0  0  0  0  0
  159.9400  213.6470  151.1420 C   0  0  0  0  0  2  0  0  0  0  0  0
  157.7280  214.4210  151.6110 O   0  0  0  0  0  1  0  0  0  0  0  0
  158.6120  213.3650  151.8540 C   0  0  1  0  0  0  0  0  0  0  0  0
  158.0170  212.1180  151.2110 C   0  0  0  0  0  1  0  0  0  0  0  0
  158.2790  211.5430  155.1680 C   0  0  2  0  0  3  0  0  0  0  0  0
  159.9990  212.8890  156.1640 O   0  0  0  0  0  1  0  0  0  0  0  0
  158.7990  213.1870  153.3980 C   0  0  1  0  0  0  0  0  0  0  0  0
  160.4290  211.4470  152.9210 O   0  0  0  0  0  1  0  0  0  0  0  0
  160.0890  212.4610  153.8250 C   0  0  2  0  0  3  0  0  0  0  0  0
  156.5900  213.1430  154.4270 O   0  0  0  0  0  1  0  0  0  0  0  0
  157.6450  211.7930  156.3920 O   0  0  0  0  0  1  0  0  0  0  0  0
  159.7730  211.8830  155.2150 C   0  0  2  0  0  0  0  0  0  0  0  0
  158.8140  214.4530  154.0010 O   0  0  0  0  0  1  0  0  0  0  0  0
  157.6690  212.3500  154.0170 C   0  0  2  0  0  3  0  0  0  0  0  0
  160.6000  210.6450  155.6150 C   0  0  1  0  0  3  0  0  0  0  0  0
  161.9650  210.9370  155.6960 O   0  0  0  0  0  1  0  0  0  0  0  0
  160.1150  210.0300  156.9220 C   0  0  0  0  0  2  0  0  0  0  0  0
  160.0910  208.6400  156.8100 O   0  0  0  0  0  1  0  0  0  0  0  0
  162.1020  213.0130  148.7690 C   0  0  0  0  0  2  0  0  0  0  0  0
  161.6300  211.5780  148.5870 C   0  0  0  0  0  2  0  0  0  0  0  0
  161.3220  211.0020  149.8470 O   0  0  0  0  0  0  0  0  0  0  0  0
  163.0120  209.9200  150.9540 O   0  0  0  0  0  0  0  0  0  0  0  0
  161.4030  208.5540  149.9570 N   0  0  0  0  0  2  0  0  0  0  0  0
  161.9480  209.8360  150.2860 C   0  0  0  0  0  0  0  0  0  0  0  0
  161.5080  205.6360  147.0170 N   0  0  0  0  0  0  0  0  0  0  0  0
  161.3750  207.8940  152.7310 C   0  0  0  0  0  3  0  0  0  0  0  0
  161.0850  202.5760  148.9970 C   0  0  0  0  0  3  0  0  0  0  0  0
  160.9800  207.5440  154.0260 C   0  0  0  0  0  3  0  0  0  0  0  0
  161.3930  205.5530  152.0990 C   0  0  0  0  0  0  0  0  0  0  0  0
  161.0080  205.2080  153.3990 C   0  0  0  0  0  3  0  0  0  0  0  0
  160.7940  206.2010  154.3580 C   0  0  0  0  0  3  0  0  0  0  0  0
  161.5700  206.9080  151.7510 C   0  0  0  0  0  0  0  0  0  0  0  0
  161.7480  206.5720  147.9690 C   0  0  0  0  0  3  0  0  0  0  0  0
  160.7930  202.0630  146.6390 C   0  0  0  0  0  0  0  0  0  0  0  0
  161.5540  204.8830  149.6920 C   0  0  0  0  0  0  0  0  0  0  0  0
  161.2750  204.3390  147.3370 C   0  0  0  0  0  0  0  0  0  0  0  0
  161.6930  204.4550  151.1290 C   0  0  0  0  0  2  0  0  0  0  0  0
  161.0190  203.4100  146.3250 C   0  0  0  0  0  3  0  0  0  0  0  0
  162.0310  207.3000  150.3620 C   0  0  1  0  0  3  0  0  0  0  0  0
  160.8310  201.6530  147.9790 C   0  0  0  0  0  3  0  0  0  0  0  0
  161.7530  206.2310  149.3280 C   0  0  0  0  0  0  0  0  0  0  0  0
  161.3050  203.9270  148.6880 C   0  0  0  0  0  0  0  0  0  0  0  0
  160.5160  201.0940  145.5670 C   0  0  0  0  0  0  0  0  0  0  0  0
  161.0010  199.7940  145.6550 O   0  0  0  0  0  1  0  0  0  0  0  0
  159.8410  201.4330  144.5590 O   0  0  0  0  0  0  0  0  0  0  0  0
  160.3930  214.1730  147.6410 C   0  0  0  0  0  2  0  0  0  0  0  0
  161.5160  214.3600  146.6370 C   0  0  0  0  0  2  0  0  0  0  0  0
  160.6370  212.2170  143.0600 C   0  0  0  0  0  3  0  0  0  0  0  0
  161.2170  213.6290  145.3760 C   0  0  0  0  0  0  0  0  0  0  0  0
  159.9280  213.3420  145.0450 N   0  0  0  0  0  0  0  0  0  0  0  0
  161.9650  212.5030  143.3820 C   0  0  0  0  0  3  0  0  0  0  0  0
  159.6200  212.6510  143.9140 C   0  0  0  0  0  3  0  0  0  0  0  0
  162.2620  213.2140  144.5460 C   0  0  0  0  0  3  0  0  0  0  0  0
  1  2  1  0  0  0  0
  2  3  1  0  0  0  0
  3  5  1  0  0  0  0
  4  5  1  0  0  0  0
  5  6  1  6  0  0  0
  5  9  1  0  0  0  0
  7 14  1  0  0  0  0
  7 13  1  1  0  0  0
  9 11  1  0  0  0  0
  9 15  1  1  0  0  0
  9 16  1  0  0  0  0
 11 10  1  6  0  0  0
 11 14  1  0  0  0  0
 14 17  1  0  0  0  0
 14  8  1  1  0  0  0
 16 12  1  1  0  0  0
 16  7  1  0  0  0  0
 17 18  1  1  0  0  0
 17 19  1  0  0  0  0
 20 19  1  0  0  0  0
 21  1  1  0  0  0  0
 22 21  1  0  0  0  0
 22 23  1  0  0  0  0
 23 26  1  0  0  0  0
 25 26  1  0  0  0  0
 26 24  2  0  0  0  0
 27 38  2  0  0  0  0
 27 35  1  0  0  0  0
 28 30  1  0  0  0  0
 30 33  2  0  0  0  0
 31 32  2  0  0  0  0
 32 33  1  0  0  0  0
 34 31  1  0  0  0  0
 34 28  2  0  0  0  0
 35 43  2  0  0  0  0
 36 42  1  0  0  0  0
 37 39  1  0  0  0  0
 38 44  1  0  0  0  0
 39 31  1  0  0  0  0
 40 36  2  0  0  0  0
 40 38  1  0  0  0  0
 41 25  1  6  0  0  0
 41 34  1  0  0  0  0
 42 29  2  0  0  0  0
 43 37  1  0  0  0  0
 43 41  1  0  0  0  0
 44 29  1  0  0  0  0
 44 37  2  0  0  0  0
 45 46  1  0  0  0  0
 45 36  1  0  0  0  0
 47 45  2  0  0  0  0
 48  1  1  0  0  0  0
 49 48  1  0  0  0  0
 50 53  2  0  0  0  0
 50 54  1  0  0  0  0
 51 49  1  0  0  0  0
 52 51  1  0  0  0  0
 53 55  1  0  0  0  0
 54 52  2  0  0  0  0
 55 51  2  0  0  0  0
M  END
>  <MODEL>
1

>  <REMARK>
 VINA RESULT:      -7.9      0.000      0.000
  Name = 
  15 active torsions:
  status: ('A' for Active; 'I' for Inactive)
    1  A    between atoms: O_4  and  C_37
    2  A    between atoms: O_4  and  C_40
    3  A    between atoms: C_6  and  C_20
    4  A    between atoms: C_8  and  C_22
    5  A    between atoms: C_8  and  N_43
    6  A    between atoms: C_10  and  C_32
    7  A    between atoms: C_11  and  C_29
    8  A    between atoms: N_19  and  C_45
    9  A    between atoms: C_20  and  C_22
   10  A    between atoms: C_27  and  C_54
   11  A    between atoms: C_29  and  C_38
   12  A    between atoms: C_35  and  C_37
   13  A    between atoms: C_35  and  N_43
   14  A    between atoms: N_43  and  C_51
   15  A    between atoms: C_51  and  C_54
                            x       y       z     vdW  Elec       q    Type
                         _______ _______ _______ _____ _____    ______ ____

>  <TORSDO>
F 15

$$$$
=
 OpenBabel11062408463D

 55 60  0  0  1  0  0  0  0  0999 V2000
  161.1990  213.5120  145.3230 N   0  0  0  0  0  0  0  0  0  0  0  0
  161.7860  214.0100  144.0920 C   0  0  0  0  0  2  0  0  0  0  0  0
  160.8260  213.7670  142.9340 C   0  0  0  0  0  2  0  0  0  0  0  0
  162.5630  212.2380  142.3340 O   0  0  0  0  0  1  0  0  0  0  0  0
  161.2390  212.5880  142.0460 C   0  0  1  0  0  0  0  0  0  0  0  0
  160.3610  211.4050  142.4370 C   0  0  0  0  0  1  0  0  0  0  0  0
  160.4290  211.8300  138.4150 C   0  0  2  0  0  3  0  0  0  0  0  0
  160.2960  214.1670  137.8810 O   0  0  0  0  0  1  0  0  0  0  0  0
  161.1090  212.9270  140.5230 C   0  0  1  0  0  0  0  0  0  0  0  0
  158.6940  212.8450  140.7910 O   0  0  0  0  0  1  0  0  0  0  0  0
  159.7330  213.4610  140.0830 C   0  0  2  0  0  3  0  0  0  0  0  0
  162.6830  211.5230  139.3000 O   0  0  0  0  0  1  0  0  0  0  0  0
  161.1450  211.7950  137.2130 O   0  0  0  0  0  1  0  0  0  0  0  0
  159.6490  213.1400  138.5810 C   0  0  2  0  0  0  0  0  0  0  0  0
  162.0610  213.9020  140.1930 O   0  0  0  0  0  1  0  0  0  0  0  0
  161.3350  211.6880  139.6420 C   0  0  2  0  0  3  0  0  0  0  0  0
  158.2210  212.9970  138.0190 C   0  0  1  0  0  3  0  0  0  0  0  0
  157.5310  211.9380  138.6190 O   0  0  0  0  0  1  0  0  0  0  0  0
  157.4210  214.2870  138.1500 C   0  0  0  0  0  2  0  0  0  0  0  0
  156.0850  213.9900  138.4210 O   0  0  0  0  0  1  0  0  0  0  0  0
  162.1480  213.7930  146.3930 C   0  0  0  0  0  2  0  0  0  0  0  0
  161.5900  213.3360  147.7320 C   0  0  0  0  0  2  0  0  0  0  0  0
  161.3240  211.9420  147.6990 O   0  0  0  0  0  0  0  0  0  0  0  0
  163.2490  210.8920  148.3640 O   0  0  0  0  0  0  0  0  0  0  0  0
  161.3080  210.3000  149.5190 N   0  0  0  0  0  2  0  0  0  0  0  0
  162.0100  211.0500  148.5230 C   0  0  0  0  0  0  0  0  0  0  0  0
  161.5390  206.4610  147.9760 N   0  0  0  0  0  0  0  0  0  0  0  0
  161.2640  210.7910  152.3290 C   0  0  0  0  0  3  0  0  0  0  0  0
  161.1820  204.4230  151.0070 C   0  0  0  0  0  3  0  0  0  0  0  0
  160.8630  210.9700  153.6560 C   0  0  0  0  0  3  0  0  0  0  0  0
  161.3600  208.3940  152.6750 C   0  0  0  0  0  0  0  0  0  0  0  0
  160.9690  208.5800  154.0060 C   0  0  0  0  0  3  0  0  0  0  0  0
  160.7130  209.8630  154.4930 C   0  0  0  0  0  3  0  0  0  0  0  0
  161.5020  209.5050  151.8190 C   0  0  0  0  0  0  0  0  0  0  0  0
  161.7390  207.7060  148.4800 C   0  0  0  0  0  3  0  0  0  0  0  0
  160.9360  203.0100  149.0450 C   0  0  0  0  0  0  0  0  0  0  0  0
  161.5730  206.8310  150.7310 C   0  0  0  0  0  0  0  0  0  0  0  0
  161.3410  205.3910  148.7840 C   0  0  0  0  0  0  0  0  0  0  0  0
  161.7060  207.0110  152.2200 C   0  0  0  0  0  2  0  0  0  0  0  0
  161.1260  204.1290  148.2230 C   0  0  0  0  0  3  0  0  0  0  0  0
  161.9690  209.3300  150.3890 C   0  0  1  0  0  3  0  0  0  0  0  0
  160.9690  203.1650  150.4380 C   0  0  0  0  0  3  0  0  0  0  0  0
  161.7370  207.9300  149.8620 C   0  0  0  0  0  0  0  0  0  0  0  0
  161.3650  205.5480  150.1880 C   0  0  0  0  0  0  0  0  0  0  0  0
  160.7020  201.6870  148.4450 C   0  0  0  0  0  0  0  0  0  0  0  0
  160.4940  200.5770  149.2540 O   0  0  0  0  0  1  0  0  0  0  0  0
  160.6930  201.5470  147.1920 O   0  0  0  0  0  0  0  0  0  0  0  0
  160.0060  214.3080  145.5670 C   0  0  0  0  0  2  0  0  0  0  0  0
  158.7990  213.3890  145.6390 C   0  0  0  0  0  2  0  0  0  0  0  0
  156.5260  214.1150  149.1710 C   0  0  0  0  0  3  0  0  0  0  0  0
  158.0070  213.6650  146.8690 C   0  0  0  0  0  0  0  0  0  0  0  0
  158.5150  213.3470  148.0910 N   0  0  0  0  0  0  0  0  0  0  0  0
  155.9890  214.4480  147.9260 C   0  0  0  0  0  3  0  0  0  0  0  0
  157.8070  213.5600  149.2340 C   0  0  0  0  0  3  0  0  0  0  0  0
  156.7310  214.2240  146.7650 C   0  0  0  0  0  3  0  0  0  0  0  0
  1 48  1  0  0  0  0
  1 21  1  0  0  0  0
  2  1  1  0  0  0  0
  3  2  1  0  0  0  0
  5  4  1  0  0  0  0
  5  6  1  1  0  0  0
  5  3  1  0  0  0  0
  7 13  1  6  0  0  0
  7 14  1  0  0  0  0
  7 16  1  0  0  0  0
  9 15  1  6  0  0  0
  9  5  1  0  0  0  0
 11  9  1  0  0  0  0
 11 10  1  1  0  0  0
 14  8  1  6  0  0  0
 14 11  1  0  0  0  0
 16 12  1  6  0  0  0
 16  9  1  0  0  0  0
 17 19  1  0  0  0  0
 17 14  1  0  0  0  0
 17 18  1  1  0  0  0
 19 20  1  0  0  0  0
 21 22  1  0  0  0  0
 23 22  1  0  0  0  0
 23 26  1  0  0  0  0
 24 26  2  0  0  0  0
 26 25  1  0  0  0  0
 27 35  2  0  0  0  0
 27 38  1  0  0  0  0
 28 30  1  0  0  0  0
 30 33  2  0  0  0  0
 31 32  2  0  0  0  0
 32 33  1  0  0  0  0
 34 28  2  0  0  0  0
 34 31  1  0  0  0  0
 35 43  1  0  0  0  0
 36 42  2  0  0  0  0
 37 39  1  0  0  0  0
 38 44  1  0  0  0  0
 39 31  1  0  0  0  0
 40 38  2  0  0  0  0
 40 36  1  0  0  0  0
 41 25  1  6  0  0  0
 41 34  1  0  0  0  0
 42 29  1  0  0  0  0
 43 41  1  0  0  0  0
 43 37  2  0  0  0  0
 44 37  1  0  0  0  0
 44 29  2  0  0  0  0
 45 36  1  0  0  0  0
 45 46  1  0  0  0  0
 47 45  2  0  0  0  0
 48 49  1  0  0  0  0
 49 51  1  0  0  0  0
 50 54  1  0  0  0  0
 51 52  1  0  0  0  0
 52 54  2  0  0  0  0
 53 50  2  0  0  0  0
 55 51  2  0  0  0  0
 55 53  1  0  0  0  0
M  END
>  <MODEL>
2

>  <REMARK>
 VINA RESULT:      -7.8      4.811      9.244
  Name = 
  15 active torsions:
  status: ('A' for Active; 'I' for Inactive)
    1  A    between atoms: O_4  and  C_37
    2  A    between atoms: O_4  and  C_40
    3  A    between atoms: C_6  and  C_20
    4  A    between atoms: C_8  and  C_22
    5  A    between atoms: C_8  and  N_43
    6  A    between atoms: C_10  and  C_32
    7  A    between atoms: C_11  and  C_29
    8  A    between atoms: N_19  and  C_45
    9  A    between atoms: C_20  and  C_22
   10  A    between atoms: C_27  and  C_54
   11  A    between atoms: C_29  and  C_38
   12  A    between atoms: C_35  and  C_37
   13  A    between atoms: C_35  and  N_43
   14  A    between atoms: N_43  and  C_51
   15  A    between atoms: C_51  and  C_54
                            x       y       z     vdW  Elec       q    Type
                         _______ _______ _______ _____ _____    ______ ____

>  <TORSDO>
F 15

$$$$
=
 OpenBabel11062408463D

 55 60  0  0  1  0  0  0  0  0999 V2000
  159.4840  213.5990  150.0040 N   0  0  0  0  0  0  0  0  0  0  0  0
  159.7210  214.2340  148.7200 C   0  0  0  0  0  2  0  0  0  0  0  0
  159.5620  213.2080  147.6060 C   0  0  0  0  0  2  0  0  0  0  0  0
  161.3880  214.4530  146.6960 O   0  0  0  0  0  1  0  0  0  0  0  0
  160.7150  213.2310  146.5960 C   0  0  1  0  0  0  0  0  0  0  0  0
  161.6940  212.1390  147.0110 C   0  0  0  0  0  1  0  0  0  0  0  0
  159.8100  214.3720  143.0900 C   0  0  2  0  0  3  0  0  0  0  0  0
  159.9370  212.1280  142.2480 O   0  0  0  0  0  1  0  0  0  0  0  0
  160.2130  213.0310  145.1270 C   0  0  1  0  0  0  0  0  0  0  0  0
  162.4880  213.4470  144.3770 O   0  0  0  0  0  1  0  0  0  0  0  0
  161.3140  212.7410  144.0900 C   0  0  2  0  0  3  0  0  0  0  0  0
  158.1340  214.2760  144.8620 O   0  0  0  0  0  1  0  0  0  0  0  0
  158.6480  214.3920  142.3090 O   0  0  0  0  0  1  0  0  0  0  0  0
  160.7140  213.1830  142.7440 C   0  0  2  0  0  0  0  0  0  0  0  0
  159.3160  211.9540  145.0970 O   0  0  0  0  0  1  0  0  0  0  0  0
  159.5080  214.2860  144.5890 C   0  0  2  0  0  3  0  0  0  0  0  0
  161.7410  213.5770  141.6640 C   0  0  1  0  0  3  0  0  0  0  0  0
  162.7100  214.4530  142.1650 O   0  0  0  0  0  1  0  0  0  0  0  0
  162.4070  212.3600  141.0350 C   0  0  0  0  0  2  0  0  0  0  0  0
  162.4330  212.4990  139.6470 O   0  0  0  0  0  1  0  0  0  0  0  0
  160.7030  213.7520  150.7890 C   0  0  0  0  0  2  0  0  0  0  0  0
  161.7550  212.7510  150.3380 C   0  0  0  0  0  2  0  0  0  0  0  0
  161.1920  211.4490  150.2720 O   0  0  0  0  0  0  0  0  0  0  0  0
  162.9190  210.5160  151.4560 O   0  0  0  0  0  0  0  0  0  0  0  0
  161.1990  209.0630  150.8380 N   0  0  0  0  0  2  0  0  0  0  0  0
  161.8090  210.3580  150.8840 C   0  0  0  0  0  0  0  0  0  0  0  0
  161.6360  205.8510  148.2570 N   0  0  0  0  0  0  0  0  0  0  0  0
  160.9280  208.7030  153.6550 C   0  0  0  0  0  3  0  0  0  0  0  0
  161.0940  203.0090  150.5140 C   0  0  0  0  0  3  0  0  0  0  0  0
  160.4210  208.4820  154.9390 C   0  0  0  0  0  3  0  0  0  0  0  0
  161.0510  206.3100  153.2870 C   0  0  0  0  0  0  0  0  0  0  0  0
  160.5540  206.0950  154.5770 C   0  0  0  0  0  3  0  0  0  0  0  0
  160.2320  207.1780  155.3980 C   0  0  0  0  0  3  0  0  0  0  0  0
  161.2330  207.6250  152.8100 C   0  0  0  0  0  0  0  0  0  0  0  0
  161.7670  206.8910  149.1190 C   0  0  0  0  0  3  0  0  0  0  0  0
  161.0320  202.2390  148.2100 C   0  0  0  0  0  0  0  0  0  0  0  0
  161.4490  205.3910  150.9920 C   0  0  0  0  0  0  0  0  0  0  0  0
  161.4010  204.5900  148.6950 C   0  0  0  0  0  0  0  0  0  0  0  0
  161.4630  205.1240  152.4730 C   0  0  0  0  0  2  0  0  0  0  0  0
  161.2590  203.5510  147.7720 C   0  0  0  0  0  3  0  0  0  0  0  0
  161.8130  207.8790  151.4340 C   0  0  1  0  0  3  0  0  0  0  0  0
  160.9540  201.9760  149.5850 C   0  0  0  0  0  3  0  0  0  0  0  0
  161.6540  206.6980  150.5020 C   0  0  0  0  0  0  0  0  0  0  0  0
  161.3130  204.3260  150.0800 C   0  0  0  0  0  0  0  0  0  0  0  0
  160.8760  201.1530  147.2300 C   0  0  0  0  0  0  0  0  0  0  0  0
  161.3770  199.8850  147.5030 O   0  0  0  0  0  1  0  0  0  0  0  0
  160.2900  201.3610  146.1340 O   0  0  0  0  0  0  0  0  0  0  0  0
  158.4340  214.3640  150.6590 C   0  0  0  0  0  2  0  0  0  0  0  0
  157.4030  213.4080  151.2310 C   0  0  0  0  0  2  0  0  0  0  0  0
  158.3390  212.5480  155.2990 C   0  0  0  0  0  3  0  0  0  0  0  0
  157.7180  213.0890  152.6500 C   0  0  0  0  0  0  0  0  0  0  0  0
  157.2150  213.8620  153.6500 N   0  0  0  0  0  0  0  0  0  0  0  0
  158.8650  211.7430  154.2860 C   0  0  0  0  0  3  0  0  0  0  0  0
  157.5050  213.6160  154.9570 C   0  0  0  0  0  3  0  0  0  0  0  0
  158.5550  212.0110  152.9520 C   0  0  0  0  0  3  0  0  0  0  0  0
  1 48  1  0  0  0  0
  1 21  1  0  0  0  0
  2  1  1  0  0  0  0
  3  2  1  0  0  0  0
  5  4  1  0  0  0  0
  5  6  1  1  0  0  0
  5  3  1  0  0  0  0
  7 13  1  6  0  0  0
  7 16  1  0  0  0  0
  9 15  1  6  0  0  0
  9  5  1  0  0  0  0
 11 10  1  1  0  0  0
 11  9  1  0  0  0  0
 14  8  1  6  0  0  0
 14  7  1  0  0  0  0
 14 11  1  0  0  0  0
 16 12  1  6  0  0  0
 16  9  1  0  0  0  0
 17 18  1  1  0  0  0
 17 14  1  0  0  0  0
 19 17  1  0  0  0  0
 20 19  1  0  0  0  0
 22 21  1  0  0  0  0
 23 22  1  0  0  0  0
 23 26  1  0  0  0  0
 25 26  1  0  0  0  0
 26 24  2  0  0  0  0
 27 38  2  0  0  0  0
 27 35  1  0  0  0  0
 28 30  1  0  0  0  0
 30 33  2  0  0  0  0
 31 32  2  0  0  0  0
 32 33  1  0  0  0  0
 34 31  1  0  0  0  0
 34 28  2  0  0  0  0
 35 43  2  0  0  0  0
 36 42  1  0  0  0  0
 37 39  1  0  0  0  0
 38 44  1  0  0  0  0
 39 31  1  0  0  0  0
 40 36  2  0  0  0  0
 40 38  1  0  0  0  0
 41 25  1  6  0  0  0
 41 34  1  0  0  0  0
 42 29  2  0  0  0  0
 43 37  1  0  0  0  0
 43 41  1  0  0  0  0
 44 29  1  0  0  0  0
 44 37  2  0  0  0  0
 45 46  1  0  0  0  0
 45 36  1  0  0  0  0
 47 45  2  0  0  0  0
 48 49  1  0  0  0  0
 49 51  1  0  0  0  0
 51 55  2  0  0  0  0
 51 52  1  0  0  0  0
 52 54  2  0  0  0  0
 53 50  2  0  0  0  0
 54 50  1  0  0  0  0
 55 53  1  0  0  0  0
M  END
>  <MODEL>
3

>  <REMARK>
 VINA RESULT:      -7.4      3.190      7.500
  Name = 
  15 active torsions:
  status: ('A' for Active; 'I' for Inactive)
    1  A    between atoms: O_4  and  C_37
    2  A    between atoms: O_4  and  C_40
    3  A    between atoms: C_6  and  C_20
    4  A    between atoms: C_8  and  C_22
    5  A    between atoms: C_8  and  N_43
    6  A    between atoms: C_10  and  C_32
    7  A    between atoms: C_11  and  C_29
    8  A    between atoms: N_19  and  C_45
    9  A    between atoms: C_20  and  C_22
   10  A    between atoms: C_27  and  C_54
   11  A    between atoms: C_29  and  C_38
   12  A    between atoms: C_35  and  C_37
   13  A    between atoms: C_35  and  N_43
   14  A    between atoms: N_43  and  C_51
   15  A    between atoms: C_51  and  C_54
                            x       y       z     vdW  Elec       q    Type
                         _______ _______ _______ _____ _____    ______ ____

>  <TORSDO>
F 15

$$$$
=
 OpenBabel11062408463D

 55 60  0  0  1  0  0  0  0  0999 V2000
  160.3610  213.6850  144.7260 N   0  0  0  0  0  0  0  0  0  0  0  0
  160.3720  214.2960  143.4090 C   0  0  0  0  0  2  0  0  0  0  0  0
  160.2910  213.2120  142.3430 C   0  0  0  0  0  2  0  0  0  0  0  0
  162.1140  214.3880  141.3410 O   0  0  0  0  0  1  0  0  0  0  0  0
  161.5570  213.1130  141.4850 C   0  0  1  0  0  0  0  0  0  0  0  0
  162.5580  212.2650  142.2610 C   0  0  0  0  0  1  0  0  0  0  0  0
  162.1070  210.7260  138.5850 C   0  0  2  0  0  3  0  0  0  0  0  0
  159.9240  211.1840  137.6990 O   0  0  0  0  0  1  0  0  0  0  0  0
  161.2620  212.5110  140.0700 C   0  0  1  0  0  0  0  0  0  0  0  0
  160.4020  210.5260  141.1800 O   0  0  0  0  0  1  0  0  0  0  0  0
  160.2630  211.3400  140.0490 C   0  0  2  0  0  3  0  0  0  0  0  0
  163.2130  212.9010  138.6620 O   0  0  0  0  0  1  0  0  0  0  0  0
  162.4670  210.8490  137.2370 O   0  0  0  0  0  1  0  0  0  0  0  0
  160.5930  210.5640  138.7620 C   0  0  2  0  0  0  0  0  0  0  0  0
  160.7410  213.5200  139.2480 O   0  0  0  0  0  1  0  0  0  0  0  0
  162.5310  211.9400  139.4180 C   0  0  2  0  0  3  0  0  0  0  0  0
  160.2040  209.0720  138.7760 C   0  0  1  0  0  3  0  0  0  0  0  0
  159.5830  208.6870  137.5830 O   0  0  0  0  0  1  0  0  0  0  0  0
  161.3980  208.1710  139.0630 C   0  0  0  0  0  2  0  0  0  0  0  0
  161.8410  207.5810  137.8780 O   0  0  0  0  0  1  0  0  0  0  0  0
  161.6890  213.8750  145.2970 C   0  0  0  0  0  2  0  0  0  0  0  0
  161.7030  213.4570  146.7600 C   0  0  0  0  0  2  0  0  0  0  0  0
  161.6270  212.0440  146.8640 O   0  0  0  0  0  0  0  0  0  0  0  0
  163.0980  211.8310  148.6080 O   0  0  0  0  0  0  0  0  0  0  0  0
  161.4890  210.1500  148.4150 N   0  0  0  0  0  2  0  0  0  0  0  0
  162.1040  211.3700  147.9880 C   0  0  0  0  0  0  0  0  0  0  0  0
  161.7500  206.0610  147.7920 N   0  0  0  0  0  0  0  0  0  0  0  0
  161.0580  211.2510  151.0100 C   0  0  0  0  0  3  0  0  0  0  0  0
  160.8500  204.7500  151.0990 C   0  0  0  0  0  3  0  0  0  0  0  0
  160.4760  211.7260  152.1890 C   0  0  0  0  0  3  0  0  0  0  0  0
  160.9810  208.9880  151.8770 C   0  0  0  0  0  0  0  0  0  0  0  0
  160.4080  209.4700  153.0590 C   0  0  0  0  0  3  0  0  0  0  0  0
  160.1480  210.8340  153.2130 C   0  0  0  0  0  3  0  0  0  0  0  0
  161.3020  209.8800  150.8340 C   0  0  0  0  0  0  0  0  0  0  0  0
  161.9360  207.3830  148.0390 C   0  0  0  0  0  3  0  0  0  0  0  0
  160.8230  202.9430  149.4750 C   0  0  0  0  0  0  0  0  0  0  0  0
  161.3980  207.0310  150.3730 C   0  0  0  0  0  0  0  0  0  0  0  0
  161.3820  205.2000  148.7710 C   0  0  0  0  0  0  0  0  0  0  0  0
  161.3200  207.5340  151.7900 C   0  0  0  0  0  2  0  0  0  0  0  0
  161.1880  203.8490  148.4700 C   0  0  0  0  0  3  0  0  0  0  0  0
  161.9650  209.3850  149.5640 C   0  0  1  0  0  3  0  0  0  0  0  0
  160.6590  203.4010  150.7890 C   0  0  0  0  0  3  0  0  0  0  0  0
  161.7420  207.9080  149.3230 C   0  0  0  0  0  0  0  0  0  0  0  0
  161.2080  205.6630  150.0950 C   0  0  0  0  0  0  0  0  0  0  0  0
  160.6140  201.5240  149.1460 C   0  0  0  0  0  0  0  0  0  0  0  0
  161.6130  200.7970  148.5090 O   0  0  0  0  0  0  0  0  0  0  0  0
  159.5270  200.9560  149.4340 O   0  0  0  0  0  1  0  0  0  0  0  0
  159.4180  214.4470  145.5300 C   0  0  0  0  0  2  0  0  0  0  0  0
  159.8830  214.4520  146.9750 C   0  0  0  0  0  2  0  0  0  0  0  0
  156.7000  213.2570  149.5450 C   0  0  0  0  0  3  0  0  0  0  0  0
  158.7840  214.0170  147.8790 C   0  0  0  0  0  0  0  0  0  0  0  0
  157.6000  213.5970  147.3570 N   0  0  0  0  0  0  0  0  0  0  0  0
  157.9090  213.6840  150.0990 C   0  0  0  0  0  3  0  0  0  0  0  0
  156.5630  213.2190  148.1550 C   0  0  0  0  0  3  0  0  0  0  0  0
  158.9610  214.0660  149.2640 C   0  0  0  0  0  3  0  0  0  0  0  0
  1 21  1  0  0  0  0
  1 48  1  0  0  0  0
  2  1  1  0  0  0  0
  3  2  1  0  0  0  0
  4  5  1  0  0  0  0
  5  6  1  1  0  0  0
  5  3  1  0  0  0  0
  7 13  1  6  0  0  0
  7 14  1  0  0  0  0
  7 16  1  0  0  0  0
  9 15  1  6  0  0  0
  9  5  1  0  0  0  0
 11  9  1  0  0  0  0
 11 10  1  1  0  0  0
 14  8  1  6  0  0  0
 14 17  1  0  0  0  0
 14 11  1  0  0  0  0
 16 12  1  6  0  0  0
 16  9  1  0  0  0  0
 17 18  1  6  0  0  0
 17 19  1  0  0  0  0
 20 19  1  0  0  0  0
 21 22  1  0  0  0  0
 22 23  1  0  0  0  0
 23 26  1  0  0  0  0
 26 25  1  0  0  0  0
 26 24  2  0  0  0  0
 27 35  2  0  0  0  0
 27 38  1  0  0  0  0
 28 30  1  0  0  0  0
 30 33  2  0  0  0  0
 31 32  2  0  0  0  0
 32 33  1  0  0  0  0
 34 28  2  0  0  0  0
 34 31  1  0  0  0  0
 35 43  1  0  0  0  0
 36 42  2  0  0  0  0
 37 39  1  0  0  0  0
 38 44  1  0  0  0  0
 39 31  1  0  0  0  0
 40 38  2  0  0  0  0
 40 36  1  0  0  0  0
 41 25  1  6  0  0  0
 41 34  1  0  0  0  0
 42 29  1  0  0  0  0
 43 41  1  0  0  0  0
 43 37  2  0  0  0  0
 44 37  1  0  0  0  0
 44 29  2  0  0  0  0
 45 47  1  0  0  0  0
 45 36  1  0  0  0  0
 46 45  2  0  0  0  0
 48 49  1  0  0  0  0
 49 51  1  0  0  0  0
 50 53  1  0  0  0  0
 51 55  1  0  0  0  0
 52 51  2  0  0  0  0
 52 54  1  0  0  0  0
 54 50  2  0  0  0  0
 55 53  2  0  0  0  0
M  END
>  <MODEL>
4

>  <REMARK>
 VINA RESULT:      -6.9      4.601      9.373
  Name = 
  15 active torsions:
  status: ('A' for Active; 'I' for Inactive)
    1  A    between atoms: O_4  and  C_37
    2  A    between atoms: O_4  and  C_40
    3  A    between atoms: C_6  and  C_20
    4  A    between atoms: C_8  and  C_22
    5  A    between atoms: C_8  and  N_43
    6  A    between atoms: C_10  and  C_32
    7  A    between atoms: C_11  and  C_29
    8  A    between atoms: N_19  and  C_45
    9  A    between atoms: C_20  and  C_22
   10  A    between atoms: C_27  and  C_54
   11  A    between atoms: C_29  and  C_38
   12  A    between atoms: C_35  and  C_37
   13  A    between atoms: C_35  and  N_43
   14  A    between atoms: N_43  and  C_51
   15  A    between atoms: C_51  and  C_54
                            x       y       z     vdW  Elec       q    Type
                         _______ _______ _______ _____ _____    ______ ____

>  <TORSDO>
F 15

$$$$
=
 OpenBabel11062408463D

 55 60  0  0  1  0  0  0  0  0999 V2000
  162.2520  208.6360  149.7770 N   0  0  0  0  0  0  0  0  0  0  0  0
  161.6450  208.0160  148.6130 C   0  0  0  0  0  2  0  0  0  0  0  0
  161.2700  206.5760  148.9380 C   0  0  0  0  0  2  0  0  0  0  0  0
  160.0140  205.8020  147.0580 O   0  0  0  0  0  1  0  0  0  0  0  0
  161.2470  205.6660  147.7050 C   0  0  1  0  0  0  0  0  0  0  0  0
  162.3190  206.1780  146.7510 C   0  0  0  0  0  1  0  0  0  0  0  0
  160.1490  202.1440  148.6000 C   0  0  2  0  0  3  0  0  0  0  0  0
  162.3010  201.2490  148.0270 O   0  0  0  0  0  1  0  0  0  0  0  0
  161.4750  204.1640  148.0790 C   0  0  1  0  0  0  0  0  0  0  0  0
  160.6340  203.5690  145.8770 O   0  0  0  0  0  1  0  0  0  0  0  0
  161.5260  203.1890  146.8870 C   0  0  2  0  0  3  0  0  0  0  0  0
  160.6080  203.8050  150.3290 O   0  0  0  0  0  1  0  0  0  0  0  0
  160.3040  201.2930  149.7010 O   0  0  0  0  0  1  0  0  0  0  0  0
  161.1450  201.8220  147.4810 C   0  0  2  0  0  0  0  0  0  0  0  0
  162.6920  204.0470  148.7670 O   0  0  0  0  0  1  0  0  0  0  0  0
  160.3440  203.6190  148.9670 C   0  0  2  0  0  3  0  0  0  0  0  0
  160.5340  200.8200  146.4810 C   0  0  1  0  0  3  0  0  0  0  0  0
  160.4700  201.3500  145.1880 O   0  0  0  0  0  1  0  0  0  0  0  0
  161.2820  199.4930  146.4700 C   0  0  0  0  0  2  0  0  0  0  0  0
  161.0420  198.8250  145.2680 O   0  0  0  0  0  1  0  0  0  0  0  0
  161.9200  210.0550  149.7280 C   0  0  0  0  0  2  0  0  0  0  0  0
  162.3840  210.6630  148.4130 C   0  0  0  0  0  2  0  0  0  0  0  0
  162.7650  212.0170  148.6090 O   0  0  0  0  0  0  0  0  0  0  0  0
  162.1430  214.2080  148.3540 O   0  0  0  0  0  0  0  0  0  0  0  0
  160.4920  212.7600  149.1480 N   0  0  0  0  0  2  0  0  0  0  0  0
  161.8160  213.0370  148.6800 C   0  0  0  0  0  0  0  0  0  0  0  0
  159.0300  213.2990  152.9890 N   0  0  0  0  0  0  0  0  0  0  0  0
  158.9190  213.3550  146.8440 C   0  0  0  0  0  3  0  0  0  0  0  0
  155.5170  214.1280  152.3330 C   0  0  0  0  0  3  0  0  0  0  0  0
  158.0200  213.2850  145.7760 C   0  0  0  0  0  3  0  0  0  0  0  0
  157.1110  213.9850  148.3310 C   0  0  0  0  0  0  0  0  0  0  0  0
  156.2180  213.9240  147.2560 C   0  0  0  0  0  3  0  0  0  0  0  0
  156.6690  213.5670  145.9830 C   0  0  0  0  0  3  0  0  0  0  0  0
  158.4750  213.6890  148.1330 C   0  0  0  0  0  0  0  0  0  0  0  0
  159.5890  213.3850  151.7550 C   0  0  0  0  0  3  0  0  0  0  0  0
  155.8110  213.6510  154.6980 C   0  0  0  0  0  0  0  0  0  0  0  0
  157.4380  213.9750  150.8130 C   0  0  0  0  0  0  0  0  0  0  0  0
  157.7090  213.5210  153.1880 C   0  0  0  0  0  0  0  0  0  0  0  0
  156.6010  214.4530  149.6570 C   0  0  0  0  0  2  0  0  0  0  0  0
  157.1720  213.4080  154.4730 C   0  0  0  0  0  3  0  0  0  0  0  0
  159.4670  213.7930  149.2730 C   0  0  1  0  0  3  0  0  0  0  0  0
  154.9890  214.0140  153.6220 C   0  0  0  0  0  3  0  0  0  0  0  0
  158.8100  213.6990  150.6330 C   0  0  0  0  0  0  0  0  0  0  0  0
  156.8780  213.8780  152.1020 C   0  0  0  0  0  0  0  0  0  0  0  0
  155.2540  213.5220  156.0540 C   0  0  0  0  0  0  0  0  0  0  0  0
  155.8810  212.7140  156.9950 O   0  0  0  0  0  1  0  0  0  0  0  0
  154.2030  214.1390  156.3740 O   0  0  0  0  0  0  0  0  0  0  0  0
  161.5940  208.0660  150.9430 C   0  0  0  0  0  2  0  0  0  0  0  0
  160.9150  209.1750  151.7260 C   0  0  0  0  0  2  0  0  0  0  0  0
  161.5950  208.6450  155.8990 C   0  0  0  0  0  3  0  0  0  0  0  0
  161.1300  208.9900  153.1860 C   0  0  0  0  0  0  0  0  0  0  0  0
  161.7180  209.9760  153.9180 N   0  0  0  0  0  0  0  0  0  0  0  0
  160.9900  207.6220  155.1650 C   0  0  0  0  0  3  0  0  0  0  0  0
  161.9550  209.8290  155.2510 C   0  0  0  0  0  3  0  0  0  0  0  0
  160.7540  207.7920  153.8000 C   0  0  0  0  0  3  0  0  0  0  0  0
  1 48  1  0  0  0  0
  2  3  1  0  0  0  0
  2  1  1  0  0  0  0
  4  5  1  0  0  0  0
  5  6  1  6  0  0  0
  5  9  1  0  0  0  0
  5  3  1  0  0  0  0
  7 16  1  0  0  0  0
  7 13  1  1  0  0  0
  9 15  1  1  0  0  0
  9 16  1  0  0  0  0
 11 10  1  6  0  0  0
 11 14  1  0  0  0  0
 11  9  1  0  0  0  0
 14  8  1  1  0  0  0
 14  7  1  0  0  0  0
 16 12  1  1  0  0  0
 17 18  1  6  0  0  0
 17 14  1  0  0  0  0
 19 17  1  0  0  0  0
 20 19  1  0  0  0  0
 21  1  1  0  0  0  0
 22 23  1  0  0  0  0
 22 21  1  0  0  0  0
 23 26  1  0  0  0  0
 24 26  2  0  0  0  0
 26 25  1  0  0  0  0
 27 38  1  0  0  0  0
 28 34  1  0  0  0  0
 29 42  1  0  0  0  0
 30 33  1  0  0  0  0
 30 28  2  0  0  0  0
 31 39  1  0  0  0  0
 32 31  1  0  0  0  0
 33 32  2  0  0  0  0
 34 31  2  0  0  0  0
 34 41  1  0  0  0  0
 35 27  2  0  0  0  0
 36 45  1  0  0  0  0
 37 44  1  0  0  0  0
 38 40  2  0  0  0  0
 39 37  1  0  0  0  0
 40 36  1  0  0  0  0
 41 25  1  6  0  0  0
 41 43  1  0  0  0  0
 42 36  2  0  0  0  0
 43 37  2  0  0  0  0
 43 35  1  0  0  0  0
 44 29  2  0  0  0  0
 44 38  1  0  0  0  0
 45 47  2  0  0  0  0
 45 46  1  0  0  0  0
 48 49  1  0  0  0  0
 49 51  1  0  0  0  0
 51 55  2  0  0  0  0
 51 52  1  0  0  0  0
 52 54  2  0  0  0  0
 53 50  2  0  0  0  0
 54 50  1  0  0  0  0
 55 53  1  0  0  0  0
M  END
>  <MODEL>
5

>  <REMARK>
 VINA RESULT:      -5.6      2.657     11.058
  Name = 
  15 active torsions:
  status: ('A' for Active; 'I' for Inactive)
    1  A    between atoms: O_4  and  C_37
    2  A    between atoms: O_4  and  C_40
    3  A    between atoms: C_6  and  C_20
    4  A    between atoms: C_8  and  C_22
    5  A    between atoms: C_8  and  N_43
    6  A    between atoms: C_10  and  C_32
    7  A    between atoms: C_11  and  C_29
    8  A    between atoms: N_19  and  C_45
    9  A    between atoms: C_20  and  C_22
   10  A    between atoms: C_27  and  C_54
   11  A    between atoms: C_29  and  C_38
   12  A    between atoms: C_35  and  C_37
   13  A    between atoms: C_35  and  N_43
   14  A    between atoms: N_43  and  C_51
   15  A    between atoms: C_51  and  C_54
                            x       y       z     vdW  Elec       q    Type
                         _______ _______ _______ _____ _____    ______ ____

>  <TORSDO>
F 15

$$$$
=
 OpenBabel11062408463D

 55 60  0  0  1  0  0  0  0  0999 V2000
  161.1800  212.9610  150.1720 N   0  0  0  0  0  0  0  0  0  0  0  0
  161.0320  212.6180  151.5750 C   0  0  0  0  0  2  0  0  0  0  0  0
  159.6510  213.0370  152.0600 C   0  0  0  0  0  2  0  0  0  0  0  0
  158.4380  211.0370  152.5490 O   0  0  0  0  0  1  0  0  0  0  0  0
  159.0900  212.1180  153.1510 C   0  0  1  0  0  0  0  0  0  0  0  0
  160.2810  211.5590  153.9200 C   0  0  0  0  0  1  0  0  0  0  0  0
  155.6650  212.9620  154.5550 C   0  0  2  0  0  3  0  0  0  0  0  0
  156.6320  213.9220  156.5310 O   0  0  0  0  0  1  0  0  0  0  0  0
  158.0920  212.8680  154.0950 C   0  0  1  0  0  0  0  0  0  0  0  0
  157.7530  210.7690  155.2740 O   0  0  0  0  0  1  0  0  0  0  0  0
  157.7900  212.1600  155.4290 C   0  0  2  0  0  3  0  0  0  0  0  0
  156.6270  214.2390  152.7110 O   0  0  0  0  0  1  0  0  0  0  0  0
  154.8630  214.1070  154.6260 O   0  0  0  0  0  1  0  0  0  0  0  0
  156.4210  212.7080  155.8650 C   0  0  2  0  0  0  0  0  0  0  0  0
  158.6190  214.1310  154.4020 O   0  0  0  0  0  1  0  0  0  0  0  0
  156.7130  213.0470  153.4410 C   0  0  2  0  0  3  0  0  0  0  0  0
  155.6070  211.7820  156.7910 C   0  0  1  0  0  3  0  0  0  0  0  0
  154.4470  212.4080  157.2610 O   0  0  0  0  0  1  0  0  0  0  0  0
  155.2570  210.4620  156.1180 C   0  0  0  0  0  2  0  0  0  0  0  0
  153.9540  210.0920  156.4500 O   0  0  0  0  0  1  0  0  0  0  0  0
  160.9140  211.7500  149.4050 C   0  0  0  0  0  2  0  0  0  0  0  0
  161.7950  211.7020  148.1660 C   0  0  0  0  0  2  0  0  0  0  0  0
  161.7540  210.4060  147.5880 O   0  0  0  0  0  0  0  0  0  0  0  0
  163.6010  209.2240  148.2560 O   0  0  0  0  0  0  0  0  0  0  0  0
  161.5330  208.2770  148.7850 N   0  0  0  0  0  2  0  0  0  0  0  0
  162.3450  209.3100  148.2160 C   0  0  0  0  0  0  0  0  0  0  0  0
  161.6920  204.9090  146.3760 N   0  0  0  0  0  0  0  0  0  0  0  0
  161.3370  208.0870  151.6240 C   0  0  0  0  0  3  0  0  0  0  0  0
  161.0620  202.2320  148.8050 C   0  0  0  0  0  3  0  0  0  0  0  0
  160.8630  207.9670  152.9340 C   0  0  0  0  0  3  0  0  0  0  0  0
  161.3080  205.6740  151.3870 C   0  0  0  0  0  0  0  0  0  0  0  0
  160.8440  205.5600  152.7020 C   0  0  0  0  0  3  0  0  0  0  0  0
  160.6140  206.7030  153.4720 C   0  0  0  0  0  3  0  0  0  0  0  0
  161.5500  206.9480  150.8320 C   0  0  0  0  0  0  0  0  0  0  0  0
  161.9140  205.9850  147.1730 C   0  0  0  0  0  3  0  0  0  0  0  0
  160.8760  201.3430  146.5510 C   0  0  0  0  0  0  0  0  0  0  0  0
  161.5720  204.6100  149.1370 C   0  0  0  0  0  0  0  0  0  0  0  0
  161.3990  203.6900  146.8910 C   0  0  0  0  0  0  0  0  0  0  0  0
  161.6210  204.4230  150.6300 C   0  0  0  0  0  2  0  0  0  0  0  0
  161.1640  202.6130  146.0330 C   0  0  0  0  0  3  0  0  0  0  0  0
  162.0960  207.0920  149.4270 C   0  0  1  0  0  3  0  0  0  0  0  0
  160.8300  201.1600  147.9400 C   0  0  0  0  0  3  0  0  0  0  0  0
  161.8370  205.8740  148.5680 C   0  0  0  0  0  0  0  0  0  0  0  0
  161.3430  203.5070  148.2910 C   0  0  0  0  0  0  0  0  0  0  0  0
  160.6230  200.2160  145.6390 C   0  0  0  0  0  0  0  0  0  0  0  0
  161.0450  198.9350  145.9730 O   0  0  0  0  0  1  0  0  0  0  0  0
  160.0260  200.4030  144.5450 O   0  0  0  0  0  0  0  0  0  0  0  0
  160.1310  213.9210  149.8650 C   0  0  0  0  0  2  0  0  0  0  0  0
  160.2080  214.2910  148.3950 C   0  0  0  0  0  2  0  0  0  0  0  0
  156.6890  213.0960  146.3090 C   0  0  0  0  0  3  0  0  0  0  0  0
  158.9730  213.8610  147.6840 C   0  0  0  0  0  0  0  0  0  0  0  0
  159.0670  213.1400  146.5330 N   0  0  0  0  0  0  0  0  0  0  0  0
  156.5720  213.8350  147.4890 C   0  0  0  0  0  3  0  0  0  0  0  0
  157.9600  212.7540  145.8420 C   0  0  0  0  0  3  0  0  0  0  0  0
  157.7190  214.2210  148.1840 C   0  0  0  0  0  3  0  0  0  0  0  0
  1  2  1  0  0  0  0
  2  3  1  0  0  0  0
  3  5  1  0  0  0  0
  4  5  1  0  0  0  0
  5  6  1  1  0  0  0
  5  9  1  0  0  0  0
  7 13  1  1  0  0  0
  7 14  1  0  0  0  0
  9 15  1  1  0  0  0
  9 11  1  0  0  0  0
 11 10  1  6  0  0  0
 11 14  1  0  0  0  0
 14  8  1  1  0  0  0
 14 17  1  0  0  0  0
 16 12  1  1  0  0  0
 16  9  1  0  0  0  0
 16  7  1  0  0  0  0
 17 18  1  6  0  0  0
 19 20  1  0  0  0  0
 19 17  1  0  0  0  0
 21  1  1  0  0  0  0
 22 21  1  0  0  0  0
 23 22  1  0  0  0  0
 23 26  1  0  0  0  0
 26 24  2  0  0  0  0
 26 25  1  0  0  0  0
 27 38  2  0  0  0  0
 27 35  1  0  0  0  0
 28 30  1  0  0  0  0
 30 33  2  0  0  0  0
 31 32  2  0  0  0  0
 32 33  1  0  0  0  0
 34 31  1  0  0  0  0
 34 28  2  0  0  0  0
 35 43  2  0  0  0  0
 36 42  1  0  0  0  0
 37 39  1  0  0  0  0
 38 44  1  0  0  0  0
 39 31  1  0  0  0  0
 40 36  2  0  0  0  0
 40 38  1  0  0  0  0
 41 25  1  6  0  0  0
 41 34  1  0  0  0  0
 42 29  2  0  0  0  0
 43 37  1  0  0  0  0
 43 41  1  0  0  0  0
 44 29  1  0  0  0  0
 44 37  2  0  0  0  0
 45 46  1  0  0  0  0
 45 36  1  0  0  0  0
 47 45  2  0  0  0  0
 48  1  1  0  0  0  0
 49 48  1  0  0  0  0
 50 53  1  0  0  0  0
 51 55  1  0  0  0  0
 51 49  1  0  0  0  0
 52 51  2  0  0  0  0
 53 55  2  0  0  0  0
 54 50  2  0  0  0  0
 54 52  1  0  0  0  0
M  END
>  <MODEL>
6

>  <REMARK>
 VINA RESULT:      -5.4      1.880      2.853
  Name = 
  15 active torsions:
  status: ('A' for Active; 'I' for Inactive)
    1  A    between atoms: O_4  and  C_37
    2  A    between atoms: O_4  and  C_40
    3  A    between atoms: C_6  and  C_20
    4  A    between atoms: C_8  and  C_22
    5  A    between atoms: C_8  and  N_43
    6  A    between atoms: C_10  and  C_32
    7  A    between atoms: C_11  and  C_29
    8  A    between atoms: N_19  and  C_45
    9  A    between atoms: C_20  and  C_22
   10  A    between atoms: C_27  and  C_54
   11  A    between atoms: C_29  and  C_38
   12  A    between atoms: C_35  and  C_37
   13  A    between atoms: C_35  and  N_43
   14  A    between atoms: N_43  and  C_51
   15  A    between atoms: C_51  and  C_54
                            x       y       z     vdW  Elec       q    Type
                         _______ _______ _______ _____ _____    ______ ____

>  <TORSDO>
F 15

$$$$
=
 OpenBabel11062408463D

 55 60  0  0  1  0  0  0  0  0999 V2000
  161.6540  207.7390  149.6370 N   0  0  0  0  0  0  0  0  0  0  0  0
  162.6160  207.5220  150.7030 C   0  0  0  0  0  2  0  0  0  0  0  0
  162.2430  208.3730  151.9090 C   0  0  0  0  0  2  0  0  0  0  0  0
  160.1090  207.2980  151.9790 O   0  0  0  0  0  1  0  0  0  0  0  0
  161.1650  207.7320  152.7890 C   0  0  1  0  0  0  0  0  0  0  0  0
  161.7860  206.4940  153.4260 C   0  0  0  0  0  1  0  0  0  0  0  0
  161.1410  210.9600  154.7870 C   0  0  2  0  0  3  0  0  0  0  0  0
  158.8590  210.6190  155.4480 O   0  0  0  0  0  1  0  0  0  0  0  0
  160.6190  208.7260  153.8670 C   0  0  1  0  0  0  0  0  0  0  0  0
  159.8840  210.1680  152.0530 O   0  0  0  0  0  1  0  0  0  0  0  0
  159.5880  209.7500  153.3560 C   0  0  2  0  0  3  0  0  0  0  0  0
  162.3220  208.9810  155.5920 O   0  0  0  0  0  1  0  0  0  0  0  0
  161.2770  211.3060  156.1370 O   0  0  0  0  0  1  0  0  0  0  0  0
  159.6730  210.9220  154.3480 C   0  0  2  0  0  0  0  0  0  0  0  0
  160.0040  207.9910  154.8920 O   0  0  0  0  0  1  0  0  0  0  0  0
  161.7400  209.5860  154.4710 C   0  0  2  0  0  3  0  0  0  0  0  0
  159.2380  212.2910  153.7870 C   0  0  1  0  0  3  0  0  0  0  0  0
  158.0000  212.2170  153.1400 O   0  0  0  0  0  1  0  0  0  0  0  0
  159.2060  213.3680  154.8630 C   0  0  0  0  0  2  0  0  0  0  0  0
  157.8880  213.7540  155.1080 O   0  0  0  0  0  1  0  0  0  0  0  0
  161.6620  209.1650  149.3370 C   0  0  0  0  0  2  0  0  0  0  0  0
  162.9260  209.5410  148.5780 C   0  0  0  0  0  2  0  0  0  0  0  0
  163.0790  210.9520  148.5540 O   0  0  0  0  0  0  0  0  0  0  0  0
  161.0990  211.2780  147.4470 O   0  0  0  0  0  0  0  0  0  0  0  0
  162.4700  213.1550  147.6680 N   0  0  0  0  0  2  0  0  0  0  0  0
  162.1720  211.7720  147.8840 C   0  0  0  0  0  0  0  0  0  0  0  0
  159.0100  214.1640  149.7140 N   0  0  0  0  0  0  0  0  0  0  0  0
  162.5790  213.1300  144.8180 C   0  0  0  0  0  3  0  0  0  0  0  0
  156.5770  214.4070  146.9780 C   0  0  0  0  0  3  0  0  0  0  0  0
  162.4920  212.7590  143.4730 C   0  0  0  0  0  3  0  0  0  0  0  0
  160.2410  213.7720  144.7960 C   0  0  0  0  0  0  0  0  0  0  0  0
  160.1630  213.4090  143.4470 C   0  0  0  0  0  3  0  0  0  0  0  0
  161.2830  212.8960  142.7880 C   0  0  0  0  0  3  0  0  0  0  0  0
  161.4550  213.6240  145.4980 C   0  0  0  0  0  0  0  0  0  0  0  0
  160.1930  214.1050  149.0520 C   0  0  0  0  0  3  0  0  0  0  0  0
  155.4050  214.3930  149.1070 C   0  0  0  0  0  0  0  0  0  0  0  0
  159.0260  214.2390  146.9350 C   0  0  0  0  0  0  0  0  0  0  0  0
  157.8300  214.2460  149.0530 C   0  0  0  0  0  0  0  0  0  0  0  0
  159.0420  214.3960  145.4380 C   0  0  0  0  0  2  0  0  0  0  0  0
  156.6340  214.2920  149.7740 C   0  0  0  0  0  3  0  0  0  0  0  0
  161.5730  214.0540  146.9460 C   0  0  1  0  0  3  0  0  0  0  0  0
  155.3860  214.4530  147.7060 C   0  0  0  0  0  3  0  0  0  0  0  0
  160.2350  214.1150  147.6510 C   0  0  0  0  0  0  0  0  0  0  0  0
  157.8090  214.2980  147.6410 C   0  0  0  0  0  0  0  0  0  0  0  0
  154.1510  214.4330  149.8750 C   0  0  0  0  0  0  0  0  0  0  0  0
  152.9260  214.4530  149.2170 O   0  0  0  0  0  0  0  0  0  0  0  0
  154.1740  214.4520  151.1340 O   0  0  0  0  0  1  0  0  0  0  0  0
  162.1610  207.0360  148.4690 C   0  0  0  0  0  2  0  0  0  0  0  0
  161.0320  206.2450  147.8330 C   0  0  0  0  0  2  0  0  0  0  0  0
  160.7990  202.3840  149.6210 C   0  0  0  0  0  3  0  0  0  0  0  0
  160.9340  204.8920  148.4430 C   0  0  0  0  0  0  0  0  0  0  0  0
  160.5480  204.7570  149.7410 N   0  0  0  0  0  0  0  0  0  0  0  0
  161.1960  202.5020  148.2870 C   0  0  0  0  0  3  0  0  0  0  0  0
  160.4740  203.5370  150.3400 C   0  0  0  0  0  3  0  0  0  0  0  0
  161.2650  203.7620  147.6900 C   0  0  0  0  0  3  0  0  0  0  0  0
  1  2  1  0  0  0  0
  2  3  1  0  0  0  0
  3  5  1  0  0  0  0
  4  5  1  0  0  0  0
  5  6  1  1  0  0  0
  5  9  1  0  0  0  0
  7 13  1  1  0  0  0
  9 16  1  0  0  0  0
  9 15  1  1  0  0  0
 11 10  1  6  0  0  0
 11  9  1  0  0  0  0
 11 14  1  0  0  0  0
 14  7  1  0  0  0  0
 14  8  1  1  0  0  0
 16  7  1  0  0  0  0
 16 12  1  1  0  0  0
 17 18  1  1  0  0  0
 17 14  1  0  0  0  0
 17 19  1  0  0  0  0
 19 20  1  0  0  0  0
 21  1  1  0  0  0  0
 22 21  1  0  0  0  0
 23 22  1  0  0  0  0
 24 26  2  0  0  0  0
 25 26  1  0  0  0  0
 26 23  1  0  0  0  0
 28 34  1  0  0  0  0
 29 44  2  0  0  0  0
 29 42  1  0  0  0  0
 30 28  2  0  0  0  0
 31 39  1  0  0  0  0
 31 34  2  0  0  0  0
 32 31  1  0  0  0  0
 33 32  2  0  0  0  0
 33 30  1  0  0  0  0
 34 41  1  0  0  0  0
 35 27  2  0  0  0  0
 36 40  1  0  0  0  0
 36 45  1  0  0  0  0
 37 44  1  0  0  0  0
 37 43  2  0  0  0  0
 38 27  1  0  0  0  0
 38 40  2  0  0  0  0
 39 37  1  0  0  0  0
 41 43  1  0  0  0  0
 41 25  1  1  0  0  0
 42 36  2  0  0  0  0
 43 35  1  0  0  0  0
 44 38  1  0  0  0  0
 45 47  1  0  0  0  0
 46 45  2  0  0  0  0
 48  1  1  0  0  0  0
 49 51  1  0  0  0  0
 49 48  1  0  0  0  0
 50 54  1  0  0  0  0
 51 52  1  0  0  0  0
 52 54  2  0  0  0  0
 53 50  2  0  0  0  0
 55 53  1  0  0  0  0
 55 51  2  0  0  0  0
M  END
>  <MODEL>
7

>  <REMARK>
 VINA RESULT:      -5.3      2.462      8.944
  Name = 
  15 active torsions:
  status: ('A' for Active; 'I' for Inactive)
    1  A    between atoms: O_4  and  C_37
    2  A    between atoms: O_4  and  C_40
    3  A    between atoms: C_6  and  C_20
    4  A    between atoms: C_8  and  C_22
    5  A    between atoms: C_8  and  N_43
    6  A    between atoms: C_10  and  C_32
    7  A    between atoms: C_11  and  C_29
    8  A    between atoms: N_19  and  C_45
    9  A    between atoms: C_20  and  C_22
   10  A    between atoms: C_27  and  C_54
   11  A    between atoms: C_29  and  C_38
   12  A    between atoms: C_35  and  C_37
   13  A    between atoms: C_35  and  N_43
   14  A    between atoms: N_43  and  C_51
   15  A    between atoms: C_51  and  C_54
                            x       y       z     vdW  Elec       q    Type
                         _______ _______ _______ _____ _____    ______ ____

>  <TORSDO>
F 15

$$$$
=
 OpenBabel11062408463D

 55 60  0  0  1  0  0  0  0  0999 V2000
  162.0570  209.7500  152.0210 N   0  0  0  0  0  0  0  0  0  0  0  0
  162.5110  208.3800  151.8600 C   0  0  0  0  0  2  0  0  0  0  0  0
  161.3250  207.4850  151.5260 C   0  0  0  0  0  2  0  0  0  0  0  0
  163.1100  205.9340  151.1780 O   0  0  0  0  0  1  0  0  0  0  0  0
  161.7390  206.1180  150.9700 C   0  0  1  0  0  0  0  0  0  0  0  0
  161.0100  205.0620  151.7920 C   0  0  0  0  0  1  0  0  0  0  0  0
  162.5430  205.2860  147.3540 C   0  0  2  0  0  3  0  0  0  0  0  0
  160.2130  205.1690  146.7870 O   0  0  0  0  0  1  0  0  0  0  0  0
  161.4220  205.9850  149.4430 C   0  0  1  0  0  0  0  0  0  0  0  0
  161.4810  203.5700  149.7230 O   0  0  0  0  0  1  0  0  0  0  0  0
  160.8830  204.6110  149.0010 C   0  0  2  0  0  3  0  0  0  0  0  0
  162.8550  207.5420  148.2340 O   0  0  0  0  0  1  0  0  0  0  0  0
  162.6010  205.9970  146.1490 O   0  0  0  0  0  1  0  0  0  0  0  0
  161.2250  204.5180  147.5040 C   0  0  2  0  0  0  0  0  0  0  0  0
  160.4590  206.9430  149.0950 O   0  0  0  0  0  1  0  0  0  0  0  0
  162.6750  206.1970  148.5790 C   0  0  2  0  0  3  0  0  0  0  0  0
  161.3650  203.0850  146.9510 C   0  0  1  0  0  3  0  0  0  0  0  0
  160.7180  202.1490  147.7640 O   0  0  0  0  0  1  0  0  0  0  0  0
  160.8630  202.9740  145.5170 C   0  0  0  0  0  2  0  0  0  0  0  0
  160.4780  201.6590  145.2520 O   0  0  0  0  0  1  0  0  0  0  0  0
  161.8680  210.2980  150.6840 C   0  0  0  0  0  2  0  0  0  0  0  0
  163.2010  210.4070  149.9600 C   0  0  0  0  0  2  0  0  0  0  0  0
  163.0270  211.0580  148.7110 O   0  0  0  0  0  0  0  0  0  0  0  0
  160.7860  211.2580  148.2750 O   0  0  0  0  0  0  0  0  0  0  0  0
  162.0000  213.2520  148.3330 N   0  0  0  0  0  2  0  0  0  0  0  0
  161.8950  211.8280  148.4440 C   0  0  0  0  0  0  0  0  0  0  0  0
  159.6220  214.2120  151.5880 N   0  0  0  0  0  0  0  0  0  0  0  0
  160.9530  213.1580  145.6810 C   0  0  0  0  0  3  0  0  0  0  0  0
  156.2870  214.3170  150.0630 C   0  0  0  0  0  3  0  0  0  0  0  0
  160.3450  212.7520  144.4900 C   0  0  0  0  0  3  0  0  0  0  0  0
  158.7820  213.7330  146.5970 C   0  0  0  0  0  0  0  0  0  0  0  0
  158.1810  213.3340  145.3980 C   0  0  0  0  0  3  0  0  0  0  0  0
  158.9590  212.8370  144.3490 C   0  0  0  0  0  3  0  0  0  0  0  0
  160.1800  213.6370  146.7510 C   0  0  0  0  0  0  0  0  0  0  0  0
  160.4400  214.1700  150.5060 C   0  0  0  0  0  3  0  0  0  0  0  0
  156.0720  214.3230  152.4840 C   0  0  0  0  0  0  0  0  0  0  0  0
  158.5160  214.2180  149.0380 C   0  0  0  0  0  0  0  0  0  0  0  0
  158.2730  214.2440  151.4590 C   0  0  0  0  0  0  0  0  0  0  0  0
  157.9210  214.3380  147.6600 C   0  0  0  0  0  2  0  0  0  0  0  0
  157.4680  214.2730  152.6000 C   0  0  0  0  0  3  0  0  0  0  0  0
  160.8560  214.1060  148.0240 C   0  0  1  0  0  3  0  0  0  0  0  0
  155.4890  214.3470  151.2090 C   0  0  0  0  0  3  0  0  0  0  0  0
  159.9140  214.1460  149.2080 C   0  0  0  0  0  0  0  0  0  0  0  0
  157.6840  214.2600  150.1750 C   0  0  0  0  0  0  0  0  0  0  0  0
  155.2330  214.3460  153.6920 C   0  0  0  0  0  0  0  0  0  0  0  0
  155.8160  214.4530  154.9490 O   0  0  0  0  0  1  0  0  0  0  0  0
  153.9790  214.2640  153.5990 O   0  0  0  0  0  0  0  0  0  0  0  0
  160.7530  209.6830  152.6630 C   0  0  0  0  0  2  0  0  0  0  0  0
  160.2710  211.0910  152.9610 C   0  0  0  0  0  2  0  0  0  0  0  0
  158.8010  211.4140  156.9480 C   0  0  0  0  0  3  0  0  0  0  0  0
  159.7540  211.1820  154.3540 C   0  0  0  0  0  0  0  0  0  0  0  0
  158.6010  211.8580  154.6090 N   0  0  0  0  0  0  0  0  0  0  0  0
  159.9860  210.7160  156.7060 C   0  0  0  0  0  3  0  0  0  0  0  0
  158.1140  211.9840  155.8740 C   0  0  0  0  0  3  0  0  0  0  0  0
  160.4690  210.5960  155.4020 C   0  0  0  0  0  3  0  0  0  0  0  0
  1 48  1  0  0  0  0
  2  1  1  0  0  0  0
  3  2  1  0  0  0  0
  5  4  1  0  0  0  0
  5  3  1  0  0  0  0
  5  6  1  1  0  0  0
  7 13  1  6  0  0  0
  7 14  1  0  0  0  0
  7 16  1  0  0  0  0
  9 15  1  6  0  0  0
  9  5  1  0  0  0  0
 11  9  1  0  0  0  0
 11 10  1  1  0  0  0
 14  8  1  6  0  0  0
 14 11  1  0  0  0  0
 16 12  1  6  0  0  0
 16  9  1  0  0  0  0
 17 14  1  0  0  0  0
 17 18  1  1  0  0  0
 19 17  1  0  0  0  0
 20 19  1  0  0  0  0
 21  1  1  0  0  0  0
 22 21  1  0  0  0  0
 23 22  1  0  0  0  0
 24 26  2  0  0  0  0
 25 26  1  0  0  0  0
 26 23  1  0  0  0  0
 28 34  1  0  0  0  0
 29 44  2  0  0  0  0
 29 42  1  0  0  0  0
 30 28  2  0  0  0  0
 31 34  2  0  0  0  0
 31 39  1  0  0  0  0
 32 31  1  0  0  0  0
 33 30  1  0  0  0  0
 33 32  2  0  0  0  0
 34 41  1  0  0  0  0
 35 27  2  0  0  0  0
 36 40  1  0  0  0  0
 36 45  1  0  0  0  0
 37 43  2  0  0  0  0
 37 44  1  0  0  0  0
 38 27  1  0  0  0  0
 38 40  2  0  0  0  0
 39 37  1  0  0  0  0
 41 25  1  1  0  0  0
 41 43  1  0  0  0  0
 42 36  2  0  0  0  0
 43 35  1  0  0  0  0
 44 38  1  0  0  0  0
 45 46  1  0  0  0  0
 47 45  2  0  0  0  0
 48 49  1  0  0  0  0
 49 51  1  0  0  0  0
 51 52  2  0  0  0  0
 51 55  1  0  0  0  0
 52 54  1  0  0  0  0
 53 50  1  0  0  0  0
 54 50  2  0  0  0  0
 55 53  2  0  0  0  0
M  END
>  <MODEL>
8

>  <REMARK>
 VINA RESULT:      -5.0      2.455     10.493
  Name = 
  15 active torsions:
  status: ('A' for Active; 'I' for Inactive)
    1  A    between atoms: O_4  and  C_37
    2  A    between atoms: O_4  and  C_40
    3  A    between atoms: C_6  and  C_20
    4  A    between atoms: C_8  and  C_22
    5  A    between atoms: C_8  and  N_43
    6  A    between atoms: C_10  and  C_32
    7  A    between atoms: C_11  and  C_29
    8  A    between atoms: N_19  and  C_45
    9  A    between atoms: C_20  and  C_22
   10  A    between atoms: C_27  and  C_54
   11  A    between atoms: C_29  and  C_38
   12  A    between atoms: C_35  and  C_37
   13  A    between atoms: C_35  and  N_43
   14  A    between atoms: N_43  and  C_51
   15  A    between atoms: C_51  and  C_54
                            x       y       z     vdW  Elec       q    Type
                         _______ _______ _______ _____ _____    ______ ____

>  <TORSDO>
F 15

$$$$
=
 OpenBabel11062408463D

 55 60  0  0  1  0  0  0  0  0999 V2000
  161.4460  206.8210  148.4560 N   0  0  0  0  0  0  0  0  0  0  0  0
  162.0680  206.4830  149.7230 C   0  0  0  0  0  2  0  0  0  0  0  0
  162.0950  207.7110  150.6230 C   0  0  0  0  0  2  0  0  0  0  0  0
  160.0730  207.1020  151.7400 O   0  0  0  0  0  1  0  0  0  0  0  0
  161.3970  207.4890  151.9690 C   0  0  1  0  0  0  0  0  0  0  0  0
  162.1010  206.3210  152.6490 C   0  0  0  0  0  1  0  0  0  0  0  0
  159.8470  210.4800  153.7190 C   0  0  2  0  0  3  0  0  0  0  0  0
  161.7400  210.6990  155.1790 O   0  0  0  0  0  1  0  0  0  0  0  0
  161.4170  208.7750  152.8600 C   0  0  1  0  0  0  0  0  0  0  0  0
  160.2370  207.5120  154.5710 O   0  0  0  0  0  1  0  0  0  0  0  0
  161.1670  208.5390  154.3620 C   0  0  2  0  0  3  0  0  0  0  0  0
  160.7730  210.6700  151.4690 O   0  0  0  0  0  1  0  0  0  0  0  0
  159.9880  211.8710  153.6450 O   0  0  0  0  0  1  0  0  0  0  0  0
  160.6380  209.8840  154.8890 C   0  0  2  0  0  0  0  0  0  0  0  0
  162.6700  209.3930  152.7380 O   0  0  0  0  0  1  0  0  0  0  0  0
  160.3240  209.7740  152.4460 C   0  0  2  0  0  3  0  0  0  0  0  0
  159.7570  209.7940  156.1510 C   0  0  1  0  0  3  0  0  0  0  0  0
  160.4800  209.3300  157.2560 O   0  0  0  0  0  1  0  0  0  0  0  0
  159.0880  211.1220  156.4790 C   0  0  0  0  0  2  0  0  0  0  0  0
  157.7290  211.0560  156.1710 O   0  0  0  0  0  1  0  0  0  0  0  0
  161.3130  208.2720  148.4180 C   0  0  0  0  0  2  0  0  0  0  0  0
  162.6010  208.9110  147.9210 C   0  0  0  0  0  2  0  0  0  0  0  0
  162.7110  210.2360  148.4180 O   0  0  0  0  0  0  0  0  0  0  0  0
  160.5290  210.8290  148.0450 O   0  0  0  0  0  0  0  0  0  0  0  0
  162.0840  212.5710  148.0110 N   0  0  0  0  0  2  0  0  0  0  0  0
  161.7280  211.1930  148.1640 C   0  0  0  0  0  0  0  0  0  0  0  0
  159.6640  213.6370  151.2020 N   0  0  0  0  0  0  0  0  0  0  0  0
  161.2130  212.8390  145.3080 C   0  0  0  0  0  3  0  0  0  0  0  0
  156.4900  214.3660  149.5120 C   0  0  0  0  0  3  0  0  0  0  0  0
  160.6330  212.6220  144.0550 C   0  0  0  0  0  3  0  0  0  0  0  0
  159.0960  213.6690  146.1490 C   0  0  0  0  0  0  0  0  0  0  0  0
  158.5230  213.4590  144.8900 C   0  0  0  0  0  3  0  0  0  0  0  0
  159.2870  212.9290  143.8470 C   0  0  0  0  0  3  0  0  0  0  0  0
  160.4510  213.3490  146.3710 C   0  0  0  0  0  0  0  0  0  0  0  0
  160.5370  213.5510  150.1660 C   0  0  0  0  0  3  0  0  0  0  0  0
  156.1180  214.2220  151.9090 C   0  0  0  0  0  0  0  0  0  0  0  0
  158.7430  214.0040  148.6050 C   0  0  0  0  0  0  0  0  0  0  0  0
  158.3470  213.8840  151.0020 C   0  0  0  0  0  0  0  0  0  0  0  0
  158.2650  214.3170  147.2120 C   0  0  0  0  0  2  0  0  0  0  0  0
  157.4800  213.9510  152.0970 C   0  0  0  0  0  3  0  0  0  0  0  0
  161.1020  213.6110  147.7130 C   0  0  1  0  0  3  0  0  0  0  0  0
  155.6310  214.4320  150.6110 C   0  0  0  0  0  3  0  0  0  0  0  0
  160.1000  213.7070  148.8440 C   0  0  0  0  0  0  0  0  0  0  0  0
  157.8530  214.0870  149.6940 C   0  0  0  0  0  0  0  0  0  0  0  0
  155.2130  214.2830  153.0670 C   0  0  0  0  0  0  0  0  0  0  0  0
  153.8400  214.1600  152.8910 O   0  0  0  0  0  0  0  0  0  0  0  0
  155.6730  214.4500  154.2290 O   0  0  0  0  0  1  0  0  0  0  0  0
  162.3850  206.4330  147.4150 C   0  0  0  0  0  2  0  0  0  0  0  0
  161.6260  205.7670  146.2810 C   0  0  0  0  0  2  0  0  0  0  0  0
  160.8670  201.6620  147.1370 C   0  0  0  0  0  3  0  0  0  0  0  0
  161.3820  204.3320  146.5880 C   0  0  0  0  0  0  0  0  0  0  0  0
  161.2010  203.4400  145.5760 N   0  0  0  0  0  0  0  0  0  0  0  0
  161.0510  202.5620  148.1890 C   0  0  0  0  0  3  0  0  0  0  0  0
  160.9480  202.1260  145.8210 C   0  0  0  0  0  3  0  0  0  0  0  0
  161.3110  203.9060  147.9170 C   0  0  0  0  0  3  0  0  0  0  0  0
  1  2  1  0  0  0  0
  2  3  1  0  0  0  0
  3  5  1  0  0  0  0
  4  5  1  0  0  0  0
  5  6  1  1  0  0  0
  5  9  1  0  0  0  0
  7 13  1  6  0  0  0
  7 14  1  0  0  0  0
  9 15  1  6  0  0  0
  9 11  1  0  0  0  0
 11 10  1  6  0  0  0
 11 14  1  0  0  0  0
 14  8  1  1  0  0  0
 14 17  1  0  0  0  0
 16 12  1  6  0  0  0
 16  9  1  0  0  0  0
 16  7  1  0  0  0  0
 17 19  1  0  0  0  0
 17 18  1  1  0  0  0
 20 19  1  0  0  0  0
 21  1  1  0  0  0  0
 22 21  1  0  0  0  0
 22 23  1  0  0  0  0
 24 26  2  0  0  0  0
 25 26  1  0  0  0  0
 26 23  1  0  0  0  0
 28 34  1  0  0  0  0
 29 44  2  0  0  0  0
 29 42  1  0  0  0  0
 30 28  2  0  0  0  0
 31 34  2  0  0  0  0
 31 39  1  0  0  0  0
 32 31  1  0  0  0  0
 33 30  1  0  0  0  0
 33 32  2  0  0  0  0
 34 41  1  0  0  0  0
 35 27  2  0  0  0  0
 36 40  1  0  0  0  0
 36 45  1  0  0  0  0
 37 43  2  0  0  0  0
 37 44  1  0  0  0  0
 38 27  1  0  0  0  0
 38 40  2  0  0  0  0
 39 37  1  0  0  0  0
 41 25  1  1  0  0  0
 41 43  1  0  0  0  0
 42 36  2  0  0  0  0
 43 35  1  0  0  0  0
 44 38  1  0  0  0  0
 45 47  1  0  0  0  0
 46 45  2  0  0  0  0
 48  1  1  0  0  0  0
 49 51  1  0  0  0  0
 49 48  1  0  0  0  0
 50 53  1  0  0  0  0
 51 55  1  0  0  0  0
 52 54  1  0  0  0  0
 52 51  2  0  0  0  0
 54 50  2  0  0  0  0
 55 53  2  0  0  0  0
M  END
>  <MODEL>
9

>  <REMARK>
 VINA RESULT:      -4.9      2.378      8.855
  Name = 
  15 active torsions:
  status: ('A' for Active; 'I' for Inactive)
    1  A    between atoms: O_4  and  C_37
    2  A    between atoms: O_4  and  C_40
    3  A    between atoms: C_6  and  C_20
    4  A    between atoms: C_8  and  C_22
    5  A    between atoms: C_8  and  N_43
    6  A    between atoms: C_10  and  C_32
    7  A    between atoms: C_11  and  C_29
    8  A    between atoms: N_19  and  C_45
    9  A    between atoms: C_20  and  C_22
   10  A    between atoms: C_27  and  C_54
   11  A    between atoms: C_29  and  C_38
   12  A    between atoms: C_35  and  C_37
   13  A    between atoms: C_35  and  N_43
   14  A    between atoms: N_43  and  C_51
   15  A    between atoms: C_51  and  C_54
                            x       y       z     vdW  Elec       q    Type
                         _______ _______ _______ _____ _____    ______ ____

>  <TORSDO>
F 15

$$$$
