=
 OpenBabel11062410033D

 43 47  0  0  1  0  0  0  0  0999 V2000
  161.9180  204.2560  146.3310 C   0  0  0  0  0  0  0  0  0  0  0  0
  161.2930  206.5840  150.8290 C   0  0  2  0  0  3  0  0  0  0  0  0
  161.9930  209.1390  150.4620 C   0  0  2  0  0  3  0  0  0  0  0  0
  161.3220  204.7710  148.6260 C   0  0  0  0  0  0  0  0  0  0  0  0
  162.0870  205.6160  146.0630 C   0  0  0  0  0  3  0  0  0  0  0  0
  162.1220  203.3430  145.3520 F   0  0  0  0  0  0  0  0  0  0  0  0
  161.5260  206.1470  148.3660 C   0  0  0  0  0  0  0  0  0  0  0  0
  161.5380  203.8370  147.6080 C   0  0  0  0  0  3  0  0  0  0  0  0
  161.8830  206.5580  147.0740 C   0  0  0  0  0  3  0  0  0  0  0  0
  162.0260  208.3350  149.2850 O   0  0  0  0  0  0  0  0  0  0  0  0
  161.2170  207.1780  149.4210 C   0  0  2  0  0  3  0  0  0  0  0  0
  160.4020  205.3580  150.9080 C   0  0  0  0  0  2  0  0  0  0  0  0
  160.8600  207.6640  151.8210 C   0  0  2  0  0  3  0  0  0  0  0  0
  160.8110  208.9500  151.2230 O   0  0  0  0  0  0  0  0  0  0  0  0
  160.9720  204.2660  150.0020 C   0  0  0  0  0  2  0  0  0  0  0  0
  162.1490  210.6080  150.0940 C   0  0  2  0  0  3  0  0  0  0  0  0
  161.3090  211.3830  150.8970 O   0  0  0  0  0  1  0  0  0  0  0  0
  161.7910  210.8140  148.6240 C   0  0  0  0  0  2  0  0  0  0  0  0
  162.5120  211.9990  147.9820 C   0  0  2  0  0  3  0  0  0  0  0  0
  163.8140  212.1060  148.4740 O   0  0  0  0  0  1  0  0  0  0  0  0
  161.7680  213.3190  148.1800 C   0  0  0  0  0  2  0  0  0  0  0  0
  161.1980  213.8950  146.8810 C   0  0  1  0  0  3  0  0  0  0  0  0
  162.1340  214.1170  143.5570 C   0  0  0  0  0  1  0  0  0  0  0  0
  162.2040  214.1350  145.9450 O   0  0  0  0  0  0  0  0  0  0  0  0
  160.2060  212.9740  146.2340 C   0  0  2  0  0  3  0  0  0  0  0  0
  160.5110  212.9690  144.8770 O   0  0  0  0  0  0  0  0  0  0  0  0
  161.8630  213.3450  144.8320 C   0  0  1  0  0  3  0  0  0  0  0  0
  158.0340  213.9730  145.4220 C   0  0  0  0  0  3  0  0  0  0  0  0
  158.8030  213.4400  146.4640 C   0  0  0  0  0  0  0  0  0  0  0  0
  156.3700  213.7300  149.3330 C   0  0  0  0  0  1  0  0  0  0  0  0
  156.2270  214.3200  146.9430 N   0  0  0  0  0  0  0  0  0  0  0  0
  156.9580  213.8090  147.9710 C   0  0  0  0  0  0  0  0  0  0  0  0
  156.7330  214.4100  145.6850 C   0  0  0  0  0  3  0  0  0  0  0  0
  158.2620  213.3620  147.7490 C   0  0  0  0  0  3  0  0  0  0  0  0
  161.7500  207.6620  152.9770 N   0  0  0  0  0  2  0  0  0  0  0  0
  161.0420  208.2670  154.0980 C   0  0  2  0  0  3  0  0  0  0  0  0
  161.2200  210.6980  154.6300 N   0  0  0  0  0  0  0  0  0  0  0  0
  161.7320  209.5120  154.5990 C   0  0  0  0  0  3  0  0  0  0  0  0
  159.6110  211.0950  154.0910 S   0  0  1  0  0  0  0  0  0  0  0  0
  158.5780  210.7130  155.5120 C   0  0  0  0  0  1  0  0  0  0  0  0
  159.6250  212.6150  154.0340 O   0  0  0  0  0  0  0  0  0  0  0  0
  160.7810  207.2670  155.1830 C   0  0  0  0  0  3  0  0  0  0  0  0
  159.9800  207.4890  156.0770 O   0  0  0  0  0  0  0  0  0  0  0  0
  1  8  1  0  0  0  0
  2 12  1  6  0  0  0
  2 13  1  0  0  0  0
  3 16  1  6  0  0  0
  3 14  1  0  0  0  0
  4 15  1  0  0  0  0
  5  1  2  0  0  0  0
  5  9  1  0  0  0  0
  6  1  1  0  0  0  0
  7  4  1  0  0  0  0
  8  4  2  0  0  0  0
  9  7  2  0  0  0  0
 10 11  1  0  0  0  0
 10  3  1  0  0  0  0
 11  7  1  6  0  0  0
 11  2  1  0  0  0  0
 13 35  1  1  0  0  0
 14 13  1  0  0  0  0
 15 12  1  0  0  0  0
 16 17  1  1  0  0  0
 18 16  1  0  0  0  0
 19 21  1  0  0  0  0
 19 20  1  1  0  0  0
 19 18  1  0  0  0  0
 22 21  1  1  0  0  0
 24 22  1  0  0  0  0
 25 29  1  6  0  0  0
 25 22  1  0  0  0  0
 26 25  1  0  0  0  0
 27 23  1  6  0  0  0
 27 26  1  0  0  0  0
 27 24  1  0  0  0  0
 28 33  2  0  0  0  0
 28 29  1  0  0  0  0
 29 34  2  0  0  0  0
 31 32  2  0  0  0  0
 32 30  1  0  0  0  0
 33 31  1  0  0  0  0
 34 32  1  0  0  0  0
 35 36  1  0  0  0  0
 36 38  1  1  0  0  0
 36 42  1  0  0  0  0
 38 37  2  0  0  0  0
 39 37  1  0  0  0  0
 39 40  1  1  0  0  0
 41 39  2  0  0  0  0
 42 43  2  0  0  0  0
M  END
>  <MODEL>
1

>  <REMARK>
 VINA RESULT:      -8.2      0.000      0.000
  Name = 
  11 active torsions:
  status: ('A' for Active; 'I' for Inactive)
    1  A    between atoms: N_1  and  C_34
    2  A    between atoms: N_1  and  CA_35
    3  A    between atoms: C_2  and  C_6
    4  A    between atoms: C_2  and  C_13
    5  A    between atoms: C_3  and  C_4
    6  A    between atoms: C_3  and  C_12
    7  A    between atoms: C_6  and  C_12
    8  A    between atoms: N_9  and  S_19
    9  A    between atoms: C_14  and  C_22
   10  A    between atoms: C_28  and  CA_35
   11  A    between atoms: C_32  and  CA_35
                            x       y       z     vdW  Elec       q    Type
                         _______ _______ _______ _____ _____    ______ ____

>  <TORSDO>
F 11

$$$$
=
 OpenBabel11062410033D

 43 47  0  0  1  0  0  0  0  0999 V2000
  161.2200  201.4830  148.6790 C   0  0  0  0  0  0  0  0  0  0  0  0
  161.1740  205.6900  151.5680 C   0  0  2  0  0  3  0  0  0  0  0  0
  161.7300  207.7350  149.9350 C   0  0  2  0  0  3  0  0  0  0  0  0
  160.9440  203.0490  150.5110 C   0  0  0  0  0  0  0  0  0  0  0  0
  161.3040  202.5450  147.7760 C   0  0  0  0  0  3  0  0  0  0  0  0
  161.3090  200.2070  148.2330 F   0  0  0  0  0  0  0  0  0  0  0  0
  161.0640  204.1270  149.6030 C   0  0  0  0  0  0  0  0  0  0  0  0
  161.0420  201.7360  150.0410 C   0  0  0  0  0  3  0  0  0  0  0  0
  161.2170  203.8610  148.2350 C   0  0  0  0  0  3  0  0  0  0  0  0
  161.6200  206.4670  149.2910 O   0  0  0  0  0  0  0  0  0  0  0  0
  160.8770  205.5470  150.0740 C   0  0  2  0  0  3  0  0  0  0  0  0
  160.3440  204.6850  152.3460 C   0  0  0  0  0  2  0  0  0  0  0  0
  160.8540  207.1280  151.9780 C   0  0  2  0  0  3  0  0  0  0  0  0
  160.6780  207.9760  150.8540 O   0  0  0  0  0  0  0  0  0  0  0  0
  160.8120  203.2720  151.9960 C   0  0  0  0  0  2  0  0  0  0  0  0
  161.7840  208.8450  148.8960 C   0  0  2  0  0  3  0  0  0  0  0  0
  162.8140  208.5860  147.9880 O   0  0  0  0  0  1  0  0  0  0  0  0
  162.0270  210.1860  149.5830 C   0  0  0  0  0  2  0  0  0  0  0  0
  162.0940  211.3650  148.6120 C   0  0  2  0  0  3  0  0  0  0  0  0
  161.8920  212.5690  149.2880 O   0  0  0  0  0  1  0  0  0  0  0  0
  161.0950  211.2370  147.4610 C   0  0  0  0  0  2  0  0  0  0  0  0
  160.8250  212.5620  146.7430 C   0  0  1  0  0  3  0  0  0  0  0  0
  162.0260  214.2590  143.9760 C   0  0  0  0  0  1  0  0  0  0  0  0
  161.9230  212.9600  145.9790 O   0  0  0  0  0  0  0  0  0  0  0  0
  159.6500  212.4800  145.8130 C   0  0  2  0  0  3  0  0  0  0  0  0
  160.0380  213.1200  144.6410 O   0  0  0  0  0  0  0  0  0  0  0  0
  161.4390  213.0410  144.6600 C   0  0  1  0  0  3  0  0  0  0  0  0
  157.4820  213.7540  145.5980 C   0  0  0  0  0  3  0  0  0  0  0  0
  158.4430  213.1360  146.4060 C   0  0  0  0  0  0  0  0  0  0  0  0
  156.9940  213.7930  149.8270 C   0  0  0  0  0  1  0  0  0  0  0  0
  156.2460  214.3660  147.5480 N   0  0  0  0  0  0  0  0  0  0  0  0
  157.1710  213.7740  148.3520 C   0  0  0  0  0  0  0  0  0  0  0  0
  156.3780  214.3690  146.1950 C   0  0  0  0  0  3  0  0  0  0  0  0
  158.2890  213.1500  147.7940 C   0  0  0  0  0  3  0  0  0  0  0  0
  161.9010  207.6390  152.8550 N   0  0  0  0  0  2  0  0  0  0  0  0
  161.2750  208.4790  153.8690 C   0  0  2  0  0  3  0  0  0  0  0  0
  161.3120  210.9670  153.6900 N   0  0  0  0  0  0  0  0  0  0  0  0
  161.9080  209.8480  153.9390 C   0  0  0  0  0  3  0  0  0  0  0  0
  159.6420  211.1160  153.2190 S   0  0  1  0  0  0  0  0  0  0  0  0
  158.8100  211.6030  154.7370 C   0  0  0  0  0  1  0  0  0  0  0  0
  159.6280  212.3730  152.3630 O   0  0  0  0  0  0  0  0  0  0  0  0
  161.2280  207.7890  155.1980 C   0  0  0  0  0  3  0  0  0  0  0  0
  161.6640  208.3170  156.2080 O   0  0  0  0  0  0  0  0  0  0  0  0
  1  8  1  0  0  0  0
  2 13  1  0  0  0  0
  2 12  1  1  0  0  0
  3 16  1  6  0  0  0
  3 14  1  0  0  0  0
  4 15  1  0  0  0  0
  5  9  1  0  0  0  0
  5  1  2  0  0  0  0
  6  1  1  0  0  0  0
  7 11  1  0  0  0  0
  7  4  1  0  0  0  0
  8  4  2  0  0  0  0
  9  7  2  0  0  0  0
 10  3  1  0  0  0  0
 11 10  1  6  0  0  0
 11  2  1  0  0  0  0
 13 35  1  1  0  0  0
 14 13  1  0  0  0  0
 15 12  1  0  0  0  0
 16 17  1  6  0  0  0
 16 18  1  0  0  0  0
 19 20  1  1  0  0  0
 19 18  1  0  0  0  0
 21 19  1  0  0  0  0
 22 21  1  6  0  0  0
 24 22  1  0  0  0  0
 25 29  1  1  0  0  0
 25 22  1  0  0  0  0
 26 27  1  0  0  0  0
 26 25  1  0  0  0  0
 27 23  1  1  0  0  0
 27 24  1  0  0  0  0
 28 33  2  0  0  0  0
 28 29  1  0  0  0  0
 29 34  2  0  0  0  0
 31 32  2  0  0  0  0
 32 30  1  0  0  0  0
 33 31  1  0  0  0  0
 34 32  1  0  0  0  0
 35 36  1  0  0  0  0
 36 38  1  1  0  0  0
 36 42  1  0  0  0  0
 37 38  2  0  0  0  0
 39 37  1  0  0  0  0
 39 40  1  1  0  0  0
 41 39  2  0  0  0  0
 42 43  2  0  0  0  0
M  END
>  <MODEL>
2

>  <REMARK>
 VINA RESULT:      -7.9      1.419      1.871
  Name = 
  11 active torsions:
  status: ('A' for Active; 'I' for Inactive)
    1  A    between atoms: N_1  and  C_34
    2  A    between atoms: N_1  and  CA_35
    3  A    between atoms: C_2  and  C_6
    4  A    between atoms: C_2  and  C_13
    5  A    between atoms: C_3  and  C_4
    6  A    between atoms: C_3  and  C_12
    7  A    between atoms: C_6  and  C_12
    8  A    between atoms: N_9  and  S_19
    9  A    between atoms: C_14  and  C_22
   10  A    between atoms: C_28  and  CA_35
   11  A    between atoms: C_32  and  CA_35
                            x       y       z     vdW  Elec       q    Type
                         _______ _______ _______ _____ _____    ______ ____

>  <TORSDO>
F 11

$$$$
=
 OpenBabel11062410033D

 43 47  0  0  1  0  0  0  0  0999 V2000
  160.7950  201.9760  145.9850 C   0  0  0  0  0  0  0  0  0  0  0  0
  161.3750  206.2460  148.7200 C   0  0  2  0  0  3  0  0  0  0  0  0
  161.1130  205.5420  151.2870 C   0  0  2  0  0  3  0  0  0  0  0  0
  161.2610  204.2540  146.6800 C   0  0  0  0  0  0  0  0  0  0  0  0
  160.8630  201.5510  147.3140 C   0  0  0  0  0  3  0  0  0  0  0  0
  160.5400  201.0820  145.0000 F   0  0  0  0  0  0  0  0  0  0  0  0
  161.2950  203.8310  148.0300 C   0  0  0  0  0  0  0  0  0  0  0  0
  160.9920  203.3230  145.6710 C   0  0  0  0  0  3  0  0  0  0  0  0
  161.1200  202.4730  148.3300 C   0  0  0  0  0  3  0  0  0  0  0  0
  161.0600  204.4590  150.3610 O   0  0  0  0  0  0  0  0  0  0  0  0
  161.6660  204.7990  149.1240 C   0  0  2  0  0  3  0  0  0  0  0  0
  162.0570  206.5460  147.3960 C   0  0  0  0  0  2  0  0  0  0  0  0
  161.8810  207.1590  149.8370 C   0  0  2  0  0  3  0  0  0  0  0  0
  162.1800  206.4370  151.0220 O   0  0  0  0  0  0  0  0  0  0  0  0
  161.4070  205.7050  146.2980 C   0  0  0  0  0  2  0  0  0  0  0  0
  161.2190  205.0070  152.7080 C   0  0  2  0  0  3  0  0  0  0  0  0
  160.8950  203.6480  152.7210 O   0  0  0  0  0  1  0  0  0  0  0  0
  160.2650  205.7730  153.6210 C   0  0  0  0  0  2  0  0  0  0  0  0
  160.9040  206.9940  154.2840 C   0  0  2  0  0  3  0  0  0  0  0  0
  162.2710  206.7870  154.4760 O   0  0  0  0  0  1  0  0  0  0  0  0
  160.2380  207.3600  155.6100 C   0  0  0  0  0  2  0  0  0  0  0  0
  160.5170  208.8000  156.0510 C   0  0  1  0  0  3  0  0  0  0  0  0
  163.1940  210.6300  157.2600 C   0  0  0  0  0  1  0  0  0  0  0  0
  161.6200  208.8680  156.9030 O   0  0  0  0  0  0  0  0  0  0  0  0
  160.8010  209.7080  154.8910 C   0  0  2  0  0  3  0  0  0  0  0  0
  161.8930  210.4840  155.2650 O   0  0  0  0  0  0  0  0  0  0  0  0
  162.5340  209.7140  156.2490 C   0  0  1  0  0  3  0  0  0  0  0  0
  158.4970  210.5980  155.4110 C   0  0  0  0  0  3  0  0  0  0  0  0
  159.6190  210.5680  154.5740 C   0  0  0  0  0  0  0  0  0  0  0  0
  158.5210  212.9550  151.8660 C   0  0  0  0  0  1  0  0  0  0  0  0
  157.4430  212.1470  153.9310 N   0  0  0  0  0  0  0  0  0  0  0  0
  158.5210  212.1300  153.1010 C   0  0  0  0  0  0  0  0  0  0  0  0
  157.4080  211.4040  155.0690 C   0  0  0  0  0  3  0  0  0  0  0  0
  159.6290  211.3370  153.4080 C   0  0  0  0  0  3  0  0  0  0  0  0
  160.9040  208.2090  150.1010 N   0  0  0  0  0  2  0  0  0  0  0  0
  161.6160  209.4760  150.2150 C   0  0  2  0  0  3  0  0  0  0  0  0
  162.5030  210.8700  148.3460 N   0  0  0  0  0  0  0  0  0  0  0  0
  162.4680  209.7570  149.0000 C   0  0  0  0  0  3  0  0  0  0  0  0
  161.5600  212.2810  148.7410 S   0  0  1  0  0  0  0  0  0  0  0  0
  162.5460  213.6460  148.1120 C   0  0  0  0  0  1  0  0  0  0  0  0
  160.3810  212.1960  147.7830 O   0  0  0  0  0  0  0  0  0  0  0  0
  162.3840  209.5580  151.4990 C   0  0  0  0  0  3  0  0  0  0  0  0
  162.9360  210.5890  151.8480 O   0  0  0  0  0  0  0  0  0  0  0  0
  1  5  1  0  0  0  0
  2 12  1  6  0  0  0
  2 11  1  0  0  0  0
  2 13  1  0  0  0  0
  3 16  1  1  0  0  0
  4  7  2  0  0  0  0
  5  9  2  0  0  0  0
  6  1  1  0  0  0  0
  7  9  1  0  0  0  0
  8  1  2  0  0  0  0
  8  4  1  0  0  0  0
 10  3  1  0  0  0  0
 11  7  1  6  0  0  0
 11 10  1  0  0  0  0
 13 35  1  1  0  0  0
 13 14  1  0  0  0  0
 14  3  1  0  0  0  0
 15  4  1  0  0  0  0
 15 12  1  0  0  0  0
 16 17  1  6  0  0  0
 16 18  1  0  0  0  0
 18 19  1  0  0  0  0
 19 20  1  1  0  0  0
 19 21  1  0  0  0  0
 22 21  1  6  0  0  0
 22 24  1  0  0  0  0
 25 29  1  1  0  0  0
 25 26  1  0  0  0  0
 25 22  1  0  0  0  0
 26 27  1  0  0  0  0
 27 24  1  0  0  0  0
 27 23  1  1  0  0  0
 29 28  2  0  0  0  0
 30 32  1  0  0  0  0
 31 33  2  0  0  0  0
 32 34  2  0  0  0  0
 32 31  1  0  0  0  0
 33 28  1  0  0  0  0
 34 29  1  0  0  0  0
 35 36  1  0  0  0  0
 36 38  1  6  0  0  0
 36 42  1  0  0  0  0
 37 39  1  0  0  0  0
 37 38  2  0  0  0  0
 39 40  1  6  0  0  0
 41 39  2  0  0  0  0
 42 43  2  0  0  0  0
M  END
>  <MODEL>
3

>  <REMARK>
 VINA RESULT:      -7.5      2.996      6.942
  Name = 
  11 active torsions:
  status: ('A' for Active; 'I' for Inactive)
    1  A    between atoms: N_1  and  C_34
    2  A    between atoms: N_1  and  CA_35
    3  A    between atoms: C_2  and  C_6
    4  A    between atoms: C_2  and  C_13
    5  A    between atoms: C_3  and  C_4
    6  A    between atoms: C_3  and  C_12
    7  A    between atoms: C_6  and  C_12
    8  A    between atoms: N_9  and  S_19
    9  A    between atoms: C_14  and  C_22
   10  A    between atoms: C_28  and  CA_35
   11  A    between atoms: C_32  and  CA_35
                            x       y       z     vdW  Elec       q    Type
                         _______ _______ _______ _____ _____    ______ ____

>  <TORSDO>
F 11

$$$$
=
 OpenBabel11062410033D

 43 47  0  0  1  0  0  0  0  0999 V2000
  161.6690  203.8030  147.4060 C   0  0  0  0  0  0  0  0  0  0  0  0
  161.1950  205.8980  152.0350 C   0  0  2  0  0  3  0  0  0  0  0  0
  161.3980  208.5430  151.6930 C   0  0  2  0  0  3  0  0  0  0  0  0
  161.2700  204.1610  149.7720 C   0  0  0  0  0  0  0  0  0  0  0  0
  161.5690  205.1770  147.1750 C   0  0  0  0  0  3  0  0  0  0  0  0
  161.9070  202.9590  146.3730 F   0  0  0  0  0  0  0  0  0  0  0  0
  161.2040  205.5570  149.5450 C   0  0  0  0  0  0  0  0  0  0  0  0
  161.5210  203.2990  148.7000 C   0  0  0  0  0  3  0  0  0  0  0  0
  161.3290  206.0490  148.2390 C   0  0  0  0  0  3  0  0  0  0  0  0
  161.4280  207.7800  150.4890 O   0  0  0  0  0  0  0  0  0  0  0  0
  160.8510  206.4970  150.6700 C   0  0  2  0  0  3  0  0  0  0  0  0
  160.5420  204.5330  152.1660 C   0  0  0  0  0  2  0  0  0  0  0  0
  160.7050  206.8660  153.1120 C   0  0  2  0  0  3  0  0  0  0  0  0
  160.3660  208.1350  152.5750 O   0  0  0  0  0  0  0  0  0  0  0  0
  161.1780  203.5760  151.1580 C   0  0  0  0  0  2  0  0  0  0  0  0
  161.2550  210.0230  151.3690 C   0  0  2  0  0  3  0  0  0  0  0  0
  162.1810  210.3770  150.3840 O   0  0  0  0  0  1  0  0  0  0  0  0
  161.4980  210.8550  152.6260 C   0  0  0  0  0  2  0  0  0  0  0  0
  160.3540  211.8140  152.9520 C   0  0  2  0  0  3  0  0  0  0  0  0
  160.5030  212.3350  154.2380 O   0  0  0  0  0  1  0  0  0  0  0  0
  158.9790  211.1610  152.8080 C   0  0  0  0  0  2  0  0  0  0  0  0
  157.8740  212.1510  152.4300 C   0  0  1  0  0  3  0  0  0  0  0  0
  155.8140  214.4190  154.0410 C   0  0  0  0  0  1  0  0  0  0  0  0
  157.0570  212.4450  153.5230 O   0  0  0  0  0  0  0  0  0  0  0  0
  158.4220  213.4550  151.9280 C   0  0  2  0  0  3  0  0  0  0  0  0
  157.6700  214.4520  152.5420 O   0  0  0  0  0  0  0  0  0  0  0  0
  157.1710  213.8360  153.7000 C   0  0  1  0  0  3  0  0  0  0  0  0
  157.0750  213.5510  149.7960 C   0  0  0  0  0  3  0  0  0  0  0  0
  158.3190  213.5490  150.4390 C   0  0  0  0  0  0  0  0  0  0  0  0
  160.6340  213.7530  147.4660 C   0  0  0  0  0  1  0  0  0  0  0  0
  158.1780  213.6890  147.6820 N   0  0  0  0  0  0  0  0  0  0  0  0
  159.3970  213.6840  148.2870 C   0  0  0  0  0  0  0  0  0  0  0  0
  157.0260  213.6250  148.4010 C   0  0  0  0  0  3  0  0  0  0  0  0
  159.4880  213.6110  149.6790 C   0  0  0  0  0  3  0  0  0  0  0  0
  161.7130  206.9970  154.1580 N   0  0  0  0  0  2  0  0  0  0  0  0
  161.0870  207.6160  155.3190 C   0  0  2  0  0  3  0  0  0  0  0  0
  162.5970  208.7500  156.9490 N   0  0  0  0  0  0  0  0  0  0  0  0
  162.0250  207.6820  156.5010 C   0  0  0  0  0  3  0  0  0  0  0  0
  162.3960  210.3410  156.2690 S   0  0  1  0  0  0  0  0  0  0  0  0
  161.0850  211.0680  157.2600 C   0  0  0  0  0  1  0  0  0  0  0  0
  163.6530  211.0750  156.7130 O   0  0  0  0  0  0  0  0  0  0  0  0
  159.7790  206.9620  155.6490 C   0  0  0  0  0  3  0  0  0  0  0  0
  159.3360  206.9560  156.7860 O   0  0  0  0  0  0  0  0  0  0  0  0
  1  8  1  0  0  0  0
  2 12  1  1  0  0  0
  2 13  1  0  0  0  0
  3 16  1  6  0  0  0
  3 14  1  0  0  0  0
  4 15  1  0  0  0  0
  5  1  2  0  0  0  0
  5  9  1  0  0  0  0
  6  1  1  0  0  0  0
  7  4  1  0  0  0  0
  8  4  2  0  0  0  0
  9  7  2  0  0  0  0
 10 11  1  0  0  0  0
 10  3  1  0  0  0  0
 11  7  1  6  0  0  0
 11  2  1  0  0  0  0
 13 35  1  1  0  0  0
 14 13  1  0  0  0  0
 15 12  1  0  0  0  0
 16 17  1  6  0  0  0
 16 18  1  0  0  0  0
 18 19  1  0  0  0  0
 19 20  1  1  0  0  0
 21 19  1  0  0  0  0
 22 21  1  1  0  0  0
 22 24  1  0  0  0  0
 24 27  1  0  0  0  0
 25 29  1  6  0  0  0
 25 22  1  0  0  0  0
 25 26  1  0  0  0  0
 26 27  1  0  0  0  0
 27 23  1  6  0  0  0
 28 29  1  0  0  0  0
 30 32  1  0  0  0  0
 31 32  2  0  0  0  0
 31 33  1  0  0  0  0
 32 34  1  0  0  0  0
 33 28  2  0  0  0  0
 34 29  2  0  0  0  0
 35 36  1  0  0  0  0
 36 42  1  1  0  0  0
 36 38  1  0  0  0  0
 38 37  2  0  0  0  0
 39 41  2  0  0  0  0
 39 37  1  0  0  0  0
 39 40  1  1  0  0  0
 42 43  2  0  0  0  0
M  END
>  <MODEL>
4

>  <REMARK>
 VINA RESULT:      -7.1      2.290      4.312
  Name = 
  11 active torsions:
  status: ('A' for Active; 'I' for Inactive)
    1  A    between atoms: N_1  and  C_34
    2  A    between atoms: N_1  and  CA_35
    3  A    between atoms: C_2  and  C_6
    4  A    between atoms: C_2  and  C_13
    5  A    between atoms: C_3  and  C_4
    6  A    between atoms: C_3  and  C_12
    7  A    between atoms: C_6  and  C_12
    8  A    between atoms: N_9  and  S_19
    9  A    between atoms: C_14  and  C_22
   10  A    between atoms: C_28  and  CA_35
   11  A    between atoms: C_32  and  CA_35
                            x       y       z     vdW  Elec       q    Type
                         _______ _______ _______ _____ _____    ______ ____

>  <TORSDO>
F 11

$$$$
=
 OpenBabel11062410033D

 43 47  0  0  1  0  0  0  0  0999 V2000
  161.4220  203.7970  148.2580 C   0  0  0  0  0  0  0  0  0  0  0  0
  161.2000  206.3000  152.7010 C   0  0  2  0  0  3  0  0  0  0  0  0
  161.7320  208.8630  152.1530 C   0  0  2  0  0  3  0  0  0  0  0  0
  161.0650  204.3910  150.5830 C   0  0  0  0  0  0  0  0  0  0  0  0
  161.4940  205.1510  147.9180 C   0  0  0  0  0  3  0  0  0  0  0  0
  161.5560  202.8510  147.2990 F   0  0  0  0  0  0  0  0  0  0  0  0
  161.1730  205.7610  150.2460 C   0  0  0  0  0  0  0  0  0  0  0  0
  161.2090  203.4210  149.5860 C   0  0  0  0  0  3  0  0  0  0  0  0
  161.3610  206.1280  148.9060 C   0  0  0  0  0  3  0  0  0  0  0  0
  161.6700  208.0080  151.0130 O   0  0  0  0  0  0  0  0  0  0  0  0
  160.9370  206.8250  151.2880 C   0  0  2  0  0  3  0  0  0  0  0  0
  160.3830  205.0410  152.9310 C   0  0  0  0  0  2  0  0  0  0  0  0
  160.8320  207.4040  153.6920 C   0  0  2  0  0  3  0  0  0  0  0  0
  160.6540  208.6580  153.0510 O   0  0  0  0  0  0  0  0  0  0  0  0
  160.8980  203.9350  152.0100 C   0  0  0  0  0  2  0  0  0  0  0  0
  161.7750  210.3190  151.7100 C   0  0  2  0  0  3  0  0  0  0  0  0
  160.4780  210.7660  151.4490 O   0  0  0  0  0  1  0  0  0  0  0  0
  162.6290  210.4520  150.4510 C   0  0  0  0  0  2  0  0  0  0  0  0
  161.8090  210.6110  149.1720 C   0  0  2  0  0  3  0  0  0  0  0  0
  161.9470  209.4860  148.3580 O   0  0  0  0  0  1  0  0  0  0  0  0
  162.1770  211.8710  148.3890 C   0  0  0  0  0  2  0  0  0  0  0  0
  161.0560  212.3630  147.4700 C   0  0  1  0  0  3  0  0  0  0  0  0
  158.0800  214.1040  147.7740 C   0  0  0  0  0  1  0  0  0  0  0  0
  159.8720  212.5760  148.1780 O   0  0  0  0  0  0  0  0  0  0  0  0
  161.3990  213.6560  146.7890 C   0  0  2  0  0  3  0  0  0  0  0  0
  160.2630  214.4530  146.8770 O   0  0  0  0  0  0  0  0  0  0  0  0
  159.5710  213.9370  147.9840 C   0  0  1  0  0  3  0  0  0  0  0  0
  162.9680  213.9670  144.8360 C   0  0  0  0  0  3  0  0  0  0  0  0
  161.7860  213.4310  145.3620 C   0  0  0  0  0  0  0  0  0  0  0  0
  160.3950  211.7020  142.3100 C   0  0  0  0  0  1  0  0  0  0  0  0
  162.4420  213.0170  142.7090 N   0  0  0  0  0  0  0  0  0  0  0  0
  161.2870  212.4900  143.1990 C   0  0  0  0  0  0  0  0  0  0  0  0
  163.2820  213.7440  143.4930 C   0  0  0  0  0  3  0  0  0  0  0  0
  160.9370  212.6910  144.5360 C   0  0  0  0  0  3  0  0  0  0  0  0
  161.8460  207.4930  154.7360 N   0  0  0  0  0  2  0  0  0  0  0  0
  161.2570  208.1670  155.8860 C   0  0  2  0  0  3  0  0  0  0  0  0
  161.7140  210.4080  156.8830 N   0  0  0  0  0  0  0  0  0  0  0  0
  162.1320  209.2890  156.3940 C   0  0  0  0  0  3  0  0  0  0  0  0
  160.0370  210.8490  157.0530 S   0  0  1  0  0  0  0  0  0  0  0  0
  160.0440  212.6380  156.8720 C   0  0  0  0  0  1  0  0  0  0  0  0
  159.4080  210.3440  155.7630 O   0  0  0  0  0  0  0  0  0  0  0  0
  160.8780  207.1910  156.9580 C   0  0  0  0  0  3  0  0  0  0  0  0
  159.7130  206.9060  157.1790 O   0  0  0  0  0  0  0  0  0  0  0  0
  1  8  1  0  0  0  0
  2 12  1  1  0  0  0
  2 13  1  0  0  0  0
  3 16  1  6  0  0  0
  3 14  1  0  0  0  0
  4 15  1  0  0  0  0
  5  1  2  0  0  0  0
  5  9  1  0  0  0  0
  6  1  1  0  0  0  0
  7  4  1  0  0  0  0
  8  4  2  0  0  0  0
  9  7  2  0  0  0  0
 10 11  1  0  0  0  0
 10  3  1  0  0  0  0
 11  7  1  6  0  0  0
 11  2  1  0  0  0  0
 13 35  1  1  0  0  0
 14 13  1  0  0  0  0
 15 12  1  0  0  0  0
 16 17  1  6  0  0  0
 18 16  1  0  0  0  0
 19 20  1  6  0  0  0
 19 18  1  0  0  0  0
 21 19  1  0  0  0  0
 22 24  1  0  0  0  0
 22 21  1  1  0  0  0
 25 29  1  6  0  0  0
 25 26  1  0  0  0  0
 25 22  1  0  0  0  0
 26 27  1  0  0  0  0
 27 23  1  6  0  0  0
 27 24  1  0  0  0  0
 28 29  1  0  0  0  0
 30 32  1  0  0  0  0
 31 32  2  0  0  0  0
 31 33  1  0  0  0  0
 32 34  1  0  0  0  0
 33 28  2  0  0  0  0
 34 29  2  0  0  0  0
 35 36  1  0  0  0  0
 36 38  1  1  0  0  0
 36 42  1  0  0  0  0
 37 39  1  0  0  0  0
 38 37  2  0  0  0  0
 39 40  1  6  0  0  0
 41 39  2  0  0  0  0
 42 43  2  0  0  0  0
M  END
>  <MODEL>
5

>  <REMARK>
 VINA RESULT:      -7.0      2.031      3.316
  Name = 
  11 active torsions:
  status: ('A' for Active; 'I' for Inactive)
    1  A    between atoms: N_1  and  C_34
    2  A    between atoms: N_1  and  CA_35
    3  A    between atoms: C_2  and  C_6
    4  A    between atoms: C_2  and  C_13
    5  A    between atoms: C_3  and  C_4
    6  A    between atoms: C_3  and  C_12
    7  A    between atoms: C_6  and  C_12
    8  A    between atoms: N_9  and  S_19
    9  A    between atoms: C_14  and  C_22
   10  A    between atoms: C_28  and  CA_35
   11  A    between atoms: C_32  and  CA_35
                            x       y       z     vdW  Elec       q    Type
                         _______ _______ _______ _____ _____    ______ ____

>  <TORSDO>
F 11

$$$$
=
 OpenBabel11062410033D

 43 47  0  0  1  0  0  0  0  0999 V2000
  161.8950  212.7260  147.8220 C   0  0  0  0  0  0  0  0  0  0  0  0
  159.5700  211.8720  152.2850 C   0  0  2  0  0  3  0  0  0  0  0  0
  160.1070  209.3370  152.9450 C   0  0  2  0  0  3  0  0  0  0  0  0
  160.6970  212.9940  149.9150 C   0  0  0  0  0  0  0  0  0  0  0  0
  162.3600  211.4770  148.2420 C   0  0  0  0  0  3  0  0  0  0  0  0
  162.2500  213.2070  146.6070 F   0  0  0  0  0  0  0  0  0  0  0  0
  161.1380  211.7150  150.3270 C   0  0  0  0  0  0  0  0  0  0  0  0
  161.0660  213.4800  148.6570 C   0  0  0  0  0  3  0  0  0  0  0  0
  161.9900  210.9780  149.4920 C   0  0  0  0  0  3  0  0  0  0  0  0
  160.7420  209.7920  151.7520 O   0  0  0  0  0  0  0  0  0  0  0  0
  160.8230  211.2080  151.7120 C   0  0  2  0  0  3  0  0  0  0  0  0
  159.7250  213.3820  152.2190 C   0  0  0  0  0  2  0  0  0  0  0  0
  159.3910  211.3840  153.7220 C   0  0  2  0  0  3  0  0  0  0  0  0
  160.2150  210.2640  154.0110 O   0  0  0  0  0  0  0  0  0  0  0  0
  159.7520  213.8170  150.7530 C   0  0  0  0  0  2  0  0  0  0  0  0
  160.6830  207.9910  153.3610 C   0  0  2  0  0  3  0  0  0  0  0  0
  161.1830  208.0790  154.6620 O   0  0  0  0  0  1  0  0  0  0  0  0
  161.8040  207.5900  152.4050 C   0  0  0  0  0  2  0  0  0  0  0  0
  162.2890  206.1540  152.6030 C   0  0  2  0  0  3  0  0  0  0  0  0
  163.4040  205.8990  151.8030 O   0  0  0  0  0  1  0  0  0  0  0  0
  161.1980  205.1200  152.3240 C   0  0  0  0  0  2  0  0  0  0  0  0
  161.5250  204.1960  151.1480 C   0  0  1  0  0  3  0  0  0  0  0  0
  161.0020  200.8880  150.2750 C   0  0  0  0  0  1  0  0  0  0  0  0
  161.5090  202.8550  151.5330 O   0  0  0  0  0  0  0  0  0  0  0  0
  160.5470  204.3400  150.0180 C   0  0  2  0  0  3  0  0  0  0  0  0
  160.2450  203.0480  149.6010 O   0  0  0  0  0  0  0  0  0  0  0  0
  160.5270  202.2550  150.7240 C   0  0  1  0  0  3  0  0  0  0  0  0
  161.0770  206.5400  148.9000 C   0  0  0  0  0  3  0  0  0  0  0  0
  161.1290  205.1410  148.8970 C   0  0  0  0  0  0  0  0  0  0  0  0
  162.8760  204.5250  145.6100 C   0  0  0  0  0  1  0  0  0  0  0  0
  162.1890  206.5790  146.7870 N   0  0  0  0  0  0  0  0  0  0  0  0
  162.2470  205.2200  146.7620 C   0  0  0  0  0  0  0  0  0  0  0  0
  161.6200  207.2480  147.8250 C   0  0  0  0  0  3  0  0  0  0  0  0
  161.7150  204.4760  147.8180 C   0  0  0  0  0  3  0  0  0  0  0  0
  157.9880  211.0750  153.9710 N   0  0  0  0  0  2  0  0  0  0  0  0
  157.7680  211.0870  155.4120 C   0  0  2  0  0  3  0  0  0  0  0  0
  155.5860  212.2760  155.1880 N   0  0  0  0  0  0  0  0  0  0  0  0
  156.3310  211.3900  155.7620 C   0  0  0  0  0  3  0  0  0  0  0  0
  156.1010  213.3060  153.8810 S   0  0  1  0  0  0  0  0  0  0  0  0
  154.5710  214.0330  153.2800 C   0  0  0  0  0  1  0  0  0  0  0  0
  156.8070  214.4510  154.5930 O   0  0  0  0  0  0  0  0  0  0  0  0
  158.7410  211.9890  156.1070 C   0  0  0  0  0  3  0  0  0  0  0  0
  159.3080  211.6490  157.1320 O   0  0  0  0  0  0  0  0  0  0  0  0
  1  5  2  0  0  0  0
  1  8  1  0  0  0  0
  2 12  1  1  0  0  0
  2 13  1  0  0  0  0
  3 16  1  1  0  0  0
  3 14  1  0  0  0  0
  4  7  1  0  0  0  0
  4 15  1  0  0  0  0
  5  9  1  0  0  0  0
  6  1  1  0  0  0  0
  8  4  2  0  0  0  0
  9  7  2  0  0  0  0
 10  3  1  0  0  0  0
 11  7  1  6  0  0  0
 11 10  1  0  0  0  0
 11  2  1  0  0  0  0
 13 35  1  6  0  0  0
 13 14  1  0  0  0  0
 15 12  1  0  0  0  0
 16 17  1  1  0  0  0
 18 19  1  0  0  0  0
 18 16  1  0  0  0  0
 19 20  1  6  0  0  0
 21 19  1  0  0  0  0
 22 24  1  0  0  0  0
 22 21  1  1  0  0  0
 25 29  1  6  0  0  0
 25 22  1  0  0  0  0
 26 25  1  0  0  0  0
 26 27  1  0  0  0  0
 27 23  1  6  0  0  0
 27 24  1  0  0  0  0
 29 28  1  0  0  0  0
 30 32  1  0  0  0  0
 31 33  1  0  0  0  0
 32 31  2  0  0  0  0
 32 34  1  0  0  0  0
 33 28  2  0  0  0  0
 34 29  2  0  0  0  0
 35 36  1  0  0  0  0
 36 38  1  6  0  0  0
 36 42  1  0  0  0  0
 37 38  2  0  0  0  0
 39 40  1  1  0  0  0
 39 41  2  0  0  0  0
 39 37  1  0  0  0  0
 42 43  2  0  0  0  0
M  END
>  <MODEL>
6

>  <REMARK>
 VINA RESULT:      -7.0      3.548      7.941
  Name = 
  11 active torsions:
  status: ('A' for Active; 'I' for Inactive)
    1  A    between atoms: N_1  and  C_34
    2  A    between atoms: N_1  and  CA_35
    3  A    between atoms: C_2  and  C_6
    4  A    between atoms: C_2  and  C_13
    5  A    between atoms: C_3  and  C_4
    6  A    between atoms: C_3  and  C_12
    7  A    between atoms: C_6  and  C_12
    8  A    between atoms: N_9  and  S_19
    9  A    between atoms: C_14  and  C_22
   10  A    between atoms: C_28  and  CA_35
   11  A    between atoms: C_32  and  CA_35
                            x       y       z     vdW  Elec       q    Type
                         _______ _______ _______ _____ _____    ______ ____

>  <TORSDO>
F 11

$$$$
=
 OpenBabel11062410033D

 43 47  0  0  1  0  0  0  0  0999 V2000
  160.8310  202.8470  148.7620 C   0  0  0  0  0  0  0  0  0  0  0  0
  161.6740  207.8800  148.7160 C   0  0  2  0  0  3  0  0  0  0  0  0
  161.1530  208.7570  151.1880 C   0  0  2  0  0  3  0  0  0  0  0  0
  161.4900  205.0930  148.1270 C   0  0  0  0  0  0  0  0  0  0  0  0
  160.7550  203.2400  150.1000 C   0  0  0  0  0  3  0  0  0  0  0  0
  160.5510  201.5670  148.4160 F   0  0  0  0  0  0  0  0  0  0  0  0
  161.3810  205.5030  149.4770 C   0  0  0  0  0  0  0  0  0  0  0  0
  161.1960  203.7710  147.7810 C   0  0  0  0  0  3  0  0  0  0  0  0
  161.0380  204.5600  150.4570 C   0  0  0  0  0  3  0  0  0  0  0  0
  161.0480  207.3450  151.0200 O   0  0  0  0  0  0  0  0  0  0  0  0
  161.7750  206.8990  149.8860 C   0  0  2  0  0  3  0  0  0  0  0  0
  162.4780  207.3480  147.5420 C   0  0  0  0  0  2  0  0  0  0  0  0
  162.1940  209.2370  149.1910 C   0  0  2  0  0  3  0  0  0  0  0  0
  162.3270  209.2930  150.6030 O   0  0  0  0  0  0  0  0  0  0  0  0
  161.8210  206.0680  147.0260 C   0  0  0  0  0  2  0  0  0  0  0  0
  161.0960  209.1110  152.6680 C   0  0  2  0  0  3  0  0  0  0  0  0
  160.7480  207.9770  153.4060 O   0  0  0  0  0  1  0  0  0  0  0  0
  160.0660  210.2130  152.8980 C   0  0  0  0  0  2  0  0  0  0  0  0
  160.4730  211.2120  153.9810 C   0  0  2  0  0  3  0  0  0  0  0  0
  160.3160  210.6500  155.2490 O   0  0  0  0  0  1  0  0  0  0  0  0
  159.6980  212.5260  153.8920 C   0  0  0  0  0  2  0  0  0  0  0  0
  158.2100  212.3760  154.2220 C   0  0  1  0  0  3  0  0  0  0  0  0
  156.2520  211.8970  157.0360 C   0  0  0  0  0  1  0  0  0  0  0  0
  158.0210  211.7210  155.4390 O   0  0  0  0  0  0  0  0  0  0  0  0
  157.5110  213.7000  154.3230 C   0  0  2  0  0  3  0  0  0  0  0  0
  156.7030  213.6250  155.4530 O   0  0  0  0  0  0  0  0  0  0  0  0
  157.3100  212.6340  156.2390 C   0  0  1  0  0  3  0  0  0  0  0  0
  155.3120  214.1840  153.1810 C   0  0  0  0  0  3  0  0  0  0  0  0
  156.6950  213.9770  153.1010 C   0  0  0  0  0  0  0  0  0  0  0  0
  157.2210  214.2850  149.3770 C   0  0  0  0  0  1  0  0  0  0  0  0
  155.2220  214.4510  150.8100 N   0  0  0  0  0  0  0  0  0  0  0  0
  156.5630  214.2490  150.7090 C   0  0  0  0  0  0  0  0  0  0  0  0
  154.5860  214.4240  152.0110 C   0  0  0  0  0  3  0  0  0  0  0  0
  157.3240  214.0050  151.8550 C   0  0  0  0  0  3  0  0  0  0  0  0
  161.3210  210.3000  148.7080 N   0  0  0  0  0  2  0  0  0  0  0  0
  161.9460  211.5790  149.0200 C   0  0  2  0  0  3  0  0  0  0  0  0
  160.2000  213.0910  148.0750 N   0  0  0  0  0  0  0  0  0  0  0  0
  160.9400  212.7060  149.0610 C   0  0  0  0  0  3  0  0  0  0  0  0
  160.2170  212.3780  146.4860 S   0  0  1  0  0  0  0  0  0  0  0  0
  158.5360  212.6100  145.8940 C   0  0  0  0  0  1  0  0  0  0  0  0
  161.0420  213.3610  145.6680 O   0  0  0  0  0  0  0  0  0  0  0  0
  163.1010  211.8610  148.1080 C   0  0  0  0  0  3  0  0  0  0  0  0
  163.4830  213.0000  147.8940 O   0  0  0  0  0  0  0  0  0  0  0  0
  1  5  1  0  0  0  0
  2 12  1  6  0  0  0
  2 13  1  0  0  0  0
  2 11  1  0  0  0  0
  3 16  1  1  0  0  0
  4  7  2  0  0  0  0
  5  9  2  0  0  0  0
  6  1  1  0  0  0  0
  7  9  1  0  0  0  0
  8  4  1  0  0  0  0
  8  1  2  0  0  0  0
 10  3  1  0  0  0  0
 11  7  1  6  0  0  0
 11 10  1  0  0  0  0
 13 35  1  1  0  0  0
 13 14  1  0  0  0  0
 14  3  1  0  0  0  0
 15 12  1  0  0  0  0
 15  4  1  0  0  0  0
 16 18  1  0  0  0  0
 16 17  1  1  0  0  0
 18 19  1  0  0  0  0
 19 20  1  1  0  0  0
 21 19  1  0  0  0  0
 22 21  1  1  0  0  0
 22 25  1  0  0  0  0
 22 24  1  0  0  0  0
 24 27  1  0  0  0  0
 25 29  1  6  0  0  0
 25 26  1  0  0  0  0
 26 27  1  0  0  0  0
 27 23  1  6  0  0  0
 29 28  1  0  0  0  0
 30 32  1  0  0  0  0
 31 33  1  0  0  0  0
 32 31  2  0  0  0  0
 32 34  1  0  0  0  0
 33 28  2  0  0  0  0
 34 29  2  0  0  0  0
 35 36  1  0  0  0  0
 36 42  1  6  0  0  0
 36 38  1  0  0  0  0
 37 38  2  0  0  0  0
 39 40  1  6  0  0  0
 39 37  1  0  0  0  0
 41 39  2  0  0  0  0
 43 42  2  0  0  0  0
M  END
>  <MODEL>
7

>  <REMARK>
 VINA RESULT:      -6.9      2.602      6.538
  Name = 
  11 active torsions:
  status: ('A' for Active; 'I' for Inactive)
    1  A    between atoms: N_1  and  C_34
    2  A    between atoms: N_1  and  CA_35
    3  A    between atoms: C_2  and  C_6
    4  A    between atoms: C_2  and  C_13
    5  A    between atoms: C_3  and  C_4
    6  A    between atoms: C_3  and  C_12
    7  A    between atoms: C_6  and  C_12
    8  A    between atoms: N_9  and  S_19
    9  A    between atoms: C_14  and  C_22
   10  A    between atoms: C_28  and  CA_35
   11  A    between atoms: C_32  and  CA_35
                            x       y       z     vdW  Elec       q    Type
                         _______ _______ _______ _____ _____    ______ ____

>  <TORSDO>
F 11

$$$$
=
 OpenBabel11062410033D

 43 47  0  0  1  0  0  0  0  0999 V2000
  159.7830  211.1760  155.7570 C   0  0  0  0  0  0  0  0  0  0  0  0
  160.9070  207.3680  152.5500 C   0  0  2  0  0  3  0  0  0  0  0  0
  161.4210  208.5000  150.1820 C   0  0  2  0  0  3  0  0  0  0  0  0
  160.3140  209.0060  154.8100 C   0  0  0  0  0  0  0  0  0  0  0  0
  160.2470  211.8020  154.5970 C   0  0  0  0  0  3  0  0  0  0  0  0
  159.3020  211.9210  156.7810 F   0  0  0  0  0  0  0  0  0  0  0  0
  160.7520  209.6360  153.6210 C   0  0  0  0  0  0  0  0  0  0  0  0
  159.8160  209.7840  155.8610 C   0  0  0  0  0  3  0  0  0  0  0  0
  160.7370  211.0360  153.5380 C   0  0  0  0  0  3  0  0  0  0  0  0
  161.1590  209.4190  151.2400 O   0  0  0  0  0  0  0  0  0  0  0  0
  161.3710  208.8250  152.5110 C   0  0  2  0  0  3  0  0  0  0  0  0
  161.1680  206.7930  153.9310 C   0  0  0  0  0  2  0  0  0  0  0  0
  161.6640  206.6020  151.4650 C   0  0  2  0  0  3  0  0  0  0  0  0
  162.3230  207.4730  150.5590 O   0  0  0  0  0  0  0  0  0  0  0  0
  160.2740  207.5060  154.9460 C   0  0  0  0  0  2  0  0  0  0  0  0
  161.9530  209.2440  148.9650 C   0  0  2  0  0  3  0  0  0  0  0  0
  163.1060  208.6090  148.4960 O   0  0  0  0  0  1  0  0  0  0  0  0
  162.2780  210.6880  149.3420 C   0  0  0  0  0  2  0  0  0  0  0  0
  161.6120  211.7190  148.4320 C   0  0  2  0  0  3  0  0  0  0  0  0
  160.9060  212.6570  149.1880 O   0  0  0  0  0  1  0  0  0  0  0  0
  160.6870  211.0810  147.3960 C   0  0  0  0  0  2  0  0  0  0  0  0
  160.0430  212.0970  146.4500 C   0  0  1  0  0  3  0  0  0  0  0  0
  157.5040  214.4470  146.5670 C   0  0  0  0  0  1  0  0  0  0  0  0
  158.7520  212.4300  146.8620 O   0  0  0  0  0  0  0  0  0  0  0  0
  160.8220  213.3770  146.3690 C   0  0  2  0  0  3  0  0  0  0  0  0
  159.8860  214.4040  146.4340 O   0  0  0  0  0  0  0  0  0  0  0  0
  158.7850  213.8200  147.0790 C   0  0  1  0  0  3  0  0  0  0  0  0
  163.0080  213.5480  145.1180 C   0  0  0  0  0  3  0  0  0  0  0  0
  161.6110  213.4520  145.1010 C   0  0  0  0  0  0  0  0  0  0  0  0
  160.9620  213.5290  141.3850 C   0  0  0  0  0  1  0  0  0  0  0  0
  163.0250  213.6220  142.7310 N   0  0  0  0  0  0  0  0  0  0  0  0
  161.6680  213.5340  142.6920 C   0  0  0  0  0  0  0  0  0  0  0  0
  163.7030  213.6310  143.9090 C   0  0  0  0  0  3  0  0  0  0  0  0
  160.9360  213.4500  143.8780 C   0  0  0  0  0  3  0  0  0  0  0  0
  160.7520  205.7100  150.7580 N   0  0  0  0  0  2  0  0  0  0  0  0
  161.4670  204.4770  150.4530 C   0  0  2  0  0  3  0  0  0  0  0  0
  160.8830  204.0320  148.0690 N   0  0  0  0  0  0  0  0  0  0  0  0
  160.8230  203.7150  149.3200 C   0  0  0  0  0  3  0  0  0  0  0  0
  161.7280  205.4180  147.4380 S   0  0  1  0  0  0  0  0  0  0  0  0
  162.0460  204.9820  145.7240 C   0  0  0  0  0  1  0  0  0  0  0  0
  160.6460  206.4850  147.3600 O   0  0  0  0  0  0  0  0  0  0  0  0
  161.6640  203.6410  151.6810 C   0  0  0  0  0  3  0  0  0  0  0  0
  160.7290  203.0830  152.2320 O   0  0  0  0  0  0  0  0  0  0  0  0
  1  8  1  0  0  0  0
  1  6  1  0  0  0  0
  2 12  1  1  0  0  0
  3 16  1  6  0  0  0
  3 14  1  0  0  0  0
  3 10  1  0  0  0  0
  4 15  1  0  0  0  0
  4  8  2  0  0  0  0
  5  1  2  0  0  0  0
  7  4  1  0  0  0  0
  9  7  2  0  0  0  0
  9  5  1  0  0  0  0
 11 10  1  6  0  0  0
 11  2  1  0  0  0  0
 11  7  1  0  0  0  0
 12 15  1  0  0  0  0
 13 35  1  6  0  0  0
 13  2  1  0  0  0  0
 14 13  1  0  0  0  0
 16 17  1  1  0  0  0
 16 18  1  0  0  0  0
 19 20  1  1  0  0  0
 19 18  1  0  0  0  0
 21 19  1  0  0  0  0
 22 24  1  0  0  0  0
 22 21  1  1  0  0  0
 24 27  1  0  0  0  0
 25 29  1  6  0  0  0
 25 26  1  0  0  0  0
 25 22  1  0  0  0  0
 26 27  1  0  0  0  0
 27 23  1  6  0  0  0
 29 28  1  0  0  0  0
 30 32  1  0  0  0  0
 31 33  1  0  0  0  0
 32 31  2  0  0  0  0
 32 34  1  0  0  0  0
 33 28  2  0  0  0  0
 34 29  2  0  0  0  0
 36 38  1  6  0  0  0
 36 35  1  0  0  0  0
 36 42  1  0  0  0  0
 37 38  2  0  0  0  0
 39 40  1  6  0  0  0
 39 37  1  0  0  0  0
 41 39  2  0  0  0  0
 42 43  2  0  0  0  0
M  END
>  <MODEL>
8

>  <REMARK>
 VINA RESULT:      -6.7      3.536      6.438
  Name = 
  11 active torsions:
  status: ('A' for Active; 'I' for Inactive)
    1  A    between atoms: N_1  and  C_34
    2  A    between atoms: N_1  and  CA_35
    3  A    between atoms: C_2  and  C_6
    4  A    between atoms: C_2  and  C_13
    5  A    between atoms: C_3  and  C_4
    6  A    between atoms: C_3  and  C_12
    7  A    between atoms: C_6  and  C_12
    8  A    between atoms: N_9  and  S_19
    9  A    between atoms: C_14  and  C_22
   10  A    between atoms: C_28  and  CA_35
   11  A    between atoms: C_32  and  CA_35
                            x       y       z     vdW  Elec       q    Type
                         _______ _______ _______ _____ _____    ______ ____

>  <TORSDO>
F 11

$$$$
=
 OpenBabel11062410033D

 43 47  0  0  1  0  0  0  0  0999 V2000
  160.4780  208.0750  155.9410 C   0  0  0  0  0  0  0  0  0  0  0  0
  161.2450  210.3290  151.4270 C   0  0  2  0  0  3  0  0  0  0  0  0
  162.2570  208.4560  149.8090 C   0  0  2  0  0  3  0  0  0  0  0  0
  160.4910  209.6480  154.0940 C   0  0  0  0  0  0  0  0  0  0  0  0
  160.8050  207.0360  155.0670 C   0  0  0  0  0  3  0  0  0  0  0  0
  160.3090  207.8210  157.2610 F   0  0  0  0  0  0  0  0  0  0  0  0
  160.8570  208.6030  153.2120 C   0  0  0  0  0  0  0  0  0  0  0  0
  160.3230  209.3750  155.4550 C   0  0  0  0  0  3  0  0  0  0  0  0
  160.9850  207.2980  153.7070 C   0  0  0  0  0  3  0  0  0  0  0  0
  161.9000  207.9930  151.1090 O   0  0  0  0  0  0  0  0  0  0  0  0
  160.9610  208.8560  151.7300 C   0  0  2  0  0  3  0  0  0  0  0  0
  160.2020  211.1950  152.1130 C   0  0  0  0  0  2  0  0  0  0  0  0
  161.2230  210.5120  149.9090 C   0  0  2  0  0  3  0  0  0  0  0  0
  161.2560  209.2700  149.2220 O   0  0  0  0  0  0  0  0  0  0  0  0
  160.3730  211.0760  153.6270 C   0  0  0  0  0  2  0  0  0  0  0  0
  162.5680  207.2730  148.9020 C   0  0  2  0  0  3  0  0  0  0  0  0
  163.4380  207.6790  147.8860 O   0  0  0  0  0  1  0  0  0  0  0  0
  161.2770  206.7360  148.2910 C   0  0  0  0  0  2  0  0  0  0  0  0
  161.3800  206.4640  146.7900 C   0  0  2  0  0  3  0  0  0  0  0  0
  160.1250  206.5640  146.1870 O   0  0  0  0  0  1  0  0  0  0  0  0
  162.0020  205.1030  146.4800 C   0  0  0  0  0  2  0  0  0  0  0  0
  161.0260  203.9360  146.6530 C   0  0  1  0  0  3  0  0  0  0  0  0
  159.6580  201.4340  144.6910 C   0  0  0  0  0  1  0  0  0  0  0  0
  160.4600  203.5590  145.4350 O   0  0  0  0  0  0  0  0  0  0  0  0
  161.6890  202.7160  147.2260 C   0  0  2  0  0  3  0  0  0  0  0  0
  161.2210  201.6380  146.4820 O   0  0  0  0  0  0  0  0  0  0  0  0
  160.8270  202.2110  145.2640 C   0  0  1  0  0  3  0  0  0  0  0  0
  161.1260  201.2840  149.2270 C   0  0  0  0  0  3  0  0  0  0  0  0
  161.3580  202.5500  148.6750 C   0  0  0  0  0  0  0  0  0  0  0  0
  160.8240  204.7310  151.7070 C   0  0  0  0  0  1  0  0  0  0  0  0
  160.7160  202.2940  151.3520 N   0  0  0  0  0  0  0  0  0  0  0  0
  160.9330  203.5340  150.8350 C   0  0  0  0  0  0  0  0  0  0  0  0
  160.8050  201.1770  150.5820 C   0  0  0  0  0  3  0  0  0  0  0  0
  161.2560  203.6830  149.4840 C   0  0  0  0  0  3  0  0  0  0  0  0
  162.3320  211.3640  149.4960 N   0  0  0  0  0  2  0  0  0  0  0  0
  161.8030  212.4070  148.6250 C   0  0  2  0  0  3  0  0  0  0  0  0
  162.7070  213.2090  146.4420 N   0  0  0  0  0  0  0  0  0  0  0  0
  162.8610  212.9630  147.7010 C   0  0  0  0  0  3  0  0  0  0  0  0
  161.2320  212.9440  145.5540 S   0  0  1  0  0  0  0  0  0  0  0  0
  160.2940  214.4530  145.8230 C   0  0  0  0  0  1  0  0  0  0  0  0
  161.6760  213.0310  144.1010 O   0  0  0  0  0  0  0  0  0  0  0  0
  161.0970  213.4700  149.4110 C   0  0  0  0  0  3  0  0  0  0  0  0
  159.9620  213.8220  149.1330 O   0  0  0  0  0  0  0  0  0  0  0  0
  1  6  1  0  0  0  0
  2 11  1  0  0  0  0
  2 12  1  1  0  0  0
  3 16  1  6  0  0  0
  3 10  1  0  0  0  0
  4  8  2  0  0  0  0
  5  1  2  0  0  0  0
  7  9  2  0  0  0  0
  7  4  1  0  0  0  0
  8  1  1  0  0  0  0
  9  5  1  0  0  0  0
 11 10  1  1  0  0  0
 11  7  1  0  0  0  0
 12 15  1  0  0  0  0
 13 35  1  6  0  0  0
 13  2  1  0  0  0  0
 14  3  1  0  0  0  0
 14 13  1  0  0  0  0
 15  4  1  0  0  0  0
 16 17  1  6  0  0  0
 18 16  1  0  0  0  0
 19 20  1  1  0  0  0
 19 18  1  0  0  0  0
 21 19  1  0  0  0  0
 22 21  1  6  0  0  0
 22 25  1  0  0  0  0
 24 22  1  0  0  0  0
 25 29  1  1  0  0  0
 26 25  1  0  0  0  0
 27 23  1  1  0  0  0
 27 24  1  0  0  0  0
 27 26  1  0  0  0  0
 28 33  1  0  0  0  0
 29 28  2  0  0  0  0
 29 34  1  0  0  0  0
 32 31  1  0  0  0  0
 32 30  1  0  0  0  0
 33 31  2  0  0  0  0
 34 32  2  0  0  0  0
 36 38  1  1  0  0  0
 36 42  1  0  0  0  0
 36 35  1  0  0  0  0
 37 38  2  0  0  0  0
 39 40  1  1  0  0  0
 39 37  1  0  0  0  0
 41 39  2  0  0  0  0
 43 42  2  0  0  0  0
M  END
>  <MODEL>
9

>  <REMARK>
 VINA RESULT:      -6.7      3.621      8.891
  Name = 
  11 active torsions:
  status: ('A' for Active; 'I' for Inactive)
    1  A    between atoms: N_1  and  C_34
    2  A    between atoms: N_1  and  CA_35
    3  A    between atoms: C_2  and  C_6
    4  A    between atoms: C_2  and  C_13
    5  A    between atoms: C_3  and  C_4
    6  A    between atoms: C_3  and  C_12
    7  A    between atoms: C_6  and  C_12
    8  A    between atoms: N_9  and  S_19
    9  A    between atoms: C_14  and  C_22
   10  A    between atoms: C_28  and  CA_35
   11  A    between atoms: C_32  and  CA_35
                            x       y       z     vdW  Elec       q    Type
                         _______ _______ _______ _____ _____    ______ ____

>  <TORSDO>
F 11

$$$$
