=
 OpenBabel11052423133D

 27 30  0  0  1  0  0  0  0  0999 V2000
  161.1400  205.9470  149.7540 C   0  0  2  0  0  3  0  0  0  0  0  0
  161.0910  206.7940  150.9480 N   0  0  0  0  0  0  0  0  0  0  0  0
  161.5040  208.8420  149.9520 O   0  0  0  0  0  0  0  0  0  0  0  0
  161.0130  208.7030  155.0210 C   0  0  0  0  0  3  0  0  0  0  0  0
  161.3770  211.0660  154.9080 F   0  0  0  0  0  0  0  0  0  0  0  0
  160.9180  206.3480  152.1900 N   0  0  0  0  0  2  0  0  0  0  0  0
  161.3680  209.8120  152.8690 C   0  0  0  0  0  0  0  0  0  0  0  0
  161.6040  210.9260  152.1310 F   0  0  0  0  0  0  0  0  0  0  0  0
  161.2310  208.5630  152.2690 C   0  0  0  0  0  0  0  0  0  0  0  0
  161.2540  209.8770  154.2700 C   0  0  0  0  0  0  0  0  0  0  0  0
  160.9970  207.4240  152.9980 C   0  0  0  0  0  0  0  0  0  0  0  0
  161.2910  208.1290  150.9690 C   0  0  0  0  0  0  0  0  0  0  0  0
  160.8820  207.4530  154.3850 C   0  0  0  0  0  3  0  0  0  0  0  0
  160.9890  201.7210  150.5590 C   0  0  0  0  0  3  0  0  0  0  0  0
  161.0870  204.4780  150.0620 C   0  0  0  0  0  0  0  0  0  0  0  0
  161.4850  203.9690  151.3070 C   0  0  0  0  0  3  0  0  0  0  0  0
  161.4350  202.5940  151.5550 C   0  0  0  0  0  3  0  0  0  0  0  0
  160.5950  202.2230  149.3150 C   0  0  0  0  0  3  0  0  0  0  0  0
  160.6450  203.5980  149.0680 C   0  0  0  0  0  3  0  0  0  0  0  0
  162.2520  206.3530  148.7750 C   0  0  0  0  0  2  0  0  0  0  0  0
  160.9010  205.3860  144.4210 C   0  0  0  0  0  2  0  0  0  0  0  0
  161.5240  204.1190  144.9570 C   0  0  0  0  0  2  0  0  0  0  0  0
  162.0110  205.9210  147.3650 C   0  0  0  0  0  0  0  0  0  0  0  0
  160.2800  206.2050  145.5030 C   0  0  0  0  0  3  0  0  0  0  0  0
  162.9020  204.4790  145.4580 C   0  0  0  0  0  2  0  0  0  0  0  0
  162.8810  205.0450  146.8420 C   0  0  0  0  0  3  0  0  0  0  0  0
  160.7750  206.4340  146.7240 C   0  0  0  0  0  3  0  0  0  0  0  0
  1 20  1  1  0  0  0
  1 15  1  0  0  0  0
  1  2  1  0  0  0  0
  2 12  1  0  0  0  0
  2  6  1  0  0  0  0
  3 12  2  0  0  0  0
  6 11  1  0  0  0  0
  7 10  1  0  0  0  0
  8  7  1  0  0  0  0
  9  7  2  0  0  0  0
  9 11  1  0  0  0  0
 10  5  1  0  0  0  0
 10  4  2  0  0  0  0
 11 13  2  0  0  0  0
 12  9  1  0  0  0  0
 13  4  1  0  0  0  0
 14 17  1  0  0  0  0
 15 16  1  0  0  0  0
 16 17  2  0  0  0  0
 18 14  2  0  0  0  0
 19 18  1  0  0  0  0
 19 15  2  0  0  0  0
 21 22  1  0  0  0  0
 21 24  1  0  0  0  0
 22 25  1  0  0  0  0
 23 20  1  0  0  0  0
 24 27  2  0  0  0  0
 25 26  1  0  0  0  0
 26 23  2  0  0  0  0
 27 23  1  0  0  0  0
M  END
>  <MODEL>
1

>  <REMARK>
 VINA RESULT:     -10.2      0.000      0.000
  Name = 
  4 active torsions:
  status: ('A' for Active; 'I' for Inactive)
    1  A    between atoms: C_1  and  C_15
    2  A    between atoms: C_1  and  C_18
    3  A    between atoms: N_2  and  C_15
    4  A    between atoms: C_9  and  C_15
                            x       y       z     vdW  Elec       q    Type
                         _______ _______ _______ _____ _____    ______ ____

>  <TORSDO>
F 4

$$$$
=
 OpenBabel11052423133D

 27 30  0  0  1  0  0  0  0  0999 V2000
  160.9490  206.0160  149.8840 C   0  0  2  0  0  3  0  0  0  0  0  0
  160.9770  206.8140  151.1110 N   0  0  0  0  0  0  0  0  0  0  0  0
  161.4360  208.8830  150.1810 O   0  0  0  0  0  0  0  0  0  0  0  0
  161.1280  208.5560  155.2570 C   0  0  0  0  0  3  0  0  0  0  0  0
  161.5820  210.9060  155.2230 F   0  0  0  0  0  0  0  0  0  0  0  0
  160.8330  206.3240  152.3400 N   0  0  0  0  0  2  0  0  0  0  0  0
  161.4470  209.7380  153.1380 C   0  0  0  0  0  0  0  0  0  0  0  0
  161.6990  210.8710  152.4360 F   0  0  0  0  0  0  0  0  0  0  0  0
  161.2380  208.5200  152.4950 C   0  0  0  0  0  0  0  0  0  0  0  0
  161.3870  209.7490  154.5440 C   0  0  0  0  0  0  0  0  0  0  0  0
  160.9850  207.3630  153.1870 C   0  0  0  0  0  0  0  0  0  0  0  0
  161.2320  208.1390  151.1770 C   0  0  0  0  0  0  0  0  0  0  0  0
  160.9230  207.3390  154.5770 C   0  0  0  0  0  3  0  0  0  0  0  0
  161.0270  201.7860  150.6810 C   0  0  0  0  0  3  0  0  0  0  0  0
  160.9740  204.5350  150.1340 C   0  0  0  0  0  0  0  0  0  0  0  0
  160.4720  203.6180  149.1990 C   0  0  0  0  0  3  0  0  0  0  0  0
  160.4990  202.2470  149.4710 C   0  0  0  0  0  3  0  0  0  0  0  0
  161.5250  202.6960  151.6170 C   0  0  0  0  0  3  0  0  0  0  0  0
  161.4970  204.0660  151.3450 C   0  0  0  0  0  3  0  0  0  0  0  0
  161.9530  206.5000  148.8280 C   0  0  0  0  0  2  0  0  0  0  0  0
  161.8050  204.5160  144.6130 C   0  0  0  0  0  2  0  0  0  0  0  0
  161.1910  205.8860  144.4530 C   0  0  0  0  0  2  0  0  0  0  0  0
  161.7020  205.9640  147.4550 C   0  0  0  0  0  0  0  0  0  0  0  0
  162.8300  204.4870  145.6980 C   0  0  0  0  0  3  0  0  0  0  0  0
  160.0900  206.0030  145.4790 C   0  0  0  0  0  2  0  0  0  0  0  0
  160.6000  206.3980  146.8280 C   0  0  0  0  0  3  0  0  0  0  0  0
  162.7560  205.0840  146.8930 C   0  0  0  0  0  3  0  0  0  0  0  0
  1 20  1  6  0  0  0
  1 15  1  0  0  0  0
  1  2  1  0  0  0  0
  2 12  1  0  0  0  0
  2  6  1  0  0  0  0
  3 12  2  0  0  0  0
  6 11  1  0  0  0  0
  7 10  1  0  0  0  0
  8  7  1  0  0  0  0
  9  7  2  0  0  0  0
  9 11  1  0  0  0  0
 10  5  1  0  0  0  0
 10  4  2  0  0  0  0
 11 13  2  0  0  0  0
 12  9  1  0  0  0  0
 13  4  1  0  0  0  0
 14 18  1  0  0  0  0
 15 19  1  0  0  0  0
 16 17  1  0  0  0  0
 16 15  2  0  0  0  0
 17 14  2  0  0  0  0
 19 18  2  0  0  0  0
 21 24  1  0  0  0  0
 22 21  1  0  0  0  0
 22 25  1  0  0  0  0
 23 20  1  0  0  0  0
 24 27  2  0  0  0  0
 25 26  1  0  0  0  0
 26 23  2  0  0  0  0
 27 23  1  0  0  0  0
M  END
>  <MODEL>
2

>  <REMARK>
 VINA RESULT:      -9.6      0.286      1.519
  Name = 
  4 active torsions:
  status: ('A' for Active; 'I' for Inactive)
    1  A    between atoms: C_1  and  C_15
    2  A    between atoms: C_1  and  C_18
    3  A    between atoms: N_2  and  C_15
    4  A    between atoms: C_9  and  C_15
                            x       y       z     vdW  Elec       q    Type
                         _______ _______ _______ _____ _____    ______ ____

>  <TORSDO>
F 4

$$$$
=
 OpenBabel11052423133D

 27 30  0  0  1  0  0  0  0  0999 V2000
  161.0490  206.9910  151.4780 C   0  0  2  0  0  3  0  0  0  0  0  0
  161.0210  205.7790  150.6560 N   0  0  0  0  0  0  0  0  0  0  0  0
  160.6650  204.2200  152.3290 O   0  0  0  0  0  0  0  0  0  0  0  0
  161.2710  202.5200  147.5640 C   0  0  0  0  0  3  0  0  0  0  0  0
  160.9650  200.3500  148.5260 F   0  0  0  0  0  0  0  0  0  0  0  0
  161.2290  205.7470  149.3420 N   0  0  0  0  0  2  0  0  0  0  0  0
  160.8730  202.2610  149.9650 C   0  0  0  0  0  0  0  0  0  0  0  0
  160.6500  201.4850  151.0550 F   0  0  0  0  0  0  0  0  0  0  0  0
  160.9530  203.6470  150.0680 C   0  0  0  0  0  0  0  0  0  0  0  0
  161.0340  201.6940  148.6870 C   0  0  0  0  0  0  0  0  0  0  0  0
  161.1830  204.4490  148.9790 C   0  0  0  0  0  0  0  0  0  0  0  0
  160.8590  204.5210  151.1210 C   0  0  0  0  0  0  0  0  0  0  0  0
  161.3490  203.9200  147.7020 C   0  0  0  0  0  3  0  0  0  0  0  0
  162.1830  210.5560  149.3500 C   0  0  0  0  0  3  0  0  0  0  0  0
  161.4360  208.2230  150.7120 C   0  0  0  0  0  0  0  0  0  0  0  0
  161.7030  208.1840  149.3350 C   0  0  0  0  0  3  0  0  0  0  0  0
  162.0750  209.3470  148.6560 C   0  0  0  0  0  3  0  0  0  0  0  0
  161.9220  210.5990  150.7220 C   0  0  0  0  0  3  0  0  0  0  0  0
  161.5510  209.4350  151.4000 C   0  0  0  0  0  3  0  0  0  0  0  0
  161.8030  206.8010  152.8030 C   0  0  0  0  0  2  0  0  0  0  0  0
  160.0240  209.3190  156.2990 C   0  0  0  0  0  2  0  0  0  0  0  0
  160.3120  207.9510  156.8720 C   0  0  0  0  0  2  0  0  0  0  0  0
  161.1250  207.4170  153.9850 C   0  0  0  0  0  0  0  0  0  0  0  0
  160.9580  209.6670  155.1880 C   0  0  0  0  0  3  0  0  0  0  0  0
  159.6180  206.9430  155.9870 C   0  0  0  0  0  2  0  0  0  0  0  0
  160.4190  206.5950  154.7740 C   0  0  0  0  0  3  0  0  0  0  0  0
  161.3890  208.8590  154.2140 C   0  0  0  0  0  3  0  0  0  0  0  0
  1 20  1  1  0  0  0
  2 12  1  0  0  0  0
  2  1  1  0  0  0  0
  4 13  2  0  0  0  0
  4 10  1  0  0  0  0
  5 10  1  0  0  0  0
  6  2  1  0  0  0  0
  7  9  1  0  0  0  0
  7  8  1  0  0  0  0
  9 12  1  0  0  0  0
 10  7  2  0  0  0  0
 11  6  1  0  0  0  0
 11  9  2  0  0  0  0
 12  3  2  0  0  0  0
 13 11  1  0  0  0  0
 14 18  1  0  0  0  0
 15 19  1  0  0  0  0
 15  1  1  0  0  0  0
 16 15  2  0  0  0  0
 17 16  1  0  0  0  0
 17 14  2  0  0  0  0
 18 19  2  0  0  0  0
 20 23  1  0  0  0  0
 21 22  1  0  0  0  0
 23 27  1  0  0  0  0
 23 26  2  0  0  0  0
 24 21  1  0  0  0  0
 25 22  1  0  0  0  0
 26 25  1  0  0  0  0
 27 24  2  0  0  0  0
M  END
>  <MODEL>
3

>  <REMARK>
 VINA RESULT:      -8.7      3.369      7.943
  Name = 
  4 active torsions:
  status: ('A' for Active; 'I' for Inactive)
    1  A    between atoms: C_1  and  C_15
    2  A    between atoms: C_1  and  C_18
    3  A    between atoms: N_2  and  C_15
    4  A    between atoms: C_9  and  C_15
                            x       y       z     vdW  Elec       q    Type
                         _______ _______ _______ _____ _____    ______ ____

>  <TORSDO>
F 4

$$$$
=
 OpenBabel11052423133D

 27 30  0  0  1  0  0  0  0  0999 V2000
  161.2960  206.3360  149.8290 C   0  0  2  0  0  3  0  0  0  0  0  0
  161.3780  207.2270  150.9880 N   0  0  0  0  0  0  0  0  0  0  0  0
  160.3270  205.8790  152.5490 O   0  0  0  0  0  0  0  0  0  0  0  0
  161.7930  210.5360  154.0080 C   0  0  0  0  0  3  0  0  0  0  0  0
  160.8850  209.9230  156.1370 F   0  0  0  0  0  0  0  0  0  0  0  0
  161.8810  208.4580  150.9670 N   0  0  0  0  0  2  0  0  0  0  0  0
  160.7910  208.3290  154.3520 C   0  0  0  0  0  0  0  0  0  0  0  0
  160.1720  207.4160  155.1410 F   0  0  0  0  0  0  0  0  0  0  0  0
  161.0920  208.0510  153.0210 C   0  0  0  0  0  0  0  0  0  0  0  0
  161.1520  209.5960  154.8490 C   0  0  0  0  0  0  0  0  0  0  0  0
  161.7140  208.9620  152.2060 C   0  0  0  0  0  0  0  0  0  0  0  0
  160.8870  206.9580  152.2170 C   0  0  0  0  0  0  0  0  0  0  0  0
  162.0820  210.2240  152.6650 C   0  0  0  0  0  3  0  0  0  0  0  0
  161.1230  202.1490  150.8120 C   0  0  0  0  0  3  0  0  0  0  0  0
  161.2440  204.8810  150.1980 C   0  0  0  0  0  0  0  0  0  0  0  0
  161.9790  204.3640  151.2760 C   0  0  0  0  0  3  0  0  0  0  0  0
  161.9180  203.0020  151.5830 C   0  0  0  0  0  3  0  0  0  0  0  0
  160.3920  202.6570  149.7350 C   0  0  0  0  0  3  0  0  0  0  0  0
  160.4540  204.0190  149.4290 C   0  0  0  0  0  3  0  0  0  0  0  0
  162.3160  206.6790  148.7330 C   0  0  0  0  0  2  0  0  0  0  0  0
  160.7670  205.1820  144.6000 C   0  0  0  0  0  2  0  0  0  0  0  0
  161.3950  203.9840  145.2710 C   0  0  0  0  0  2  0  0  0  0  0  0
  162.0090  206.0730  147.4020 C   0  0  0  0  0  0  0  0  0  0  0  0
  160.2040  206.1460  145.5910 C   0  0  0  0  0  3  0  0  0  0  0  0
  162.7980  204.3790  145.6650 C   0  0  0  0  0  2  0  0  0  0  0  0
  162.8440  205.1200  146.9630 C   0  0  0  0  0  3  0  0  0  0  0  0
  160.7540  206.5230  146.7510 C   0  0  0  0  0  3  0  0  0  0  0  0
  1 20  1  6  0  0  0
  1 15  1  0  0  0  0
  1  2  1  0  0  0  0
  2 12  1  0  0  0  0
  4 10  1  0  0  0  0
  6  2  1  0  0  0  0
  6 11  1  0  0  0  0
  7 10  2  0  0  0  0
  7  8  1  0  0  0  0
  9  7  1  0  0  0  0
 10  5  1  0  0  0  0
 11 13  1  0  0  0  0
 11  9  2  0  0  0  0
 12  3  2  0  0  0  0
 12  9  1  0  0  0  0
 13  4  2  0  0  0  0
 14 17  1  0  0  0  0
 15 16  1  0  0  0  0
 16 17  2  0  0  0  0
 18 14  2  0  0  0  0
 19 18  1  0  0  0  0
 19 15  2  0  0  0  0
 21 22  1  0  0  0  0
 21 24  1  0  0  0  0
 22 25  1  0  0  0  0
 23 20  1  0  0  0  0
 24 27  2  0  0  0  0
 25 26  1  0  0  0  0
 26 23  2  0  0  0  0
 27 23  1  0  0  0  0
M  END
>  <MODEL>
4

>  <REMARK>
 VINA RESULT:      -8.6      1.343      1.752
  Name = 
  4 active torsions:
  status: ('A' for Active; 'I' for Inactive)
    1  A    between atoms: C_1  and  C_15
    2  A    between atoms: C_1  and  C_18
    3  A    between atoms: N_2  and  C_15
    4  A    between atoms: C_9  and  C_15
                            x       y       z     vdW  Elec       q    Type
                         _______ _______ _______ _____ _____    ______ ____

>  <TORSDO>
F 4

$$$$
=
 OpenBabel11052423133D

 27 30  0  0  1  0  0  0  0  0999 V2000
  160.8830  209.6210  153.4400 C   0  0  2  0  0  3  0  0  0  0  0  0
  161.1240  208.7380  152.2970 N   0  0  0  0  0  0  0  0  0  0  0  0
  162.0700  210.2760  150.8490 O   0  0  0  0  0  0  0  0  0  0  0  0
  161.3520  205.5240  149.1570 C   0  0  0  0  0  3  0  0  0  0  0  0
  162.3230  206.3300  147.1220 F   0  0  0  0  0  0  0  0  0  0  0  0
  160.7740  207.4550  152.2400 N   0  0  0  0  0  2  0  0  0  0  0  0
  162.0910  207.8490  148.9570 C   0  0  0  0  0  0  0  0  0  0  0  0
  162.6370  208.8650  148.2430 F   0  0  0  0  0  0  0  0  0  0  0  0
  161.6680  208.0340  150.2720 C   0  0  0  0  0  0  0  0  0  0  0  0
  161.9290  206.5680  148.3970 C   0  0  0  0  0  0  0  0  0  0  0  0
  161.1090  207.0210  151.0090 C   0  0  0  0  0  0  0  0  0  0  0  0
  161.6600  209.1150  151.1160 C   0  0  0  0  0  0  0  0  0  0  0  0
  160.9320  205.7440  150.4830 C   0  0  0  0  0  3  0  0  0  0  0  0
  161.0430  207.6450  157.2610 C   0  0  0  0  0  3  0  0  0  0  0  0
  160.9250  208.9100  154.7630 C   0  0  0  0  0  0  0  0  0  0  0  0
  160.0030  207.9050  155.0910 C   0  0  0  0  0  3  0  0  0  0  0  0
  160.0630  207.2730  156.3360 C   0  0  0  0  0  3  0  0  0  0  0  0
  161.9610  208.6490  156.9400 C   0  0  0  0  0  3  0  0  0  0  0  0
  161.9010  209.2800  155.6950 C   0  0  0  0  0  3  0  0  0  0  0  0
  159.6650  210.5360  153.2470 C   0  0  0  0  0  2  0  0  0  0  0  0
  157.8040  212.5280  157.0280 C   0  0  0  0  0  2  0  0  0  0  0  0
  158.5900  213.6110  156.3270 C   0  0  0  0  0  2  0  0  0  0  0  0
  159.2660  211.2880  154.4760 C   0  0  0  0  0  0  0  0  0  0  0  0
  157.2780  211.5110  156.0700 C   0  0  0  0  0  3  0  0  0  0  0  0
  159.9920  213.0880  156.1310 C   0  0  0  0  0  2  0  0  0  0  0  0
  160.1190  212.2230  154.9180 C   0  0  0  0  0  3  0  0  0  0  0  0
  157.9180  210.9880  155.0190 C   0  0  0  0  0  3  0  0  0  0  0  0
  1 20  1  6  0  0  0
  1 15  1  0  0  0  0
  2  1  1  0  0  0  0
  3 12  2  0  0  0  0
  4 13  1  0  0  0  0
  5 10  1  0  0  0  0
  6  2  1  0  0  0  0
  7  9  2  0  0  0  0
  8  7  1  0  0  0  0
  9 11  1  0  0  0  0
  9 12  1  0  0  0  0
 10  7  1  0  0  0  0
 10  4  2  0  0  0  0
 11  6  1  0  0  0  0
 12  2  1  0  0  0  0
 13 11  2  0  0  0  0
 15 16  2  0  0  0  0
 15 19  1  0  0  0  0
 16 17  1  0  0  0  0
 17 14  2  0  0  0  0
 18 14  1  0  0  0  0
 19 18  2  0  0  0  0
 20 23  1  0  0  0  0
 22 21  1  0  0  0  0
 23 26  2  0  0  0  0
 23 27  1  0  0  0  0
 24 21  1  0  0  0  0
 25 22  1  0  0  0  0
 26 25  1  0  0  0  0
 27 24  2  0  0  0  0
M  END
>  <MODEL>
5

>  <REMARK>
 VINA RESULT:      -8.3      2.865      8.177
  Name = 
  4 active torsions:
  status: ('A' for Active; 'I' for Inactive)
    1  A    between atoms: C_1  and  C_15
    2  A    between atoms: C_1  and  C_18
    3  A    between atoms: N_2  and  C_15
    4  A    between atoms: C_9  and  C_15
                            x       y       z     vdW  Elec       q    Type
                         _______ _______ _______ _____ _____    ______ ____

>  <TORSDO>
F 4

$$$$
=
 OpenBabel11052423133D

 27 30  0  0  1  0  0  0  0  0999 V2000
  161.5350  205.6270  148.8600 C   0  0  2  0  0  3  0  0  0  0  0  0
  161.5700  206.9350  149.5190 N   0  0  0  0  0  0  0  0  0  0  0  0
  160.8310  206.2960  151.6180 O   0  0  0  0  0  0  0  0  0  0  0  0
  161.7190  211.2460  150.7970 C   0  0  0  0  0  3  0  0  0  0  0  0
  161.0570  211.5250  153.0810 F   0  0  0  0  0  0  0  0  0  0  0  0
  161.8910  208.0790  148.9220 N   0  0  0  0  0  2  0  0  0  0  0  0
  161.0670  209.3170  152.1550 C   0  0  0  0  0  0  0  0  0  0  0  0
  160.6400  208.7770  153.3240 F   0  0  0  0  0  0  0  0  0  0  0  0
  161.3120  208.5230  151.0380 C   0  0  0  0  0  0  0  0  0  0  0  0
  161.2790  210.7030  152.0260 C   0  0  0  0  0  0  0  0  0  0  0  0
  161.7400  209.0500  149.8460 C   0  0  0  0  0  0  0  0  0  0  0  0
  161.2080  207.1760  150.7980 C   0  0  0  0  0  0  0  0  0  0  0  0
  161.9560  210.4160  149.6840 C   0  0  0  0  0  3  0  0  0  0  0  0
  161.5870  205.8280  144.5610 C   0  0  0  0  0  3  0  0  0  0  0  0
  161.5320  205.7160  147.3610 C   0  0  0  0  0  0  0  0  0  0  0  0
  160.4040  206.1460  146.6480 C   0  0  0  0  0  3  0  0  0  0  0  0
  160.4310  206.2030  145.2510 C   0  0  0  0  0  3  0  0  0  0  0  0
  162.7130  205.3950  145.2660 C   0  0  0  0  0  3  0  0  0  0  0  0
  162.6840  205.3380  146.6620 C   0  0  0  0  0  3  0  0  0  0  0  0
  160.4710  204.6870  149.4450 C   0  0  0  0  0  2  0  0  0  0  0  0
  161.5390  200.2450  148.5190 C   0  0  0  0  0  2  0  0  0  0  0  0
  160.6810  200.2200  149.7610 C   0  0  0  0  0  2  0  0  0  0  0  0
  160.8310  203.2380  149.3740 C   0  0  0  0  0  0  0  0  0  0  0  0
  161.2060  201.4010  147.6340 C   0  0  0  0  0  3  0  0  0  0  0  0
  161.3190  201.1540  150.7620 C   0  0  0  0  0  2  0  0  0  0  0  0
  160.9380  202.5820  150.5380 C   0  0  0  0  0  3  0  0  0  0  0  0
  160.9350  202.6550  148.0130 C   0  0  0  0  0  3  0  0  0  0  0  0
  1 20  1  1  0  0  0
  1  2  1  0  0  0  0
  2 12  1  0  0  0  0
  4 10  1  0  0  0  0
  6  2  1  0  0  0  0
  6 11  1  0  0  0  0
  7  8  1  0  0  0  0
  9  7  1  0  0  0  0
 10  7  2  0  0  0  0
 10  5  1  0  0  0  0
 11  9  2  0  0  0  0
 12  9  1  0  0  0  0
 12  3  2  0  0  0  0
 13 11  1  0  0  0  0
 13  4  2  0  0  0  0
 14 17  2  0  0  0  0
 14 18  1  0  0  0  0
 15  1  1  0  0  0  0
 16 15  2  0  0  0  0
 17 16  1  0  0  0  0
 18 19  2  0  0  0  0
 19 15  1  0  0  0  0
 21 22  1  0  0  0  0
 22 25  1  0  0  0  0
 23 20  1  0  0  0  0
 23 26  2  0  0  0  0
 24 27  2  0  0  0  0
 24 21  1  0  0  0  0
 26 25  1  0  0  0  0
 27 23  1  0  0  0  0
M  END
>  <MODEL>
6

>  <REMARK>
 VINA RESULT:      -8.3      1.577      4.372
  Name = 
  4 active torsions:
  status: ('A' for Active; 'I' for Inactive)
    1  A    between atoms: C_1  and  C_15
    2  A    between atoms: C_1  and  C_18
    3  A    between atoms: N_2  and  C_15
    4  A    between atoms: C_9  and  C_15
                            x       y       z     vdW  Elec       q    Type
                         _______ _______ _______ _____ _____    ______ ____

>  <TORSDO>
F 4

$$$$
=
 OpenBabel11052423133D

 27 30  0  0  1  0  0  0  0  0999 V2000
  161.5410  204.1860  148.8860 C   0  0  2  0  0  3  0  0  0  0  0  0
  161.4840  205.1910  149.9500 N   0  0  0  0  0  0  0  0  0  0  0  0
  161.4430  203.7720  151.7790 O   0  0  0  0  0  0  0  0  0  0  0  0
  161.1010  208.7850  152.6300 C   0  0  0  0  0  3  0  0  0  0  0  0
  160.9980  208.1690  154.9410 F   0  0  0  0  0  0  0  0  0  0  0  0
  161.4100  206.5050  149.7530 N   0  0  0  0  0  2  0  0  0  0  0  0
  161.2070  206.4340  153.3050 C   0  0  0  0  0  0  0  0  0  0  0  0
  161.2060  205.4720  154.2610 F   0  0  0  0  0  0  0  0  0  0  0  0
  161.3120  206.1130  151.9540 C   0  0  0  0  0  0  0  0  0  0  0  0
  161.1020  207.7970  153.6420 C   0  0  0  0  0  0  0  0  0  0  0  0
  161.3110  207.0710  150.9720 C   0  0  0  0  0  0  0  0  0  0  0  0
  161.4180  204.9260  151.2730 C   0  0  0  0  0  0  0  0  0  0  0  0
  161.2060  208.4260  151.2720 C   0  0  0  0  0  3  0  0  0  0  0  0
  161.7210  205.8280  144.9120 C   0  0  0  0  0  3  0  0  0  0  0  0
  161.5870  204.7800  147.5080 C   0  0  0  0  0  0  0  0  0  0  0  0
  160.5930  205.6560  147.0460 C   0  0  0  0  0  3  0  0  0  0  0  0
  160.6600  206.1790  145.7520 C   0  0  0  0  0  3  0  0  0  0  0  0
  162.7120  204.9530  145.3650 C   0  0  0  0  0  3  0  0  0  0  0  0
  162.6440  204.4300  146.6590 C   0  0  0  0  0  3  0  0  0  0  0  0
  160.5070  203.0650  149.0620 C   0  0  0  0  0  2  0  0  0  0  0  0
  161.2060  199.4570  146.1940 C   0  0  0  0  0  2  0  0  0  0  0  0
  160.9940  200.6620  145.3090 C   0  0  0  0  0  2  0  0  0  0  0  0
  160.5720  202.0040  148.0110 C   0  0  0  0  0  0  0  0  0  0  0  0
  161.8180  199.8280  147.5050 C   0  0  0  0  0  3  0  0  0  0  0  0
  159.6880  201.2960  145.7250 C   0  0  0  0  0  2  0  0  0  0  0  0
  159.8400  202.2010  146.9060 C   0  0  0  0  0  3  0  0  0  0  0  0
  161.5200  200.8900  148.2610 C   0  0  0  0  0  3  0  0  0  0  0  0
  1 20  1  6  0  0  0
  1  2  1  0  0  0  0
  2 12  1  0  0  0  0
  4 10  1  0  0  0  0
  6  2  1  0  0  0  0
  6 11  1  0  0  0  0
  7 10  2  0  0  0  0
  7  8  1  0  0  0  0
  9  7  1  0  0  0  0
 10  5  1  0  0  0  0
 11 13  1  0  0  0  0
 11  9  2  0  0  0  0
 12  3  2  0  0  0  0
 12  9  1  0  0  0  0
 13  4  2  0  0  0  0
 14 18  2  0  0  0  0
 14 17  1  0  0  0  0
 15  1  1  0  0  0  0
 16 15  1  0  0  0  0
 17 16  2  0  0  0  0
 18 19  1  0  0  0  0
 19 15  2  0  0  0  0
 21 24  1  0  0  0  0
 22 25  1  0  0  0  0
 22 21  1  0  0  0  0
 23 27  1  0  0  0  0
 23 20  1  0  0  0  0
 24 27  2  0  0  0  0
 25 26  1  0  0  0  0
 26 23  2  0  0  0  0
M  END
>  <MODEL>
7

>  <REMARK>
 VINA RESULT:      -8.2      2.372      4.320
  Name = 
  4 active torsions:
  status: ('A' for Active; 'I' for Inactive)
    1  A    between atoms: C_1  and  C_15
    2  A    between atoms: C_1  and  C_18
    3  A    between atoms: N_2  and  C_15
    4  A    between atoms: C_9  and  C_15
                            x       y       z     vdW  Elec       q    Type
                         _______ _______ _______ _____ _____    ______ ____

>  <TORSDO>
F 4

$$$$
=
 OpenBabel11052423133D

 27 30  0  0  1  0  0  0  0  0999 V2000
  161.3740  208.7300  153.3500 C   0  0  2  0  0  3  0  0  0  0  0  0
  161.2370  207.7220  152.2970 N   0  0  0  0  0  0  0  0  0  0  0  0
  161.8650  205.8520  153.5080 O   0  0  0  0  0  0  0  0  0  0  0  0
  160.8070  205.2540  148.5590 C   0  0  0  0  0  3  0  0  0  0  0  0
  161.3040  202.9450  148.9500 F   0  0  0  0  0  0  0  0  0  0  0  0
  160.9030  207.9810  151.0350 N   0  0  0  0  0  2  0  0  0  0  0  0
  161.4570  204.4740  150.7870 C   0  0  0  0  0  0  0  0  0  0  0  0
  161.8310  203.4850  151.6370 F   0  0  0  0  0  0  0  0  0  0  0  0
  161.3220  205.7900  151.2220 C   0  0  0  0  0  0  0  0  0  0  0  0
  161.1900  204.2080  149.4300 C   0  0  0  0  0  0  0  0  0  0  0  0
  160.9490  206.8050  150.3770 C   0  0  0  0  0  0  0  0  0  0  0  0
  161.5030  206.4050  152.4350 C   0  0  0  0  0  0  0  0  0  0  0  0
  160.6810  206.5760  149.0300 C   0  0  0  0  0  3  0  0  0  0  0  0
  160.1830  207.3820  157.2610 C   0  0  0  0  0  3  0  0  0  0  0  0
  160.9410  208.2420  154.7030 C   0  0  0  0  0  0  0  0  0  0  0  0
  159.7150  207.5870  154.8950 C   0  0  0  0  0  3  0  0  0  0  0  0
  159.3380  207.1580  156.1710 C   0  0  0  0  0  3  0  0  0  0  0  0
  161.4040  208.0370  157.0750 C   0  0  0  0  0  3  0  0  0  0  0  0
  161.7810  208.4660  155.8000 C   0  0  0  0  0  3  0  0  0  0  0  0
  160.8000  210.0970  152.9530 C   0  0  0  0  0  2  0  0  0  0  0  0
  158.0730  212.1950  156.0980 C   0  0  0  0  0  2  0  0  0  0  0  0
  159.2940  213.0710  155.9510 C   0  0  0  0  0  2  0  0  0  0  0  0
  160.1190  210.8220  154.0700 C   0  0  0  0  0  0  0  0  0  0  0  0
  157.7630  211.4530  154.8400 C   0  0  0  0  0  3  0  0  0  0  0  0
  160.5020  212.1950  156.1850 C   0  0  0  0  0  2  0  0  0  0  0  0
  160.9080  211.4380  154.9610 C   0  0  0  0  0  3  0  0  0  0  0  0
  158.6370  210.8650  154.0160 C   0  0  0  0  0  3  0  0  0  0  0  0
  1 20  1  6  0  0  0
  1 15  1  0  0  0  0
  2 12  1  0  0  0  0
  2  1  1  0  0  0  0
  4 13  2  0  0  0  0
  4 10  1  0  0  0  0
  5 10  1  0  0  0  0
  6  2  1  0  0  0  0
  7  9  1  0  0  0  0
  7  8  1  0  0  0  0
  9 12  1  0  0  0  0
 10  7  2  0  0  0  0
 11  6  1  0  0  0  0
 11  9  2  0  0  0  0
 12  3  2  0  0  0  0
 13 11  1  0  0  0  0
 15 16  2  0  0  0  0
 15 19  1  0  0  0  0
 16 17  1  0  0  0  0
 17 14  2  0  0  0  0
 18 14  1  0  0  0  0
 19 18  2  0  0  0  0
 20 23  1  0  0  0  0
 22 21  1  0  0  0  0
 22 25  1  0  0  0  0
 23 26  2  0  0  0  0
 24 21  1  0  0  0  0
 26 25  1  0  0  0  0
 27 23  1  0  0  0  0
 27 24  2  0  0  0  0
M  END
>  <MODEL>
8

>  <REMARK>
 VINA RESULT:      -8.0      3.104      8.040
  Name = 
  4 active torsions:
  status: ('A' for Active; 'I' for Inactive)
    1  A    between atoms: C_1  and  C_15
    2  A    between atoms: C_1  and  C_18
    3  A    between atoms: N_2  and  C_15
    4  A    between atoms: C_9  and  C_15
                            x       y       z     vdW  Elec       q    Type
                         _______ _______ _______ _____ _____    ______ ____

>  <TORSDO>
F 4

$$$$
=
 OpenBabel11052423133D

 27 30  0  0  1  0  0  0  0  0999 V2000
  161.2770  208.3250  153.1190 C   0  0  2  0  0  3  0  0  0  0  0  0
  161.2640  207.1110  152.3010 N   0  0  0  0  0  0  0  0  0  0  0  0
  161.2480  208.0930  150.2050 O   0  0  0  0  0  0  0  0  0  0  0  0
  161.0070  203.0100  150.4690 C   0  0  0  0  0  3  0  0  0  0  0  0
  160.9560  203.1010  148.0770 F   0  0  0  0  0  0  0  0  0  0  0  0
  161.2060  205.8710  152.7810 N   0  0  0  0  0  2  0  0  0  0  0  0
  161.0950  205.1570  149.2960 C   0  0  0  0  0  0  0  0  0  0  0  0
  161.1040  205.8860  148.1520 F   0  0  0  0  0  0  0  0  0  0  0  0
  161.1590  205.7690  150.5450 C   0  0  0  0  0  0  0  0  0  0  0  0
  161.0200  203.7510  149.2650 C   0  0  0  0  0  0  0  0  0  0  0  0
  161.1480  205.0490  151.7140 C   0  0  0  0  0  0  0  0  0  0  0  0
  161.2290  207.0770  150.9510 C   0  0  0  0  0  0  0  0  0  0  0  0
  161.0710  203.6590  151.7170 C   0  0  0  0  0  3  0  0  0  0  0  0
  160.4070  207.5370  157.2610 C   0  0  0  0  0  3  0  0  0  0  0  0
  160.9930  208.0690  154.5720 C   0  0  0  0  0  0  0  0  0  0  0  0
  161.9320  208.3600  155.5720 C   0  0  0  0  0  3  0  0  0  0  0  0
  161.6400  208.0960  156.9130 C   0  0  0  0  0  3  0  0  0  0  0  0
  159.4690  207.2410  156.2680 C   0  0  0  0  0  3  0  0  0  0  0  0
  159.7620  207.5060  154.9270 C   0  0  0  0  0  3  0  0  0  0  0  0
  160.4640  209.4740  152.5040 C   0  0  0  0  0  2  0  0  0  0  0  0
  159.5800  212.5940  155.8530 C   0  0  0  0  0  2  0  0  0  0  0  0
  158.3720  211.6900  155.7920 C   0  0  0  0  0  2  0  0  0  0  0  0
  159.9670  210.4710  153.5000 C   0  0  0  0  0  0  0  0  0  0  0  0
  160.8300  211.8830  155.4510 C   0  0  0  0  0  3  0  0  0  0  0  0
  157.8930  211.6820  154.3610 C   0  0  0  0  0  2  0  0  0  0  0  0
  158.6480  210.7150  153.5070 C   0  0  0  0  0  3  0  0  0  0  0  0
  160.9740  211.0130  154.4450 C   0  0  0  0  0  3  0  0  0  0  0  0
  1 20  1  6  0  0  0
  1 15  1  0  0  0  0
  2  6  1  0  0  0  0
  2  1  1  0  0  0  0
  3 12  2  0  0  0  0
  4 13  1  0  0  0  0
  5 10  1  0  0  0  0
  7  9  2  0  0  0  0
  8  7  1  0  0  0  0
  9 12  1  0  0  0  0
  9 11  1  0  0  0  0
 10  7  1  0  0  0  0
 10  4  2  0  0  0  0
 11 13  2  0  0  0  0
 11  6  1  0  0  0  0
 12  2  1  0  0  0  0
 15 19  2  0  0  0  0
 15 16  1  0  0  0  0
 16 17  2  0  0  0  0
 17 14  1  0  0  0  0
 18 14  2  0  0  0  0
 19 18  1  0  0  0  0
 20 23  1  0  0  0  0
 22 21  1  0  0  0  0
 23 26  2  0  0  0  0
 23 27  1  0  0  0  0
 24 21  1  0  0  0  0
 25 22  1  0  0  0  0
 26 25  1  0  0  0  0
 27 24  2  0  0  0  0
M  END
>  <MODEL>
9

>  <REMARK>
 VINA RESULT:      -7.9      2.945      7.742
  Name = 
  4 active torsions:
  status: ('A' for Active; 'I' for Inactive)
    1  A    between atoms: C_1  and  C_15
    2  A    between atoms: C_1  and  C_18
    3  A    between atoms: N_2  and  C_15
    4  A    between atoms: C_9  and  C_15
                            x       y       z     vdW  Elec       q    Type
                         _______ _______ _______ _____ _____    ______ ____

>  <TORSDO>
F 4

$$$$
