=
 OpenBabel11052422093D

 25 27  0  0  1  0  0  0  0  0999 V2000
  160.9020  209.2030  154.2330 C   0  0  1  0  0  3  0  0  0  0  0  0
  157.3700  210.6040  154.3050 C   0  0  0  0  0  1  0  0  0  0  0  0
  160.8010  212.1830  155.2010 C   0  0  0  0  0  2  0  0  0  0  0  0
  158.8780  210.7010  154.1690 C   0  0  1  0  0  3  0  0  0  0  0  0
  160.0500  209.9140  156.4780 S   0  0  0  0  0  0  0  0  0  0  0  0
  160.5540  208.7350  157.2610 O   0  0  0  0  0  0  0  0  0  0  0  0
  159.3630  212.0970  154.6420 C   0  0  2  0  0  3  0  0  0  0  0  0
  161.8840  210.1290  154.6690 O   0  0  0  0  0  0  0  0  0  0  0  0
  159.0480  210.7190  157.2590 O   0  0  0  0  0  0  0  0  0  0  0  0
  161.3560  210.8640  155.7550 C   0  0  1  0  0  3  0  0  0  0  0  0
  159.5410  209.4880  154.8620 C   0  0  2  0  0  3  0  0  0  0  0  0
  160.8820  209.0350  152.7100 C   0  0  1  0  0  3  0  0  0  0  0  0
  161.8590  209.8210  152.0930 O   0  0  0  0  0  1  0  0  0  0  0  0
  161.0250  207.5950  152.3180 C   0  0  0  0  0  0  0  0  0  0  0  0
  161.3460  204.8820  151.6830 C   0  0  0  0  0  3  0  0  0  0  0  0
  161.0950  207.1860  150.9720 C   0  0  0  0  0  0  0  0  0  0  0  0
  161.2520  205.8310  150.6620 C   0  0  0  0  0  3  0  0  0  0  0  0
  161.2830  205.2860  153.0190 C   0  0  0  0  0  3  0  0  0  0  0  0
  161.0070  208.0860  149.9620 F   0  0  0  0  0  0  0  0  0  0  0  0
  161.1260  206.6380  153.3330 C   0  0  0  0  0  3  0  0  0  0  0  0
  159.1360  213.1440  153.5980 C   0  0  0  0  0  0  0  0  0  0  0  0
  158.8420  214.3200  153.9420 O   0  0  0  0  0  0  0  0  0  0  0  0
  159.2530  212.8110  152.1730 C   0  0  0  0  0  0  0  0  0  0  0  0
  158.1160  212.7480  151.3770 O   0  0  0  0  0  0  0  0  0  0  0  0
  160.3810  212.5800  151.6630 O   0  0  0  0  0  1  0  0  0  0  0  0
  1 12  1  6  0  0  0
  1  8  1  0  0  0  0
  1 11  1  0  0  0  0
  4  2  1  1  0  0  0
  4  7  1  0  0  0  0
  4 11  1  0  0  0  0
  5  9  2  0  0  0  0
  5  6  2  0  0  0  0
  7 21  1  6  0  0  0
  7  3  1  0  0  0  0
  8 10  1  0  0  0  0
 10  3  1  6  0  0  0
 10  5  1  0  0  0  0
 11  5  1  1  0  0  0
 12 13  1  6  0  0  0
 14 12  1  0  0  0  0
 14 20  1  0  0  0  0
 15 18  1  0  0  0  0
 16 14  2  0  0  0  0
 17 16  1  0  0  0  0
 17 15  2  0  0  0  0
 18 20  2  0  0  0  0
 19 16  1  0  0  0  0
 21 22  2  0  0  0  0
 23 21  1  0  0  0  0
 24 23  2  0  0  0  0
 25 23  1  0  0  0  0
M  END
>  <MODEL>
1

>  <REMARK>
 VINA RESULT:      -5.0      0.000      0.000
  Name = 
  4 active torsions:
  status: ('A' for Active; 'I' for Inactive)
    1  A    between atoms: C_1  and  C_3
    2  A    between atoms: C_1  and  C_5
    3  A    between atoms: C_2  and  C_21
    4  A    between atoms: C_15  and  C_21
                            x       y       z     vdW  Elec       q    Type
                         _______ _______ _______ _____ _____    ______ ____

>  <TORSDO>
F 4

$$$$
=
 OpenBabel11052422093D

 25 27  0  0  1  0  0  0  0  0999 V2000
  160.0590  210.7900  153.3400 C   0  0  1  0  0  3  0  0  0  0  0  0
  160.0360  213.3910  156.1110 C   0  0  0  0  0  1  0  0  0  0  0  0
  157.1900  211.9150  153.9220 C   0  0  0  0  0  2  0  0  0  0  0  0
  159.4290  212.2860  155.2670 C   0  0  1  0  0  3  0  0  0  0  0  0
  159.2980  213.0850  152.6840 S   0  0  0  0  0  0  0  0  0  0  0  0
  160.0500  213.1760  151.3860 O   0  0  0  0  0  0  0  0  0  0  0  0
  157.8910  212.4670  155.1830 C   0  0  2  0  0  3  0  0  0  0  0  0
  158.7770  210.5550  152.7780 O   0  0  0  0  0  0  0  0  0  0  0  0
  158.7770  214.4250  153.1270 O   0  0  0  0  0  0  0  0  0  0  0  0
  158.0940  211.7890  152.6880 C   0  0  1  0  0  3  0  0  0  0  0  0
  160.1710  212.2010  153.9120 C   0  0  2  0  0  3  0  0  0  0  0  0
  160.5030  209.6750  154.2920 C   0  0  1  0  0  3  0  0  0  0  0  0
  159.5040  209.3610  155.2170 O   0  0  0  0  0  1  0  0  0  0  0  0
  160.9390  208.4550  153.5380 C   0  0  0  0  0  0  0  0  0  0  0  0
  161.7220  206.2240  152.0290 C   0  0  0  0  0  3  0  0  0  0  0  0
  160.9400  207.1720  154.1190 C   0  0  0  0  0  0  0  0  0  0  0  0
  161.3350  206.0640  153.3630 C   0  0  0  0  0  3  0  0  0  0  0  0
  161.7150  207.4950  151.4480 C   0  0  0  0  0  3  0  0  0  0  0  0
  160.5690  206.9890  155.4100 F   0  0  0  0  0  0  0  0  0  0  0  0
  161.3220  208.6040  152.2000 C   0  0  0  0  0  3  0  0  0  0  0  0
  157.2090  211.9840  156.4240 C   0  0  0  0  0  0  0  0  0  0  0  0
  157.8420  211.2770  157.2540 O   0  0  0  0  0  0  0  0  0  0  0  0
  155.8060  212.3290  156.6840 C   0  0  0  0  0  0  0  0  0  0  0  0
  154.9330  211.3670  157.1760 O   0  0  0  0  0  1  0  0  0  0  0  0
  155.3850  213.4950  156.4630 O   0  0  0  0  0  0  0  0  0  0  0  0
  1 11  1  0  0  0  0
  1 12  1  1  0  0  0
  3  7  1  0  0  0  0
  4  2  1  1  0  0  0
  5 10  1  0  0  0  0
  5  9  2  0  0  0  0
  6  5  2  0  0  0  0
  7  4  1  0  0  0  0
  7 21  1  1  0  0  0
  8  1  1  0  0  0  0
 10  8  1  0  0  0  0
 10  3  1  1  0  0  0
 11  5  1  6  0  0  0
 11  4  1  0  0  0  0
 12 13  1  1  0  0  0
 14 16  1  0  0  0  0
 14 12  1  0  0  0  0
 15 17  1  0  0  0  0
 16 19  1  0  0  0  0
 17 16  2  0  0  0  0
 18 15  2  0  0  0  0
 18 20  1  0  0  0  0
 20 14  2  0  0  0  0
 21 23  1  0  0  0  0
 21 22  2  0  0  0  0
 23 24  1  0  0  0  0
 25 23  2  0  0  0  0
M  END
>  <MODEL>
2

>  <REMARK>
 VINA RESULT:      -4.5      2.414      4.205
  Name = 
  4 active torsions:
  status: ('A' for Active; 'I' for Inactive)
    1  A    between atoms: C_1  and  C_3
    2  A    between atoms: C_1  and  C_5
    3  A    between atoms: C_2  and  C_21
    4  A    between atoms: C_15  and  C_21
                            x       y       z     vdW  Elec       q    Type
                         _______ _______ _______ _____ _____    ______ ____

>  <TORSDO>
F 4

$$$$
=
 OpenBabel11052422093D

 25 27  0  0  1  0  0  0  0  0999 V2000
  159.4130  211.1260  155.7450 C   0  0  1  0  0  3  0  0  0  0  0  0
  161.8810  210.1860  153.0120 C   0  0  0  0  0  1  0  0  0  0  0  0
  160.9320  208.4500  156.3520 C   0  0  0  0  0  2  0  0  0  0  0  0
  160.9120  209.8890  154.1410 C   0  0  1  0  0  3  0  0  0  0  0  0
  161.8190  211.0100  156.4320 S   0  0  0  0  0  0  0  0  0  0  0  0
  161.8460  212.2630  157.2610 O   0  0  0  0  0  0  0  0  0  0  0  0
  161.3240  208.5800  154.8640 C   0  0  2  0  0  3  0  0  0  0  0  0
  159.3940  210.2070  156.8270 O   0  0  0  0  0  0  0  0  0  0  0  0
  163.2040  210.5090  156.1260 O   0  0  0  0  0  0  0  0  0  0  0  0
  160.7190  209.7850  157.0800 C   0  0  1  0  0  3  0  0  0  0  0  0
  160.7690  211.1380  155.0420 C   0  0  2  0  0  3  0  0  0  0  0  0
  158.2090  210.9680  154.8120 C   0  0  1  0  0  3  0  0  0  0  0  0
  157.0300  210.7400  155.5280 O   0  0  0  0  0  1  0  0  0  0  0  0
  158.0630  212.1510  153.9030 C   0  0  0  0  0  0  0  0  0  0  0  0
  157.7040  214.4010  152.2680 C   0  0  0  0  0  3  0  0  0  0  0  0
  158.4260  212.1030  152.5430 C   0  0  0  0  0  0  0  0  0  0  0  0
  158.2470  213.2300  151.7330 C   0  0  0  0  0  3  0  0  0  0  0  0
  157.3380  214.4490  153.6160 C   0  0  0  0  0  3  0  0  0  0  0  0
  158.9540  210.9800  151.9990 F   0  0  0  0  0  0  0  0  0  0  0  0
  157.5150  213.3270  154.4280 C   0  0  0  0  0  3  0  0  0  0  0  0
  160.9010  207.3680  154.0950 C   0  0  0  0  0  0  0  0  0  0  0  0
  160.0850  206.5540  154.6050 O   0  0  0  0  0  0  0  0  0  0  0  0
  161.4300  207.1210  152.7480 C   0  0  0  0  0  0  0  0  0  0  0  0
  160.7500  207.6010  151.6350 O   0  0  0  0  0  0  0  0  0  0  0  0
  162.5000  206.4740  152.5910 O   0  0  0  0  0  1  0  0  0  0  0  0
  1 12  1  6  0  0  0
  1  8  1  0  0  0  0
  4  2  1  6  0  0  0
  4  7  1  0  0  0  0
  4 11  1  0  0  0  0
  5 10  1  0  0  0  0
  5  6  2  0  0  0  0
  7 21  1  6  0  0  0
  7  3  1  0  0  0  0
  8 10  1  0  0  0  0
  9  5  2  0  0  0  0
 10  3  1  6  0  0  0
 11  1  1  0  0  0  0
 11  5  1  1  0  0  0
 12 13  1  1  0  0  0
 14 20  1  0  0  0  0
 14 12  1  0  0  0  0
 15 18  1  0  0  0  0
 16 14  2  0  0  0  0
 17 15  2  0  0  0  0
 17 16  1  0  0  0  0
 18 20  2  0  0  0  0
 19 16  1  0  0  0  0
 21 22  2  0  0  0  0
 23 21  1  0  0  0  0
 24 23  2  0  0  0  0
 25 23  1  0  0  0  0
M  END
>  <MODEL>
3

>  <REMARK>
 VINA RESULT:      -4.2      2.342      5.645
  Name = 
  4 active torsions:
  status: ('A' for Active; 'I' for Inactive)
    1  A    between atoms: C_1  and  C_3
    2  A    between atoms: C_1  and  C_5
    3  A    between atoms: C_2  and  C_21
    4  A    between atoms: C_15  and  C_21
                            x       y       z     vdW  Elec       q    Type
                         _______ _______ _______ _____ _____    ______ ____

>  <TORSDO>
F 4

$$$$
=
 OpenBabel11052422093D

 25 27  0  0  1  0  0  0  0  0999 V2000
  161.0840  209.6530  152.1530 C   0  0  1  0  0  3  0  0  0  0  0  0
  163.1970  210.7080  155.1310 C   0  0  0  0  0  1  0  0  0  0  0  0
  159.5010  209.5530  154.8580 C   0  0  0  0  0  2  0  0  0  0  0  0
  162.0780  209.9420  154.4500 C   0  0  1  0  0  3  0  0  0  0  0  0
  160.3000  211.6860  153.3900 S   0  0  0  0  0  0  0  0  0  0  0  0
  159.9710  212.5290  152.1900 O   0  0  0  0  0  0  0  0  0  0  0  0
  160.9200  209.6930  155.4520 C   0  0  2  0  0  3  0  0  0  0  0  0
  159.7480  209.3220  152.5000 O   0  0  0  0  0  0  0  0  0  0  0  0
  160.3490  212.5010  154.6530 O   0  0  0  0  0  0  0  0  0  0  0  0
  159.3060  210.2260  153.4930 C   0  0  1  0  0  3  0  0  0  0  0  0
  161.6880  210.6550  153.1350 C   0  0  2  0  0  3  0  0  0  0  0  0
  161.9490  208.4190  151.8850 C   0  0  1  0  0  3  0  0  0  0  0  0
  161.8780  207.5010  152.9370 O   0  0  0  0  0  1  0  0  0  0  0  0
  161.5870  207.7700  150.5830 C   0  0  0  0  0  0  0  0  0  0  0  0
  160.9250  206.4540  148.1960 C   0  0  0  0  0  3  0  0  0  0  0  0
  161.7830  208.4100  149.3430 C   0  0  0  0  0  0  0  0  0  0  0  0
  161.4490  207.7490  148.1560 C   0  0  0  0  0  3  0  0  0  0  0  0
  160.7360  205.8150  149.4240 C   0  0  0  0  0  3  0  0  0  0  0  0
  162.2890  209.6660  149.2770 F   0  0  0  0  0  0  0  0  0  0  0  0
  161.0680  206.4710  150.6110 C   0  0  0  0  0  3  0  0  0  0  0  0
  161.2240  208.5570  156.3770 C   0  0  0  0  0  0  0  0  0  0  0  0
  162.1360  208.6750  157.2380 O   0  0  0  0  0  0  0  0  0  0  0  0
  160.4650  207.3040  156.2880 C   0  0  0  0  0  0  0  0  0  0  0  0
  160.5100  206.5430  155.1260 O   0  0  0  0  0  0  0  0  0  0  0  0
  159.7680  206.9100  157.2610 O   0  0  0  0  0  1  0  0  0  0  0  0
  1 12  1  1  0  0  0
  1  8  1  0  0  0  0
  1 11  1  0  0  0  0
  3  7  1  0  0  0  0
  4  2  1  1  0  0  0
  4  7  1  0  0  0  0
  5 10  1  0  0  0  0
  5  9  2  0  0  0  0
  6  5  2  0  0  0  0
  7 21  1  6  0  0  0
  8 10  1  0  0  0  0
 10  3  1  1  0  0  0
 11  5  1  1  0  0  0
 11  4  1  0  0  0  0
 12 13  1  1  0  0  0
 14 20  1  0  0  0  0
 14 12  1  0  0  0  0
 15 18  1  0  0  0  0
 16 14  2  0  0  0  0
 17 15  2  0  0  0  0
 17 16  1  0  0  0  0
 18 20  2  0  0  0  0
 19 16  1  0  0  0  0
 21 22  2  0  0  0  0
 23 21  1  0  0  0  0
 23 25  1  0  0  0  0
 24 23  2  0  0  0  0
M  END
>  <MODEL>
4

>  <REMARK>
 VINA RESULT:      -4.2      2.121      4.406
  Name = 
  4 active torsions:
  status: ('A' for Active; 'I' for Inactive)
    1  A    between atoms: C_1  and  C_3
    2  A    between atoms: C_1  and  C_5
    3  A    between atoms: C_2  and  C_21
    4  A    between atoms: C_15  and  C_21
                            x       y       z     vdW  Elec       q    Type
                         _______ _______ _______ _____ _____    ______ ____

>  <TORSDO>
F 4

$$$$
=
 OpenBabel11052422093D

 25 27  0  0  1  0  0  0  0  0999 V2000
  159.4650  210.3570  138.3840 C   0  0  1  0  0  3  0  0  0  0  0  0
  160.8940  211.4510  141.7310 C   0  0  0  0  0  1  0  0  0  0  0  0
  162.3650  211.5230  138.1390 C   0  0  0  0  0  2  0  0  0  0  0  0
  160.7460  211.5080  140.2220 C   0  0  1  0  0  3  0  0  0  0  0  0
  161.5240  209.1510  139.1440 S   0  0  0  0  0  0  0  0  0  0  0  0
  161.0840  207.7620  138.7770 O   0  0  0  0  0  0  0  0  0  0  0  0
  162.0690  212.0010  139.5780 C   0  0  2  0  0  3  0  0  0  0  0  0
  160.3630  210.5420  137.3000 O   0  0  0  0  0  0  0  0  0  0  0  0
  162.7290  209.1390  140.0450 O   0  0  0  0  0  0  0  0  0  0  0  0
  161.6670  210.2170  137.7390 C   0  0  1  0  0  3  0  0  0  0  0  0
  160.2080  210.1550  139.7020 C   0  0  2  0  0  3  0  0  0  0  0  0
  158.3610  211.4180  138.4260 C   0  0  1  0  0  3  0  0  0  0  0  0
  158.3950  212.2400  137.2960 O   0  0  0  0  0  1  0  0  0  0  0  0
  157.0090  210.7940  138.5950 C   0  0  0  0  0  0  0  0  0  0  0  0
  154.4970  209.5650  138.8150 C   0  0  0  0  0  3  0  0  0  0  0  0
  155.9550  211.4500  139.2600 C   0  0  0  0  0  0  0  0  0  0  0  0
  154.7050  210.8310  139.3690 C   0  0  0  0  0  3  0  0  0  0  0  0
  155.5400  208.9140  138.1490 C   0  0  0  0  0  3  0  0  0  0  0  0
  156.1300  212.6790  139.8060 F   0  0  0  0  0  0  0  0  0  0  0  0
  156.7890  209.5290  138.0390 C   0  0  0  0  0  3  0  0  0  0  0  0
  162.2160  213.4860  139.6850 C   0  0  0  0  0  0  0  0  0  0  0  0
  161.3320  214.2420  139.2020 O   0  0  0  0  0  0  0  0  0  0  0  0
  163.3860  214.0690  140.3540 C   0  0  0  0  0  0  0  0  0  0  0  0
  164.5400  214.3390  139.6270 O   0  0  0  0  0  0  0  0  0  0  0  0
  163.3530  214.3290  141.5860 O   0  0  0  0  0  1  0  0  0  0  0  0
  1 12  1  1  0  0  0
  1 11  1  0  0  0  0
  3  7  1  0  0  0  0
  4  2  1  1  0  0  0
  5  9  2  0  0  0  0
  6  5  2  0  0  0  0
  7 21  1  6  0  0  0
  7  4  1  0  0  0  0
  8 10  1  0  0  0  0
  8  1  1  0  0  0  0
 10  3  1  1  0  0  0
 10  5  1  0  0  0  0
 11  5  1  6  0  0  0
 11  4  1  0  0  0  0
 12 13  1  6  0  0  0
 12 14  1  0  0  0  0
 14 16  1  0  0  0  0
 15 17  1  0  0  0  0
 16 17  2  0  0  0  0
 16 19  1  0  0  0  0
 18 15  2  0  0  0  0
 20 18  1  0  0  0  0
 20 14  2  0  0  0  0
 21 23  1  0  0  0  0
 22 21  2  0  0  0  0
 23 25  1  0  0  0  0
 24 23  2  0  0  0  0
M  END
>  <MODEL>
5

>  <REMARK>
 VINA RESULT:      -4.1     13.172     15.241
  Name = 
  4 active torsions:
  status: ('A' for Active; 'I' for Inactive)
    1  A    between atoms: C_1  and  C_3
    2  A    between atoms: C_1  and  C_5
    3  A    between atoms: C_2  and  C_21
    4  A    between atoms: C_15  and  C_21
                            x       y       z     vdW  Elec       q    Type
                         _______ _______ _______ _____ _____    ______ ____

>  <TORSDO>
F 4

$$$$
=
 OpenBabel11052422093D

 25 27  0  0  1  0  0  0  0  0999 V2000
  160.0860  211.5030  153.5460 C   0  0  1  0  0  3  0  0  0  0  0  0
  162.7340  210.8290  156.1870 C   0  0  0  0  0  1  0  0  0  0  0  0
  158.9550  209.9560  156.0280 C   0  0  0  0  0  2  0  0  0  0  0  0
  161.4570  210.5320  155.4230 C   0  0  1  0  0  3  0  0  0  0  0  0
  159.6930  212.5520  155.7860 S   0  0  0  0  0  0  0  0  0  0  0  0
  159.2510  213.9020  155.2950 O   0  0  0  0  0  0  0  0  0  0  0  0
  160.4580  209.7740  156.3360 C   0  0  2  0  0  3  0  0  0  0  0  0
  158.7990  211.0230  153.9040 O   0  0  0  0  0  0  0  0  0  0  0  0
  160.0160  212.5670  157.2550 O   0  0  0  0  0  0  0  0  0  0  0  0
  158.6030  211.2510  155.2850 C   0  0  1  0  0  3  0  0  0  0  0  0
  160.9250  211.8330  154.7780 C   0  0  2  0  0  3  0  0  0  0  0  0
  160.7840  210.6120  152.5140 C   0  0  1  0  0  3  0  0  0  0  0  0
  160.0910  209.4150  152.3140 O   0  0  0  0  0  1  0  0  0  0  0  0
  160.9900  211.3360  151.2180 C   0  0  0  0  0  0  0  0  0  0  0  0
  161.2720  212.7400  148.8060 C   0  0  0  0  0  3  0  0  0  0  0  0
  161.7920  210.8140  150.1840 C   0  0  0  0  0  0  0  0  0  0  0  0
  161.9310  211.5210  148.9850 C   0  0  0  0  0  3  0  0  0  0  0  0
  160.4710  213.2570  149.8280 C   0  0  0  0  0  3  0  0  0  0  0  0
  162.4420  209.6340  150.3310 F   0  0  0  0  0  0  0  0  0  0  0  0
  160.3290  212.5540  151.0270 C   0  0  0  0  0  3  0  0  0  0  0  0
  160.8050  208.3230  156.4490 C   0  0  0  0  0  0  0  0  0  0  0  0
  161.6950  207.9520  157.2610 O   0  0  0  0  0  0  0  0  0  0  0  0
  160.1130  207.3270  155.6220 C   0  0  0  0  0  0  0  0  0  0  0  0
  158.9670  206.7020  156.0980 O   0  0  0  0  0  1  0  0  0  0  0  0
  160.5520  207.0310  154.4780 O   0  0  0  0  0  0  0  0  0  0  0  0
  1 12  1  1  0  0  0
  1  8  1  0  0  0  0
  1 11  1  0  0  0  0
  3  7  1  0  0  0  0
  4  2  1  1  0  0  0
  4  7  1  0  0  0  0
  5  9  2  0  0  0  0
  6  5  2  0  0  0  0
  7 21  1  6  0  0  0
  8 10  1  0  0  0  0
 10  5  1  0  0  0  0
 10  3  1  1  0  0  0
 11  4  1  0  0  0  0
 11  5  1  1  0  0  0
 12 13  1  6  0  0  0
 14 12  1  0  0  0  0
 15 17  2  0  0  0  0
 15 18  1  0  0  0  0
 16 19  1  0  0  0  0
 16 14  2  0  0  0  0
 17 16  1  0  0  0  0
 18 20  2  0  0  0  0
 20 14  1  0  0  0  0
 21 22  2  0  0  0  0
 23 24  1  0  0  0  0
 23 21  1  0  0  0  0
 25 23  2  0  0  0  0
M  END
>  <MODEL>
6

>  <REMARK>
 VINA RESULT:      -3.9      2.566      5.027
  Name = 
  4 active torsions:
  status: ('A' for Active; 'I' for Inactive)
    1  A    between atoms: C_1  and  C_3
    2  A    between atoms: C_1  and  C_5
    3  A    between atoms: C_2  and  C_21
    4  A    between atoms: C_15  and  C_21
                            x       y       z     vdW  Elec       q    Type
                         _______ _______ _______ _____ _____    ______ ____

>  <TORSDO>
F 4

$$$$
=
 OpenBabel11052422093D

 25 27  0  0  1  0  0  0  0  0999 V2000
  158.0120  212.7140  153.5250 C   0  0  1  0  0  3  0  0  0  0  0  0
  160.0110  214.2320  156.3790 C   0  0  0  0  0  1  0  0  0  0  0  0
  158.6510  210.6430  155.7910 C   0  0  0  0  0  2  0  0  0  0  0  0
  159.5600  213.0990  155.4750 C   0  0  1  0  0  3  0  0  0  0  0  0
  156.8980  212.7090  155.7680 S   0  0  0  0  0  0  0  0  0  0  0  0
  155.5340  213.1430  155.3090 O   0  0  0  0  0  0  0  0  0  0  0  0
  159.6310  211.7510  156.2390 C   0  0  2  0  0  3  0  0  0  0  0  0
  157.6980  211.3440  153.7240 O   0  0  0  0  0  0  0  0  0  0  0  0
  157.0490  212.8160  157.2610 O   0  0  0  0  0  0  0  0  0  0  0  0
  157.3850  211.1500  155.0890 C   0  0  1  0  0  3  0  0  0  0  0  0
  158.1890  213.4480  154.8520 C   0  0  2  0  0  3  0  0  0  0  0  0
  159.1510  212.9200  152.5220 C   0  0  1  0  0  3  0  0  0  0  0  0
  159.8780  211.7430  152.3190 O   0  0  0  0  0  1  0  0  0  0  0  0
  158.6420  213.4670  151.2220 C   0  0  0  0  0  0  0  0  0  0  0  0
  157.5870  214.4410  148.8130 C   0  0  0  0  0  3  0  0  0  0  0  0
  159.4900  213.7100  150.1240 C   0  0  0  0  0  0  0  0  0  0  0  0
  158.9590  214.1990  148.9260 C   0  0  0  0  0  3  0  0  0  0  0  0
  156.7420  214.1930  149.8980 C   0  0  0  0  0  3  0  0  0  0  0  0
  160.8240  213.4840  150.2080 F   0  0  0  0  0  0  0  0  0  0  0  0
  157.2690  213.7060  151.0960 C   0  0  0  0  0  3  0  0  0  0  0  0
  161.0310  211.2270  156.3070 C   0  0  0  0  0  0  0  0  0  0  0  0
  161.7950  211.5980  157.2370 O   0  0  0  0  0  0  0  0  0  0  0  0
  161.5190  210.2800  155.2970 C   0  0  0  0  0  0  0  0  0  0  0  0
  161.4960  208.9150  155.5540 O   0  0  0  0  0  1  0  0  0  0  0  0
  161.9620  210.6970  154.1930 O   0  0  0  0  0  0  0  0  0  0  0  0
  1 12  1  6  0  0  0
  1  8  1  0  0  0  0
  1 11  1  0  0  0  0
  3  7  1  0  0  0  0
  4  7  1  0  0  0  0
  4  2  1  1  0  0  0
  5  9  2  0  0  0  0
  6  5  2  0  0  0  0
  7 21  1  6  0  0  0
  8 10  1  0  0  0  0
 10  5  1  0  0  0  0
 10  3  1  1  0  0  0
 11  4  1  0  0  0  0
 11  5  1  1  0  0  0
 12 13  1  6  0  0  0
 14 12  1  0  0  0  0
 15 17  2  0  0  0  0
 15 18  1  0  0  0  0
 16 19  1  0  0  0  0
 16 14  2  0  0  0  0
 17 16  1  0  0  0  0
 18 20  2  0  0  0  0
 20 14  1  0  0  0  0
 21 22  2  0  0  0  0
 23 24  1  0  0  0  0
 23 21  1  0  0  0  0
 25 23  2  0  0  0  0
M  END
>  <MODEL>
7

>  <REMARK>
 VINA RESULT:      -3.8      3.356      5.745
  Name = 
  4 active torsions:
  status: ('A' for Active; 'I' for Inactive)
    1  A    between atoms: C_1  and  C_3
    2  A    between atoms: C_1  and  C_5
    3  A    between atoms: C_2  and  C_21
    4  A    between atoms: C_15  and  C_21
                            x       y       z     vdW  Elec       q    Type
                         _______ _______ _______ _____ _____    ______ ____

>  <TORSDO>
F 4

$$$$
=
 OpenBabel11052422093D

 25 27  0  0  1  0  0  0  0  0999 V2000
  161.2410  205.1260  149.3310 C   0  0  1  0  0  3  0  0  0  0  0  0
  163.8430  205.8280  152.0110 C   0  0  0  0  0  1  0  0  0  0  0  0
  160.3310  207.3460  151.3500 C   0  0  0  0  0  2  0  0  0  0  0  0
  162.4300  205.7520  151.4620 C   0  0  1  0  0  3  0  0  0  0  0  0
  162.1770  207.4490  149.3690 S   0  0  0  0  0  0  0  0  0  0  0  0
  162.3630  207.6090  147.8860 O   0  0  0  0  0  0  0  0  0  0  0  0
  161.5330  206.8080  152.1580 C   0  0  2  0  0  3  0  0  0  0  0  0
  160.0810  205.9370  149.4450 O   0  0  0  0  0  0  0  0  0  0  0  0
  162.9070  208.5110  150.1440 O   0  0  0  0  0  0  0  0  0  0  0  0
  160.4810  207.2390  149.8270 C   0  0  1  0  0  3  0  0  0  0  0  0
  162.4700  205.8170  149.9170 C   0  0  2  0  0  3  0  0  0  0  0  0
  161.0130  203.6950  149.8250 C   0  0  1  0  0  3  0  0  0  0  0  0
  159.7980  203.5720  150.5050 O   0  0  0  0  0  1  0  0  0  0  0  0
  161.0990  202.7080  148.7000 C   0  0  0  0  0  0  0  0  0  0  0  0
  161.2060  200.9380  146.5260 C   0  0  0  0  0  3  0  0  0  0  0  0
  161.1510  201.3180  148.9200 C   0  0  0  0  0  0  0  0  0  0  0  0
  161.2070  200.4400  147.8320 C   0  0  0  0  0  3  0  0  0  0  0  0
  161.1480  202.3170  146.3050 C   0  0  0  0  0  3  0  0  0  0  0  0
  161.1530  200.8090  150.1770 F   0  0  0  0  0  0  0  0  0  0  0  0
  161.0920  203.1960  147.3880 C   0  0  0  0  0  3  0  0  0  0  0  0
  161.1000  206.3560  153.5170 C   0  0  0  0  0  0  0  0  0  0  0  0
  160.9710  205.1260  153.7580 O   0  0  0  0  0  0  0  0  0  0  0  0
  160.8250  207.3370  154.5740 C   0  0  0  0  0  0  0  0  0  0  0  0
  160.1380  206.9520  155.7200 O   0  0  0  0  0  1  0  0  0  0  0  0
  161.2070  208.5310  154.4520 O   0  0  0  0  0  0  0  0  0  0  0  0
  1  8  1  0  0  0  0
  1 12  1  1  0  0  0
  1 11  1  0  0  0  0
  3  7  1  0  0  0  0
  4  2  1  1  0  0  0
  4  7  1  0  0  0  0
  5 10  1  0  0  0  0
  5  9  2  0  0  0  0
  6  5  2  0  0  0  0
  7 21  1  1  0  0  0
  8 10  1  0  0  0  0
 10  3  1  1  0  0  0
 11  5  1  1  0  0  0
 11  4  1  0  0  0  0
 12 13  1  6  0  0  0
 14 16  1  0  0  0  0
 14 12  1  0  0  0  0
 15 17  1  0  0  0  0
 16 19  1  0  0  0  0
 17 16  2  0  0  0  0
 18 15  2  0  0  0  0
 18 20  1  0  0  0  0
 20 14  2  0  0  0  0
 21 22  2  0  0  0  0
 21 23  1  0  0  0  0
 23 24  1  0  0  0  0
 25 23  2  0  0  0  0
M  END
>  <MODEL>
8

>  <REMARK>
 VINA RESULT:      -3.7      4.195      7.072
  Name = 
  4 active torsions:
  status: ('A' for Active; 'I' for Inactive)
    1  A    between atoms: C_1  and  C_3
    2  A    between atoms: C_1  and  C_5
    3  A    between atoms: C_2  and  C_21
    4  A    between atoms: C_15  and  C_21
                            x       y       z     vdW  Elec       q    Type
                         _______ _______ _______ _____ _____    ______ ____

>  <TORSDO>
F 4

$$$$
=
 OpenBabel11052422093D

 25 27  0  0  1  0  0  0  0  0999 V2000
  161.3300  209.7040  153.7180 C   0  0  1  0  0  3  0  0  0  0  0  0
  159.0390  208.9400  156.6520 C   0  0  0  0  0  1  0  0  0  0  0  0
  159.8990  212.2610  154.8340 C   0  0  0  0  0  2  0  0  0  0  0  0
  159.4840  209.7250  155.4320 C   0  0  1  0  0  3  0  0  0  0  0  0
  161.9250  210.8020  155.8880 S   0  0  0  0  0  0  0  0  0  0  0  0
  163.4070  210.5590  155.8310 O   0  0  0  0  0  0  0  0  0  0  0  0
  159.0370  211.2050  155.5620 C   0  0  2  0  0  3  0  0  0  0  0  0
  161.3710  211.0810  153.3790 O   0  0  0  0  0  0  0  0  0  0  0  0
  161.4790  211.2280  157.2600 O   0  0  0  0  0  0  0  0  0  0  0  0
  161.3510  211.8370  154.5740 C   0  0  1  0  0  3  0  0  0  0  0  0
  160.9950  209.4970  155.1930 C   0  0  2  0  0  3  0  0  0  0  0  0
  160.4790  208.8800  152.7460 C   0  0  1  0  0  3  0  0  0  0  0  0
  160.3010  209.5440  151.5290 O   0  0  0  0  0  1  0  0  0  0  0  0
  161.0610  207.5150  152.5330 C   0  0  0  0  0  0  0  0  0  0  0  0
  162.1520  204.9830  152.0200 C   0  0  0  0  0  3  0  0  0  0  0  0
  160.8160  206.4460  153.4160 C   0  0  0  0  0  0  0  0  0  0  0  0
  161.3650  205.1860  153.1560 C   0  0  0  0  0  3  0  0  0  0  0  0
  162.3910  206.0400  151.1380 C   0  0  0  0  0  3  0  0  0  0  0  0
  160.0560  206.6160  154.5260 F   0  0  0  0  0  0  0  0  0  0  0  0
  161.8450  207.3000  151.3940 C   0  0  0  0  0  3  0  0  0  0  0  0
  157.5900  211.3760  155.2250 C   0  0  0  0  0  0  0  0  0  0  0  0
  157.1890  211.1590  154.0500 O   0  0  0  0  0  0  0  0  0  0  0  0
  156.6320  211.7950  156.2550 C   0  0  0  0  0  0  0  0  0  0  0  0
  155.5040  211.0230  156.5110 O   0  0  0  0  0  0  0  0  0  0  0  0
  156.8230  212.8520  156.9130 O   0  0  0  0  0  1  0  0  0  0  0  0
  1 12  1  6  0  0  0
  1 11  1  0  0  0  0
  3  7  1  0  0  0  0
  4  7  1  0  0  0  0
  4  2  1  1  0  0  0
  5  9  2  0  0  0  0
  6  5  2  0  0  0  0
  7 21  1  6  0  0  0
  8  1  1  0  0  0  0
  8 10  1  0  0  0  0
 10  3  1  1  0  0  0
 10  5  1  0  0  0  0
 11  4  1  0  0  0  0
 11  5  1  1  0  0  0
 12 13  1  6  0  0  0
 14 12  1  0  0  0  0
 14 16  1  0  0  0  0
 15 17  1  0  0  0  0
 16 19  1  0  0  0  0
 17 16  2  0  0  0  0
 18 20  1  0  0  0  0
 18 15  2  0  0  0  0
 20 14  2  0  0  0  0
 21 23  1  0  0  0  0
 22 21  2  0  0  0  0
 23 24  2  0  0  0  0
 23 25  1  0  0  0  0
M  END
>  <MODEL>
9

>  <REMARK>
 VINA RESULT:      -3.5      1.994      2.980
  Name = 
  4 active torsions:
  status: ('A' for Active; 'I' for Inactive)
    1  A    between atoms: C_1  and  C_3
    2  A    between atoms: C_1  and  C_5
    3  A    between atoms: C_2  and  C_21
    4  A    between atoms: C_15  and  C_21
                            x       y       z     vdW  Elec       q    Type
                         _______ _______ _______ _____ _____    ______ ____

>  <TORSDO>
F 4

$$$$
