=
 OpenBabel11062409243D

 37 37  0  0  1  0  0  0  0  0999 V2000
  162.2050  210.7280  150.9820 C   0  0  0  0  0  2  0  0  0  0  0  0
  159.5970  204.8770  150.4300 O   0  0  0  0  0  1  0  0  0  0  0  0
  162.1220  211.1520  149.5240 C   0  0  2  0  0  3  0  0  0  0  0  0
  161.5130  205.8760  152.6770 C   0  0  0  0  0  2  0  0  0  0  0  0
  160.9570  205.2820  148.0960 C   0  0  0  0  0  3  0  0  0  0  0  0
  161.2130  204.4610  153.1350 C   0  0  0  0  0  2  0  0  0  0  0  0
  160.6360  209.2810  154.1780 C   0  0  2  0  0  3  0  0  0  0  0  0
  161.2060  207.7300  147.9630 C   0  0  2  0  0  3  0  0  0  0  0  0
  161.1990  210.6340  147.3770 O   0  0  0  0  0  1  0  0  0  0  0  0
  158.7540  210.3710  152.9290 C   0  0  0  0  0  1  0  0  0  0  0  0
  161.0410  208.2550  153.1220 C   0  0  0  0  0  2  0  0  0  0  0  0
  162.7400  203.2650  151.7990 O   0  0  0  0  0  0  0  0  0  0  0  0
  161.3590  210.1350  148.6720 C   0  0  1  0  0  3  0  0  0  0  0  0
  160.4830  202.8110  151.2740 C   0  0  0  0  0  2  0  0  0  0  0  0
  161.5680  203.4950  152.0530 C   0  0  0  0  0  0  0  0  0  0  0  0
  160.1090  210.6250  153.6150 C   0  0  2  0  0  0  0  0  0  0  0  0
  163.4090  211.3530  149.0200 O   0  0  0  0  0  1  0  0  0  0  0  0
  162.0700  208.7840  148.6340 C   0  0  0  0  0  2  0  0  0  0  0  0
  161.4220  203.7060  148.8170 S   0  0  0  0  0  0  0  0  0  0  0  0
  161.0580  211.2190  152.7410 O   0  0  0  0  0  0  0  0  0  0  0  0
  161.0300  206.8620  153.7170 C   0  0  0  0  0  2  0  0  0  0  0  0
  161.5760  206.3900  148.5030 C   0  0  0  0  0  3  0  0  0  0  0  0
  161.4180  207.7630  146.5830 O   0  0  0  0  0  1  0  0  0  0  0  0
  160.0600  203.6150  150.0450 C   0  0  2  0  0  3  0  0  0  0  0  0
  160.9260  210.6750  151.5410 O   0  0  0  0  0  0  0  0  0  0  0  0
  159.0720  211.0340  155.7870 O   0  0  0  0  0  1  0  0  0  0  0  0
  159.8840  211.5940  154.7960 C   0  0  2  0  0  3  0  0  0  0  0  0
  159.3580  212.9710  154.3850 C   0  0  0  0  0  2  0  0  0  0  0  0
  158.3040  213.3790  155.2230 O   0  0  0  0  0  0  0  0  0  0  0  0
  157.4200  214.0990  153.0880 C   0  0  0  0  0  1  0  0  0  0  0  0
  157.1260  213.4940  154.4540 C   0  0  0  0  0  0  0  0  0  0  0  0
  156.1740  214.4220  155.1790 C   0  0  0  0  0  1  0  0  0  0  0  0
  156.4930  212.2680  154.3010 F   0  0  0  0  0  0  0  0  0  0  0  0
  161.6330  209.4380  155.1950 O   0  0  0  0  0  0  0  0  0  0  0  0
  161.5680  208.8640  156.4690 C   0  0  0  0  0  0  0  0  0  0  0  0
  160.4510  208.1510  156.8840 O   0  0  0  0  0  0  0  0  0  0  0  0
  162.5350  209.0110  157.2610 O   0  0  0  0  0  1  0  0  0  0  0  0
  1 25  1  0  0  0  0
  3 17  1  6  0  0  0
  3  1  1  0  0  0  0
  4  6  1  0  0  0  0
  4 21  1  0  0  0  0
  5 22  2  0  0  0  0
  5 19  1  0  0  0  0
  7 34  1  1  0  0  0
  8 23  1  6  0  0  0
  8 22  1  0  0  0  0
  8 18  1  0  0  0  0
 11 21  1  0  0  0  0
 11  7  1  0  0  0  0
 12 15  2  0  0  0  0
 13  9  1  6  0  0  0
 13  3  1  0  0  0  0
 14 15  1  0  0  0  0
 15  6  1  0  0  0  0
 16 10  1  6  0  0  0
 16  7  1  0  0  0  0
 16 27  1  0  0  0  0
 18 13  1  0  0  0  0
 19 24  1  0  0  0  0
 20 16  1  0  0  0  0
 24  2  1  1  0  0  0
 24 14  1  0  0  0  0
 25 20  1  0  0  0  0
 27 26  1  1  0  0  0
 28 27  1  0  0  0  0
 28 29  1  0  0  0  0
 30 31  1  0  0  0  0
 31 32  1  0  0  0  0
 31 29  1  0  0  0  0
 33 31  1  0  0  0  0
 34 35  1  0  0  0  0
 35 36  2  0  0  0  0
 35 37  1  0  0  0  0
M  END
>  <MODEL>
1

>  <REMARK>
 VINA RESULT:      -2.3      0.000      0.000
  Name = 
  6 active torsions:
  status: ('A' for Active; 'I' for Inactive)
    1  A    between atoms: C_4  and  O_22
    2  A    between atoms: C_10  and  O_22
    3  A    between atoms: O_16  and  C_21
    4  A    between atoms: O_16  and  C_30
    5  A    between atoms: C_20  and  C_24
    6  A    between atoms: C_24  and  C_30
                            x       y       z     vdW  Elec       q    Type
                         _______ _______ _______ _____ _____    ______ ____

>  <TORSDO>
F 6

$$$$
=
 OpenBabel11062409243D

 37 37  0  0  1  0  0  0  0  0999 V2000
  158.7740  212.0570  147.0430 C   0  0  0  0  0  2  0  0  0  0  0  0
  158.3900  214.4290  153.0060 O   0  0  0  0  0  1  0  0  0  0  0  0
  157.5560  212.7440  146.4460 C   0  0  2  0  0  3  0  0  0  0  0  0
  159.8170  211.8040  152.1170 C   0  0  0  0  0  2  0  0  0  0  0  0
  155.8040  214.1570  152.1710 C   0  0  0  0  0  3  0  0  0  0  0  0
  160.1270  211.8350  153.6010 C   0  0  0  0  0  2  0  0  0  0  0  0
  162.0580  212.1260  149.0360 C   0  0  2  0  0  3  0  0  0  0  0  0
  155.9700  214.0810  149.7150 C   0  0  2  0  0  3  0  0  0  0  0  0
  155.9010  214.4410  146.7740 O   0  0  0  0  0  1  0  0  0  0  0  0
  161.8500  214.3950  147.9890 C   0  0  0  0  0  1  0  0  0  0  0  0
  160.7810  212.1470  149.8730 C   0  0  0  0  0  2  0  0  0  0  0  0
  158.1250  210.9410  154.4580 O   0  0  0  0  0  0  0  0  0  0  0  0
  156.9290  213.7470  147.4170 C   0  0  1  0  0  3  0  0  0  0  0  0
  158.4750  213.1950  155.0640 C   0  0  0  0  0  2  0  0  0  0  0  0
  158.8560  211.9150  154.3800 C   0  0  0  0  0  0  0  0  0  0  0  0
  161.9710  212.8900  147.6910 C   0  0  2  0  0  0  0  0  0  0  0  0
  156.6200  211.7840  146.0550 O   0  0  0  0  0  1  0  0  0  0  0  0
  156.3990  213.0610  148.6740 C   0  0  0  0  0  2  0  0  0  0  0  0
  156.0220  213.3770  153.7720 S   0  0  0  0  0  0  0  0  0  0  0  0
  160.8970  212.4050  146.8980 O   0  0  0  0  0  0  0  0  0  0  0  0
  161.1040  211.8590  151.3250 C   0  0  0  0  0  2  0  0  0  0  0  0
  156.1000  213.4710  151.0690 C   0  0  0  0  0  3  0  0  0  0  0  0
  154.6440  214.4520  149.4840 O   0  0  0  0  0  1  0  0  0  0  0  0
  157.6590  214.1140  154.1550 C   0  0  2  0  0  3  0  0  0  0  0  0
  159.7790  212.9920  147.2940 O   0  0  0  0  0  0  0  0  0  0  0  0
  164.4090  212.7610  147.7270 O   0  0  0  0  0  1  0  0  0  0  0  0
  163.2810  212.6510  146.9080 C   0  0  2  0  0  3  0  0  0  0  0  0
  163.4340  213.5260  145.6620 C   0  0  0  0  0  2  0  0  0  0  0  0
  163.4250  212.7440  144.4930 O   0  0  0  0  0  0  0  0  0  0  0  0
  161.6040  214.2730  144.0420 C   0  0  0  0  0  1  0  0  0  0  0  0
  162.7530  213.4520  143.4730 C   0  0  0  0  0  0  0  0  0  0  0  0
  162.1700  212.4470  142.5020 C   0  0  0  0  0  1  0  0  0  0  0  0
  163.6180  214.2760  142.7670 F   0  0  0  0  0  0  0  0  0  0  0  0
  162.6070  210.8080  148.9120 O   0  0  0  0  0  0  0  0  0  0  0  0
  161.8600  209.6260  148.9590 C   0  0  0  0  0  0  0  0  0  0  0  0
  161.7940  208.8600  150.1160 O   0  0  0  0  0  1  0  0  0  0  0  0
  161.2500  209.2410  147.9290 O   0  0  0  0  0  0  0  0  0  0  0  0
  1 25  1  0  0  0  0
  3 17  1  1  0  0  0
  3  1  1  0  0  0  0
  3 13  1  0  0  0  0
  4  6  1  0  0  0  0
  5 19  1  0  0  0  0
  6 15  1  0  0  0  0
  7 34  1  6  0  0  0
  7 11  1  0  0  0  0
  8 23  1  6  0  0  0
  8 22  1  0  0  0  0
 11 21  1  0  0  0  0
 13  9  1  6  0  0  0
 13 18  1  0  0  0  0
 15 12  2  0  0  0  0
 15 14  1  0  0  0  0
 16 10  1  1  0  0  0
 16  7  1  0  0  0  0
 18  8  1  0  0  0  0
 19 24  1  0  0  0  0
 20 25  1  0  0  0  0
 20 16  1  0  0  0  0
 21  4  1  0  0  0  0
 22  5  2  0  0  0  0
 24  2  1  6  0  0  0
 24 14  1  0  0  0  0
 27 16  1  0  0  0  0
 27 26  1  1  0  0  0
 28 27  1  0  0  0  0
 29 28  1  0  0  0  0
 31 30  1  0  0  0  0
 31 29  1  0  0  0  0
 32 31  1  0  0  0  0
 33 31  1  0  0  0  0
 34 35  1  0  0  0  0
 35 36  1  0  0  0  0
 37 35  2  0  0  0  0
M  END
>  <MODEL>
2

>  <REMARK>
 VINA RESULT:      -1.9      4.720      8.889
  Name = 
  6 active torsions:
  status: ('A' for Active; 'I' for Inactive)
    1  A    between atoms: C_4  and  O_22
    2  A    between atoms: C_10  and  O_22
    3  A    between atoms: O_16  and  C_21
    4  A    between atoms: O_16  and  C_30
    5  A    between atoms: C_20  and  C_24
    6  A    between atoms: C_24  and  C_30
                            x       y       z     vdW  Elec       q    Type
                         _______ _______ _______ _____ _____    ______ ____

>  <TORSDO>
F 6

$$$$
=
 OpenBabel11062409243D

 37 37  0  0  1  0  0  0  0  0999 V2000
  161.8680  207.3380  152.3220 C   0  0  0  0  0  2  0  0  0  0  0  0
  159.2060  212.3890  149.3660 O   0  0  0  0  0  1  0  0  0  0  0  0
  161.2670  207.5400  153.7040 C   0  0  2  0  0  3  0  0  0  0  0  0
  161.8090  210.8860  148.5400 C   0  0  0  0  0  2  0  0  0  0  0  0
  159.6330  213.2020  151.9380 C   0  0  0  0  0  3  0  0  0  0  0  0
  161.6870  211.9200  147.4370 C   0  0  0  0  0  2  0  0  0  0  0  0
  161.5520  207.0720  148.5020 C   0  0  2  0  0  3  0  0  0  0  0  0
  159.8310  211.1010  153.2080 C   0  0  2  0  0  3  0  0  0  0  0  0
  159.6280  208.7320  154.9770 O   0  0  0  0  0  1  0  0  0  0  0  0
  159.3520  206.2960  149.4220 C   0  0  0  0  0  1  0  0  0  0  0  0
  161.5430  208.4920  149.0640 C   0  0  0  0  0  2  0  0  0  0  0  0
  162.6220  213.7900  148.5200 O   0  0  0  0  0  0  0  0  0  0  0  0
  160.2430  208.6770  153.7240 C   0  0  1  0  0  3  0  0  0  0  0  0
  160.3250  214.0430  148.0340 C   0  0  0  0  0  2  0  0  0  0  0  0
  161.6220  213.2880  148.0320 C   0  0  0  0  0  0  0  0  0  0  0  0
  160.8650  206.0100  149.3950 C   0  0  2  0  0  0  0  0  0  0  0  0
  162.2860  207.7770  154.6290 O   0  0  0  0  0  1  0  0  0  0  0  0
  160.8840  210.0210  153.3890 C   0  0  0  0  0  2  0  0  0  0  0  0
  160.3190  214.3990  150.7900 S   0  0  0  0  0  0  0  0  0  0  0  0
  161.4370  205.9900  150.6950 O   0  0  0  0  0  0  0  0  0  0  0  0
  161.7400  209.4970  147.9480 C   0  0  0  0  0  2  0  0  0  0  0  0
  160.3630  212.1430  152.2840 C   0  0  0  0  0  3  0  0  0  0  0  0
  159.5300  211.6700  154.4470 O   0  0  0  0  0  1  0  0  0  0  0  0
  159.4920  213.7550  149.2820 C   0  0  2  0  0  3  0  0  0  0  0  0
  160.8780  206.9470  151.4180 O   0  0  0  0  0  0  0  0  0  0  0  0
  160.5020  204.5220  147.4930 O   0  0  0  0  0  1  0  0  0  0  0  0
  161.0870  204.6190  148.7600 C   0  0  2  0  0  3  0  0  0  0  0  0
  160.6500  203.4500  149.6450 C   0  0  0  0  0  2  0  0  0  0  0  0
  161.6120  202.4230  149.6340 O   0  0  0  0  0  0  0  0  0  0  0  0
  161.4450  200.6190  148.0300 C   0  0  0  0  0  1  0  0  0  0  0  0
  160.9700  201.1970  149.3560 C   0  0  0  0  0  0  0  0  0  0  0  0
  159.4820  201.4540  149.2470 C   0  0  0  0  0  1  0  0  0  0  0  0
  161.1710  200.2730  150.3720 F   0  0  0  0  0  0  0  0  0  0  0  0
  162.8500  206.6780  148.0390 O   0  0  0  0  0  0  0  0  0  0  0  0
  163.0910  205.9380  146.8760 C   0  0  0  0  0  0  0  0  0  0  0  0
  163.9790  204.8700  146.8720 O   0  0  0  0  0  1  0  0  0  0  0  0
  162.5040  206.2570  145.8100 O   0  0  0  0  0  0  0  0  0  0  0  0
  1  3  1  0  0  0  0
  3 13  1  0  0  0  0
  3 17  1  1  0  0  0
  5 22  2  0  0  0  0
  6 15  1  0  0  0  0
  6  4  1  0  0  0  0
  7 34  1  1  0  0  0
  7 11  1  0  0  0  0
  7 16  1  0  0  0  0
  8 18  1  0  0  0  0
  8 23  1  1  0  0  0
 13  9  1  1  0  0  0
 14 24  1  0  0  0  0
 15 14  1  0  0  0  0
 15 12  2  0  0  0  0
 16 10  1  1  0  0  0
 16 20  1  0  0  0  0
 18 13  1  0  0  0  0
 19  5  1  0  0  0  0
 20 25  1  0  0  0  0
 21  4  1  0  0  0  0
 21 11  1  0  0  0  0
 22  8  1  0  0  0  0
 24  2  1  1  0  0  0
 24 19  1  0  0  0  0
 25  1  1  0  0  0  0
 27 26  1  6  0  0  0
 27 16  1  0  0  0  0
 27 28  1  0  0  0  0
 29 28  1  0  0  0  0
 30 31  1  0  0  0  0
 31 29  1  0  0  0  0
 31 33  1  0  0  0  0
 32 31  1  0  0  0  0
 35 34  1  0  0  0  0
 36 35  1  0  0  0  0
 37 35  2  0  0  0  0
M  END
>  <MODEL>
3

>  <REMARK>
 VINA RESULT:      -1.5      3.597      9.246
  Name = 
  6 active torsions:
  status: ('A' for Active; 'I' for Inactive)
    1  A    between atoms: C_4  and  O_22
    2  A    between atoms: C_10  and  O_22
    3  A    between atoms: O_16  and  C_21
    4  A    between atoms: O_16  and  C_30
    5  A    between atoms: C_20  and  C_24
    6  A    between atoms: C_24  and  C_30
                            x       y       z     vdW  Elec       q    Type
                         _______ _______ _______ _____ _____    ______ ____

>  <TORSDO>
F 6

$$$$
=
 OpenBabel11062409243D

 37 37  0  0  1  0  0  0  0  0999 V2000
  158.7200  212.1970  150.0930 C   0  0  0  0  0  2  0  0  0  0  0  0
  161.7770  209.6030  155.1180 O   0  0  0  0  0  1  0  0  0  0  0  0
  157.9450  213.2780  150.8310 C   0  0  2  0  0  3  0  0  0  0  0  0
  161.1540  208.2340  152.3870 C   0  0  0  0  0  2  0  0  0  0  0  0
  159.3530  210.4070  156.0870 C   0  0  0  0  0  3  0  0  0  0  0  0
  161.9260  207.1460  153.1080 C   0  0  0  0  0  2  0  0  0  0  0  0
  161.9750  210.3200  149.2900 C   0  0  2  0  0  3  0  0  0  0  0  0
  158.5840  212.0880  154.4590 C   0  0  2  0  0  3  0  0  0  0  0  0
  157.6990  214.4500  152.9030 O   0  0  0  0  0  1  0  0  0  0  0  0
  162.6680  212.6480  149.9140 C   0  0  0  0  0  1  0  0  0  0  0  0
  161.2970  209.9280  150.6010 C   0  0  0  0  0  2  0  0  0  0  0  0
  160.2060  206.2260  154.4270 O   0  0  0  0  0  0  0  0  0  0  0  0
  158.3400  213.3610  152.3070 C   0  0  1  0  0  3  0  0  0  0  0  0
  161.8970  207.2760  155.6960 C   0  0  0  0  0  2  0  0  0  0  0  0
  161.2640  206.8350  154.4090 C   0  0  0  0  0  0  0  0  0  0  0  0
  161.8490  211.8170  148.9100 C   0  0  2  0  0  0  0  0  0  0  0  0
  156.5740  213.0450  150.6990 O   0  0  0  0  0  1  0  0  0  0  0  0
  158.0030  212.0740  153.0560 C   0  0  0  0  0  2  0  0  0  0  0  0
  159.6590  208.6960  156.5310 S   0  0  0  0  0  0  0  0  0  0  0  0
  160.4870  212.2160  148.8570 O   0  0  0  0  0  0  0  0  0  0  0  0
  161.8960  208.6440  151.1350 C   0  0  0  0  0  2  0  0  0  0  0  0
  158.8280  210.6830  154.8940 C   0  0  0  0  0  3  0  0  0  0  0  0
  157.6840  212.7080  155.3290 O   0  0  0  0  0  1  0  0  0  0  0  0
  161.4470  208.6760  156.1110 C   0  0  2  0  0  3  0  0  0  0  0  0
  160.0820  212.5030  150.0850 O   0  0  0  0  0  0  0  0  0  0  0  0
  163.8500  212.1020  147.5400 O   0  0  0  0  0  1  0  0  0  0  0  0
  162.4550  212.0160  147.5030 C   0  0  2  0  0  3  0  0  0  0  0  0
  161.8640  213.1960  146.7290 C   0  0  0  0  0  2  0  0  0  0  0  0
  161.8490  212.9350  145.3470 O   0  0  0  0  0  0  0  0  0  0  0  0
  160.4950  213.2410  143.3640 C   0  0  0  0  0  1  0  0  0  0  0  0
  160.5240  213.0420  144.8730 C   0  0  0  0  0  0  0  0  0  0  0  0
  159.8870  214.2570  145.5160 C   0  0  0  0  0  1  0  0  0  0  0  0
  159.7660  211.9310  145.2170 F   0  0  0  0  0  0  0  0  0  0  0  0
  161.6450  209.4280  148.2180 O   0  0  0  0  0  0  0  0  0  0  0  0
  161.9240  208.0570  148.2080 C   0  0  0  0  0  0  0  0  0  0  0  0
  160.9120  207.1140  148.3390 O   0  0  0  0  0  1  0  0  0  0  0  0
  163.1160  207.6710  148.0930 O   0  0  0  0  0  0  0  0  0  0  0  0
  1  3  1  0  0  0  0
  3 17  1  1  0  0  0
  3 13  1  0  0  0  0
  4  6  1  0  0  0  0
  5 19  1  0  0  0  0
  6 15  1  0  0  0  0
  7 34  1  6  0  0  0
  7 11  1  0  0  0  0
  8 22  1  0  0  0  0
  8 23  1  1  0  0  0
 11 21  1  0  0  0  0
 13  9  1  1  0  0  0
 13 18  1  0  0  0  0
 14 24  1  0  0  0  0
 15 12  2  0  0  0  0
 15 14  1  0  0  0  0
 16  7  1  0  0  0  0
 16 10  1  1  0  0  0
 18  8  1  0  0  0  0
 20 16  1  0  0  0  0
 20 25  1  0  0  0  0
 21  4  1  0  0  0  0
 22  5  2  0  0  0  0
 24  2  1  6  0  0  0
 24 19  1  0  0  0  0
 25  1  1  0  0  0  0
 27 26  1  1  0  0  0
 27 16  1  0  0  0  0
 28 27  1  0  0  0  0
 29 28  1  0  0  0  0
 30 31  1  0  0  0  0
 31 33  1  0  0  0  0
 31 29  1  0  0  0  0
 31 32  1  0  0  0  0
 35 34  1  0  0  0  0
 35 36  1  0  0  0  0
 37 35  2  0  0  0  0
M  END
>  <MODEL>
4

>  <REMARK>
 VINA RESULT:       0.3      3.338      7.361
  Name = 
  6 active torsions:
  status: ('A' for Active; 'I' for Inactive)
    1  A    between atoms: C_4  and  O_22
    2  A    between atoms: C_10  and  O_22
    3  A    between atoms: O_16  and  C_21
    4  A    between atoms: O_16  and  C_30
    5  A    between atoms: C_20  and  C_24
    6  A    between atoms: C_24  and  C_30
                            x       y       z     vdW  Elec       q    Type
                         _______ _______ _______ _____ _____    ______ ____

>  <TORSDO>
F 6

$$$$
