=
 OpenBabel11062408473D

 55 61  0  0  1  0  0  0  0  0999 V2000
  160.8320  213.6760  149.1120 C   0  0  1  0  0  3  0  0  0  0  0  0
  159.5980  213.1800  149.8390 C   0  0  0  0  0  2  0  0  0  0  0  0
  159.5700  213.7420  151.2580 C   0  0  0  0  0  2  0  0  0  0  0  0
  156.9670  214.4530  151.7150 S   0  0  0  0  0  1  0  0  0  0  0  0
  158.3420  213.2960  152.0650 C   0  0  1  0  0  0  0  0  0  0  0  0
  157.9690  212.0570  151.5800 F   0  0  0  0  0  0  0  0  0  0  0  0
  157.4750  211.0750  154.7380 C   0  0  0  0  0  2  0  0  0  0  0  0
  159.0320  212.3810  156.2410 O   0  0  0  0  0  0  0  0  0  0  0  0
  158.6350  213.1780  153.6020 C   0  0  1  0  0  0  0  0  0  0  0  0
  159.9020  211.1710  153.0930 F   0  0  0  0  0  0  0  0  0  0  0  0
  159.9010  212.3290  153.8630 C   0  0  2  0  0  3  0  0  0  0  0  0
  156.1690  213.0690  154.1720 O   0  0  0  0  0  1  0  0  0  0  0  0
  157.6900  212.1460  155.8080 C   0  0  1  0  0  3  0  0  0  0  0  0
  160.0770  211.9970  155.3620 C   0  0  2  0  0  3  0  0  0  0  0  0
  158.8570  214.4530  154.1310 O   0  0  0  0  0  1  0  0  0  0  0  0
  157.4450  212.5450  154.3620 C   0  0  1  0  0  0  0  0  0  0  0  0
  160.7300  210.6760  155.7540 C   0  0  1  0  0  3  0  0  0  0  0  0
  159.7990  209.7870  156.2720 O   0  0  0  0  0  1  0  0  0  0  0  0
  161.4360  210.0630  154.5700 C   0  0  0  0  0  2  0  0  0  0  0  0
  162.7170  210.5920  154.4740 O   0  0  0  0  0  1  0  0  0  0  0  0
  161.7830  212.5070  148.8640 C   0  0  0  0  0  2  0  0  0  0  0  0
  161.2220  211.2130  149.4290 C   0  0  0  0  0  2  0  0  0  0  0  0
  161.3150  210.1780  148.4610 O   0  0  0  0  0  0  0  0  0  0  0  0
  163.2240  208.9200  148.3030 O   0  0  0  0  0  0  0  0  0  0  0  0
  161.4210  207.9100  149.3880 N   0  0  0  0  0  2  0  0  0  0  0  0
  162.0350  209.0100  148.7090 C   0  0  0  0  0  0  0  0  0  0  0  0
  161.9900  204.9730  146.3310 C   0  0  0  0  0  3  0  0  0  0  0  0
  162.3280  206.9790  152.1510 C   0  0  0  0  0  3  0  0  0  0  0  0
  159.9770  202.3430  148.1680 C   0  0  0  0  0  2  0  0  0  0  0  0
  162.0320  206.6040  153.4660 C   0  0  0  0  0  3  0  0  0  0  0  0
  161.0720  205.0760  151.3290 C   0  0  0  0  0  0  0  0  0  0  0  0
  160.7700  204.7120  152.6440 C   0  0  0  0  0  3  0  0  0  0  0  0
  161.2500  205.4740  153.7120 C   0  0  0  0  0  3  0  0  0  0  0  0
  161.8510  206.2200  151.0750 C   0  0  0  0  0  0  0  0  0  0  0  0
  162.2450  205.8550  147.3350 N   0  0  0  0  0  0  0  0  0  0  0  0
  160.3830  201.5140  145.8650 C   0  0  2  0  0  3  0  0  0  0  0  0
  161.0440  204.5100  148.9040 C   0  0  0  0  0  0  0  0  0  0  0  0
  161.2450  203.8210  146.5800 C   0  0  0  0  0  0  0  0  0  0  0  0
  160.6300  204.2530  150.2490 N   0  0  0  0  0  0  0  0  0  0  0  0
  161.0880  202.8130  145.4720 C   0  0  0  0  0  2  0  0  0  0  0  0
  162.1370  206.6740  149.6660 C   0  0  0  0  0  0  0  0  0  0  0  0
  160.5310  201.1910  147.3500 C   0  0  0  0  0  2  0  0  0  0  0  0
  161.8080  205.6510  148.6070 C   0  0  0  0  0  0  0  0  0  0  0  0
  160.7620  203.5890  147.8810 C   0  0  0  0  0  0  0  0  0  0  0  0
  160.9160  200.4690  145.1070 O   0  0  0  0  0  0  0  0  0  0  0  0
  161.1780  199.4410  146.0080 C   0  0  0  0  0  2  0  0  0  0  0  0
  160.8340  198.1140  145.3540 C   0  0  0  0  0  1  0  0  0  0  0  0
  160.4120  214.3080  147.7960 C   0  0  0  0  0  2  0  0  0  0  0  0
  159.7160  213.2660  146.9330 C   0  0  0  0  0  2  0  0  0  0  0  0
  161.7880  212.7690  143.1990 C   0  0  0  0  0  3  0  0  0  0  0  0
  160.4380  213.0760  145.6410 C   0  0  0  0  0  0  0  0  0  0  0  0
  161.7270  213.6020  145.4830 C   0  0  0  0  0  3  0  0  0  0  0  0
  160.5020  212.2390  143.3590 C   0  0  0  0  0  3  0  0  0  0  0  0
  162.4000  213.4490  144.2620 C   0  0  0  0  0  3  0  0  0  0  0  0
  159.8270  212.3920  144.5790 C   0  0  0  0  0  3  0  0  0  0  0  0
  1 48  1  6  0  0  0
  1  2  1  0  0  0  0
  2  3  1  0  0  0  0
  3  5  1  0  0  0  0
  4  5  1  0  0  0  0
  5  6  1  6  0  0  0
  5  9  1  0  0  0  0
  9 11  1  0  0  0  0
  9 15  1  1  0  0  0
  9 16  1  0  0  0  0
 11 10  1  6  0  0  0
 11 14  1  0  0  0  0
 13  7  1  6  0  0  0
 13  8  1  0  0  0  0
 14 17  1  6  0  0  0
 14  8  1  0  0  0  0
 16 12  1  6  0  0  0
 16  7  1  0  0  0  0
 16 13  1  0  0  0  0
 17 18  1  6  0  0  0
 19 17  1  0  0  0  0
 20 19  1  0  0  0  0
 21  1  1  0  0  0  0
 21 22  1  0  0  0  0
 23 26  1  0  0  0  0
 23 22  1  0  0  0  0
 24 26  2  0  0  0  0
 25 41  1  0  0  0  0
 26 25  1  0  0  0  0
 27 38  2  0  0  0  0
 27 35  1  0  0  0  0
 28 30  2  0  0  0  0
 30 33  1  0  0  0  0
 31 32  1  0  0  0  0
 32 33  2  0  0  0  0
 34 31  1  0  0  0  0
 34 28  1  0  0  0  0
 35 43  2  0  0  0  0
 36 45  1  6  0  0  0
 36 42  1  0  0  0  0
 37 39  1  0  0  0  0
 38 44  1  0  0  0  0
 39 31  2  0  0  0  0
 40 36  1  0  0  0  0
 40 38  1  0  0  0  0
 41 34  2  0  0  0  0
 42 29  1  0  0  0  0
 43 37  1  0  0  0  0
 43 41  1  0  0  0  0
 44 29  1  0  0  0  0
 44 37  2  0  0  0  0
 45 46  1  0  0  0  0
 47 46  1  0  0  0  0
 49 48  1  0  0  0  0
 50 53  2  0  0  0  0
 50 54  1  0  0  0  0
 51 49  1  0  0  0  0
 52 51  1  0  0  0  0
 53 55  1  0  0  0  0
 54 52  2  0  0  0  0
 55 51  2  0  0  0  0
M  END
>  <MODEL>
1

>  <REMARK>
 VINA RESULT:      -6.1      0.000      0.000
  Name = 
  16 active torsions:
  status: ('A' for Active; 'I' for Inactive)
    1  A    between atoms: O_4  and  C_37
    2  A    between atoms: O_4  and  C_40
    3  A    between atoms: C_6  and  C_20
    4  A    between atoms: C_8  and  C_22
    5  A    between atoms: C_8  and  C_43
    6  A    between atoms: O_10  and  C_18
    7  A    between atoms: O_10  and  C_32
    8  A    between atoms: C_11  and  C_29
    9  A    between atoms: N_19  and  C_45
   10  A    between atoms: C_20  and  C_22
   11  A    between atoms: C_27  and  C_54
   12  A    between atoms: C_29  and  C_38
   13  A    between atoms: C_35  and  C_37
   14  A    between atoms: C_35  and  C_43
   15  A    between atoms: C_43  and  C_51
   16  A    between atoms: C_51  and  C_54
                            x       y       z     vdW  Elec       q    Type
                         _______ _______ _______ _____ _____    ______ ____

>  <TORSDO>
F 16

$$$$
=
 OpenBabel11062408473D

 55 61  0  0  1  0  0  0  0  0999 V2000
  160.4950  213.6150  149.9270 C   0  0  1  0  0  3  0  0  0  0  0  0
  159.2380  213.3160  150.7190 C   0  0  0  0  0  2  0  0  0  0  0  0
  159.5070  213.5010  152.2100 C   0  0  0  0  0  2  0  0  0  0  0  0
  159.1770  210.8100  151.8350 S   0  0  0  0  0  1  0  0  0  0  0  0
  159.5730  212.1780  152.9860 C   0  0  1  0  0  0  0  0  0  0  0  0
  160.8860  212.0100  153.3850 F   0  0  0  0  0  0  0  0  0  0  0  0
  158.8710  214.3590  155.7390 C   0  0  0  0  0  2  0  0  0  0  0  0
  157.0560  212.7530  156.4610 O   0  0  0  0  0  0  0  0  0  0  0  0
  158.6470  212.1680  154.2520 C   0  0  1  0  0  0  0  0  0  0  0  0
  157.4090  213.9850  153.2230 F   0  0  0  0  0  0  0  0  0  0  0  0
  157.2710  212.8010  153.9390 C   0  0  2  0  0  3  0  0  0  0  0  0
  160.5930  212.6170  155.8100 O   0  0  0  0  0  1  0  0  0  0  0  0
  158.4000  213.2110  156.6340 C   0  0  1  0  0  3  0  0  0  0  0  0
  156.4310  213.0220  155.2170 C   0  0  2  0  0  3  0  0  0  0  0  0
  158.4300  210.8470  154.6580 O   0  0  0  0  0  1  0  0  0  0  0  0
  159.2890  212.9320  155.4340 C   0  0  1  0  0  0  0  0  0  0  0  0
  155.4720  214.2060  155.2750 C   0  0  1  0  0  3  0  0  0  0  0  0
  154.4650  214.0880  154.3280 O   0  0  0  0  0  1  0  0  0  0  0  0
  154.8790  214.3400  156.6560 C   0  0  0  0  0  2  0  0  0  0  0  0
  153.5070  214.1320  156.5890 O   0  0  0  0  0  1  0  0  0  0  0  0
  161.1740  212.3050  149.5330 C   0  0  0  0  0  2  0  0  0  0  0  0
  161.2180  212.1410  148.0230 C   0  0  0  0  0  2  0  0  0  0  0  0
  161.1390  210.7650  147.6790 O   0  0  0  0  0  0  0  0  0  0  0  0
  163.1900  209.9470  148.2930 O   0  0  0  0  0  0  0  0  0  0  0  0
  161.3440  208.6680  148.9330 N   0  0  0  0  0  2  0  0  0  0  0  0
  161.9380  209.8100  148.3070 C   0  0  0  0  0  0  0  0  0  0  0  0
  162.0510  204.8800  147.0760 C   0  0  0  0  0  3  0  0  0  0  0  0
  162.3510  208.8160  151.8130 C   0  0  0  0  0  3  0  0  0  0  0  0
  160.2370  202.9580  149.7880 C   0  0  0  0  0  2  0  0  0  0  0  0
  162.0990  208.9110  153.1850 C   0  0  0  0  0  3  0  0  0  0  0  0
  161.2050  206.6810  151.7530 C   0  0  0  0  0  0  0  0  0  0  0  0
  160.9480  206.7860  153.1230 C   0  0  0  0  0  3  0  0  0  0  0  0
  161.3940  207.8990  153.8390 C   0  0  0  0  0  3  0  0  0  0  0  0
  161.9070  207.7030  151.0880 C   0  0  0  0  0  0  0  0  0  0  0  0
  162.2650  206.0720  147.6980 N   0  0  0  0  0  0  0  0  0  0  0  0
  160.6590  201.3970  147.9070 C   0  0  2  0  0  3  0  0  0  0  0  0
  161.1760  205.3000  149.6820 C   0  0  0  0  0  0  0  0  0  0  0  0
  161.3850  203.8510  147.7390 C   0  0  0  0  0  0  0  0  0  0  0  0
  160.8000  205.5090  151.0460 N   0  0  0  0  0  0  0  0  0  0  0  0
  161.2750  202.5120  147.0600 C   0  0  0  0  0  2  0  0  0  0  0  0
  162.1420  207.6490  149.5980 C   0  0  0  0  0  0  0  0  0  0  0  0
  160.8500  201.6240  149.4040 C   0  0  0  0  0  2  0  0  0  0  0  0
  161.8620  206.3030  148.9770 C   0  0  0  0  0  0  0  0  0  0  0  0
  160.9370  204.0640  149.0560 C   0  0  0  0  0  0  0  0  0  0  0  0
  161.2450  200.1820  147.5420 O   0  0  0  0  0  0  0  0  0  0  0  0
  161.2060  200.1440  146.1510 C   0  0  0  0  0  2  0  0  0  0  0  0
  161.5630  198.7420  145.6880 C   0  0  0  0  0  1  0  0  0  0  0  0
  160.1230  214.4140  148.6890 C   0  0  0  0  0  2  0  0  0  0  0  0
  158.6160  214.3690  148.4910 C   0  0  0  0  0  2  0  0  0  0  0  0
  157.6360  213.9370  144.3280 C   0  0  0  0  0  3  0  0  0  0  0  0
  158.2730  214.2010  147.0490 C   0  0  0  0  0  0  0  0  0  0  0  0
  159.2890  214.2350  146.0860 C   0  0  0  0  0  3  0  0  0  0  0  0
  156.6210  213.8980  145.2900 C   0  0  0  0  0  3  0  0  0  0  0  0
  158.9700  214.1050  144.7260 C   0  0  0  0  0  3  0  0  0  0  0  0
  156.9380  214.0300  146.6510 C   0  0  0  0  0  3  0  0  0  0  0  0
  1 48  1  6  0  0  0
  1  2  1  0  0  0  0
  2  3  1  0  0  0  0
  3  5  1  0  0  0  0
  5  4  1  6  0  0  0
  5  6  1  0  0  0  0
  5  9  1  0  0  0  0
  8 13  1  0  0  0  0
  9 15  1  1  0  0  0
  9 16  1  0  0  0  0
 11 10  1  1  0  0  0
 11  9  1  0  0  0  0
 11 14  1  0  0  0  0
 13  7  1  6  0  0  0
 14 17  1  1  0  0  0
 14  8  1  0  0  0  0
 16  7  1  0  0  0  0
 16 12  1  1  0  0  0
 16 13  1  0  0  0  0
 17 18  1  6  0  0  0
 17 19  1  0  0  0  0
 20 19  1  0  0  0  0
 21  1  1  0  0  0  0
 22 21  1  0  0  0  0
 23 22  1  0  0  0  0
 23 26  1  0  0  0  0
 24 26  2  0  0  0  0
 25 41  1  0  0  0  0
 26 25  1  0  0  0  0
 27 35  2  0  0  0  0
 27 38  1  0  0  0  0
 28 30  1  0  0  0  0
 30 33  2  0  0  0  0
 31 32  2  0  0  0  0
 32 33  1  0  0  0  0
 34 31  1  0  0  0  0
 34 28  2  0  0  0  0
 35 43  1  0  0  0  0
 36 45  1  6  0  0  0
 36 42  1  0  0  0  0
 37 39  2  0  0  0  0
 38 44  2  0  0  0  0
 39 31  1  0  0  0  0
 40 38  1  0  0  0  0
 40 36  1  0  0  0  0
 41 34  1  0  0  0  0
 42 29  1  0  0  0  0
 43 41  2  0  0  0  0
 43 37  1  0  0  0  0
 44 37  1  0  0  0  0
 44 29  1  0  0  0  0
 46 45  1  0  0  0  0
 47 46  1  0  0  0  0
 49 48  1  0  0  0  0
 50 54  2  0  0  0  0
 50 53  1  0  0  0  0
 51 49  1  0  0  0  0
 52 51  2  0  0  0  0
 53 55  2  0  0  0  0
 54 52  1  0  0  0  0
 55 51  1  0  0  0  0
M  END
>  <MODEL>
2

>  <REMARK>
 VINA RESULT:      -5.3      1.795      3.147
  Name = 
  16 active torsions:
  status: ('A' for Active; 'I' for Inactive)
    1  A    between atoms: O_4  and  C_37
    2  A    between atoms: O_4  and  C_40
    3  A    between atoms: C_6  and  C_20
    4  A    between atoms: C_8  and  C_22
    5  A    between atoms: C_8  and  C_43
    6  A    between atoms: O_10  and  C_18
    7  A    between atoms: O_10  and  C_32
    8  A    between atoms: C_11  and  C_29
    9  A    between atoms: N_19  and  C_45
   10  A    between atoms: C_20  and  C_22
   11  A    between atoms: C_27  and  C_54
   12  A    between atoms: C_29  and  C_38
   13  A    between atoms: C_35  and  C_37
   14  A    between atoms: C_35  and  C_43
   15  A    between atoms: C_43  and  C_51
   16  A    between atoms: C_51  and  C_54
                            x       y       z     vdW  Elec       q    Type
                         _______ _______ _______ _____ _____    ______ ____

>  <TORSDO>
F 16

$$$$
=
 OpenBabel11062408473D

 55 61  0  0  1  0  0  0  0  0999 V2000
  162.1240  208.4690  140.1240 C   0  0  1  0  0  3  0  0  0  0  0  0
  161.5030  209.8500  140.1840 C   0  0  0  0  0  2  0  0  0  0  0  0
  162.5470  210.8700  140.6320 C   0  0  0  0  0  2  0  0  0  0  0  0
  163.8640  213.0390  139.6060 S   0  0  0  0  0  1  0  0  0  0  0  0
  162.2720  212.2900  140.1150 C   0  0  1  0  0  0  0  0  0  0  0  0
  161.4980  212.1620  138.9760 F   0  0  0  0  0  0  0  0  0  0  0  0
  159.9870  211.7790  142.8250 C   0  0  0  0  0  2  0  0  0  0  0  0
  160.1450  214.2510  143.3350 O   0  0  0  0  0  0  0  0  0  0  0  0
  161.5090  213.1800  141.1570 C   0  0  1  0  0  0  0  0  0  0  0  0
  162.8960  212.1650  142.8720 F   0  0  0  0  0  0  0  0  0  0  0  0
  162.3450  213.3680  142.4440 C   0  0  2  0  0  3  0  0  0  0  0  0
  159.2670  212.1890  140.5200 O   0  0  0  0  0  1  0  0  0  0  0  0
  159.4120  213.1920  142.7140 C   0  0  1  0  0  3  0  0  0  0  0  0
  161.5260  214.0340  143.5740 C   0  0  2  0  0  3  0  0  0  0  0  0
  161.2780  214.4440  140.6060 O   0  0  0  0  0  1  0  0  0  0  0  0
  160.1400  212.5670  141.5360 C   0  0  1  0  0  0  0  0  0  0  0  0
  161.8310  213.6670  145.0220 C   0  0  1  0  0  3  0  0  0  0  0  0
  163.0110  214.2550  145.4550 O   0  0  0  0  0  1  0  0  0  0  0  0
  160.6880  214.0660  145.9210 C   0  0  0  0  0  2  0  0  0  0  0  0
  160.0960  212.9240  146.4470 O   0  0  0  0  0  1  0  0  0  0  0  0
  162.0180  207.8010  141.4930 C   0  0  0  0  0  2  0  0  0  0  0  0
  162.3550  206.3220  141.4110 C   0  0  0  0  0  2  0  0  0  0  0  0
  162.6180  205.8090  142.7090 O   0  0  0  0  0  0  0  0  0  0  0  0
  160.3960  205.4900  143.1690 O   0  0  0  0  0  0  0  0  0  0  0  0
  161.8670  205.1590  144.9510 N   0  0  0  0  0  2  0  0  0  0  0  0
  161.5850  205.4770  143.5840 C   0  0  0  0  0  0  0  0  0  0  0  0
  160.8880  207.7620  148.2010 C   0  0  0  0  0  3  0  0  0  0  0  0
  160.4300  202.4670  145.0750 C   0  0  0  0  0  3  0  0  0  0  0  0
  161.8960  205.2290  150.8290 C   0  0  0  0  0  2  0  0  0  0  0  0
  160.4620  201.0790  145.2460 C   0  0  0  0  0  3  0  0  0  0  0  0
  161.2170  202.7620  147.3490 C   0  0  0  0  0  0  0  0  0  0  0  0
  161.2560  201.3740  147.5110 C   0  0  0  0  0  3  0  0  0  0  0  0
  160.8780  200.5330  146.4620 C   0  0  0  0  0  3  0  0  0  0  0  0
  160.8070  203.3170  146.1220 C   0  0  0  0  0  0  0  0  0  0  0  0
  160.7650  206.9660  147.1040 N   0  0  0  0  0  0  0  0  0  0  0  0
  161.5510  207.4050  151.9680 C   0  0  2  0  0  3  0  0  0  0  0  0
  161.3720  205.0290  148.3670 C   0  0  0  0  0  0  0  0  0  0  0  0
  161.2630  207.2160  149.4270 C   0  0  0  0  0  0  0  0  0  0  0  0
  161.5430  203.6110  148.4490 N   0  0  0  0  0  0  0  0  0  0  0  0
  161.2700  208.1090  150.6390 C   0  0  0  0  0  2  0  0  0  0  0  0
  160.8190  204.8080  145.8960 C   0  0  0  0  0  0  0  0  0  0  0  0
  161.1510  205.9320  151.9490 C   0  0  0  0  0  2  0  0  0  0  0  0
  160.9810  205.6240  147.1560 C   0  0  0  0  0  0  0  0  0  0  0  0
  161.5130  205.8330  149.5110 C   0  0  0  0  0  0  0  0  0  0  0  0
  160.8490  208.0650  152.9800 O   0  0  0  0  0  0  0  0  0  0  0  0
  160.8830  207.2140  154.0820 C   0  0  0  0  0  2  0  0  0  0  0  0
  161.0170  208.0490  155.3440 C   0  0  0  0  0  1  0  0  0  0  0  0
  161.3990  207.6440  139.0730 C   0  0  0  0  0  2  0  0  0  0  0  0
  161.4250  208.3830  137.7440 C   0  0  0  0  0  2  0  0  0  0  0  0
  157.7580  210.5250  137.0750 C   0  0  0  0  0  3  0  0  0  0  0  0
  160.1540  209.1340  137.5280 C   0  0  0  0  0  0  0  0  0  0  0  0
  158.9300  208.4560  137.5850 C   0  0  0  0  0  3  0  0  0  0  0  0
  158.9800  211.2040  137.0240 C   0  0  0  0  0  3  0  0  0  0  0  0
  157.7330  209.1510  137.3570 C   0  0  0  0  0  3  0  0  0  0  0  0
  160.1790  210.5090  137.2500 C   0  0  0  0  0  3  0  0  0  0  0  0
  1 48  1  6  0  0  0
  1  2  1  0  0  0  0
  1 21  1  0  0  0  0
  2  3  1  0  0  0  0
  4  5  1  0  0  0  0
  5  6  1  6  0  0  0
  5  3  1  0  0  0  0
  5  9  1  0  0  0  0
  8 14  1  0  0  0  0
  9 15  1  6  0  0  0
  9 16  1  0  0  0  0
  9 11  1  0  0  0  0
 11 10  1  1  0  0  0
 11 14  1  0  0  0  0
 13  7  1  1  0  0  0
 13  8  1  0  0  0  0
 14 17  1  1  0  0  0
 16 12  1  6  0  0  0
 16 13  1  0  0  0  0
 16  7  1  0  0  0  0
 17 18  1  1  0  0  0
 17 19  1  0  0  0  0
 19 20  1  0  0  0  0
 22 21  1  0  0  0  0
 22 23  1  0  0  0  0
 23 26  1  0  0  0  0
 24 26  2  0  0  0  0
 25 41  1  0  0  0  0
 26 25  1  0  0  0  0
 27 38  1  0  0  0  0
 28 30  2  0  0  0  0
 28 34  1  0  0  0  0
 29 42  1  0  0  0  0
 30 33  1  0  0  0  0
 31 32  1  0  0  0  0
 31 39  1  0  0  0  0
 33 32  2  0  0  0  0
 34 31  2  0  0  0  0
 35 43  1  0  0  0  0
 35 27  2  0  0  0  0
 36 45  1  1  0  0  0
 37 39  2  0  0  0  0
 37 44  1  0  0  0  0
 38 44  2  0  0  0  0
 38 40  1  0  0  0  0
 40 36  1  0  0  0  0
 41 34  1  0  0  0  0
 41 43  2  0  0  0  0
 42 36  1  0  0  0  0
 43 37  1  0  0  0  0
 44 29  1  0  0  0  0
 45 46  1  0  0  0  0
 46 47  1  0  0  0  0
 49 48  1  0  0  0  0
 50 54  1  0  0  0  0
 51 52  1  0  0  0  0
 51 49  1  0  0  0  0
 53 50  2  0  0  0  0
 53 55  1  0  0  0  0
 54 52  2  0  0  0  0
 55 51  2  0  0  0  0
M  END
>  <MODEL>
3

>  <REMARK>
 VINA RESULT:      -4.1      4.925      9.506
  Name = 
  16 active torsions:
  status: ('A' for Active; 'I' for Inactive)
    1  A    between atoms: O_4  and  C_37
    2  A    between atoms: O_4  and  C_40
    3  A    between atoms: C_6  and  C_20
    4  A    between atoms: C_8  and  C_22
    5  A    between atoms: C_8  and  C_43
    6  A    between atoms: O_10  and  C_18
    7  A    between atoms: O_10  and  C_32
    8  A    between atoms: C_11  and  C_29
    9  A    between atoms: N_19  and  C_45
   10  A    between atoms: C_20  and  C_22
   11  A    between atoms: C_27  and  C_54
   12  A    between atoms: C_29  and  C_38
   13  A    between atoms: C_35  and  C_37
   14  A    between atoms: C_35  and  C_43
   15  A    between atoms: C_43  and  C_51
   16  A    between atoms: C_51  and  C_54
                            x       y       z     vdW  Elec       q    Type
                         _______ _______ _______ _____ _____    ______ ____

>  <TORSDO>
F 16

$$$$
=
 OpenBabel11062408473D

 55 61  0  0  1  0  0  0  0  0999 V2000
  160.7840  213.5060  150.5830 C   0  0  1  0  0  3  0  0  0  0  0  0
  159.4720  213.3470  151.3240 C   0  0  0  0  0  2  0  0  0  0  0  0
  159.7100  213.4420  152.8290 C   0  0  0  0  0  2  0  0  0  0  0  0
  158.0880  214.4530  154.7870 S   0  0  0  0  0  1  0  0  0  0  0  0
  158.4810  213.0590  153.6660 C   0  0  1  0  0  0  0  0  0  0  0  0
  157.4210  212.9280  152.7880 F   0  0  0  0  0  0  0  0  0  0  0  0
  160.9220  210.4430  153.8260 C   0  0  0  0  0  2  0  0  0  0  0  0
  159.5960  209.4130  155.7160 O   0  0  0  0  0  0  0  0  0  0  0  0
  158.6710  211.7120  154.4460 C   0  0  1  0  0  0  0  0  0  0  0  0
  160.5420  212.7630  155.5820 F   0  0  0  0  0  0  0  0  0  0  0  0
  159.4360  211.9400  155.7700 C   0  0  2  0  0  3  0  0  0  0  0  0
  159.0010  210.3970  152.3060 O   0  0  0  0  0  1  0  0  0  0  0  0
  159.9050  209.4130  154.3200 C   0  0  1  0  0  3  0  0  0  0  0  0
  159.8460  210.6080  156.4390 C   0  0  2  0  0  3  0  0  0  0  0  0
  157.4180  211.1780  154.7610 O   0  0  0  0  0  1  0  0  0  0  0  0
  159.4370  210.6670  153.6010 C   0  0  1  0  0  0  0  0  0  0  0  0
  161.1350  210.5550  157.2510 C   0  0  1  0  0  3  0  0  0  0  0  0
  161.7440  209.3120  157.1520 O   0  0  0  0  0  1  0  0  0  0  0  0
  162.0860  211.6390  156.8050 C   0  0  0  0  0  2  0  0  0  0  0  0
  163.2150  211.0570  156.2430 O   0  0  0  0  0  1  0  0  0  0  0  0
  161.3450  212.1290  150.2350 C   0  0  0  0  0  2  0  0  0  0  0  0
  160.4250  211.3850  149.2810 C   0  0  0  0  0  2  0  0  0  0  0  0
  161.1900  210.6830  148.3130 O   0  0  0  0  0  0  0  0  0  0  0  0
  163.2330  209.6960  148.6360 O   0  0  0  0  0  0  0  0  0  0  0  0
  161.3710  208.3410  149.0150 N   0  0  0  0  0  2  0  0  0  0  0  0
  161.9790  209.5870  148.6630 C   0  0  0  0  0  0  0  0  0  0  0  0
  162.0900  205.2000  146.2020 C   0  0  0  0  0  3  0  0  0  0  0  0
  162.3430  207.6900  151.8370 C   0  0  0  0  0  3  0  0  0  0  0  0
  160.2370  202.6210  148.2660 C   0  0  0  0  0  2  0  0  0  0  0  0
  162.0750  207.4080  153.1800 C   0  0  0  0  0  3  0  0  0  0  0  0
  161.1920  205.6590  151.1840 C   0  0  0  0  0  0  0  0  0  0  0  0
  160.9180  205.3880  152.5270 C   0  0  0  0  0  3  0  0  0  0  0  0
  161.3590  206.2600  153.5250 C   0  0  0  0  0  3  0  0  0  0  0  0
  161.9050  206.8210  150.8310 C   0  0  0  0  0  0  0  0  0  0  0  0
  162.3000  206.1740  147.1290 N   0  0  0  0  0  0  0  0  0  0  0  0
  160.6780  201.6310  146.0340 C   0  0  2  0  0  3  0  0  0  0  0  0
  161.1840  204.8970  148.8130 C   0  0  0  0  0  0  0  0  0  0  0  0
  161.4130  204.0320  146.5510 C   0  0  0  0  0  0  0  0  0  0  0  0
  160.7920  204.7280  150.1790 N   0  0  0  0  0  0  0  0  0  0  0  0
  161.3080  202.9300  145.5310 C   0  0  0  0  0  2  0  0  0  0  0  0
  162.1570  207.1740  149.3860 C   0  0  0  0  0  0  0  0  0  0  0  0
  160.8520  201.4380  147.5390 C   0  0  0  0  0  2  0  0  0  0  0  0
  161.8820  206.0500  148.4170 C   0  0  0  0  0  0  0  0  0  0  0  0
  160.9490  203.8800  147.8720 C   0  0  0  0  0  0  0  0  0  0  0  0
  161.2660  200.5580  145.3580 O   0  0  0  0  0  0  0  0  0  0  0  0
  160.7940  199.4090  145.9870 C   0  0  0  0  0  2  0  0  0  0  0  0
  161.3450  198.1920  145.2640 C   0  0  0  0  0  1  0  0  0  0  0  0
  160.5450  214.3170  149.3190 C   0  0  0  0  0  2  0  0  0  0  0  0
  159.0490  214.4390  149.0720 C   0  0  0  0  0  2  0  0  0  0  0  0
  158.0130  213.1380  145.1090 C   0  0  0  0  0  3  0  0  0  0  0  0
  158.6970  213.9720  147.7000 C   0  0  0  0  0  0  0  0  0  0  0  0
  159.4350  214.4270  146.6010 C   0  0  0  0  0  3  0  0  0  0  0  0
  157.2780  212.6780  146.2070 C   0  0  0  0  0  3  0  0  0  0  0  0
  159.0920  214.0110  145.3060 C   0  0  0  0  0  3  0  0  0  0  0  0
  157.6190  213.0940  147.5030 C   0  0  0  0  0  3  0  0  0  0  0  0
  1 48  1  6  0  0  0
  1  2  1  0  0  0  0
  2  3  1  0  0  0  0
  3  5  1  0  0  0  0
  5  6  1  6  0  0  0
  5  9  1  0  0  0  0
  5  4  1  0  0  0  0
  8 14  1  0  0  0  0
  9 15  1  1  0  0  0
  9 11  1  0  0  0  0
 11 10  1  6  0  0  0
 11 14  1  0  0  0  0
 13  7  1  1  0  0  0
 13  8  1  0  0  0  0
 14 17  1  6  0  0  0
 16 12  1  6  0  0  0
 16  7  1  0  0  0  0
 16 13  1  0  0  0  0
 16  9  1  0  0  0  0
 17 18  1  6  0  0  0
 19 17  1  0  0  0  0
 20 19  1  0  0  0  0
 21  1  1  0  0  0  0
 22 21  1  0  0  0  0
 23 26  1  0  0  0  0
 23 22  1  0  0  0  0
 24 26  2  0  0  0  0
 25 41  1  0  0  0  0
 26 25  1  0  0  0  0
 27 38  2  0  0  0  0
 27 35  1  0  0  0  0
 28 30  2  0  0  0  0
 30 33  1  0  0  0  0
 31 32  1  0  0  0  0
 32 33  2  0  0  0  0
 34 31  1  0  0  0  0
 34 28  1  0  0  0  0
 35 43  2  0  0  0  0
 36 45  1  6  0  0  0
 36 42  1  0  0  0  0
 37 39  1  0  0  0  0
 38 44  1  0  0  0  0
 39 31  2  0  0  0  0
 40 36  1  0  0  0  0
 40 38  1  0  0  0  0
 41 34  2  0  0  0  0
 42 29  1  0  0  0  0
 43 37  1  0  0  0  0
 43 41  1  0  0  0  0
 44 29  1  0  0  0  0
 44 37  2  0  0  0  0
 45 46  1  0  0  0  0
 47 46  1  0  0  0  0
 49 48  1  0  0  0  0
 50 54  2  0  0  0  0
 50 53  1  0  0  0  0
 51 49  1  0  0  0  0
 52 51  2  0  0  0  0
 53 55  2  0  0  0  0
 54 52  1  0  0  0  0
 55 51  1  0  0  0  0
M  END
>  <MODEL>
4

>  <REMARK>
 VINA RESULT:      -3.7      1.538      2.068
  Name = 
  16 active torsions:
  status: ('A' for Active; 'I' for Inactive)
    1  A    between atoms: O_4  and  C_37
    2  A    between atoms: O_4  and  C_40
    3  A    between atoms: C_6  and  C_20
    4  A    between atoms: C_8  and  C_22
    5  A    between atoms: C_8  and  C_43
    6  A    between atoms: O_10  and  C_18
    7  A    between atoms: O_10  and  C_32
    8  A    between atoms: C_11  and  C_29
    9  A    between atoms: N_19  and  C_45
   10  A    between atoms: C_20  and  C_22
   11  A    between atoms: C_27  and  C_54
   12  A    between atoms: C_29  and  C_38
   13  A    between atoms: C_35  and  C_37
   14  A    between atoms: C_35  and  C_43
   15  A    between atoms: C_43  and  C_51
   16  A    between atoms: C_51  and  C_54
                            x       y       z     vdW  Elec       q    Type
                         _______ _______ _______ _____ _____    ______ ____

>  <TORSDO>
F 16

$$$$
