=
 OpenBabel11052422403D

 31 33  0  0  1  0  0  0  0  0999 V2000
  160.5330  207.6680  156.0400 C   0  0  0  0  0  0  0  0  0  0  0  0
  161.8140  208.6350  152.5980 C   0  0  2  0  0  3  0  0  0  0  0  0
  161.0080  208.6260  153.8660 C   0  0  0  0  0  0  0  0  0  0  0  0
  159.4890  208.5810  156.2180 C   0  0  0  0  0  3  0  0  0  0  0  0
  160.8920  211.0940  152.3090 C   0  0  1  0  0  3  0  0  0  0  0  0
  160.8090  206.7600  157.0060 F   0  0  0  0  0  0  0  0  0  0  0  0
  159.6280  210.5230  152.9650 C   0  0  0  0  0  2  0  0  0  0  0  0
  161.9350  210.0320  152.0260 C   0  0  0  0  0  0  0  0  0  0  0  0
  161.2880  207.6870  154.8640 C   0  0  0  0  0  3  0  0  0  0  0  0
  159.9620  209.5490  154.0500 C   0  0  0  0  0  0  0  0  0  0  0  0
  159.2010  209.5180  155.2210 C   0  0  0  0  0  3  0  0  0  0  0  0
  162.9250  210.3270  151.3770 O   0  0  0  0  0  0  0  0  0  0  0  0
  161.2760  207.5940  151.6010 C   0  0  1  0  0  3  0  0  0  0  0  0
  160.7710  206.9840  149.1870 C   0  0  0  0  0  2  0  0  0  0  0  0
  161.5570  207.9090  150.1290 C   0  0  0  0  0  2  0  0  0  0  0  0
  162.9530  206.0070  152.3190 F   0  0  0  0  0  0  0  0  0  0  0  0
  160.2750  205.6960  149.8560 C   0  0  0  0  0  2  0  0  0  0  0  0
  160.8700  203.9440  151.3690 O   0  0  0  0  0  1  0  0  0  0  0  0
  161.6220  206.1390  151.9670 C   0  0  2  0  0  3  0  0  0  0  0  0
  161.3150  205.1510  150.8310 C   0  0  2  0  0  3  0  0  0  0  0  0
  159.6520  213.6670  152.1410 O   0  0  0  0  0  0  0  0  0  0  0  0
  159.9010  213.0620  151.0620 C   0  0  0  0  0  0  0  0  0  0  0  0
  160.5360  211.7830  151.0760 N   0  0  0  0  0  2  0  0  0  0  0  0
  158.2000  213.2990  149.4400 O   0  0  0  0  0  1  0  0  0  0  0  0
  159.5110  213.6690  149.7530 C   0  0  2  0  0  3  0  0  0  0  0  0
  161.6750  213.9210  148.7580 O   0  0  0  0  0  1  0  0  0  0  0  0
  160.4640  213.2340  148.6420 C   0  0  2  0  0  3  0  0  0  0  0  0
  159.8480  213.5220  147.2740 C   0  0  0  0  0  2  0  0  0  0  0  0
  160.3110  212.5490  146.1930 C   0  0  1  0  0  3  0  0  0  0  0  0
  159.2920  212.4220  145.0760 C   0  0  0  0  0  1  0  0  0  0  0  0
  161.5480  212.9360  145.6740 O   0  0  0  0  0  1  0  0  0  0  0  0
  1  4  1  0  0  0  0
  1  6  1  0  0  0  0
  2  8  1  6  0  0  0
  2  3  1  0  0  0  0
  3 10  2  0  0  0  0
  3  9  1  0  0  0  0
  5 23  1  6  0  0  0
  5  7  1  0  0  0  0
  7 10  1  0  0  0  0
  8  5  1  0  0  0  0
  9  1  2  0  0  0  0
 10 11  1  0  0  0  0
 11  4  2  0  0  0  0
 12  8  2  0  0  0  0
 13 15  1  6  0  0  0
 13 19  1  0  0  0  0
 13  2  1  0  0  0  0
 14 17  1  0  0  0  0
 14 15  1  0  0  0  0
 17 20  1  0  0  0  0
 19 16  1  6  0  0  0
 20 18  1  1  0  0  0
 20 19  1  0  0  0  0
 22 23  1  0  0  0  0
 22 21  2  0  0  0  0
 25 24  1  6  0  0  0
 25 22  1  0  0  0  0
 27 26  1  1  0  0  0
 27 25  1  0  0  0  0
 28 27  1  0  0  0  0
 29 30  1  6  0  0  0
 29 28  1  0  0  0  0
 31 29  1  0  0  0  0
M  END
>  <MODEL>
1

>  <REMARK>
 VINA RESULT:      -6.4      0.000      0.000
  Name = 
  6 active torsions:
  status: ('A' for Active; 'I' for Inactive)
    1  A    between atoms: C_1  and  C_24
    2  A    between atoms: C_4  and  C_5
    3  A    between atoms: C_9  and  C_22
    4  A    between atoms: C_15  and  N_23
    5  A    between atoms: C_19  and  C_22
    6  A    between atoms: C_19  and  C_24
                            x       y       z     vdW  Elec       q    Type
                         _______ _______ _______ _____ _____    ______ ____

>  <TORSDO>
F 6

$$$$
=
 OpenBabel11052422403D

 31 33  0  0  1  0  0  0  0  0999 V2000
  161.9680  206.8770  147.7560 C   0  0  0  0  0  0  0  0  0  0  0  0
  162.4180  209.8080  150.1290 C   0  0  2  0  0  3  0  0  0  0  0  0
  161.9670  208.4910  149.5630 C   0  0  0  0  0  0  0  0  0  0  0  0
  161.1050  206.0550  148.4860 C   0  0  0  0  0  3  0  0  0  0  0  0
  161.7130  208.7780  152.4580 C   0  0  1  0  0  3  0  0  0  0  0  0
  162.3870  206.4950  146.5260 F   0  0  0  0  0  0  0  0  0  0  0  0
  160.6070  208.1000  151.6390 C   0  0  0  0  0  2  0  0  0  0  0  0
  162.5330  209.7540  151.6390 C   0  0  0  0  0  0  0  0  0  0  0  0
  162.3950  208.0950  148.2920 C   0  0  0  0  0  3  0  0  0  0  0  0
  161.1050  207.6590  150.2990 C   0  0  0  0  0  0  0  0  0  0  0  0
  160.6700  206.4470  149.7550 C   0  0  0  0  0  3  0  0  0  0  0  0
  163.3490  210.4650  152.2000 O   0  0  0  0  0  0  0  0  0  0  0  0
  161.5380  210.9570  149.6080 C   0  0  1  0  0  3  0  0  0  0  0  0
  160.0210  212.9220  150.1470 C   0  0  0  0  0  2  0  0  0  0  0  0
  161.1020  211.9660  150.6740 C   0  0  0  0  0  2  0  0  0  0  0  0
  163.4350  211.9180  148.4580 F   0  0  0  0  0  0  0  0  0  0  0  0
  159.9490  212.9920  148.6160 C   0  0  0  0  0  2  0  0  0  0  0  0
  161.2560  213.0810  146.6170 O   0  0  0  0  0  1  0  0  0  0  0  0
  162.0860  211.6410  148.3420 C   0  0  2  0  0  3  0  0  0  0  0  0
  161.3450  212.9430  148.0010 C   0  0  2  0  0  3  0  0  0  0  0  0
  161.5810  207.7420  155.1210 O   0  0  0  0  0  0  0  0  0  0  0  0
  161.0770  208.8790  154.9070 C   0  0  0  0  0  0  0  0  0  0  0  0
  161.1260  209.4610  153.6030 N   0  0  0  0  0  2  0  0  0  0  0  0
  159.3400  208.8550  156.5080 O   0  0  0  0  0  1  0  0  0  0  0  0
  160.3980  209.6220  156.0120 C   0  0  2  0  0  3  0  0  0  0  0  0
  160.6080  212.0030  156.1470 O   0  0  0  0  0  1  0  0  0  0  0  0
  159.8880  210.9780  155.5280 C   0  0  2  0  0  3  0  0  0  0  0  0
  158.4040  211.1320  155.8560 C   0  0  0  0  0  2  0  0  0  0  0  0
  157.6020  211.7530  154.7160 C   0  0  1  0  0  3  0  0  0  0  0  0
  158.3240  211.6310  153.3870 C   0  0  0  0  0  1  0  0  0  0  0  0
  156.3340  211.1750  154.6290 O   0  0  0  0  0  1  0  0  0  0  0  0
  1  9  2  0  0  0  0
  1  4  1  0  0  0  0
  2  3  1  1  0  0  0
  2  8  1  0  0  0  0
  3 10  2  0  0  0  0
  4 11  2  0  0  0  0
  5 23  1  1  0  0  0
  6  1  1  0  0  0  0
  7  5  1  0  0  0  0
  8 12  2  0  0  0  0
  8  5  1  0  0  0  0
  9  3  1  0  0  0  0
 10  7  1  0  0  0  0
 11 10  1  0  0  0  0
 13  2  1  0  0  0  0
 13 15  1  1  0  0  0
 14 15  1  0  0  0  0
 17 14  1  0  0  0  0
 19 16  1  1  0  0  0
 19 13  1  0  0  0  0
 20 18  1  6  0  0  0
 20 19  1  0  0  0  0
 20 17  1  0  0  0  0
 22 21  2  0  0  0  0
 22 25  1  0  0  0  0
 23 22  1  0  0  0  0
 25 24  1  6  0  0  0
 27 28  1  0  0  0  0
 27 25  1  0  0  0  0
 27 26  1  1  0  0  0
 29 30  1  6  0  0  0
 29 28  1  0  0  0  0
 31 29  1  0  0  0  0
M  END
>  <MODEL>
2

>  <REMARK>
 VINA RESULT:      -6.0      2.994      6.885
  Name = 
  6 active torsions:
  status: ('A' for Active; 'I' for Inactive)
    1  A    between atoms: C_1  and  C_24
    2  A    between atoms: C_4  and  C_5
    3  A    between atoms: C_9  and  C_22
    4  A    between atoms: C_15  and  N_23
    5  A    between atoms: C_19  and  C_22
    6  A    between atoms: C_19  and  C_24
                            x       y       z     vdW  Elec       q    Type
                         _______ _______ _______ _____ _____    ______ ____

>  <TORSDO>
F 6

$$$$
=
 OpenBabel11052422403D

 31 33  0  0  1  0  0  0  0  0999 V2000
  161.2180  200.9960  148.9070 C   0  0  0  0  0  0  0  0  0  0  0  0
  162.1100  204.6820  148.7110 C   0  0  2  0  0  3  0  0  0  0  0  0
  161.4640  203.3950  149.1400 C   0  0  0  0  0  0  0  0  0  0  0  0
  160.2420  200.9960  149.9080 C   0  0  0  0  0  3  0  0  0  0  0  0
  161.2600  205.6060  151.0370 C   0  0  1  0  0  3  0  0  0  0  0  0
  161.5730  199.8340  148.3090 F   0  0  0  0  0  0  0  0  0  0  0  0
  160.0630  204.6810  150.7820 C   0  0  0  0  0  2  0  0  0  0  0  0
  162.2170  205.6600  149.8630 C   0  0  0  0  0  0  0  0  0  0  0  0
  161.8260  202.1940  148.5210 C   0  0  0  0  0  3  0  0  0  0  0  0
  160.4870  203.3920  150.1510 C   0  0  0  0  0  0  0  0  0  0  0  0
  159.8720  202.1940  150.5260 C   0  0  0  0  0  3  0  0  0  0  0  0
  163.1320  206.4670  149.8780 O   0  0  0  0  0  0  0  0  0  0  0  0
  161.4130  205.2550  147.4650 C   0  0  1  0  0  3  0  0  0  0  0  0
  160.2240  207.2170  146.3740 C   0  0  0  0  0  2  0  0  0  0  0  0
  161.1500  206.7630  147.5130 C   0  0  0  0  0  2  0  0  0  0  0  0
  163.4250  204.9290  146.1640 F   0  0  0  0  0  0  0  0  0  0  0  0
  160.1480  206.2260  145.2050 C   0  0  0  0  0  2  0  0  0  0  0  0
  161.4330  204.7630  143.8190 O   0  0  0  0  0  1  0  0  0  0  0  0
  162.0470  204.8120  146.1340 C   0  0  2  0  0  3  0  0  0  0  0  0
  161.5140  205.6020  144.9290 C   0  0  2  0  0  3  0  0  0  0  0  0
  161.7220  206.9960  153.4940 O   0  0  0  0  0  0  0  0  0  0  0  0
  161.0360  207.5780  152.6090 C   0  0  0  0  0  0  0  0  0  0  0  0
  160.7840  206.9460  151.3530 N   0  0  0  0  0  2  0  0  0  0  0  0
  161.0820  209.8750  152.0580 O   0  0  0  0  0  1  0  0  0  0  0  0
  160.4560  208.9290  152.8760 C   0  0  2  0  0  3  0  0  0  0  0  0
  159.4410  209.9130  154.8090 O   0  0  0  0  0  1  0  0  0  0  0  0
  160.6150  209.3130  154.3460 C   0  0  2  0  0  3  0  0  0  0  0  0
  161.7810  210.2840  154.5160 C   0  0  0  0  0  2  0  0  0  0  0  0
  162.2560  210.4000  155.9620 C   0  0  1  0  0  3  0  0  0  0  0  0
  162.1850  209.0690  156.6870 C   0  0  0  0  0  1  0  0  0  0  0  0
  163.5550  210.9100  156.0180 O   0  0  0  0  0  1  0  0  0  0  0  0
  1  4  1  0  0  0  0
  2  3  1  1  0  0  0
  2  8  1  0  0  0  0
  3 10  2  0  0  0  0
  4 11  2  0  0  0  0
  5 23  1  6  0  0  0
  6  1  1  0  0  0  0
  7  5  1  0  0  0  0
  8 12  2  0  0  0  0
  8  5  1  0  0  0  0
  9  1  2  0  0  0  0
  9  3  1  0  0  0  0
 10 11  1  0  0  0  0
 10  7  1  0  0  0  0
 13 15  1  1  0  0  0
 13  2  1  0  0  0  0
 14 15  1  0  0  0  0
 17 14  1  0  0  0  0
 19 16  1  1  0  0  0
 19 13  1  0  0  0  0
 20 18  1  6  0  0  0
 20 17  1  0  0  0  0
 20 19  1  0  0  0  0
 22 25  1  0  0  0  0
 22 21  2  0  0  0  0
 23 22  1  0  0  0  0
 25 24  1  6  0  0  0
 25 27  1  0  0  0  0
 27 28  1  0  0  0  0
 27 26  1  6  0  0  0
 28 29  1  0  0  0  0
 29 31  1  0  0  0  0
 29 30  1  6  0  0  0
M  END
>  <MODEL>
3

>  <REMARK>
 VINA RESULT:      -5.2      4.252      7.304
  Name = 
  6 active torsions:
  status: ('A' for Active; 'I' for Inactive)
    1  A    between atoms: C_1  and  C_24
    2  A    between atoms: C_4  and  C_5
    3  A    between atoms: C_9  and  C_22
    4  A    between atoms: C_15  and  N_23
    5  A    between atoms: C_19  and  C_22
    6  A    between atoms: C_19  and  C_24
                            x       y       z     vdW  Elec       q    Type
                         _______ _______ _______ _____ _____    ______ ____

>  <TORSDO>
F 6

$$$$
=
 OpenBabel11052422403D

 31 33  0  0  1  0  0  0  0  0999 V2000
  161.1920  200.8980  148.7900 C   0  0  0  0  0  0  0  0  0  0  0  0
  162.0940  204.5860  148.6630 C   0  0  2  0  0  3  0  0  0  0  0  0
  161.4490  203.2910  149.0710 C   0  0  0  0  0  0  0  0  0  0  0  0
  160.2270  200.8800  149.8020 C   0  0  0  0  0  3  0  0  0  0  0  0
  161.2740  205.4620  151.0170 C   0  0  1  0  0  3  0  0  0  0  0  0
  161.5360  199.7490  148.1630 F   0  0  0  0  0  0  0  0  0  0  0  0
  160.0710  204.5460  150.7560 C   0  0  0  0  0  2  0  0  0  0  0  0
  162.2170  205.5390  149.8340 C   0  0  0  0  0  0  0  0  0  0  0  0
  161.7990  202.1030  148.4230 C   0  0  0  0  0  3  0  0  0  0  0  0
  160.4830  203.2700  150.0930 C   0  0  0  0  0  0  0  0  0  0  0  0
  159.8690  202.0660  150.4500 C   0  0  0  0  0  3  0  0  0  0  0  0
  163.1350  206.3410  149.8550 O   0  0  0  0  0  0  0  0  0  0  0  0
  161.3850  205.1870  147.4380 C   0  0  1  0  0  3  0  0  0  0  0  0
  160.1570  207.1620  146.4150 C   0  0  0  0  0  2  0  0  0  0  0  0
  161.0930  206.6870  147.5370 C   0  0  0  0  0  2  0  0  0  0  0  0
  163.4000  204.9440  146.1240 F   0  0  0  0  0  0  0  0  0  0  0  0
  160.0990  206.2100  145.2130 C   0  0  0  0  0  2  0  0  0  0  0  0
  161.4090  204.8190  143.7770 O   0  0  0  0  0  1  0  0  0  0  0  0
  162.0250  204.8020  146.0910 C   0  0  2  0  0  3  0  0  0  0  0  0
  161.4750  205.6220  144.9140 C   0  0  2  0  0  3  0  0  0  0  0  0
  161.7620  206.7940  153.5010 O   0  0  0  0  0  0  0  0  0  0  0  0
  161.0710  207.3990  152.6350 C   0  0  0  0  0  0  0  0  0  0  0  0
  160.8060  206.7960  151.3680 N   0  0  0  0  0  2  0  0  0  0  0  0
  160.8610  209.6430  151.9280 O   0  0  0  0  0  1  0  0  0  0  0  0
  160.4990  208.7460  152.9370 C   0  0  2  0  0  3  0  0  0  0  0  0
  160.0040  209.0130  155.2650 O   0  0  0  0  0  1  0  0  0  0  0  0
  160.9800  209.2540  154.2950 C   0  0  2  0  0  3  0  0  0  0  0  0
  161.2680  210.7520  154.2270 C   0  0  0  0  0  2  0  0  0  0  0  0
  160.0460  211.6100  154.5460 C   0  0  1  0  0  3  0  0  0  0  0  0
  160.2420  212.4220  155.8130 C   0  0  0  0  0  1  0  0  0  0  0  0
  159.7400  212.4550  153.4760 O   0  0  0  0  0  1  0  0  0  0  0  0
  1  4  1  0  0  0  0
  2  3  1  1  0  0  0
  2  8  1  0  0  0  0
  3 10  2  0  0  0  0
  4 11  2  0  0  0  0
  5 23  1  6  0  0  0
  6  1  1  0  0  0  0
  7  5  1  0  0  0  0
  8 12  2  0  0  0  0
  8  5  1  0  0  0  0
  9  1  2  0  0  0  0
  9  3  1  0  0  0  0
 10 11  1  0  0  0  0
 10  7  1  0  0  0  0
 13 15  1  1  0  0  0
 13  2  1  0  0  0  0
 14 15  1  0  0  0  0
 17 14  1  0  0  0  0
 19 16  1  1  0  0  0
 19 13  1  0  0  0  0
 20 18  1  6  0  0  0
 20 17  1  0  0  0  0
 20 19  1  0  0  0  0
 22 25  1  0  0  0  0
 22 21  2  0  0  0  0
 23 22  1  0  0  0  0
 25 24  1  6  0  0  0
 25 27  1  0  0  0  0
 27 26  1  1  0  0  0
 28 27  1  0  0  0  0
 28 29  1  0  0  0  0
 29 30  1  1  0  0  0
 31 29  1  0  0  0  0
M  END
>  <MODEL>
4

>  <REMARK>
 VINA RESULT:      -5.2      4.178      7.118
  Name = 
  6 active torsions:
  status: ('A' for Active; 'I' for Inactive)
    1  A    between atoms: C_1  and  C_24
    2  A    between atoms: C_4  and  C_5
    3  A    between atoms: C_9  and  C_22
    4  A    between atoms: C_15  and  N_23
    5  A    between atoms: C_19  and  C_22
    6  A    between atoms: C_19  and  C_24
                            x       y       z     vdW  Elec       q    Type
                         _______ _______ _______ _____ _____    ______ ____

>  <TORSDO>
F 6

$$$$
=
 OpenBabel11052422403D

 31 33  0  0  1  0  0  0  0  0999 V2000
  160.9880  202.6980  150.9120 C   0  0  0  0  0  0  0  0  0  0  0  0
  162.2060  205.3870  148.5230 C   0  0  2  0  0  3  0  0  0  0  0  0
  161.5430  204.7170  149.6930 C   0  0  0  0  0  0  0  0  0  0  0  0
  160.2820  203.4560  151.8520 C   0  0  0  0  0  3  0  0  0  0  0  0
  162.0390  207.5790  149.9880 C   0  0  1  0  0  3  0  0  0  0  0  0
  161.0610  201.3520  151.0460 F   0  0  0  0  0  0  0  0  0  0  0  0
  160.7220  206.9590  150.4720 C   0  0  0  0  0  2  0  0  0  0  0  0
  162.6900  206.7770  148.8790 C   0  0  0  0  0  0  0  0  0  0  0  0
  161.6130  203.3270  149.8320 C   0  0  0  0  0  3  0  0  0  0  0  0
  160.8390  205.4780  150.6430 C   0  0  0  0  0  0  0  0  0  0  0  0
  160.2040  204.8450  151.7150 C   0  0  0  0  0  3  0  0  0  0  0  0
  163.6650  207.2340  148.3070 O   0  0  0  0  0  0  0  0  0  0  0  0
  161.3010  205.3380  147.2800 C   0  0  1  0  0  3  0  0  0  0  0  0
  160.1270  206.6090  145.4200 C   0  0  0  0  0  2  0  0  0  0  0  0
  161.2410  206.6410  146.4770 C   0  0  0  0  0  2  0  0  0  0  0  0
  162.8780  203.8870  146.1610 F   0  0  0  0  0  0  0  0  0  0  0  0
  159.6490  205.1940  145.0660 C   0  0  0  0  0  2  0  0  0  0  0  0
  160.3680  202.9570  144.6340 O   0  0  0  0  0  1  0  0  0  0  0  0
  161.5310  204.1070  146.3850 C   0  0  2  0  0  3  0  0  0  0  0  0
  160.8190  204.2150  145.0280 C   0  0  2  0  0  3  0  0  0  0  0  0
  162.7170  209.9470  151.4430 O   0  0  0  0  0  0  0  0  0  0  0  0
  162.1510  210.0860  150.3240 C   0  0  0  0  0  0  0  0  0  0  0  0
  161.8020  208.9450  149.5400 N   0  0  0  0  0  2  0  0  0  0  0  0
  160.5570  211.8300  150.2990 O   0  0  0  0  0  1  0  0  0  0  0  0
  161.8130  211.4510  149.8180 C   0  0  2  0  0  3  0  0  0  0  0  0
  163.0750  211.9300  147.8400 O   0  0  0  0  0  1  0  0  0  0  0  0
  161.8290  211.4880  148.2910 C   0  0  2  0  0  3  0  0  0  0  0  0
  160.7410  212.4270  147.7730 C   0  0  0  0  0  2  0  0  0  0  0  0
  160.8730  212.7300  146.2830 C   0  0  1  0  0  3  0  0  0  0  0  0
  159.6480  212.2830  145.5070 C   0  0  0  0  0  1  0  0  0  0  0  0
  161.1050  214.0910  146.0730 O   0  0  0  0  0  1  0  0  0  0  0  0
  1  6  1  0  0  0  0
  1  4  1  0  0  0  0
  2  8  1  1  0  0  0
  2  3  1  0  0  0  0
  3  9  1  0  0  0  0
  3 10  2  0  0  0  0
  5 23  1  6  0  0  0
  5  7  1  0  0  0  0
  7 10  1  0  0  0  0
  8  5  1  0  0  0  0
  9  1  2  0  0  0  0
 10 11  1  0  0  0  0
 11  4  2  0  0  0  0
 12  8  2  0  0  0  0
 13 15  1  6  0  0  0
 13  2  1  0  0  0  0
 14 15  1  0  0  0  0
 17 14  1  0  0  0  0
 19 16  1  6  0  0  0
 19 13  1  0  0  0  0
 20 18  1  1  0  0  0
 20 17  1  0  0  0  0
 20 19  1  0  0  0  0
 22 21  2  0  0  0  0
 23 22  1  0  0  0  0
 25 24  1  6  0  0  0
 25 22  1  0  0  0  0
 27 26  1  1  0  0  0
 27 25  1  0  0  0  0
 28 27  1  0  0  0  0
 29 30  1  6  0  0  0
 29 28  1  0  0  0  0
 31 29  1  0  0  0  0
M  END
>  <MODEL>
5

>  <REMARK>
 VINA RESULT:      -4.9      3.406      4.860
  Name = 
  6 active torsions:
  status: ('A' for Active; 'I' for Inactive)
    1  A    between atoms: C_1  and  C_24
    2  A    between atoms: C_4  and  C_5
    3  A    between atoms: C_9  and  C_22
    4  A    between atoms: C_15  and  N_23
    5  A    between atoms: C_19  and  C_22
    6  A    between atoms: C_19  and  C_24
                            x       y       z     vdW  Elec       q    Type
                         _______ _______ _______ _____ _____    ______ ____

>  <TORSDO>
F 6

$$$$
=
 OpenBabel11052422403D

 31 33  0  0  1  0  0  0  0  0999 V2000
  162.2880  211.0110  149.3510 C   0  0  0  0  0  0  0  0  0  0  0  0
  162.3350  208.1400  151.8360 C   0  0  2  0  0  3  0  0  0  0  0  0
  162.0990  208.9330  150.5820 C   0  0  0  0  0  0  0  0  0  0  0  0
  161.6320  210.4290  148.2620 C   0  0  0  0  0  3  0  0  0  0  0  0
  161.9640  206.0310  150.2880 C   0  0  1  0  0  3  0  0  0  0  0  0
  162.6980  212.3000  149.2830 F   0  0  0  0  0  0  0  0  0  0  0  0
  160.9530  206.9370  149.5730 C   0  0  0  0  0  2  0  0  0  0  0  0
  162.5440  206.6700  151.5330 C   0  0  0  0  0  0  0  0  0  0  0  0
  162.5170  210.2660  150.5110 C   0  0  0  0  0  3  0  0  0  0  0  0
  161.4450  208.3470  149.4830 C   0  0  0  0  0  0  0  0  0  0  0  0
  161.2060  209.1000  148.3300 C   0  0  0  0  0  3  0  0  0  0  0  0
  163.2480  206.0030  152.2720 O   0  0  0  0  0  0  0  0  0  0  0  0
  161.2330  208.4150  152.8730 C   0  0  1  0  0  3  0  0  0  0  0  0
  159.9340  207.6060  154.9010 C   0  0  0  0  0  2  0  0  0  0  0  0
  161.2060  207.4430  154.0560 C   0  0  0  0  0  2  0  0  0  0  0  0
  162.3960  210.4010  153.6150 F   0  0  0  0  0  0  0  0  0  0  0  0
  159.2240  208.9520  154.6970 C   0  0  0  0  0  2  0  0  0  0  0  0
  159.5640  211.3020  154.4290 O   0  0  0  0  0  1  0  0  0  0  0  0
  161.1470  209.8860  153.3210 C   0  0  2  0  0  3  0  0  0  0  0  0
  160.2340  210.0850  154.5400 C   0  0  2  0  0  3  0  0  0  0  0  0
  161.5810  203.8300  148.5020 O   0  0  0  0  0  0  0  0  0  0  0  0
  161.1530  203.7090  149.6830 C   0  0  0  0  0  0  0  0  0  0  0  0
  161.3290  204.7640  150.6290 N   0  0  0  0  0  2  0  0  0  0  0  0
  161.2470  201.7230  150.9580 O   0  0  0  0  0  1  0  0  0  0  0  0
  160.4340  202.4680  150.0990 C   0  0  2  0  0  3  0  0  0  0  0  0
  158.8360  200.9660  149.1360 O   0  0  0  0  0  1  0  0  0  0  0  0
  160.0400  201.6300  148.8850 C   0  0  2  0  0  3  0  0  0  0  0  0
  161.1280  200.6040  148.5750 C   0  0  0  0  0  2  0  0  0  0  0  0
  161.5810  200.6350  147.1170 C   0  0  1  0  0  3  0  0  0  0  0  0
  161.5810  199.2500  146.4970 C   0  0  0  0  0  1  0  0  0  0  0  0
  160.7790  201.4970  146.3670 O   0  0  0  0  0  1  0  0  0  0  0  0
  1  9  1  0  0  0  0
  2  3  1  6  0  0  0
  2 13  1  0  0  0  0
  4 11  1  0  0  0  0
  4  1  2  0  0  0  0
  5 23  1  1  0  0  0
  5  8  1  0  0  0  0
  6  1  1  0  0  0  0
  7  5  1  0  0  0  0
  8  2  1  0  0  0  0
  8 12  2  0  0  0  0
  9  3  2  0  0  0  0
 10  7  1  0  0  0  0
 10  3  1  0  0  0  0
 11 10  2  0  0  0  0
 13 19  1  0  0  0  0
 13 15  1  1  0  0  0
 15 14  1  0  0  0  0
 17 14  1  0  0  0  0
 19 16  1  1  0  0  0
 19 20  1  0  0  0  0
 20 18  1  6  0  0  0
 20 17  1  0  0  0  0
 21 22  2  0  0  0  0
 22 25  1  0  0  0  0
 22 23  1  0  0  0  0
 25 24  1  1  0  0  0
 27 26  1  1  0  0  0
 27 25  1  0  0  0  0
 28 27  1  0  0  0  0
 29 30  1  6  0  0  0
 29 28  1  0  0  0  0
 31 29  1  0  0  0  0
M  END
>  <MODEL>
6

>  <REMARK>
 VINA RESULT:      -4.5      3.568      8.275
  Name = 
  6 active torsions:
  status: ('A' for Active; 'I' for Inactive)
    1  A    between atoms: C_1  and  C_24
    2  A    between atoms: C_4  and  C_5
    3  A    between atoms: C_9  and  C_22
    4  A    between atoms: C_15  and  N_23
    5  A    between atoms: C_19  and  C_22
    6  A    between atoms: C_19  and  C_24
                            x       y       z     vdW  Elec       q    Type
                         _______ _______ _______ _____ _____    ______ ____

>  <TORSDO>
F 6

$$$$
=
 OpenBabel11052422403D

 31 33  0  0  1  0  0  0  0  0999 V2000
  161.8360  203.7910  145.4720 C   0  0  0  0  0  0  0  0  0  0  0  0
  160.4640  205.1160  148.7570 C   0  0  2  0  0  3  0  0  0  0  0  0
  161.3090  204.9690  147.5230 C   0  0  0  0  0  0  0  0  0  0  0  0
  162.9000  204.6670  145.2390 C   0  0  0  0  0  3  0  0  0  0  0  0
  161.4190  207.5780  148.8290 C   0  0  1  0  0  3  0  0  0  0  0  0
  161.5740  202.7950  144.5920 F   0  0  0  0  0  0  0  0  0  0  0  0
  162.6930  206.9260  148.2760 C   0  0  0  0  0  2  0  0  0  0  0  0
  160.3500  206.5650  149.1830 C   0  0  0  0  0  0  0  0  0  0  0  0
  161.0440  203.9390  146.6150 C   0  0  0  0  0  3  0  0  0  0  0  0
  162.3770  205.8530  147.2830 C   0  0  0  0  0  0  0  0  0  0  0  0
  163.1740  205.6940  146.1460 C   0  0  0  0  0  3  0  0  0  0  0  0
  159.3450  206.9380  149.7650 O   0  0  0  0  0  0  0  0  0  0  0  0
  160.9520  204.1720  149.8690 C   0  0  1  0  0  3  0  0  0  0  0  0
  161.2070  203.7280  152.3580 C   0  0  0  0  0  2  0  0  0  0  0  0
  160.4750  204.5390  151.2780 C   0  0  0  0  0  2  0  0  0  0  0  0
  159.4890  202.4260  149.0600 F   0  0  0  0  0  0  0  0  0  0  0  0
  161.8700  202.4490  151.8280 C   0  0  0  0  0  2  0  0  0  0  0  0
  161.5840  200.5820  150.3650 O   0  0  0  0  0  1  0  0  0  0  0  0
  160.7550  202.6780  149.5540 C   0  0  2  0  0  3  0  0  0  0  0  0
  160.9940  201.7760  150.7750 C   0  0  2  0  0  3  0  0  0  0  0  0
  161.5730  210.4340  148.8950 O   0  0  0  0  0  0  0  0  0  0  0  0
  161.8260  209.8070  149.9600 C   0  0  0  0  0  0  0  0  0  0  0  0
  161.7490  208.3820  149.9990 N   0  0  0  0  0  2  0  0  0  0  0  0
  163.3630  209.9440  151.7480 O   0  0  0  0  0  1  0  0  0  0  0  0
  162.2340  210.5500  151.1910 C   0  0  2  0  0  3  0  0  0  0  0  0
  160.4740  211.8400  152.1790 O   0  0  0  0  0  1  0  0  0  0  0  0
  161.0970  210.5890  152.2100 C   0  0  2  0  0  3  0  0  0  0  0  0
  161.6360  210.3270  153.6140 C   0  0  0  0  0  2  0  0  0  0  0  0
  160.9400  209.1630  154.3140 C   0  0  1  0  0  3  0  0  0  0  0  0
  160.8720  207.9320  153.4290 C   0  0  0  0  0  1  0  0  0  0  0  0
  161.5780  208.8540  155.5180 O   0  0  0  0  0  1  0  0  0  0  0  0
  1  9  1  0  0  0  0
  2  3  1  6  0  0  0
  2  8  1  0  0  0  0
  2 13  1  0  0  0  0
  4  1  2  0  0  0  0
  4 11  1  0  0  0  0
  5  8  1  0  0  0  0
  5 23  1  1  0  0  0
  6  1  1  0  0  0  0
  7  5  1  0  0  0  0
  8 12  2  0  0  0  0
  9  3  2  0  0  0  0
 10  3  1  0  0  0  0
 10  7  1  0  0  0  0
 11 10  2  0  0  0  0
 13 15  1  1  0  0  0
 15 14  1  0  0  0  0
 17 14  1  0  0  0  0
 19 16  1  1  0  0  0
 19 13  1  0  0  0  0
 19 20  1  0  0  0  0
 20 18  1  6  0  0  0
 20 17  1  0  0  0  0
 21 22  2  0  0  0  0
 22 23  1  0  0  0  0
 22 25  1  0  0  0  0
 25 24  1  1  0  0  0
 25 27  1  0  0  0  0
 27 26  1  1  0  0  0
 27 28  1  0  0  0  0
 28 29  1  0  0  0  0
 29 30  1  6  0  0  0
 29 31  1  0  0  0  0
M  END
>  <MODEL>
7

>  <REMARK>
 VINA RESULT:      -4.2      3.411      7.058
  Name = 
  6 active torsions:
  status: ('A' for Active; 'I' for Inactive)
    1  A    between atoms: C_1  and  C_24
    2  A    between atoms: C_4  and  C_5
    3  A    between atoms: C_9  and  C_22
    4  A    between atoms: C_15  and  N_23
    5  A    between atoms: C_19  and  C_22
    6  A    between atoms: C_19  and  C_24
                            x       y       z     vdW  Elec       q    Type
                         _______ _______ _______ _____ _____    ______ ____

>  <TORSDO>
F 6

$$$$
