=
 OpenBabel11062407573D

 34 39  0  0  1  0  0  0  0  0999 V2000
  161.9530  209.3670  150.0570 C   0  0  0  0  0  0  0  0  0  0  0  0
  161.9960  207.3130  148.5400 C   0  0  1  0  0  3  0  0  0  0  0  0
  161.8670  203.8010  148.5640 C   0  0  0  0  0  2  0  0  0  0  0  0
  161.5310  207.2010  151.0200 C   0  0  0  0  0  0  0  0  0  0  0  0
  160.9770  204.9980  152.0110 C   0  0  0  0  0  0  0  0  0  0  0  0
  161.9870  209.6320  147.5670 C   0  0  0  0  0  2  0  0  0  0  0  0
  162.6040  208.2430  147.4870 C   0  0  0  0  0  2  0  0  0  0  0  0
  161.0980  201.3760  150.6900 S   0  0  0  0  0  0  0  0  0  0  0  0
  160.1270  202.4300  146.0590 C   0  0  0  0  0  1  0  0  0  0  0  0
  161.4310  204.1320  147.2150 N   0  0  0  0  0  0  0  0  0  0  0  0
  161.4910  203.0790  146.2000 C   0  0  2  0  0  3  0  0  0  0  0  0
  161.8490  207.9730  149.8970 C   0  0  0  0  0  0  0  0  0  0  0  0
  160.7510  203.6470  149.4260 O   0  0  0  0  0  0  0  0  0  0  0  0
  160.7960  203.7170  151.8920 N   0  0  0  0  0  0  0  0  0  0  0  0
  162.3310  210.2610  148.9120 C   0  0  0  0  0  2  0  0  0  0  0  0
  161.7570  204.9330  144.5940 C   0  0  0  0  0  3  0  0  0  0  0  0
  161.3450  207.8140  152.2680 C   0  0  0  0  0  0  0  0  0  0  0  0
  161.2460  205.8380  145.5830 N   0  0  0  0  0  0  0  0  0  0  0  0
  161.7910  209.9100  151.2920 N   0  0  0  0  0  0  0  0  0  0  0  0
  160.3860  206.6560  147.9810 S   0  0  0  0  0  0  0  0  0  0  0  0
  160.8240  205.6520  153.3180 C   0  0  0  0  0  3  0  0  0  0  0  0
  160.9880  206.9800  153.4680 C   0  0  0  0  0  0  0  0  0  0  0  0
  160.8850  202.9960  150.6540 C   0  0  0  0  0  0  0  0  0  0  0  0
  161.3620  205.7930  150.8920 N   0  0  0  0  0  2  0  0  0  0  0  0
  161.4960  209.1630  152.3570 N   0  0  0  0  0  0  0  0  0  0  0  0
  161.0950  205.4790  146.8230 C   0  0  0  0  0  0  0  0  0  0  0  0
  161.9150  203.6370  144.8700 C   0  0  0  0  0  3  0  0  0  0  0  0
  161.1540  209.3990  156.4920 C   0  0  2  0  0  3  0  0  0  0  0  0
  160.0510  208.8120  157.2610 N   0  0  0  0  0  2  0  0  0  0  0  0
  160.8100  207.5600  154.8310 C   0  0  0  0  0  0  0  0  0  0  0  0
  160.1680  207.3550  157.2600 C   0  0  0  0  0  2  0  0  0  0  0  0
  161.2950  208.7730  155.1300 C   0  0  0  0  0  3  0  0  0  0  0  0
  159.9600  206.8260  155.8450 C   0  0  0  0  0  2  0  0  0  0  0  0
  162.4610  209.3030  157.2610 C   0  0  0  0  0  1  0  0  0  0  0  0
  1 19  1  0  0  0  0
  2  7  1  6  0  0  0
  2 12  1  0  0  0  0
  3 13  1  0  0  0  0
  4 17  2  0  0  0  0
  5 21  1  0  0  0  0
  6 15  1  0  0  0  0
  7  6  1  0  0  0  0
 10  3  1  0  0  0  0
 11  9  1  6  0  0  0
 11 10  1  0  0  0  0
 12  1  2  0  0  0  0
 12  4  1  0  0  0  0
 13 23  1  0  0  0  0
 14  5  2  0  0  0  0
 15  1  1  0  0  0  0
 16 27  2  0  0  0  0
 16 18  1  0  0  0  0
 17 25  1  0  0  0  0
 17 22  1  0  0  0  0
 18 26  2  0  0  0  0
 19 25  2  0  0  0  0
 20  2  1  0  0  0  0
 21 22  2  0  0  0  0
 22 30  1  0  0  0  0
 23  8  2  0  0  0  0
 23 14  1  0  0  0  0
 24  4  1  0  0  0  0
 24  5  1  0  0  0  0
 26 10  1  0  0  0  0
 26 20  1  0  0  0  0
 27 11  1  0  0  0  0
 28 29  1  0  0  0  0
 28 34  1  1  0  0  0
 30 32  2  0  0  0  0
 30 33  1  0  0  0  0
 31 29  1  0  0  0  0
 32 28  1  0  0  0  0
 33 31  1  0  0  0  0
M  END
>  <MODEL>
1

>  <REMARK>
 VINA RESULT:      -6.5      0.000      0.000
  Name = 
  1 active torsions:
  status: ('A' for Active; 'I' for Inactive)
    1  A    between atoms: C_12  and  C_28
                            x       y       z     vdW  Elec       q    Type
                         _______ _______ _______ _____ _____    ______ ____

>  <TORSDO>
F 1

$$$$
=
 OpenBabel11062407573D

 34 39  0  0  1  0  0  0  0  0999 V2000
  161.3110  208.5100  152.7490 C   0  0  0  0  0  0  0  0  0  0  0  0
  160.9740  206.1710  151.7810 C   0  0  1  0  0  3  0  0  0  0  0  0
  160.5460  204.4130  148.7690 C   0  0  0  0  0  2  0  0  0  0  0  0
  161.3680  208.2210  150.3600 C   0  0  0  0  0  0  0  0  0  0  0  0
  161.5470  207.9290  147.9050 C   0  0  0  0  0  0  0  0  0  0  0  0
  161.3690  206.5010  154.2440 C   0  0  0  0  0  2  0  0  0  0  0  0
  160.5410  205.7710  153.1950 C   0  0  0  0  0  2  0  0  0  0  0  0
  160.8800  204.9730  145.5180 S   0  0  0  0  0  0  0  0  0  0  0  0
  162.0960  201.4540  148.6220 C   0  0  0  0  0  1  0  0  0  0  0  0
  161.0550  203.3900  149.6710 N   0  0  0  0  0  0  0  0  0  0  0  0
  160.8490  201.9890  149.3010 C   0  0  2  0  0  3  0  0  0  0  0  0
  161.1970  207.6630  151.6320 C   0  0  0  0  0  0  0  0  0  0  0  0
  161.6070  205.0070  148.0380 O   0  0  0  0  0  0  0  0  0  0  0  0
  161.5250  207.1690  146.8520 N   0  0  0  0  0  0  0  0  0  0  0  0
  161.1020  207.9990  154.1450 C   0  0  0  0  0  2  0  0  0  0  0  0
  160.9100  201.5580  151.7300 C   0  0  0  0  0  3  0  0  0  0  0  0
  161.6240  209.5930  150.2190 C   0  0  0  0  0  0  0  0  0  0  0  0
  161.5390  202.8330  151.9220 N   0  0  0  0  0  0  0  0  0  0  0  0
  161.5330  209.8370  152.5600 N   0  0  0  0  0  0  0  0  0  0  0  0
  162.4710  205.2560  151.2730 S   0  0  0  0  0  0  0  0  0  0  0  0
  161.7760  209.3740  147.7750 C   0  0  0  0  0  3  0  0  0  0  0  0
  161.8200  210.1830  148.8500 C   0  0  0  0  0  0  0  0  0  0  0  0
  161.3480  205.7440  146.8810 C   0  0  0  0  0  0  0  0  0  0  0  0
  161.3130  207.3900  149.2040 N   0  0  0  0  0  2  0  0  0  0  0  0
  161.6860  210.3590  151.3420 N   0  0  0  0  0  0  0  0  0  0  0  0
  161.6070  203.7100  150.9660 C   0  0  0  0  0  0  0  0  0  0  0  0
  160.5440  201.1520  150.5120 C   0  0  0  0  0  3  0  0  0  0  0  0
  161.2840  214.0160  148.6390 C   0  0  2  0  0  3  0  0  0  0  0  0
  162.6990  214.4020  148.6350 N   0  0  0  0  0  2  0  0  0  0  0  0
  162.0610  211.6380  148.6240 C   0  0  0  0  0  0  0  0  0  0  0  0
  163.4440  213.5410  147.7180 C   0  0  0  0  0  2  0  0  0  0  0  0
  161.0970  212.5380  148.8620 C   0  0  0  0  0  3  0  0  0  0  0  0
  163.4480  212.1120  148.2500 C   0  0  0  0  0  2  0  0  0  0  0  0
  160.5990  214.4520  147.3550 C   0  0  0  0  0  1  0  0  0  0  0  0
  1 15  1  0  0  0  0
  2  7  1  1  0  0  0
  3 10  1  0  0  0  0
  4 12  1  0  0  0  0
  5 24  1  0  0  0  0
  7  6  1  0  0  0  0
  8 23  2  0  0  0  0
 10 26  1  0  0  0  0
 11  9  1  1  0  0  0
 11 10  1  0  0  0  0
 11 27  1  0  0  0  0
 12  2  1  0  0  0  0
 12  1  2  0  0  0  0
 13  3  1  0  0  0  0
 14 23  1  0  0  0  0
 14  5  2  0  0  0  0
 15  6  1  0  0  0  0
 16 18  1  0  0  0  0
 17  4  2  0  0  0  0
 17 25  1  0  0  0  0
 19  1  1  0  0  0  0
 20  2  1  0  0  0  0
 21  5  1  0  0  0  0
 21 22  2  0  0  0  0
 22 17  1  0  0  0  0
 23 13  1  0  0  0  0
 24  4  1  0  0  0  0
 25 19  2  0  0  0  0
 26 20  1  0  0  0  0
 26 18  2  0  0  0  0
 27 16  2  0  0  0  0
 28 34  1  6  0  0  0
 28 32  1  0  0  0  0
 29 28  1  0  0  0  0
 30 22  1  0  0  0  0
 30 32  2  0  0  0  0
 31 33  1  0  0  0  0
 31 29  1  0  0  0  0
 33 30  1  0  0  0  0
M  END
>  <MODEL>
2

>  <REMARK>
 VINA RESULT:      -5.3      2.207      6.126
  Name = 
  1 active torsions:
  status: ('A' for Active; 'I' for Inactive)
    1  A    between atoms: C_12  and  C_28
                            x       y       z     vdW  Elec       q    Type
                         _______ _______ _______ _____ _____    ______ ____

>  <TORSDO>
F 1

$$$$
