=
 OpenBabel11052421503D

 30 31  0  0  1  0  0  0  0  0999 V2000
  160.6890  205.6740  150.5700 C   0  0  0  0  0  0  0  0  0  0  0  0
  161.5840  204.5830  151.0880 C   0  0  0  0  0  2  0  0  0  0  0  0
  159.9170  205.4510  149.6530 O   0  0  0  0  0  0  0  0  0  0  0  0
  160.8270  206.9430  152.6810 C   0  0  1  0  0  3  0  0  0  0  0  0
  161.5700  204.5630  152.6170 C   0  0  0  0  0  2  0  0  0  0  0  0
  160.8040  207.0540  151.1440 C   0  0  1  0  0  3  0  0  0  0  0  0
  161.8660  205.9470  153.1960 C   0  0  0  0  0  2  0  0  0  0  0  0
  161.2030  209.5490  155.5680 C   0  0  0  0  0  2  0  0  0  0  0  0
  162.0930  210.3910  154.8690 O   0  0  0  0  0  0  0  0  0  0  0  0
  161.1710  208.1540  154.9510 C   0  0  1  0  0  3  0  0  0  0  0  0
  161.5110  209.3470  152.7470 C   0  0  0  0  0  2  0  0  0  0  0  0
  160.1990  207.3100  155.7540 C   0  0  0  0  0  1  0  0  0  0  0  0
  161.5840  210.6330  153.5710 C   0  0  1  0  0  3  0  0  0  0  0  0
  160.7320  208.2540  153.4800 C   0  0  1  0  0  3  0  0  0  0  0  0
  160.2920  211.3140  153.6090 N   0  0  0  0  0  2  0  0  0  0  0  0
  160.4080  212.3570  151.4350 O   0  0  0  0  0  0  0  0  0  0  0  0
  159.6700  211.7770  152.4410 N   0  0  0  0  0  0  0  0  0  0  0  0
  158.4370  211.6500  152.3070 O   0  0  0  0  0  0  0  0  0  0  0  0
  162.3010  207.8510  150.4670 S   0  0  0  0  0  0  0  0  0  0  0  0
  161.6930  207.7130  148.7630 C   0  0  0  0  0  2  0  0  0  0  0  0
  162.7210  206.9930  147.9110 C   0  0  0  0  0  2  0  0  0  0  0  0
  162.0190  206.1410  146.8660 C   0  0  2  0  0  3  0  0  0  0  0  0
  160.6680  206.4820  146.8060 O   0  0  0  0  0  1  0  0  0  0  0  0
  162.1490  204.6580  147.1860 C   0  0  0  0  0  2  0  0  0  0  0  0
  160.9840  202.5290  146.5150 C   0  0  0  0  0  3  0  0  0  0  0  0
  161.3430  203.7930  146.2560 C   0  0  0  0  0  3  0  0  0  0  0  0
  161.3170  201.8070  147.7870 C   0  0  2  0  0  3  0  0  0  0  0  0
  161.5700  200.3380  147.5010 C   0  0  0  0  0  1  0  0  0  0  0  0
  160.2230  201.9770  148.8440 C   0  0  0  0  0  2  0  0  0  0  0  0
  160.5760  201.3140  150.1690 C   0  0  0  0  0  1  0  0  0  0  0  0
  1  2  1  0  0  0  0
  1  6  1  0  0  0  0
  2  5  1  0  0  0  0
  3  1  2  0  0  0  0
  4  7  1  6  0  0  0
  4 14  1  0  0  0  0
  5  7  1  0  0  0  0
  6 19  1  6  0  0  0
  6  4  1  0  0  0  0
  9  8  1  0  0  0  0
 10  8  1  0  0  0  0
 10 12  1  1  0  0  0
 11 13  1  0  0  0  0
 13 15  1  1  0  0  0
 13  9  1  0  0  0  0
 14 11  1  6  0  0  0
 14 10  1  0  0  0  0
 16 17  2  0  0  0  0
 17 15  1  0  0  0  0
 18 17  2  0  0  0  0
 20 19  1  0  0  0  0
 21 20  1  0  0  0  0
 22 23  1  1  0  0  0
 22 24  1  0  0  0  0
 22 21  1  0  0  0  0
 25 27  1  0  0  0  0
 26 25  2  0  0  0  0
 26 24  1  0  0  0  0
 27 28  1  6  0  0  0
 27 29  1  0  0  0  0
 29 30  1  0  0  0  0
M  END
>  <MODEL>
1

>  <REMARK>
 VINA RESULT:      -7.5      0.000      0.000
  Name = 
  11 active torsions:
  status: ('A' for Active; 'I' for Inactive)
    1  A    between atoms: C_1  and  C_4
    2  A    between atoms: C_1  and  S_5
    3  A    between atoms: C_4  and  C_27
    4  A    between atoms: S_5  and  C_22
    5  A    between atoms: C_6  and  C_17
    6  A    between atoms: C_8  and  C_13
    7  A    between atoms: C_8  and  C_27
    8  A    between atoms: C_9  and  C_17
    9  A    between atoms: N_15  and  N_16
   10  A    between atoms: N_16  and  C_25
   11  A    between atoms: C_19  and  C_29
                            x       y       z     vdW  Elec       q    Type
                         _______ _______ _______ _____ _____    ______ ____

>  <TORSDO>
F 11

$$$$
=
 OpenBabel11052421503D

 30 31  0  0  1  0  0  0  0  0999 V2000
  161.0190  208.6530  155.5770 C   0  0  0  0  0  0  0  0  0  0  0  0
  162.0020  209.4070  156.4280 C   0  0  0  0  0  2  0  0  0  0  0  0
  160.8350  207.4620  155.7600 O   0  0  0  0  0  0  0  0  0  0  0  0
  159.7830  210.7050  154.9890 C   0  0  1  0  0  3  0  0  0  0  0  0
  161.3990  210.7350  156.8890 C   0  0  0  0  0  2  0  0  0  0  0  0
  160.3210  209.3640  154.4560 C   0  0  1  0  0  3  0  0  0  0  0  0
  160.8460  211.5360  155.7090 C   0  0  0  0  0  2  0  0  0  0  0  0
  156.8870  213.0230  153.7620 C   0  0  0  0  0  2  0  0  0  0  0  0
  157.7300  214.0610  153.3130 O   0  0  0  0  0  0  0  0  0  0  0  0
  157.6150  212.1120  154.7450 C   0  0  1  0  0  3  0  0  0  0  0  0
  159.6650  212.5810  153.3410 C   0  0  0  0  0  2  0  0  0  0  0  0
  156.6480  211.0290  155.1840 C   0  0  0  0  0  1  0  0  0  0  0  0
  158.7660  213.5090  152.5220 C   0  0  1  0  0  3  0  0  0  0  0  0
  158.8520  211.5050  154.0610 C   0  0  1  0  0  3  0  0  0  0  0  0
  158.2470  212.8360  151.3340 N   0  0  0  0  0  2  0  0  0  0  0  0
  158.7030  213.8130  149.1740 O   0  0  0  0  0  0  0  0  0  0  0  0
  157.8290  213.5540  150.2050 N   0  0  0  0  0  0  0  0  0  0  0  0
  156.6490  213.9510  150.1280 O   0  0  0  0  0  0  0  0  0  0  0  0
  161.4910  209.5670  153.0680 S   0  0  0  0  0  0  0  0  0  0  0  0
  160.8280  208.1180  152.2010 C   0  0  0  0  0  2  0  0  0  0  0  0
  161.8800  207.0260  152.1560 C   0  0  0  0  0  2  0  0  0  0  0  0
  161.2140  205.6630  152.2550 C   0  0  2  0  0  3  0  0  0  0  0  0
  161.1910  205.2430  153.5850 O   0  0  0  0  0  1  0  0  0  0  0  0
  161.9480  204.6280  151.4150 C   0  0  0  0  0  2  0  0  0  0  0  0
  160.7670  203.8120  149.3470 C   0  0  0  0  0  3  0  0  0  0  0  0
  161.0120  203.7250  150.6600 C   0  0  0  0  0  3  0  0  0  0  0  0
  161.4160  204.8130  148.4370 C   0  0  2  0  0  3  0  0  0  0  0  0
  160.5730  206.0720  148.3620 C   0  0  0  0  0  1  0  0  0  0  0  0
  161.6660  204.2380  147.0410 C   0  0  0  0  0  2  0  0  0  0  0  0
  162.8880  204.8450  146.3640 C   0  0  0  0  0  1  0  0  0  0  0  0
  1  3  2  0  0  0  0
  1  2  1  0  0  0  0
  2  5  1  0  0  0  0
  4  7  1  6  0  0  0
  6 19  1  6  0  0  0
  6  4  1  0  0  0  0
  6  1  1  0  0  0  0
  7  5  1  0  0  0  0
  8 10  1  0  0  0  0
  9  8  1  0  0  0  0
 10 12  1  6  0  0  0
 13 15  1  6  0  0  0
 13  9  1  0  0  0  0
 13 11  1  0  0  0  0
 14 11  1  1  0  0  0
 14 10  1  0  0  0  0
 14  4  1  0  0  0  0
 16 17  2  0  0  0  0
 17 15  1  0  0  0  0
 18 17  2  0  0  0  0
 20 19  1  0  0  0  0
 21 20  1  0  0  0  0
 21 22  1  0  0  0  0
 22 23  1  1  0  0  0
 24 22  1  0  0  0  0
 25 26  2  0  0  0  0
 26 24  1  0  0  0  0
 27 28  1  6  0  0  0
 27 25  1  0  0  0  0
 29 27  1  0  0  0  0
 30 29  1  0  0  0  0
M  END
>  <MODEL>
2

>  <REMARK>
 VINA RESULT:      -7.1      2.717      4.934
  Name = 
  11 active torsions:
  status: ('A' for Active; 'I' for Inactive)
    1  A    between atoms: C_1  and  C_4
    2  A    between atoms: C_1  and  S_5
    3  A    between atoms: C_4  and  C_27
    4  A    between atoms: S_5  and  C_22
    5  A    between atoms: C_6  and  C_17
    6  A    between atoms: C_8  and  C_13
    7  A    between atoms: C_8  and  C_27
    8  A    between atoms: C_9  and  C_17
    9  A    between atoms: N_15  and  N_16
   10  A    between atoms: N_16  and  C_25
   11  A    between atoms: C_19  and  C_29
                            x       y       z     vdW  Elec       q    Type
                         _______ _______ _______ _____ _____    ______ ____

>  <TORSDO>
F 11

$$$$
=
 OpenBabel11052421503D

 30 31  0  0  1  0  0  0  0  0999 V2000
  161.0920  208.5740  155.4330 C   0  0  0  0  0  0  0  0  0  0  0  0
  162.0400  209.2860  156.3560 C   0  0  0  0  0  2  0  0  0  0  0  0
  160.9350  207.3680  155.5240 O   0  0  0  0  0  0  0  0  0  0  0  0
  159.8140  210.6330  154.9750 C   0  0  1  0  0  3  0  0  0  0  0  0
  161.3960  210.5610  156.9020 C   0  0  0  0  0  2  0  0  0  0  0  0
  160.3960  209.3480  154.3540 C   0  0  1  0  0  3  0  0  0  0  0  0
  160.8430  211.4340  155.7740 C   0  0  0  0  0  2  0  0  0  0  0  0
  156.9480  213.0540  153.8800 C   0  0  0  0  0  2  0  0  0  0  0  0
  157.8070  214.0770  153.4270 O   0  0  0  0  0  0  0  0  0  0  0  0
  157.6800  212.1030  154.8230 C   0  0  1  0  0  3  0  0  0  0  0  0
  159.7000  212.5460  153.3680 C   0  0  0  0  0  2  0  0  0  0  0  0
  156.6960  211.0370  155.2680 C   0  0  0  0  0  1  0  0  0  0  0  0
  158.8040  213.5150  152.5950 C   0  0  1  0  0  3  0  0  0  0  0  0
  158.8790  211.4770  154.0910 C   0  0  1  0  0  3  0  0  0  0  0  0
  158.2330  212.8800  151.4100 N   0  0  0  0  0  2  0  0  0  0  0  0
  156.7860  214.3650  150.1730 O   0  0  0  0  0  0  0  0  0  0  0  0
  157.9370  213.6150  150.2530 N   0  0  0  0  0  0  0  0  0  0  0  0
  158.7310  213.5990  149.2920 O   0  0  0  0  0  0  0  0  0  0  0  0
  161.5830  209.6820  153.0080 S   0  0  0  0  0  0  0  0  0  0  0  0
  160.7690  208.5020  151.8970 C   0  0  0  0  0  2  0  0  0  0  0  0
  161.6690  207.3010  151.6810 C   0  0  0  0  0  2  0  0  0  0  0  0
  161.7480  206.9750  150.1990 C   0  0  2  0  0  3  0  0  0  0  0  0
  161.5900  208.1400  149.4480 O   0  0  0  0  0  1  0  0  0  0  0  0
  160.6760  205.9700  149.7970 C   0  0  0  0  0  2  0  0  0  0  0  0
  161.1430  203.6530  148.9300 C   0  0  0  0  0  3  0  0  0  0  0  0
  161.1630  204.9830  148.7730 C   0  0  0  0  0  3  0  0  0  0  0  0
  160.6060  202.9610  150.1470 C   0  0  2  0  0  3  0  0  0  0  0  0
  161.4790  203.2700  151.3500 C   0  0  0  0  0  1  0  0  0  0  0  0
  160.4800  201.4500  149.9370 C   0  0  0  0  0  2  0  0  0  0  0  0
  161.1510  200.9760  148.6550 C   0  0  0  0  0  1  0  0  0  0  0  0
  1  3  2  0  0  0  0
  1  2  1  0  0  0  0
  2  5  1  0  0  0  0
  4  7  1  6  0  0  0
  6 19  1  6  0  0  0
  6  4  1  0  0  0  0
  6  1  1  0  0  0  0
  7  5  1  0  0  0  0
  8 10  1  0  0  0  0
  9  8  1  0  0  0  0
 10 12  1  6  0  0  0
 13 15  1  6  0  0  0
 13 11  1  0  0  0  0
 13  9  1  0  0  0  0
 14 11  1  1  0  0  0
 14 10  1  0  0  0  0
 14  4  1  0  0  0  0
 16 17  2  0  0  0  0
 17 15  1  0  0  0  0
 18 17  2  0  0  0  0
 20 19  1  0  0  0  0
 21 20  1  0  0  0  0
 22 23  1  6  0  0  0
 22 21  1  0  0  0  0
 24 22  1  0  0  0  0
 25 27  1  0  0  0  0
 26 25  2  0  0  0  0
 26 24  1  0  0  0  0
 27 28  1  1  0  0  0
 29 27  1  0  0  0  0
 30 29  1  0  0  0  0
M  END
>  <MODEL>
3

>  <REMARK>
 VINA RESULT:      -7.1      2.660      4.436
  Name = 
  11 active torsions:
  status: ('A' for Active; 'I' for Inactive)
    1  A    between atoms: C_1  and  C_4
    2  A    between atoms: C_1  and  S_5
    3  A    between atoms: C_4  and  C_27
    4  A    between atoms: S_5  and  C_22
    5  A    between atoms: C_6  and  C_17
    6  A    between atoms: C_8  and  C_13
    7  A    between atoms: C_8  and  C_27
    8  A    between atoms: C_9  and  C_17
    9  A    between atoms: N_15  and  N_16
   10  A    between atoms: N_16  and  C_25
   11  A    between atoms: C_19  and  C_29
                            x       y       z     vdW  Elec       q    Type
                         _______ _______ _______ _____ _____    ______ ____

>  <TORSDO>
F 11

$$$$
=
 OpenBabel11052421503D

 30 31  0  0  1  0  0  0  0  0999 V2000
  160.8820  205.8850  145.9670 C   0  0  0  0  0  0  0  0  0  0  0  0
  161.7590  204.9290  145.2080 C   0  0  0  0  0  2  0  0  0  0  0  0
  160.1290  206.6340  145.3690 O   0  0  0  0  0  0  0  0  0  0  0  0
  160.9830  204.5220  148.0220 C   0  0  1  0  0  3  0  0  0  0  0  0
  161.7110  203.5390  145.8470 C   0  0  0  0  0  2  0  0  0  0  0  0
  160.9940  205.9570  147.4610 C   0  0  1  0  0  3  0  0  0  0  0  0
  162.0040  203.6060  147.3480 C   0  0  0  0  0  2  0  0  0  0  0  0
  161.1090  202.9470  151.5950 C   0  0  0  0  0  2  0  0  0  0  0  0
  162.1820  203.7410  152.0500 O   0  0  0  0  0  0  0  0  0  0  0  0
  161.0480  202.9300  150.0700 C   0  0  1  0  0  3  0  0  0  0  0  0
  161.8740  205.3160  150.2180 C   0  0  0  0  0  2  0  0  0  0  0  0
  159.8770  202.0580  149.6580 C   0  0  0  0  0  1  0  0  0  0  0  0
  161.9280  205.0960  151.7310 C   0  0  1  0  0  3  0  0  0  0  0  0
  160.8790  204.3670  149.5490 C   0  0  1  0  0  3  0  0  0  0  0  0
  160.7200  205.5940  152.3850 N   0  0  0  0  0  2  0  0  0  0  0  0
  160.7200  206.5870  154.5860 O   0  0  0  0  0  0  0  0  0  0  0  0
  160.7460  206.7220  153.2160 N   0  0  0  0  0  0  0  0  0  0  0  0
  160.8070  207.8600  152.7100 O   0  0  0  0  0  0  0  0  0  0  0  0
  162.5110  206.8780  147.8930 S   0  0  0  0  0  0  0  0  0  0  0  0
  161.5640  208.3260  148.4400 C   0  0  0  0  0  2  0  0  0  0  0  0
  161.9960  208.7170  149.8410 C   0  0  0  0  0  2  0  0  0  0  0  0
  162.2640  210.2130  149.8990 C   0  0  2  0  0  3  0  0  0  0  0  0
  161.5120  210.7890  150.9230 O   0  0  0  0  0  1  0  0  0  0  0  0
  161.9130  210.8870  148.5790 C   0  0  0  0  0  2  0  0  0  0  0  0
  162.3270  213.0790  147.4120 C   0  0  0  0  0  3  0  0  0  0  0  0
  162.5360  212.2490  148.4420 C   0  0  0  0  0  3  0  0  0  0  0  0
  161.4180  212.7730  146.2590 C   0  0  2  0  0  3  0  0  0  0  0  0
  162.0440  213.2490  144.9610 C   0  0  0  0  0  1  0  0  0  0  0  0
  160.0270  213.3810  146.4500 C   0  0  0  0  0  2  0  0  0  0  0  0
  158.9730  212.7310  145.5640 C   0  0  0  0  0  1  0  0  0  0  0  0
  1  6  1  0  0  0  0
  2  5  1  0  0  0  0
  2  1  1  0  0  0  0
  3  1  2  0  0  0  0
  4  7  1  1  0  0  0
  4 14  1  0  0  0  0
  5  7  1  0  0  0  0
  6 19  1  6  0  0  0
  6  4  1  0  0  0  0
  8  9  1  0  0  0  0
 10 12  1  1  0  0  0
 10  8  1  0  0  0  0
 11 13  1  0  0  0  0
 13  9  1  0  0  0  0
 13 15  1  1  0  0  0
 14 10  1  0  0  0  0
 14 11  1  1  0  0  0
 15 17  1  0  0  0  0
 17 16  2  0  0  0  0
 18 17  2  0  0  0  0
 19 20  1  0  0  0  0
 20 21  1  0  0  0  0
 21 22  1  0  0  0  0
 22 23  1  1  0  0  0
 24 22  1  0  0  0  0
 25 26  2  0  0  0  0
 26 24  1  0  0  0  0
 27 28  1  6  0  0  0
 27 29  1  0  0  0  0
 27 25  1  0  0  0  0
 30 29  1  0  0  0  0
M  END
>  <MODEL>
4

>  <REMARK>
 VINA RESULT:      -6.8      3.501      7.166
  Name = 
  11 active torsions:
  status: ('A' for Active; 'I' for Inactive)
    1  A    between atoms: C_1  and  C_4
    2  A    between atoms: C_1  and  S_5
    3  A    between atoms: C_4  and  C_27
    4  A    between atoms: S_5  and  C_22
    5  A    between atoms: C_6  and  C_17
    6  A    between atoms: C_8  and  C_13
    7  A    between atoms: C_8  and  C_27
    8  A    between atoms: C_9  and  C_17
    9  A    between atoms: N_15  and  N_16
   10  A    between atoms: N_16  and  C_25
   11  A    between atoms: C_19  and  C_29
                            x       y       z     vdW  Elec       q    Type
                         _______ _______ _______ _____ _____    ______ ____

>  <TORSDO>
F 11

$$$$
=
 OpenBabel11052421503D

 30 31  0  0  1  0  0  0  0  0999 V2000
  160.8500  205.8650  145.9750 C   0  0  0  0  0  0  0  0  0  0  0  0
  161.8480  205.0860  145.1650 C   0  0  0  0  0  2  0  0  0  0  0  0
  160.0400  206.5880  145.4210 O   0  0  0  0  0  0  0  0  0  0  0  0
  161.0310  204.3200  147.8900 C   0  0  1  0  0  3  0  0  0  0  0  0
  161.9290  203.6420  145.6640 C   0  0  0  0  0  2  0  0  0  0  0  0
  160.9070  205.7980  147.4720 C   0  0  1  0  0  3  0  0  0  0  0  0
  162.1650  203.5870  147.1740 C   0  0  0  0  0  2  0  0  0  0  0  0
  160.8830  202.3290  151.2490 C   0  0  0  0  0  2  0  0  0  0  0  0
  162.0680  202.8800  151.7800 O   0  0  0  0  0  0  0  0  0  0  0  0
  160.8290  202.5050  149.7340 C   0  0  1  0  0  3  0  0  0  0  0  0
  162.0270  204.6920  150.1530 C   0  0  0  0  0  2  0  0  0  0  0  0
  159.5340  201.8880  149.2380 C   0  0  0  0  0  1  0  0  0  0  0  0
  162.0380  204.2860  151.6270 C   0  0  1  0  0  3  0  0  0  0  0  0
  160.8960  204.0020  149.3900 C   0  0  1  0  0  3  0  0  0  0  0  0
  160.9230  204.8900  152.3530 N   0  0  0  0  0  2  0  0  0  0  0  0
  162.3480  206.5180  153.4250 O   0  0  0  0  0  0  0  0  0  0  0  0
  161.1260  205.8960  153.3080 N   0  0  0  0  0  0  0  0  0  0  0  0
  160.1850  206.2410  154.0510 O   0  0  0  0  0  0  0  0  0  0  0  0
  162.3010  206.8220  148.0560 S   0  0  0  0  0  0  0  0  0  0  0  0
  161.2380  207.7520  149.1940 C   0  0  0  0  0  2  0  0  0  0  0  0
  162.0630  208.2590  150.3620 C   0  0  0  0  0  2  0  0  0  0  0  0
  161.5470  209.6180  150.8070 C   0  0  2  0  0  3  0  0  0  0  0  0
  162.1800  210.6260  150.0800 O   0  0  0  0  0  1  0  0  0  0  0  0
  161.7930  209.8410  152.2930 C   0  0  0  0  0  2  0  0  0  0  0  0
  160.4930  209.5970  154.4350 C   0  0  0  0  0  3  0  0  0  0  0  0
  160.5310  209.7630  153.1070 C   0  0  0  0  0  3  0  0  0  0  0  0
  161.7130  209.4910  155.3020 C   0  0  2  0  0  3  0  0  0  0  0  0
  161.4850  208.4670  156.3980 C   0  0  0  0  0  1  0  0  0  0  0  0
  162.1130  210.8450  155.8930 C   0  0  0  0  0  2  0  0  0  0  0  0
  163.2940  210.7440  156.8490 C   0  0  0  0  0  1  0  0  0  0  0  0
  1  6  1  0  0  0  0
  2  5  1  0  0  0  0
  2  1  1  0  0  0  0
  3  1  2  0  0  0  0
  4  7  1  1  0  0  0
  4 14  1  0  0  0  0
  5  7  1  0  0  0  0
  6  4  1  0  0  0  0
  6 19  1  6  0  0  0
  8  9  1  0  0  0  0
 10 12  1  1  0  0  0
 10  8  1  0  0  0  0
 11 13  1  0  0  0  0
 13  9  1  0  0  0  0
 13 15  1  1  0  0  0
 14 10  1  0  0  0  0
 14 11  1  1  0  0  0
 15 17  1  0  0  0  0
 17 16  2  0  0  0  0
 17 18  2  0  0  0  0
 19 20  1  0  0  0  0
 20 21  1  0  0  0  0
 21 22  1  0  0  0  0
 22 23  1  6  0  0  0
 22 24  1  0  0  0  0
 24 26  1  0  0  0  0
 25 27  1  0  0  0  0
 26 25  2  0  0  0  0
 27 29  1  0  0  0  0
 27 28  1  1  0  0  0
 29 30  1  0  0  0  0
M  END
>  <MODEL>
5

>  <REMARK>
 VINA RESULT:      -6.6      2.569      7.308
  Name = 
  11 active torsions:
  status: ('A' for Active; 'I' for Inactive)
    1  A    between atoms: C_1  and  C_4
    2  A    between atoms: C_1  and  S_5
    3  A    between atoms: C_4  and  C_27
    4  A    between atoms: S_5  and  C_22
    5  A    between atoms: C_6  and  C_17
    6  A    between atoms: C_8  and  C_13
    7  A    between atoms: C_8  and  C_27
    8  A    between atoms: C_9  and  C_17
    9  A    between atoms: N_15  and  N_16
   10  A    between atoms: N_16  and  C_25
   11  A    between atoms: C_19  and  C_29
                            x       y       z     vdW  Elec       q    Type
                         _______ _______ _______ _____ _____    ______ ____

>  <TORSDO>
F 11

$$$$
=
 OpenBabel11052421503D

 30 31  0  0  1  0  0  0  0  0999 V2000
  160.8230  205.8450  145.9960 C   0  0  0  0  0  0  0  0  0  0  0  0
  161.6930  204.9450  145.1650 C   0  0  0  0  0  2  0  0  0  0  0  0
  160.0680  206.6380  145.4590 O   0  0  0  0  0  0  0  0  0  0  0  0
  160.9310  204.3360  147.9450 C   0  0  1  0  0  3  0  0  0  0  0  0
  161.6450  203.5130  145.7010 C   0  0  0  0  0  2  0  0  0  0  0  0
  160.9440  205.8080  147.4900 C   0  0  1  0  0  3  0  0  0  0  0  0
  161.9460  203.4680  147.2000 C   0  0  0  0  0  2  0  0  0  0  0  0
  160.8640  202.4610  151.3720 C   0  0  0  0  0  2  0  0  0  0  0  0
  162.0670  203.0210  151.8510 O   0  0  0  0  0  0  0  0  0  0  0  0
  160.7690  202.5860  149.8540 C   0  0  1  0  0  3  0  0  0  0  0  0
  161.9930  204.7770  150.1650 C   0  0  0  0  0  2  0  0  0  0  0  0
  159.4570  201.9620  149.4150 C   0  0  0  0  0  1  0  0  0  0  0  0
  162.0410  204.4220  151.6520 C   0  0  1  0  0  3  0  0  0  0  0  0
  160.8360  204.0700  149.4570 C   0  0  1  0  0  3  0  0  0  0  0  0
  160.9510  205.0580  152.3870 N   0  0  0  0  0  2  0  0  0  0  0  0
  160.2130  206.3530  154.2870 O   0  0  0  0  0  0  0  0  0  0  0  0
  161.1950  206.0130  153.3840 N   0  0  0  0  0  0  0  0  0  0  0  0
  162.3170  206.5510  153.4610 O   0  0  0  0  0  0  0  0  0  0  0  0
  162.4660  206.6910  147.9800 S   0  0  0  0  0  0  0  0  0  0  0  0
  161.5280  207.9850  148.8380 C   0  0  0  0  0  2  0  0  0  0  0  0
  161.9080  208.0020  150.3060 C   0  0  0  0  0  2  0  0  0  0  0  0
  161.5550  209.3500  150.9150 C   0  0  2  0  0  3  0  0  0  0  0  0
  162.7010  209.9490  151.4370 O   0  0  0  0  0  1  0  0  0  0  0  0
  160.5190  209.2000  152.0210 C   0  0  0  0  0  2  0  0  0  0  0  0
  160.0040  210.9840  153.7220 C   0  0  0  0  0  3  0  0  0  0  0  0
  160.8260  210.0520  153.2210 C   0  0  0  0  0  3  0  0  0  0  0  0
  158.6450  211.2890  153.1660 C   0  0  2  0  0  3  0  0  0  0  0  0
  158.7030  212.5340  152.3000 C   0  0  0  0  0  1  0  0  0  0  0  0
  157.5960  211.4390  154.2700 C   0  0  0  0  0  2  0  0  0  0  0  0
  158.2140  211.6420  155.6460 C   0  0  0  0  0  1  0  0  0  0  0  0
  1  6  1  0  0  0  0
  2  5  1  0  0  0  0
  2  1  1  0  0  0  0
  3  1  2  0  0  0  0
  4  7  1  1  0  0  0
  4 14  1  0  0  0  0
  5  7  1  0  0  0  0
  6  4  1  0  0  0  0
  6 19  1  6  0  0  0
  8  9  1  0  0  0  0
 10 12  1  1  0  0  0
 10  8  1  0  0  0  0
 11 13  1  0  0  0  0
 13  9  1  0  0  0  0
 13 15  1  1  0  0  0
 14 10  1  0  0  0  0
 14 11  1  1  0  0  0
 15 17  1  0  0  0  0
 17 18  2  0  0  0  0
 17 16  2  0  0  0  0
 19 20  1  0  0  0  0
 20 21  1  0  0  0  0
 21 22  1  0  0  0  0
 22 23  1  1  0  0  0
 22 24  1  0  0  0  0
 24 26  1  0  0  0  0
 26 25  2  0  0  0  0
 27 28  1  1  0  0  0
 27 25  1  0  0  0  0
 27 29  1  0  0  0  0
 29 30  1  0  0  0  0
M  END
>  <MODEL>
6

>  <REMARK>
 VINA RESULT:      -6.4      2.760      7.414
  Name = 
  11 active torsions:
  status: ('A' for Active; 'I' for Inactive)
    1  A    between atoms: C_1  and  C_4
    2  A    between atoms: C_1  and  S_5
    3  A    between atoms: C_4  and  C_27
    4  A    between atoms: S_5  and  C_22
    5  A    between atoms: C_6  and  C_17
    6  A    between atoms: C_8  and  C_13
    7  A    between atoms: C_8  and  C_27
    8  A    between atoms: C_9  and  C_17
    9  A    between atoms: N_15  and  N_16
   10  A    between atoms: N_16  and  C_25
   11  A    between atoms: C_19  and  C_29
                            x       y       z     vdW  Elec       q    Type
                         _______ _______ _______ _____ _____    ______ ____

>  <TORSDO>
F 11

$$$$
=
 OpenBabel11052421503D

 30 31  0  0  1  0  0  0  0  0999 V2000
  161.8560  205.2420  151.4480 C   0  0  0  0  0  0  0  0  0  0  0  0
  160.8010  204.6670  152.3500 C   0  0  0  0  0  2  0  0  0  0  0  0
  162.7630  205.9120  151.9120 O   0  0  0  0  0  0  0  0  0  0  0  0
  161.4340  203.5570  149.6950 C   0  0  1  0  0  3  0  0  0  0  0  0
  160.5340  203.2030  151.9950 C   0  0  0  0  0  2  0  0  0  0  0  0
  161.7440  205.0420  149.9660 C   0  0  1  0  0  3  0  0  0  0  0  0
  160.2450  203.0350  150.5020 C   0  0  0  0  0  2  0  0  0  0  0  0
  160.8140  201.4410  146.4700 C   0  0  0  0  0  2  0  0  0  0  0  0
  160.0450  202.4250  145.8130 O   0  0  0  0  0  0  0  0  0  0  0  0
  160.8670  201.7010  147.9720 C   0  0  1  0  0  3  0  0  0  0  0  0
  160.8360  204.1490  147.3410 C   0  0  0  0  0  2  0  0  0  0  0  0
  161.7040  200.6060  148.6070 C   0  0  0  0  0  1  0  0  0  0  0  0
  160.7140  203.6700  145.8940 C   0  0  1  0  0  3  0  0  0  0  0  0
  161.4820  203.0870  148.2310 C   0  0  1  0  0  3  0  0  0  0  0  0
  162.0170  203.6330  145.2330 N   0  0  0  0  0  2  0  0  0  0  0  0
  164.1940  204.3320  146.0080 O   0  0  0  0  0  0  0  0  0  0  0  0
  162.9760  204.6340  145.4430 N   0  0  0  0  0  0  0  0  0  0  0  0
  162.7280  205.8080  145.1020 O   0  0  0  0  0  0  0  0  0  0  0  0
  160.4600  206.1670  149.3150 S   0  0  0  0  0  0  0  0  0  0  0  0
  161.6570  207.0510  148.2770 C   0  0  0  0  0  2  0  0  0  0  0  0
  162.5000  207.9690  149.1410 C   0  0  0  0  0  2  0  0  0  0  0  0
  161.7210  209.2340  149.4640 C   0  0  2  0  0  3  0  0  0  0  0  0
  162.0950  210.2570  148.5920 O   0  0  0  0  0  1  0  0  0  0  0  0
  161.9670  209.6820  150.8980 C   0  0  0  0  0  2  0  0  0  0  0  0
  160.8240  209.3510  153.1170 C   0  0  0  0  0  3  0  0  0  0  0  0
  161.1460  208.9100  151.8940 C   0  0  0  0  0  3  0  0  0  0  0  0
  161.2200  210.6950  153.6550 C   0  0  2  0  0  3  0  0  0  0  0  0
  161.5790  210.5820  155.1250 C   0  0  0  0  0  1  0  0  0  0  0  0
  160.1260  211.7430  153.4380 C   0  0  0  0  0  2  0  0  0  0  0  0
  158.8220  211.3880  154.1400 C   0  0  0  0  0  1  0  0  0  0  0  0
  1  3  2  0  0  0  0
  1  2  1  0  0  0  0
  4  6  1  0  0  0  0
  4  7  1  6  0  0  0
  5  2  1  0  0  0  0
  6 19  1  1  0  0  0
  6  1  1  0  0  0  0
  7  5  1  0  0  0  0
  8 10  1  0  0  0  0
  9 13  1  0  0  0  0
  9  8  1  0  0  0  0
 10 14  1  0  0  0  0
 10 12  1  1  0  0  0
 13 15  1  1  0  0  0
 13 11  1  0  0  0  0
 14 11  1  6  0  0  0
 14  4  1  0  0  0  0
 15 17  1  0  0  0  0
 17 16  2  0  0  0  0
 18 17  2  0  0  0  0
 20 21  1  0  0  0  0
 20 19  1  0  0  0  0
 21 22  1  0  0  0  0
 22 23  1  6  0  0  0
 22 24  1  0  0  0  0
 24 26  1  0  0  0  0
 25 27  1  0  0  0  0
 26 25  2  0  0  0  0
 27 28  1  1  0  0  0
 29 27  1  0  0  0  0
 29 30  1  0  0  0  0
M  END
>  <MODEL>
7

>  <REMARK>
 VINA RESULT:      -6.3      3.567      8.117
  Name = 
  11 active torsions:
  status: ('A' for Active; 'I' for Inactive)
    1  A    between atoms: C_1  and  C_4
    2  A    between atoms: C_1  and  S_5
    3  A    between atoms: C_4  and  C_27
    4  A    between atoms: S_5  and  C_22
    5  A    between atoms: C_6  and  C_17
    6  A    between atoms: C_8  and  C_13
    7  A    between atoms: C_8  and  C_27
    8  A    between atoms: C_9  and  C_17
    9  A    between atoms: N_15  and  N_16
   10  A    between atoms: N_16  and  C_25
   11  A    between atoms: C_19  and  C_29
                            x       y       z     vdW  Elec       q    Type
                         _______ _______ _______ _____ _____    ______ ____

>  <TORSDO>
F 11

$$$$
=
 OpenBabel11052421503D

 30 31  0  0  1  0  0  0  0  0999 V2000
  162.0090  205.3410  151.7260 C   0  0  0  0  0  0  0  0  0  0  0  0
  161.0870  204.3470  152.3750 C   0  0  0  0  0  2  0  0  0  0  0  0
  162.8980  205.8680  152.3740 O   0  0  0  0  0  0  0  0  0  0  0  0
  161.5670  204.4480  149.4690 C   0  0  1  0  0  3  0  0  0  0  0  0
  160.9070  203.1220  151.4760 C   0  0  0  0  0  2  0  0  0  0  0  0
  161.7810  205.7310  150.2960 C   0  0  1  0  0  3  0  0  0  0  0  0
  160.5000  203.5250  150.0580 C   0  0  0  0  0  2  0  0  0  0  0  0
  162.5390  205.4650  145.8240 C   0  0  0  0  0  2  0  0  0  0  0  0
  162.7930  204.1490  145.3840 O   0  0  0  0  0  0  0  0  0  0  0  0
  162.5770  205.5500  147.3470 C   0  0  1  0  0  3  0  0  0  0  0  0
  161.6040  203.2170  147.2940 C   0  0  0  0  0  2  0  0  0  0  0  0
  162.3000  206.9880  147.7430 C   0  0  0  0  0  1  0  0  0  0  0  0
  161.7190  203.3130  145.7720 C   0  0  1  0  0  3  0  0  0  0  0  0
  161.5210  204.6000  147.9390 C   0  0  1  0  0  3  0  0  0  0  0  0
  160.4560  203.7300  145.1680 N   0  0  0  0  0  2  0  0  0  0  0  0
  158.5540  203.2280  143.7680 O   0  0  0  0  0  0  0  0  0  0  0  0
  159.5810  202.8050  144.5810 N   0  0  0  0  0  0  0  0  0  0  0  0
  159.7430  201.5860  144.7870 O   0  0  0  0  0  0  0  0  0  0  0  0
  160.3600  206.8750  150.2170 S   0  0  0  0  0  0  0  0  0  0  0  0
  161.3470  208.2610  150.8460 C   0  0  0  0  0  2  0  0  0  0  0  0
  160.8410  208.6650  152.2170 C   0  0  0  0  0  2  0  0  0  0  0  0
  160.8620  210.1800  152.3500 C   0  0  2  0  0  3  0  0  0  0  0  0
  161.7570  210.7230  151.4270 O   0  0  0  0  0  1  0  0  0  0  0  0
  161.2710  210.6050  153.7540 C   0  0  0  0  0  2  0  0  0  0  0  0
  159.8620  209.7750  155.6690 C   0  0  0  0  0  3  0  0  0  0  0  0
  160.1050  210.6690  154.7010 C   0  0  0  0  0  3  0  0  0  0  0  0
  160.7410  208.5940  155.9590 C   0  0  2  0  0  3  0  0  0  0  0  0
  159.9120  207.3240  155.9960 C   0  0  0  0  0  1  0  0  0  0  0  0
  161.5270  208.7720  157.2610 C   0  0  0  0  0  2  0  0  0  0  0  0
  162.5360  209.9090  157.1890 C   0  0  0  0  0  1  0  0  0  0  0  0
  1  3  2  0  0  0  0
  1  2  1  0  0  0  0
  4  7  1  1  0  0  0
  4  6  1  0  0  0  0
  5  2  1  0  0  0  0
  6 19  1  1  0  0  0
  6  1  1  0  0  0  0
  7  5  1  0  0  0  0
  8 10  1  0  0  0  0
  9 13  1  0  0  0  0
  9  8  1  0  0  0  0
 10 12  1  6  0  0  0
 10 14  1  0  0  0  0
 13 15  1  1  0  0  0
 13 11  1  0  0  0  0
 14 11  1  6  0  0  0
 14  4  1  0  0  0  0
 16 17  2  0  0  0  0
 17 18  2  0  0  0  0
 17 15  1  0  0  0  0
 19 20  1  0  0  0  0
 20 21  1  0  0  0  0
 21 22  1  0  0  0  0
 22 23  1  6  0  0  0
 22 24  1  0  0  0  0
 24 26  1  0  0  0  0
 25 27  1  0  0  0  0
 26 25  2  0  0  0  0
 27 28  1  1  0  0  0
 27 29  1  0  0  0  0
 30 29  1  0  0  0  0
M  END
>  <MODEL>
8

>  <REMARK>
 VINA RESULT:      -6.1      3.596      8.537
  Name = 
  11 active torsions:
  status: ('A' for Active; 'I' for Inactive)
    1  A    between atoms: C_1  and  C_4
    2  A    between atoms: C_1  and  S_5
    3  A    between atoms: C_4  and  C_27
    4  A    between atoms: S_5  and  C_22
    5  A    between atoms: C_6  and  C_17
    6  A    between atoms: C_8  and  C_13
    7  A    between atoms: C_8  and  C_27
    8  A    between atoms: C_9  and  C_17
    9  A    between atoms: N_15  and  N_16
   10  A    between atoms: N_16  and  C_25
   11  A    between atoms: C_19  and  C_29
                            x       y       z     vdW  Elec       q    Type
                         _______ _______ _______ _____ _____    ______ ____

>  <TORSDO>
F 11

$$$$
=
 OpenBabel11052421503D

 30 31  0  0  1  0  0  0  0  0999 V2000
  160.8430  206.3830  149.6040 C   0  0  0  0  0  0  0  0  0  0  0  0
  161.5920  205.1330  149.9740 C   0  0  0  0  0  2  0  0  0  0  0  0
  160.1680  206.4170  148.5900 O   0  0  0  0  0  0  0  0  0  0  0  0
  160.8280  207.1980  151.9330 C   0  0  1  0  0  3  0  0  0  0  0  0
  161.4000  204.8160  151.4580 C   0  0  0  0  0  2  0  0  0  0  0  0
  160.9910  207.6080  150.4570 C   0  0  1  0  0  3  0  0  0  0  0  0
  161.7270  206.0270  152.3340 C   0  0  0  0  0  2  0  0  0  0  0  0
  161.3050  209.2400  155.2300 C   0  0  0  0  0  2  0  0  0  0  0  0
  162.1060  210.2440  154.6470 O   0  0  0  0  0  0  0  0  0  0  0  0
  161.2860  207.9840  154.3640 C   0  0  1  0  0  3  0  0  0  0  0  0
  161.4150  209.5810  152.4070 C   0  0  0  0  0  2  0  0  0  0  0  0
  160.4110  206.9530  155.0530 C   0  0  0  0  0  1  0  0  0  0  0  0
  161.4930  210.6950  153.4530 C   0  0  1  0  0  3  0  0  0  0  0  0
  160.7370  208.3310  152.9700 C   0  0  1  0  0  3  0  0  0  0  0  0
  160.1800  211.2850  153.7010 N   0  0  0  0  0  2  0  0  0  0  0  0
  160.0780  212.8600  151.8730 O   0  0  0  0  0  0  0  0  0  0  0  0
  159.4630  211.9360  152.6870 N   0  0  0  0  0  0  0  0  0  0  0  0
  158.2580  211.6650  152.5120 O   0  0  0  0  0  0  0  0  0  0  0  0
  162.6100  208.3770  150.1060 S   0  0  0  0  0  0  0  0  0  0  0  0
  161.9290  209.3680  148.7490 C   0  0  0  0  0  2  0  0  0  0  0  0
  161.7780  210.8090  149.1960 C   0  0  0  0  0  2  0  0  0  0  0  0
  162.1150  211.7440  148.0450 C   0  0  2  0  0  3  0  0  0  0  0  0
  163.4990  211.8250  147.8900 O   0  0  0  0  0  1  0  0  0  0  0  0
  161.5550  213.1390  148.2870 C   0  0  0  0  0  2  0  0  0  0  0  0
  159.6670  213.6720  146.7070 C   0  0  0  0  0  3  0  0  0  0  0  0
  160.9610  213.7470  147.0460 C   0  0  0  0  0  3  0  0  0  0  0  0
  158.6220  212.9870  147.5370 C   0  0  2  0  0  3  0  0  0  0  0  0
  157.4560  212.5660  146.6620 C   0  0  0  0  0  1  0  0  0  0  0  0
  158.1470  213.8640  148.6970 C   0  0  0  0  0  2  0  0  0  0  0  0
  156.8990  213.3190  149.3770 C   0  0  0  0  0  1  0  0  0  0  0  0
  1  2  1  0  0  0  0
  1  6  1  0  0  0  0
  2  5  1  0  0  0  0
  3  1  2  0  0  0  0
  4  7  1  1  0  0  0
  4 14  1  0  0  0  0
  5  7  1  0  0  0  0
  6 19  1  1  0  0  0
  6  4  1  0  0  0  0
  9  8  1  0  0  0  0
 10 12  1  1  0  0  0
 10  8  1  0  0  0  0
 11 13  1  0  0  0  0
 13 15  1  1  0  0  0
 13  9  1  0  0  0  0
 14 11  1  6  0  0  0
 14 10  1  0  0  0  0
 16 17  2  0  0  0  0
 17 15  1  0  0  0  0
 18 17  2  0  0  0  0
 20 21  1  0  0  0  0
 20 19  1  0  0  0  0
 22 23  1  1  0  0  0
 22 24  1  0  0  0  0
 22 21  1  0  0  0  0
 25 26  2  0  0  0  0
 25 27  1  0  0  0  0
 26 24  1  0  0  0  0
 27 28  1  6  0  0  0
 27 29  1  0  0  0  0
 29 30  1  0  0  0  0
M  END
>  <MODEL>
9

>  <REMARK>
 VINA RESULT:      -5.9      3.432      5.788
  Name = 
  11 active torsions:
  status: ('A' for Active; 'I' for Inactive)
    1  A    between atoms: C_1  and  C_4
    2  A    between atoms: C_1  and  S_5
    3  A    between atoms: C_4  and  C_27
    4  A    between atoms: S_5  and  C_22
    5  A    between atoms: C_6  and  C_17
    6  A    between atoms: C_8  and  C_13
    7  A    between atoms: C_8  and  C_27
    8  A    between atoms: C_9  and  C_17
    9  A    between atoms: N_15  and  N_16
   10  A    between atoms: N_16  and  C_25
   11  A    between atoms: C_19  and  C_29
                            x       y       z     vdW  Elec       q    Type
                         _______ _______ _______ _____ _____    ______ ____

>  <TORSDO>
F 11

$$$$
