=
 OpenBabel11052422363D

 31 35  0  0  1  0  0  0  0  0999 V2000
  160.4320  209.3460  156.2690 C   0  0  0  0  0  0  0  0  0  0  0  0
  161.3310  208.5810  152.6860 N   0  0  0  0  0  0  0  0  0  0  0  0
  161.1980  209.8170  151.9420 C   0  0  0  0  0  0  0  0  0  0  0  0
  160.2700  212.0600  151.5710 C   0  0  0  0  0  0  0  0  0  0  0  0
  160.9260  208.4240  154.0700 C   0  0  0  0  0  0  0  0  0  0  0  0
  160.2290  208.0580  156.7700 C   0  0  0  0  0  3  0  0  0  0  0  0
  160.4400  210.8330  152.3670 C   0  0  0  0  0  3  0  0  0  0  0  0
  162.0370  206.1180  152.7220 C   0  0  2  0  0  3  0  0  0  0  0  0
  160.2890  210.4190  157.0820 F   0  0  0  0  0  0  0  0  0  0  0  0
  162.4580  208.8740  150.1260 N   0  0  0  0  0  0  0  0  0  0  0  0
  159.4290  213.0260  152.0100 F   0  0  0  0  0  0  0  0  0  0  0  0
  160.8790  205.9380  153.7030 C   0  0  0  0  0  2  0  0  0  0  0  0
  161.9270  207.4470  152.0100 C   0  0  0  0  0  0  0  0  0  0  0  0
  160.7830  209.5270  154.9290 C   0  0  0  0  0  3  0  0  0  0  0  0
  160.9070  212.2230  150.4070 C   0  0  0  0  0  3  0  0  0  0  0  0
  160.7470  207.1280  154.5950 C   0  0  0  0  0  0  0  0  0  0  0  0
  160.3850  206.9510  155.9340 C   0  0  0  0  0  3  0  0  0  0  0  0
  162.4940  207.6100  150.8050 C   0  0  0  0  0  3  0  0  0  0  0  0
  161.8550  209.9130  150.6190 C   0  0  0  0  0  0  0  0  0  0  0  0
  161.8790  211.2100  149.8610 C   0  0  0  0  0  2  0  0  0  0  0  0
  159.9140  205.4650  150.9430 O   0  0  0  0  0  0  0  0  0  0  0  0
  160.9440  204.7390  150.8920 C   0  0  0  0  0  0  0  0  0  0  0  0
  162.0400  205.0100  151.7720 N   0  0  0  0  0  2  0  0  0  0  0  0
  161.1790  201.3650  148.2360 C   0  0  0  0  0  0  0  0  0  0  0  0
  160.8910  202.3050  150.4420 C   0  0  0  0  0  3  0  0  0  0  0  0
  161.4180  205.1080  147.9000 C   0  0  0  0  0  1  0  0  0  0  0  0
  161.2510  200.2600  147.4000 O   0  0  0  0  0  1  0  0  0  0  0  0
  160.9640  201.1920  149.6020 C   0  0  0  0  0  3  0  0  0  0  0  0
  161.2530  203.7710  148.5430 C   0  0  0  0  0  0  0  0  0  0  0  0
  161.0330  203.6070  149.9340 C   0  0  0  0  0  0  0  0  0  0  0  0
  161.3230  202.6490  147.7100 C   0  0  0  0  0  3  0  0  0  0  0  0
  1  6  1  0  0  0  0
  1  9  1  0  0  0  0
  2  5  1  0  0  0  0
  3  7  2  0  0  0  0
  3  2  1  0  0  0  0
  4 11  1  0  0  0  0
  4  7  1  0  0  0  0
  5 16  2  0  0  0  0
  5 14  1  0  0  0  0
  8 23  1  6  0  0  0
  8 12  1  0  0  0  0
 10 19  2  0  0  0  0
 10 18  1  0  0  0  0
 12 16  1  0  0  0  0
 13  2  1  0  0  0  0
 13  8  1  0  0  0  0
 14  1  2  0  0  0  0
 15  4  2  0  0  0  0
 16 17  1  0  0  0  0
 17  6  2  0  0  0  0
 18 13  2  0  0  0  0
 19  3  1  0  0  0  0
 20 15  1  0  0  0  0
 20 19  1  0  0  0  0
 22 21  2  0  0  0  0
 22 23  1  0  0  0  0
 24 28  1  0  0  0  0
 26 29  1  0  0  0  0
 27 24  1  0  0  0  0
 28 25  2  0  0  0  0
 29 30  2  0  0  0  0
 30 25  1  0  0  0  0
 30 22  1  0  0  0  0
 31 24  2  0  0  0  0
 31 29  1  0  0  0  0
M  END
>  <MODEL>
1

>  <REMARK>
 VINA RESULT:     -10.0      0.000      0.000
  Name = 
  2 active torsions:
  status: ('A' for Active; 'I' for Inactive)
    1  A    between atoms: C_9  and  C_22
    2  A    between atoms: C_15  and  N_23
                            x       y       z     vdW  Elec       q    Type
                         _______ _______ _______ _____ _____    ______ ____

>  <TORSDO>
F 2

$$$$
=
 OpenBabel11052422363D

 31 35  0  0  1  0  0  0  0  0999 V2000
  161.1720  209.4930  155.0750 C   0  0  0  0  0  0  0  0  0  0  0  0
  161.3760  209.2780  151.3150 N   0  0  0  0  0  0  0  0  0  0  0  0
  161.2230  210.6260  150.8030 C   0  0  0  0  0  0  0  0  0  0  0  0
  160.4410  212.9480  150.9530 C   0  0  0  0  0  0  0  0  0  0  0  0
  161.2020  208.9190  152.7090 C   0  0  0  0  0  0  0  0  0  0  0  0
  160.9490  208.1530  155.4040 C   0  0  0  0  0  3  0  0  0  0  0  0
  160.6390  211.6000  151.5100 C   0  0  0  0  0  3  0  0  0  0  0  0
  161.8640  206.8070  150.8460 C   0  0  2  0  0  3  0  0  0  0  0  0
  161.2630  210.4240  156.0540 F   0  0  0  0  0  0  0  0  0  0  0  0
  162.0680  209.9240  148.6660 N   0  0  0  0  0  0  0  0  0  0  0  0
  159.7730  213.8750  151.6800 F   0  0  0  0  0  0  0  0  0  0  0  0
  160.8800  206.5340  151.9840 C   0  0  0  0  0  2  0  0  0  0  0  0
  161.7480  208.2390  150.3760 C   0  0  0  0  0  0  0  0  0  0  0  0
  161.3030  209.8710  153.7370 C   0  0  0  0  0  3  0  0  0  0  0  0
  160.8810  213.2640  149.7320 C   0  0  0  0  0  3  0  0  0  0  0  0
  161.0040  207.5670  153.0550 C   0  0  0  0  0  0  0  0  0  0  0  0
  160.8640  207.1930  154.3950 C   0  0  0  0  0  3  0  0  0  0  0  0
  162.1110  208.5660  149.1270 C   0  0  0  0  0  3  0  0  0  0  0  0
  161.6490  210.9000  149.4130 C   0  0  0  0  0  0  0  0  0  0  0  0
  161.6540  212.3010  148.8700 C   0  0  0  0  0  2  0  0  0  0  0  0
  161.8400  203.9710  151.0760 O   0  0  0  0  0  0  0  0  0  0  0  0
  161.5980  204.4520  149.9360 C   0  0  0  0  0  0  0  0  0  0  0  0
  161.6090  205.8720  149.7550 N   0  0  0  0  0  2  0  0  0  0  0  0
  160.7960  201.9990  146.4950 C   0  0  0  0  0  0  0  0  0  0  0  0
  161.5480  204.0680  147.4900 C   0  0  0  0  0  3  0  0  0  0  0  0
  160.5010  201.6200  150.2300 C   0  0  0  0  0  1  0  0  0  0  0  0
  160.5470  201.2280  145.3690 O   0  0  0  0  0  1  0  0  0  0  0  0
  161.2960  203.2930  146.3570 C   0  0  0  0  0  3  0  0  0  0  0  0
  160.7960  202.2490  148.9100 C   0  0  0  0  0  0  0  0  0  0  0  0
  161.3050  203.5670  148.7800 C   0  0  0  0  0  0  0  0  0  0  0  0
  160.5480  201.4810  147.7660 C   0  0  0  0  0  3  0  0  0  0  0  0
  1  6  1  0  0  0  0
  1  9  1  0  0  0  0
  2  5  1  0  0  0  0
  3  2  1  0  0  0  0
  3  7  2  0  0  0  0
  4  7  1  0  0  0  0
  4 11  1  0  0  0  0
  5 16  2  0  0  0  0
  5 14  1  0  0  0  0
  8 23  1  6  0  0  0
  8 12  1  0  0  0  0
 10 18  1  0  0  0  0
 10 19  2  0  0  0  0
 12 16  1  0  0  0  0
 13  8  1  0  0  0  0
 13  2  1  0  0  0  0
 14  1  2  0  0  0  0
 15  4  2  0  0  0  0
 16 17  1  0  0  0  0
 17  6  2  0  0  0  0
 18 13  2  0  0  0  0
 19  3  1  0  0  0  0
 20 19  1  0  0  0  0
 20 15  1  0  0  0  0
 22 21  2  0  0  0  0
 23 22  1  0  0  0  0
 24 31  1  0  0  0  0
 25 30  2  0  0  0  0
 27 24  1  0  0  0  0
 28 24  2  0  0  0  0
 28 25  1  0  0  0  0
 29 26  1  0  0  0  0
 30 29  1  0  0  0  0
 30 22  1  0  0  0  0
 31 29  2  0  0  0  0
M  END
>  <MODEL>
2

>  <REMARK>
 VINA RESULT:      -9.5      1.345      1.975
  Name = 
  2 active torsions:
  status: ('A' for Active; 'I' for Inactive)
    1  A    between atoms: C_9  and  C_22
    2  A    between atoms: C_15  and  N_23
                            x       y       z     vdW  Elec       q    Type
                         _______ _______ _______ _____ _____    ______ ____

>  <TORSDO>
F 2

$$$$
=
 OpenBabel11052422363D

 31 35  0  0  1  0  0  0  0  0999 V2000
  160.8340  201.1960  149.6650 C   0  0  0  0  0  0  0  0  0  0  0  0
  161.2830  204.9300  149.3790 N   0  0  0  0  0  0  0  0  0  0  0  0
  161.5510  205.2200  147.9850 C   0  0  0  0  0  0  0  0  0  0  0  0
  162.3460  204.6260  145.7390 C   0  0  0  0  0  0  0  0  0  0  0  0
  161.2040  203.5890  149.9250 C   0  0  0  0  0  0  0  0  0  0  0  0
  160.9680  201.0190  151.0440 C   0  0  0  0  0  3  0  0  0  0  0  0
  162.0250  204.2990  147.1380 C   0  0  0  0  0  3  0  0  0  0  0  0
  160.8300  205.8060  151.7450 C   0  0  2  0  0  3  0  0  0  0  0  0
  160.5940  200.1290  148.8660 F   0  0  0  0  0  0  0  0  0  0  0  0
  161.0760  207.5450  148.3640 N   0  0  0  0  0  0  0  0  0  0  0  0
  162.8980  203.6780  144.9450 F   0  0  0  0  0  0  0  0  0  0  0  0
  161.5950  204.5660  152.2060 C   0  0  0  0  0  2  0  0  0  0  0  0
  161.0570  206.0500  150.2700 C   0  0  0  0  0  0  0  0  0  0  0  0
  160.9460  202.4720  149.1100 C   0  0  0  0  0  3  0  0  0  0  0  0
  162.1330  205.8500  145.2480 C   0  0  0  0  0  3  0  0  0  0  0  0
  161.3080  203.4000  151.3170 C   0  0  0  0  0  0  0  0  0  0  0  0
  161.2060  202.1200  151.8680 C   0  0  0  0  0  3  0  0  0  0  0  0
  160.9240  207.2870  149.7680 C   0  0  0  0  0  3  0  0  0  0  0  0
  161.3800  206.6120  147.5130 C   0  0  0  0  0  0  0  0  0  0  0  0
  161.5000  206.9530  146.0550 C   0  0  0  0  0  2  0  0  0  0  0  0
  160.0480  206.3270  154.4300 O   0  0  0  0  0  0  0  0  0  0  0  0
  160.8320  207.1560  153.8940 C   0  0  0  0  0  0  0  0  0  0  0  0
  161.2500  206.9550  152.5400 N   0  0  0  0  0  2  0  0  0  0  0  0
  162.2800  210.4900  156.1930 C   0  0  0  0  0  0  0  0  0  0  0  0
  161.7350  208.1460  155.9770 C   0  0  0  0  0  3  0  0  0  0  0  0
  160.9880  209.9570  152.6960 C   0  0  0  0  0  1  0  0  0  0  0  0
  162.7510  211.5490  156.9550 O   0  0  0  0  0  1  0  0  0  0  0  0
  162.2090  209.2110  156.7450 C   0  0  0  0  0  3  0  0  0  0  0  0
  161.4000  209.6430  154.0950 C   0  0  0  0  0  0  0  0  0  0  0  0
  161.3240  208.3380  154.6470 C   0  0  0  0  0  0  0  0  0  0  0  0
  161.8770  210.7030  154.8750 C   0  0  0  0  0  3  0  0  0  0  0  0
  1  6  1  0  0  0  0
  2  5  1  0  0  0  0
  2 13  1  0  0  0  0
  3  2  1  0  0  0  0
  4  7  1  0  0  0  0
  5 16  2  0  0  0  0
  6 17  2  0  0  0  0
  7  3  2  0  0  0  0
  8 12  1  0  0  0  0
  8 23  1  1  0  0  0
  9  1  1  0  0  0  0
 10 18  1  0  0  0  0
 11  4  1  0  0  0  0
 13  8  1  0  0  0  0
 14  1  2  0  0  0  0
 14  5  1  0  0  0  0
 15  4  2  0  0  0  0
 15 20  1  0  0  0  0
 16 17  1  0  0  0  0
 16 12  1  0  0  0  0
 18 13  2  0  0  0  0
 19  3  1  0  0  0  0
 19 10  2  0  0  0  0
 20 19  1  0  0  0  0
 22 21  2  0  0  0  0
 22 30  1  0  0  0  0
 23 22  1  0  0  0  0
 24 28  1  0  0  0  0
 24 27  1  0  0  0  0
 25 28  2  0  0  0  0
 26 29  1  0  0  0  0
 29 30  2  0  0  0  0
 29 31  1  0  0  0  0
 30 25  1  0  0  0  0
 31 24  2  0  0  0  0
M  END
>  <MODEL>
3

>  <REMARK>
 VINA RESULT:      -8.7      4.035      7.902
  Name = 
  2 active torsions:
  status: ('A' for Active; 'I' for Inactive)
    1  A    between atoms: C_9  and  C_22
    2  A    between atoms: C_15  and  N_23
                            x       y       z     vdW  Elec       q    Type
                         _______ _______ _______ _____ _____    ______ ____

>  <TORSDO>
F 2

$$$$
=
 OpenBabel11052422363D

 31 35  0  0  1  0  0  0  0  0999 V2000
  162.3050  204.8170  145.8330 C   0  0  0  0  0  0  0  0  0  0  0  0
  161.4030  204.8950  149.4950 N   0  0  0  0  0  0  0  0  0  0  0  0
  161.2460  203.5200  149.9230 C   0  0  2  0  0  3  0  0  0  0  0  0
  160.7750  201.1430  149.5250 C   0  0  0  0  0  0  0  0  0  0  0  0
  161.6000  205.2940  148.1150 C   0  0  0  0  0  0  0  0  0  0  0  0
  162.0520  206.1430  145.4710 C   0  0  0  0  0  3  0  0  0  0  0  0
  160.9880  202.5260  149.0660 C   0  0  0  0  0  3  0  0  0  0  0  0
  161.4880  207.3800  150.1160 C   0  0  2  0  0  3  0  0  0  0  0  0
  162.7640  203.9390  144.9100 F   0  0  0  0  0  0  0  0  0  0  0  0
  161.3710  204.2080  152.2220 N   0  0  0  0  0  0  0  0  0  0  0  0
  160.4390  200.1890  148.6240 F   0  0  0  0  0  0  0  0  0  0  0  0
  160.8480  207.6070  148.7460 C   0  0  0  0  0  2  0  0  0  0  0  0
  161.3860  205.9250  150.5140 C   0  0  0  0  0  0  0  0  0  0  0  0
  162.0850  204.3980  147.1470 C   0  0  0  0  0  3  0  0  0  0  0  0
  160.8770  200.8200  150.8170 C   0  0  0  0  0  3  0  0  0  0  0  0
  161.3760  206.6350  147.7430 C   0  0  0  0  0  0  0  0  0  0  0  0
  161.5870  207.0490  146.4250 C   0  0  0  0  0  3  0  0  0  0  0  0
  161.4080  205.5820  151.8100 C   0  0  0  0  0  3  0  0  0  0  0  0
  161.2830  203.2290  151.3740 C   0  0  0  0  0  0  0  0  0  0  0  0
  161.2720  201.8130  151.8770 C   0  0  0  0  0  3  0  0  0  0  0  0
  162.6980  209.6070  151.4080 O   0  0  0  0  0  0  0  0  0  0  0  0
  161.4990  209.3580  151.7060 C   0  0  0  0  0  0  0  0  0  0  0  0
  160.8400  208.2420  151.0990 N   0  0  0  0  0  2  0  0  0  0  0  0
  159.3550  211.9150  154.4200 C   0  0  0  0  0  0  0  0  0  0  0  0
  160.3330  211.4730  152.2560 C   0  0  0  0  0  3  0  0  0  0  0  0
  160.8840  208.4760  154.5620 C   0  0  0  0  0  1  0  0  0  0  0  0
  158.6620  212.7580  155.2760 O   0  0  0  0  0  1  0  0  0  0  0  0
  159.6360  212.3220  153.1170 C   0  0  0  0  0  3  0  0  0  0  0  0
  160.4730  209.8000  154.0090 C   0  0  0  0  0  0  0  0  0  0  0  0
  160.7630  210.2050  152.6800 C   0  0  0  0  0  0  0  0  0  0  0  0
  159.7730  210.6600  154.8620 C   0  0  0  0  0  3  0  0  0  0  0  0
  1 14  1  0  0  0  0
  2  3  1  0  0  0  0
  2 13  1  0  0  0  0
  3  7  1  1  0  0  0
  3 19  1  0  0  0  0
  4 15  1  0  0  0  0
  5  2  1  0  0  0  0
  6  1  2  0  0  0  0
  6 17  1  0  0  0  0
  7  4  2  0  0  0  0
  8 13  1  0  0  0  0
  8 23  1  1  0  0  0
  9  1  1  0  0  0  0
 11  4  1  0  0  0  0
 12  8  1  0  0  0  0
 13 18  2  0  0  0  0
 14  5  2  0  0  0  0
 15 20  2  0  0  0  0
 16  5  1  0  0  0  0
 16 12  1  0  0  0  0
 17 16  2  0  0  0  0
 18 10  1  0  0  0  0
 19 20  1  0  0  0  0
 19 10  2  0  0  0  0
 21 22  2  0  0  0  0
 22 30  1  0  0  0  0
 23 22  1  0  0  0  0
 24 31  1  0  0  0  0
 24 27  1  0  0  0  0
 25 30  2  0  0  0  0
 25 28  1  0  0  0  0
 28 24  2  0  0  0  0
 29 26  1  0  0  0  0
 29 31  2  0  0  0  0
 30 29  1  0  0  0  0
M  END
>  <MODEL>
4

>  <REMARK>
 VINA RESULT:      -8.6      4.060      8.952
  Name = 
  2 active torsions:
  status: ('A' for Active; 'I' for Inactive)
    1  A    between atoms: C_9  and  C_22
    2  A    between atoms: C_15  and  N_23
                            x       y       z     vdW  Elec       q    Type
                         _______ _______ _______ _____ _____    ______ ____

>  <TORSDO>
F 2

$$$$
