=
 OpenBabel11052423003D

 28 32  0  0  1  0  0  0  0  0999 V2000
  160.8480  211.6340  151.0790 C   0  0  0  0  0  0  0  0  0  0  0  0
  162.3580  207.5560  148.8320 C   0  0  0  0  0  3  0  0  0  0  0  0
  160.3690  208.2120  154.4800 C   0  0  0  0  0  2  0  0  0  0  0  0
  161.0310  206.0580  150.4270 C   0  0  1  0  0  3  0  0  0  0  0  0
  162.2970  208.1330  151.2610 C   0  0  1  0  0  3  0  0  0  0  0  0
  160.8920  205.8350  147.8970 C   0  0  2  0  0  3  0  0  0  0  0  0
  161.5340  207.4990  150.0930 C   0  0  1  0  0  3  0  0  0  0  0  0
  161.7060  206.2660  152.8420 C   0  0  0  0  0  2  0  0  0  0  0  0
  160.9880  205.0930  149.2290 C   0  0  0  0  0  2  0  0  0  0  0  0
  160.5250  209.9130  152.7510 C   0  0  0  0  0  0  0  0  0  0  0  0
  162.4280  209.6560  151.1290 C   0  0  0  0  0  2  0  0  0  0  0  0
  161.8250  205.4210  151.5700 C   0  0  0  0  0  2  0  0  0  0  0  0
  159.1310  211.8400  152.7610 C   0  0  0  0  0  3  0  0  0  0  0  0
  160.8790  208.5940  153.3100 C   0  0  0  0  0  0  0  0  0  0  0  0
  159.5060  210.6430  153.2850 N   0  0  0  0  0  0  0  0  0  0  0  0
  160.9330  204.9220  146.8450 O   0  0  0  0  0  1  0  0  0  0  0  0
  162.0460  206.7830  147.7870 C   0  0  0  0  0  3  0  0  0  0  0  0
  161.7210  207.7060  152.5470 N   0  0  0  0  0  0  0  0  0  0  0  0
  159.7930  212.3540  151.6460 C   0  0  0  0  0  3  0  0  0  0  0  0
  161.2190  210.3940  151.6300 C   0  0  0  0  0  0  0  0  0  0  0  0
  161.5350  212.1910  149.8730 C   0  0  0  0  0  2  0  0  0  0  0  0
  160.5440  212.9660  149.0230 C   0  0  1  0  0  3  0  0  0  0  0  0
  161.1640  214.2720  148.5800 C   0  0  0  0  0  2  0  0  0  0  0  0
  161.0990  213.1020  147.6160 C   0  0  2  0  0  3  0  0  0  0  0  0
  160.0040  213.2810  146.6730 N   0  0  0  0  0  0  0  0  0  0  0  0
  158.8990  212.4960  144.7340 N   0  0  0  0  0  2  0  0  0  0  0  0
  159.3240  214.4530  146.6490 O   0  0  0  0  0  1  0  0  0  0  0  0
  159.7980  212.3130  145.6420 C   0  0  0  0  0  3  0  0  0  0  0  0
  1 20  2  0  0  0  0
  1 19  1  0  0  0  0
  4  9  1  6  0  0  0
  4 12  1  0  0  0  0
  5 11  1  6  0  0  0
  5 18  1  0  0  0  0
  6 16  1  6  0  0  0
  6  9  1  0  0  0  0
  7  2  1  6  0  0  0
  7  4  1  0  0  0  0
  7  5  1  0  0  0  0
 10 15  2  0  0  0  0
 10 14  1  0  0  0  0
 11 20  1  0  0  0  0
 12  8  1  0  0  0  0
 13 15  1  0  0  0  0
 14  3  2  0  0  0  0
 17  6  1  0  0  0  0
 17  2  2  0  0  0  0
 18  8  1  0  0  0  0
 18 14  1  0  0  0  0
 19 13  2  0  0  0  0
 20 10  1  0  0  0  0
 21  1  1  0  0  0  0
 22 21  1  1  0  0  0
 23 22  1  0  0  0  0
 24 25  1  6  0  0  0
 24 23  1  0  0  0  0
 24 22  1  0  0  0  0
 26 28  2  0  0  0  0
 27 25  1  0  0  0  0
 28 25  1  0  0  0  0
M  END
>  <MODEL>
1

>  <REMARK>
 VINA RESULT:      -7.4      0.000      0.000
  Name = 
  3 active torsions:
  status: ('A' for Active; 'I' for Inactive)
    1  A    between atoms: C_1  and  C_2
    2  A    between atoms: C_2  and  C_3
    3  A    between atoms: N_6  and  C_11
                            x       y       z     vdW  Elec       q    Type
                         _______ _______ _______ _____ _____    ______ ____

>  <TORSDO>
F 3

$$$$
=
 OpenBabel11052423003D

 28 32  0  0  1  0  0  0  0  0999 V2000
  160.2530  211.6760  152.3980 C   0  0  0  0  0  0  0  0  0  0  0  0
  161.9050  208.1630  149.4160 C   0  0  0  0  0  3  0  0  0  0  0  0
  160.5020  207.7710  155.2610 C   0  0  0  0  0  2  0  0  0  0  0  0
  160.9210  206.3090  150.8800 C   0  0  1  0  0  3  0  0  0  0  0  0
  162.0570  208.3770  151.9000 C   0  0  1  0  0  3  0  0  0  0  0  0
  160.5240  206.4350  148.3710 C   0  0  2  0  0  3  0  0  0  0  0  0
  161.2360  207.8310  150.7250 C   0  0  1  0  0  3  0  0  0  0  0  0
  161.8360  206.2470  153.2230 C   0  0  0  0  0  2  0  0  0  0  0  0
  160.8420  205.5270  149.5570 C   0  0  0  0  0  2  0  0  0  0  0  0
  160.2930  209.7080  153.8080 C   0  0  0  0  0  0  0  0  0  0  0  0
  162.0190  209.9080  151.9920 C   0  0  0  0  0  2  0  0  0  0  0  0
  161.8970  205.6120  151.8300 C   0  0  0  0  0  2  0  0  0  0  0  0
  158.7210  211.4390  154.2470 C   0  0  0  0  0  3  0  0  0  0  0  0
  160.8380  208.3730  154.1210 C   0  0  0  0  0  0  0  0  0  0  0  0
  159.2710  210.2310  154.5420 N   0  0  0  0  0  0  0  0  0  0  0  0
  160.5380  205.6930  147.1910 O   0  0  0  0  0  1  0  0  0  0  0  0
  161.5570  207.5170  148.2980 C   0  0  0  0  0  3  0  0  0  0  0  0
  161.6740  207.7060  153.1530 N   0  0  0  0  0  0  0  0  0  0  0  0
  159.2010  212.1800  153.1670 C   0  0  0  0  0  3  0  0  0  0  0  0
  160.8060  210.4210  152.7130 C   0  0  0  0  0  0  0  0  0  0  0  0
  160.7410  212.4740  151.2330 C   0  0  0  0  0  2  0  0  0  0  0  0
  159.5650  212.9440  150.3950 C   0  0  1  0  0  3  0  0  0  0  0  0
  159.5770  214.4530  150.2980 C   0  0  0  0  0  2  0  0  0  0  0  0
  160.0880  213.6170  149.1390 C   0  0  2  0  0  3  0  0  0  0  0  0
  159.0850  213.5390  148.0860 N   0  0  0  0  0  0  0  0  0  0  0  0
  158.4750  212.6530  145.9790 N   0  0  0  0  0  2  0  0  0  0  0  0
  158.0660  214.4330  148.0640 O   0  0  0  0  0  1  0  0  0  0  0  0
  159.2990  212.6690  146.9730 C   0  0  0  0  0  3  0  0  0  0  0  0
  1 20  2  0  0  0  0
  1 19  1  0  0  0  0
  4  9  1  6  0  0  0
  4 12  1  0  0  0  0
  5 11  1  1  0  0  0
  5 18  1  0  0  0  0
  6 16  1  6  0  0  0
  6  9  1  0  0  0  0
  7  2  1  6  0  0  0
  7  4  1  0  0  0  0
  7  5  1  0  0  0  0
 10 14  1  0  0  0  0
 10 15  2  0  0  0  0
 11 20  1  0  0  0  0
 12  8  1  0  0  0  0
 13 15  1  0  0  0  0
 14  3  2  0  0  0  0
 17  6  1  0  0  0  0
 17  2  2  0  0  0  0
 18  8  1  0  0  0  0
 18 14  1  0  0  0  0
 19 13  2  0  0  0  0
 20 10  1  0  0  0  0
 21  1  1  0  0  0  0
 22 21  1  1  0  0  0
 23 22  1  0  0  0  0
 24 25  1  6  0  0  0
 24 23  1  0  0  0  0
 24 22  1  0  0  0  0
 26 28  2  0  0  0  0
 27 25  1  0  0  0  0
 28 25  1  0  0  0  0
M  END
>  <MODEL>
2

>  <REMARK>
 VINA RESULT:      -7.2      1.100      1.268
  Name = 
  3 active torsions:
  status: ('A' for Active; 'I' for Inactive)
    1  A    between atoms: C_1  and  C_2
    2  A    between atoms: C_2  and  C_3
    3  A    between atoms: N_6  and  C_11
                            x       y       z     vdW  Elec       q    Type
                         _______ _______ _______ _____ _____    ______ ____

>  <TORSDO>
F 3

$$$$
=
 OpenBabel11052423003D

 28 32  0  0  1  0  0  0  0  0999 V2000
  161.0670  205.1340  149.5210 C   0  0  0  0  0  0  0  0  0  0  0  0
  161.2450  206.9630  154.0580 C   0  0  0  0  0  3  0  0  0  0  0  0
  162.1880  209.7990  148.8280 C   0  0  0  0  0  2  0  0  0  0  0  0
  160.8030  209.3440  153.2300 C   0  0  1  0  0  3  0  0  0  0  0  0
  162.3560  207.7380  151.9590 C   0  0  1  0  0  3  0  0  0  0  0  0
  159.4760  208.2780  155.1190 C   0  0  2  0  0  3  0  0  0  0  0  0
  161.1170  207.8610  152.8540 C   0  0  1  0  0  3  0  0  0  0  0  0
  162.5470  210.2280  151.6460 C   0  0  0  0  0  2  0  0  0  0  0  0
  160.1770  209.5400  154.6220 C   0  0  0  0  0  2  0  0  0  0  0  0
  161.5410  207.4820  149.1670 C   0  0  0  0  0  0  0  0  0  0  0  0
  162.4400  206.3850  151.2420 C   0  0  0  0  0  2  0  0  0  0  0  0
  162.0310  210.2470  153.0890 C   0  0  0  0  0  2  0  0  0  0  0  0
  160.3580  206.2560  147.5070 C   0  0  0  0  0  3  0  0  0  0  0  0
  162.0900  208.7610  149.6560 C   0  0  0  0  0  0  0  0  0  0  0  0
  160.9120  207.4110  147.9600 N   0  0  0  0  0  0  0  0  0  0  0  0
  158.9940  208.4840  156.4110 O   0  0  0  0  0  1  0  0  0  0  0  0
  160.4590  207.1480  155.1230 C   0  0  0  0  0  3  0  0  0  0  0  0
  162.4500  208.8900  151.0470 N   0  0  0  0  0  0  0  0  0  0  0  0
  160.4230  205.0980  148.2820 C   0  0  0  0  0  3  0  0  0  0  0  0
  161.6290  206.3400  149.9790 C   0  0  0  0  0  0  0  0  0  0  0  0
  161.1110  203.8890  150.3470 C   0  0  0  0  0  2  0  0  0  0  0  0
  161.6080  202.7250  149.5080 C   0  0  1  0  0  3  0  0  0  0  0  0
  161.1510  201.4210  150.1210 C   0  0  0  0  0  2  0  0  0  0  0  0
  160.4150  201.9910  148.9220 C   0  0  2  0  0  3  0  0  0  0  0  0
  160.8140  201.2990  147.7050 N   0  0  0  0  0  0  0  0  0  0  0  0
  160.6090  201.1280  145.3550 N   0  0  0  0  0  2  0  0  0  0  0  0
  161.4420  200.1010  147.7890 O   0  0  0  0  0  1  0  0  0  0  0  0
  160.3530  201.7780  146.4400 C   0  0  0  0  0  3  0  0  0  0  0  0
  1 20  1  0  0  0  0
  1 21  1  0  0  0  0
  2 17  2  0  0  0  0
  3 14  2  0  0  0  0
  4 12  1  1  0  0  0
  4  9  1  0  0  0  0
  5 11  1  6  0  0  0
  5  7  1  0  0  0  0
  6 17  1  0  0  0  0
  6 16  1  1  0  0  0
  7  4  1  0  0  0  0
  7  2  1  1  0  0  0
  8 12  1  0  0  0  0
  9  6  1  0  0  0  0
 10 14  1  0  0  0  0
 10 20  2  0  0  0  0
 13 15  2  0  0  0  0
 13 19  1  0  0  0  0
 14 18  1  0  0  0  0
 15 10  1  0  0  0  0
 18  8  1  0  0  0  0
 18  5  1  0  0  0  0
 19  1  2  0  0  0  0
 20 11  1  0  0  0  0
 22 23  1  0  0  0  0
 22 21  1  1  0  0  0
 24 25  1  6  0  0  0
 24 22  1  0  0  0  0
 24 23  1  0  0  0  0
 25 27  1  0  0  0  0
 26 28  2  0  0  0  0
 28 25  1  0  0  0  0
M  END
>  <MODEL>
3

>  <REMARK>
 VINA RESULT:      -7.2      3.758      7.930
  Name = 
  3 active torsions:
  status: ('A' for Active; 'I' for Inactive)
    1  A    between atoms: C_1  and  C_2
    2  A    between atoms: C_2  and  C_3
    3  A    between atoms: N_6  and  C_11
                            x       y       z     vdW  Elec       q    Type
                         _______ _______ _______ _____ _____    ______ ____

>  <TORSDO>
F 3

$$$$
=
 OpenBabel11052423003D

 28 32  0  0  1  0  0  0  0  0999 V2000
  159.9140  211.2220  153.1690 C   0  0  0  0  0  0  0  0  0  0  0  0
  161.6990  208.2340  149.7270 C   0  0  0  0  0  3  0  0  0  0  0  0
  160.8650  207.1310  155.5900 C   0  0  0  0  0  2  0  0  0  0  0  0
  161.0700  206.1440  151.0630 C   0  0  1  0  0  3  0  0  0  0  0  0
  162.0410  208.2340  152.2020 C   0  0  1  0  0  3  0  0  0  0  0  0
  160.4430  206.4510  148.6180 C   0  0  2  0  0  3  0  0  0  0  0  0
  161.1900  207.7020  151.0430 C   0  0  1  0  0  3  0  0  0  0  0  0
  162.1860  205.9800  153.3130 C   0  0  0  0  0  2  0  0  0  0  0  0
  160.9670  205.4840  149.6770 C   0  0  0  0  0  2  0  0  0  0  0  0
  160.3060  209.1530  154.3630 C   0  0  0  0  0  0  0  0  0  0  0  0
  161.8330  209.7330  152.4530 C   0  0  0  0  0  2  0  0  0  0  0  0
  162.1990  205.4890  151.8610 C   0  0  0  0  0  2  0  0  0  0  0  0
  158.5880  210.6270  155.0940 C   0  0  0  0  0  3  0  0  0  0  0  0
  161.0280  207.8720  154.4960 C   0  0  0  0  0  0  0  0  0  0  0  0
  159.2980  209.4750  155.2220 N   0  0  0  0  0  0  0  0  0  0  0  0
  160.4420  205.8290  147.3700 O   0  0  0  0  0  1  0  0  0  0  0  0
  161.3340  207.6550  148.5790 C   0  0  0  0  0  3  0  0  0  0  0  0
  161.8490  207.4080  153.4050 N   0  0  0  0  0  0  0  0  0  0  0  0
  158.8820  211.5180  154.0630 C   0  0  0  0  0  3  0  0  0  0  0  0
  160.6350  210.0220  153.3120 C   0  0  0  0  0  0  0  0  0  0  0  0
  160.2030  212.1800  152.0580 C   0  0  0  0  0  2  0  0  0  0  0  0
  159.2260  213.3410  152.1050 C   0  0  1  0  0  3  0  0  0  0  0  0
  159.4840  214.2730  150.9440 C   0  0  0  0  0  2  0  0  0  0  0  0
  158.3320  213.2870  150.8800 C   0  0  2  0  0  3  0  0  0  0  0  0
  157.0710  213.9590  151.1620 N   0  0  0  0  0  0  0  0  0  0  0  0
  155.3810  214.4340  152.7470 N   0  0  0  0  0  2  0  0  0  0  0  0
  156.3140  214.4220  150.1380 O   0  0  0  0  0  1  0  0  0  0  0  0
  156.5420  213.9330  152.4890 C   0  0  0  0  0  3  0  0  0  0  0  0
  1 20  2  0  0  0  0
  1 19  1  0  0  0  0
  4  9  1  6  0  0  0
  4 12  1  0  0  0  0
  5 11  1  1  0  0  0
  5 18  1  0  0  0  0
  6 16  1  6  0  0  0
  6  9  1  0  0  0  0
  7  2  1  6  0  0  0
  7  4  1  0  0  0  0
  7  5  1  0  0  0  0
  8 18  1  0  0  0  0
 10 14  1  0  0  0  0
 10 15  2  0  0  0  0
 11 20  1  0  0  0  0
 12  8  1  0  0  0  0
 13 15  1  0  0  0  0
 14  3  2  0  0  0  0
 17  6  1  0  0  0  0
 17  2  2  0  0  0  0
 18 14  1  0  0  0  0
 19 13  2  0  0  0  0
 20 10  1  0  0  0  0
 21  1  1  0  0  0  0
 22 21  1  6  0  0  0
 23 22  1  0  0  0  0
 24 23  1  0  0  0  0
 24 25  1  1  0  0  0
 24 22  1  0  0  0  0
 25 28  1  0  0  0  0
 27 25  1  0  0  0  0
 28 26  2  0  0  0  0
M  END
>  <MODEL>
4

>  <REMARK>
 VINA RESULT:      -6.3      2.594      3.187
  Name = 
  3 active torsions:
  status: ('A' for Active; 'I' for Inactive)
    1  A    between atoms: C_1  and  C_2
    2  A    between atoms: C_2  and  C_3
    3  A    between atoms: N_6  and  C_11
                            x       y       z     vdW  Elec       q    Type
                         _______ _______ _______ _____ _____    ______ ____

>  <TORSDO>
F 3

$$$$
=
 OpenBabel11052423003D

 28 32  0  0  1  0  0  0  0  0999 V2000
  161.3210  206.3100  152.5380 C   0  0  0  0  0  0  0  0  0  0  0  0
  160.7620  211.0600  153.5830 C   0  0  0  0  0  3  0  0  0  0  0  0
  161.9560  208.5030  148.2610 C   0  0  0  0  0  2  0  0  0  0  0  0
  160.1410  211.6280  151.1660 C   0  0  1  0  0  3  0  0  0  0  0  0
  162.0070  209.9510  151.7220 C   0  0  1  0  0  3  0  0  0  0  0  0
  158.7410  212.3700  153.1560 C   0  0  2  0  0  3  0  0  0  0  0  0
  160.6680  210.5510  152.1670 C   0  0  1  0  0  3  0  0  0  0  0  0
  161.9380  211.1020  149.4850 C   0  0  0  0  0  2  0  0  0  0  0  0
  159.3410  212.7740  151.8110 C   0  0  0  0  0  2  0  0  0  0  0  0
  161.5520  207.3950  150.3850 C   0  0  0  0  0  0  0  0  0  0  0  0
  162.3310  208.6300  152.4310 C   0  0  0  0  0  2  0  0  0  0  0  0
  161.2610  212.2090  150.3010 C   0  0  0  0  0  2  0  0  0  0  0  0
  160.7190  205.1700  150.4990 C   0  0  0  0  0  3  0  0  0  0  0  0
  161.8870  208.5900  149.5880 C   0  0  0  0  0  0  0  0  0  0  0  0
  161.0780  206.2680  149.7830 N   0  0  0  0  0  0  0  0  0  0  0  0
  158.0930  213.4620  153.7310 O   0  0  0  0  0  1  0  0  0  0  0  0
  159.8430  211.9060  154.0580 C   0  0  0  0  0  3  0  0  0  0  0  0
  162.0680  209.8570  150.2550 N   0  0  0  0  0  0  0  0  0  0  0  0
  160.8310  205.1740  151.8890 C   0  0  0  0  0  3  0  0  0  0  0  0
  161.6810  207.4410  151.7820 C   0  0  0  0  0  0  0  0  0  0  0  0
  161.4160  206.3040  154.0290 C   0  0  0  0  0  2  0  0  0  0  0  0
  160.7780  207.5600  154.5960 C   0  0  1  0  0  3  0  0  0  0  0  0
  159.8150  207.1910  155.7010 C   0  0  0  0  0  2  0  0  0  0  0  0
  161.1960  207.7170  156.0470 C   0  0  2  0  0  3  0  0  0  0  0  0
  161.1240  209.1200  156.4300 N   0  0  0  0  0  0  0  0  0  0  0  0
  162.3000  211.0790  157.0440 N   0  0  0  0  0  2  0  0  0  0  0  0
  159.9370  209.6520  156.8090 O   0  0  0  0  0  1  0  0  0  0  0  0
  162.3310  209.8630  156.6100 C   0  0  0  0  0  3  0  0  0  0  0  0
  1 21  1  0  0  0  0
  2 17  2  0  0  0  0
  3 14  2  0  0  0  0
  4 12  1  1  0  0  0
  4  9  1  0  0  0  0
  4  7  1  0  0  0  0
  5  7  1  0  0  0  0
  5 11  1  1  0  0  0
  6 16  1  1  0  0  0
  6 17  1  0  0  0  0
  7  2  1  1  0  0  0
  8 18  1  0  0  0  0
  8 12  1  0  0  0  0
  9  6  1  0  0  0  0
 10 20  1  0  0  0  0
 13 19  2  0  0  0  0
 14 18  1  0  0  0  0
 14 10  1  0  0  0  0
 15 10  2  0  0  0  0
 15 13  1  0  0  0  0
 18  5  1  0  0  0  0
 19  1  1  0  0  0  0
 20 11  1  0  0  0  0
 20  1  2  0  0  0  0
 22 21  1  6  0  0  0
 22 23  1  0  0  0  0
 22 24  1  0  0  0  0
 23 24  1  0  0  0  0
 24 25  1  1  0  0  0
 25 28  1  0  0  0  0
 25 27  1  0  0  0  0
 28 26  2  0  0  0  0
M  END
>  <MODEL>
5

>  <REMARK>
 VINA RESULT:      -6.2      3.481      7.621
  Name = 
  3 active torsions:
  status: ('A' for Active; 'I' for Inactive)
    1  A    between atoms: C_1  and  C_2
    2  A    between atoms: C_2  and  C_3
    3  A    between atoms: N_6  and  C_11
                            x       y       z     vdW  Elec       q    Type
                         _______ _______ _______ _____ _____    ______ ____

>  <TORSDO>
F 3

$$$$
=
 OpenBabel11052423003D

 28 32  0  0  1  0  0  0  0  0999 V2000
  161.6000  210.5240  151.0200 C   0  0  0  0  0  0  0  0  0  0  0  0
  162.4320  206.9410  147.7900 C   0  0  0  0  0  3  0  0  0  0  0  0
  160.4800  206.4930  153.4710 C   0  0  0  0  0  2  0  0  0  0  0  0
  160.8400  205.3400  148.9940 C   0  0  1  0  0  3  0  0  0  0  0  0
  162.4260  206.8950  150.2880 C   0  0  1  0  0  3  0  0  0  0  0  0
  160.7110  205.7830  146.4930 C   0  0  2  0  0  3  0  0  0  0  0  0
  161.5880  206.7110  149.0170 C   0  0  1  0  0  3  0  0  0  0  0  0
  161.4950  204.8200  151.3670 C   0  0  0  0  0  2  0  0  0  0  0  0
  160.6550  204.7270  147.5950 C   0  0  0  0  0  2  0  0  0  0  0  0
  160.9570  208.5200  152.2180 C   0  0  0  0  0  0  0  0  0  0  0  0
  162.8180  208.3570  150.5360 C   0  0  0  0  0  2  0  0  0  0  0  0
  161.4910  204.3120  149.9220 C   0  0  0  0  0  2  0  0  0  0  0  0
  159.9130  210.5920  152.7420 C   0  0  0  0  0  3  0  0  0  0  0  0
  161.0700  207.0630  152.4210 C   0  0  0  0  0  0  0  0  0  0  0  0
  160.0680  209.2560  152.9420 N   0  0  0  0  0  0  0  0  0  0  0  0
  160.6150  205.1690  145.2450 O   0  0  0  0  0  1  0  0  0  0  0  0
  162.0120  206.5180  146.5930 C   0  0  0  0  0  3  0  0  0  0  0  0
  161.7620  206.2640  151.4400 N   0  0  0  0  0  0  0  0  0  0  0  0
  160.6740  211.2470  151.7750 C   0  0  0  0  0  3  0  0  0  0  0  0
  161.7440  209.1400  151.2350 C   0  0  0  0  0  0  0  0  0  0  0  0
  162.3940  211.2380  149.9750 C   0  0  0  0  0  2  0  0  0  0  0  0
  161.5070  211.5750  148.7880 C   0  0  1  0  0  3  0  0  0  0  0  0
  160.9620  212.9770  148.9390 C   0  0  0  0  0  2  0  0  0  0  0  0
  162.1340  212.7170  148.0100 C   0  0  2  0  0  3  0  0  0  0  0  0
  161.6840  212.6720  146.6260 N   0  0  0  0  0  0  0  0  0  0  0  0
  162.2240  212.9980  144.3460 N   0  0  0  0  0  2  0  0  0  0  0  0
  160.3590  212.5870  146.3530 O   0  0  0  0  0  1  0  0  0  0  0  0
  162.6150  212.9340  145.5740 C   0  0  0  0  0  3  0  0  0  0  0  0
  1 20  2  0  0  0  0
  1 19  1  0  0  0  0
  4  9  1  6  0  0  0
  4  7  1  0  0  0  0
  4 12  1  0  0  0  0
  5 11  1  1  0  0  0
  5 18  1  0  0  0  0
  6 16  1  6  0  0  0
  6 17  1  0  0  0  0
  6  9  1  0  0  0  0
  7  2  1  6  0  0  0
  7  5  1  0  0  0  0
  8 18  1  0  0  0  0
 10 14  1  0  0  0  0
 10 15  2  0  0  0  0
 11 20  1  0  0  0  0
 12  8  1  0  0  0  0
 13 15  1  0  0  0  0
 14  3  2  0  0  0  0
 17  2  2  0  0  0  0
 18 14  1  0  0  0  0
 19 13  2  0  0  0  0
 20 10  1  0  0  0  0
 21  1  1  0  0  0  0
 22 23  1  0  0  0  0
 22 21  1  1  0  0  0
 24 25  1  6  0  0  0
 24 22  1  0  0  0  0
 24 23  1  0  0  0  0
 26 28  2  0  0  0  0
 27 25  1  0  0  0  0
 28 25  1  0  0  0  0
M  END
>  <MODEL>
6

>  <REMARK>
 VINA RESULT:      -6.1      1.493      1.760
  Name = 
  3 active torsions:
  status: ('A' for Active; 'I' for Inactive)
    1  A    between atoms: C_1  and  C_2
    2  A    between atoms: C_2  and  C_3
    3  A    between atoms: N_6  and  C_11
                            x       y       z     vdW  Elec       q    Type
                         _______ _______ _______ _____ _____    ______ ____

>  <TORSDO>
F 3

$$$$
=
 OpenBabel11052423003D

 28 32  0  0  1  0  0  0  0  0999 V2000
  157.3660  213.7380  152.4770 C   0  0  0  0  0  0  0  0  0  0  0  0
  161.1740  210.7030  151.9820 C   0  0  0  0  0  3  0  0  0  0  0  0
  157.6810  211.5840  156.8090 C   0  0  0  0  0  2  0  0  0  0  0  0
  160.3480  209.1860  153.8700 C   0  0  1  0  0  3  0  0  0  0  0  0
  160.1970  211.7460  154.0300 C   0  0  1  0  0  3  0  0  0  0  0  0
  161.0160  208.2940  151.5840 C   0  0  2  0  0  3  0  0  0  0  0  0
  160.1730  210.5310  153.0960 C   0  0  1  0  0  3  0  0  0  0  0  0
  160.1660  210.3250  156.1060 C   0  0  0  0  0  2  0  0  0  0  0  0
  161.0920  208.0850  153.0940 C   0  0  0  0  0  2  0  0  0  0  0  0
  157.4660  212.6010  154.6130 C   0  0  0  0  0  0  0  0  0  0  0  0
  159.6170  213.0090  153.3790 C   0  0  0  0  0  2  0  0  0  0  0  0
  161.0090  209.3880  155.2350 C   0  0  0  0  0  2  0  0  0  0  0  0
  155.3790  213.4040  153.8030 C   0  0  0  0  0  3  0  0  0  0  0  0
  158.2400  211.8710  155.6350 C   0  0  0  0  0  0  0  0  0  0  0  0
  156.1220  212.7750  154.7520 N   0  0  0  0  0  0  0  0  0  0  0  0
  161.7670  207.3160  150.9330 O   0  0  0  0  0  1  0  0  0  0  0  0
  161.5610  209.6500  151.2550 C   0  0  0  0  0  3  0  0  0  0  0  0
  159.5730  211.4160  155.3220 N   0  0  0  0  0  0  0  0  0  0  0  0
  155.9880  213.8930  152.6480 C   0  0  0  0  0  3  0  0  0  0  0  0
  158.1200  213.0780  153.4660 C   0  0  0  0  0  0  0  0  0  0  0  0
  158.0000  214.2510  151.2250 C   0  0  0  0  0  2  0  0  0  0  0  0
  157.7600  213.2770  150.0840 C   0  0  1  0  0  3  0  0  0  0  0  0
  156.5710  213.7300  149.2670 C   0  0  0  0  0  2  0  0  0  0  0  0
  157.9790  213.9960  148.7650 C   0  0  2  0  0  3  0  0  0  0  0  0
  158.3420  213.0310  147.7360 N   0  0  0  0  0  0  0  0  0  0  0  0
  160.0180  212.2030  146.2870 N   0  0  0  0  0  2  0  0  0  0  0  0
  157.3700  212.3410  147.0910 O   0  0  0  0  0  1  0  0  0  0  0  0
  159.6900  212.9780  147.2660 C   0  0  0  0  0  3  0  0  0  0  0  0
  1 19  2  0  0  0  0
  1 20  1  0  0  0  0
  4  9  1  6  0  0  0
  4 12  1  0  0  0  0
  5 11  1  6  0  0  0
  5 18  1  0  0  0  0
  6 16  1  6  0  0  0
  6  9  1  0  0  0  0
  7  2  1  6  0  0  0
  7  4  1  0  0  0  0
  7  5  1  0  0  0  0
 10 15  1  0  0  0  0
 10 14  1  0  0  0  0
 11 20  1  0  0  0  0
 12  8  1  0  0  0  0
 13 15  2  0  0  0  0
 14  3  2  0  0  0  0
 17  6  1  0  0  0  0
 17  2  2  0  0  0  0
 18 14  1  0  0  0  0
 18  8  1  0  0  0  0
 19 13  1  0  0  0  0
 20 10  2  0  0  0  0
 21  1  1  0  0  0  0
 22 21  1  1  0  0  0
 23 22  1  0  0  0  0
 24 25  1  6  0  0  0
 24 23  1  0  0  0  0
 24 22  1  0  0  0  0
 26 28  2  0  0  0  0
 27 25  1  0  0  0  0
 28 25  1  0  0  0  0
M  END
>  <MODEL>
7

>  <REMARK>
 VINA RESULT:      -5.8      2.641      4.331
  Name = 
  3 active torsions:
  status: ('A' for Active; 'I' for Inactive)
    1  A    between atoms: C_1  and  C_2
    2  A    between atoms: C_2  and  C_3
    3  A    between atoms: N_6  and  C_11
                            x       y       z     vdW  Elec       q    Type
                         _______ _______ _______ _____ _____    ______ ____

>  <TORSDO>
F 3

$$$$
=
 OpenBabel11052423003D

 28 32  0  0  1  0  0  0  0  0999 V2000
  162.0850  207.4330  150.7010 C   0  0  0  0  0  0  0  0  0  0  0  0
  160.2310  210.8020  153.7300 C   0  0  0  0  0  3  0  0  0  0  0  0
  161.5810  211.3470  147.8850 C   0  0  0  0  0  2  0  0  0  0  0  0
  159.2190  212.1390  151.7970 C   0  0  1  0  0  3  0  0  0  0  0  0
  161.5520  211.0730  151.6270 C   0  0  1  0  0  3  0  0  0  0  0  0
  157.8750  211.4530  153.8440 C   0  0  2  0  0  3  0  0  0  0  0  0
  160.1480  210.9610  152.2330 C   0  0  1  0  0  3  0  0  0  0  0  0
  160.9070  212.9970  150.1390 C   0  0  0  0  0  2  0  0  0  0  0  0
  158.1820  212.5700  152.8480 C   0  0  0  0  0  2  0  0  0  0  0  0
  161.7530  209.3590  149.2720 C   0  0  0  0  0  0  0  0  0  0  0  0
  162.3310  209.7530  151.6860 C   0  0  0  0  0  2  0  0  0  0  0  0
  160.0160  213.3600  151.3320 C   0  0  0  0  0  2  0  0  0  0  0  0
  161.6470  207.1720  148.3430 C   0  0  0  0  0  3  0  0  0  0  0  0
  161.6270  210.8200  149.1070 C   0  0  0  0  0  0  0  0  0  0  0  0
  161.5810  208.5230  148.2100 N   0  0  0  0  0  0  0  0  0  0  0  0
  156.9910  211.9180  154.8160 O   0  0  0  0  0  1  0  0  0  0  0  0
  159.1530  211.0170  154.4910 C   0  0  0  0  0  3  0  0  0  0  0  0
  161.4860  211.6530  150.2760 N   0  0  0  0  0  0  0  0  0  0  0  0
  161.8960  206.6040  149.5920 C   0  0  0  0  0  3  0  0  0  0  0  0
  162.0060  208.8300  150.5470 C   0  0  0  0  0  0  0  0  0  0  0  0
  162.3310  206.8070  152.0360 C   0  0  0  0  0  2  0  0  0  0  0  0
  161.1990  207.1500  152.9880 C   0  0  1  0  0  3  0  0  0  0  0  0
  160.6410  205.8820  153.5950 C   0  0  0  0  0  2  0  0  0  0  0  0
  161.5970  206.7470  154.3960 C   0  0  2  0  0  3  0  0  0  0  0  0
  160.8640  207.5530  155.3630 N   0  0  0  0  0  0  0  0  0  0  0  0
  160.9640  209.1480  157.1070 N   0  0  0  0  0  2  0  0  0  0  0  0
  159.5670  207.2670  155.6290 O   0  0  0  0  0  1  0  0  0  0  0  0
  161.5710  208.4920  156.1750 C   0  0  0  0  0  3  0  0  0  0  0  0
  1 21  1  0  0  0  0
  2 17  2  0  0  0  0
  3 14  2  0  0  0  0
  4 12  1  1  0  0  0
  4  7  1  0  0  0  0
  4  9  1  0  0  0  0
  5 11  1  6  0  0  0
  5  7  1  0  0  0  0
  6 17  1  0  0  0  0
  6 16  1  1  0  0  0
  7  2  1  1  0  0  0
  8 18  1  0  0  0  0
  8 12  1  0  0  0  0
  9  6  1  0  0  0  0
 10 20  2  0  0  0  0
 13 19  1  0  0  0  0
 14 10  1  0  0  0  0
 14 18  1  0  0  0  0
 15 13  2  0  0  0  0
 15 10  1  0  0  0  0
 18  5  1  0  0  0  0
 19  1  2  0  0  0  0
 20  1  1  0  0  0  0
 20 11  1  0  0  0  0
 22 21  1  6  0  0  0
 22 23  1  0  0  0  0
 22 24  1  0  0  0  0
 23 24  1  0  0  0  0
 24 25  1  1  0  0  0
 25 27  1  0  0  0  0
 25 28  1  0  0  0  0
 28 26  2  0  0  0  0
M  END
>  <MODEL>
8

>  <REMARK>
 VINA RESULT:      -5.4      3.178      7.669
  Name = 
  3 active torsions:
  status: ('A' for Active; 'I' for Inactive)
    1  A    between atoms: C_1  and  C_2
    2  A    between atoms: C_2  and  C_3
    3  A    between atoms: N_6  and  C_11
                            x       y       z     vdW  Elec       q    Type
                         _______ _______ _______ _____ _____    ______ ____

>  <TORSDO>
F 3

$$$$
=
 OpenBabel11052423003D

 28 32  0  0  1  0  0  0  0  0999 V2000
  161.2960  205.7880  150.3060 C   0  0  0  0  0  0  0  0  0  0  0  0
  160.6550  208.9180  154.0150 C   0  0  0  0  0  3  0  0  0  0  0  0
  161.9560  210.1330  148.2600 C   0  0  0  0  0  2  0  0  0  0  0  0
  160.0570  210.8380  152.4320 C   0  0  1  0  0  3  0  0  0  0  0  0
  161.9400  209.1750  151.8880 C   0  0  1  0  0  3  0  0  0  0  0  0
  158.6210  210.2100  154.4350 C   0  0  2  0  0  3  0  0  0  0  0  0
  160.5870  209.3750  152.5800 C   0  0  1  0  0  3  0  0  0  0  0  0
  161.8840  211.4500  150.8130 C   0  0  0  0  0  2  0  0  0  0  0  0
  159.2320  211.3510  153.6250 C   0  0  0  0  0  2  0  0  0  0  0  0
  161.5400  207.9590  149.2640 C   0  0  0  0  0  0  0  0  0  0  0  0
  162.2740  207.6960  151.6530 C   0  0  0  0  0  2  0  0  0  0  0  0
  161.1810  211.8290  152.1210 C   0  0  0  0  0  2  0  0  0  0  0  0
  160.7380  206.1220  147.9830 C   0  0  0  0  0  3  0  0  0  0  0  0
  161.8690  209.3940  149.3650 C   0  0  0  0  0  0  0  0  0  0  0  0
  161.0910  207.4300  148.0910 N   0  0  0  0  0  0  0  0  0  0  0  0
  157.9500  210.7250  155.5430 O   0  0  0  0  0  1  0  0  0  0  0  0
  159.7170  209.2970  154.8890 C   0  0  0  0  0  3  0  0  0  0  0  0
  162.0220  209.9940  150.6680 N   0  0  0  0  0  0  0  0  0  0  0  0
  160.8320  205.2790  149.0910 C   0  0  0  0  0  3  0  0  0  0  0  0
  161.6500  207.1460  150.4030 C   0  0  0  0  0  0  0  0  0  0  0  0
  161.3720  204.8750  151.4880 C   0  0  0  0  0  2  0  0  0  0  0  0
  161.7590  203.4770  151.0410 C   0  0  1  0  0  3  0  0  0  0  0  0
  161.1760  202.4560  151.9920 C   0  0  0  0  0  2  0  0  0  0  0  0
  160.5050  202.7140  150.6550 C   0  0  2  0  0  3  0  0  0  0  0  0
  160.8430  201.6630  149.7060 N   0  0  0  0  0  0  0  0  0  0  0  0
  161.0290  201.0120  147.4390 N   0  0  0  0  0  2  0  0  0  0  0  0
  160.9630  200.3840  150.1360 O   0  0  0  0  0  1  0  0  0  0  0  0
  160.8310  201.9490  148.3060 C   0  0  0  0  0  3  0  0  0  0  0  0
  1 20  1  0  0  0  0
  1 21  1  0  0  0  0
  2 17  2  0  0  0  0
  3 14  2  0  0  0  0
  4 12  1  1  0  0  0
  4  7  1  0  0  0  0
  4  9  1  0  0  0  0
  5 11  1  6  0  0  0
  5  7  1  0  0  0  0
  6 17  1  0  0  0  0
  6 16  1  1  0  0  0
  7  2  1  1  0  0  0
  8 12  1  0  0  0  0
  9  6  1  0  0  0  0
 10 14  1  0  0  0  0
 10 20  2  0  0  0  0
 13 15  2  0  0  0  0
 13 19  1  0  0  0  0
 14 18  1  0  0  0  0
 15 10  1  0  0  0  0
 18  8  1  0  0  0  0
 18  5  1  0  0  0  0
 19  1  2  0  0  0  0
 20 11  1  0  0  0  0
 22 21  1  1  0  0  0
 22 23  1  0  0  0  0
 24 25  1  6  0  0  0
 24 22  1  0  0  0  0
 24 23  1  0  0  0  0
 25 27  1  0  0  0  0
 26 28  2  0  0  0  0
 28 25  1  0  0  0  0
M  END
>  <MODEL>
9

>  <REMARK>
 VINA RESULT:      -5.2      3.440      7.986
  Name = 
  3 active torsions:
  status: ('A' for Active; 'I' for Inactive)
    1  A    between atoms: C_1  and  C_2
    2  A    between atoms: C_2  and  C_3
    3  A    between atoms: N_6  and  C_11
                            x       y       z     vdW  Elec       q    Type
                         _______ _______ _______ _____ _____    ______ ____

>  <TORSDO>
F 3

$$$$
