=
 OpenBabel11052423063D

 27 31  0  0  1  0  0  0  0  0999 V2000
  161.1860  209.6160  150.7440 N   0  0  2  0  0  0  0  0  0  0  0  0
  162.4330  208.4700  149.2750 C   0  0  1  0  0  3  0  0  0  0  0  0
  161.0950  208.2170  151.1470 C   0  0  1  0  0  3  0  0  0  0  0  0
  161.5000  204.4060  147.4870 C   0  0  0  0  0  3  0  0  0  0  0  0
  160.5100  202.8040  149.1200 C   0  0  0  0  0  1  0  0  0  0  0  0
  162.6240  207.9510  147.9560 N   0  0  0  0  0  2  0  0  0  0  0  0
  161.2010  205.1450  149.8010 C   0  0  0  0  0  0  0  0  0  0  0  0
  160.7750  204.8910  151.2080 C   0  0  0  0  0  1  0  0  0  0  0  0
  161.7490  206.3770  149.4250 C   0  0  0  0  0  0  0  0  0  0  0  0
  161.9770  209.6800  149.5560 C   0  0  1  0  0  3  0  0  0  0  0  0
  161.0790  204.1470  148.8070 C   0  0  0  0  0  0  0  0  0  0  0  0
  162.0430  205.6520  147.1360 C   0  0  0  0  0  3  0  0  0  0  0  0
  161.4270  210.5150  151.8570 C   0  0  0  0  0  2  0  0  0  0  0  0
  161.9980  207.5220  150.2350 N   0  0  0  0  0  0  0  0  0  0  0  0
  162.1620  206.6160  148.1310 C   0  0  0  0  0  0  0  0  0  0  0  0
  161.4390  209.6410  153.1000 C   0  0  2  0  0  3  0  0  0  0  0  0
  161.6380  208.2080  152.5650 C   0  0  1  0  0  3  0  0  0  0  0  0
  162.0900  213.1200  147.0000 C   0  0  0  0  0  3  0  0  0  0  0  0
  162.0290  210.8650  148.6700 C   0  0  0  0  0  0  0  0  0  0  0  0
  163.1910  211.6440  148.5690 C   0  0  0  0  0  3  0  0  0  0  0  0
  163.2230  212.7660  147.7360 C   0  0  0  0  0  3  0  0  0  0  0  0
  160.9260  212.3540  147.0970 C   0  0  0  0  0  3  0  0  0  0  0  0
  160.8960  211.2310  147.9290 C   0  0  0  0  0  3  0  0  0  0  0  0
  162.0210  206.3130  153.9690 O   0  0  0  0  0  1  0  0  0  0  0  0
  161.0170  207.1050  153.4130 C   0  0  0  0  0  2  0  0  0  0  0  0
  159.4630  210.9740  153.3220 O   0  0  0  0  0  1  0  0  0  0  0  0
  160.1100  209.8440  153.8220 C   0  0  0  0  0  2  0  0  0  0  0  0
  1  3  1  0  0  0  0
  1 13  1  1  0  0  0
  2  6  1  6  0  0  0
  2 10  1  0  0  0  0
  2 14  1  0  0  0  0
  3 14  1  6  0  0  0
  3 17  1  0  0  0  0
  4 11  1  0  0  0  0
  6 15  1  0  0  0  0
  7  8  1  0  0  0  0
  9  7  1  0  0  0  0
  9 14  1  0  0  0  0
 10 19  1  6  0  0  0
 10  1  1  0  0  0  0
 11  5  1  0  0  0  0
 11  7  2  0  0  0  0
 12  4  2  0  0  0  0
 12 15  1  0  0  0  0
 13 16  1  0  0  0  0
 15  9  2  0  0  0  0
 16 27  1  6  0  0  0
 17 16  1  0  0  0  0
 17 25  1  1  0  0  0
 18 22  2  0  0  0  0
 18 21  1  0  0  0  0
 20 19  1  0  0  0  0
 21 20  2  0  0  0  0
 22 23  1  0  0  0  0
 23 19  2  0  0  0  0
 25 24  1  0  0  0  0
 26 27  1  0  0  0  0
M  END
>  <MODEL>
1

>  <REMARK>
 VINA RESULT:      -7.3      0.000      0.000
  Name = 
  3 active torsions:
  status: ('A' for Active; 'I' for Inactive)
    1  A    between atoms: C_9  and  C_15
    2  A    between atoms: C_20  and  C_26
    3  A    between atoms: C_22  and  C_24
                            x       y       z     vdW  Elec       q    Type
                         _______ _______ _______ _____ _____    ______ ____

>  <TORSDO>
F 3

$$$$
=
 OpenBabel11052423063D

 27 31  0  0  1  0  0  0  0  0999 V2000
  160.8950  210.1320  151.6280 N   0  0  2  0  0  0  0  0  0  0  0  0
  162.1840  209.1700  150.0670 C   0  0  1  0  0  3  0  0  0  0  0  0
  160.8960  208.7060  151.9340 C   0  0  1  0  0  3  0  0  0  0  0  0
  161.4710  205.1890  148.0110 C   0  0  0  0  0  3  0  0  0  0  0  0
  160.6080  203.4200  149.5410 C   0  0  0  0  0  1  0  0  0  0  0  0
  162.3840  208.7560  148.7130 N   0  0  0  0  0  2  0  0  0  0  0  0
  161.1660  205.7460  150.3750 C   0  0  0  0  0  0  0  0  0  0  0  0
  160.7800  205.3700  151.7660 C   0  0  0  0  0  1  0  0  0  0  0  0
  161.6310  207.0330  150.0790 C   0  0  0  0  0  0  0  0  0  0  0  0
  161.6600  210.3270  150.4380 C   0  0  1  0  0  3  0  0  0  0  0  0
  161.0890  204.8140  149.3150 C   0  0  0  0  0  0  0  0  0  0  0  0
  161.9310  206.4870  147.7410 C   0  0  0  0  0  3  0  0  0  0  0  0
  161.0990  210.9650  152.7980 C   0  0  0  0  0  2  0  0  0  0  0  0
  161.8240  208.1330  150.9640 N   0  0  0  0  0  0  0  0  0  0  0  0
  162.0080  207.3860  148.8000 C   0  0  0  0  0  0  0  0  0  0  0  0
  161.1850  210.0100  153.9770 C   0  0  2  0  0  3  0  0  0  0  0  0
  161.4620  208.6320  153.3400 C   0  0  1  0  0  3  0  0  0  0  0  0
  161.5660  213.9090  148.0830 C   0  0  0  0  0  3  0  0  0  0  0  0
  161.6240  211.5710  149.6360 C   0  0  0  0  0  0  0  0  0  0  0  0
  160.6470  212.5520  149.8630 C   0  0  0  0  0  3  0  0  0  0  0  0
  160.6190  213.7170  149.0910 C   0  0  0  0  0  3  0  0  0  0  0  0
  162.5410  212.9360  147.8460 C   0  0  0  0  0  3  0  0  0  0  0  0
  162.5690  211.7720  148.6190 C   0  0  0  0  0  3  0  0  0  0  0  0
  161.5400  207.3680  155.3660 O   0  0  0  0  0  1  0  0  0  0  0  0
  160.9230  207.4380  154.1170 C   0  0  0  0  0  2  0  0  0  0  0  0
  159.1500  211.2180  154.3410 O   0  0  0  0  0  1  0  0  0  0  0  0
  159.8580  210.0800  154.7280 C   0  0  0  0  0  2  0  0  0  0  0  0
  1  3  1  0  0  0  0
  1 13  1  1  0  0  0
  2  6  1  6  0  0  0
  2 10  1  0  0  0  0
  2 14  1  0  0  0  0
  3 14  1  6  0  0  0
  3 17  1  0  0  0  0
  4 11  1  0  0  0  0
  6 15  1  0  0  0  0
  7  8  1  0  0  0  0
  9  7  1  0  0  0  0
  9 14  1  0  0  0  0
 10 19  1  6  0  0  0
 10  1  1  0  0  0  0
 11  5  1  0  0  0  0
 11  7  2  0  0  0  0
 12  4  2  0  0  0  0
 12 15  1  0  0  0  0
 13 16  1  0  0  0  0
 15  9  2  0  0  0  0
 16 27  1  6  0  0  0
 17 16  1  0  0  0  0
 17 25  1  1  0  0  0
 18 21  1  0  0  0  0
 19 20  1  0  0  0  0
 21 20  2  0  0  0  0
 22 18  2  0  0  0  0
 22 23  1  0  0  0  0
 23 19  2  0  0  0  0
 25 24  1  0  0  0  0
 26 27  1  0  0  0  0
M  END
>  <MODEL>
2

>  <REMARK>
 VINA RESULT:      -7.2      1.161      1.379
  Name = 
  3 active torsions:
  status: ('A' for Active; 'I' for Inactive)
    1  A    between atoms: C_9  and  C_15
    2  A    between atoms: C_20  and  C_26
    3  A    between atoms: C_22  and  C_24
                            x       y       z     vdW  Elec       q    Type
                         _______ _______ _______ _____ _____    ______ ____

>  <TORSDO>
F 3

$$$$
=
 OpenBabel11052423063D

 27 31  0  0  1  0  0  0  0  0999 V2000
  160.7470  210.1990  152.1040 N   0  0  2  0  0  0  0  0  0  0  0  0
  162.0020  209.2130  150.5310 C   0  0  1  0  0  3  0  0  0  0  0  0
  160.8010  208.7860  152.4630 C   0  0  1  0  0  3  0  0  0  0  0  0
  161.3250  205.1380  148.6540 C   0  0  0  0  0  3  0  0  0  0  0  0
  160.5730  203.4060  150.2820 C   0  0  0  0  0  1  0  0  0  0  0  0
  162.1620  208.7530  149.1860 N   0  0  0  0  0  2  0  0  0  0  0  0
  161.0950  205.7770  151.0060 C   0  0  0  0  0  0  0  0  0  0  0  0
  160.7750  205.4440  152.4240 C   0  0  0  0  0  1  0  0  0  0  0  0
  161.5120  207.0640  150.6440 C   0  0  0  0  0  0  0  0  0  0  0  0
  161.4600  210.3690  150.8780 C   0  0  1  0  0  3  0  0  0  0  0  0
  161.0040  204.8020  149.9850 C   0  0  0  0  0  0  0  0  0  0  0  0
  161.7370  206.4370  148.3180 C   0  0  0  0  0  3  0  0  0  0  0  0
  160.9720  211.0810  153.2340 C   0  0  0  0  0  2  0  0  0  0  0  0
  161.7070  208.2010  151.4790 N   0  0  0  0  0  0  0  0  0  0  0  0
  161.8280  207.3770  149.3390 C   0  0  0  0  0  0  0  0  0  0  0  0
  161.1310  210.1750  154.4430 C   0  0  2  0  0  3  0  0  0  0  0  0
  161.4230  208.7820  153.8480 C   0  0  1  0  0  3  0  0  0  0  0  0
  161.1580  213.8970  148.4610 C   0  0  0  0  0  3  0  0  0  0  0  0
  161.3580  211.5790  150.0330 C   0  0  0  0  0  0  0  0  0  0  0  0
  162.2030  211.7650  148.9280 C   0  0  0  0  0  3  0  0  0  0  0  0
  162.1040  212.9180  148.1450 C   0  0  0  0  0  3  0  0  0  0  0  0
  160.3150  213.7230  149.5610 C   0  0  0  0  0  3  0  0  0  0  0  0
  160.4150  212.5700  150.3440 C   0  0  0  0  0  3  0  0  0  0  0  0
  161.5840  207.6230  155.9310 O   0  0  0  0  0  1  0  0  0  0  0  0
  160.9490  207.6030  154.6890 C   0  0  0  0  0  2  0  0  0  0  0  0
  159.0780  211.3400  154.8420 O   0  0  0  0  0  1  0  0  0  0  0  0
  159.8330  210.2370  155.2430 C   0  0  0  0  0  2  0  0  0  0  0  0
  1  3  1  0  0  0  0
  1 13  1  1  0  0  0
  2  6  1  6  0  0  0
  2 10  1  0  0  0  0
  2 14  1  0  0  0  0
  3 14  1  6  0  0  0
  3 17  1  0  0  0  0
  4 11  1  0  0  0  0
  6 15  1  0  0  0  0
  7  8  1  0  0  0  0
  9  7  1  0  0  0  0
  9 14  1  0  0  0  0
 10 19  1  6  0  0  0
 10  1  1  0  0  0  0
 11  5  1  0  0  0  0
 11  7  2  0  0  0  0
 12  4  2  0  0  0  0
 12 15  1  0  0  0  0
 13 16  1  0  0  0  0
 15  9  2  0  0  0  0
 16 27  1  6  0  0  0
 17 16  1  0  0  0  0
 17 25  1  1  0  0  0
 18 22  1  0  0  0  0
 19 23  1  0  0  0  0
 20 19  2  0  0  0  0
 21 18  2  0  0  0  0
 21 20  1  0  0  0  0
 22 23  2  0  0  0  0
 25 24  1  0  0  0  0
 26 27  1  0  0  0  0
M  END
>  <MODEL>
3

>  <REMARK>
 VINA RESULT:      -6.9      1.502      1.649
  Name = 
  3 active torsions:
  status: ('A' for Active; 'I' for Inactive)
    1  A    between atoms: C_9  and  C_15
    2  A    between atoms: C_20  and  C_26
    3  A    between atoms: C_22  and  C_24
                            x       y       z     vdW  Elec       q    Type
                         _______ _______ _______ _____ _____    ______ ____

>  <TORSDO>
F 3

$$$$
=
 OpenBabel11052423063D

 27 31  0  0  1  0  0  0  0  0999 V2000
  161.2340  207.4300  150.5760 N   0  0  2  0  0  0  0  0  0  0  0  0
  161.6430  206.6360  152.6320 C   0  0  1  0  0  3  0  0  0  0  0  0
  161.2050  208.5860  151.4650 C   0  0  1  0  0  3  0  0  0  0  0  0
  159.7060  207.9720  156.5110 C   0  0  0  0  0  3  0  0  0  0  0  0
  159.3690  210.4380  156.6560 C   0  0  0  0  0  1  0  0  0  0  0  0
  161.2150  205.8960  153.7790 N   0  0  0  0  0  2  0  0  0  0  0  0
  160.4750  209.3610  154.6480 C   0  0  0  0  0  0  0  0  0  0  0  0
  160.6640  210.6930  154.0030 C   0  0  0  0  0  1  0  0  0  0  0  0
  160.9140  208.1880  154.0210 C   0  0  0  0  0  0  0  0  0  0  0  0
  161.4510  206.2660  151.3760 C   0  0  1  0  0  3  0  0  0  0  0  0
  159.8620  209.2400  155.9160 C   0  0  0  0  0  0  0  0  0  0  0  0
  160.1520  206.8120  155.8590 C   0  0  0  0  0  3  0  0  0  0  0  0
  161.9960  207.6630  149.3640 C   0  0  0  0  0  2  0  0  0  0  0  0
  161.5760  208.0450  152.7690 N   0  0  0  0  0  0  0  0  0  0  0  0
  160.7600  206.9530  154.6170 C   0  0  0  0  0  0  0  0  0  0  0  0
  162.4590  209.1080  149.4370 C   0  0  2  0  0  3  0  0  0  0  0  0
  162.2930  209.4950  150.9210 C   0  0  1  0  0  3  0  0  0  0  0  0
  160.8120  202.2760  149.9430 C   0  0  0  0  0  3  0  0  0  0  0  0
  161.2230  204.8860  150.8920 C   0  0  0  0  0  0  0  0  0  0  0  0
  161.2060  203.8000  151.7810 C   0  0  0  0  0  3  0  0  0  0  0  0
  161.0000  202.5010  151.3090 C   0  0  0  0  0  3  0  0  0  0  0  0
  160.8310  203.3500  149.0500 C   0  0  0  0  0  3  0  0  0  0  0  0
  161.0370  204.6490  149.5220 C   0  0  0  0  0  3  0  0  0  0  0  0
  160.6210  211.1660  151.2600 O   0  0  0  0  0  1  0  0  0  0  0  0
  161.9980  210.9670  151.1800 C   0  0  0  0  0  2  0  0  0  0  0  0
  162.2290  211.1090  148.1420 O   0  0  0  0  0  1  0  0  0  0  0  0
  161.5810  209.9240  148.4910 C   0  0  0  0  0  2  0  0  0  0  0  0
  1 13  1  6  0  0  0
  1 10  1  0  0  0  0
  1  3  1  0  0  0  0
  2 14  1  0  0  0  0
  2  6  1  1  0  0  0
  3 14  1  1  0  0  0
  6 15  1  0  0  0  0
  7 11  2  0  0  0  0
  8  7  1  0  0  0  0
  9 15  2  0  0  0  0
  9  7  1  0  0  0  0
 10 19  1  1  0  0  0
 10  2  1  0  0  0  0
 11  4  1  0  0  0  0
 11  5  1  0  0  0  0
 12  4  2  0  0  0  0
 13 16  1  0  0  0  0
 14  9  1  0  0  0  0
 15 12  1  0  0  0  0
 16 27  1  6  0  0  0
 16 17  1  0  0  0  0
 17 25  1  6  0  0  0
 17  3  1  0  0  0  0
 18 21  1  0  0  0  0
 19 20  1  0  0  0  0
 21 20  2  0  0  0  0
 22 23  1  0  0  0  0
 22 18  2  0  0  0  0
 23 19  2  0  0  0  0
 25 24  1  0  0  0  0
 26 27  1  0  0  0  0
M  END
>  <MODEL>
4

>  <REMARK>
 VINA RESULT:      -6.7      2.117      6.830
  Name = 
  3 active torsions:
  status: ('A' for Active; 'I' for Inactive)
    1  A    between atoms: C_9  and  C_15
    2  A    between atoms: C_20  and  C_26
    3  A    between atoms: C_22  and  C_24
                            x       y       z     vdW  Elec       q    Type
                         _______ _______ _______ _____ _____    ______ ____

>  <TORSDO>
F 3

$$$$
=
 OpenBabel11052423063D

 27 31  0  0  1  0  0  0  0  0999 V2000
  159.8740  211.0810  153.8580 N   0  0  2  0  0  0  0  0  0  0  0  0
  161.1170  210.3020  152.1630 C   0  0  1  0  0  3  0  0  0  0  0  0
  160.3280  209.7570  154.2700 C   0  0  1  0  0  3  0  0  0  0  0  0
  161.2410  206.0460  150.5990 C   0  0  0  0  0  3  0  0  0  0  0  0
  161.1700  204.3220  152.3980 C   0  0  0  0  0  1  0  0  0  0  0  0
  161.2070  209.7870  150.8320 N   0  0  0  0  0  2  0  0  0  0  0  0
  161.1720  206.8000  152.9260 C   0  0  0  0  0  0  0  0  0  0  0  0
  161.1360  206.5160  154.3900 C   0  0  0  0  0  1  0  0  0  0  0  0
  161.2010  208.1150  152.4480 C   0  0  0  0  0  0  0  0  0  0  0  0
  160.3530  211.3180  152.5340 C   0  0  1  0  0  3  0  0  0  0  0  0
  161.1940  205.7520  151.9760 C   0  0  0  0  0  0  0  0  0  0  0  0
  161.2660  207.3740  150.1460 C   0  0  0  0  0  3  0  0  0  0  0  0
  160.0180  212.0810  154.9000 C   0  0  0  0  0  2  0  0  0  0  0  0
  161.2130  209.3310  153.1900 N   0  0  0  0  0  0  0  0  0  0  0  0
  161.2530  208.3890  151.0960 C   0  0  0  0  0  0  0  0  0  0  0  0
  160.5580  211.3410  156.1120 C   0  0  2  0  0  3  0  0  0  0  0  0
  161.1090  210.0170  155.5460 C   0  0  1  0  0  3  0  0  0  0  0  0
  158.8460  214.4530  150.0270 C   0  0  0  0  0  3  0  0  0  0  0  0
  159.8400  212.3950  151.6570 C   0  0  0  0  0  0  0  0  0  0  0  0
  160.6500  212.9720  150.6680 C   0  0  0  0  0  3  0  0  0  0  0  0
  160.1550  213.9960  149.8550 C   0  0  0  0  0  3  0  0  0  0  0  0
  158.0330  213.8870  151.0120 C   0  0  0  0  0  3  0  0  0  0  0  0
  158.5280  212.8630  151.8240 C   0  0  0  0  0  3  0  0  0  0  0  0
  162.3190  208.6310  157.0700 O   0  0  0  0  0  1  0  0  0  0  0  0
  161.0620  208.8310  156.5020 C   0  0  0  0  0  2  0  0  0  0  0  0
  158.3440  211.9930  156.7490 O   0  0  0  0  0  1  0  0  0  0  0  0
  159.4030  211.1530  157.0930 C   0  0  0  0  0  2  0  0  0  0  0  0
  1  3  1  0  0  0  0
  1 13  1  1  0  0  0
  2  6  1  6  0  0  0
  2 10  1  0  0  0  0
  2 14  1  0  0  0  0
  3 14  1  6  0  0  0
  3 17  1  0  0  0  0
  4 11  1  0  0  0  0
  6 15  1  0  0  0  0
  7  8  1  0  0  0  0
  9  7  1  0  0  0  0
  9 14  1  0  0  0  0
 10 19  1  6  0  0  0
 10  1  1  0  0  0  0
 11  5  1  0  0  0  0
 11  7  2  0  0  0  0
 12  4  2  0  0  0  0
 12 15  1  0  0  0  0
 13 16  1  0  0  0  0
 15  9  2  0  0  0  0
 16 27  1  1  0  0  0
 17 16  1  0  0  0  0
 17 25  1  1  0  0  0
 18 22  1  0  0  0  0
 19 23  1  0  0  0  0
 20 19  2  0  0  0  0
 21 18  2  0  0  0  0
 21 20  1  0  0  0  0
 22 23  2  0  0  0  0
 25 24  1  0  0  0  0
 26 27  1  0  0  0  0
M  END
>  <MODEL>
5

>  <REMARK>
 VINA RESULT:      -6.4      2.632      3.803
  Name = 
  3 active torsions:
  status: ('A' for Active; 'I' for Inactive)
    1  A    between atoms: C_9  and  C_15
    2  A    between atoms: C_20  and  C_26
    3  A    between atoms: C_22  and  C_24
                            x       y       z     vdW  Elec       q    Type
                         _______ _______ _______ _____ _____    ______ ____

>  <TORSDO>
F 3

$$$$
=
 OpenBabel11052423063D

 27 31  0  0  1  0  0  0  0  0999 V2000
  161.0340  205.9110  149.4850 N   0  0  2  0  0  0  0  0  0  0  0  0
  161.8000  205.7840  151.5870 C   0  0  1  0  0  3  0  0  0  0  0  0
  161.0880  207.2840  149.9750 C   0  0  1  0  0  3  0  0  0  0  0  0
  160.4350  208.2450  155.1450 C   0  0  0  0  0  3  0  0  0  0  0  0
  160.0020  210.6370  154.5930 C   0  0  0  0  0  1  0  0  0  0  0  0
  161.5960  205.4310  152.9590 N   0  0  0  0  0  2  0  0  0  0  0  0
  160.8310  208.9960  152.8500 C   0  0  0  0  0  0  0  0  0  0  0  0
  160.8490  210.0660  151.8110 C   0  0  0  0  0  1  0  0  0  0  0  0
  161.2230  207.6880  152.5430 C   0  0  0  0  0  0  0  0  0  0  0  0
  161.4320  205.0480  150.5510 C   0  0  1  0  0  3  0  0  0  0  0  0
  160.4320  209.2700  154.1780 C   0  0  0  0  0  0  0  0  0  0  0  0
  160.8300  206.9410  154.8110 C   0  0  0  0  0  3  0  0  0  0  0  0
  161.5840  205.7610  148.1510 C   0  0  0  0  0  2  0  0  0  0  0  0
  161.6870  207.1670  151.3010 N   0  0  0  0  0  0  0  0  0  0  0  0
  161.2270  206.6950  153.5010 C   0  0  0  0  0  0  0  0  0  0  0  0
  161.9800  207.1590  147.7060 C   0  0  2  0  0  3  0  0  0  0  0  0
  162.0300  207.9810  149.0100 C   0  0  1  0  0  3  0  0  0  0  0  0
  160.7680  200.8120  150.5150 C   0  0  0  0  0  3  0  0  0  0  0  0
  161.1990  203.5860  150.5520 C   0  0  0  0  0  0  0  0  0  0  0  0
  161.5830  202.7920  151.6430 C   0  0  0  0  0  3  0  0  0  0  0  0
  161.3660  201.4110  151.6260 C   0  0  0  0  0  3  0  0  0  0  0  0
  160.3870  201.5940  149.4210 C   0  0  0  0  0  3  0  0  0  0  0  0
  160.6030  202.9750  149.4400 C   0  0  0  0  0  3  0  0  0  0  0  0
  162.7940  210.1280  148.2920 O   0  0  0  0  0  1  0  0  0  0  0  0
  161.7070  209.4620  148.8570 C   0  0  0  0  0  2  0  0  0  0  0  0
  160.4560  206.5780  145.9530 O   0  0  0  0  0  1  0  0  0  0  0  0
  160.9240  207.6470  146.7170 C   0  0  0  0  0  2  0  0  0  0  0  0
  1 13  1  6  0  0  0
  1  3  1  0  0  0  0
  1 10  1  0  0  0  0
  2  6  1  1  0  0  0
  3 14  1  1  0  0  0
  6 15  1  0  0  0  0
  7 11  1  0  0  0  0
  8  7  1  0  0  0  0
  9  7  2  0  0  0  0
  9 15  1  0  0  0  0
 10 19  1  1  0  0  0
 10  2  1  0  0  0  0
 11  5  1  0  0  0  0
 11  4  2  0  0  0  0
 12  4  1  0  0  0  0
 14  2  1  0  0  0  0
 14  9  1  0  0  0  0
 15 12  2  0  0  0  0
 16 27  1  6  0  0  0
 16 13  1  0  0  0  0
 16 17  1  0  0  0  0
 17 25  1  6  0  0  0
 17  3  1  0  0  0  0
 18 21  1  0  0  0  0
 19 20  1  0  0  0  0
 21 20  2  0  0  0  0
 22 23  1  0  0  0  0
 22 18  2  0  0  0  0
 23 19  2  0  0  0  0
 24 25  1  0  0  0  0
 26 27  1  0  0  0  0
M  END
>  <MODEL>
6

>  <REMARK>
 VINA RESULT:      -6.3      2.538      7.216
  Name = 
  3 active torsions:
  status: ('A' for Active; 'I' for Inactive)
    1  A    between atoms: C_9  and  C_15
    2  A    between atoms: C_20  and  C_26
    3  A    between atoms: C_22  and  C_24
                            x       y       z     vdW  Elec       q    Type
                         _______ _______ _______ _____ _____    ______ ____

>  <TORSDO>
F 3

$$$$
=
 OpenBabel11052423063D

 27 31  0  0  1  0  0  0  0  0999 V2000
  161.2810  206.6640  150.7050 N   0  0  2  0  0  0  0  0  0  0  0  0
  162.3670  206.5080  148.7510 C   0  0  1  0  0  3  0  0  0  0  0  0
  161.2040  205.2610  150.3150 C   0  0  1  0  0  3  0  0  0  0  0  0
  161.2040  203.9690  145.1750 C   0  0  0  0  0  3  0  0  0  0  0  0
  160.3420  201.7140  145.7950 C   0  0  0  0  0  1  0  0  0  0  0  0
  162.4270  206.7700  147.3460 N   0  0  0  0  0  2  0  0  0  0  0  0
  161.1320  203.3660  147.5460 C   0  0  0  0  0  0  0  0  0  0  0  0
  160.8340  202.3930  148.6380 C   0  0  0  0  0  1  0  0  0  0  0  0
  161.6640  204.6290  147.8320 C   0  0  0  0  0  0  0  0  0  0  0  0
  161.9600  207.3720  149.6670 C   0  0  1  0  0  3  0  0  0  0  0  0
  160.9030  203.0390  146.1900 C   0  0  0  0  0  0  0  0  0  0  0  0
  161.7340  205.2300  145.4890 C   0  0  0  0  0  3  0  0  0  0  0  0
  161.6390  206.8480  152.0990 C   0  0  0  0  0  2  0  0  0  0  0  0
  162.0070  205.1820  149.0990 N   0  0  0  0  0  0  0  0  0  0  0  0
  161.9610  205.5280  146.8290 C   0  0  0  0  0  0  0  0  0  0  0  0
  161.7510  205.4510  152.6860 C   0  0  2  0  0  3  0  0  0  0  0  0
  161.8750  204.5230  151.4600 C   0  0  1  0  0  3  0  0  0  0  0  0
  161.9560  211.6460  149.3290 C   0  0  0  0  0  3  0  0  0  0  0  0
  161.9500  208.8470  149.5400 C   0  0  0  0  0  0  0  0  0  0  0  0
  161.9550  209.4650  148.2810 C   0  0  0  0  0  3  0  0  0  0  0  0
  161.9560  210.8590  148.1750 C   0  0  0  0  0  3  0  0  0  0  0  0
  161.9560  211.0390  150.5870 C   0  0  0  0  0  3  0  0  0  0  0  0
  161.9540  209.6460  150.6920 C   0  0  0  0  0  3  0  0  0  0  0  0
  162.3620  202.2040  151.7600 O   0  0  0  0  0  1  0  0  0  0  0  0
  161.3160  203.1190  151.6490 C   0  0  0  0  0  2  0  0  0  0  0  0
  160.3450  206.2040  154.4730 O   0  0  0  0  0  1  0  0  0  0  0  0
  160.4970  205.1970  153.5200 C   0  0  0  0  0  2  0  0  0  0  0  0
  1 13  1  1  0  0  0
  2  6  1  6  0  0  0
  2 14  1  0  0  0  0
  2 10  1  0  0  0  0
  3 14  1  6  0  0  0
  3  1  1  0  0  0  0
  3 17  1  0  0  0  0
  4 12  2  0  0  0  0
  4 11  1  0  0  0  0
  5 11  1  0  0  0  0
  7  9  1  0  0  0  0
  7  8  1  0  0  0  0
  9 14  1  0  0  0  0
 10 19  1  6  0  0  0
 10  1  1  0  0  0  0
 11  7  2  0  0  0  0
 12 15  1  0  0  0  0
 13 16  1  0  0  0  0
 15  6  1  0  0  0  0
 15  9  2  0  0  0  0
 16 27  1  6  0  0  0
 17 25  1  1  0  0  0
 17 16  1  0  0  0  0
 18 22  1  0  0  0  0
 19 23  1  0  0  0  0
 20 19  2  0  0  0  0
 21 20  1  0  0  0  0
 21 18  2  0  0  0  0
 22 23  2  0  0  0  0
 25 24  1  0  0  0  0
 27 26  1  0  0  0  0
M  END
>  <MODEL>
7

>  <REMARK>
 VINA RESULT:      -6.2      1.874      3.216
  Name = 
  3 active torsions:
  status: ('A' for Active; 'I' for Inactive)
    1  A    between atoms: C_9  and  C_15
    2  A    between atoms: C_20  and  C_26
    3  A    between atoms: C_22  and  C_24
                            x       y       z     vdW  Elec       q    Type
                         _______ _______ _______ _____ _____    ______ ____

>  <TORSDO>
F 3

$$$$
=
 OpenBabel11052423063D

 27 31  0  0  1  0  0  0  0  0999 V2000
  161.3020  203.9050  148.7140 N   0  0  2  0  0  0  0  0  0  0  0  0
  160.6240  206.0400  148.7740 C   0  0  1  0  0  3  0  0  0  0  0  0
  161.1270  204.2300  150.1250 C   0  0  1  0  0  3  0  0  0  0  0  0
  161.8540  209.2140  151.7750 C   0  0  0  0  0  3  0  0  0  0  0  0
  162.0250  208.3610  154.1110 C   0  0  0  0  0  1  0  0  0  0  0  0
  160.9080  207.4330  148.6140 N   0  0  0  0  0  2  0  0  0  0  0  0
  161.3080  206.8650  152.1950 C   0  0  0  0  0  0  0  0  0  0  0  0
  161.1470  205.7080  153.1230 C   0  0  0  0  0  1  0  0  0  0  0  0
  161.0390  206.7350  150.8280 C   0  0  0  0  0  0  0  0  0  0  0  0
  161.0290  205.0840  147.9550 C   0  0  1  0  0  3  0  0  0  0  0  0
  161.7210  208.1320  152.6680 C   0  0  0  0  0  0  0  0  0  0  0  0
  161.5810  209.0550  150.4070 C   0  0  0  0  0  3  0  0  0  0  0  0
  160.7260  202.6250  148.3490 C   0  0  0  0  0  2  0  0  0  0  0  0
  160.5880  205.5860  150.1170 N   0  0  0  0  0  0  0  0  0  0  0  0
  161.1670  207.8040  149.9640 C   0  0  0  0  0  0  0  0  0  0  0  0
  160.1770  202.0350  149.6370 C   0  0  2  0  0  3  0  0  0  0  0  0
  160.0870  203.2330  150.6050 C   0  0  1  0  0  3  0  0  0  0  0  0
  162.1470  205.5270  143.8400 C   0  0  0  0  0  3  0  0  0  0  0  0
  161.4070  205.2480  146.5330 C   0  0  0  0  0  0  0  0  0  0  0  0
  160.4760  205.6890  145.5820 C   0  0  0  0  0  3  0  0  0  0  0  0
  160.8430  205.8300  144.2400 C   0  0  0  0  0  3  0  0  0  0  0  0
  163.0810  205.0840  144.7790 C   0  0  0  0  0  3  0  0  0  0  0  0
  162.7130  204.9440  146.1200 C   0  0  0  0  0  3  0  0  0  0  0  0
  161.6090  202.7640  152.3860 O   0  0  0  0  0  1  0  0  0  0  0  0
  160.2550  202.8900  152.0800 C   0  0  0  0  0  2  0  0  0  0  0  0
  161.6280  200.2420  148.9970 O   0  0  0  0  0  1  0  0  0  0  0  0
  161.1440  200.9480  150.0980 C   0  0  0  0  0  2  0  0  0  0  0  0
  1 13  1  6  0  0  0
  1  3  1  0  0  0  0
  2  6  1  1  0  0  0
  2 14  1  0  0  0  0
  3 14  1  6  0  0  0
  3 17  1  0  0  0  0
  4 11  1  0  0  0  0
  6 15  1  0  0  0  0
  7 11  2  0  0  0  0
  7  8  1  0  0  0  0
  9  7  1  0  0  0  0
 10 19  1  1  0  0  0
 10  1  1  0  0  0  0
 10  2  1  0  0  0  0
 11  5  1  0  0  0  0
 12  4  2  0  0  0  0
 13 16  1  0  0  0  0
 14  9  1  0  0  0  0
 15 12  1  0  0  0  0
 15  9  2  0  0  0  0
 16 27  1  1  0  0  0
 16 17  1  0  0  0  0
 17 25  1  1  0  0  0
 18 21  2  0  0  0  0
 18 22  1  0  0  0  0
 20 19  2  0  0  0  0
 21 20  1  0  0  0  0
 22 23  2  0  0  0  0
 23 19  1  0  0  0  0
 25 24  1  0  0  0  0
 26 27  1  0  0  0  0
M  END
>  <MODEL>
8

>  <REMARK>
 VINA RESULT:      -6.0      2.970      6.231
  Name = 
  3 active torsions:
  status: ('A' for Active; 'I' for Inactive)
    1  A    between atoms: C_9  and  C_15
    2  A    between atoms: C_20  and  C_26
    3  A    between atoms: C_22  and  C_24
                            x       y       z     vdW  Elec       q    Type
                         _______ _______ _______ _____ _____    ______ ____

>  <TORSDO>
F 3

$$$$
=
 OpenBabel11052423063D

 27 31  0  0  1  0  0  0  0  0999 V2000
  161.7060  206.9750  150.2950 N   0  0  2  0  0  0  0  0  0  0  0  0
  160.3700  205.2750  150.8850 C   0  0  1  0  0  3  0  0  0  0  0  0
  161.6340  206.1010  149.1300 C   0  0  1  0  0  3  0  0  0  0  0  0
  160.8820  200.8980  149.8050 C   0  0  0  0  0  3  0  0  0  0  0  0
  161.6550  200.5350  147.4630 C   0  0  0  0  0  1  0  0  0  0  0  0
  160.1480  204.0820  151.6420 N   0  0  0  0  0  2  0  0  0  0  0  0
  161.2150  202.8570  148.3760 C   0  0  0  0  0  0  0  0  0  0  0  0
  161.5820  203.4720  147.0670 C   0  0  0  0  0  1  0  0  0  0  0  0
  160.8150  203.6510  149.4570 C   0  0  0  0  0  0  0  0  0  0  0  0
  160.9510  206.3700  151.3460 C   0  0  1  0  0  3  0  0  0  0  0  0
  161.2450  201.4560  148.5620 C   0  0  0  0  0  0  0  0  0  0  0  0
  160.4880  201.7170  150.8740 C   0  0  0  0  0  3  0  0  0  0  0  0
  161.5440  208.3780  149.9640 C   0  0  0  0  0  2  0  0  0  0  0  0
  160.6780  205.0680  149.5170 N   0  0  0  0  0  0  0  0  0  0  0  0
  160.4560  203.0920  150.6660 C   0  0  0  0  0  0  0  0  0  0  0  0
  161.4100  208.4350  148.4520 C   0  0  2  0  0  3  0  0  0  0  0  0
  161.0640  206.9900  148.0380 C   0  0  1  0  0  3  0  0  0  0  0  0
  161.2060  207.5860  155.4500 C   0  0  0  0  0  3  0  0  0  0  0  0
  161.0490  206.7800  152.7650 C   0  0  0  0  0  0  0  0  0  0  0  0
  161.2060  205.8300  153.7850 C   0  0  0  0  0  3  0  0  0  0  0  0
  161.2860  206.2300  155.1220 C   0  0  0  0  0  3  0  0  0  0  0  0
  161.0450  208.5390  154.4420 C   0  0  0  0  0  3  0  0  0  0  0  0
  160.9660  208.1380  153.1060 C   0  0  0  0  0  3  0  0  0  0  0  0
  160.4560  206.4950  145.7820 O   0  0  0  0  0  1  0  0  0  0  0  0
  161.5430  206.5780  146.6520 C   0  0  0  0  0  2  0  0  0  0  0  0
  162.9520  210.2570  148.2600 O   0  0  0  0  0  1  0  0  0  0  0  0
  162.7400  208.9300  147.8870 C   0  0  0  0  0  2  0  0  0  0  0  0
  1 13  1  6  0  0  0
  1 10  1  0  0  0  0
  2 10  1  0  0  0  0
  2  6  1  1  0  0  0
  3 14  1  1  0  0  0
  3  1  1  0  0  0  0
  4 12  1  0  0  0  0
  5 11  1  0  0  0  0
  7 11  1  0  0  0  0
  7  9  2  0  0  0  0
  8  7  1  0  0  0  0
  9 14  1  0  0  0  0
  9 15  1  0  0  0  0
 10 19  1  1  0  0  0
 11  4  2  0  0  0  0
 14  2  1  0  0  0  0
 15 12  2  0  0  0  0
 15  6  1  0  0  0  0
 16 27  1  6  0  0  0
 16 13  1  0  0  0  0
 17 25  1  6  0  0  0
 17 16  1  0  0  0  0
 17  3  1  0  0  0  0
 19 23  2  0  0  0  0
 19 20  1  0  0  0  0
 20 21  2  0  0  0  0
 21 18  1  0  0  0  0
 22 18  2  0  0  0  0
 23 22  1  0  0  0  0
 24 25  1  0  0  0  0
 27 26  1  0  0  0  0
M  END
>  <MODEL>
9

>  <REMARK>
 VINA RESULT:      -6.0      2.720      5.689
  Name = 
  3 active torsions:
  status: ('A' for Active; 'I' for Inactive)
    1  A    between atoms: C_9  and  C_15
    2  A    between atoms: C_20  and  C_26
    3  A    between atoms: C_22  and  C_24
                            x       y       z     vdW  Elec       q    Type
                         _______ _______ _______ _____ _____    ______ ____

>  <TORSDO>
F 3

$$$$
