=
 OpenBabel11052422293D

 31 34  0  0  1  0  0  0  0  0999 V2000
  162.3310  210.9360  149.3430 C   0  0  0  0  0  0  0  0  0  0  0  0
  162.1010  207.8310  151.5180 C   0  0  2  0  0  3  0  0  0  0  0  0
  161.1390  208.1700  152.6430 C   0  0  0  0  0  0  0  0  0  0  0  0
  160.2280  210.3090  153.4930 C   0  0  0  0  0  3  0  0  0  0  0  0
  162.0050  208.7360  150.3140 C   0  0  0  0  0  0  0  0  0  0  0  0
  161.7590  210.4980  148.1470 C   0  0  0  0  0  3  0  0  0  0  0  0
  160.0970  209.2350  152.4670 C   0  0  0  0  0  2  0  0  0  0  0  0
  160.8680  206.0740  150.1880 C   0  0  2  0  0  3  0  0  0  0  0  0
  162.7850  212.2780  149.4630 N   0  0  0  0  0  1  0  0  0  0  0  0
  162.0420  206.1700  153.7290 C   0  0  0  0  0  2  0  0  0  0  0  0
  160.0740  210.0810  154.7960 C   0  0  0  0  0  3  0  0  0  0  0  0
  161.0420  206.8590  148.8880 C   0  0  0  0  0  2  0  0  0  0  0  0
  162.0350  206.3290  151.1550 C   0  0  2  0  0  3  0  0  0  0  0  0
  162.4540  210.0580  150.4220 C   0  0  0  0  0  3  0  0  0  0  0  0
  159.8480  208.7530  155.3960 C   0  0  0  0  0  3  0  0  0  0  0  0
  161.4250  208.2940  149.1050 C   0  0  0  0  0  0  0  0  0  0  0  0
  161.3160  209.1780  148.0270 C   0  0  0  0  0  3  0  0  0  0  0  0
  161.9200  205.4190  152.4000 C   0  0  0  0  0  2  0  0  0  0  0  0
  161.1470  207.3740  153.7300 C   0  0  0  0  0  0  0  0  0  0  0  0
  160.3060  207.5850  154.9290 C   0  0  0  0  0  3  0  0  0  0  0  0
  160.3970  201.8340  149.6100 C   0  0  0  0  0  1  0  0  0  0  0  0
  161.4380  202.5970  146.1920 O   0  0  0  0  0  0  0  0  0  0  0  0
  161.5640  204.7290  147.7250 O   0  0  0  0  0  0  0  0  0  0  0  0
  161.0730  204.0290  148.6520 C   0  0  0  0  0  0  0  0  0  0  0  0
  161.1580  201.9400  147.2300 C   0  0  0  0  0  0  0  0  0  0  0  0
  160.8850  202.6120  148.4780 N   0  0  0  0  0  0  0  0  0  0  0  0
  160.7090  204.6500  149.8940 N   0  0  0  0  0  2  0  0  0  0  0  0
  161.1210  200.4450  147.1400 C   0  0  0  0  0  2  0  0  0  0  0  0
  161.1700  199.9870  145.6900 C   0  0  0  0  0  3  0  0  0  0  0  0
  159.9050  200.4280  144.9840 C   0  0  0  0  0  1  0  0  0  0  0  0
  161.2780  198.4750  145.6150 C   0  0  0  0  0  1  0  0  0  0  0  0
  1  9  1  0  0  0  0
  1 14  1  0  0  0  0
  2  5  1  6  0  0  0
  2  3  1  0  0  0  0
  3 19  2  0  0  0  0
  4 11  2  0  0  0  0
  5 14  2  0  0  0  0
  6  1  2  0  0  0  0
  7  3  1  0  0  0  0
  7  4  1  0  0  0  0
  8 27  1  6  0  0  0
  8 13  1  0  0  0  0
 10 19  1  0  0  0  0
 11 15  1  0  0  0  0
 12 16  1  0  0  0  0
 12  8  1  0  0  0  0
 13  2  1  0  0  0  0
 13 18  1  1  0  0  0
 16  5  1  0  0  0  0
 17  6  1  0  0  0  0
 17 16  2  0  0  0  0
 18 10  1  0  0  0  0
 19 20  1  0  0  0  0
 20 15  2  0  0  0  0
 22 25  2  0  0  0  0
 23 24  2  0  0  0  0
 24 27  1  0  0  0  0
 25 26  1  0  0  0  0
 26 24  1  0  0  0  0
 26 21  1  0  0  0  0
 28 25  1  0  0  0  0
 29 28  1  0  0  0  0
 30 29  1  0  0  0  0
 31 29  1  0  0  0  0
M  END
>  <MODEL>
1

>  <REMARK>
 VINA RESULT:      -6.8      0.000      0.000
  Name = 
  3 active torsions:
  status: ('A' for Active; 'I' for Inactive)
    1  A    between atoms: C_1  and  C_24
    2  A    between atoms: C_15  and  N_23
    3  A    between atoms: C_19  and  C_24
                            x       y       z     vdW  Elec       q    Type
                         _______ _______ _______ _____ _____    ______ ____

>  <TORSDO>
F 3

$$$$
=
 OpenBabel11052422293D

 31 34  0  0  1  0  0  0  0  0999 V2000
  161.5620  206.5360  152.9970 C   0  0  0  0  0  0  0  0  0  0  0  0
  160.0930  210.0380  153.0150 C   0  0  2  0  0  3  0  0  0  0  0  0
  160.6270  210.7180  154.2640 C   0  0  0  0  0  0  0  0  0  0  0  0
  161.7240  209.8580  156.3100 C   0  0  0  0  0  3  0  0  0  0  0  0
  160.8750  208.8250  152.5750 C   0  0  0  0  0  0  0  0  0  0  0  0
  162.3850  206.5700  151.8700 C   0  0  0  0  0  3  0  0  0  0  0  0
  161.9150  210.2700  154.8890 C   0  0  0  0  0  2  0  0  0  0  0  0
  161.1810  211.3170  151.1290 C   0  0  2  0  0  3  0  0  0  0  0  0
  161.4920  205.3570  153.7900 N   0  0  0  0  0  1  0  0  0  0  0  0
  158.8650  212.3690  153.8600 C   0  0  0  0  0  2  0  0  0  0  0  0
  161.3170  210.7040  157.2540 C   0  0  0  0  0  3  0  0  0  0  0  0
  161.7260  210.0340  150.5010 C   0  0  0  0  0  2  0  0  0  0  0  0
  159.8630  211.0580  151.8760 C   0  0  2  0  0  3  0  0  0  0  0  0
  160.8090  207.6590  153.3470 C   0  0  0  0  0  3  0  0  0  0  0  0
  160.9240  212.1050  157.0150 C   0  0  0  0  0  3  0  0  0  0  0  0
  161.7090  208.8600  151.4370 C   0  0  0  0  0  0  0  0  0  0  0  0
  162.4510  207.7260  151.0880 C   0  0  0  0  0  3  0  0  0  0  0  0
  159.2510  212.3870  152.3780 C   0  0  0  0  0  2  0  0  0  0  0  0
  159.9960  211.8310  154.6850 C   0  0  0  0  0  0  0  0  0  0  0  0
  160.3610  212.5900  155.9020 C   0  0  0  0  0  3  0  0  0  0  0  0
  160.4920  214.4390  148.2440 C   0  0  0  0  0  1  0  0  0  0  0  0
  162.9660  212.6060  146.2770 O   0  0  0  0  0  0  0  0  0  0  0  0
  162.3710  211.3230  148.4940 O   0  0  0  0  0  0  0  0  0  0  0  0
  161.6420  212.3040  148.8060 C   0  0  0  0  0  0  0  0  0  0  0  0
  162.0570  213.4260  146.5780 C   0  0  0  0  0  0  0  0  0  0  0  0
  161.4110  213.3720  147.8680 N   0  0  0  0  0  0  0  0  0  0  0  0
  161.0300  212.3500  150.1040 N   0  0  0  0  0  2  0  0  0  0  0  0
  161.6580  214.4530  145.5620 C   0  0  0  0  0  2  0  0  0  0  0  0
  161.1800  213.7900  144.2790 C   0  0  0  0  0  3  0  0  0  0  0  0
  162.0440  214.2580  143.1250 C   0  0  0  0  0  1  0  0  0  0  0  0
  159.7360  214.1590  143.9990 C   0  0  0  0  0  1  0  0  0  0  0  0
  1 14  1  0  0  0  0
  1  9  1  0  0  0  0
  2  5  1  6  0  0  0
  2  3  1  0  0  0  0
  3 19  2  0  0  0  0
  3  7  1  0  0  0  0
  4 11  2  0  0  0  0
  5 14  2  0  0  0  0
  6  1  2  0  0  0  0
  7  4  1  0  0  0  0
  8 27  1  6  0  0  0
  8 13  1  0  0  0  0
 10 19  1  0  0  0  0
 12  8  1  0  0  0  0
 12 16  1  0  0  0  0
 13 18  1  1  0  0  0
 13  2  1  0  0  0  0
 15 11  1  0  0  0  0
 16  5  1  0  0  0  0
 17 16  2  0  0  0  0
 17  6  1  0  0  0  0
 18 10  1  0  0  0  0
 19 20  1  0  0  0  0
 20 15  2  0  0  0  0
 22 25  2  0  0  0  0
 23 24  2  0  0  0  0
 24 27  1  0  0  0  0
 25 26  1  0  0  0  0
 26 21  1  0  0  0  0
 26 24  1  0  0  0  0
 28 25  1  0  0  0  0
 29 28  1  0  0  0  0
 30 29  1  0  0  0  0
 31 29  1  0  0  0  0
M  END
>  <MODEL>
2

>  <REMARK>
 VINA RESULT:      -6.3      4.639      8.005
  Name = 
  3 active torsions:
  status: ('A' for Active; 'I' for Inactive)
    1  A    between atoms: C_1  and  C_24
    2  A    between atoms: C_15  and  N_23
    3  A    between atoms: C_19  and  C_24
                            x       y       z     vdW  Elec       q    Type
                         _______ _______ _______ _____ _____    ______ ____

>  <TORSDO>
F 3

$$$$
=
 OpenBabel11052422293D

 31 34  0  0  1  0  0  0  0  0999 V2000
  161.6180  207.8280  138.1450 C   0  0  0  0  0  0  0  0  0  0  0  0
  160.4160  211.3240  139.0160 C   0  0  2  0  0  3  0  0  0  0  0  0
  158.9040  211.3020  138.8750 C   0  0  0  0  0  0  0  0  0  0  0  0
  157.3370  209.7220  137.7900 C   0  0  0  0  0  3  0  0  0  0  0  0
  161.0550  209.9630  139.1520 C   0  0  0  0  0  0  0  0  0  0  0  0
  162.1350  207.3850  139.3640 C   0  0  0  0  0  3  0  0  0  0  0  0
  158.1400  210.0180  139.0120 C   0  0  0  0  0  2  0  0  0  0  0  0
  160.7790  211.6450  141.4940 C   0  0  2  0  0  3  0  0  0  0  0  0
  161.6350  206.9690  137.0110 N   0  0  0  0  0  1  0  0  0  0  0  0
  159.0790  213.7430  138.9190 C   0  0  0  0  0  2  0  0  0  0  0  0
  156.3480  210.5100  137.3720 C   0  0  0  0  0  3  0  0  0  0  0  0
  161.6920  210.4210  141.5740 C   0  0  0  0  0  2  0  0  0  0  0  0
  160.8630  212.3160  140.1140 C   0  0  2  0  0  3  0  0  0  0  0  0
  161.0810  209.1130  138.0390 C   0  0  0  0  0  3  0  0  0  0  0  0
  155.9790  211.7960  137.9920 C   0  0  0  0  0  3  0  0  0  0  0  0
  161.5770  209.5140  140.3840 C   0  0  0  0  0  0  0  0  0  0  0  0
  162.1220  208.2290  140.4760 C   0  0  0  0  0  3  0  0  0  0  0  0
  160.0510  213.6320  140.0980 C   0  0  0  0  0  2  0  0  0  0  0  0
  158.2690  212.4870  138.7910 C   0  0  0  0  0  0  0  0  0  0  0  0
  156.8090  212.6440  138.6100 C   0  0  0  0  0  3  0  0  0  0  0  0
  161.9780  214.4520  144.5310 C   0  0  0  0  0  1  0  0  0  0  0  0
  159.3400  212.8450  146.4820 O   0  0  0  0  0  0  0  0  0  0  0  0
  159.6850  211.6390  144.1710 O   0  0  0  0  0  0  0  0  0  0  0  0
  160.5300  212.5320  143.8890 C   0  0  0  0  0  0  0  0  0  0  0  0
  160.3420  213.5530  146.1950 C   0  0  0  0  0  0  0  0  0  0  0  0
  160.9340  213.4970  144.8800 N   0  0  0  0  0  0  0  0  0  0  0  0
  161.1010  212.5790  142.5730 N   0  0  0  0  0  2  0  0  0  0  0  0
  160.9090  214.4490  147.2530 C   0  0  0  0  0  2  0  0  0  0  0  0
  161.6620  213.6430  148.3010 C   0  0  0  0  0  3  0  0  0  0  0  0
  162.2040  212.3800  147.6640 C   0  0  0  0  0  1  0  0  0  0  0  0
  160.7380  213.2650  149.4440 C   0  0  0  0  0  1  0  0  0  0  0  0
  1  6  1  0  0  0  0
  2  3  1  1  0  0  0
  2  5  1  0  0  0  0
  2 13  1  0  0  0  0
  3  7  1  0  0  0  0
  4  7  1  0  0  0  0
  5 16  2  0  0  0  0
  6 17  2  0  0  0  0
  8 12  1  0  0  0  0
  8 27  1  1  0  0  0
  9  1  1  0  0  0  0
 10 18  1  0  0  0  0
 11  4  2  0  0  0  0
 11 15  1  0  0  0  0
 13 18  1  1  0  0  0
 13  8  1  0  0  0  0
 14  1  2  0  0  0  0
 14  5  1  0  0  0  0
 15 20  2  0  0  0  0
 16 17  1  0  0  0  0
 16 12  1  0  0  0  0
 19  3  2  0  0  0  0
 19 10  1  0  0  0  0
 20 19  1  0  0  0  0
 21 26  1  0  0  0  0
 24 23  2  0  0  0  0
 24 26  1  0  0  0  0
 25 22  2  0  0  0  0
 25 28  1  0  0  0  0
 26 25  1  0  0  0  0
 27 24  1  0  0  0  0
 28 29  1  0  0  0  0
 29 31  1  0  0  0  0
 30 29  1  0  0  0  0
M  END
>  <MODEL>
3

>  <REMARK>
 VINA RESULT:      -5.1      8.377     13.087
  Name = 
  3 active torsions:
  status: ('A' for Active; 'I' for Inactive)
    1  A    between atoms: C_1  and  C_24
    2  A    between atoms: C_15  and  N_23
    3  A    between atoms: C_19  and  C_24
                            x       y       z     vdW  Elec       q    Type
                         _______ _______ _______ _____ _____    ______ ____

>  <TORSDO>
F 3

$$$$
=
 OpenBabel11052422293D

 31 34  0  0  1  0  0  0  0  0999 V2000
  162.0890  212.5380  148.9570 C   0  0  0  0  0  0  0  0  0  0  0  0
  161.4420  210.4480  152.0620 C   0  0  2  0  0  3  0  0  0  0  0  0
  160.1360  210.9530  152.6510 C   0  0  0  0  0  0  0  0  0  0  0  0
  158.8040  213.0050  152.2780 C   0  0  0  0  0  3  0  0  0  0  0  0
  161.6650  210.8170  150.6150 C   0  0  0  0  0  0  0  0  0  0  0  0
  161.9860  211.5880  147.9390 C   0  0  0  0  0  3  0  0  0  0  0  0
  159.1170  211.6330  151.7850 C   0  0  0  0  0  2  0  0  0  0  0  0
  160.8830  208.1100  151.2890 C   0  0  2  0  0  3  0  0  0  0  0  0
  162.3530  213.8980  148.6350 N   0  0  0  0  0  1  0  0  0  0  0  0
  160.8120  209.7200  154.6550 C   0  0  0  0  0  2  0  0  0  0  0  0
  158.2510  213.2330  153.4680 C   0  0  0  0  0  3  0  0  0  0  0  0
  161.4020  208.3940  149.8790 C   0  0  0  0  0  2  0  0  0  0  0  0
  161.6370  208.9400  152.3400 C   0  0  2  0  0  3  0  0  0  0  0  0
  161.9300  212.1540  150.2900 C   0  0  0  0  0  3  0  0  0  0  0  0
  157.9630  212.1930  154.4740 C   0  0  0  0  0  3  0  0  0  0  0  0
  161.5590  209.8580  149.5860 C   0  0  0  0  0  0  0  0  0  0  0  0
  161.7300  210.2510  148.2540 C   0  0  0  0  0  3  0  0  0  0  0  0
  161.2040  208.5340  153.7680 C   0  0  0  0  0  2  0  0  0  0  0  0
  159.8600  210.6220  153.9270 C   0  0  0  0  0  0  0  0  0  0  0  0
  158.6550  211.0630  154.6640 C   0  0  0  0  0  3  0  0  0  0  0  0
  161.2060  203.9590  152.3850 C   0  0  0  0  0  1  0  0  0  0  0  0
  161.0060  203.4130  148.7780 O   0  0  0  0  0  0  0  0  0  0  0  0
  161.1050  205.9770  149.3490 O   0  0  0  0  0  0  0  0  0  0  0  0
  161.0720  205.6550  150.5680 C   0  0  0  0  0  0  0  0  0  0  0  0
  161.1930  203.1930  150.0050 C   0  0  0  0  0  0  0  0  0  0  0  0
  161.1580  204.2720  150.9620 N   0  0  0  0  0  0  0  0  0  0  0  0
  160.9610  206.6770  151.5700 N   0  0  0  0  0  2  0  0  0  0  0  0
  161.4610  201.7860  150.4440 C   0  0  0  0  0  2  0  0  0  0  0  0
  160.6490  200.7960  149.6230 C   0  0  0  0  0  3  0  0  0  0  0  0
  161.3290  200.5810  148.2860 C   0  0  0  0  0  1  0  0  0  0  0  0
  159.2480  201.3280  149.3860 C   0  0  0  0  0  1  0  0  0  0  0  0
  1 14  1  0  0  0  0
  2  5  1  6  0  0  0
  2 13  1  0  0  0  0
  2  3  1  0  0  0  0
  3 19  2  0  0  0  0
  4 11  2  0  0  0  0
  6 17  1  0  0  0  0
  6  1  2  0  0  0  0
  7  4  1  0  0  0  0
  7  3  1  0  0  0  0
  8 27  1  1  0  0  0
  8 13  1  0  0  0  0
  9  1  1  0  0  0  0
 11 15  1  0  0  0  0
 12  8  1  0  0  0  0
 13 18  1  1  0  0  0
 14  5  2  0  0  0  0
 15 20  2  0  0  0  0
 16 12  1  0  0  0  0
 16  5  1  0  0  0  0
 17 16  2  0  0  0  0
 18 10  1  0  0  0  0
 19 10  1  0  0  0  0
 19 20  1  0  0  0  0
 22 25  2  0  0  0  0
 23 24  2  0  0  0  0
 24 26  1  0  0  0  0
 24 27  1  0  0  0  0
 25 28  1  0  0  0  0
 25 26  1  0  0  0  0
 26 21  1  0  0  0  0
 29 28  1  0  0  0  0
 30 29  1  0  0  0  0
 31 29  1  0  0  0  0
M  END
>  <MODEL>
4

>  <REMARK>
 VINA RESULT:      -4.9      1.774      3.021
  Name = 
  3 active torsions:
  status: ('A' for Active; 'I' for Inactive)
    1  A    between atoms: C_1  and  C_24
    2  A    between atoms: C_15  and  N_23
    3  A    between atoms: C_19  and  C_24
                            x       y       z     vdW  Elec       q    Type
                         _______ _______ _______ _____ _____    ______ ____

>  <TORSDO>
F 3

$$$$
=
 OpenBabel11052422293D

 31 34  0  0  1  0  0  0  0  0999 V2000
  161.2700  200.9560  148.9730 C   0  0  0  0  0  0  0  0  0  0  0  0
  162.0250  204.6340  148.4010 C   0  0  2  0  0  3  0  0  0  0  0  0
  161.3970  204.9960  147.0670 C   0  0  0  0  0  0  0  0  0  0  0  0
  160.5350  203.6340  145.1880 C   0  0  0  0  0  3  0  0  0  0  0  0
  161.4850  203.3730  149.0300 C   0  0  0  0  0  0  0  0  0  0  0  0
  160.4310  201.0010  150.0880 C   0  0  0  0  0  3  0  0  0  0  0  0
  160.2360  204.2120  146.5290 C   0  0  0  0  0  2  0  0  0  0  0  0
  160.6660  205.9480  150.0750 C   0  0  2  0  0  3  0  0  0  0  0  0
  161.5870  199.7070  148.3720 N   0  0  0  0  0  1  0  0  0  0  0  0
  162.7920  207.0030  147.1960 C   0  0  0  0  0  2  0  0  0  0  0  0
  160.7900  204.3880  144.1200 C   0  0  0  0  0  3  0  0  0  0  0  0
  160.3690  204.6940  150.8990 C   0  0  0  0  0  2  0  0  0  0  0  0
  162.0260  205.8420  149.3670 C   0  0  2  0  0  3  0  0  0  0  0  0
  161.7970  202.1380  148.4470 C   0  0  0  0  0  3  0  0  0  0  0  0
  160.8960  205.8590  144.1360 C   0  0  0  0  0  3  0  0  0  0  0  0
  160.6360  203.4170  150.1560 C   0  0  0  0  0  0  0  0  0  0  0  0
  160.1230  202.2270  150.6820 C   0  0  0  0  0  3  0  0  0  0  0  0
  162.3770  207.1720  148.6610 C   0  0  0  0  0  2  0  0  0  0  0  0
  161.8070  206.1330  146.4730 C   0  0  0  0  0  0  0  0  0  0  0  0
  161.3280  206.6100  145.1560 C   0  0  0  0  0  3  0  0  0  0  0  0
  160.4440  209.6030  152.3410 C   0  0  0  0  0  1  0  0  0  0  0  0
  161.3910  207.4490  155.1360 O   0  0  0  0  0  0  0  0  0  0  0  0
  161.4090  206.1250  152.8640 O   0  0  0  0  0  0  0  0  0  0  0  0
  160.9730  207.1700  152.3100 C   0  0  0  0  0  0  0  0  0  0  0  0
  161.1640  208.4880  154.4600 C   0  0  0  0  0  0  0  0  0  0  0  0
  160.8690  208.4020  153.0500 N   0  0  0  0  0  0  0  0  0  0  0  0
  160.5890  207.1340  150.9270 N   0  0  0  0  0  2  0  0  0  0  0  0
  161.2170  209.8150  155.1540 C   0  0  0  0  0  2  0  0  0  0  0  0
  160.1480  209.9070  156.2330 C   0  0  0  0  0  3  0  0  0  0  0  0
  158.8280  210.2850  155.5950 C   0  0  0  0  0  1  0  0  0  0  0  0
  160.5220  210.9590  157.2600 C   0  0  0  0  0  1  0  0  0  0  0  0
  1  6  1  0  0  0  0
  2  3  1  6  0  0  0
  2  5  1  0  0  0  0
  2 13  1  0  0  0  0
  4  7  1  0  0  0  0
  5 16  2  0  0  0  0
  6 17  2  0  0  0  0
  7  3  1  0  0  0  0
  8 12  1  0  0  0  0
  8 27  1  1  0  0  0
  9  1  1  0  0  0  0
 10 18  1  0  0  0  0
 11 15  1  0  0  0  0
 11  4  2  0  0  0  0
 13 18  1  6  0  0  0
 13  8  1  0  0  0  0
 14  1  2  0  0  0  0
 14  5  1  0  0  0  0
 15 20  2  0  0  0  0
 16 17  1  0  0  0  0
 16 12  1  0  0  0  0
 19  3  2  0  0  0  0
 19 10  1  0  0  0  0
 20 19  1  0  0  0  0
 21 26  1  0  0  0  0
 24 23  2  0  0  0  0
 24 26  1  0  0  0  0
 25 22  2  0  0  0  0
 25 28  1  0  0  0  0
 26 25  1  0  0  0  0
 27 24  1  0  0  0  0
 28 29  1  0  0  0  0
 29 31  1  0  0  0  0
 30 29  1  0  0  0  0
M  END
>  <MODEL>
5

>  <REMARK>
 VINA RESULT:      -4.8      2.860      9.029
  Name = 
  3 active torsions:
  status: ('A' for Active; 'I' for Inactive)
    1  A    between atoms: C_1  and  C_24
    2  A    between atoms: C_15  and  N_23
    3  A    between atoms: C_19  and  C_24
                            x       y       z     vdW  Elec       q    Type
                         _______ _______ _______ _____ _____    ______ ____

>  <TORSDO>
F 3

$$$$
=
 OpenBabel11052422293D

 31 34  0  0  1  0  0  0  0  0999 V2000
  161.1700  201.3950  149.0620 C   0  0  0  0  0  0  0  0  0  0  0  0
  162.1170  204.8740  150.2570 C   0  0  2  0  0  3  0  0  0  0  0  0
  161.5120  205.8460  149.2590 C   0  0  0  0  0  0  0  0  0  0  0  0
  160.5880  205.5620  146.9800 C   0  0  0  0  0  3  0  0  0  0  0  0
  161.5100  203.4920  150.2360 C   0  0  0  0  0  0  0  0  0  0  0  0
  160.3300  200.9530  150.0870 C   0  0  0  0  0  3  0  0  0  0  0  0
  160.3140  205.4610  148.4420 C   0  0  0  0  0  2  0  0  0  0  0  0
  160.8210  205.3160  152.3790 C   0  0  2  0  0  3  0  0  0  0  0  0
  161.4240  200.5580  147.9410 N   0  0  0  0  0  1  0  0  0  0  0  0
  163.0090  207.4920  150.2800 C   0  0  0  0  0  2  0  0  0  0  0  0
  160.8860  206.7150  146.3830 C   0  0  0  0  0  3  0  0  0  0  0  0
  160.4560  203.8390  152.5280 C   0  0  0  0  0  2  0  0  0  0  0  0
  162.1760  205.4890  151.6750 C   0  0  2  0  0  3  0  0  0  0  0  0
  161.7590  202.6590  149.1370 C   0  0  0  0  0  3  0  0  0  0  0  0
  161.0680  208.0010  147.0810 C   0  0  0  0  0  3  0  0  0  0  0  0
  160.6590  203.0450  151.2700 C   0  0  0  0  0  0  0  0  0  0  0  0
  160.0840  201.7730  151.1900 C   0  0  0  0  0  3  0  0  0  0  0  0
  162.5980  206.9770  151.6630 C   0  0  0  0  0  2  0  0  0  0  0  0
  161.9830  207.1080  149.2560 C   0  0  0  0  0  0  0  0  0  0  0  0
  161.5340  208.1670  148.3240 C   0  0  0  0  0  3  0  0  0  0  0  0
  160.7090  206.9790  156.3490 C   0  0  0  0  0  1  0  0  0  0  0  0
  160.4250  210.1570  154.5690 O   0  0  0  0  0  0  0  0  0  0  0  0
  160.3690  208.1230  152.9030 O   0  0  0  0  0  0  0  0  0  0  0  0
  160.5700  207.3710  153.8950 C   0  0  0  0  0  0  0  0  0  0  0  0
  160.4090  209.3140  155.5050 C   0  0  0  0  0  0  0  0  0  0  0  0
  160.5590  207.9040  155.2330 N   0  0  0  0  0  0  0  0  0  0  0  0
  160.8020  205.9690  153.6870 N   0  0  0  0  0  2  0  0  0  0  0  0
  160.2230  209.8090  156.9070 C   0  0  0  0  0  2  0  0  0  0  0  0
  161.2760  210.8490  157.2600 C   0  0  0  0  0  3  0  0  0  0  0  0
  160.7490  212.2270  156.9190 C   0  0  0  0  0  1  0  0  0  0  0  0
  162.5520  210.5980  156.4780 C   0  0  0  0  0  1  0  0  0  0  0  0
  1 14  2  0  0  0  0
  1  6  1  0  0  0  0
  2  3  1  6  0  0  0
  2 13  1  0  0  0  0
  4  7  1  0  0  0  0
  5  2  1  0  0  0  0
  5 16  2  0  0  0  0
  6 17  2  0  0  0  0
  7  3  1  0  0  0  0
  8 12  1  0  0  0  0
  8 27  1  1  0  0  0
  9  1  1  0  0  0  0
 10 18  1  0  0  0  0
 11  4  2  0  0  0  0
 11 15  1  0  0  0  0
 13 18  1  6  0  0  0
 13  8  1  0  0  0  0
 14  5  1  0  0  0  0
 15 20  2  0  0  0  0
 16 12  1  0  0  0  0
 17 16  1  0  0  0  0
 19  3  2  0  0  0  0
 19 10  1  0  0  0  0
 20 19  1  0  0  0  0
 22 25  2  0  0  0  0
 23 24  2  0  0  0  0
 24 26  1  0  0  0  0
 25 28  1  0  0  0  0
 26 25  1  0  0  0  0
 26 21  1  0  0  0  0
 27 24  1  0  0  0  0
 28 29  1  0  0  0  0
 30 29  1  0  0  0  0
 31 29  1  0  0  0  0
M  END
>  <MODEL>
6

>  <REMARK>
 VINA RESULT:      -4.2      3.168      8.766
  Name = 
  3 active torsions:
  status: ('A' for Active; 'I' for Inactive)
    1  A    between atoms: C_1  and  C_24
    2  A    between atoms: C_15  and  N_23
    3  A    between atoms: C_19  and  C_24
                            x       y       z     vdW  Elec       q    Type
                         _______ _______ _______ _____ _____    ______ ____

>  <TORSDO>
F 3

$$$$
=
 OpenBabel11052422293D

 31 34  0  0  1  0  0  0  0  0999 V2000
  162.2000  212.1710  148.9270 C   0  0  0  0  0  0  0  0  0  0  0  0
  162.0020  209.3780  151.4940 C   0  0  2  0  0  3  0  0  0  0  0  0
  160.8880  209.7580  152.4520 C   0  0  0  0  0  0  0  0  0  0  0  0
  159.6900  211.8810  152.8840 C   0  0  0  0  0  3  0  0  0  0  0  0
  161.9650  210.0980  150.1680 C   0  0  0  0  0  0  0  0  0  0  0  0
  161.8150  211.5170  147.7550 C   0  0  0  0  0  3  0  0  0  0  0  0
  159.7800  210.6720  152.0170 C   0  0  0  0  0  2  0  0  0  0  0  0
  161.1010  207.3360  150.3120 C   0  0  2  0  0  3  0  0  0  0  0  0
  162.5110  213.5580  148.8980 N   0  0  0  0  0  1  0  0  0  0  0  0
  161.8370  208.0310  153.9040 C   0  0  0  0  0  2  0  0  0  0  0  0
  159.4060  211.8140  154.1840 C   0  0  0  0  0  3  0  0  0  0  0  0
  161.3530  207.9540  148.9360 C   0  0  0  0  0  2  0  0  0  0  0  0
  162.1170  207.8430  151.3470 C   0  0  2  0  0  3  0  0  0  0  0  0
  162.2760  211.4630  150.1290 C   0  0  0  0  0  3  0  0  0  0  0  0
  159.2340  210.5620  154.9430 C   0  0  0  0  0  3  0  0  0  0  0  0
  161.5750  209.4380  148.9820 C   0  0  0  0  0  0  0  0  0  0  0  0
  161.5130  210.1540  147.7820 C   0  0  0  0  0  3  0  0  0  0  0  0
  161.9420  207.1000  152.6920 C   0  0  0  0  0  2  0  0  0  0  0  0
  160.8410  209.1210  153.6380 C   0  0  0  0  0  0  0  0  0  0  0  0
  159.8500  209.3990  154.7000 C   0  0  0  0  0  3  0  0  0  0  0  0
  161.2380  203.0330  150.2870 C   0  0  0  0  0  1  0  0  0  0  0  0
  160.7770  203.4460  146.6860 O   0  0  0  0  0  0  0  0  0  0  0  0
  161.0680  205.7690  147.8820 O   0  0  0  0  0  0  0  0  0  0  0  0
  161.0940  205.1450  148.9780 C   0  0  0  0  0  0  0  0  0  0  0  0
  161.0280  202.9090  147.7990 C   0  0  0  0  0  0  0  0  0  0  0  0
  161.1190  203.7050  148.9990 N   0  0  0  0  0  0  0  0  0  0  0  0
  161.1090  205.8770  150.2130 N   0  0  0  0  0  2  0  0  0  0  0  0
  161.2360  201.4260  147.8430 C   0  0  0  0  0  2  0  0  0  0  0  0
  161.3290  200.8470  146.4390 C   0  0  0  0  0  3  0  0  0  0  0  0
  160.0260  201.1010  145.7090 C   0  0  0  0  0  1  0  0  0  0  0  0
  161.5810  199.3530  146.4980 C   0  0  0  0  0  1  0  0  0  0  0  0
  1 14  1  0  0  0  0
  2  5  1  6  0  0  0
  2  3  1  0  0  0  0
  3 19  2  0  0  0  0
  4 11  2  0  0  0  0
  6 17  1  0  0  0  0
  6  1  2  0  0  0  0
  7  3  1  0  0  0  0
  7  4  1  0  0  0  0
  8 27  1  6  0  0  0
  8 13  1  0  0  0  0
  9  1  1  0  0  0  0
 11 15  1  0  0  0  0
 12 16  1  0  0  0  0
 12  8  1  0  0  0  0
 13  2  1  0  0  0  0
 13 18  1  1  0  0  0
 14  5  2  0  0  0  0
 16  5  1  0  0  0  0
 17 16  2  0  0  0  0
 18 10  1  0  0  0  0
 19 10  1  0  0  0  0
 19 20  1  0  0  0  0
 20 15  2  0  0  0  0
 22 25  2  0  0  0  0
 23 24  2  0  0  0  0
 24 26  1  0  0  0  0
 24 27  1  0  0  0  0
 25 28  1  0  0  0  0
 25 26  1  0  0  0  0
 26 21  1  0  0  0  0
 29 31  1  0  0  0  0
 29 28  1  0  0  0  0
 30 29  1  0  0  0  0
M  END
>  <MODEL>
7

>  <REMARK>
 VINA RESULT:      -4.2      1.169      1.444
  Name = 
  3 active torsions:
  status: ('A' for Active; 'I' for Inactive)
    1  A    between atoms: C_1  and  C_24
    2  A    between atoms: C_15  and  N_23
    3  A    between atoms: C_19  and  C_24
                            x       y       z     vdW  Elec       q    Type
                         _______ _______ _______ _____ _____    ______ ____

>  <TORSDO>
F 3

$$$$
=
 OpenBabel11052422293D

 31 34  0  0  1  0  0  0  0  0999 V2000
  161.0670  201.5450  149.4200 C   0  0  0  0  0  0  0  0  0  0  0  0
  162.1020  205.0960  150.2850 C   0  0  2  0  0  3  0  0  0  0  0  0
  161.4920  205.9890  149.2190 C   0  0  0  0  0  0  0  0  0  0  0  0
  160.5110  205.5260  146.9940 C   0  0  0  0  0  3  0  0  0  0  0  0
  161.4710  203.7300  150.3980 C   0  0  0  0  0  0  0  0  0  0  0  0
  160.2440  201.2110  150.4970 C   0  0  0  0  0  3  0  0  0  0  0  0
  160.2690  205.5580  148.4650 C   0  0  0  0  0  2  0  0  0  0  0  0
  160.8640  205.7470  152.3870 C   0  0  2  0  0  3  0  0  0  0  0  0
  161.2800  200.6100  148.3710 N   0  0  0  0  0  1  0  0  0  0  0  0
  163.0410  207.6880  150.0600 C   0  0  0  0  0  2  0  0  0  0  0  0
  160.8140  206.6170  146.2920 C   0  0  0  0  0  3  0  0  0  0  0  0
  160.4770  204.2950  152.6730 C   0  0  0  0  0  2  0  0  0  0  0  0
  162.2050  205.8310  151.6420 C   0  0  2  0  0  3  0  0  0  0  0  0
  161.6800  202.8000  149.3710 C   0  0  0  0  0  3  0  0  0  0  0  0
  161.0350  207.9550  146.8710 C   0  0  0  0  0  3  0  0  0  0  0  0
  160.6370  203.3910  151.4850 C   0  0  0  0  0  0  0  0  0  0  0  0
  160.0370  202.1280  151.5300 C   0  0  0  0  0  3  0  0  0  0  0  0
  162.6530  207.3040  151.4910 C   0  0  0  0  0  2  0  0  0  0  0  0
  161.9840  207.2370  149.0950 C   0  0  0  0  0  0  0  0  0  0  0  0
  161.5330  208.2190  148.0850 C   0  0  0  0  0  3  0  0  0  0  0  0
  160.8820  207.7490  156.1990 C   0  0  0  0  0  1  0  0  0  0  0  0
  160.5090  210.7580  154.1610 O   0  0  0  0  0  0  0  0  0  0  0  0
  160.4090  208.5870  152.6810 O   0  0  0  0  0  0  0  0  0  0  0  0
  160.6520  207.9250  153.7270 C   0  0  0  0  0  0  0  0  0  0  0  0
  160.5340  210.0000  155.1670 C   0  0  0  0  0  0  0  0  0  0  0  0
  160.6840  208.5730  155.0130 N   0  0  0  0  0  0  0  0  0  0  0  0
  160.8870  206.5110  153.6340 N   0  0  0  0  0  2  0  0  0  0  0  0
  160.3940  210.6140  156.5260 C   0  0  0  0  0  2  0  0  0  0  0  0
  159.5860  211.9020  156.4610 C   0  0  0  0  0  3  0  0  0  0  0  0
  160.4050  213.0350  157.0410 C   0  0  0  0  0  1  0  0  0  0  0  0
  158.3010  211.7610  157.2560 C   0  0  0  0  0  1  0  0  0  0  0  0
  1  6  1  0  0  0  0
  2  3  1  6  0  0  0
  2  5  1  0  0  0  0
  2 13  1  0  0  0  0
  4  7  1  0  0  0  0
  5 16  2  0  0  0  0
  6 17  2  0  0  0  0
  7  3  1  0  0  0  0
  8 12  1  0  0  0  0
  8 27  1  1  0  0  0
  9  1  1  0  0  0  0
 10 18  1  0  0  0  0
 11 15  1  0  0  0  0
 11  4  2  0  0  0  0
 13 18  1  6  0  0  0
 13  8  1  0  0  0  0
 14  1  2  0  0  0  0
 14  5  1  0  0  0  0
 15 20  2  0  0  0  0
 16 17  1  0  0  0  0
 16 12  1  0  0  0  0
 19  3  2  0  0  0  0
 19 10  1  0  0  0  0
 20 19  1  0  0  0  0
 22 25  2  0  0  0  0
 23 24  2  0  0  0  0
 24 26  1  0  0  0  0
 25 28  1  0  0  0  0
 26 25  1  0  0  0  0
 26 21  1  0  0  0  0
 27 24  1  0  0  0  0
 29 28  1  0  0  0  0
 29 30  1  0  0  0  0
 29 31  1  0  0  0  0
M  END
>  <MODEL>
8

>  <REMARK>
 VINA RESULT:      -4.1      3.177      8.962
  Name = 
  3 active torsions:
  status: ('A' for Active; 'I' for Inactive)
    1  A    between atoms: C_1  and  C_24
    2  A    between atoms: C_15  and  N_23
    3  A    between atoms: C_19  and  C_24
                            x       y       z     vdW  Elec       q    Type
                         _______ _______ _______ _____ _____    ______ ____

>  <TORSDO>
F 3

$$$$
=
 OpenBabel11052422293D

 31 34  0  0  1  0  0  0  0  0999 V2000
  160.6840  204.5110  150.4100 C   0  0  0  0  0  0  0  0  0  0  0  0
  160.5720  208.1680  151.4300 C   0  0  2  0  0  3  0  0  0  0  0  0
  161.1510  208.2370  152.8320 C   0  0  0  0  0  0  0  0  0  0  0  0
  161.6000  206.5160  154.5550 C   0  0  0  0  0  3  0  0  0  0  0  0
  160.9190  206.9130  150.6670 C   0  0  0  0  0  0  0  0  0  0  0  0
  161.6010  204.5290  149.3570 C   0  0  0  0  0  3  0  0  0  0  0  0
  162.1040  207.1860  153.3210 C   0  0  0  0  0  2  0  0  0  0  0  0
  162.2740  209.3910  150.0220 C   0  0  2  0  0  3  0  0  0  0  0  0
  160.0990  203.2820  150.8200 N   0  0  0  0  0  1  0  0  0  0  0  0
  160.1600  210.4740  152.9010 C   0  0  0  0  0  2  0  0  0  0  0  0
  161.4060  207.1690  155.6990 C   0  0  0  0  0  3  0  0  0  0  0  0
  162.4000  208.2140  149.0550 C   0  0  0  0  0  2  0  0  0  0  0  0
  160.8670  209.4620  150.6370 C   0  0  2  0  0  3  0  0  0  0  0  0
  160.3430  205.6980  151.0620 C   0  0  0  0  0  3  0  0  0  0  0  0
  161.5720  208.6240  155.8750 C   0  0  0  0  0  3  0  0  0  0  0  0
  161.8470  206.9310  149.6040 C   0  0  0  0  0  0  0  0  0  0  0  0
  162.1730  205.7370  148.9510 C   0  0  0  0  0  3  0  0  0  0  0  0
  160.7120  210.7380  151.4960 C   0  0  0  0  0  2  0  0  0  0  0  0
  160.9110  209.3500  153.5520 C   0  0  0  0  0  0  0  0  0  0  0  0
  161.3650  209.5620  154.9440 C   0  0  0  0  0  3  0  0  0  0  0  0
  163.4870  213.1260  148.2570 C   0  0  0  0  0  1  0  0  0  0  0  0
  160.7230  212.4700  145.9600 O   0  0  0  0  0  0  0  0  0  0  0  0
  160.8240  210.6650  147.8700 O   0  0  0  0  0  0  0  0  0  0  0  0
  161.8750  211.2300  148.2780 C   0  0  0  0  0  0  0  0  0  0  0  0
  161.6450  213.0780  146.5670 C   0  0  0  0  0  0  0  0  0  0  0  0
  162.3150  212.4690  147.6910 N   0  0  0  0  0  0  0  0  0  0  0  0
  162.6330  210.6360  149.3430 N   0  0  0  0  0  2  0  0  0  0  0  0
  162.0220  214.4510  146.1000 C   0  0  0  0  0  2  0  0  0  0  0  0
  162.5530  214.4130  144.6750 C   0  0  0  0  0  3  0  0  0  0  0  0
  161.3870  214.3350  143.7110 C   0  0  0  0  0  1  0  0  0  0  0  0
  163.4440  213.2020  144.4740 C   0  0  0  0  0  1  0  0  0  0  0  0
  1  9  1  0  0  0  0
  1 14  1  0  0  0  0
  2  5  1  6  0  0  0
  2  3  1  0  0  0  0
  3  7  1  0  0  0  0
  3 19  2  0  0  0  0
  4 11  2  0  0  0  0
  5 14  2  0  0  0  0
  6  1  2  0  0  0  0
  7  4  1  0  0  0  0
  8 27  1  6  0  0  0
  8 13  1  0  0  0  0
 10 19  1  0  0  0  0
 11 15  1  0  0  0  0
 12 16  1  0  0  0  0
 12  8  1  0  0  0  0
 13  2  1  0  0  0  0
 13 18  1  1  0  0  0
 16  5  1  0  0  0  0
 17  6  1  0  0  0  0
 17 16  2  0  0  0  0
 18 10  1  0  0  0  0
 19 20  1  0  0  0  0
 20 15  2  0  0  0  0
 22 25  2  0  0  0  0
 23 24  2  0  0  0  0
 24 27  1  0  0  0  0
 25 26  1  0  0  0  0
 26 21  1  0  0  0  0
 26 24  1  0  0  0  0
 28 25  1  0  0  0  0
 29 28  1  0  0  0  0
 30 29  1  0  0  0  0
 31 29  1  0  0  0  0
M  END
>  <MODEL>
9

>  <REMARK>
 VINA RESULT:      -3.9      3.171      7.554
  Name = 
  3 active torsions:
  status: ('A' for Active; 'I' for Inactive)
    1  A    between atoms: C_1  and  C_24
    2  A    between atoms: C_15  and  N_23
    3  A    between atoms: C_19  and  C_24
                            x       y       z     vdW  Elec       q    Type
                         _______ _______ _______ _____ _____    ______ ____

>  <TORSDO>
F 3

$$$$
