=
 OpenBabel11052422263D

 31 33  0  0  1  0  0  0  0  0999 V2000
  160.0430  210.7630  154.1800 C   0  0  0  0  0  0  0  0  0  0  0  0
  158.9410  211.6240  154.3820 C   0  0  0  0  0  0  0  0  0  0  0  0
  156.8570  211.3050  155.6660 C   0  0  0  0  0  3  0  0  0  0  0  0
  158.2860  211.7200  155.7290 C   0  0  0  0  0  2  0  0  0  0  0  0
  159.1980  212.4240  152.1500 N   0  0  0  0  0  0  0  0  0  0  0  0
  155.9440  211.9830  154.9710 C   0  0  0  0  0  3  0  0  0  0  0  0
  160.6780  210.7700  152.9270 C   0  0  0  0  0  0  0  0  0  0  0  0
  156.2320  213.1520  154.1240 C   0  0  0  0  0  3  0  0  0  0  0  0
  160.2390  211.6160  151.9590 N   0  0  0  0  0  0  0  0  0  0  0  0
  158.5100  212.4430  153.3190 C   0  0  0  0  0  0  0  0  0  0  0  0
  157.3490  213.3520  153.4100 C   0  0  0  0  0  3  0  0  0  0  0  0
  161.8010  209.8260  152.6280 C   0  0  2  0  0  3  0  0  0  0  0  0
  162.9940  210.3060  153.1710 O   0  0  0  0  0  1  0  0  0  0  0  0
  161.3650  207.3710  151.2960 N   0  0  0  0  0  2  0  0  0  0  0  0
  161.9050  208.5380  149.0820 C   0  0  0  0  0  1  0  0  0  0  0  0
  161.7580  208.5490  150.5660 C   0  0  0  0  0  0  0  0  0  0  0  0
  161.9370  209.6740  151.1840 N   0  0  0  0  0  0  0  0  0  0  0  0
  161.2570  203.6200  151.1230 C   0  0  0  0  0  0  0  0  0  0  0  0
  160.8470  204.5430  148.9220 C   0  0  0  0  0  3  0  0  0  0  0  0
  161.3990  202.5460  151.9360 F   0  0  0  0  0  0  0  0  0  0  0  0
  161.3820  204.9120  151.6410 C   0  0  0  0  0  3  0  0  0  0  0  0
  160.9780  205.8350  149.4420 C   0  0  0  0  0  3  0  0  0  0  0  0
  161.2510  206.0280  150.8030 C   0  0  0  0  0  0  0  0  0  0  0  0
  160.9860  203.4350  149.7640 C   0  0  0  0  0  3  0  0  0  0  0  0
  160.5640  209.8390  155.2540 C   0  0  1  0  0  3  0  0  0  0  0  0
  161.3370  210.5940  156.3300 C   0  0  0  0  0  2  0  0  0  0  0  0
  162.6350  209.9770  156.5540 N   0  0  0  0  0  2  0  0  0  0  0  0
  163.5680  210.9390  156.3570 O   0  0  0  0  0  1  0  0  0  0  0  0
  159.4540  208.9750  155.8310 C   0  0  0  0  0  2  0  0  0  0  0  0
  160.7070  206.9820  154.7030 C   0  0  0  0  0  1  0  0  0  0  0  0
  160.1340  207.3800  156.3750 S   0  0  0  0  0  0  0  0  0  0  0  0
  1  2  1  0  0  0  0
  1 25  1  0  0  0  0
  2  4  1  0  0  0  0
  3  4  1  0  0  0  0
  5 10  1  0  0  0  0
  6  3  2  0  0  0  0
  7  1  2  0  0  0  0
  8  6  1  0  0  0  0
  9  5  2  0  0  0  0
  9  7  1  0  0  0  0
 10 11  1  0  0  0  0
 10  2  2  0  0  0  0
 11  8  2  0  0  0  0
 12  7  1  0  0  0  0
 12 13  1  6  0  0  0
 15 16  1  0  0  0  0
 16 17  2  0  0  0  0
 16 14  1  0  0  0  0
 17 12  1  0  0  0  0
 18 21  1  0  0  0  0
 18 20  1  0  0  0  0
 19 22  2  0  0  0  0
 19 24  1  0  0  0  0
 22 23  1  0  0  0  0
 23 14  1  0  0  0  0
 23 21  2  0  0  0  0
 24 18  2  0  0  0  0
 25 29  1  1  0  0  0
 25 26  1  0  0  0  0
 26 27  1  0  0  0  0
 28 27  1  0  0  0  0
 29 31  1  0  0  0  0
 30 31  1  0  0  0  0
M  END
>  <MODEL>
1

>  <REMARK>
 VINA RESULT:      -7.3      0.000      0.000
  Name = 
  8 active torsions:
  status: ('A' for Active; 'I' for Inactive)
    1  A    between atoms: N_2  and  C_25
    2  A    between atoms: N_3  and  C_22
    3  A    between atoms: C_4  and  C_12
    4  A    between atoms: C_12  and  C_25
    5  A    between atoms: C_12  and  C_27
    6  A    between atoms: C_15  and  C_21
    7  A    between atoms: C_15  and  N_23
    8  A    between atoms: C_27  and  S_28
                            x       y       z     vdW  Elec       q    Type
                         _______ _______ _______ _____ _____    ______ ____

>  <TORSDO>
F 8

$$$$
=
 OpenBabel11052422263D

 31 33  0  0  1  0  0  0  0  0999 V2000
  159.7380  210.7660  154.5510 C   0  0  0  0  0  0  0  0  0  0  0  0
  158.5770  211.5670  154.6190 C   0  0  0  0  0  0  0  0  0  0  0  0
  156.3450  211.0990  155.5660 C   0  0  0  0  0  3  0  0  0  0  0  0
  157.7270  211.5730  155.8560 C   0  0  0  0  0  2  0  0  0  0  0  0
  159.1180  212.4770  152.4820 N   0  0  0  0  0  0  0  0  0  0  0  0
  155.5110  211.7670  154.7690 C   0  0  0  0  0  3  0  0  0  0  0  0
  160.5490  210.8560  153.4080 C   0  0  0  0  0  0  0  0  0  0  0  0
  155.8610  212.9840  154.0180 C   0  0  0  0  0  3  0  0  0  0  0  0
  160.2150  211.7250  152.4170 N   0  0  0  0  0  0  0  0  0  0  0  0
  158.2660  212.4130  153.5350 C   0  0  0  0  0  0  0  0  0  0  0  0
  157.0590  213.2650  153.4870 C   0  0  0  0  0  3  0  0  0  0  0  0
  161.7500  209.9780  153.2430 C   0  0  2  0  0  3  0  0  0  0  0  0
  162.8660  210.5680  153.8380 O   0  0  0  0  0  1  0  0  0  0  0  0
  161.3240  207.4850  151.9820 N   0  0  0  0  0  2  0  0  0  0  0  0
  162.0970  208.5290  149.7760 C   0  0  0  0  0  1  0  0  0  0  0  0
  161.8260  208.6120  151.2400 C   0  0  0  0  0  0  0  0  0  0  0  0
  162.0000  209.7560  151.8250 N   0  0  0  0  0  0  0  0  0  0  0  0
  160.9910  204.4580  149.7810 C   0  0  0  0  0  0  0  0  0  0  0  0
  161.0670  203.7670  152.1010 C   0  0  0  0  0  3  0  0  0  0  0  0
  160.8930  204.1440  148.4670 F   0  0  0  0  0  0  0  0  0  0  0  0
  161.1090  205.7930  150.1760 C   0  0  0  0  0  3  0  0  0  0  0  0
  161.1780  205.1040  152.4940 C   0  0  0  0  0  3  0  0  0  0  0  0
  161.1950  206.1270  151.5360 C   0  0  0  0  0  0  0  0  0  0  0  0
  160.9740  203.4440  150.7430 C   0  0  0  0  0  3  0  0  0  0  0  0
  160.1420  209.8190  155.6550 C   0  0  1  0  0  3  0  0  0  0  0  0
  160.7620  208.5380  155.1090 C   0  0  0  0  0  2  0  0  0  0  0  0
  159.8450  207.4200  155.2660 N   0  0  0  0  0  2  0  0  0  0  0  0
  159.8660  207.0730  156.5760 O   0  0  0  0  0  1  0  0  0  0  0  0
  161.0310  210.5060  156.6810 C   0  0  0  0  0  2  0  0  0  0  0  0
  163.5590  210.8190  157.2510 C   0  0  0  0  0  1  0  0  0  0  0  0
  162.4170  209.4180  157.1220 S   0  0  0  0  0  0  0  0  0  0  0  0
  1  2  1  0  0  0  0
  1 25  1  0  0  0  0
  2  4  1  0  0  0  0
  3  4  1  0  0  0  0
  5 10  1  0  0  0  0
  6  3  2  0  0  0  0
  7  1  2  0  0  0  0
  8  6  1  0  0  0  0
  9  5  2  0  0  0  0
  9  7  1  0  0  0  0
 10  2  2  0  0  0  0
 11 10  1  0  0  0  0
 11  8  2  0  0  0  0
 12  7  1  0  0  0  0
 12 13  1  6  0  0  0
 15 16  1  0  0  0  0
 16 17  2  0  0  0  0
 16 14  1  0  0  0  0
 17 12  1  0  0  0  0
 18 21  2  0  0  0  0
 18 24  1  0  0  0  0
 19 22  1  0  0  0  0
 20 18  1  0  0  0  0
 21 23  1  0  0  0  0
 23 14  1  0  0  0  0
 23 22  2  0  0  0  0
 24 19  2  0  0  0  0
 25 26  1  6  0  0  0
 25 29  1  0  0  0  0
 26 27  1  0  0  0  0
 27 28  1  0  0  0  0
 29 31  1  0  0  0  0
 31 30  1  0  0  0  0
M  END
>  <MODEL>
2

>  <REMARK>
 VINA RESULT:      -6.7      1.672      2.152
  Name = 
  8 active torsions:
  status: ('A' for Active; 'I' for Inactive)
    1  A    between atoms: N_2  and  C_25
    2  A    between atoms: N_3  and  C_22
    3  A    between atoms: C_4  and  C_12
    4  A    between atoms: C_12  and  C_25
    5  A    between atoms: C_12  and  C_27
    6  A    between atoms: C_15  and  C_21
    7  A    between atoms: C_15  and  N_23
    8  A    between atoms: C_27  and  S_28
                            x       y       z     vdW  Elec       q    Type
                         _______ _______ _______ _____ _____    ______ ____

>  <TORSDO>
F 8

$$$$
=
 OpenBabel11052422263D

 31 33  0  0  1  0  0  0  0  0999 V2000
  161.3360  205.9760  150.3350 C   0  0  0  0  0  0  0  0  0  0  0  0
  161.3970  204.5680  150.2570 C   0  0  0  0  0  0  0  0  0  0  0  0
  160.3950  202.9940  148.6390 C   0  0  0  0  0  3  0  0  0  0  0  0
  161.5540  203.8840  148.9300 C   0  0  0  0  0  2  0  0  0  0  0  0
  161.3610  204.4650  152.6390 N   0  0  0  0  0  0  0  0  0  0  0  0
  160.1220  201.9130  149.3690 C   0  0  0  0  0  3  0  0  0  0  0  0
  161.2750  206.5750  151.6040 C   0  0  0  0  0  0  0  0  0  0  0  0
  160.8550  201.5110  150.5810 C   0  0  0  0  0  3  0  0  0  0  0  0
  161.3060  205.7930  152.7150 N   0  0  0  0  0  0  0  0  0  0  0  0
  161.3800  203.8160  151.4490 C   0  0  0  0  0  0  0  0  0  0  0  0
  161.4040  202.3380  151.4800 C   0  0  0  0  0  3  0  0  0  0  0  0
  161.1310  208.0580  151.7500 C   0  0  2  0  0  3  0  0  0  0  0  0
  162.2980  208.7010  151.3350 O   0  0  0  0  0  1  0  0  0  0  0  0
  159.7110  210.3750  152.5280 N   0  0  0  0  0  2  0  0  0  0  0  0
  159.9780  209.6550  154.9690 C   0  0  0  0  0  1  0  0  0  0  0  0
  160.2180  209.4540  153.5120 C   0  0  0  0  0  0  0  0  0  0  0  0
  160.8510  208.3850  153.1430 N   0  0  0  0  0  0  0  0  0  0  0  0
  157.4450  213.0920  153.7920 C   0  0  0  0  0  0  0  0  0  0  0  0
  159.1210  214.0520  152.3330 C   0  0  0  0  0  3  0  0  0  0  0  0
  156.3620  213.2410  154.5930 F   0  0  0  0  0  0  0  0  0  0  0  0
  157.9980  211.8240  153.5930 C   0  0  0  0  0  3  0  0  0  0  0  0
  159.6690  212.7820  152.1300 C   0  0  0  0  0  3  0  0  0  0  0  0
  159.1100  211.6590  152.7530 C   0  0  0  0  0  0  0  0  0  0  0  0
  158.0080  214.2060  153.1660 C   0  0  0  0  0  3  0  0  0  0  0  0
  161.3320  206.8620  149.1130 C   0  0  1  0  0  3  0  0  0  0  0  0
  162.7440  207.2100  148.6560 C   0  0  0  0  0  2  0  0  0  0  0  0
  162.8060  208.5860  148.1900 N   0  0  0  0  0  2  0  0  0  0  0  0
  161.6170  209.1600  148.4980 O   0  0  0  0  0  1  0  0  0  0  0  0
  160.4870  206.2660  147.9960 C   0  0  0  0  0  2  0  0  0  0  0  0
  160.0990  206.1650  145.4170 C   0  0  0  0  0  1  0  0  0  0  0  0
  161.5180  205.9840  146.5280 S   0  0  0  0  0  0  0  0  0  0  0  0
  1  7  1  0  0  0  0
  2  1  2  0  0  0  0
  2 10  1  0  0  0  0
  3  4  1  0  0  0  0
  3  6  2  0  0  0  0
  4  2  1  0  0  0  0
  5  9  1  0  0  0  0
  6  8  1  0  0  0  0
  7 12  1  0  0  0  0
  7  9  2  0  0  0  0
  8 11  2  0  0  0  0
 10 11  1  0  0  0  0
 10  5  2  0  0  0  0
 12 13  1  1  0  0  0
 12 17  1  0  0  0  0
 14 23  1  0  0  0  0
 14 16  1  0  0  0  0
 16 15  1  0  0  0  0
 17 16  2  0  0  0  0
 18 20  1  0  0  0  0
 19 24  1  0  0  0  0
 21 18  1  0  0  0  0
 22 19  2  0  0  0  0
 22 23  1  0  0  0  0
 23 21  2  0  0  0  0
 24 18  2  0  0  0  0
 25 29  1  6  0  0  0
 25  1  1  0  0  0  0
 26 25  1  0  0  0  0
 27 28  1  0  0  0  0
 27 26  1  0  0  0  0
 30 31  1  0  0  0  0
 31 29  1  0  0  0  0
M  END
>  <MODEL>
3

>  <REMARK>
 VINA RESULT:      -6.6      3.464      8.600
  Name = 
  8 active torsions:
  status: ('A' for Active; 'I' for Inactive)
    1  A    between atoms: N_2  and  C_25
    2  A    between atoms: N_3  and  C_22
    3  A    between atoms: C_4  and  C_12
    4  A    between atoms: C_12  and  C_25
    5  A    between atoms: C_12  and  C_27
    6  A    between atoms: C_15  and  C_21
    7  A    between atoms: C_15  and  N_23
    8  A    between atoms: C_27  and  S_28
                            x       y       z     vdW  Elec       q    Type
                         _______ _______ _______ _____ _____    ______ ____

>  <TORSDO>
F 8

$$$$
=
 OpenBabel11052422263D

 31 33  0  0  1  0  0  0  0  0999 V2000
  161.1890  205.3040  150.5540 C   0  0  0  0  0  0  0  0  0  0  0  0
  161.3560  204.0050  150.0270 C   0  0  0  0  0  0  0  0  0  0  0  0
  160.4550  202.9640  147.9770 C   0  0  0  0  0  3  0  0  0  0  0  0
  161.5470  203.7990  148.5520 C   0  0  0  0  0  2  0  0  0  0  0  0
  161.3610  203.1380  152.2480 N   0  0  0  0  0  0  0  0  0  0  0  0
  160.2750  201.6880  148.3160 C   0  0  0  0  0  3  0  0  0  0  0  0
  161.1000  205.4550  151.9480 C   0  0  0  0  0  0  0  0  0  0  0  0
  161.0540  200.9740  149.3420 C   0  0  0  0  0  3  0  0  0  0  0  0
  161.2060  204.3630  152.7480 N   0  0  0  0  0  0  0  0  0  0  0  0
  161.4130  202.9100  150.9130 C   0  0  0  0  0  0  0  0  0  0  0  0
  161.5510  201.5070  150.4660 C   0  0  0  0  0  3  0  0  0  0  0  0
  160.8460  206.7970  152.5620 C   0  0  2  0  0  3  0  0  0  0  0  0
  161.9920  207.5900  152.4840 O   0  0  0  0  0  1  0  0  0  0  0  0
  160.2670  208.9740  154.2690 N   0  0  0  0  0  2  0  0  0  0  0  0
  159.7860  207.3040  156.1480 C   0  0  0  0  0  1  0  0  0  0  0  0
  160.2030  207.6190  154.7520 C   0  0  0  0  0  0  0  0  0  0  0  0
  160.4520  206.6270  153.9560 N   0  0  0  0  0  0  0  0  0  0  0  0
  158.8690  212.0600  155.8930 C   0  0  0  0  0  0  0  0  0  0  0  0
  161.2090  211.8300  156.4730 C   0  0  0  0  0  3  0  0  0  0  0  0
  157.7020  212.7430  155.9760 F   0  0  0  0  0  0  0  0  0  0  0  0
  158.9430  210.8890  155.1350 C   0  0  0  0  0  3  0  0  0  0  0  0
  161.2810  210.6610  155.7090 C   0  0  0  0  0  3  0  0  0  0  0  0
  160.1510  210.1850  155.0310 C   0  0  0  0  0  0  0  0  0  0  0  0
  160.0010  212.5290  156.5650 C   0  0  0  0  0  3  0  0  0  0  0  0
  161.1010  206.5330  149.6820 C   0  0  1  0  0  3  0  0  0  0  0  0
  162.4510  207.2260  149.5350 C   0  0  0  0  0  2  0  0  0  0  0  0
  162.3320  208.6450  149.8270 N   0  0  0  0  0  2  0  0  0  0  0  0
  162.2920  209.2910  148.6360 O   0  0  0  0  0  1  0  0  0  0  0  0
  160.4560  206.2190  148.3410 C   0  0  0  0  0  2  0  0  0  0  0  0
  160.3970  206.2040  145.7310 C   0  0  0  0  0  1  0  0  0  0  0  0
  161.6540  206.4930  147.0030 S   0  0  0  0  0  0  0  0  0  0  0  0
  1  7  1  0  0  0  0
  2  1  2  0  0  0  0
  2 10  1  0  0  0  0
  3  6  2  0  0  0  0
  3  4  1  0  0  0  0
  4  2  1  0  0  0  0
  5  9  1  0  0  0  0
  6  8  1  0  0  0  0
  7 12  1  0  0  0  0
  7  9  2  0  0  0  0
  8 11  2  0  0  0  0
 10  5  2  0  0  0  0
 11 10  1  0  0  0  0
 12 13  1  1  0  0  0
 12 17  1  0  0  0  0
 14 16  1  0  0  0  0
 14 23  1  0  0  0  0
 16 15  1  0  0  0  0
 17 16  2  0  0  0  0
 18 20  1  0  0  0  0
 18 24  1  0  0  0  0
 19 24  2  0  0  0  0
 21 18  2  0  0  0  0
 22 19  1  0  0  0  0
 23 21  1  0  0  0  0
 23 22  2  0  0  0  0
 25 29  1  6  0  0  0
 25  1  1  0  0  0  0
 26 25  1  0  0  0  0
 26 27  1  0  0  0  0
 28 27  1  0  0  0  0
 30 31  1  0  0  0  0
 31 29  1  0  0  0  0
M  END
>  <MODEL>
4

>  <REMARK>
 VINA RESULT:      -6.1      3.515      8.811
  Name = 
  8 active torsions:
  status: ('A' for Active; 'I' for Inactive)
    1  A    between atoms: N_2  and  C_25
    2  A    between atoms: N_3  and  C_22
    3  A    between atoms: C_4  and  C_12
    4  A    between atoms: C_12  and  C_25
    5  A    between atoms: C_12  and  C_27
    6  A    between atoms: C_15  and  C_21
    7  A    between atoms: C_15  and  N_23
    8  A    between atoms: C_27  and  S_28
                            x       y       z     vdW  Elec       q    Type
                         _______ _______ _______ _____ _____    ______ ____

>  <TORSDO>
F 8

$$$$
=
 OpenBabel11052422263D

 31 33  0  0  1  0  0  0  0  0999 V2000
  160.0430  211.0000  154.7890 C   0  0  0  0  0  0  0  0  0  0  0  0
  158.8550  211.7510  154.9290 C   0  0  0  0  0  0  0  0  0  0  0  0
  157.0660  211.6430  156.6270 C   0  0  0  0  0  3  0  0  0  0  0  0
  158.4000  212.2110  156.2830 C   0  0  0  0  0  2  0  0  0  0  0  0
  158.6420  211.7980  152.5540 N   0  0  0  0  0  0  0  0  0  0  0  0
  155.9610  211.9500  155.9500 C   0  0  0  0  0  3  0  0  0  0  0  0
  160.4750  210.6650  153.4950 C   0  0  0  0  0  0  0  0  0  0  0  0
  155.9210  212.8010  154.7480 C   0  0  0  0  0  3  0  0  0  0  0  0
  159.7630  211.0920  152.4190 N   0  0  0  0  0  0  0  0  0  0  0  0
  158.1410  212.1230  153.7720 C   0  0  0  0  0  0  0  0  0  0  0  0
  156.8700  212.8770  153.8060 C   0  0  0  0  0  3  0  0  0  0  0  0
  161.6830  209.8060  153.2850 C   0  0  2  0  0  3  0  0  0  0  0  0
  162.1590  209.9510  151.9810 O   0  0  0  0  0  1  0  0  0  0  0  0
  161.6800  207.8360  151.2570 N   0  0  0  0  0  2  0  0  0  0  0  0
  160.9710  206.1100  153.0100 C   0  0  0  0  0  1  0  0  0  0  0  0
  161.3160  207.5040  152.6110 C   0  0  0  0  0  0  0  0  0  0  0  0
  161.3390  208.4110  153.5360 N   0  0  0  0  0  0  0  0  0  0  0  0
  161.0020  204.9150  148.9930 C   0  0  0  0  0  0  0  0  0  0  0  0
  161.9080  206.7490  147.6980 C   0  0  0  0  0  3  0  0  0  0  0  0
  160.5280  203.6480  149.0590 F   0  0  0  0  0  0  0  0  0  0  0  0
  161.0830  205.6940  150.1510 C   0  0  0  0  0  3  0  0  0  0  0  0
  161.9940  207.5240  148.8580 C   0  0  0  0  0  3  0  0  0  0  0  0
  161.5870  207.0020  150.0930 C   0  0  0  0  0  0  0  0  0  0  0  0
  161.4110  205.4440  147.7660 C   0  0  0  0  0  3  0  0  0  0  0  0
  160.8640  210.5430  155.9700 C   0  0  1  0  0  3  0  0  0  0  0  0
  161.4320  211.7180  156.7580 C   0  0  0  0  0  2  0  0  0  0  0  0
  162.7600  211.4010  157.2600 N   0  0  0  0  0  2  0  0  0  0  0  0
  163.4420  210.8280  156.2390 O   0  0  0  0  0  1  0  0  0  0  0  0
  160.0850  209.5740  156.8470 C   0  0  0  0  0  2  0  0  0  0  0  0
  159.8840  206.9880  156.5600 C   0  0  0  0  0  1  0  0  0  0  0  0
  161.1170  208.1300  157.2360 S   0  0  0  0  0  0  0  0  0  0  0  0
  1  2  1  0  0  0  0
  1 25  1  0  0  0  0
  2  4  1  0  0  0  0
  4  3  1  0  0  0  0
  5 10  1  0  0  0  0
  6  3  2  0  0  0  0
  7  1  2  0  0  0  0
  8  6  1  0  0  0  0
  9  5  2  0  0  0  0
  9  7  1  0  0  0  0
 10 11  1  0  0  0  0
 10  2  2  0  0  0  0
 11  8  2  0  0  0  0
 12 13  1  6  0  0  0
 12  7  1  0  0  0  0
 12 17  1  0  0  0  0
 14 16  1  0  0  0  0
 16 15  1  0  0  0  0
 16 17  2  0  0  0  0
 18 20  1  0  0  0  0
 18 21  1  0  0  0  0
 19 24  1  0  0  0  0
 19 22  2  0  0  0  0
 22 23  1  0  0  0  0
 23 21  2  0  0  0  0
 23 14  1  0  0  0  0
 24 18  2  0  0  0  0
 25 26  1  1  0  0  0
 25 29  1  0  0  0  0
 26 27  1  0  0  0  0
 28 27  1  0  0  0  0
 29 31  1  0  0  0  0
 30 31  1  0  0  0  0
M  END
>  <MODEL>
5

>  <REMARK>
 VINA RESULT:      -6.1      1.367      1.790
  Name = 
  8 active torsions:
  status: ('A' for Active; 'I' for Inactive)
    1  A    between atoms: N_2  and  C_25
    2  A    between atoms: N_3  and  C_22
    3  A    between atoms: C_4  and  C_12
    4  A    between atoms: C_12  and  C_25
    5  A    between atoms: C_12  and  C_27
    6  A    between atoms: C_15  and  C_21
    7  A    between atoms: C_15  and  N_23
    8  A    between atoms: C_27  and  S_28
                            x       y       z     vdW  Elec       q    Type
                         _______ _______ _______ _____ _____    ______ ____

>  <TORSDO>
F 8

$$$$
=
 OpenBabel11052422263D

 31 33  0  0  1  0  0  0  0  0999 V2000
  160.6860  209.2720  152.4270 C   0  0  0  0  0  0  0  0  0  0  0  0
  160.2660  210.5790  152.7610 C   0  0  0  0  0  0  0  0  0  0  0  0
  158.2520  211.3740  153.9490 C   0  0  0  0  0  3  0  0  0  0  0  0
  159.6430  210.8600  154.0980 C   0  0  0  0  0  2  0  0  0  0  0  0
  161.1780  211.3650  150.7030 N   0  0  0  0  0  0  0  0  0  0  0  0
  157.9790  212.5430  153.3710 C   0  0  0  0  0  3  0  0  0  0  0  0
  161.3410  209.0720  151.2010 C   0  0  0  0  0  0  0  0  0  0  0  0
  158.9770  213.4220  152.7390 C   0  0  0  0  0  3  0  0  0  0  0  0
  161.5780  210.1340  150.3870 N   0  0  0  0  0  0  0  0  0  0  0  0
  160.5040  211.6270  151.8500 C   0  0  0  0  0  0  0  0  0  0  0  0
  160.0750  213.0230  152.0830 C   0  0  0  0  0  3  0  0  0  0  0  0
  161.7420  207.7000  150.7570 C   0  0  2  0  0  3  0  0  0  0  0  0
  163.1240  207.5390  150.8690 O   0  0  0  0  0  1  0  0  0  0  0  0
  161.1660  205.1470  149.6890 N   0  0  0  0  0  2  0  0  0  0  0  0
  160.6400  206.2630  147.4450 C   0  0  0  0  0  1  0  0  0  0  0  0
  161.0790  206.3280  148.8690 C   0  0  0  0  0  0  0  0  0  0  0  0
  161.3270  207.4960  149.3740 N   0  0  0  0  0  0  0  0  0  0  0  0
  161.0880  202.0490  147.5650 C   0  0  0  0  0  0  0  0  0  0  0  0
  160.7180  201.4510  149.8820 C   0  0  0  0  0  3  0  0  0  0  0  0
  161.2100  201.6860  146.2660 F   0  0  0  0  0  0  0  0  0  0  0  0
  161.1960  203.3940  147.9300 C   0  0  0  0  0  3  0  0  0  0  0  0
  160.8200  202.7970  150.2440 C   0  0  0  0  0  3  0  0  0  0  0  0
  161.0550  203.7780  149.2710 C   0  0  0  0  0  0  0  0  0  0  0  0
  160.8530  201.0770  148.5410 C   0  0  0  0  0  3  0  0  0  0  0  0
  160.4600  208.0860  153.3320 C   0  0  1  0  0  3  0  0  0  0  0  0
  160.7710  206.7670  152.6330 C   0  0  0  0  0  2  0  0  0  0  0  0
  161.4930  205.8740  153.5250 N   0  0  0  0  0  2  0  0  0  0  0  0
  161.2140  204.6090  153.1280 O   0  0  0  0  0  1  0  0  0  0  0  0
  161.2070  208.2390  154.6480 C   0  0  0  0  0  2  0  0  0  0  0  0
  160.7890  209.0170  157.1040 C   0  0  0  0  0  1  0  0  0  0  0  0
  160.1450  207.7130  156.0250 S   0  0  0  0  0  0  0  0  0  0  0  0
  1  2  1  0  0  0  0
  1 25  1  0  0  0  0
  2  4  1  0  0  0  0
  3  4  1  0  0  0  0
  5 10  1  0  0  0  0
  6  3  2  0  0  0  0
  7  1  2  0  0  0  0
  8  6  1  0  0  0  0
  9  5  2  0  0  0  0
  9  7  1  0  0  0  0
 10 11  1  0  0  0  0
 10  2  2  0  0  0  0
 11  8  2  0  0  0  0
 12 13  1  6  0  0  0
 12  7  1  0  0  0  0
 15 16  1  0  0  0  0
 16 17  2  0  0  0  0
 16 14  1  0  0  0  0
 17 12  1  0  0  0  0
 18 21  2  0  0  0  0
 18 24  1  0  0  0  0
 19 22  1  0  0  0  0
 20 18  1  0  0  0  0
 21 23  1  0  0  0  0
 23 14  1  0  0  0  0
 23 22  2  0  0  0  0
 24 19  2  0  0  0  0
 25 26  1  6  0  0  0
 25 29  1  0  0  0  0
 26 27  1  0  0  0  0
 28 27  1  0  0  0  0
 29 31  1  0  0  0  0
 31 30  1  0  0  0  0
M  END
>  <MODEL>
6

>  <REMARK>
 VINA RESULT:      -6.0      2.410      3.415
  Name = 
  8 active torsions:
  status: ('A' for Active; 'I' for Inactive)
    1  A    between atoms: N_2  and  C_25
    2  A    between atoms: N_3  and  C_22
    3  A    between atoms: C_4  and  C_12
    4  A    between atoms: C_12  and  C_25
    5  A    between atoms: C_12  and  C_27
    6  A    between atoms: C_15  and  C_21
    7  A    between atoms: C_15  and  N_23
    8  A    between atoms: C_27  and  S_28
                            x       y       z     vdW  Elec       q    Type
                         _______ _______ _______ _____ _____    ______ ____

>  <TORSDO>
F 8

$$$$
=
 OpenBabel11052422263D

 31 33  0  0  1  0  0  0  0  0999 V2000
  161.0350  208.1790  152.9650 C   0  0  0  0  0  0  0  0  0  0  0  0
  161.0730  208.6510  154.2950 C   0  0  0  0  0  0  0  0  0  0  0  0
  162.0880  210.6850  155.2580 C   0  0  0  0  0  3  0  0  0  0  0  0
  160.8870  210.1110  154.5910 C   0  0  0  0  0  2  0  0  0  0  0  0
  161.2600  206.3990  155.0570 N   0  0  0  0  0  0  0  0  0  0  0  0
  162.4840  210.3030  156.4720 C   0  0  0  0  0  3  0  0  0  0  0  0
  161.1280  206.7950  152.7420 C   0  0  0  0  0  0  0  0  0  0  0  0
  161.8570  209.2290  157.2610 C   0  0  0  0  0  3  0  0  0  0  0  0
  161.2220  205.9510  153.8030 N   0  0  0  0  0  0  0  0  0  0  0  0
  161.2170  207.7230  155.3460 C   0  0  0  0  0  0  0  0  0  0  0  0
  161.3030  208.1120  156.7700 C   0  0  0  0  0  3  0  0  0  0  0  0
  161.1710  206.2390  151.3530 C   0  0  2  0  0  3  0  0  0  0  0  0
  160.0770  206.6950  150.6150 O   0  0  0  0  0  1  0  0  0  0  0  0
  161.2970  204.6110  149.0460 N   0  0  0  0  0  2  0  0  0  0  0  0
  161.2060  202.5500  150.5610 C   0  0  0  0  0  1  0  0  0  0  0  0
  161.1980  204.0270  150.3580 C   0  0  0  0  0  0  0  0  0  0  0  0
  161.1600  204.7820  151.4110 N   0  0  0  0  0  0  0  0  0  0  0  0
  160.9880  201.9380  146.4240 C   0  0  0  0  0  0  0  0  0  0  0  0
  161.1960  204.1000  145.3540 C   0  0  0  0  0  3  0  0  0  0  0  0
  160.8540  200.5930  146.3340 F   0  0  0  0  0  0  0  0  0  0  0  0
  161.0660  202.5520  147.6770 C   0  0  0  0  0  3  0  0  0  0  0  0
  161.2790  204.7110  146.6090 C   0  0  0  0  0  3  0  0  0  0  0  0
  161.2200  203.9420  147.7780 C   0  0  0  0  0  0  0  0  0  0  0  0
  161.0490  202.7120  145.2620 C   0  0  0  0  0  3  0  0  0  0  0  0
  160.9000  209.0980  151.7750 C   0  0  1  0  0  3  0  0  0  0  0  0
  160.0790  210.3400  152.1040 C   0  0  0  0  0  2  0  0  0  0  0  0
  160.7030  211.5280  151.5440 N   0  0  0  0  0  2  0  0  0  0  0  0
  159.9680  212.5900  151.9520 O   0  0  0  0  0  1  0  0  0  0  0  0
  162.2570  209.4370  151.1770 C   0  0  0  0  0  2  0  0  0  0  0  0
  162.3360  210.7060  148.8970 C   0  0  0  0  0  1  0  0  0  0  0  0
  162.2900  208.9720  149.4220 S   0  0  0  0  0  0  0  0  0  0  0  0
  1  2  1  0  0  0  0
  2  4  1  0  0  0  0
  2 10  2  0  0  0  0
  3  6  2  0  0  0  0
  4  3  1  0  0  0  0
  5 10  1  0  0  0  0
  6  8  1  0  0  0  0
  7  1  2  0  0  0  0
  7  9  1  0  0  0  0
  9  5  2  0  0  0  0
 10 11  1  0  0  0  0
 11  8  2  0  0  0  0
 12 13  1  6  0  0  0
 12 17  1  0  0  0  0
 12  7  1  0  0  0  0
 14 16  1  0  0  0  0
 16 15  1  0  0  0  0
 16 17  2  0  0  0  0
 18 21  1  0  0  0  0
 19 22  2  0  0  0  0
 20 18  1  0  0  0  0
 21 23  2  0  0  0  0
 22 23  1  0  0  0  0
 23 14  1  0  0  0  0
 24 19  1  0  0  0  0
 24 18  2  0  0  0  0
 25 29  1  1  0  0  0
 25 26  1  0  0  0  0
 25  1  1  0  0  0  0
 27 28  1  0  0  0  0
 27 26  1  0  0  0  0
 30 31  1  0  0  0  0
 31 29  1  0  0  0  0
M  END
>  <MODEL>
7

>  <REMARK>
 VINA RESULT:      -5.5      3.213      5.290
  Name = 
  8 active torsions:
  status: ('A' for Active; 'I' for Inactive)
    1  A    between atoms: N_2  and  C_25
    2  A    between atoms: N_3  and  C_22
    3  A    between atoms: C_4  and  C_12
    4  A    between atoms: C_12  and  C_25
    5  A    between atoms: C_12  and  C_27
    6  A    between atoms: C_15  and  C_21
    7  A    between atoms: C_15  and  N_23
    8  A    between atoms: C_27  and  S_28
                            x       y       z     vdW  Elec       q    Type
                         _______ _______ _______ _____ _____    ______ ____

>  <TORSDO>
F 8

$$$$
=
 OpenBabel11052422263D

 31 33  0  0  1  0  0  0  0  0999 V2000
  161.2020  210.2420  150.9190 C   0  0  0  0  0  0  0  0  0  0  0  0
  160.9560  211.6200  150.7280 C   0  0  0  0  0  0  0  0  0  0  0  0
  159.0910  213.0490  151.4870 C   0  0  0  0  0  3  0  0  0  0  0  0
  160.4110  212.4590  151.8470 C   0  0  0  0  0  2  0  0  0  0  0  0
  161.9010  211.4540  148.5450 N   0  0  0  0  0  0  0  0  0  0  0  0
  158.9480  213.9390  150.5060 C   0  0  0  0  0  3  0  0  0  0  0  0
  161.7920  209.5160  149.8720 C   0  0  0  0  0  0  0  0  0  0  0  0
  160.0300  214.3840  149.6110 C   0  0  0  0  0  3  0  0  0  0  0  0
  162.1360  210.1550  148.7240 N   0  0  0  0  0  0  0  0  0  0  0  0
  161.2970  212.2100  149.4940 C   0  0  0  0  0  0  0  0  0  0  0  0
  161.0510  213.6330  149.1770 C   0  0  0  0  0  3  0  0  0  0  0  0
  162.0070  208.0380  149.9850 C   0  0  2  0  0  3  0  0  0  0  0  0
  163.1630  207.7720  150.7210 O   0  0  0  0  0  1  0  0  0  0  0  0
  161.4050  205.3330  149.4310 N   0  0  0  0  0  2  0  0  0  0  0  0
  162.0000  205.7590  146.9780 C   0  0  0  0  0  1  0  0  0  0  0  0
  161.8660  206.2160  148.3910 C   0  0  0  0  0  0  0  0  0  0  0  0
  162.1210  207.4590  148.6520 N   0  0  0  0  0  0  0  0  0  0  0  0
  161.0110  201.8430  148.0970 C   0  0  0  0  0  0  0  0  0  0  0  0
  160.8260  201.8110  150.5110 C   0  0  0  0  0  3  0  0  0  0  0  0
  161.0020  201.1870  146.9110 F   0  0  0  0  0  0  0  0  0  0  0  0
  161.2060  203.2260  148.1300 C   0  0  0  0  0  3  0  0  0  0  0  0
  161.0150  203.1960  150.5420 C   0  0  0  0  0  3  0  0  0  0  0  0
  161.2010  203.9140  149.3530 C   0  0  0  0  0  0  0  0  0  0  0  0
  160.8250  201.1340  149.2870 C   0  0  0  0  0  3  0  0  0  0  0  0
  160.8560  209.5210  152.1990 C   0  0  1  0  0  3  0  0  0  0  0  0
  160.5820  208.0400  151.9640 C   0  0  0  0  0  2  0  0  0  0  0  0
  160.7540  207.2880  153.1960 N   0  0  0  0  0  2  0  0  0  0  0  0
  161.2410  206.0710  152.8510 O   0  0  0  0  0  1  0  0  0  0  0  0
  161.9080  209.7570  153.2730 C   0  0  0  0  0  2  0  0  0  0  0  0
  161.9470  209.5670  155.8760 C   0  0  0  0  0  1  0  0  0  0  0  0
  161.1760  210.6690  154.6630 S   0  0  0  0  0  0  0  0  0  0  0  0
  1 25  1  0  0  0  0
  2  1  1  0  0  0  0
  2  4  1  0  0  0  0
  3  4  1  0  0  0  0
  5  9  2  0  0  0  0
  5 10  1  0  0  0  0
  6  3  2  0  0  0  0
  7 12  1  0  0  0  0
  7  1  2  0  0  0  0
  8  6  1  0  0  0  0
  9  7  1  0  0  0  0
 10  2  2  0  0  0  0
 11 10  1  0  0  0  0
 11  8  2  0  0  0  0
 12 13  1  1  0  0  0
 15 16  1  0  0  0  0
 16 17  2  0  0  0  0
 16 14  1  0  0  0  0
 17 12  1  0  0  0  0
 18 21  2  0  0  0  0
 18 24  1  0  0  0  0
 19 22  1  0  0  0  0
 20 18  1  0  0  0  0
 21 23  1  0  0  0  0
 23 14  1  0  0  0  0
 23 22  2  0  0  0  0
 24 19  2  0  0  0  0
 25 26  1  6  0  0  0
 25 29  1  0  0  0  0
 26 27  1  0  0  0  0
 28 27  1  0  0  0  0
 29 31  1  0  0  0  0
 31 30  1  0  0  0  0
M  END
>  <MODEL>
8

>  <REMARK>
 VINA RESULT:      -5.5      3.153      4.150
  Name = 
  8 active torsions:
  status: ('A' for Active; 'I' for Inactive)
    1  A    between atoms: N_2  and  C_25
    2  A    between atoms: N_3  and  C_22
    3  A    between atoms: C_4  and  C_12
    4  A    between atoms: C_12  and  C_25
    5  A    between atoms: C_12  and  C_27
    6  A    between atoms: C_15  and  C_21
    7  A    between atoms: C_15  and  N_23
    8  A    between atoms: C_27  and  S_28
                            x       y       z     vdW  Elec       q    Type
                         _______ _______ _______ _____ _____    ______ ____

>  <TORSDO>
F 8

$$$$
=
 OpenBabel11052422263D

 31 33  0  0  1  0  0  0  0  0999 V2000
  161.3550  205.6690  149.2020 C   0  0  0  0  0  0  0  0  0  0  0  0
  161.3550  204.2910  149.5090 C   0  0  0  0  0  0  0  0  0  0  0  0
  160.3140  202.3770  148.3480 C   0  0  0  0  0  3  0  0  0  0  0  0
  161.5060  203.2680  148.4210 C   0  0  0  0  0  2  0  0  0  0  0  0
  161.2730  204.8400  151.8280 N   0  0  0  0  0  0  0  0  0  0  0  0
  159.9810  201.5450  149.3350 C   0  0  0  0  0  3  0  0  0  0  0  0
  161.2970  206.5920  150.2600 C   0  0  0  0  0  0  0  0  0  0  0  0
  160.6740  201.4590  150.6310 C   0  0  0  0  0  3  0  0  0  0  0  0
  161.2740  206.1400  151.5410 N   0  0  0  0  0  0  0  0  0  0  0  0
  161.2840  203.8920  150.8590 C   0  0  0  0  0  0  0  0  0  0  0  0
  161.2430  202.4780  151.2890 C   0  0  0  0  0  3  0  0  0  0  0  0
  161.2160  208.0630  149.9960 C   0  0  2  0  0  3  0  0  0  0  0  0
  161.5660  208.3370  148.6730 O   0  0  0  0  0  1  0  0  0  0  0  0
  160.2880  209.5570  152.2080 N   0  0  0  0  0  2  0  0  0  0  0  0
  162.7180  210.1270  152.7750 C   0  0  0  0  0  1  0  0  0  0  0  0
  161.6940  209.4740  151.9100 C   0  0  0  0  0  0  0  0  0  0  0  0
  162.1100  208.7710  150.9040 N   0  0  0  0  0  0  0  0  0  0  0  0
  159.0950  210.9460  155.4890 C   0  0  0  0  0  0  0  0  0  0  0  0
  158.3000  212.3470  153.6810 C   0  0  0  0  0  3  0  0  0  0  0  0
  159.1690  210.6700  156.8130 F   0  0  0  0  0  0  0  0  0  0  0  0
  159.7300  210.1130  154.5640 C   0  0  0  0  0  3  0  0  0  0  0  0
  158.9310  211.5090  152.7570 C   0  0  0  0  0  3  0  0  0  0  0  0
  159.6450  210.3840  153.1900 C   0  0  0  0  0  0  0  0  0  0  0  0
  158.3840  212.0650  155.0490 C   0  0  0  0  0  3  0  0  0  0  0  0
  161.4110  206.1900  147.7860 C   0  0  1  0  0  3  0  0  0  0  0  0
  162.8060  206.0590  147.1860 C   0  0  0  0  0  2  0  0  0  0  0  0
  163.0770  204.6790  146.8190 N   0  0  0  0  0  2  0  0  0  0  0  0
  163.7470  204.7070  145.6420 O   0  0  0  0  0  1  0  0  0  0  0  0
  160.3390  205.5530  146.9160 C   0  0  0  0  0  2  0  0  0  0  0  0
  160.5020  204.5370  144.5170 C   0  0  0  0  0  1  0  0  0  0  0  0
  160.4520  206.2040  145.2240 S   0  0  0  0  0  0  0  0  0  0  0  0
  1  2  2  0  0  0  0
  1  7  1  0  0  0  0
  2 10  1  0  0  0  0
  3  4  1  0  0  0  0
  3  6  2  0  0  0  0
  4  2  1  0  0  0  0
  6  8  1  0  0  0  0
  7  9  2  0  0  0  0
  8 11  2  0  0  0  0
  9  5  1  0  0  0  0
 10 11  1  0  0  0  0
 10  5  2  0  0  0  0
 12 13  1  6  0  0  0
 12  7  1  0  0  0  0
 12 17  1  0  0  0  0
 14 23  1  0  0  0  0
 16 14  1  0  0  0  0
 16 15  1  0  0  0  0
 17 16  2  0  0  0  0
 18 20  1  0  0  0  0
 19 24  2  0  0  0  0
 21 18  2  0  0  0  0
 22 23  2  0  0  0  0
 22 19  1  0  0  0  0
 23 21  1  0  0  0  0
 24 18  1  0  0  0  0
 25 29  1  6  0  0  0
 25  1  1  0  0  0  0
 26 25  1  0  0  0  0
 27 26  1  0  0  0  0
 28 27  1  0  0  0  0
 30 31  1  0  0  0  0
 31 29  1  0  0  0  0
M  END
>  <MODEL>
9

>  <REMARK>
 VINA RESULT:      -5.4      3.772      8.823
  Name = 
  8 active torsions:
  status: ('A' for Active; 'I' for Inactive)
    1  A    between atoms: N_2  and  C_25
    2  A    between atoms: N_3  and  C_22
    3  A    between atoms: C_4  and  C_12
    4  A    between atoms: C_12  and  C_25
    5  A    between atoms: C_12  and  C_27
    6  A    between atoms: C_15  and  C_21
    7  A    between atoms: C_15  and  N_23
    8  A    between atoms: C_27  and  S_28
                            x       y       z     vdW  Elec       q    Type
                         _______ _______ _______ _____ _____    ______ ____

>  <TORSDO>
F 8

$$$$
