=
 OpenBabel11062410463D

 32 35  0  0  1  0  0  0  0  0999 V2000
  161.9540  206.5650  150.1870 C   0  0  1  0  0  3  0  0  0  0  0  0
  160.3850  202.2770  152.1620 C   0  0  0  0  0  3  0  0  0  0  0  0
  160.4900  201.6440  150.9240 C   0  0  0  0  0  3  0  0  0  0  0  0
  162.2990  206.6710  147.6690 C   0  0  1  0  0  3  0  0  0  0  0  0
  161.9790  206.0440  146.3010 C   0  0  1  0  0  3  0  0  0  0  0  0
  160.7810  203.6080  152.3000 C   0  0  0  0  0  3  0  0  0  0  0  0
  161.7050  205.6940  151.3500 N   0  0  0  0  0  0  0  0  0  0  0  0
  161.3630  203.6940  149.9440 C   0  0  0  0  0  0  0  0  0  0  0  0
  161.9850  204.4350  148.7880 C   0  0  1  0  0  3  0  0  0  0  0  0
  160.9870  202.3450  149.8240 C   0  0  0  0  0  3  0  0  0  0  0  0
  161.2770  204.3260  151.1980 C   0  0  0  0  0  0  0  0  0  0  0  0
  161.6090  203.8200  147.4340 C   0  0  0  0  0  2  0  0  0  0  0  0
  161.9670  208.0290  147.6630 O   0  0  0  0  0  1  0  0  0  0  0  0
  162.0150  203.9630  145.0780 O   0  0  0  0  0  1  0  0  0  0  0  0
  161.6010  205.9240  148.8220 C   0  0  1  0  0  3  0  0  0  0  0  0
  162.3260  204.5500  146.3050 C   0  0  1  0  0  3  0  0  0  0  0  0
  159.5390  206.3290  146.7630 O   0  0  0  0  0  1  0  0  0  0  0  0
  160.3260  206.5610  144.6260 O   0  0  0  0  0  0  0  0  0  0  0  0
  160.5740  206.3250  145.8390 C   0  0  0  0  0  0  0  0  0  0  0  0
  162.0850  206.1980  152.6670 C   0  0  0  0  0  2  0  0  0  0  0  0
  160.9860  206.9660  154.7130 C   0  0  0  0  0  3  0  0  0  0  0  0
  160.8730  206.5940  153.4410 C   0  0  0  0  0  3  0  0  0  0  0  0
  159.7790  207.3710  155.5010 C   0  0  0  0  0  2  0  0  0  0  0  0
  160.1210  208.4460  156.5230 C   0  0  0  0  0  2  0  0  0  0  0  0
  160.6090  209.7050  155.8280 C   0  0  0  0  0  2  0  0  0  0  0  0
  162.0360  209.9510  156.1710 C   0  0  0  0  0  0  0  0  0  0  0  0
  162.7180  210.7540  155.4840 O   0  0  0  0  0  0  0  0  0  0  0  0
  162.6250  209.2660  157.2250 O   0  0  0  0  0  1  0  0  0  0  0  0
  161.3640  207.8400  150.3560 O   0  0  0  0  0  0  0  0  0  0  0  0
  162.3390  208.7280  150.8420 C   0  0  0  0  0  3  0  0  0  0  0  0
  162.0080  210.1310  150.3770 C   0  0  0  0  0  2  0  0  0  0  0  0
  161.6910  209.7100  151.7950 C   0  0  0  0  0  2  0  0  0  0  0  0
  1 29  1  1  0  0  0
  1  7  1  0  0  0  0
  2  6  1  0  0  0  0
  3  2  2  0  0  0  0
  4 13  1  6  0  0  0
  4 15  1  0  0  0  0
  5 19  1  1  0  0  0
  5 16  1  0  0  0  0
  5  4  1  0  0  0  0
  7 20  1  0  0  0  0
  8 11  1  0  0  0  0
  9 12  1  6  0  0  0
  9 15  1  0  0  0  0
  9  8  1  0  0  0  0
 10  8  2  0  0  0  0
 10  3  1  0  0  0  0
 11  7  1  0  0  0  0
 11  6  2  0  0  0  0
 14 16  1  0  0  0  0
 15  1  1  0  0  0  0
 16 12  1  0  0  0  0
 18 19  2  0  0  0  0
 19 17  1  0  0  0  0
 20 22  1  0  0  0  0
 21 23  1  0  0  0  0
 22 21  2  0  0  0  0
 23 24  1  0  0  0  0
 25 26  1  0  0  0  0
 25 24  1  0  0  0  0
 26 28  1  0  0  0  0
 27 26  2  0  0  0  0
 29 30  1  0  0  0  0
 30 32  1  0  0  0  0
 31 30  1  0  0  0  0
 31 32  1  0  0  0  0
M  END
>  <MODEL>
1

>  <REMARK>
 VINA RESULT:      -6.9      0.000      0.000
  Name = 
  9 active torsions:
  status: ('A' for Active; 'I' for Inactive)
    1  A    between atoms: C_1  and  C_24
    2  A    between atoms: C_2  and  C_10
    3  A    between atoms: C_2  and  C_12
    4  A    between atoms: C_3  and  O_28
    5  A    between atoms: C_7  and  C_22
    6  A    between atoms: C_8  and  O_28
    7  A    between atoms: C_9  and  N_14
    8  A    between atoms: C_9  and  C_21
    9  A    between atoms: C_10  and  C_24
                            x       y       z     vdW  Elec       q    Type
                         _______ _______ _______ _____ _____    ______ ____

>  <TORSDO>
F 9

$$$$
=
 OpenBabel11062410463D

 32 35  0  0  1  0  0  0  0  0999 V2000
  161.9380  206.5830  150.2180 C   0  0  1  0  0  3  0  0  0  0  0  0
  160.4120  202.2760  152.1830 C   0  0  0  0  0  3  0  0  0  0  0  0
  160.5290  201.6460  150.9440 C   0  0  0  0  0  3  0  0  0  0  0  0
  162.2920  206.6960  147.7010 C   0  0  1  0  0  3  0  0  0  0  0  0
  161.9850  206.0680  146.3320 C   0  0  1  0  0  3  0  0  0  0  0  0
  160.7920  203.6110  152.3240 C   0  0  0  0  0  3  0  0  0  0  0  0
  161.6950  205.7090  151.3790 N   0  0  0  0  0  0  0  0  0  0  0  0
  161.3830  203.7060  149.9700 C   0  0  0  0  0  0  0  0  0  0  0  0
  162.0000  204.4550  148.8170 C   0  0  1  0  0  3  0  0  0  0  0  0
  161.0230  202.3530  149.8470 C   0  0  0  0  0  3  0  0  0  0  0  0
  161.2840  204.3360  151.2240 C   0  0  0  0  0  0  0  0  0  0  0  0
  161.6360  203.8370  147.4610 C   0  0  0  0  0  2  0  0  0  0  0  0
  161.9450  208.0500  147.6960 O   0  0  0  0  0  1  0  0  0  0  0  0
  162.0500  203.9880  145.1070 O   0  0  0  0  0  1  0  0  0  0  0  0
  161.5990  205.9400  148.8510 C   0  0  1  0  0  3  0  0  0  0  0  0
  162.3490  204.5770  146.3350 C   0  0  1  0  0  3  0  0  0  0  0  0
  160.3320  206.5090  144.5100 O   0  0  0  0  0  0  0  0  0  0  0  0
  159.6230  206.3880  146.6830 O   0  0  0  0  0  1  0  0  0  0  0  0
  160.5780  206.3320  145.8640 C   0  0  0  0  0  0  0  0  0  0  0  0
  162.0640  206.2160  152.6980 C   0  0  0  0  0  2  0  0  0  0  0  0
  160.9440  207.1800  154.6470 C   0  0  0  0  0  3  0  0  0  0  0  0
  160.8420  206.5170  153.4990 C   0  0  0  0  0  3  0  0  0  0  0  0
  159.7270  207.4950  155.4590 C   0  0  0  0  0  2  0  0  0  0  0  0
  159.9400  208.7320  156.3210 C   0  0  0  0  0  2  0  0  0  0  0  0
  160.7160  209.7870  155.5530 C   0  0  0  0  0  2  0  0  0  0  0  0
  159.8110  210.9090  155.1810 C   0  0  0  0  0  0  0  0  0  0  0  0
  160.2870  211.9650  154.6910 O   0  0  0  0  0  0  0  0  0  0  0  0
  158.4450  210.8040  155.4080 O   0  0  0  0  0  1  0  0  0  0  0  0
  161.3330  207.8510  150.3860 O   0  0  0  0  0  0  0  0  0  0  0  0
  162.2930  208.7480  150.8880 C   0  0  0  0  0  3  0  0  0  0  0  0
  161.9800  210.1420  150.3880 C   0  0  0  0  0  2  0  0  0  0  0  0
  161.6140  209.7470  151.8010 C   0  0  0  0  0  2  0  0  0  0  0  0
  1 29  1  1  0  0  0
  1  7  1  0  0  0  0
  2  6  1  0  0  0  0
  3  2  2  0  0  0  0
  4 13  1  6  0  0  0
  4 15  1  0  0  0  0
  5 19  1  1  0  0  0
  5 16  1  0  0  0  0
  5  4  1  0  0  0  0
  7 20  1  0  0  0  0
  8 11  1  0  0  0  0
  9 12  1  6  0  0  0
  9 15  1  0  0  0  0
  9  8  1  0  0  0  0
 10  8  2  0  0  0  0
 10  3  1  0  0  0  0
 11  7  1  0  0  0  0
 11  6  2  0  0  0  0
 14 16  1  0  0  0  0
 15  1  1  0  0  0  0
 16 12  1  0  0  0  0
 17 19  2  0  0  0  0
 19 18  1  0  0  0  0
 20 22  1  0  0  0  0
 21 23  1  0  0  0  0
 22 21  2  0  0  0  0
 23 24  1  0  0  0  0
 25 24  1  0  0  0  0
 26 28  1  0  0  0  0
 26 25  1  0  0  0  0
 27 26  2  0  0  0  0
 29 30  1  0  0  0  0
 30 32  1  0  0  0  0
 31 30  1  0  0  0  0
 31 32  1  0  0  0  0
M  END
>  <MODEL>
2

>  <REMARK>
 VINA RESULT:      -6.7      0.964      1.236
  Name = 
  9 active torsions:
  status: ('A' for Active; 'I' for Inactive)
    1  A    between atoms: C_1  and  C_24
    2  A    between atoms: C_2  and  C_10
    3  A    between atoms: C_2  and  C_12
    4  A    between atoms: C_3  and  O_28
    5  A    between atoms: C_7  and  C_22
    6  A    between atoms: C_8  and  O_28
    7  A    between atoms: C_9  and  N_14
    8  A    between atoms: C_9  and  C_21
    9  A    between atoms: C_10  and  C_24
                            x       y       z     vdW  Elec       q    Type
                         _______ _______ _______ _____ _____    ______ ____

>  <TORSDO>
F 9

$$$$
=
 OpenBabel11062410463D

 32 35  0  0  1  0  0  0  0  0999 V2000
  161.7230  207.1840  151.5460 C   0  0  1  0  0  3  0  0  0  0  0  0
  161.7980  210.8890  148.2270 C   0  0  0  0  0  3  0  0  0  0  0  0
  161.8770  211.8320  149.2510 C   0  0  0  0  0  3  0  0  0  0  0  0
  161.6070  207.7860  154.0150 C   0  0  1  0  0  3  0  0  0  0  0  0
  161.2620  208.8600  155.0590 C   0  0  1  0  0  3  0  0  0  0  0  0
  161.8120  209.5270  148.5320 C   0  0  0  0  0  3  0  0  0  0  0  0
  161.9280  207.6840  150.1750 N   0  0  0  0  0  0  0  0  0  0  0  0
  161.9520  210.0440  150.9000 C   0  0  0  0  0  0  0  0  0  0  0  0
  162.1370  209.5760  152.3220 C   0  0  1  0  0  3  0  0  0  0  0  0
  161.9650  211.4120  150.5800 C   0  0  0  0  0  3  0  0  0  0  0  0
  161.8940  209.0920  149.8660 C   0  0  0  0  0  0  0  0  0  0  0  0
  161.7380  210.6480  153.3430 C   0  0  0  0  0  2  0  0  0  0  0  0
  160.9030  206.6090  154.2860 O   0  0  0  0  0  1  0  0  0  0  0  0
  161.6950  211.1510  155.6840 O   0  0  0  0  0  1  0  0  0  0  0  0
  161.3520  208.2770  152.5770 C   0  0  1  0  0  3  0  0  0  0  0  0
  162.0200  210.1590  154.7590 C   0  0  1  0  0  3  0  0  0  0  0  0
  159.1260  209.9980  154.4360 O   0  0  0  0  0  0  0  0  0  0  0  0
  159.1250  208.3960  156.0710 O   0  0  0  0  0  1  0  0  0  0  0  0
  159.7800  209.0640  155.2270 C   0  0  0  0  0  0  0  0  0  0  0  0
  162.3570  206.7250  149.1600 C   0  0  0  0  0  2  0  0  0  0  0  0
  161.5610  206.3410  146.8790 C   0  0  0  0  0  3  0  0  0  0  0  0
  161.2670  206.4980  148.1670 C   0  0  0  0  0  3  0  0  0  0  0  0
  160.4790  206.1070  145.8720 C   0  0  0  0  0  2  0  0  0  0  0  0
  160.9400  205.1590  144.7740 C   0  0  0  0  0  2  0  0  0  0  0  0
  161.9190  204.1390  145.3280 C   0  0  0  0  0  2  0  0  0  0  0  0
  161.1750  202.9860  145.9040 C   0  0  0  0  0  0  0  0  0  0  0  0
  161.2360  202.7510  147.1380 O   0  0  0  0  0  1  0  0  0  0  0  0
  160.4430  202.1470  145.0740 O   0  0  0  0  0  0  0  0  0  0  0  0
  160.8270  206.0880  151.5700 O   0  0  0  0  0  0  0  0  0  0  0  0
  161.5700  204.8960  151.5200 C   0  0  0  0  0  3  0  0  0  0  0  0
  160.8080  203.8060  152.2460 C   0  0  0  0  0  2  0  0  0  0  0  0
  160.7950  203.8580  150.7350 C   0  0  0  0  0  2  0  0  0  0  0  0
  1 29  1  6  0  0  0
  1 15  1  0  0  0  0
  2  6  2  0  0  0  0
  2  3  1  0  0  0  0
  3 10  2  0  0  0  0
  4 13  1  1  0  0  0
  4  5  1  0  0  0  0
  5 19  1  6  0  0  0
  6 11  1  0  0  0  0
  7  1  1  0  0  0  0
  8  9  1  0  0  0  0
  9 15  1  0  0  0  0
  9 12  1  1  0  0  0
 10  8  1  0  0  0  0
 11  7  1  0  0  0  0
 11  8  2  0  0  0  0
 12 16  1  0  0  0  0
 15  4  1  0  0  0  0
 16  5  1  0  0  0  0
 16 14  1  0  0  0  0
 17 19  2  0  0  0  0
 19 18  1  0  0  0  0
 20  7  1  0  0  0  0
 21 22  2  0  0  0  0
 22 20  1  0  0  0  0
 23 21  1  0  0  0  0
 24 25  1  0  0  0  0
 24 23  1  0  0  0  0
 25 26  1  0  0  0  0
 26 27  1  0  0  0  0
 28 26  2  0  0  0  0
 30 29  1  0  0  0  0
 30 31  1  0  0  0  0
 32 30  1  0  0  0  0
 32 31  1  0  0  0  0
M  END
>  <MODEL>
3

>  <REMARK>
 VINA RESULT:      -6.7      1.958      8.624
  Name = 
  9 active torsions:
  status: ('A' for Active; 'I' for Inactive)
    1  A    between atoms: C_1  and  C_24
    2  A    between atoms: C_2  and  C_10
    3  A    between atoms: C_2  and  C_12
    4  A    between atoms: C_3  and  O_28
    5  A    between atoms: C_7  and  C_22
    6  A    between atoms: C_8  and  O_28
    7  A    between atoms: C_9  and  N_14
    8  A    between atoms: C_9  and  C_21
    9  A    between atoms: C_10  and  C_24
                            x       y       z     vdW  Elec       q    Type
                         _______ _______ _______ _____ _____    ______ ____

>  <TORSDO>
F 9

$$$$
=
 OpenBabel11062410463D

 32 35  0  0  1  0  0  0  0  0999 V2000
  160.5680  210.1540  153.3720 C   0  0  1  0  0  3  0  0  0  0  0  0
  160.6740  213.0880  149.3560 C   0  0  0  0  0  3  0  0  0  0  0  0
  159.9790  214.0840  150.0400 C   0  0  0  0  0  3  0  0  0  0  0  0
  159.2350  210.9340  155.3930 C   0  0  1  0  0  3  0  0  0  0  0  0
  158.1300  211.8630  155.9220 C   0  0  1  0  0  3  0  0  0  0  0  0
  161.0480  211.9180  150.0190 C   0  0  0  0  0  3  0  0  0  0  0  0
  161.1280  210.5260  152.0600 N   0  0  0  0  0  0  0  0  0  0  0  0
  160.0010  212.7230  152.0570 C   0  0  0  0  0  0  0  0  0  0  0  0
  159.7360  212.5580  153.5320 C   0  0  1  0  0  3  0  0  0  0  0  0
  159.6540  213.9080  151.3860 C   0  0  0  0  0  3  0  0  0  0  0  0
  160.7210  211.7260  151.3730 C   0  0  0  0  0  0  0  0  0  0  0  0
  158.5960  213.4580  154.0220 C   0  0  0  0  0  2  0  0  0  0  0  0
  158.9560  209.6090  155.7410 O   0  0  0  0  0  1  0  0  0  0  0  0
  157.4120  214.1670  155.9800 O   0  0  0  0  0  1  0  0  0  0  0  0
  159.4390  211.0870  153.8740 C   0  0  1  0  0  3  0  0  0  0  0  0
  158.4220  213.3170  155.5300 C   0  0  1  0  0  3  0  0  0  0  0  0
  155.8010  211.1850  156.5240 O   0  0  0  0  0  1  0  0  0  0  0  0
  156.4340  211.2450  154.3250 O   0  0  0  0  0  0  0  0  0  0  0  0
  156.7460  211.4120  155.5340 C   0  0  0  0  0  0  0  0  0  0  0  0
  162.2500  209.7400  151.5540 C   0  0  0  0  0  2  0  0  0  0  0  0
  162.3070  207.7580  150.1210 C   0  0  0  0  0  3  0  0  0  0  0  0
  161.8470  208.9890  150.3300 C   0  0  0  0  0  3  0  0  0  0  0  0
  161.9070  206.9890  148.9010 C   0  0  0  0  0  2  0  0  0  0  0  0
  160.6300  206.1960  149.1390 C   0  0  0  0  0  2  0  0  0  0  0  0
  160.8830  205.0640  150.1200 C   0  0  0  0  0  2  0  0  0  0  0  0
  160.9360  203.7680  149.3920 C   0  0  0  0  0  0  0  0  0  0  0  0
  160.6580  202.6980  149.9930 O   0  0  0  0  0  1  0  0  0  0  0  0
  161.3290  203.7330  148.0610 O   0  0  0  0  0  0  0  0  0  0  0  0
  160.2020  208.7880  153.4120 O   0  0  0  0  0  0  0  0  0  0  0  0
  161.2330  208.0600  154.0310 C   0  0  0  0  0  3  0  0  0  0  0  0
  160.6290  206.9300  154.8370 C   0  0  0  0  0  2  0  0  0  0  0  0
  161.2440  206.6470  153.4860 C   0  0  0  0  0  2  0  0  0  0  0  0
  1 29  1  6  0  0  0
  1 15  1  0  0  0  0
  2  6  2  0  0  0  0
  2  3  1  0  0  0  0
  3 10  2  0  0  0  0
  4 13  1  6  0  0  0
  4  5  1  0  0  0  0
  5 19  1  6  0  0  0
  6 11  1  0  0  0  0
  7  1  1  0  0  0  0
  8  9  1  0  0  0  0
  9 15  1  0  0  0  0
  9 12  1  6  0  0  0
 10  8  1  0  0  0  0
 11  8  2  0  0  0  0
 11  7  1  0  0  0  0
 12 16  1  0  0  0  0
 15  4  1  0  0  0  0
 16  5  1  0  0  0  0
 16 14  1  0  0  0  0
 18 19  2  0  0  0  0
 19 17  1  0  0  0  0
 20  7  1  0  0  0  0
 21 22  2  0  0  0  0
 22 20  1  0  0  0  0
 23 24  1  0  0  0  0
 23 21  1  0  0  0  0
 24 25  1  0  0  0  0
 26 27  1  0  0  0  0
 26 25  1  0  0  0  0
 28 26  2  0  0  0  0
 29 30  1  0  0  0  0
 30 31  1  0  0  0  0
 32 30  1  0  0  0  0
 32 31  1  0  0  0  0
M  END
>  <MODEL>
4

>  <REMARK>
 VINA RESULT:      -6.1      3.516      9.170
  Name = 
  9 active torsions:
  status: ('A' for Active; 'I' for Inactive)
    1  A    between atoms: C_1  and  C_24
    2  A    between atoms: C_2  and  C_10
    3  A    between atoms: C_2  and  C_12
    4  A    between atoms: C_3  and  O_28
    5  A    between atoms: C_7  and  C_22
    6  A    between atoms: C_8  and  O_28
    7  A    between atoms: C_9  and  N_14
    8  A    between atoms: C_9  and  C_21
    9  A    between atoms: C_10  and  C_24
                            x       y       z     vdW  Elec       q    Type
                         _______ _______ _______ _____ _____    ______ ____

>  <TORSDO>
F 9

$$$$
=
 OpenBabel11062410463D

 32 35  0  0  1  0  0  0  0  0999 V2000
  161.1250  210.3220  150.8050 C   0  0  1  0  0  3  0  0  0  0  0  0
  162.6590  205.8030  152.2110 C   0  0  0  0  0  3  0  0  0  0  0  0
  161.8500  205.8590  153.3450 C   0  0  0  0  0  3  0  0  0  0  0  0
  159.6190  211.6250  152.3880 C   0  0  1  0  0  3  0  0  0  0  0  0
  159.1110  211.7930  153.8290 C   0  0  1  0  0  3  0  0  0  0  0  0
  162.6270  206.8440  151.2810 C   0  0  0  0  0  3  0  0  0  0  0  0
  161.7490  209.0200  150.5070 N   0  0  0  0  0  0  0  0  0  0  0  0
  160.9940  208.0240  152.6360 C   0  0  0  0  0  0  0  0  0  0  0  0
  160.0310  209.1730  152.8000 C   0  0  1  0  0  3  0  0  0  0  0  0
  161.0140  206.9580  153.5510 C   0  0  0  0  0  3  0  0  0  0  0  0
  161.7940  207.9580  151.4800 C   0  0  0  0  0  0  0  0  0  0  0  0
  159.5800  209.3500  154.2540 C   0  0  0  0  0  2  0  0  0  0  0  0
  160.1430  212.8330  151.9200 O   0  0  0  0  0  1  0  0  0  0  0  0
  158.1080  210.5990  155.6730 O   0  0  0  0  0  1  0  0  0  0  0  0
  160.6430  210.4810  152.2680 C   0  0  1  0  0  3  0  0  0  0  0  0
  158.5480  210.4660  154.3550 C   0  0  1  0  0  3  0  0  0  0  0  0
  159.8820  213.6440  155.3210 O   0  0  0  0  0  1  0  0  0  0  0  0
  161.2130  211.8090  155.0060 O   0  0  0  0  0  0  0  0  0  0  0  0
  160.1350  212.4060  154.7480 C   0  0  0  0  0  0  0  0  0  0  0  0
  162.1590  208.7650  149.1280 C   0  0  0  0  0  2  0  0  0  0  0  0
  161.8740  206.7320  147.7980 C   0  0  0  0  0  3  0  0  0  0  0  0
  161.3130  207.6940  148.5260 C   0  0  0  0  0  3  0  0  0  0  0  0
  161.0390  205.6480  147.1920 C   0  0  0  0  0  2  0  0  0  0  0  0
  161.5600  204.2690  147.5730 C   0  0  0  0  0  2  0  0  0  0  0  0
  161.1270  203.9090  148.9840 C   0  0  0  0  0  2  0  0  0  0  0  0
  160.8080  202.4580  149.0590 C   0  0  0  0  0  0  0  0  0  0  0  0
  160.4980  201.9380  150.1630 O   0  0  0  0  0  1  0  0  0  0  0  0
  160.8870  201.6690  147.9200 O   0  0  0  0  0  0  0  0  0  0  0  0
  161.9400  211.3980  150.3820 O   0  0  0  0  0  0  0  0  0  0  0  0
  161.6210  211.7120  149.0500 C   0  0  0  0  0  3  0  0  0  0  0  0
  161.6680  213.2140  148.8680 C   0  0  0  0  0  2  0  0  0  0  0  0
  162.8190  212.3600  148.3880 C   0  0  0  0  0  2  0  0  0  0  0  0
  1 29  1  1  0  0  0
  1 15  1  0  0  0  0
  2  3  1  0  0  0  0
  3 10  2  0  0  0  0
  4 13  1  1  0  0  0
  4  5  1  0  0  0  0
  5 16  1  0  0  0  0
  5 19  1  1  0  0  0
  6 11  1  0  0  0  0
  6  2  2  0  0  0  0
  7  1  1  0  0  0  0
  7 11  1  0  0  0  0
  8  9  1  0  0  0  0
  8 10  1  0  0  0  0
  9 12  1  1  0  0  0
 11  8  2  0  0  0  0
 12 16  1  0  0  0  0
 15  4  1  0  0  0  0
 15  9  1  0  0  0  0
 16 14  1  0  0  0  0
 19 18  2  0  0  0  0
 19 17  1  0  0  0  0
 20  7  1  0  0  0  0
 21 22  2  0  0  0  0
 22 20  1  0  0  0  0
 23 24  1  0  0  0  0
 23 21  1  0  0  0  0
 24 25  1  0  0  0  0
 25 26  1  0  0  0  0
 26 27  1  0  0  0  0
 28 26  2  0  0  0  0
 30 29  1  0  0  0  0
 31 30  1  0  0  0  0
 32 31  1  0  0  0  0
 32 30  1  0  0  0  0
M  END
>  <MODEL>
5

>  <REMARK>
 VINA RESULT:      -6.1      2.646      7.806
  Name = 
  9 active torsions:
  status: ('A' for Active; 'I' for Inactive)
    1  A    between atoms: C_1  and  C_24
    2  A    between atoms: C_2  and  C_10
    3  A    between atoms: C_2  and  C_12
    4  A    between atoms: C_3  and  O_28
    5  A    between atoms: C_7  and  C_22
    6  A    between atoms: C_8  and  O_28
    7  A    between atoms: C_9  and  N_14
    8  A    between atoms: C_9  and  C_21
    9  A    between atoms: C_10  and  C_24
                            x       y       z     vdW  Elec       q    Type
                         _______ _______ _______ _____ _____    ______ ____

>  <TORSDO>
F 9

$$$$
=
 OpenBabel11062410463D

 32 35  0  0  1  0  0  0  0  0999 V2000
  161.4520  205.1800  150.7320 C   0  0  1  0  0  3  0  0  0  0  0  0
  162.4990  209.9720  151.5620 C   0  0  0  0  0  3  0  0  0  0  0  0
  162.1790  210.2910  150.2430 C   0  0  0  0  0  3  0  0  0  0  0  0
  160.8930  204.4670  148.3540 C   0  0  1  0  0  3  0  0  0  0  0  0
  160.9790  204.8100  146.8580 C   0  0  1  0  0  3  0  0  0  0  0  0
  162.3340  208.6640  152.0210 C   0  0  0  0  0  3  0  0  0  0  0  0
  161.6680  206.3140  151.6480 N   0  0  0  0  0  0  0  0  0  0  0  0
  161.5530  207.9770  149.8270 C   0  0  0  0  0  0  0  0  0  0  0  0
  160.9510  206.9190  148.9370 C   0  0  1  0  0  3  0  0  0  0  0  0
  161.6980  209.3020  149.3830 C   0  0  0  0  0  3  0  0  0  0  0  0
  161.8570  207.6580  151.1640 C   0  0  0  0  0  0  0  0  0  0  0  0
  161.0960  207.2610  147.4490 C   0  0  0  0  0  2  0  0  0  0  0  0
  161.4340  203.2000  148.5890 O   0  0  0  0  0  1  0  0  0  0  0  0
  160.4980  206.5400  145.2440 O   0  0  0  0  0  1  0  0  0  0  0  0
  161.5680  205.5400  149.2300 C   0  0  1  0  0  3  0  0  0  0  0  0
  160.4010  206.2060  146.5950 C   0  0  1  0  0  3  0  0  0  0  0  0
  163.4500  205.1710  146.9530 O   0  0  0  0  0  1  0  0  0  0  0  0
  162.5420  203.9770  145.2240 O   0  0  0  0  0  0  0  0  0  0  0  0
  162.3610  204.6250  146.2890 C   0  0  0  0  0  0  0  0  0  0  0  0
  161.4990  206.0710  153.0790 C   0  0  0  0  0  2  0  0  0  0  0  0
  160.5330  207.2140  155.0130 C   0  0  0  0  0  3  0  0  0  0  0  0
  160.6620  207.1430  153.6910 C   0  0  0  0  0  3  0  0  0  0  0  0
  159.7010  208.2870  155.6430 C   0  0  0  0  0  2  0  0  0  0  0  0
  160.1850  209.6730  155.2390 C   0  0  0  0  0  2  0  0  0  0  0  0
  160.8150  210.3820  156.4250 C   0  0  0  0  0  2  0  0  0  0  0  0
  162.2940  210.4160  156.2660 C   0  0  0  0  0  0  0  0  0  0  0  0
  163.0380  210.2000  157.2570 O   0  0  0  0  0  1  0  0  0  0  0  0
  162.8540  210.7210  155.0330 O   0  0  0  0  0  0  0  0  0  0  0  0
  162.2500  204.0660  151.0860 O   0  0  0  0  0  0  0  0  0  0  0  0
  161.5820  203.3270  152.0770 C   0  0  0  0  0  3  0  0  0  0  0  0
  160.2710  202.8160  151.5160 C   0  0  0  0  0  2  0  0  0  0  0  0
  161.4580  201.8860  151.6270 C   0  0  0  0  0  2  0  0  0  0  0  0
  1 29  1  1  0  0  0
  1  7  1  0  0  0  0
  2  6  1  0  0  0  0
  3  2  2  0  0  0  0
  4 13  1  6  0  0  0
  4 15  1  0  0  0  0
  5 19  1  1  0  0  0
  5  4  1  0  0  0  0
  7 20  1  0  0  0  0
  8 11  1  0  0  0  0
  9 12  1  6  0  0  0
  9 15  1  0  0  0  0
  9  8  1  0  0  0  0
 10  8  2  0  0  0  0
 10  3  1  0  0  0  0
 11  7  1  0  0  0  0
 11  6  2  0  0  0  0
 14 16  1  0  0  0  0
 15  1  1  0  0  0  0
 16  5  1  0  0  0  0
 16 12  1  0  0  0  0
 18 19  2  0  0  0  0
 19 17  1  0  0  0  0
 20 22  1  0  0  0  0
 21 23  1  0  0  0  0
 22 21  2  0  0  0  0
 24 23  1  0  0  0  0
 24 25  1  0  0  0  0
 26 25  1  0  0  0  0
 26 27  1  0  0  0  0
 28 26  2  0  0  0  0
 29 30  1  0  0  0  0
 31 32  1  0  0  0  0
 31 30  1  0  0  0  0
 32 30  1  0  0  0  0
M  END
>  <MODEL>
6

>  <REMARK>
 VINA RESULT:      -6.1      1.382      4.107
  Name = 
  9 active torsions:
  status: ('A' for Active; 'I' for Inactive)
    1  A    between atoms: C_1  and  C_24
    2  A    between atoms: C_2  and  C_10
    3  A    between atoms: C_2  and  C_12
    4  A    between atoms: C_3  and  O_28
    5  A    between atoms: C_7  and  C_22
    6  A    between atoms: C_8  and  O_28
    7  A    between atoms: C_9  and  N_14
    8  A    between atoms: C_9  and  C_21
    9  A    between atoms: C_10  and  C_24
                            x       y       z     vdW  Elec       q    Type
                         _______ _______ _______ _____ _____    ______ ____

>  <TORSDO>
F 9

$$$$
=
 OpenBabel11062410463D

 32 35  0  0  1  0  0  0  0  0999 V2000
  161.2060  208.9070  151.2140 C   0  0  1  0  0  3  0  0  0  0  0  0
  161.5780  203.9480  151.0650 C   0  0  0  0  0  3  0  0  0  0  0  0
  161.2180  203.8600  152.4090 C   0  0  0  0  0  3  0  0  0  0  0  0
  160.7550  210.0100  153.4620 C   0  0  1  0  0  3  0  0  0  0  0  0
  160.7950  209.8680  154.9920 C   0  0  1  0  0  3  0  0  0  0  0  0
  161.5950  205.1900  150.4280 C   0  0  0  0  0  3  0  0  0  0  0  0
  161.2610  207.6390  150.4650 N   0  0  0  0  0  0  0  0  0  0  0  0
  160.9200  206.2740  152.4940 C   0  0  0  0  0  0  0  0  0  0  0  0
  160.4720  207.5170  153.2200 C   0  0  1  0  0  3  0  0  0  0  0  0
  160.8800  205.0150  153.1170 C   0  0  0  0  0  3  0  0  0  0  0  0
  161.2630  206.3610  151.1320 C   0  0  0  0  0  0  0  0  0  0  0  0
  160.5700  207.3670  154.7430 C   0  0  0  0  0  2  0  0  0  0  0  0
  161.4660  211.1460  153.0660 O   0  0  0  0  0  1  0  0  0  0  0  0
  160.0810  208.4590  156.8180 O   0  0  0  0  0  1  0  0  0  0  0  0
  161.2730  208.7440  152.7530 C   0  0  1  0  0  3  0  0  0  0  0  0
  160.0290  208.6140  155.4330 C   0  0  1  0  0  3  0  0  0  0  0  0
  162.5280  209.1420  156.6390 O   0  0  0  0  0  1  0  0  0  0  0  0
  163.0540  210.7030  155.0500 O   0  0  0  0  0  0  0  0  0  0  0  0
  162.1900  209.9380  155.5550 C   0  0  0  0  0  0  0  0  0  0  0  0
  161.1250  207.7040  149.0120 C   0  0  0  0  0  2  0  0  0  0  0  0
  161.7580  206.3200  147.0970 C   0  0  0  0  0  3  0  0  0  0  0  0
  161.9730  206.6610  148.3650 C   0  0  0  0  0  3  0  0  0  0  0  0
  162.6040  205.2800  146.4310 C   0  0  0  0  0  2  0  0  0  0  0  0
  162.0850  203.8780  146.7170 C   0  0  0  0  0  2  0  0  0  0  0  0
  161.2320  203.3810  145.5630 C   0  0  0  0  0  2  0  0  0  0  0  0
  160.6950  202.0290  145.8770 C   0  0  0  0  0  0  0  0  0  0  0  0
  160.8310  201.5520  147.0330 O   0  0  0  0  0  1  0  0  0  0  0  0
  160.0760  201.2800  144.8860 O   0  0  0  0  0  0  0  0  0  0  0  0
  162.1500  209.8410  150.7250 O   0  0  0  0  0  0  0  0  0  0  0  0
  161.6500  210.4140  149.5430 C   0  0  0  0  0  3  0  0  0  0  0  0
  161.5570  211.9140  149.7190 C   0  0  0  0  0  2  0  0  0  0  0  0
  162.7060  211.3160  148.9390 C   0  0  0  0  0  2  0  0  0  0  0  0
  1 29  1  6  0  0  0
  1 15  1  0  0  0  0
  2  3  1  0  0  0  0
  3 10  2  0  0  0  0
  4 13  1  1  0  0  0
  4  5  1  0  0  0  0
  5 16  1  0  0  0  0
  5 19  1  6  0  0  0
  6  2  2  0  0  0  0
  6 11  1  0  0  0  0
  7 11  1  0  0  0  0
  7  1  1  0  0  0  0
  8 10  1  0  0  0  0
  8  9  1  0  0  0  0
  9 12  1  1  0  0  0
 11  8  2  0  0  0  0
 12 16  1  0  0  0  0
 15  9  1  0  0  0  0
 15  4  1  0  0  0  0
 16 14  1  0  0  0  0
 18 19  2  0  0  0  0
 19 17  1  0  0  0  0
 20  7  1  0  0  0  0
 21 22  2  0  0  0  0
 22 20  1  0  0  0  0
 23 24  1  0  0  0  0
 23 21  1  0  0  0  0
 25 26  1  0  0  0  0
 25 24  1  0  0  0  0
 26 27  1  0  0  0  0
 28 26  2  0  0  0  0
 30 31  1  0  0  0  0
 30 29  1  0  0  0  0
 32 30  1  0  0  0  0
 32 31  1  0  0  0  0
M  END
>  <MODEL>
7

>  <REMARK>
 VINA RESULT:      -6.0      1.968      7.971
  Name = 
  9 active torsions:
  status: ('A' for Active; 'I' for Inactive)
    1  A    between atoms: C_1  and  C_24
    2  A    between atoms: C_2  and  C_10
    3  A    between atoms: C_2  and  C_12
    4  A    between atoms: C_3  and  O_28
    5  A    between atoms: C_7  and  C_22
    6  A    between atoms: C_8  and  O_28
    7  A    between atoms: C_9  and  N_14
    8  A    between atoms: C_9  and  C_21
    9  A    between atoms: C_10  and  C_24
                            x       y       z     vdW  Elec       q    Type
                         _______ _______ _______ _____ _____    ______ ____

>  <TORSDO>
F 9

$$$$
=
 OpenBabel11062410463D

 32 35  0  0  1  0  0  0  0  0999 V2000
  161.5480  207.4940  151.8550 C   0  0  1  0  0  3  0  0  0  0  0  0
  160.8870  205.0790  147.5550 C   0  0  0  0  0  3  0  0  0  0  0  0
  161.1710  206.2400  146.8360 C   0  0  0  0  0  3  0  0  0  0  0  0
  161.9480  210.0050  151.7720 C   0  0  1  0  0  3  0  0  0  0  0  0
  161.8200  211.2990  150.9510 C   0  0  1  0  0  3  0  0  0  0  0  0
  160.9780  205.0830  148.9480 C   0  0  0  0  0  3  0  0  0  0  0  0
  161.4560  206.2450  151.0770 N   0  0  0  0  0  0  0  0  0  0  0  0
  161.6080  207.4280  148.9150 C   0  0  0  0  0  0  0  0  0  0  0  0
  162.0930  208.6520  149.6500 C   0  0  1  0  0  3  0  0  0  0  0  0
  161.5400  207.4050  147.5120 C   0  0  0  0  0  3  0  0  0  0  0  0
  161.3430  206.2510  149.6390 C   0  0  0  0  0  0  0  0  0  0  0  0
  161.9070  209.9340  148.8300 C   0  0  0  0  0  2  0  0  0  0  0  0
  161.3290  210.1620  153.0150 O   0  0  0  0  0  1  0  0  0  0  0  0
  162.3520  212.2880  148.8140 O   0  0  0  0  0  1  0  0  0  0  0  0
  161.3920  208.7850  151.0140 C   0  0  1  0  0  3  0  0  0  0  0  0
  162.4850  211.1290  149.5790 C   0  0  1  0  0  3  0  0  0  0  0  0
  160.0570  212.6890  149.8540 O   0  0  0  0  0  0  0  0  0  0  0  0
  159.5310  211.4310  151.6920 O   0  0  0  0  0  1  0  0  0  0  0  0
  160.4040  211.8040  150.8640 C   0  0  0  0  0  0  0  0  0  0  0  0
  161.6710  204.9870  151.7860 C   0  0  0  0  0  2  0  0  0  0  0  0
  161.1310  202.6930  151.1320 C   0  0  0  0  0  3  0  0  0  0  0  0
  160.7200  203.9470  151.2980 C   0  0  0  0  0  3  0  0  0  0  0  0
  160.1870  201.6370  150.6480 C   0  0  0  0  0  2  0  0  0  0  0  0
  160.0470  201.6700  149.1330 C   0  0  0  0  0  2  0  0  0  0  0  0
  161.3760  201.3510  148.4700 C   0  0  0  0  0  2  0  0  0  0  0  0
  161.1460  200.9020  147.0700 C   0  0  0  0  0  0  0  0  0  0  0  0
  161.4660  199.7350  146.7230 O   0  0  0  0  0  1  0  0  0  0  0  0
  160.6140  201.7810  146.1360 O   0  0  0  0  0  0  0  0  0  0  0  0
  160.6890  207.4710  152.9780 O   0  0  0  0  0  0  0  0  0  0  0  0
  161.4100  206.9990  154.0900 C   0  0  0  0  0  3  0  0  0  0  0  0
  161.1920  207.9390  155.2570 C   0  0  0  0  0  2  0  0  0  0  0  0
  160.4410  206.6280  155.1930 C   0  0  0  0  0  2  0  0  0  0  0  0
  1 29  1  1  0  0  0
  2  6  1  0  0  0  0
  3 10  1  0  0  0  0
  3  2  2  0  0  0  0
  4 13  1  1  0  0  0
  5 19  1  6  0  0  0
  5  4  1  0  0  0  0
  6 11  2  0  0  0  0
  7 20  1  0  0  0  0
  7  1  1  0  0  0  0
  8 11  1  0  0  0  0
  8  9  1  0  0  0  0
  9 12  1  6  0  0  0
  9 15  1  0  0  0  0
 10  8  2  0  0  0  0
 11  7  1  0  0  0  0
 12 16  1  0  0  0  0
 14 16  1  0  0  0  0
 15  4  1  0  0  0  0
 15  1  1  0  0  0  0
 16  5  1  0  0  0  0
 17 19  2  0  0  0  0
 19 18  1  0  0  0  0
 21 22  2  0  0  0  0
 22 20  1  0  0  0  0
 23 21  1  0  0  0  0
 24 23  1  0  0  0  0
 25 24  1  0  0  0  0
 26 25  1  0  0  0  0
 27 26  1  0  0  0  0
 28 26  2  0  0  0  0
 29 30  1  0  0  0  0
 30 32  1  0  0  0  0
 30 31  1  0  0  0  0
 32 31  1  0  0  0  0
M  END
>  <MODEL>
8

>  <REMARK>
 VINA RESULT:      -5.5      2.184      7.040
  Name = 
  9 active torsions:
  status: ('A' for Active; 'I' for Inactive)
    1  A    between atoms: C_1  and  C_24
    2  A    between atoms: C_2  and  C_10
    3  A    between atoms: C_2  and  C_12
    4  A    between atoms: C_3  and  O_28
    5  A    between atoms: C_7  and  C_22
    6  A    between atoms: C_8  and  O_28
    7  A    between atoms: C_9  and  N_14
    8  A    between atoms: C_9  and  C_21
    9  A    between atoms: C_10  and  C_24
                            x       y       z     vdW  Elec       q    Type
                         _______ _______ _______ _____ _____    ______ ____

>  <TORSDO>
F 9

$$$$
=
 OpenBabel11062410463D

 32 35  0  0  1  0  0  0  0  0999 V2000
  160.8860  208.4570  153.9580 C   0  0  1  0  0  3  0  0  0  0  0  0
  162.2640  208.1430  149.1880 C   0  0  0  0  0  3  0  0  0  0  0  0
  161.9920  209.4970  148.9990 C   0  0  0  0  0  3  0  0  0  0  0  0
  159.8990  210.6520  154.7800 C   0  0  1  0  0  3  0  0  0  0  0  0
  159.2290  211.9820  154.3970 C   0  0  1  0  0  3  0  0  0  0  0  0
  162.1280  207.5750  150.4560 C   0  0  0  0  0  3  0  0  0  0  0  0
  161.5890  207.7690  152.8600 N   0  0  0  0  0  0  0  0  0  0  0  0
  161.4140  209.7160  151.3530 C   0  0  0  0  0  0  0  0  0  0  0  0
  161.0570  210.5700  152.5430 C   0  0  1  0  0  3  0  0  0  0  0  0
  161.5800  210.2820  150.0780 C   0  0  0  0  0  3  0  0  0  0  0  0
  161.7080  208.3540  151.5480 C   0  0  0  0  0  0  0  0  0  0  0  0
  160.3450  211.8650  152.1360 C   0  0  0  0  0  2  0  0  0  0  0  0
  159.1120  209.9690  155.7120 O   0  0  0  0  0  1  0  0  0  0  0  0
  159.4690  213.9260  152.9860 O   0  0  0  0  0  1  0  0  0  0  0  0
  160.1970  209.7810  153.5460 C   0  0  1  0  0  3  0  0  0  0  0  0
  160.0800  212.7300  153.3630 C   0  0  1  0  0  3  0  0  0  0  0  0
  156.8000  212.5120  154.6500 O   0  0  0  0  0  1  0  0  0  0  0  0
  157.4820  211.0650  153.0130 O   0  0  0  0  0  0  0  0  0  0  0  0
  157.7930  211.8180  153.9750 C   0  0  0  0  0  0  0  0  0  0  0  0
  162.3300  206.5530  153.1870 C   0  0  0  0  0  2  0  0  0  0  0  0
  161.1710  204.6200  152.2350 C   0  0  0  0  0  3  0  0  0  0  0  0
  162.1380  205.5270  152.1210 C   0  0  0  0  0  3  0  0  0  0  0  0
  160.9620  203.5880  151.1720 C   0  0  0  0  0  2  0  0  0  0  0  0
  160.8220  204.2270  149.7980 C   0  0  0  0  0  2  0  0  0  0  0  0
  161.0750  203.2030  148.7070 C   0  0  0  0  0  2  0  0  0  0  0  0
  161.5090  203.8890  147.4600 C   0  0  0  0  0  0  0  0  0  0  0  0
  161.7740  205.1190  147.4790 O   0  0  0  0  0  1  0  0  0  0  0  0
  161.5880  203.1820  146.2680 O   0  0  0  0  0  0  0  0  0  0  0  0
  160.0130  207.5810  154.6460 O   0  0  0  0  0  0  0  0  0  0  0  0
  160.7550  206.8520  155.5910 C   0  0  0  0  0  3  0  0  0  0  0  0
  161.2920  207.8020  156.6410 C   0  0  0  0  0  2  0  0  0  0  0  0
  160.0780  206.9520  156.9420 C   0  0  0  0  0  2  0  0  0  0  0  0
  1 29  1  6  0  0  0
  2  6  1  0  0  0  0
  3  2  2  0  0  0  0
  3 10  1  0  0  0  0
  4 13  1  1  0  0  0
  5 19  1  6  0  0  0
  5  4  1  0  0  0  0
  6 11  2  0  0  0  0
  7 20  1  0  0  0  0
  7  1  1  0  0  0  0
  8 11  1  0  0  0  0
  8  9  1  0  0  0  0
  9 12  1  6  0  0  0
  9 15  1  0  0  0  0
 10  8  2  0  0  0  0
 11  7  1  0  0  0  0
 12 16  1  0  0  0  0
 14 16  1  0  0  0  0
 15  1  1  0  0  0  0
 15  4  1  0  0  0  0
 16  5  1  0  0  0  0
 18 19  2  0  0  0  0
 19 17  1  0  0  0  0
 22 21  2  0  0  0  0
 22 20  1  0  0  0  0
 23 21  1  0  0  0  0
 24 23  1  0  0  0  0
 25 24  1  0  0  0  0
 26 27  1  0  0  0  0
 26 25  1  0  0  0  0
 28 26  2  0  0  0  0
 29 30  1  0  0  0  0
 30 31  1  0  0  0  0
 30 32  1  0  0  0  0
 31 32  1  0  0  0  0
M  END
>  <MODEL>
9

>  <REMARK>
 VINA RESULT:      -5.5      2.626      7.952
  Name = 
  9 active torsions:
  status: ('A' for Active; 'I' for Inactive)
    1  A    between atoms: C_1  and  C_24
    2  A    between atoms: C_2  and  C_10
    3  A    between atoms: C_2  and  C_12
    4  A    between atoms: C_3  and  O_28
    5  A    between atoms: C_7  and  C_22
    6  A    between atoms: C_8  and  O_28
    7  A    between atoms: C_9  and  N_14
    8  A    between atoms: C_9  and  C_21
    9  A    between atoms: C_10  and  C_24
                            x       y       z     vdW  Elec       q    Type
                         _______ _______ _______ _____ _____    ______ ____

>  <TORSDO>
F 9

$$$$
