=
 OpenBabel11062410433D

 32 35  0  0  1  0  0  0  0  0999 V2000
  161.6490  207.9010  150.5120 C   0  0  0  0  0  0  0  0  0  0  0  0
  161.0410  203.1020  150.2020 N   0  0  0  0  0  0  0  0  0  0  0  0
  160.8690  203.0200  151.5460 C   0  0  0  0  0  3  0  0  0  0  0  0
  161.6360  208.9730  152.7460 C   0  0  0  0  0  0  0  0  0  0  0  0
  161.0110  209.0080  154.1170 C   0  0  2  0  0  3  0  0  0  0  0  0
  160.0310  208.8720  156.7110 C   0  0  0  0  0  2  0  0  0  0  0  0
  161.2770  204.2920  149.5890 C   0  0  0  0  0  3  0  0  0  0  0  0
  161.5840  206.7200  149.7110 C   0  0  0  0  0  0  0  0  0  0  0  0
  161.3510  205.4820  150.3330 C   0  0  0  0  0  0  0  0  0  0  0  0
  161.2550  206.5900  152.4860 C   0  0  0  0  0  0  0  0  0  0  0  0
  161.3600  209.6210  156.5510 C   0  0  0  0  0  2  0  0  0  0  0  0
  162.0310  209.4020  155.1880 C   0  0  0  0  0  2  0  0  0  0  0  0
  160.9330  204.1720  152.3290 C   0  0  0  0  0  3  0  0  0  0  0  0
  161.1760  205.4150  151.7240 C   0  0  0  0  0  0  0  0  0  0  0  0
  161.0970  206.5020  153.9800 C   0  0  0  0  0  2  0  0  0  0  0  0
  161.7990  209.0940  149.9870 N   0  0  0  0  0  0  0  0  0  0  0  0
  162.2760  209.9920  152.3640 O   0  0  0  0  0  0  0  0  0  0  0  0
  160.0710  207.5260  155.9920 C   0  0  0  0  0  2  0  0  0  0  0  0
  161.5190  207.8000  151.8880 N   0  0  0  0  0  0  0  0  0  0  0  0
  160.3010  207.6910  154.4830 C   0  0  1  0  0  3  0  0  0  0  0  0
  161.9190  209.4830  148.5890 C   0  0  0  0  0  2  0  0  0  0  0  0
  161.7240  211.5540  149.7110 F   0  0  0  0  0  0  0  0  0  0  0  0
  162.0470  210.9880  148.4930 C   0  0  0  0  0  2  0  0  0  0  0  0
  161.8080  206.7290  148.2240 C   0  0  0  0  0  2  0  0  0  0  0  0
  160.5510  206.4870  147.5380 N   0  0  0  0  0  2  0  0  0  0  0  0
  160.8860  205.9920  146.2140 C   0  0  0  0  0  2  0  0  0  0  0  0
  162.3630  205.6500  146.1490 C   0  0  0  0  0  2  0  0  0  0  0  0
  162.5510  204.1430  146.1890 C   0  0  0  0  0  2  0  0  0  0  0  0
  160.8510  202.3100  145.8140 C   0  0  0  0  0  0  0  0  0  0  0  0
  161.5290  203.4910  145.3850 N   0  0  0  0  0  2  0  0  0  0  0  0
  159.8010  201.7100  144.9490 C   0  0  0  0  0  1  0  0  0  0  0  0
  161.1350  201.7670  146.9150 O   0  0  0  0  0  0  0  0  0  0  0  0
  1 19  1  0  0  0  0
  2  3  1  0  0  0  0
  3 13  2  0  0  0  0
  4  5  1  0  0  0  0
  5 20  1  0  0  0  0
  5 12  1  1  0  0  0
  7  2  2  0  0  0  0
  7  9  1  0  0  0  0
  8  9  2  0  0  0  0
  8  1  1  0  0  0  0
  9 14  1  0  0  0  0
 10 15  1  0  0  0  0
 11  6  1  0  0  0  0
 12 11  1  0  0  0  0
 14 13  1  0  0  0  0
 14 10  2  0  0  0  0
 16  1  2  0  0  0  0
 17  4  2  0  0  0  0
 18  6  1  0  0  0  0
 19 10  1  0  0  0  0
 19  4  1  0  0  0  0
 20 15  1  1  0  0  0
 20 18  1  0  0  0  0
 21 16  1  0  0  0  0
 23 21  1  0  0  0  0
 23 22  1  0  0  0  0
 24  8  1  0  0  0  0
 25 24  1  0  0  0  0
 26 25  1  0  0  0  0
 27 28  1  0  0  0  0
 27 26  1  0  0  0  0
 29 32  2  0  0  0  0
 30 29  1  0  0  0  0
 30 28  1  0  0  0  0
 31 29  1  0  0  0  0
M  END
>  <MODEL>
1

>  <REMARK>
 VINA RESULT:      -9.2      0.000      0.000
  Name = 
  8 active torsions:
  status: ('A' for Active; 'I' for Inactive)
    1  A    between atoms: C_2  and  C_12
    2  A    between atoms: C_2  and  C_24
    3  A    between atoms: C_8  and  C_23
    4  A    between atoms: C_8  and  N_28
    5  A    between atoms: C_9  and  C_14
    6  A    between atoms: C_9  and  N_21
    7  A    between atoms: N_10  and  C_24
    8  A    between atoms: C_12  and  N_21
                            x       y       z     vdW  Elec       q    Type
                         _______ _______ _______ _____ _____    ______ ____

>  <TORSDO>
F 8

$$$$
=
 OpenBabel11062410433D

 32 35  0  0  1  0  0  0  0  0999 V2000
  161.6710  208.1240  149.8650 C   0  0  0  0  0  0  0  0  0  0  0  0
  161.1550  205.2170  153.7100 N   0  0  0  0  0  0  0  0  0  0  0  0
  160.9490  204.1500  152.8970 C   0  0  0  0  0  3  0  0  0  0  0  0
  161.3650  207.1800  147.5950 C   0  0  0  0  0  0  0  0  0  0  0  0
  161.6020  206.0030  146.6820 C   0  0  2  0  0  3  0  0  0  0  0  0
  161.8130  203.7270  145.1060 C   0  0  0  0  0  2  0  0  0  0  0  0
  161.3830  206.4580  153.2070 C   0  0  0  0  0  3  0  0  0  0  0  0
  161.6520  207.9530  151.2840 C   0  0  0  0  0  0  0  0  0  0  0  0
  161.4090  206.6780  151.8180 C   0  0  0  0  0  0  0  0  0  0  0  0
  161.2100  205.7840  149.5750 C   0  0  0  0  0  0  0  0  0  0  0  0
  160.7940  204.7670  144.6230 C   0  0  0  0  0  2  0  0  0  0  0  0
  160.4660  205.8420  145.6690 C   0  0  0  0  0  2  0  0  0  0  0  0
  160.9650  204.3140  151.5130 C   0  0  0  0  0  3  0  0  0  0  0  0
  161.1960  205.5850  150.9630 C   0  0  0  0  0  0  0  0  0  0  0  0
  160.9500  204.6120  148.6680 C   0  0  0  0  0  2  0  0  0  0  0  0
  161.9560  209.2730  149.3030 N   0  0  0  0  0  0  0  0  0  0  0  0
  161.1120  208.2960  147.0620 O   0  0  0  0  0  0  0  0  0  0  0  0
  161.6360  203.4370  146.5940 C   0  0  0  0  0  2  0  0  0  0  0  0
  161.4120  207.0370  149.0450 N   0  0  0  0  0  0  0  0  0  0  0  0
  161.8520  204.6920  147.4510 C   0  0  1  0  0  3  0  0  0  0  0  0
  162.2990  210.5470  149.9190 C   0  0  0  0  0  2  0  0  0  0  0  0
  163.0750  211.7460  148.0360 F   0  0  0  0  0  0  0  0  0  0  0  0
  162.0330  211.6700  148.9400 C   0  0  0  0  0  2  0  0  0  0  0  0
  161.8310  209.0970  152.2440 C   0  0  0  0  0  2  0  0  0  0  0  0
  160.5360  209.6600  152.5820 N   0  0  0  0  0  2  0  0  0  0  0  0
  160.7930  210.8900  153.3100 C   0  0  0  0  0  2  0  0  0  0  0  0
  159.6130  211.2150  154.2070 C   0  0  0  0  0  2  0  0  0  0  0  0
  159.9710  210.9410  155.6580 C   0  0  0  0  0  2  0  0  0  0  0  0
  160.4730  208.5180  156.1770 C   0  0  0  0  0  0  0  0  0  0  0  0
  159.5510  209.5990  156.0310 N   0  0  0  0  0  2  0  0  0  0  0  0
  159.9750  207.1780  156.5840 C   0  0  0  0  0  1  0  0  0  0  0  0
  161.7020  208.6860  155.9600 O   0  0  0  0  0  0  0  0  0  0  0  0
  1  8  1  0  0  0  0
  3  2  1  0  0  0  0
  4 19  1  0  0  0  0
  5 12  1  6  0  0  0
  5 20  1  0  0  0  0
  5  4  1  0  0  0  0
  6 18  1  0  0  0  0
  7  2  2  0  0  0  0
  8  9  2  0  0  0  0
  8 24  1  0  0  0  0
  9  7  1  0  0  0  0
 10 14  2  0  0  0  0
 11  6  1  0  0  0  0
 11 12  1  0  0  0  0
 13  3  2  0  0  0  0
 14 13  1  0  0  0  0
 14  9  1  0  0  0  0
 15 10  1  0  0  0  0
 16  1  2  0  0  0  0
 16 21  1  0  0  0  0
 17  4  2  0  0  0  0
 19 10  1  0  0  0  0
 19  1  1  0  0  0  0
 20 18  1  6  0  0  0
 20 15  1  0  0  0  0
 22 23  1  0  0  0  0
 23 21  1  0  0  0  0
 24 25  1  0  0  0  0
 25 26  1  0  0  0  0
 26 27  1  0  0  0  0
 27 28  1  0  0  0  0
 28 30  1  0  0  0  0
 29 31  1  0  0  0  0
 30 29  1  0  0  0  0
 32 29  2  0  0  0  0
M  END
>  <MODEL>
2

>  <REMARK>
 VINA RESULT:      -8.1      2.195      7.522
  Name = 
  8 active torsions:
  status: ('A' for Active; 'I' for Inactive)
    1  A    between atoms: C_2  and  C_12
    2  A    between atoms: C_2  and  C_24
    3  A    between atoms: C_8  and  C_23
    4  A    between atoms: C_8  and  N_28
    5  A    between atoms: C_9  and  C_14
    6  A    between atoms: C_9  and  N_21
    7  A    between atoms: N_10  and  C_24
    8  A    between atoms: C_12  and  N_21
                            x       y       z     vdW  Elec       q    Type
                         _______ _______ _______ _____ _____    ______ ____

>  <TORSDO>
F 8

$$$$
=
 OpenBabel11062410433D

 32 35  0  0  1  0  0  0  0  0999 V2000
  161.3970  207.0650  151.5760 C   0  0  0  0  0  0  0  0  0  0  0  0
  162.0690  210.6700  148.4060 N   0  0  0  0  0  0  0  0  0  0  0  0
  161.9290  211.5890  149.3960 C   0  0  0  0  0  3  0  0  0  0  0  0
  160.8970  207.6190  153.9390 C   0  0  0  0  0  0  0  0  0  0  0  0
  161.1900  208.5300  155.1040 C   0  0  2  0  0  3  0  0  0  0  0  0
  161.5500  210.3800  157.1420 C   0  0  0  0  0  2  0  0  0  0  0  0
  161.9780  209.3380  148.6580 C   0  0  0  0  0  3  0  0  0  0  0  0
  161.6460  207.4930  150.2360 C   0  0  0  0  0  0  0  0  0  0  0  0
  161.7330  208.8670  149.9590 C   0  0  0  0  0  0  0  0  0  0  0  0
  161.3310  209.3550  152.2980 C   0  0  0  0  0  0  0  0  0  0  0  0
  160.2920  209.5100  157.2610 C   0  0  0  0  0  2  0  0  0  0  0  0
  159.9520  208.7400  155.9760 C   0  0  0  0  0  2  0  0  0  0  0  0
  161.6850  211.1740  150.7030 C   0  0  0  0  0  3  0  0  0  0  0  0
  161.5850  209.8040  150.9940 C   0  0  0  0  0  0  0  0  0  0  0  0
  161.1430  210.3690  153.3940 C   0  0  0  0  0  2  0  0  0  0  0  0
  161.3690  205.7980  151.9120 N   0  0  0  0  0  0  0  0  0  0  0  0
  160.3590  206.5040  154.1840 O   0  0  0  0  0  0  0  0  0  0  0  0
  161.6790  210.9690  155.7400 C   0  0  0  0  0  2  0  0  0  0  0  0
  161.2090  208.0120  152.5700 N   0  0  0  0  0  0  0  0  0  0  0  0
  161.8010  209.8760  154.6690 C   0  0  1  0  0  3  0  0  0  0  0  0
  161.5720  204.6150  151.0860 C   0  0  0  0  0  2  0  0  0  0  0  0
  161.7260  202.4520  152.0240 F   0  0  0  0  0  0  0  0  0  0  0  0
  160.8260  203.4450  151.6890 C   0  0  0  0  0  2  0  0  0  0  0  0
  161.7690  206.5340  149.0830 C   0  0  0  0  0  2  0  0  0  0  0  0
  160.5110  206.4710  148.3610 N   0  0  0  0  0  2  0  0  0  0  0  0
  160.8400  206.2180  146.9700 C   0  0  0  0  0  2  0  0  0  0  0  0
  162.0810  205.3500  146.8810 C   0  0  0  0  0  2  0  0  0  0  0  0
  161.6950  203.9260  146.5170 C   0  0  0  0  0  2  0  0  0  0  0  0
  161.0710  201.7740  147.6900 C   0  0  0  0  0  0  0  0  0  0  0  0
  161.4740  203.1440  147.7240 N   0  0  0  0  0  2  0  0  0  0  0  0
  160.8860  201.0310  148.9640 C   0  0  0  0  0  1  0  0  0  0  0  0
  160.8660  201.1910  146.5930 O   0  0  0  0  0  0  0  0  0  0  0  0
  1 16  2  0  0  0  0
  1 19  1  0  0  0  0
  2  7  2  0  0  0  0
  2  3  1  0  0  0  0
  3 13  2  0  0  0  0
  4 17  2  0  0  0  0
  4  5  1  0  0  0  0
  5 12  1  6  0  0  0
  6 11  1  0  0  0  0
  7  9  1  0  0  0  0
  8  1  1  0  0  0  0
  9  8  2  0  0  0  0
  9 14  1  0  0  0  0
 10 19  1  0  0  0  0
 10 15  1  0  0  0  0
 12 11  1  0  0  0  0
 13 14  1  0  0  0  0
 14 10  2  0  0  0  0
 18  6  1  0  0  0  0
 19  4  1  0  0  0  0
 20 15  1  6  0  0  0
 20  5  1  0  0  0  0
 20 18  1  0  0  0  0
 21 23  1  0  0  0  0
 21 16  1  0  0  0  0
 23 22  1  0  0  0  0
 24  8  1  0  0  0  0
 25 24  1  0  0  0  0
 26 25  1  0  0  0  0
 27 26  1  0  0  0  0
 28 27  1  0  0  0  0
 28 30  1  0  0  0  0
 29 30  1  0  0  0  0
 29 31  1  0  0  0  0
 32 29  2  0  0  0  0
M  END
>  <MODEL>
3

>  <REMARK>
 VINA RESULT:      -8.1      2.272      4.215
  Name = 
  8 active torsions:
  status: ('A' for Active; 'I' for Inactive)
    1  A    between atoms: C_2  and  C_12
    2  A    between atoms: C_2  and  C_24
    3  A    between atoms: C_8  and  C_23
    4  A    between atoms: C_8  and  N_28
    5  A    between atoms: C_9  and  C_14
    6  A    between atoms: C_9  and  N_21
    7  A    between atoms: N_10  and  C_24
    8  A    between atoms: C_12  and  N_21
                            x       y       z     vdW  Elec       q    Type
                         _______ _______ _______ _____ _____    ______ ____

>  <TORSDO>
F 8

$$$$
=
 OpenBabel11062410433D

 32 35  0  0  1  0  0  0  0  0999 V2000
  161.6490  208.2590  149.8830 C   0  0  0  0  0  0  0  0  0  0  0  0
  161.1720  205.4430  153.8000 N   0  0  0  0  0  0  0  0  0  0  0  0
  160.9740  204.3540  153.0140 C   0  0  0  0  0  3  0  0  0  0  0  0
  161.3460  207.2560  147.6380 C   0  0  0  0  0  0  0  0  0  0  0  0
  161.5920  206.0600  146.7540 C   0  0  2  0  0  3  0  0  0  0  0  0
  161.8210  203.7480  145.2340 C   0  0  0  0  0  2  0  0  0  0  0  0
  161.3860  206.6740  153.2660 C   0  0  0  0  0  3  0  0  0  0  0  0
  161.6360  208.1230  151.3060 C   0  0  0  0  0  0  0  0  0  0  0  0
  161.4070  206.8590  151.8730 C   0  0  0  0  0  0  0  0  0  0  0  0
  161.2100  205.9080  149.6520 C   0  0  0  0  0  0  0  0  0  0  0  0
  160.7910  204.7650  144.7280 C   0  0  0  0  0  2  0  0  0  0  0  0
  160.4560  205.8630  145.7490 C   0  0  0  0  0  2  0  0  0  0  0  0
  160.9840  204.4850  151.6270 C   0  0  0  0  0  3  0  0  0  0  0  0
  161.2020  205.7440  151.0450 C   0  0  0  0  0  0  0  0  0  0  0  0
  160.9590  204.7110  148.7750 C   0  0  0  0  0  2  0  0  0  0  0  0
  161.9210  209.3970  149.2920 N   0  0  0  0  0  0  0  0  0  0  0  0
  161.0810  208.3570  147.0790 O   0  0  0  0  0  0  0  0  0  0  0  0
  161.6510  203.4930  146.7290 C   0  0  0  0  0  2  0  0  0  0  0  0
  161.3980  207.1500  149.0910 N   0  0  0  0  0  0  0  0  0  0  0  0
  161.8570  204.7700  147.5540 C   0  0  1  0  0  3  0  0  0  0  0  0
  162.2540  210.6890  149.8760 C   0  0  0  0  0  2  0  0  0  0  0  0
  163.0140  211.7550  147.9090 F   0  0  0  0  0  0  0  0  0  0  0  0
  162.0110  211.7810  148.8580 C   0  0  0  0  0  2  0  0  0  0  0  0
  161.8060  209.2910  152.2380 C   0  0  0  0  0  2  0  0  0  0  0  0
  160.5080  209.8610  152.5520 N   0  0  0  0  0  2  0  0  0  0  0  0
  160.7550  211.0580  153.3360 C   0  0  0  0  0  2  0  0  0  0  0  0
  159.5770  212.0070  153.2150 C   0  0  0  0  0  2  0  0  0  0  0  0
  159.6650  212.7830  151.9120 C   0  0  0  0  0  2  0  0  0  0  0  0
  158.1410  213.4640  150.0120 C   0  0  0  0  0  0  0  0  0  0  0  0
  158.3490  212.8780  151.2980 N   0  0  0  0  0  2  0  0  0  0  0  0
  156.7710  213.5060  149.4370 C   0  0  0  0  0  1  0  0  0  0  0  0
  159.1050  213.9490  149.3620 O   0  0  0  0  0  0  0  0  0  0  0  0
  1  8  1  0  0  0  0
  3  2  1  0  0  0  0
  4 19  1  0  0  0  0
  5 12  1  6  0  0  0
  5 20  1  0  0  0  0
  5  4  1  0  0  0  0
  6 18  1  0  0  0  0
  7  2  2  0  0  0  0
  8  9  2  0  0  0  0
  8 24  1  0  0  0  0
  9  7  1  0  0  0  0
 10 14  2  0  0  0  0
 11  6  1  0  0  0  0
 11 12  1  0  0  0  0
 13  3  2  0  0  0  0
 14 13  1  0  0  0  0
 14  9  1  0  0  0  0
 15 10  1  0  0  0  0
 16 21  1  0  0  0  0
 16  1  2  0  0  0  0
 17  4  2  0  0  0  0
 19 10  1  0  0  0  0
 19  1  1  0  0  0  0
 20 18  1  6  0  0  0
 20 15  1  0  0  0  0
 22 23  1  0  0  0  0
 23 21  1  0  0  0  0
 24 25  1  0  0  0  0
 25 26  1  0  0  0  0
 27 26  1  0  0  0  0
 28 27  1  0  0  0  0
 29 30  1  0  0  0  0
 30 28  1  0  0  0  0
 31 29  1  0  0  0  0
 32 29  2  0  0  0  0
M  END
>  <MODEL>
4

>  <REMARK>
 VINA RESULT:      -7.7      2.703      7.468
  Name = 
  8 active torsions:
  status: ('A' for Active; 'I' for Inactive)
    1  A    between atoms: C_2  and  C_12
    2  A    between atoms: C_2  and  C_24
    3  A    between atoms: C_8  and  C_23
    4  A    between atoms: C_8  and  N_28
    5  A    between atoms: C_9  and  C_14
    6  A    between atoms: C_9  and  N_21
    7  A    between atoms: N_10  and  C_24
    8  A    between atoms: C_12  and  N_21
                            x       y       z     vdW  Elec       q    Type
                         _______ _______ _______ _____ _____    ______ ____

>  <TORSDO>
F 8

$$$$
=
 OpenBabel11062410433D

 32 35  0  0  1  0  0  0  0  0999 V2000
  161.6650  208.2190  149.7610 C   0  0  0  0  0  0  0  0  0  0  0  0
  161.2260  205.5090  153.7560 N   0  0  0  0  0  0  0  0  0  0  0  0
  161.0130  204.4000  153.0010 C   0  0  0  0  0  3  0  0  0  0  0  0
  161.3290  207.1600  147.5460 C   0  0  0  0  0  0  0  0  0  0  0  0
  161.5590  205.9400  146.6910 C   0  0  2  0  0  3  0  0  0  0  0  0
  161.7580  203.5880  145.2290 C   0  0  0  0  0  2  0  0  0  0  0  0
  161.4380  206.7240  153.1870 C   0  0  0  0  0  3  0  0  0  0  0  0
  161.6700  208.1210  151.1860 C   0  0  0  0  0  0  0  0  0  0  0  0
  161.4420  206.8730  151.7890 C   0  0  0  0  0  0  0  0  0  0  0  0
  161.2130  205.8650  149.5970 C   0  0  0  0  0  0  0  0  0  0  0  0
  160.7260  204.5970  144.7100 C   0  0  0  0  0  2  0  0  0  0  0  0
  160.4090  205.7220  145.7060 C   0  0  0  0  0  2  0  0  0  0  0  0
  161.0060  204.4950  151.6110 C   0  0  0  0  0  3  0  0  0  0  0  0
  161.2220  205.7370  150.9930 C   0  0  0  0  0  0  0  0  0  0  0  0
  160.9460  204.6480  148.7550 C   0  0  0  0  0  2  0  0  0  0  0  0
  161.9350  209.3400  149.1370 N   0  0  0  0  0  0  0  0  0  0  0  0
  161.0620  208.2470  146.9620 O   0  0  0  0  0  0  0  0  0  0  0  0
  161.6060  203.3730  146.7320 C   0  0  0  0  0  2  0  0  0  0  0  0
  161.3990  207.0910  149.0020 N   0  0  0  0  0  0  0  0  0  0  0  0
  161.8280  204.6700  147.5220 C   0  0  1  0  0  3  0  0  0  0  0  0
  162.2810  210.6450  149.6820 C   0  0  0  0  0  2  0  0  0  0  0  0
  163.3050  212.3560  148.4140 F   0  0  0  0  0  0  0  0  0  0  0  0
  162.1050  211.7020  148.6140 C   0  0  0  0  0  2  0  0  0  0  0  0
  161.8560  209.3120  152.0850 C   0  0  0  0  0  2  0  0  0  0  0  0
  160.5630  209.8780  152.4250 N   0  0  0  0  0  2  0  0  0  0  0  0
  160.7900  210.8210  153.5060 C   0  0  0  0  0  2  0  0  0  0  0  0
  160.3270  210.2210  154.8200 C   0  0  0  0  0  2  0  0  0  0  0  0
  159.5820  211.2640  155.6350 C   0  0  0  0  0  2  0  0  0  0  0  0
  157.1670  211.2950  154.8850 C   0  0  0  0  0  0  0  0  0  0  0  0
  158.1880  210.8750  155.7900 N   0  0  0  0  0  2  0  0  0  0  0  0
  155.7670  210.8400  155.0930 C   0  0  0  0  0  1  0  0  0  0  0  0
  157.4380  212.0530  153.9160 O   0  0  0  0  0  0  0  0  0  0  0  0
  1  8  1  0  0  0  0
  3  2  1  0  0  0  0
  4 19  1  0  0  0  0
  5 12  1  1  0  0  0
  5 20  1  0  0  0  0
  5  4  1  0  0  0  0
  6 18  1  0  0  0  0
  7  2  2  0  0  0  0
  8  9  2  0  0  0  0
  8 24  1  0  0  0  0
  9  7  1  0  0  0  0
 10 14  2  0  0  0  0
 11  6  1  0  0  0  0
 11 12  1  0  0  0  0
 13  3  2  0  0  0  0
 14 13  1  0  0  0  0
 14  9  1  0  0  0  0
 15 10  1  0  0  0  0
 16 21  1  0  0  0  0
 16  1  2  0  0  0  0
 17  4  2  0  0  0  0
 19 10  1  0  0  0  0
 19  1  1  0  0  0  0
 20 18  1  6  0  0  0
 20 15  1  0  0  0  0
 22 23  1  0  0  0  0
 23 21  1  0  0  0  0
 24 25  1  0  0  0  0
 25 26  1  0  0  0  0
 26 27  1  0  0  0  0
 27 28  1  0  0  0  0
 28 30  1  0  0  0  0
 29 31  1  0  0  0  0
 29 30  1  0  0  0  0
 32 29  2  0  0  0  0
M  END
>  <MODEL>
5

>  <REMARK>
 VINA RESULT:      -7.7      2.491      7.790
  Name = 
  8 active torsions:
  status: ('A' for Active; 'I' for Inactive)
    1  A    between atoms: C_2  and  C_12
    2  A    between atoms: C_2  and  C_24
    3  A    between atoms: C_8  and  C_23
    4  A    between atoms: C_8  and  N_28
    5  A    between atoms: C_9  and  C_14
    6  A    between atoms: C_9  and  N_21
    7  A    between atoms: N_10  and  C_24
    8  A    between atoms: C_12  and  N_21
                            x       y       z     vdW  Elec       q    Type
                         _______ _______ _______ _____ _____    ______ ____

>  <TORSDO>
F 8

$$$$
=
 OpenBabel11062410433D

 32 35  0  0  1  0  0  0  0  0999 V2000
  161.5370  208.4800  151.4400 C   0  0  0  0  0  0  0  0  0  0  0  0
  160.5630  208.6690  156.1850 N   0  0  0  0  0  0  0  0  0  0  0  0
  160.3360  207.3310  156.2090 C   0  0  0  0  0  3  0  0  0  0  0  0
  161.3170  206.3160  150.2530 C   0  0  0  0  0  0  0  0  0  0  0  0
  161.5310  204.8250  150.3120 C   0  0  2  0  0  3  0  0  0  0  0  0
  161.6860  202.0630  150.5480 C   0  0  0  0  0  2  0  0  0  0  0  0
  160.9100  209.3090  155.0380 C   0  0  0  0  0  3  0  0  0  0  0  0
  161.4120  209.2460  152.6400 C   0  0  0  0  0  0  0  0  0  0  0  0
  161.0450  208.6000  153.8320 C   0  0  0  0  0  0  0  0  0  0  0  0
  160.9330  206.4900  152.6440 C   0  0  0  0  0  0  0  0  0  0  0  0
  160.7770  202.5740  149.4240 C   0  0  0  0  0  2  0  0  0  0  0  0
  160.4570  204.0730  149.5230 C   0  0  0  0  0  2  0  0  0  0  0  0
  160.4560  206.5820  155.0400 C   0  0  0  0  0  3  0  0  0  0  0  0
  160.8120  207.2150  153.8380 C   0  0  0  0  0  0  0  0  0  0  0  0
  160.6520  205.0120  152.6570 C   0  0  0  0  0  2  0  0  0  0  0  0
  161.9380  209.0100  150.3110 N   0  0  0  0  0  0  0  0  0  0  0  0
  161.1800  206.8470  149.1160 O   0  0  0  0  0  0  0  0  0  0  0  0
  161.3910  202.7820  151.8620 C   0  0  0  0  0  2  0  0  0  0  0  0
  161.2570  207.1230  151.4660 N   0  0  0  0  0  0  0  0  0  0  0  0
  161.6370  204.2930  151.7540 C   0  0  1  0  0  3  0  0  0  0  0  0
  162.3290  210.3820  150.0180 C   0  0  0  0  0  2  0  0  0  0  0  0
  162.3900  211.9990  148.2960 F   0  0  0  0  0  0  0  0  0  0  0  0
  161.9850  210.7100  148.5820 C   0  0  0  0  0  2  0  0  0  0  0  0
  161.6060  210.7370  152.6790 C   0  0  0  0  0  2  0  0  0  0  0  0
  160.4080  211.4000  152.1950 N   0  0  0  0  0  2  0  0  0  0  0  0
  159.8960  212.1950  153.2970 C   0  0  0  0  0  2  0  0  0  0  0  0
  158.5490  212.7870  152.9260 C   0  0  0  0  0  2  0  0  0  0  0  0
  157.7790  213.1590  154.1810 C   0  0  0  0  0  2  0  0  0  0  0  0
  156.5730  211.1150  155.0540 C   0  0  0  0  0  0  0  0  0  0  0  0
  156.5900  212.3290  154.3020 N   0  0  0  0  0  2  0  0  0  0  0  0
  155.3150  210.3290  155.1530 C   0  0  0  0  0  1  0  0  0  0  0  0
  157.6130  210.7000  155.6310 O   0  0  0  0  0  0  0  0  0  0  0  0
  1 19  1  0  0  0  0
  1  8  1  0  0  0  0
  2  3  1  0  0  0  0
  4  5  1  0  0  0  0
  4 19  1  0  0  0  0
  5 12  1  1  0  0  0
  5 20  1  0  0  0  0
  6 18  1  0  0  0  0
  7  2  2  0  0  0  0
  8 24  1  0  0  0  0
  8  9  2  0  0  0  0
  9 14  1  0  0  0  0
  9  7  1  0  0  0  0
 10 15  1  0  0  0  0
 10 14  2  0  0  0  0
 11 12  1  0  0  0  0
 11  6  1  0  0  0  0
 13  3  2  0  0  0  0
 14 13  1  0  0  0  0
 16  1  2  0  0  0  0
 17  4  2  0  0  0  0
 19 10  1  0  0  0  0
 20 18  1  6  0  0  0
 20 15  1  0  0  0  0
 21 16  1  0  0  0  0
 22 23  1  0  0  0  0
 23 21  1  0  0  0  0
 25 24  1  0  0  0  0
 25 26  1  0  0  0  0
 27 26  1  0  0  0  0
 27 28  1  0  0  0  0
 28 30  1  0  0  0  0
 29 31  1  0  0  0  0
 29 32  2  0  0  0  0
 30 29  1  0  0  0  0
M  END
>  <MODEL>
6

>  <REMARK>
 VINA RESULT:      -7.4      2.903      7.487
  Name = 
  8 active torsions:
  status: ('A' for Active; 'I' for Inactive)
    1  A    between atoms: C_2  and  C_12
    2  A    between atoms: C_2  and  C_24
    3  A    between atoms: C_8  and  C_23
    4  A    between atoms: C_8  and  N_28
    5  A    between atoms: C_9  and  C_14
    6  A    between atoms: C_9  and  N_21
    7  A    between atoms: N_10  and  C_24
    8  A    between atoms: C_12  and  N_21
                            x       y       z     vdW  Elec       q    Type
                         _______ _______ _______ _____ _____    ______ ____

>  <TORSDO>
F 8

$$$$
=
 OpenBabel11062410433D

 32 35  0  0  1  0  0  0  0  0999 V2000
  161.3050  208.5020  151.4960 C   0  0  0  0  0  0  0  0  0  0  0  0
  160.4070  208.6810  156.2560 N   0  0  0  0  0  0  0  0  0  0  0  0
  160.2610  207.3320  156.2970 C   0  0  0  0  0  3  0  0  0  0  0  0
  161.1940  206.3170  150.3330 C   0  0  0  0  0  0  0  0  0  0  0  0
  161.4980  204.8420  150.4010 C   0  0  2  0  0  3  0  0  0  0  0  0
  161.8220  202.0970  150.6590 C   0  0  0  0  0  2  0  0  0  0  0  0
  160.6940  209.3290  155.0970 C   0  0  0  0  0  3  0  0  0  0  0  0
  161.1560  209.2710  152.6910 C   0  0  0  0  0  0  0  0  0  0  0  0
  160.8490  208.6170  153.8950 C   0  0  0  0  0  0  0  0  0  0  0  0
  160.8430  206.4930  152.7290 C   0  0  0  0  0  0  0  0  0  0  0  0
  160.8640  202.5420  149.5470 C   0  0  0  0  0  2  0  0  0  0  0  0
  160.4570  204.0200  149.6390 C   0  0  0  0  0  2  0  0  0  0  0  0
  160.4050  206.5800  155.1320 C   0  0  0  0  0  3  0  0  0  0  0  0
  160.7010  207.2210  153.9180 C   0  0  0  0  0  0  0  0  0  0  0  0
  160.6510  205.0000  152.7600 C   0  0  0  0  0  2  0  0  0  0  0  0
  161.6540  209.0440  150.3540 N   0  0  0  0  0  0  0  0  0  0  0  0
  161.0040  206.8270  149.1940 O   0  0  0  0  0  0  0  0  0  0  0  0
  161.5080  202.8100  151.9710 C   0  0  0  0  0  2  0  0  0  0  0  0
  161.1070  207.1310  151.5400 N   0  0  0  0  0  0  0  0  0  0  0  0
  161.6610  204.3330  151.8460 C   0  0  1  0  0  3  0  0  0  0  0  0
  161.9560  210.4340  150.0420 C   0  0  0  0  0  2  0  0  0  0  0  0
  162.2030  211.9540  148.2490 F   0  0  0  0  0  0  0  0  0  0  0  0
  161.9570  210.6260  148.5410 C   0  0  0  0  0  2  0  0  0  0  0  0
  161.2610  210.7720  152.7130 C   0  0  0  0  0  2  0  0  0  0  0  0
  159.9490  211.3520  152.9360 N   0  0  0  0  0  2  0  0  0  0  0  0
  159.8210  212.4650  152.0120 C   0  0  0  0  0  2  0  0  0  0  0  0
  159.0690  213.6030  152.6750 C   0  0  0  0  0  2  0  0  0  0  0  0
  158.0340  214.1710  151.7190 C   0  0  0  0  0  2  0  0  0  0  0  0
  157.1990  213.4580  149.4410 C   0  0  0  0  0  0  0  0  0  0  0  0
  158.2590  213.6570  150.3760 N   0  0  0  0  0  2  0  0  0  0  0  0
  157.5070  212.9520  148.0780 C   0  0  0  0  0  1  0  0  0  0  0  0
  156.0040  213.7030  149.7590 O   0  0  0  0  0  0  0  0  0  0  0  0
  1 19  1  0  0  0  0
  1  8  1  0  0  0  0
  2  3  1  0  0  0  0
  4  5  1  0  0  0  0
  4 19  1  0  0  0  0
  5 12  1  1  0  0  0
  5 20  1  0  0  0  0
  6 18  1  0  0  0  0
  7  2  2  0  0  0  0
  8 24  1  0  0  0  0
  8  9  2  0  0  0  0
  9 14  1  0  0  0  0
  9  7  1  0  0  0  0
 10 15  1  0  0  0  0
 10 14  2  0  0  0  0
 11 12  1  0  0  0  0
 11  6  1  0  0  0  0
 13  3  2  0  0  0  0
 14 13  1  0  0  0  0
 16  1  2  0  0  0  0
 17  4  2  0  0  0  0
 19 10  1  0  0  0  0
 20 18  1  6  0  0  0
 20 15  1  0  0  0  0
 21 16  1  0  0  0  0
 22 23  1  0  0  0  0
 23 21  1  0  0  0  0
 24 25  1  0  0  0  0
 26 27  1  0  0  0  0
 26 25  1  0  0  0  0
 28 27  1  0  0  0  0
 29 32  2  0  0  0  0
 29 30  1  0  0  0  0
 30 28  1  0  0  0  0
 31 29  1  0  0  0  0
M  END
>  <MODEL>
7

>  <REMARK>
 VINA RESULT:      -7.0      3.126      7.193
  Name = 
  8 active torsions:
  status: ('A' for Active; 'I' for Inactive)
    1  A    between atoms: C_2  and  C_12
    2  A    between atoms: C_2  and  C_24
    3  A    between atoms: C_8  and  C_23
    4  A    between atoms: C_8  and  N_28
    5  A    between atoms: C_9  and  C_14
    6  A    between atoms: C_9  and  N_21
    7  A    between atoms: N_10  and  C_24
    8  A    between atoms: C_12  and  N_21
                            x       y       z     vdW  Elec       q    Type
                         _______ _______ _______ _____ _____    ______ ____

>  <TORSDO>
F 8

$$$$
=
 OpenBabel11062410433D

 32 35  0  0  1  0  0  0  0  0999 V2000
  161.2790  206.9680  152.7520 C   0  0  0  0  0  0  0  0  0  0  0  0
  162.1360  210.1770  149.2210 N   0  0  0  0  0  0  0  0  0  0  0  0
  162.1370  209.1840  148.2960 C   0  0  0  0  0  3  0  0  0  0  0  0
  161.1720  204.5580  152.1860 C   0  0  0  0  0  0  0  0  0  0  0  0
  160.7130  203.5210  151.1930 C   0  0  2  0  0  3  0  0  0  0  0  0
  160.0970  201.6620  149.2260 C   0  0  0  0  0  2  0  0  0  0  0  0
  161.9320  209.9180  150.5400 C   0  0  0  0  0  3  0  0  0  0  0  0
  161.4950  208.3210  152.3460 C   0  0  0  0  0  0  0  0  0  0  0  0
  161.7160  208.6030  150.9880 C   0  0  0  0  0  0  0  0  0  0  0  0
  161.5120  206.2450  150.4730 C   0  0  0  0  0  0  0  0  0  0  0  0
  161.1090  201.1920  150.2780 C   0  0  0  0  0  2  0  0  0  0  0  0
  161.6700  202.3290  151.1450 C   0  0  0  0  0  2  0  0  0  0  0  0
  161.9290  207.8640  148.6900 C   0  0  0  0  0  3  0  0  0  0  0  0
  161.7160  207.5640  150.0450 C   0  0  0  0  0  0  0  0  0  0  0  0
  161.5440  205.1350  149.4570 C   0  0  0  0  0  2  0  0  0  0  0  0
  161.0030  206.6460  153.9920 N   0  0  0  0  0  0  0  0  0  0  0  0
  161.4270  204.1750  153.3610 O   0  0  0  0  0  0  0  0  0  0  0  0
  160.4700  203.0380  148.6820 C   0  0  0  0  0  2  0  0  0  0  0  0
  161.3300  205.9570  151.8060 N   0  0  0  0  0  0  0  0  0  0  0  0
  160.4800  204.1050  149.7860 C   0  0  1  0  0  3  0  0  0  0  0  0
  160.8530  207.5010  155.1610 C   0  0  0  0  0  2  0  0  0  0  0  0
  159.1510  206.5570  156.5010 F   0  0  0  0  0  0  0  0  0  0  0  0
  159.3970  207.5470  155.5700 C   0  0  0  0  0  2  0  0  0  0  0  0
  161.5490  209.4660  153.3210 C   0  0  0  0  0  2  0  0  0  0  0  0
  160.5610  210.4660  152.9580 N   0  0  0  0  0  2  0  0  0  0  0  0
  160.3620  211.3010  154.1290 C   0  0  0  0  0  2  0  0  0  0  0  0
  158.9220  211.1990  154.5970 C   0  0  0  0  0  2  0  0  0  0  0  0
  158.7350  211.9880  155.8810 C   0  0  0  0  0  2  0  0  0  0  0  0
  156.2950  212.1760  156.5220 C   0  0  0  0  0  0  0  0  0  0  0  0
  157.5580  211.5120  156.5930 N   0  0  0  0  0  2  0  0  0  0  0  0
  155.1300  211.6200  157.2570 C   0  0  0  0  0  1  0  0  0  0  0  0
  156.1600  213.2320  155.8480 O   0  0  0  0  0  0  0  0  0  0  0  0
  1 16  2  0  0  0  0
  2  7  2  0  0  0  0
  3 13  2  0  0  0  0
  3  2  1  0  0  0  0
  4 17  2  0  0  0  0
  5 12  1  6  0  0  0
  5  4  1  0  0  0  0
  6 11  1  0  0  0  0
  7  9  1  0  0  0  0
  8  1  1  0  0  0  0
  8 24  1  0  0  0  0
  9  8  2  0  0  0  0
 10 19  1  0  0  0  0
 11 12  1  0  0  0  0
 13 14  1  0  0  0  0
 14 10  2  0  0  0  0
 14  9  1  0  0  0  0
 15 20  1  0  0  0  0
 15 10  1  0  0  0  0
 16 21  1  0  0  0  0
 18  6  1  0  0  0  0
 19  4  1  0  0  0  0
 19  1  1  0  0  0  0
 20 18  1  6  0  0  0
 20  5  1  0  0  0  0
 21 23  1  0  0  0  0
 23 22  1  0  0  0  0
 25 24  1  0  0  0  0
 25 26  1  0  0  0  0
 26 27  1  0  0  0  0
 27 28  1  0  0  0  0
 28 30  1  0  0  0  0
 29 30  1  0  0  0  0
 29 31  1  0  0  0  0
 32 29  2  0  0  0  0
M  END
>  <MODEL>
8

>  <REMARK>
 VINA RESULT:      -7.0      3.349      8.538
  Name = 
  8 active torsions:
  status: ('A' for Active; 'I' for Inactive)
    1  A    between atoms: C_2  and  C_12
    2  A    between atoms: C_2  and  C_24
    3  A    between atoms: C_8  and  C_23
    4  A    between atoms: C_8  and  N_28
    5  A    between atoms: C_9  and  C_14
    6  A    between atoms: C_9  and  N_21
    7  A    between atoms: N_10  and  C_24
    8  A    between atoms: C_12  and  N_21
                            x       y       z     vdW  Elec       q    Type
                         _______ _______ _______ _____ _____    ______ ____

>  <TORSDO>
F 8

$$$$
=
 OpenBabel11062410433D

 32 35  0  0  1  0  0  0  0  0999 V2000
  161.6580  207.1710  150.2920 C   0  0  0  0  0  0  0  0  0  0  0  0
  160.9280  203.2980  153.1140 N   0  0  0  0  0  0  0  0  0  0  0  0
  160.7240  202.5190  152.0210 C   0  0  0  0  0  3  0  0  0  0  0  0
  161.4100  206.9350  147.8390 C   0  0  0  0  0  0  0  0  0  0  0  0
  161.6500  206.0650  146.6310 C   0  0  2  0  0  3  0  0  0  0  0  0
  161.8600  204.3360  144.4690 C   0  0  0  0  0  2  0  0  0  0  0  0
  161.2050  204.6230  152.9990 C   0  0  0  0  0  3  0  0  0  0  0  0
  161.5830  206.5990  151.6000 C   0  0  0  0  0  0  0  0  0  0  0  0
  161.2880  205.2330  151.7350 C   0  0  0  0  0  0  0  0  0  0  0  0
  161.1480  205.0330  149.3240 C   0  0  0  0  0  0  0  0  0  0  0  0
  160.8860  205.5060  144.2800 C   0  0  0  0  0  2  0  0  0  0  0  0
  160.5480  206.2430  145.5840 C   0  0  0  0  0  2  0  0  0  0  0  0
  160.7940  203.0760  150.7450 C   0  0  0  0  0  3  0  0  0  0  0  0
  161.0780  204.4420  150.5940 C   0  0  0  0  0  0  0  0  0  0  0  0
  160.8900  204.1830  148.1090 C   0  0  0  0  0  2  0  0  0  0  0  0
  161.9930  208.4240  150.0960 N   0  0  0  0  0  0  0  0  0  0  0  0
  161.2060  208.1660  147.6460 O   0  0  0  0  0  0  0  0  0  0  0  0
  161.6210  203.6340  145.8040 C   0  0  0  0  0  2  0  0  0  0  0  0
  161.4010  206.3780  149.1860 N   0  0  0  0  0  0  0  0  0  0  0  0
  161.8380  204.5790  146.9940 C   0  0  1  0  0  3  0  0  0  0  0  0
  162.3470  209.4520  151.0640 C   0  0  0  0  0  2  0  0  0  0  0  0
  161.9900  211.0850  149.3940 F   0  0  0  0  0  0  0  0  0  0  0  0
  161.6650  210.7510  150.6940 C   0  0  0  0  0  2  0  0  0  0  0  0
  161.7560  207.4090  152.8550 C   0  0  0  0  0  2  0  0  0  0  0  0
  160.4550  207.7470  153.4040 N   0  0  0  0  0  2  0  0  0  0  0  0
  160.6690  208.1090  154.7940 C   0  0  0  0  0  2  0  0  0  0  0  0
  161.2120  209.5230  154.8830 C   0  0  0  0  0  2  0  0  0  0  0  0
  160.2230  210.5000  154.2700 C   0  0  0  0  0  2  0  0  0  0  0  0
  159.4210  212.5090  155.5800 C   0  0  0  0  0  0  0  0  0  0  0  0
  160.4250  211.8290  154.8260 N   0  0  0  0  0  2  0  0  0  0  0  0
  159.7060  213.8570  156.1370 C   0  0  0  0  0  1  0  0  0  0  0  0
  158.2940  211.9800  155.7750 O   0  0  0  0  0  0  0  0  0  0  0  0
  1  8  1  0  0  0  0
  3  2  1  0  0  0  0
  4 19  1  0  0  0  0
  5 12  1  6  0  0  0
  5 20  1  0  0  0  0
  5  4  1  0  0  0  0
  6 18  1  0  0  0  0
  7  2  2  0  0  0  0
  8  9  2  0  0  0  0
  8 24  1  0  0  0  0
  9  7  1  0  0  0  0
 10 14  2  0  0  0  0
 11  6  1  0  0  0  0
 11 12  1  0  0  0  0
 13  3  2  0  0  0  0
 14 13  1  0  0  0  0
 14  9  1  0  0  0  0
 15 10  1  0  0  0  0
 16  1  2  0  0  0  0
 16 21  1  0  0  0  0
 17  4  2  0  0  0  0
 19 10  1  0  0  0  0
 19  1  1  0  0  0  0
 20 18  1  6  0  0  0
 20 15  1  0  0  0  0
 22 23  1  0  0  0  0
 23 21  1  0  0  0  0
 24 25  1  0  0  0  0
 25 26  1  0  0  0  0
 26 27  1  0  0  0  0
 28 30  1  0  0  0  0
 28 27  1  0  0  0  0
 29 32  2  0  0  0  0
 29 31  1  0  0  0  0
 30 29  1  0  0  0  0
M  END
>  <MODEL>
9

>  <REMARK>
 VINA RESULT:      -7.0      2.284      7.959
  Name = 
  8 active torsions:
  status: ('A' for Active; 'I' for Inactive)
    1  A    between atoms: C_2  and  C_12
    2  A    between atoms: C_2  and  C_24
    3  A    between atoms: C_8  and  C_23
    4  A    between atoms: C_8  and  N_28
    5  A    between atoms: C_9  and  C_14
    6  A    between atoms: C_9  and  N_21
    7  A    between atoms: N_10  and  C_24
    8  A    between atoms: C_12  and  N_21
                            x       y       z     vdW  Elec       q    Type
                         _______ _______ _______ _____ _____    ______ ____

>  <TORSDO>
F 8

$$$$
