=
 OpenBabel11052422213D

 25 28  0  0  1  0  0  0  0  0999 V2000
  161.1800  210.2230  152.0280 C   0  0  2  0  0  0  0  0  0  0  0  0
  161.6470  209.3290  153.1090 C   0  0  2  0  0  3  0  0  0  0  0  0
  160.7420  211.4380  154.8630 C   0  0  2  0  0  3  0  0  0  0  0  0
  160.3960  211.4790  152.4880 C   0  0  0  0  0  2  0  0  0  0  0  0
  161.1340  207.3920  152.1170 C   0  0  1  0  0  3  0  0  0  0  0  0
  161.0870  210.0470  155.4300 C   0  0  0  0  0  2  0  0  0  0  0  0
  159.2590  213.2520  155.2240 C   0  0  0  0  0  2  0  0  0  0  0  0
  158.8670  212.5230  153.9520 C   0  0  1  0  0  3  0  0  0  0  0  0
  161.1670  207.5980  154.6910 N   0  0  0  0  0  0  0  0  0  0  0  0
  160.2380  207.1890  155.7340 C   0  0  0  0  0  1  0  0  0  0  0  0
  160.5750  208.8230  152.1410 C   0  0  2  0  0  3  0  0  0  0  0  0
  162.1800  210.3950  150.9060 C   0  0  0  0  0  1  0  0  0  0  0  0
  160.1930  212.3230  155.9500 C   0  0  0  0  0  2  0  0  0  0  0  0
  160.8910  206.7120  153.5190 C   0  0  2  0  0  3  0  0  0  0  0  0
  159.7330  211.3570  153.7960 N   0  0  2  0  0  0  0  0  0  0  0  0
  161.6620  205.5520  153.6150 O   0  0  0  0  0  1  0  0  0  0  0  0
  160.8670  208.9970  154.3470 C   0  0  2  0  0  3  0  0  0  0  0  0
  157.4170  212.0800  154.0490 C   0  0  0  0  0  2  0  0  0  0  0  0
  156.7670  212.7970  155.0540 O   0  0  0  0  0  1  0  0  0  0  0  0
  160.6460  206.6270  151.0320 O   0  0  0  0  0  0  0  0  0  0  0  0
  161.5980  206.6340  149.9970 C   0  0  0  0  0  2  0  0  0  0  0  0
  160.9540  206.0300  147.6470 C   0  0  0  0  0  0  0  0  0  0  0  0
  161.5940  204.8020  147.7610 O   0  0  0  0  0  1  0  0  0  0  0  0
  160.3760  206.3350  146.5710 O   0  0  0  0  0  0  0  0  0  0  0  0
  160.9430  206.9460  148.7390 N   0  0  0  0  0  2  0  0  0  0  0  0
  1 12  1  6  0  0  0
  1 11  1  0  0  0  0
  1  4  1  0  0  0  0
  1  2  1  0  0  0  0
  2 17  1  0  0  0  0
  3  6  1  0  0  0  0
  3 13  1  0  0  0  0
  4 15  1  0  0  0  0
  5 11  1  0  0  0  0
  5 14  1  0  0  0  0
  7 13  1  0  0  0  0
  8 18  1  0  0  0  0
  8  7  1  0  0  0  0
  9 10  1  0  0  0  0
 11  2  1  0  0  0  0
 14 16  1  0  0  0  0
 14  9  1  0  0  0  0
 15  8  1  0  0  0  0
 15  3  1  0  0  0  0
 17  9  1  0  0  0  0
 17  6  1  0  0  0  0
 18 19  1  0  0  0  0
 20  5  1  0  0  0  0
 21 20  1  0  0  0  0
 22 23  1  0  0  0  0
 22 25  1  0  0  0  0
 24 22  2  0  0  0  0
 25 21  1  0  0  0  0
M  END
>  <MODEL>
1

>  <REMARK>
 VINA RESULT:      -6.5      0.000      0.000
  Name = 
  4 active torsions:
  status: ('A' for Active; 'I' for Inactive)
    1  A    between atoms: C_6  and  O_15
    2  A    between atoms: C_8  and  C_11
    3  A    between atoms: O_15  and  C_25
    4  A    between atoms: N_21  and  C_25
                            x       y       z     vdW  Elec       q    Type
                         _______ _______ _______ _____ _____    ______ ____

>  <TORSDO>
F 4

$$$$
=
 OpenBabel11052422213D

 25 28  0  0  1  0  0  0  0  0999 V2000
  160.4380  207.8400  155.3680 C   0  0  2  0  0  0  0  0  0  0  0  0
  160.1510  208.4260  154.0410 C   0  0  2  0  0  3  0  0  0  0  0  0
  160.2980  210.9520  155.4340 C   0  0  2  0  0  3  0  0  0  0  0  0
  160.8070  208.8530  156.4820 C   0  0  0  0  0  2  0  0  0  0  0  0
  161.2530  206.9130  152.8190 C   0  0  1  0  0  3  0  0  0  0  0  0
  160.3070  210.9090  153.8940 C   0  0  0  0  0  2  0  0  0  0  0  0
  161.1920  212.1990  157.2420 C   0  0  0  0  0  2  0  0  0  0  0  0
  161.8690  210.8420  157.1800 C   0  0  1  0  0  3  0  0  0  0  0  0
  160.9620  209.3390  151.9820 N   0  0  0  0  0  0  0  0  0  0  0  0
  161.8820  210.3140  151.4160 C   0  0  0  0  0  1  0  0  0  0  0  0
  161.3940  207.5490  154.2100 C   0  0  2  0  0  3  0  0  0  0  0  0
  159.5200  206.6950  155.7390 C   0  0  0  0  0  1  0  0  0  0  0  0
  160.4950  212.3630  155.9190 C   0  0  0  0  0  2  0  0  0  0  0  0
  161.5620  207.9970  151.7150 C   0  0  2  0  0  3  0  0  0  0  0  0
  161.3720  210.1250  156.0080 N   0  0  2  0  0  0  0  0  0  0  0  0
  161.1360  207.5310  150.4700 O   0  0  0  0  0  1  0  0  0  0  0  0
  160.8920  209.5800  153.4330 C   0  0  2  0  0  3  0  0  0  0  0  0
  163.3720  211.0310  157.0710 C   0  0  0  0  0  2  0  0  0  0  0  0
  163.7540  211.0400  155.7290 O   0  0  0  0  0  1  0  0  0  0  0  0
  162.0170  205.7310  152.6720 O   0  0  0  0  0  0  0  0  0  0  0  0
  161.1560  204.6560  152.3940 C   0  0  0  0  0  2  0  0  0  0  0  0
  160.8670  203.2340  150.3460 C   0  0  0  0  0  0  0  0  0  0  0  0
  160.8720  202.0780  151.1180 O   0  0  0  0  0  1  0  0  0  0  0  0
  160.7390  203.1490  149.0970 O   0  0  0  0  0  0  0  0  0  0  0  0
  161.0040  204.5140  150.9570 N   0  0  0  0  0  2  0  0  0  0  0  0
  1 12  1  1  0  0  0
  1  4  1  0  0  0  0
  2 11  1  0  0  0  0
  2  1  1  0  0  0  0
  3 13  1  0  0  0  0
  3 15  1  0  0  0  0
  5 11  1  0  0  0  0
  6  3  1  0  0  0  0
  8  7  1  0  0  0  0
  9 17  1  0  0  0  0
 10  9  1  0  0  0  0
 11  1  1  0  0  0  0
 13  7  1  0  0  0  0
 14  9  1  0  0  0  0
 14  5  1  0  0  0  0
 15  4  1  0  0  0  0
 15  8  1  0  0  0  0
 16 14  1  0  0  0  0
 17  6  1  0  0  0  0
 17  2  1  0  0  0  0
 18  8  1  0  0  0  0
 19 18  1  0  0  0  0
 20  5  1  0  0  0  0
 21 20  1  0  0  0  0
 22 25  1  0  0  0  0
 22 23  1  0  0  0  0
 24 22  2  0  0  0  0
 25 21  1  0  0  0  0
M  END
>  <MODEL>
2

>  <REMARK>
 VINA RESULT:      -5.8      2.474      3.888
  Name = 
  4 active torsions:
  status: ('A' for Active; 'I' for Inactive)
    1  A    between atoms: C_6  and  O_15
    2  A    between atoms: C_8  and  C_11
    3  A    between atoms: O_15  and  C_25
    4  A    between atoms: N_21  and  C_25
                            x       y       z     vdW  Elec       q    Type
                         _______ _______ _______ _____ _____    ______ ____

>  <TORSDO>
F 4

$$$$
=
 OpenBabel11052422213D

 25 28  0  0  1  0  0  0  0  0999 V2000
  161.5620  209.2460  150.5000 C   0  0  2  0  0  0  0  0  0  0  0  0
  162.0880  208.1470  151.3390 C   0  0  2  0  0  3  0  0  0  0  0  0
  161.6780  209.9940  153.5220 C   0  0  2  0  0  3  0  0  0  0  0  0
  160.9900  210.4630  151.2700 C   0  0  0  0  0  2  0  0  0  0  0  0
  161.2340  206.4530  150.1550 C   0  0  1  0  0  3  0  0  0  0  0  0
  161.9550  208.5040  153.8020 C   0  0  0  0  0  2  0  0  0  0  0  0
  160.4620  211.8320  154.3950 C   0  0  0  0  0  2  0  0  0  0  0  0
  159.8120  211.3630  153.1070 C   0  0  1  0  0  3  0  0  0  0  0  0
  161.6680  206.2170  152.6900 N   0  0  0  0  0  0  0  0  0  0  0  0
  160.8660  205.7120  153.7940 C   0  0  0  0  0  1  0  0  0  0  0  0
  160.8370  207.8990  150.4920 C   0  0  2  0  0  3  0  0  0  0  0  0
  162.3980  209.5260  149.2690 C   0  0  0  0  0  1  0  0  0  0  0  0
  161.3910  210.7230  154.8070 C   0  0  0  0  0  2  0  0  0  0  0  0
  161.1320  205.5670  151.4560 C   0  0  2  0  0  3  0  0  0  0  0  0
  160.5190  210.1750  152.6330 N   0  0  2  0  0  0  0  0  0  0  0  0
  161.7820  204.3500  151.2450 O   0  0  0  0  0  1  0  0  0  0  0  0
  161.4680  207.6740  152.6200 C   0  0  2  0  0  3  0  0  0  0  0  0
  158.3540  211.0250  153.3690 C   0  0  0  0  0  2  0  0  0  0  0  0
  158.0090  211.3890  154.6710 O   0  0  0  0  0  1  0  0  0  0  0  0
  160.5140  205.9230  149.0590 O   0  0  0  0  0  0  0  0  0  0  0  0
  161.0120  206.4780  147.8680 C   0  0  0  0  0  2  0  0  0  0  0  0
  162.3360  205.3710  146.0430 C   0  0  0  0  0  0  0  0  0  0  0  0
  161.4080  205.7760  145.0910 O   0  0  0  0  0  0  0  0  0  0  0  0
  163.3410  204.7030  145.6900 O   0  0  0  0  0  1  0  0  0  0  0  0
  162.1590  205.7090  147.4170 N   0  0  0  0  0  2  0  0  0  0  0  0
  1 12  1  6  0  0  0
  1  4  1  0  0  0  0
  1  2  1  0  0  0  0
  2 17  1  0  0  0  0
  3  6  1  0  0  0  0
  3 13  1  0  0  0  0
  4 15  1  0  0  0  0
  5 11  1  0  0  0  0
  5 14  1  0  0  0  0
  7 13  1  0  0  0  0
  8 18  1  0  0  0  0
  8  7  1  0  0  0  0
  9 10  1  0  0  0  0
 11  1  1  0  0  0  0
 11  2  1  0  0  0  0
 14  9  1  0  0  0  0
 15  8  1  0  0  0  0
 15  3  1  0  0  0  0
 16 14  1  0  0  0  0
 17  9  1  0  0  0  0
 17  6  1  0  0  0  0
 18 19  1  0  0  0  0
 20  5  1  0  0  0  0
 21 20  1  0  0  0  0
 22 25  1  0  0  0  0
 23 22  2  0  0  0  0
 24 22  1  0  0  0  0
 25 21  1  0  0  0  0
M  END
>  <MODEL>
3

>  <REMARK>
 VINA RESULT:      -5.1      1.635      2.236
  Name = 
  4 active torsions:
  status: ('A' for Active; 'I' for Inactive)
    1  A    between atoms: C_6  and  O_15
    2  A    between atoms: C_8  and  C_11
    3  A    between atoms: O_15  and  C_25
    4  A    between atoms: N_21  and  C_25
                            x       y       z     vdW  Elec       q    Type
                         _______ _______ _______ _____ _____    ______ ____

>  <TORSDO>
F 4

$$$$
=
 OpenBabel11052422213D

 25 28  0  0  1  0  0  0  0  0999 V2000
  159.1400  212.1010  152.9590 C   0  0  2  0  0  0  0  0  0  0  0  0
  160.1070  212.3330  154.0540 C   0  0  2  0  0  3  0  0  0  0  0  0
  157.7790  213.1470  155.5580 C   0  0  2  0  0  3  0  0  0  0  0  0
  157.6450  212.2220  153.3470 C   0  0  0  0  0  2  0  0  0  0  0  0
  161.5040  210.6600  153.5580 C   0  0  1  0  0  3  0  0  0  0  0  0
  159.1180  212.8840  156.2750 C   0  0  0  0  0  2  0  0  0  0  0  0
  155.4410  212.9510  155.9030 C   0  0  0  0  0  2  0  0  0  0  0  0
  155.8930  211.9080  154.8970 C   0  0  1  0  0  3  0  0  0  0  0  0
  161.2560  211.5080  155.9850 N   0  0  0  0  0  0  0  0  0  0  0  0
  161.0670  210.8330  157.2600 C   0  0  0  0  0  1  0  0  0  0  0  0
  159.9960  210.9320  153.4480 C   0  0  2  0  0  3  0  0  0  0  0  0
  159.5700  212.6930  151.6330 C   0  0  0  0  0  1  0  0  0  0  0  0
  156.6990  213.4480  156.5630 C   0  0  0  0  0  2  0  0  0  0  0  0
  161.8990  210.5100  155.0780 C   0  0  2  0  0  3  0  0  0  0  0  0
  157.3470  211.9840  154.7670 N   0  0  2  0  0  0  0  0  0  0  0  0
  163.2870  210.5810  155.2090 O   0  0  0  0  0  1  0  0  0  0  0  0
  159.9250  211.8730  155.4710 C   0  0  2  0  0  3  0  0  0  0  0  0
  155.4900  210.5270  155.3840 C   0  0  0  0  0  2  0  0  0  0  0  0
  154.9190  210.6180  156.6550 O   0  0  0  0  0  1  0  0  0  0  0  0
  161.9300  209.5730  152.7590 O   0  0  0  0  0  0  0  0  0  0  0  0
  160.8030  208.8820  152.2830 C   0  0  0  0  0  2  0  0  0  0  0  0
  161.9450  206.7430  151.6300 C   0  0  0  0  0  0  0  0  0  0  0  0
  162.6930  207.4080  150.6660 O   0  0  0  0  0  0  0  0  0  0  0  0
  162.0960  205.5050  151.7920 O   0  0  0  0  0  1  0  0  0  0  0  0
  161.0090  207.4520  152.4380 N   0  0  0  0  0  2  0  0  0  0  0  0
  1 12  1  6  0  0  0
  1  4  1  0  0  0  0
  1 11  1  0  0  0  0
  1  2  1  0  0  0  0
  2 17  1  0  0  0  0
  3  6  1  0  0  0  0
  3 13  1  0  0  0  0
  4 15  1  0  0  0  0
  5 14  1  0  0  0  0
  7 13  1  0  0  0  0
  8 18  1  0  0  0  0
  8  7  1  0  0  0  0
  9 10  1  0  0  0  0
 11  5  1  0  0  0  0
 11  2  1  0  0  0  0
 14 16  1  0  0  0  0
 14  9  1  0  0  0  0
 15  8  1  0  0  0  0
 15  3  1  0  0  0  0
 17  9  1  0  0  0  0
 17  6  1  0  0  0  0
 18 19  1  0  0  0  0
 20  5  1  0  0  0  0
 21 25  1  0  0  0  0
 21 20  1  0  0  0  0
 22 24  1  0  0  0  0
 22 25  1  0  0  0  0
 23 22  2  0  0  0  0
M  END
>  <MODEL>
4

>  <REMARK>
 VINA RESULT:      -4.9      2.409      3.721
  Name = 
  4 active torsions:
  status: ('A' for Active; 'I' for Inactive)
    1  A    between atoms: C_6  and  O_15
    2  A    between atoms: C_8  and  C_11
    3  A    between atoms: O_15  and  C_25
    4  A    between atoms: N_21  and  C_25
                            x       y       z     vdW  Elec       q    Type
                         _______ _______ _______ _____ _____    ______ ____

>  <TORSDO>
F 4

$$$$
=
 OpenBabel11052422213D

 25 28  0  0  1  0  0  0  0  0999 V2000
  161.5090  204.4310  151.0690 C   0  0  2  0  0  0  0  0  0  0  0  0
  162.0430  205.1550  149.8960 C   0  0  2  0  0  3  0  0  0  0  0  0
  161.6050  202.6600  148.5080 C   0  0  2  0  0  3  0  0  0  0  0  0
  160.9210  203.0260  150.7800 C   0  0  0  0  0  2  0  0  0  0  0  0
  161.2120  207.1680  150.4030 C   0  0  1  0  0  3  0  0  0  0  0  0
  161.8960  203.9510  147.7180 C   0  0  0  0  0  2  0  0  0  0  0  0
  160.3670  200.6450  148.3420 C   0  0  0  0  0  2  0  0  0  0  0  0
  159.7270  201.5480  149.3810 C   0  0  1  0  0  3  0  0  0  0  0  0
  161.6390  206.4870  147.9480 N   0  0  0  0  0  0  0  0  0  0  0  0
  160.8370  206.5760  146.7370 C   0  0  0  0  0  1  0  0  0  0  0  0
  160.7990  205.7010  150.6000 C   0  0  2  0  0  3  0  0  0  0  0  0
  162.3480  204.5950  152.3190 C   0  0  0  0  0  1  0  0  0  0  0  0
  161.3050  201.5260  147.5640 C   0  0  0  0  0  2  0  0  0  0  0  0
  161.1140  207.5370  148.8720 C   0  0  2  0  0  3  0  0  0  0  0  0
  160.4480  202.8180  149.4030 N   0  0  2  0  0  0  0  0  0  0  0  0
  161.7780  208.7430  148.6400 O   0  0  0  0  0  1  0  0  0  0  0  0
  161.4240  205.1510  148.5290 C   0  0  2  0  0  3  0  0  0  0  0  0
  158.2720  201.7870  149.0160 C   0  0  0  0  0  2  0  0  0  0  0  0
  157.5770  200.5760  149.0110 O   0  0  0  0  0  1  0  0  0  0  0  0
  160.5020  208.0600  151.2410 O   0  0  0  0  0  0  0  0  0  0  0  0
  161.2950  208.3730  152.3580 C   0  0  0  0  0  2  0  0  0  0  0  0
  160.8620  208.1620  154.8230 C   0  0  0  0  0  0  0  0  0  0  0  0
  161.3320  209.4520  155.0400 O   0  0  0  0  0  0  0  0  0  0  0  0
  160.4560  207.4740  155.7940 O   0  0  0  0  0  1  0  0  0  0  0  0
  160.8340  207.6130  153.5070 N   0  0  0  0  0  2  0  0  0  0  0  0
  1 12  1  1  0  0  0
  2 11  1  0  0  0  0
  2  1  1  0  0  0  0
  3 15  1  0  0  0  0
  4  1  1  0  0  0  0
  5 11  1  0  0  0  0
  5 20  1  0  0  0  0
  6  3  1  0  0  0  0
  6 17  1  0  0  0  0
  7  8  1  0  0  0  0
  8 15  1  0  0  0  0
  9 17  1  0  0  0  0
  9 14  1  0  0  0  0
 10  9  1  0  0  0  0
 11  1  1  0  0  0  0
 13  7  1  0  0  0  0
 13  3  1  0  0  0  0
 14  5  1  0  0  0  0
 15  4  1  0  0  0  0
 16 14  1  0  0  0  0
 17  2  1  0  0  0  0
 18  8  1  0  0  0  0
 19 18  1  0  0  0  0
 20 21  1  0  0  0  0
 21 25  1  0  0  0  0
 22 23  2  0  0  0  0
 22 24  1  0  0  0  0
 25 22  1  0  0  0  0
M  END
>  <MODEL>
5

>  <REMARK>
 VINA RESULT:      -4.0      3.203      8.575
  Name = 
  4 active torsions:
  status: ('A' for Active; 'I' for Inactive)
    1  A    between atoms: C_6  and  O_15
    2  A    between atoms: C_8  and  C_11
    3  A    between atoms: O_15  and  C_25
    4  A    between atoms: N_21  and  C_25
                            x       y       z     vdW  Elec       q    Type
                         _______ _______ _______ _____ _____    ______ ____

>  <TORSDO>
F 4

$$$$
=
 OpenBabel11052422213D

 25 28  0  0  1  0  0  0  0  0999 V2000
  161.3780  206.2570  148.9020 C   0  0  2  0  0  0  0  0  0  0  0  0
  160.6340  205.0670  149.3690 C   0  0  2  0  0  3  0  0  0  0  0  0
  160.7300  204.2650  146.5950 C   0  0  2  0  0  3  0  0  0  0  0  0
  161.8660  206.2090  147.4310 C   0  0  0  0  0  2  0  0  0  0  0  0
  161.5920  204.9050  151.3820 C   0  0  1  0  0  3  0  0  0  0  0  0
  160.3130  203.2580  147.6840 C   0  0  0  0  0  2  0  0  0  0  0  0
  161.8670  204.3580  144.5160 C   0  0  0  0  0  2  0  0  0  0  0  0
  162.7220  205.0060  145.5900 C   0  0  1  0  0  3  0  0  0  0  0  0
  160.6650  202.8150  150.1800 N   0  0  0  0  0  0  0  0  0  0  0  0
  161.2080  201.4880  149.9300 C   0  0  0  0  0  1  0  0  0  0  0  0
  162.0060  205.3680  149.9760 C   0  0  2  0  0  3  0  0  0  0  0  0
  160.8120  207.5660  149.4090 C   0  0  0  0  0  1  0  0  0  0  0  0
  160.8100  203.5840  145.2550 C   0  0  0  0  0  2  0  0  0  0  0  0
  161.3880  203.3410  151.3780 C   0  0  2  0  0  3  0  0  0  0  0  0
  162.0480  204.8580  146.8770 N   0  0  2  0  0  0  0  0  0  0  0  0
  160.7160  202.9550  152.5390 O   0  0  0  0  0  1  0  0  0  0  0  0
  160.9650  203.6500  149.0050 C   0  0  2  0  0  3  0  0  0  0  0  0
  164.0780  204.3240  145.6370 C   0  0  0  0  0  2  0  0  0  0  0  0
  164.5870  204.3660  146.9360 O   0  0  0  0  0  1  0  0  0  0  0  0
  162.4750  205.3510  152.3930 O   0  0  0  0  0  0  0  0  0  0  0  0
  162.0050  206.5700  152.9110 C   0  0  0  0  0  2  0  0  0  0  0  0
  160.6730  207.3290  154.9000 C   0  0  0  0  0  0  0  0  0  0  0  0
  161.2010  208.6110  154.7940 O   0  0  0  0  0  0  0  0  0  0  0  0
  159.8500  207.0670  155.8130 O   0  0  0  0  0  1  0  0  0  0  0  0
  161.0570  206.3100  153.9800 N   0  0  0  0  0  2  0  0  0  0  0  0
  1  2  1  0  0  0  0
  1 12  1  1  0  0  0
  1 11  1  0  0  0  0
  2 11  1  0  0  0  0
  3 15  1  0  0  0  0
  3  6  1  0  0  0  0
  4  1  1  0  0  0  0
  5 20  1  0  0  0  0
  6 17  1  0  0  0  0
  7 13  1  0  0  0  0
  7  8  1  0  0  0  0
  8 18  1  0  0  0  0
  8 15  1  0  0  0  0
  9 14  1  0  0  0  0
 10  9  1  0  0  0  0
 11  5  1  0  0  0  0
 13  3  1  0  0  0  0
 14  5  1  0  0  0  0
 14 16  1  0  0  0  0
 15  4  1  0  0  0  0
 17  2  1  0  0  0  0
 17  9  1  0  0  0  0
 18 19  1  0  0  0  0
 20 21  1  0  0  0  0
 21 25  1  0  0  0  0
 22 24  1  0  0  0  0
 23 22  2  0  0  0  0
 25 22  1  0  0  0  0
M  END
>  <MODEL>
6

>  <REMARK>
 VINA RESULT:      -4.0      3.711      8.535
  Name = 
  4 active torsions:
  status: ('A' for Active; 'I' for Inactive)
    1  A    between atoms: C_6  and  O_15
    2  A    between atoms: C_8  and  C_11
    3  A    between atoms: O_15  and  C_25
    4  A    between atoms: N_21  and  C_25
                            x       y       z     vdW  Elec       q    Type
                         _______ _______ _______ _____ _____    ______ ____

>  <TORSDO>
F 4

$$$$
=
 OpenBabel11052422213D

 25 28  0  0  1  0  0  0  0  0999 V2000
  161.5810  205.5930  150.8820 C   0  0  2  0  0  0  0  0  0  0  0  0
  162.3500  206.8560  150.8750 C   0  0  2  0  0  3  0  0  0  0  0  0
  162.7160  206.2910  148.0660 C   0  0  2  0  0  3  0  0  0  0  0  0
  161.3130  204.9630  149.4910 C   0  0  0  0  0  2  0  0  0  0  0  0
  161.1330  207.9370  152.4070 C   0  0  1  0  0  3  0  0  0  0  0  0
  163.0590  207.6820  148.6320 C   0  0  0  0  0  2  0  0  0  0  0  0
  161.8820  205.2620  146.0990 C   0  0  0  0  0  2  0  0  0  0  0  0
  160.8310  205.1900  147.1920 C   0  0  1  0  0  3  0  0  0  0  0  0
  162.3950  209.2290  150.5600 N   0  0  0  0  0  0  0  0  0  0  0  0
  162.0080  210.2970  149.6510 C   0  0  0  0  0  1  0  0  0  0  0  0
  160.8850  206.8830  151.3170 C   0  0  2  0  0  3  0  0  0  0  0  0
  161.9560  204.6590  152.0130 C   0  0  0  0  0  1  0  0  0  0  0  0
  162.8860  206.2790  146.5700 C   0  0  0  0  0  2  0  0  0  0  0  0
  161.4680  209.3220  151.7290 C   0  0  2  0  0  3  0  0  0  0  0  0
  161.3270  205.9080  148.3640 N   0  0  2  0  0  0  0  0  0  0  0  0
  161.9990  210.1930  152.6820 O   0  0  0  0  0  1  0  0  0  0  0  0
  162.1960  207.9500  149.8590 C   0  0  2  0  0  3  0  0  0  0  0  0
  159.5450  205.8310  146.7010 C   0  0  0  0  0  2  0  0  0  0  0  0
  159.6800  206.2030  145.3630 O   0  0  0  0  0  1  0  0  0  0  0  0
  160.0810  208.0160  153.3500 O   0  0  0  0  0  0  0  0  0  0  0  0
  160.4140  207.2480  154.4780 C   0  0  0  0  0  2  0  0  0  0  0  0
  161.3570  208.6930  156.3020 C   0  0  0  0  0  0  0  0  0  0  0  0
  160.0810  208.9500  156.7920 O   0  0  0  0  0  0  0  0  0  0  0  0
  162.3570  209.2020  156.8700 O   0  0  0  0  0  1  0  0  0  0  0  0
  161.5410  207.8550  155.1640 N   0  0  0  0  0  2  0  0  0  0  0  0
  1 11  1  0  0  0  0
  1 12  1  1  0  0  0
  2  1  1  0  0  0  0
  2 11  1  0  0  0  0
  3 15  1  0  0  0  0
  3  6  1  0  0  0  0
  4  1  1  0  0  0  0
  5 20  1  0  0  0  0
  6 17  1  0  0  0  0
  7 13  1  0  0  0  0
  7  8  1  0  0  0  0
  8 15  1  0  0  0  0
  9 14  1  0  0  0  0
 10  9  1  0  0  0  0
 11  5  1  0  0  0  0
 13  3  1  0  0  0  0
 14  5  1  0  0  0  0
 14 16  1  0  0  0  0
 15  4  1  0  0  0  0
 17  9  1  0  0  0  0
 17  2  1  0  0  0  0
 18  8  1  0  0  0  0
 19 18  1  0  0  0  0
 20 21  1  0  0  0  0
 21 25  1  0  0  0  0
 22 23  2  0  0  0  0
 22 24  1  0  0  0  0
 25 22  1  0  0  0  0
M  END
>  <MODEL>
7

>  <REMARK>
 VINA RESULT:      -3.9      2.855      7.623
  Name = 
  4 active torsions:
  status: ('A' for Active; 'I' for Inactive)
    1  A    between atoms: C_6  and  O_15
    2  A    between atoms: C_8  and  C_11
    3  A    between atoms: O_15  and  C_25
    4  A    between atoms: N_21  and  C_25
                            x       y       z     vdW  Elec       q    Type
                         _______ _______ _______ _____ _____    ______ ____

>  <TORSDO>
F 4

$$$$
=
 OpenBabel11052422213D

 25 28  0  0  1  0  0  0  0  0999 V2000
  161.7100  210.5720  155.8640 C   0  0  2  0  0  0  0  0  0  0  0  0
  161.2550  211.3320  154.6790 C   0  0  2  0  0  3  0  0  0  0  0  0
  161.3770  208.7740  153.3420 C   0  0  2  0  0  3  0  0  0  0  0  0
  161.7450  209.0310  155.7000 C   0  0  0  0  0  2  0  0  0  0  0  0
  159.9630  212.8000  155.7620 C   0  0  1  0  0  3  0  0  0  0  0  0
  160.6630  209.9680  152.6780 C   0  0  0  0  0  2  0  0  0  0  0  0
  161.2390  206.4130  153.5080 C   0  0  0  0  0  2  0  0  0  0  0  0
  160.8320  207.0370  154.8290 C   0  0  1  0  0  3  0  0  0  0  0  0
  159.4520  212.1280  153.3210 N   0  0  0  0  0  0  0  0  0  0  0  0
  158.2340  211.7220  152.6350 C   0  0  0  0  0  1  0  0  0  0  0  0
  160.3850  211.3330  155.9390 C   0  0  2  0  0  3  0  0  0  0  0  0
  162.8610  211.2250  156.5990 C   0  0  0  0  0  1  0  0  0  0  0  0
  161.2090  207.5340  152.5050 C   0  0  0  0  0  2  0  0  0  0  0  0
  159.0140  212.9230  154.5080 C   0  0  2  0  0  3  0  0  0  0  0  0
  160.8340  208.4900  154.6800 N   0  0  2  0  0  0  0  0  0  0  0  0
  158.8830  214.2670  154.1520 O   0  0  0  0  0  1  0  0  0  0  0  0
  160.1470  210.9070  153.7610 C   0  0  2  0  0  3  0  0  0  0  0  0
  159.4400  206.5590  155.2060 C   0  0  0  0  0  2  0  0  0  0  0  0
  159.1410  206.9480  156.5130 O   0  0  0  0  0  1  0  0  0  0  0  0
  159.4130  213.3620  156.9380 O   0  0  0  0  0  0  0  0  0  0  0  0
  158.2240  212.6840  157.2610 C   0  0  0  0  0  2  0  0  0  0  0  0
  155.8810  213.2980  156.6000 C   0  0  0  0  0  0  0  0  0  0  0  0
  155.7100  212.0690  155.9730 O   0  0  0  0  0  0  0  0  0  0  0  0
  154.9400  214.1320  156.6030 O   0  0  0  0  0  1  0  0  0  0  0  0
  157.1130  213.6190  157.2410 N   0  0  0  0  0  2  0  0  0  0  0  0
  1 11  1  0  0  0  0
  1 12  1  1  0  0  0
  2  1  1  0  0  0  0
  2 11  1  0  0  0  0
  3 15  1  0  0  0  0
  4  1  1  0  0  0  0
  5 11  1  0  0  0  0
  5 20  1  0  0  0  0
  6  3  1  0  0  0  0
  6 17  1  0  0  0  0
  7  8  1  0  0  0  0
  8 18  1  0  0  0  0
  9 17  1  0  0  0  0
  9 14  1  0  0  0  0
 10  9  1  0  0  0  0
 13  3  1  0  0  0  0
 13  7  1  0  0  0  0
 14  5  1  0  0  0  0
 15  8  1  0  0  0  0
 15  4  1  0  0  0  0
 16 14  1  0  0  0  0
 17  2  1  0  0  0  0
 18 19  1  0  0  0  0
 20 21  1  0  0  0  0
 22 24  1  0  0  0  0
 22 25  1  0  0  0  0
 23 22  2  0  0  0  0
 25 21  1  0  0  0  0
M  END
>  <MODEL>
8

>  <REMARK>
 VINA RESULT:      -3.7      3.639      7.423
  Name = 
  4 active torsions:
  status: ('A' for Active; 'I' for Inactive)
    1  A    between atoms: C_6  and  O_15
    2  A    between atoms: C_8  and  C_11
    3  A    between atoms: O_15  and  C_25
    4  A    between atoms: N_21  and  C_25
                            x       y       z     vdW  Elec       q    Type
                         _______ _______ _______ _____ _____    ______ ____

>  <TORSDO>
F 4

$$$$
=
 OpenBabel11052422213D

 25 28  0  0  1  0  0  0  0  0999 V2000
  161.0740  208.3440  154.2930 C   0  0  2  0  0  0  0  0  0  0  0  0
  161.2730  209.7540  153.8920 C   0  0  2  0  0  3  0  0  0  0  0  0
  162.3180  208.6180  151.4500 C   0  0  2  0  0  3  0  0  0  0  0  0
  161.3220  207.2900  153.1840 C   0  0  0  0  0  2  0  0  0  0  0  0
  159.4810  210.5990  154.9280 C   0  0  1  0  0  3  0  0  0  0  0  0
  161.9820  210.1200  151.5310 C   0  0  0  0  0  2  0  0  0  0  0  0
  162.3130  206.8150  149.9110 C   0  0  0  0  0  2  0  0  0  0  0  0
  161.2010  206.6170  150.9250 C   0  0  1  0  0  3  0  0  0  0  0  0
  160.4370  211.7150  152.8040 N   0  0  0  0  0  0  0  0  0  0  0  0
  159.8280  212.2030  151.5760 C   0  0  0  0  0  1  0  0  0  0  0  0
  159.8620  209.2760  154.2450 C   0  0  2  0  0  3  0  0  0  0  0  0
  161.5800  208.0300  155.6840 C   0  0  0  0  0  1  0  0  0  0  0  0
  162.7380  208.2510  150.0520 C   0  0  0  0  0  2  0  0  0  0  0  0
  159.3590  211.7330  153.8380 C   0  0  2  0  0  3  0  0  0  0  0  0
  161.1610  207.7810  151.8070 N   0  0  2  0  0  0  0  0  0  0  0  0
  159.3300  212.9810  154.4640 O   0  0  0  0  0  1  0  0  0  0  0  0
  160.8820  210.3320  152.5640 C   0  0  2  0  0  3  0  0  0  0  0  0
  159.8750  206.4740  150.2000 C   0  0  0  0  0  2  0  0  0  0  0  0
  160.0970  206.2040  148.8490 O   0  0  0  0  0  1  0  0  0  0  0  0
  158.3350  210.4870  155.7500 O   0  0  0  0  0  0  0  0  0  0  0  0
  157.2000  210.8610  155.0110 C   0  0  0  0  0  2  0  0  0  0  0  0
  155.8510  212.9680  155.2250 C   0  0  0  0  0  0  0  0  0  0  0  0
  156.0820  213.2810  153.8900 O   0  0  0  0  0  0  0  0  0  0  0  0
  155.1560  213.7400  155.9340 O   0  0  0  0  0  1  0  0  0  0  0  0
  156.3920  211.7790  155.7950 N   0  0  0  0  0  2  0  0  0  0  0  0
  1 12  1  1  0  0  0
  2 11  1  0  0  0  0
  2  1  1  0  0  0  0
  3  6  1  0  0  0  0
  3 15  1  0  0  0  0
  4  1  1  0  0  0  0
  5 20  1  0  0  0  0
  6 17  1  0  0  0  0
  7 13  1  0  0  0  0
  7  8  1  0  0  0  0
  8 15  1  0  0  0  0
  9 14  1  0  0  0  0
 10  9  1  0  0  0  0
 11  1  1  0  0  0  0
 11  5  1  0  0  0  0
 13  3  1  0  0  0  0
 14 16  1  0  0  0  0
 14  5  1  0  0  0  0
 15  4  1  0  0  0  0
 17  9  1  0  0  0  0
 17  2  1  0  0  0  0
 18  8  1  0  0  0  0
 19 18  1  0  0  0  0
 21 20  1  0  0  0  0
 21 25  1  0  0  0  0
 22 25  1  0  0  0  0
 22 24  1  0  0  0  0
 23 22  2  0  0  0  0
M  END
>  <MODEL>
9

>  <REMARK>
 VINA RESULT:      -3.5      1.994      7.126
  Name = 
  4 active torsions:
  status: ('A' for Active; 'I' for Inactive)
    1  A    between atoms: C_6  and  O_15
    2  A    between atoms: C_8  and  C_11
    3  A    between atoms: O_15  and  C_25
    4  A    between atoms: N_21  and  C_25
                            x       y       z     vdW  Elec       q    Type
                         _______ _______ _______ _____ _____    ______ ____

>  <TORSDO>
F 4

$$$$
