=
 OpenBabel11062408533D

 55 60  0  0  1  0  0  0  0  0999 V2000
  162.0300  206.0740  152.9660 C   0  0  0  0  0  2  0  0  0  0  0  0
  163.1360  210.5840  155.4810 C   0  0  0  0  0  2  0  0  0  0  0  0
  164.1340  211.6990  152.9790 C   0  0  0  0  0  2  0  0  0  0  0  0
  163.3480  209.8320  151.6630 C   0  0  0  0  0  2  0  0  0  0  0  0
  159.8570  205.6140  154.1880 C   0  0  0  0  0  2  0  0  0  0  0  0
  159.9010  208.1790  155.4110 C   0  0  1  0  0  3  0  0  0  0  0  0
  161.4780  206.5450  151.6280 C   0  0  0  0  0  2  0  0  0  0  0  0
  160.8220  207.9300  154.2180 C   0  0  0  0  0  2  0  0  0  0  0  0
  162.0380  209.9960  156.3600 C   0  0  0  0  0  2  0  0  0  0  0  0
  163.3900  209.7240  154.2490 C   0  0  0  0  0  2  0  0  0  0  0  0
  163.4860  210.5340  152.9800 C   0  0  0  0  0  0  0  0  0  0  0  0
  159.0220  206.0840  155.3800 C   0  0  0  0  0  2  0  0  0  0  0  0
  160.6500  210.5660  156.0230 C   0  0  2  0  0  0  0  0  0  0  0  0
  161.1390  206.4390  154.1510 C   0  0  2  0  0  3  0  0  0  0  0  0
  162.0680  209.0080  151.5960 C   0  0  2  0  0  3  0  0  0  0  0  0
  162.4000  207.6120  151.0510 C   0  0  2  0  0  3  0  0  0  0  0  0
  159.6770  210.0220  156.8850 O   0  0  0  0  0  0  0  0  0  0  0  0
  159.5640  209.6600  155.5280 C   0  0  2  0  0  3  0  0  0  0  0  0
  158.7060  207.4500  155.2430 O   0  0  0  0  0  0  0  0  0  0  0  0
  161.0420  209.5900  149.4320 O   0  0  0  0  0  0  0  0  0  0  0  0
  162.0290  210.4740  148.9520 C   0  0  0  0  0  2  0  0  0  0  0  0
  160.7840  211.2130  151.2870 C   0  0  2  0  0  3  0  0  0  0  0  0
  160.4970  212.1240  150.0970 C   0  0  0  0  0  2  0  0  0  0  0  0
  161.5310  211.9190  148.9900 C   0  0  0  0  0  2  0  0  0  0  0  0
  160.9370  209.7400  150.8400 C   0  0  2  0  0  3  0  0  0  0  0  0
  159.7470  211.3230  152.2120 O   0  0  0  0  0  1  0  0  0  0  0  0
  160.7950  212.5080  154.6240 F   0  0  0  0  0  0  0  0  0  0  0  0
  160.4380  212.0950  155.8990 C   0  0  0  0  0  0  0  0  0  0  0  0
  161.2580  212.7540  156.7990 F   0  0  0  0  0  0  0  0  0  0  0  0
  158.9590  212.4630  156.1720 C   0  0  1  0  0  3  0  0  0  0  0  0
  158.8630  213.3390  157.2610 O   0  0  0  0  0  1  0  0  0  0  0  0
  158.1600  213.0040  154.9570 C   0  0  2  0  0  0  0  0  0  0  0  0
  158.4140  212.1990  153.8420 O   0  0  0  0  0  1  0  0  0  0  0  0
  159.7510  214.4520  153.8680 F   0  0  0  0  0  0  0  0  0  0  0  0
  158.5860  214.4350  154.6150 C   0  0  0  0  0  2  0  0  0  0  0  0
  156.6430  212.9720  155.2520 C   0  0  2  0  0  3  0  0  0  0  0  0
  156.1290  214.2910  155.8400 C   0  0  2  0  0  3  0  0  0  0  0  0
  156.3090  214.3240  157.2110 F   0  0  0  0  0  0  0  0  0  0  0  0
  154.7760  214.4510  155.5410 O   0  0  0  0  0  1  0  0  0  0  0  0
  156.3160  211.9050  156.1030 O   0  0  0  0  0  0  0  0  0  0  0  0
  154.9710  211.8090  154.2610 O   0  0  0  0  0  1  0  0  0  0  0  0
  155.1550  211.3420  155.5630 C   0  0  1  0  0  3  0  0  0  0  0  0
  156.5170  209.2480  155.6410 O   0  0  0  0  0  1  0  0  0  0  0  0
  155.2710  209.8560  155.5490 C   0  0  0  0  0  0  0  0  0  0  0  0
  154.2350  209.1490  155.4380 O   0  0  0  0  0  0  0  0  0  0  0  0
  162.4570  207.5580  149.5250 C   0  0  0  0  0  2  0  0  0  0  0  0
  162.8270  205.7160  147.8720 C   0  0  0  0  0  3  0  0  0  0  0  0
  161.6560  203.5970  148.0660 C   0  0  0  0  0  0  0  0  0  0  0  0
  161.3020  205.3430  149.7160 C   0  0  0  0  0  3  0  0  0  0  0  0
  161.0380  204.0560  149.2390 C   0  0  0  0  0  3  0  0  0  0  0  0
  162.5640  204.4290  147.3950 C   0  0  0  0  0  3  0  0  0  0  0  0
  162.1950  206.1750  149.0320 C   0  0  0  0  0  0  0  0  0  0  0  0
  161.4070  202.2010  147.5810 C   0  0  0  0  0  3  0  0  0  0  0  0
  160.4840  201.4640  148.5400 C   0  0  0  0  0  2  0  0  0  0  0  0
  159.9380  202.0080  147.2410 C   0  0  0  0  0  2  0  0  0  0  0  0
  2  9  1  0  0  0  0
  3 11  2  0  0  0  0
  4 11  1  0  0  0  0
  5 12  1  0  0  0  0
  6  8  1  6  0  0  0
  6 18  1  0  0  0  0
  7  1  1  0  0  0  0
 10  2  1  0  0  0  0
 11 10  1  0  0  0  0
 13 28  1  6  0  0  0
 13  9  1  0  0  0  0
 13 17  1  0  0  0  0
 14  1  1  6  0  0  0
 14  5  1  0  0  0  0
 14  8  1  0  0  0  0
 15  4  1  6  0  0  0
 16 46  1  6  0  0  0
 16 15  1  0  0  0  0
 16  7  1  0  0  0  0
 18 13  1  0  0  0  0
 18 17  1  1  0  0  0
 19 12  1  0  0  0  0
 19  6  1  0  0  0  0
 21 24  1  0  0  0  0
 21 20  1  0  0  0  0
 22 26  1  1  0  0  0
 23 22  1  0  0  0  0
 24 23  1  0  0  0  0
 25 20  1  6  0  0  0
 25 22  1  0  0  0  0
 25 15  1  0  0  0  0
 27 28  1  0  0  0  0
 28 30  1  0  0  0  0
 28 29  1  0  0  0  0
 30 31  1  1  0  0  0
 32 33  1  6  0  0  0
 32 36  1  0  0  0  0
 32 30  1  0  0  0  0
 34 35  1  0  0  0  0
 35 32  1  0  0  0  0
 36 37  1  0  0  0  0
 36 40  1  1  0  0  0
 37 39  1  1  0  0  0
 37 38  1  0  0  0  0
 42 41  1  6  0  0  0
 42 40  1  0  0  0  0
 44 42  1  0  0  0  0
 44 43  1  0  0  0  0
 45 44  2  0  0  0  0
 47 52  1  0  0  0  0
 48 50  2  0  0  0  0
 50 49  1  0  0  0  0
 51 47  2  0  0  0  0
 51 48  1  0  0  0  0
 52 46  1  0  0  0  0
 52 49  2  0  0  0  0
 53 48  1  0  0  0  0
 53 54  1  0  0  0  0
 55 53  1  0  0  0  0
 55 54  1  0  0  0  0
M  END
>  <MODEL>
1

>  <REMARK>
 VINA RESULT:       8.1      0.000      0.000
  Name = 
  13 active torsions:
  status: ('A' for Active; 'I' for Inactive)
    1  A    between atoms: C_1  and  C_53
    2  A    between atoms: C_6  and  C_14
    3  A    between atoms: C_6  and  C_20
    4  A    between atoms: C_6  and  C_53
    5  A    between atoms: C_8  and  C_20
    6  A    between atoms: C_8  and  C_43
    7  A    between atoms: C_10  and  C_32
    8  A    between atoms: C_11  and  C_29
    9  A    between atoms: C_11  and  O_38
   10  A    between atoms: C_26  and  C_45
   11  A    between atoms: C_33  and  C_49
   12  A    between atoms: C_33  and  C_52
   13  A    between atoms: O_38  and  C_53
                            x       y       z     vdW  Elec       q    Type
                         _______ _______ _______ _____ _____    ______ ____

>  <TORSDO>
F 13

$$$$
=
 OpenBabel11062408533D

 55 60  0  0  1  0  0  0  0  0999 V2000
  163.7350  206.1790  150.8870 C   0  0  0  0  0  2  0  0  0  0  0  0
  162.3360  211.1890  151.8000 C   0  0  0  0  0  2  0  0  0  0  0  0
  162.2510  211.6580  148.9240 C   0  0  0  0  0  2  0  0  0  0  0  0
  162.5340  209.3200  148.3860 C   0  0  0  0  0  2  0  0  0  0  0  0
  162.3530  205.1720  152.7590 C   0  0  0  0  0  2  0  0  0  0  0  0
  161.0580  207.6520  153.2560 C   0  0  1  0  0  3  0  0  0  0  0  0
  162.8750  205.7870  149.6930 C   0  0  0  0  0  2  0  0  0  0  0  0
  161.8250  207.4860  151.9450 C   0  0  0  0  0  2  0  0  0  0  0  0
  161.8670  210.4960  153.0750 C   0  0  0  0  0  2  0  0  0  0  0  0
  162.9020  210.1930  150.7950 C   0  0  0  0  0  2  0  0  0  0  0  0
  162.3860  210.4180  149.3960 C   0  0  0  0  0  0  0  0  0  0  0  0
  161.5300  205.5550  153.9900 C   0  0  0  0  0  2  0  0  0  0  0  0
  160.3750  210.1260  153.0260 C   0  0  2  0  0  0  0  0  0  0  0  0
  162.9260  206.4490  152.1540 C   0  0  2  0  0  3  0  0  0  0  0  0
  161.9520  208.0060  148.8950 C   0  0  2  0  0  3  0  0  0  0  0  0
  162.9600  206.8790  148.6330 C   0  0  2  0  0  3  0  0  0  0  0  0
  159.9820  209.5230  154.2370 O   0  0  0  0  0  0  0  0  0  0  0  0
  159.9540  208.6900  153.1020 C   0  0  2  0  0  3  0  0  0  0  0  0
  160.4810  206.4200  153.6230 O   0  0  0  0  0  0  0  0  0  0  0  0
  159.6360  207.2960  149.3500 O   0  0  0  0  0  0  0  0  0  0  0  0
  159.8710  205.9290  149.5990 C   0  0  0  0  0  2  0  0  0  0  0  0
  160.5450  206.8310  147.0930 C   0  0  2  0  0  3  0  0  0  0  0  0
  159.3870  205.8380  147.1210 C   0  0  0  0  0  2  0  0  0  0  0  0
  159.3580  205.0700  148.4420 C   0  0  0  0  0  2  0  0  0  0  0  0
  160.5330  207.7400  148.3440 C   0  0  2  0  0  3  0  0  0  0  0  0
  160.4580  207.6100  145.9400 O   0  0  0  0  0  1  0  0  0  0  0  0
  158.0700  210.5750  152.5390 F   0  0  0  0  0  0  0  0  0  0  0  0
  159.3190  211.1750  152.6000 C   0  0  0  0  0  0  0  0  0  0  0  0
  159.6190  211.6510  151.3350 F   0  0  0  0  0  0  0  0  0  0  0  0
  159.2850  212.3510  153.6060 C   0  0  1  0  0  3  0  0  0  0  0  0
  159.9440  213.4690  153.0790 O   0  0  0  0  0  1  0  0  0  0  0  0
  157.8830  212.7410  154.1450 C   0  0  2  0  0  0  0  0  0  0  0  0
  158.0150  213.2820  155.4270 O   0  0  0  0  0  1  0  0  0  0  0  0
  157.2170  210.7890  155.3950 F   0  0  0  0  0  0  0  0  0  0  0  0
  156.9730  211.5110  154.2400 C   0  0  0  0  0  2  0  0  0  0  0  0
  157.2280  213.8000  153.2290 C   0  0  2  0  0  3  0  0  0  0  0  0
  155.9920  214.4470  153.8660 C   0  0  2  0  0  3  0  0  0  0  0  0
  155.6860  213.8460  155.0730 F   0  0  0  0  0  0  0  0  0  0  0  0
  154.9020  214.3440  153.0020 O   0  0  0  0  0  1  0  0  0  0  0  0
  156.8940  213.2510  151.9810 O   0  0  0  0  0  0  0  0  0  0  0  0
  158.5060  214.3020  150.7540 O   0  0  0  0  0  1  0  0  0  0  0  0
  157.1440  214.2660  151.0510 C   0  0  1  0  0  3  0  0  0  0  0  0
  154.9820  214.1160  149.8060 O   0  0  0  0  0  1  0  0  0  0  0  0
  156.3670  214.0130  149.8040 C   0  0  0  0  0  0  0  0  0  0  0  0
  156.9700  213.6890  148.7470 O   0  0  0  0  0  0  0  0  0  0  0  0
  162.8760  206.3110  147.2170 C   0  0  0  0  0  2  0  0  0  0  0  0
  162.1730  204.2490  148.4470 C   0  0  0  0  0  3  0  0  0  0  0  0
  161.3880  202.2810  147.2590 C   0  0  0  0  0  0  0  0  0  0  0  0
  162.0190  204.2790  146.0300 C   0  0  0  0  0  3  0  0  0  0  0  0
  161.5390  202.9660  146.0440 C   0  0  0  0  0  3  0  0  0  0  0  0
  161.6920  202.9360  148.4620 C   0  0  0  0  0  3  0  0  0  0  0  0
  162.3390  204.9200  147.2320 C   0  0  0  0  0  0  0  0  0  0  0  0
  160.8290  200.8900  147.2750 C   0  0  0  0  0  3  0  0  0  0  0  0
  161.9540  199.8690  147.3380 C   0  0  0  0  0  2  0  0  0  0  0  0
  161.1670  200.1950  148.5850 C   0  0  0  0  0  2  0  0  0  0  0  0
  2  9  1  0  0  0  0
  3 11  2  0  0  0  0
  4 11  1  0  0  0  0
  5 12  1  0  0  0  0
  6  8  1  6  0  0  0
  6 19  1  0  0  0  0
  7  1  1  0  0  0  0
  8 14  1  0  0  0  0
 10  2  1  0  0  0  0
 11 10  1  0  0  0  0
 13 28  1  6  0  0  0
 13  9  1  0  0  0  0
 13 18  1  0  0  0  0
 13 17  1  0  0  0  0
 14  1  1  6  0  0  0
 14  5  1  0  0  0  0
 15  4  1  6  0  0  0
 16 46  1  6  0  0  0
 16 15  1  0  0  0  0
 16  7  1  0  0  0  0
 18  6  1  0  0  0  0
 18 17  1  1  0  0  0
 19 12  1  0  0  0  0
 20 21  1  0  0  0  0
 22 26  1  6  0  0  0
 22 23  1  0  0  0  0
 22 25  1  0  0  0  0
 23 24  1  0  0  0  0
 24 21  1  0  0  0  0
 25 15  1  0  0  0  0
 25 20  1  1  0  0  0
 27 28  1  0  0  0  0
 28 30  1  0  0  0  0
 29 28  1  0  0  0  0
 30 31  1  6  0  0  0
 30 32  1  0  0  0  0
 32 35  1  0  0  0  0
 32 33  1  1  0  0  0
 35 34  1  0  0  0  0
 36 40  1  6  0  0  0
 36 37  1  0  0  0  0
 36 32  1  0  0  0  0
 37 39  1  6  0  0  0
 37 38  1  0  0  0  0
 42 41  1  6  0  0  0
 42 40  1  0  0  0  0
 44 43  1  0  0  0  0
 44 42  1  0  0  0  0
 45 44  2  0  0  0  0
 46 52  1  0  0  0  0
 47 51  1  0  0  0  0
 48 53  1  0  0  0  0
 48 51  2  0  0  0  0
 49 50  2  0  0  0  0
 49 52  1  0  0  0  0
 50 48  1  0  0  0  0
 52 47  2  0  0  0  0
 53 54  1  0  0  0  0
 53 55  1  0  0  0  0
 54 55  1  0  0  0  0
M  END
>  <MODEL>
2

>  <REMARK>
 VINA RESULT:       9.2      2.348      4.027
  Name = 
  13 active torsions:
  status: ('A' for Active; 'I' for Inactive)
    1  A    between atoms: C_1  and  C_53
    2  A    between atoms: C_6  and  C_14
    3  A    between atoms: C_6  and  C_20
    4  A    between atoms: C_6  and  C_53
    5  A    between atoms: C_8  and  C_20
    6  A    between atoms: C_8  and  C_43
    7  A    between atoms: C_10  and  C_32
    8  A    between atoms: C_11  and  C_29
    9  A    between atoms: C_11  and  O_38
   10  A    between atoms: C_26  and  C_45
   11  A    between atoms: C_33  and  C_49
   12  A    between atoms: C_33  and  C_52
   13  A    between atoms: O_38  and  C_53
                            x       y       z     vdW  Elec       q    Type
                         _______ _______ _______ _____ _____    ______ ____

>  <TORSDO>
F 13

$$$$
=
 OpenBabel11062408533D

 55 60  0  0  1  0  0  0  0  0999 V2000
  163.7410  206.1040  150.9760 C   0  0  0  0  0  2  0  0  0  0  0  0
  162.4930  211.0840  152.2150 C   0  0  0  0  0  2  0  0  0  0  0  0
  162.5510  211.7710  149.3820 C   0  0  0  0  0  2  0  0  0  0  0  0
  162.7690  209.4710  148.6780 C   0  0  0  0  0  2  0  0  0  0  0  0
  162.2420  205.0160  152.7070 C   0  0  0  0  0  2  0  0  0  0  0  0
  161.0210  207.5020  153.3400 C   0  0  1  0  0  3  0  0  0  0  0  0
  162.9200  205.8380  149.7220 C   0  0  0  0  0  2  0  0  0  0  0  0
  161.8380  207.4040  152.0530 C   0  0  0  0  0  2  0  0  0  0  0  0
  161.9440  210.3160  153.4120 C   0  0  0  0  0  2  0  0  0  0  0  0
  163.0650  210.1440  151.1600 C   0  0  0  0  0  2  0  0  0  0  0  0
  162.6190  210.4950  149.7620 C   0  0  0  0  0  0  0  0  0  0  0  0
  161.3810  205.3390  153.9300 C   0  0  0  0  0  2  0  0  0  0  0  0
  160.4430  210.0120  153.2740 C   0  0  2  0  0  0  0  0  0  0  0  0
  162.8880  206.3110  152.2260 C   0  0  2  0  0  3  0  0  0  0  0  0
  162.1160  208.1470  149.0600 C   0  0  2  0  0  3  0  0  0  0  0  0
  163.0910  207.0020  148.7530 C   0  0  2  0  0  3  0  0  0  0  0  0
  159.9750  209.3360  154.4190 O   0  0  0  0  0  0  0  0  0  0  0  0
  159.9640  208.5930  153.2220 C   0  0  2  0  0  3  0  0  0  0  0  0
  160.3820  206.2710  153.5880 O   0  0  0  0  0  0  0  0  0  0  0  0
  159.7520  207.5220  149.3710 O   0  0  0  0  0  0  0  0  0  0  0  0
  159.9150  206.1330  149.5450 C   0  0  0  0  0  2  0  0  0  0  0  0
  160.7430  207.1490  147.1300 C   0  0  2  0  0  3  0  0  0  0  0  0
  159.5420  206.2120  147.0470 C   0  0  0  0  0  2  0  0  0  0  0  0
  159.4180  205.3690  148.3170 C   0  0  0  0  0  2  0  0  0  0  0  0
  160.7130  207.9820  148.4330 C   0  0  2  0  0  3  0  0  0  0  0  0
  160.7430  207.9980  146.0240 O   0  0  0  0  0  1  0  0  0  0  0  0
  158.2480  210.5650  152.4800 F   0  0  0  0  0  0  0  0  0  0  0  0
  159.4460  211.1330  152.8880 C   0  0  0  0  0  0  0  0  0  0  0  0
  159.9520  211.8590  151.8230 F   0  0  0  0  0  0  0  0  0  0  0  0
  159.1950  212.0760  154.0900 C   0  0  1  0  0  3  0  0  0  0  0  0
  160.3500  212.1910  154.8750 O   0  0  0  0  0  1  0  0  0  0  0  0
  158.6210  213.4750  153.7450 C   0  0  2  0  0  0  0  0  0  0  0  0
  159.2980  213.9910  152.6360 O   0  0  0  0  0  1  0  0  0  0  0  0
  158.4170  213.8820  156.1130 F   0  0  0  0  0  0  0  0  0  0  0  0
  158.8120  214.4480  154.9130 C   0  0  0  0  0  2  0  0  0  0  0  0
  157.1170  213.3700  153.3990 C   0  0  2  0  0  3  0  0  0  0  0  0
  156.7570  214.1080  152.1040 C   0  0  2  0  0  3  0  0  0  0  0  0
  155.4070  214.4060  152.0630 F   0  0  0  0  0  0  0  0  0  0  0  0
  157.0980  213.3250  151.0010 O   0  0  0  0  0  1  0  0  0  0  0  0
  156.3220  213.8390  154.4570 O   0  0  0  0  0  0  0  0  0  0  0  0
  156.2640  211.5600  154.5700 O   0  0  0  0  0  1  0  0  0  0  0  0
  155.5750  212.7340  154.8780 C   0  0  1  0  0  3  0  0  0  0  0  0
  155.1090  211.6510  157.0800 O   0  0  0  0  0  1  0  0  0  0  0  0
  155.3450  212.8070  156.3480 C   0  0  0  0  0  0  0  0  0  0  0  0
  155.3500  213.9260  156.9260 O   0  0  0  0  0  0  0  0  0  0  0  0
  163.0490  206.5470  147.2950 C   0  0  0  0  0  2  0  0  0  0  0  0
  162.2070  204.6240  145.9340 C   0  0  0  0  0  3  0  0  0  0  0  0
  161.4780  202.5600  146.9870 C   0  0  0  0  0  0  0  0  0  0  0  0
  162.3310  204.3870  148.3420 C   0  0  0  0  0  3  0  0  0  0  0  0
  161.8160  203.0910  148.2410 C   0  0  0  0  0  3  0  0  0  0  0  0
  161.6930  203.3280  145.8330 C   0  0  0  0  0  3  0  0  0  0  0  0
  162.5250  205.1550  147.1880 C   0  0  0  0  0  0  0  0  0  0  0  0
  160.9710  201.1540  146.8780 C   0  0  0  0  0  3  0  0  0  0  0  0
  161.5480  200.2950  147.9920 C   0  0  0  0  0  2  0  0  0  0  0  0
  160.1260  200.7960  148.0910 C   0  0  0  0  0  2  0  0  0  0  0  0
  2  9  1  0  0  0  0
  3 11  2  0  0  0  0
  4 11  1  0  0  0  0
  5 12  1  0  0  0  0
  6  8  1  6  0  0  0
  6 19  1  0  0  0  0
  7  1  1  0  0  0  0
  8 14  1  0  0  0  0
 10  2  1  0  0  0  0
 11 10  1  0  0  0  0
 13 28  1  6  0  0  0
 13  9  1  0  0  0  0
 13 17  1  0  0  0  0
 14  1  1  6  0  0  0
 14  5  1  0  0  0  0
 15  4  1  6  0  0  0
 16 46  1  6  0  0  0
 16 15  1  0  0  0  0
 16  7  1  0  0  0  0
 18 13  1  0  0  0  0
 18  6  1  0  0  0  0
 18 17  1  1  0  0  0
 19 12  1  0  0  0  0
 20 21  1  0  0  0  0
 22 26  1  6  0  0  0
 22 25  1  0  0  0  0
 23 22  1  0  0  0  0
 23 24  1  0  0  0  0
 24 21  1  0  0  0  0
 25 15  1  0  0  0  0
 25 20  1  1  0  0  0
 27 28  1  0  0  0  0
 28 30  1  0  0  0  0
 29 28  1  0  0  0  0
 30 31  1  6  0  0  0
 32 33  1  6  0  0  0
 32 30  1  0  0  0  0
 32 35  1  0  0  0  0
 35 34  1  0  0  0  0
 36 32  1  0  0  0  0
 36 40  1  1  0  0  0
 37 39  1  6  0  0  0
 37 36  1  0  0  0  0
 38 37  1  0  0  0  0
 40 42  1  0  0  0  0
 42 41  1  1  0  0  0
 42 44  1  0  0  0  0
 44 45  2  0  0  0  0
 44 43  1  0  0  0  0
 47 52  1  0  0  0  0
 48 50  2  0  0  0  0
 50 49  1  0  0  0  0
 51 47  2  0  0  0  0
 51 48  1  0  0  0  0
 52 46  1  0  0  0  0
 52 49  2  0  0  0  0
 53 48  1  0  0  0  0
 53 54  1  0  0  0  0
 53 55  1  0  0  0  0
 54 55  1  0  0  0  0
M  END
>  <MODEL>
3

>  <REMARK>
 VINA RESULT:       9.3      1.991      3.352
  Name = 
  13 active torsions:
  status: ('A' for Active; 'I' for Inactive)
    1  A    between atoms: C_1  and  C_53
    2  A    between atoms: C_6  and  C_14
    3  A    between atoms: C_6  and  C_20
    4  A    between atoms: C_6  and  C_53
    5  A    between atoms: C_8  and  C_20
    6  A    between atoms: C_8  and  C_43
    7  A    between atoms: C_10  and  C_32
    8  A    between atoms: C_11  and  C_29
    9  A    between atoms: C_11  and  O_38
   10  A    between atoms: C_26  and  C_45
   11  A    between atoms: C_33  and  C_49
   12  A    between atoms: C_33  and  C_52
   13  A    between atoms: O_38  and  C_53
                            x       y       z     vdW  Elec       q    Type
                         _______ _______ _______ _____ _____    ______ ____

>  <TORSDO>
F 13

$$$$
=
 OpenBabel11062408533D

 55 60  0  0  1  0  0  0  0  0999 V2000
  162.4420  210.3230  151.8970 C   0  0  0  0  0  2  0  0  0  0  0  0
  164.6240  206.2010  149.4200 C   0  0  0  0  0  2  0  0  0  0  0  0
  164.1690  204.5710  151.7940 C   0  0  0  0  0  2  0  0  0  0  0  0
  162.8430  206.2700  152.8850 C   0  0  0  0  0  2  0  0  0  0  0  0
  161.2210  211.2340  149.8720 C   0  0  0  0  0  2  0  0  0  0  0  0
  161.8540  208.9250  148.3420 C   0  0  1  0  0  3  0  0  0  0  0  0
  161.2710  209.7020  152.6460 C   0  0  0  0  0  2  0  0  0  0  0  0
  162.0290  208.8590  149.8580 C   0  0  0  0  0  2  0  0  0  0  0  0
  164.1480  207.0530  148.2490 C   0  0  0  0  0  2  0  0  0  0  0  0
  164.2170  206.8060  150.7580 C   0  0  0  0  0  2  0  0  0  0  0  0
  163.6320  205.7890  151.7060 C   0  0  0  0  0  0  0  0  0  0  0  0
  161.1160  211.0730  148.3540 C   0  0  0  0  0  2  0  0  0  0  0  0
  162.7780  206.6020  147.7160 C   0  0  2  0  0  0  0  0  0  0  0  0
  162.2870  210.2700  150.3790 C   0  0  2  0  0  3  0  0  0  0  0  0
  161.7250  207.2170  152.4650 C   0  0  2  0  0  3  0  0  0  0  0  0
  161.7480  208.4520  153.3760 C   0  0  2  0  0  3  0  0  0  0  0  0
  162.3980  207.3940  146.6150 O   0  0  0  0  0  0  0  0  0  0  0  0
  161.6050  207.5340  147.7710 C   0  0  2  0  0  3  0  0  0  0  0  0
  160.7550  209.7500  148.0300 O   0  0  0  0  0  0  0  0  0  0  0  0
  160.0320  205.8100  153.5750 O   0  0  0  0  0  0  0  0  0  0  0  0
  160.7400  204.5920  153.5990 C   0  0  0  0  0  2  0  0  0  0  0  0
  160.2190  205.6340  151.1110 C   0  0  2  0  0  3  0  0  0  0  0  0
  159.4980  204.3240  151.4150 C   0  0  0  0  0  2  0  0  0  0  0  0
  160.1530  203.6020  152.5930 C   0  0  0  0  0  2  0  0  0  0  0  0
  160.3550  206.5060  152.3810 C   0  0  2  0  0  3  0  0  0  0  0  0
  159.5140  206.3310  150.1300 O   0  0  0  0  0  1  0  0  0  0  0  0
  162.2990  204.4190  148.5850 F   0  0  0  0  0  0  0  0  0  0  0  0
  162.5090  205.1100  147.4010 C   0  0  0  0  0  0  0  0  0  0  0  0
  163.6190  204.5580  146.7840 F   0  0  0  0  0  0  0  0  0  0  0  0
  161.2720  204.9620  146.4830 C   0  0  1  0  0  3  0  0  0  0  0  0
  160.9060  206.2020  145.9460 O   0  0  0  0  0  1  0  0  0  0  0  0
  161.3820  203.8880  145.3670 C   0  0  2  0  0  0  0  0  0  0  0  0
  162.6930  203.8570  144.8840 O   0  0  0  0  0  1  0  0  0  0  0  0
  159.1210  204.1150  144.5610 F   0  0  0  0  0  0  0  0  0  0  0  0
  160.4520  204.2210  144.1960 C   0  0  0  0  0  2  0  0  0  0  0  0
  161.0300  202.4910  145.9270 C   0  0  2  0  0  3  0  0  0  0  0  0
  160.0870  201.7070  145.0070 C   0  0  2  0  0  3  0  0  0  0  0  0
  158.7930  201.7200  145.4970 F   0  0  0  0  0  0  0  0  0  0  0  0
  160.5280  200.3900  144.8830 O   0  0  0  0  0  1  0  0  0  0  0  0
  160.4770  202.5870  147.2140 O   0  0  0  0  0  0  0  0  0  0  0  0
  162.1020  201.1060  147.8270 O   0  0  0  0  0  1  0  0  0  0  0  0
  160.7280  201.3510  147.8190 C   0  0  1  0  0  3  0  0  0  0  0  0
  161.0950  201.3040  150.2900 O   0  0  0  0  0  1  0  0  0  0  0  0
  160.2140  201.3570  149.2180 C   0  0  0  0  0  0  0  0  0  0  0  0
  158.9730  201.3960  149.4270 O   0  0  0  0  0  0  0  0  0  0  0  0
  161.0090  208.2420  154.6970 C   0  0  0  0  0  2  0  0  0  0  0  0
  161.6860  210.3920  155.7840 C   0  0  0  0  0  3  0  0  0  0  0  0
  160.0270  211.9790  156.5760 C   0  0  0  0  0  0  0  0  0  0  0  0
  159.3280  209.9240  155.4860 C   0  0  0  0  0  3  0  0  0  0  0  0
  159.0090  211.1380  156.1010 C   0  0  0  0  0  3  0  0  0  0  0  0
  161.3680  211.6060  156.3990 C   0  0  0  0  0  3  0  0  0  0  0  0
  160.6670  209.5490  155.3290 C   0  0  0  0  0  0  0  0  0  0  0  0
  159.6850  213.3010  157.1940 C   0  0  0  0  0  3  0  0  0  0  0  0
  159.6850  214.3940  156.1360 C   0  0  0  0  0  2  0  0  0  0  0  0
  158.3740  213.8290  156.6300 C   0  0  0  0  0  2  0  0  0  0  0  0
  1  7  1  0  0  0  0
  2 10  1  0  0  0  0
  5 14  1  0  0  0  0
  6  8  1  1  0  0  0
  7 16  1  0  0  0  0
  9  2  1  0  0  0  0
 10 11  1  0  0  0  0
 11  3  2  0  0  0  0
 11  4  1  0  0  0  0
 12  5  1  0  0  0  0
 13 28  1  6  0  0  0
 13 18  1  0  0  0  0
 13  9  1  0  0  0  0
 14  8  1  1  0  0  0
 14  1  1  0  0  0  0
 15  4  1  1  0  0  0
 15 16  1  0  0  0  0
 16 46  1  1  0  0  0
 17 13  1  0  0  0  0
 18 17  1  6  0  0  0
 18  6  1  0  0  0  0
 19  6  1  0  0  0  0
 19 12  1  0  0  0  0
 20 21  1  0  0  0  0
 22 26  1  6  0  0  0
 22 23  1  0  0  0  0
 22 25  1  0  0  0  0
 23 24  1  0  0  0  0
 24 21  1  0  0  0  0
 25 15  1  0  0  0  0
 25 20  1  1  0  0  0
 28 27  1  0  0  0  0
 29 28  1  0  0  0  0
 30 31  1  6  0  0  0
 30 28  1  0  0  0  0
 32 33  1  6  0  0  0
 32 36  1  0  0  0  0
 32 30  1  0  0  0  0
 35 34  1  0  0  0  0
 35 32  1  0  0  0  0
 36 40  1  1  0  0  0
 37 39  1  1  0  0  0
 37 38  1  0  0  0  0
 37 36  1  0  0  0  0
 40 42  1  0  0  0  0
 42 41  1  1  0  0  0
 42 44  1  0  0  0  0
 44 45  2  0  0  0  0
 44 43  1  0  0  0  0
 46 52  1  0  0  0  0
 47 51  1  0  0  0  0
 48 53  1  0  0  0  0
 49 50  2  0  0  0  0
 50 48  1  0  0  0  0
 51 48  2  0  0  0  0
 52 49  1  0  0  0  0
 52 47  2  0  0  0  0
 54 55  1  0  0  0  0
 54 53  1  0  0  0  0
 55 53  1  0  0  0  0
M  END
>  <MODEL>
4

>  <REMARK>
 VINA RESULT:      11.0      4.712     10.504
  Name = 
  13 active torsions:
  status: ('A' for Active; 'I' for Inactive)
    1  A    between atoms: C_1  and  C_53
    2  A    between atoms: C_6  and  C_14
    3  A    between atoms: C_6  and  C_20
    4  A    between atoms: C_6  and  C_53
    5  A    between atoms: C_8  and  C_20
    6  A    between atoms: C_8  and  C_43
    7  A    between atoms: C_10  and  C_32
    8  A    between atoms: C_11  and  C_29
    9  A    between atoms: C_11  and  O_38
   10  A    between atoms: C_26  and  C_45
   11  A    between atoms: C_33  and  C_49
   12  A    between atoms: C_33  and  C_52
   13  A    between atoms: O_38  and  C_53
                            x       y       z     vdW  Elec       q    Type
                         _______ _______ _______ _____ _____    ______ ____

>  <TORSDO>
F 13

$$$$
=
 OpenBabel11062408533D

 55 60  0  0  1  0  0  0  0  0999 V2000
  163.4720  205.8830  150.7390 C   0  0  0  0  0  2  0  0  0  0  0  0
  162.4390  210.9450  151.8350 C   0  0  0  0  0  2  0  0  0  0  0  0
  162.5180  211.5470  148.9840 C   0  0  0  0  0  2  0  0  0  0  0  0
  162.6370  209.2210  148.3460 C   0  0  0  0  0  2  0  0  0  0  0  0
  161.9340  204.9100  152.5030 C   0  0  0  0  0  2  0  0  0  0  0  0
  160.8210  207.4630  153.0670 C   0  0  1  0  0  3  0  0  0  0  0  0
  162.6370  205.6170  149.4940 C   0  0  0  0  0  2  0  0  0  0  0  0
  161.6290  207.2930  151.7820 C   0  0  0  0  0  2  0  0  0  0  0  0
  161.8620  210.2360  153.0550 C   0  0  0  0  0  2  0  0  0  0  0  0
  162.9680  209.9530  150.8070 C   0  0  0  0  0  2  0  0  0  0  0  0
  162.5330  210.2810  149.4000 C   0  0  0  0  0  0  0  0  0  0  0  0
  161.0910  205.3050  153.7180 C   0  0  0  0  0  2  0  0  0  0  0  0
  160.3490  209.9930  152.9290 C   0  0  2  0  0  0  0  0  0  0  0  0
  162.6320  206.1620  151.9840 C   0  0  2  0  0  3  0  0  0  0  0  0
  161.9290  207.9380  148.7670 C   0  0  2  0  0  3  0  0  0  0  0  0
  162.8550  206.7440  148.4920 C   0  0  2  0  0  3  0  0  0  0  0  0
  159.8560  209.3710  154.0930 O   0  0  0  0  0  0  0  0  0  0  0  0
  159.8110  208.5940  152.9190 C   0  0  2  0  0  3  0  0  0  0  0  0
  160.1320  206.2680  153.3510 O   0  0  0  0  0  0  0  0  0  0  0  0
  159.5250  207.5290  149.1200 O   0  0  0  0  0  0  0  0  0  0  0  0
  159.5800  206.1580  149.4400 C   0  0  0  0  0  2  0  0  0  0  0  0
  160.4870  206.8480  146.9400 C   0  0  2  0  0  3  0  0  0  0  0  0
  159.2180  206.0010  146.9450 C   0  0  0  0  0  2  0  0  0  0  0  0
  159.0280  205.3080  148.2950 C   0  0  0  0  0  2  0  0  0  0  0  0
  160.5190  207.8140  148.1480 C   0  0  2  0  0  3  0  0  0  0  0  0
  160.5540  207.5730  145.7510 O   0  0  0  0  0  1  0  0  0  0  0  0
  158.0970  210.6680  152.4530 F   0  0  0  0  0  0  0  0  0  0  0  0
  159.3990  211.1430  152.5120 C   0  0  0  0  0  0  0  0  0  0  0  0
  159.7410  211.5930  151.2480 F   0  0  0  0  0  0  0  0  0  0  0  0
  159.4840  212.3110  153.5240 C   0  0  1  0  0  3  0  0  0  0  0  0
  159.9850  213.4630  152.9050 O   0  0  0  0  0  1  0  0  0  0  0  0
  158.1800  212.6270  154.3050 C   0  0  2  0  0  0  0  0  0  0  0  0
  157.0960  212.0360  153.6500 O   0  0  0  0  0  1  0  0  0  0  0  0
  156.7950  214.4340  155.0970 F   0  0  0  0  0  0  0  0  0  0  0  0
  157.9320  214.1380  154.3660 C   0  0  0  0  0  2  0  0  0  0  0  0
  158.2600  212.0560  155.7400 C   0  0  2  0  0  3  0  0  0  0  0  0
  159.7020  211.8030  156.1940 C   0  0  2  0  0  3  0  0  0  0  0  0
  159.7480  210.8270  157.1730 F   0  0  0  0  0  0  0  0  0  0  0  0
  160.2610  212.9840  156.6840 O   0  0  0  0  0  1  0  0  0  0  0  0
  157.5040  210.8800  155.8580 O   0  0  0  0  0  0  0  0  0  0  0  0
  155.7430  210.2270  154.5620 O   0  0  0  0  0  1  0  0  0  0  0  0
  156.2200  211.2180  155.4200 C   0  0  1  0  0  3  0  0  0  0  0  0
  155.1570  212.5740  157.2310 O   0  0  0  0  0  1  0  0  0  0  0  0
  155.3030  211.3510  156.5880 C   0  0  0  0  0  0  0  0  0  0  0  0
  154.6710  210.3450  157.0030 O   0  0  0  0  0  0  0  0  0  0  0  0
  162.7880  206.2490  147.0480 C   0  0  0  0  0  2  0  0  0  0  0  0
  162.0020  204.1540  148.1680 C   0  0  0  0  0  3  0  0  0  0  0  0
  161.3010  202.2220  146.8730 C   0  0  0  0  0  0  0  0  0  0  0  0
  162.0160  204.2530  145.7470 C   0  0  0  0  0  3  0  0  0  0  0  0
  161.5360  202.9410  145.6900 C   0  0  0  0  0  3  0  0  0  0  0  0
  161.5210  202.8430  148.1110 C   0  0  0  0  0  3  0  0  0  0  0  0
  162.2510  204.8600  146.9860 C   0  0  0  0  0  0  0  0  0  0  0  0
  160.7420  200.8330  146.8100 C   0  0  0  0  0  3  0  0  0  0  0  0
  161.8680  199.8100  146.7940 C   0  0  0  0  0  2  0  0  0  0  0  0
  161.0980  200.0590  148.0700 C   0  0  0  0  0  2  0  0  0  0  0  0
  2  9  1  0  0  0  0
  3 11  2  0  0  0  0
  4 11  1  0  0  0  0
  5 12  1  0  0  0  0
  6  8  1  6  0  0  0
  6 19  1  0  0  0  0
  7  1  1  0  0  0  0
  8 14  1  0  0  0  0
 10  2  1  0  0  0  0
 11 10  1  0  0  0  0
 13 28  1  6  0  0  0
 13  9  1  0  0  0  0
 13 17  1  0  0  0  0
 14  1  1  6  0  0  0
 14  5  1  0  0  0  0
 15  4  1  6  0  0  0
 16 46  1  6  0  0  0
 16 15  1  0  0  0  0
 16  7  1  0  0  0  0
 18 13  1  0  0  0  0
 18  6  1  0  0  0  0
 18 17  1  1  0  0  0
 19 12  1  0  0  0  0
 20 21  1  0  0  0  0
 22 26  1  6  0  0  0
 22 23  1  0  0  0  0
 22 25  1  0  0  0  0
 23 24  1  0  0  0  0
 24 21  1  0  0  0  0
 25 15  1  0  0  0  0
 25 20  1  1  0  0  0
 27 28  1  0  0  0  0
 28 30  1  0  0  0  0
 29 28  1  0  0  0  0
 30 31  1  6  0  0  0
 30 32  1  0  0  0  0
 32 33  1  6  0  0  0
 32 35  1  0  0  0  0
 32 36  1  0  0  0  0
 35 34  1  0  0  0  0
 36 40  1  6  0  0  0
 36 37  1  0  0  0  0
 37 39  1  1  0  0  0
 37 38  1  0  0  0  0
 42 41  1  6  0  0  0
 42 40  1  0  0  0  0
 42 44  1  0  0  0  0
 44 45  2  0  0  0  0
 44 43  1  0  0  0  0
 48 51  2  0  0  0  0
 49 52  1  0  0  0  0
 50 49  2  0  0  0  0
 50 48  1  0  0  0  0
 51 47  1  0  0  0  0
 52 46  1  0  0  0  0
 52 47  2  0  0  0  0
 53 48  1  0  0  0  0
 53 55  1  0  0  0  0
 54 53  1  0  0  0  0
 54 55  1  0  0  0  0
M  END
>  <MODEL>
5

>  <REMARK>
 VINA RESULT:      11.0      1.905      3.579
  Name = 
  13 active torsions:
  status: ('A' for Active; 'I' for Inactive)
    1  A    between atoms: C_1  and  C_53
    2  A    between atoms: C_6  and  C_14
    3  A    between atoms: C_6  and  C_20
    4  A    between atoms: C_6  and  C_53
    5  A    between atoms: C_8  and  C_20
    6  A    between atoms: C_8  and  C_43
    7  A    between atoms: C_10  and  C_32
    8  A    between atoms: C_11  and  C_29
    9  A    between atoms: C_11  and  O_38
   10  A    between atoms: C_26  and  C_45
   11  A    between atoms: C_33  and  C_49
   12  A    between atoms: C_33  and  C_52
   13  A    between atoms: O_38  and  C_53
                            x       y       z     vdW  Elec       q    Type
                         _______ _______ _______ _____ _____    ______ ____

>  <TORSDO>
F 13

$$$$
=
 OpenBabel11062408533D

 55 60  0  0  1  0  0  0  0  0999 V2000
  163.6590  205.6990  150.5820 C   0  0  0  0  0  2  0  0  0  0  0  0
  162.6220  210.7540  151.7050 C   0  0  0  0  0  2  0  0  0  0  0  0
  162.5620  211.3450  148.8520 C   0  0  0  0  0  2  0  0  0  0  0  0
  162.6770  209.0170  148.2180 C   0  0  0  0  0  2  0  0  0  0  0  0
  162.2150  204.7170  152.4190 C   0  0  0  0  0  2  0  0  0  0  0  0
  161.1020  207.2600  153.0240 C   0  0  1  0  0  3  0  0  0  0  0  0
  162.7700  205.4180  149.3780 C   0  0  0  0  0  2  0  0  0  0  0  0
  161.8510  207.0930  151.7040 C   0  0  0  0  0  2  0  0  0  0  0  0
  162.1100  210.0440  152.9540 C   0  0  0  0  0  2  0  0  0  0  0  0
  163.1140  209.7630  150.6580 C   0  0  0  0  0  2  0  0  0  0  0  0
  162.6110  210.0800  149.2710 C   0  0  0  0  0  0  0  0  0  0  0  0
  161.4260  205.1070  153.6700 C   0  0  0  0  0  2  0  0  0  0  0  0
  160.5960  209.7830  152.8990 C   0  0  2  0  0  0  0  0  0  0  0  0
  162.8750  205.9740  151.8630 C   0  0  2  0  0  3  0  0  0  0  0  0
  162.0040  207.7280  148.6760 C   0  0  2  0  0  3  0  0  0  0  0  0
  162.9290  206.5430  148.3630 C   0  0  2  0  0  3  0  0  0  0  0  0
  160.1640  209.1610  154.0870 O   0  0  0  0  0  0  0  0  0  0  0  0
  160.0730  208.3790  152.9190 C   0  0  2  0  0  3  0  0  0  0  0  0
  160.4400  206.0580  153.3450 O   0  0  0  0  0  0  0  0  0  0  0  0
  159.6630  207.0790  149.0920 O   0  0  0  0  0  0  0  0  0  0  0  0
  159.8370  205.6840  149.1920 C   0  0  0  0  0  2  0  0  0  0  0  0
  160.5240  206.8140  146.7840 C   0  0  2  0  0  3  0  0  0  0  0  0
  159.3220  205.8770  146.7260 C   0  0  0  0  0  2  0  0  0  0  0  0
  159.2710  204.9760  147.9610 C   0  0  0  0  0  2  0  0  0  0  0  0
  160.5680  207.5860  148.1230 C   0  0  2  0  0  3  0  0  0  0  0  0
  160.4600  207.7130  145.7200 O   0  0  0  0  0  1  0  0  0  0  0  0
  158.3900  210.3770  152.1680 F   0  0  0  0  0  0  0  0  0  0  0  0
  159.6150  210.9220  152.5230 C   0  0  0  0  0  0  0  0  0  0  0  0
  160.1020  211.6110  151.4250 F   0  0  0  0  0  0  0  0  0  0  0  0
  159.4300  211.8950  153.7120 C   0  0  1  0  0  3  0  0  0  0  0  0
  159.8220  213.1910  153.3530 O   0  0  0  0  0  1  0  0  0  0  0  0
  158.0220  211.9060  154.3650 C   0  0  2  0  0  0  0  0  0  0  0  0
  157.2710  210.8410  153.8590 O   0  0  0  0  0  1  0  0  0  0  0  0
  157.6890  213.7350  152.8300 F   0  0  0  0  0  0  0  0  0  0  0  0
  157.2800  213.2070  154.0420 C   0  0  0  0  0  2  0  0  0  0  0  0
  158.1380  211.7430  155.8980 C   0  0  2  0  0  3  0  0  0  0  0  0
  156.9110  212.2820  156.6420 C   0  0  2  0  0  3  0  0  0  0  0  0
  155.8420  211.4110  156.5300 F   0  0  0  0  0  0  0  0  0  0  0  0
  156.5530  213.5290  156.1310 O   0  0  0  0  0  1  0  0  0  0  0  0
  159.3030  212.3560  156.3840 O   0  0  0  0  0  0  0  0  0  0  0  0
  159.4850  210.1380  156.8920 O   0  0  0  0  0  1  0  0  0  0  0  0
  159.8730  211.4260  157.2600 C   0  0  1  0  0  3  0  0  0  0  0  0
  162.1440  210.3870  157.1600 O   0  0  0  0  0  0  0  0  0  0  0  0
  161.3600  211.5320  157.2160 C   0  0  0  0  0  0  0  0  0  0  0  0
  161.9060  212.6660  157.2450 O   0  0  0  0  0  1  0  0  0  0  0  0
  162.8010  206.0410  146.9250 C   0  0  0  0  0  2  0  0  0  0  0  0
  162.1790  203.9000  148.0600 C   0  0  0  0  0  3  0  0  0  0  0  0
  161.2080  202.0530  146.8170 C   0  0  0  0  0  0  0  0  0  0  0  0
  161.7570  204.1310  145.6860 C   0  0  0  0  0  3  0  0  0  0  0  0
  161.2430  202.8320  145.6510 C   0  0  0  0  0  3  0  0  0  0  0  0
  161.6640  202.6010  148.0260 C   0  0  0  0  0  3  0  0  0  0  0  0
  162.2280  204.6660  146.8910 C   0  0  0  0  0  0  0  0  0  0  0  0
  160.6140  200.6770  146.7870 C   0  0  0  0  0  3  0  0  0  0  0  0
  161.3820  199.7900  145.8190 C   0  0  0  0  0  2  0  0  0  0  0  0
  161.6120  199.6540  147.3060 C   0  0  0  0  0  2  0  0  0  0  0  0
  2  9  1  0  0  0  0
  3 11  2  0  0  0  0
  4 11  1  0  0  0  0
  5 12  1  0  0  0  0
  6  8  1  6  0  0  0
  6 19  1  0  0  0  0
  7  1  1  0  0  0  0
  8 14  1  0  0  0  0
 10  2  1  0  0  0  0
 11 10  1  0  0  0  0
 13 28  1  6  0  0  0
 13 18  1  0  0  0  0
 13  9  1  0  0  0  0
 13 17  1  0  0  0  0
 14  1  1  6  0  0  0
 14  5  1  0  0  0  0
 15  4  1  6  0  0  0
 16 46  1  6  0  0  0
 16 15  1  0  0  0  0
 16  7  1  0  0  0  0
 18  6  1  0  0  0  0
 18 17  1  1  0  0  0
 19 12  1  0  0  0  0
 20 21  1  0  0  0  0
 22 26  1  6  0  0  0
 22 25  1  0  0  0  0
 23 22  1  0  0  0  0
 23 24  1  0  0  0  0
 24 21  1  0  0  0  0
 25 15  1  0  0  0  0
 25 20  1  1  0  0  0
 27 28  1  0  0  0  0
 28 30  1  0  0  0  0
 29 28  1  0  0  0  0
 30 31  1  6  0  0  0
 30 32  1  0  0  0  0
 32 33  1  6  0  0  0
 32 36  1  0  0  0  0
 34 35  1  0  0  0  0
 35 32  1  0  0  0  0
 36 40  1  1  0  0  0
 36 37  1  0  0  0  0
 37 39  1  6  0  0  0
 38 37  1  0  0  0  0
 40 42  1  0  0  0  0
 42 41  1  6  0  0  0
 43 44  2  0  0  0  0
 44 45  1  0  0  0  0
 44 42  1  0  0  0  0
 48 51  2  0  0  0  0
 49 52  1  0  0  0  0
 50 49  2  0  0  0  0
 50 48  1  0  0  0  0
 51 47  1  0  0  0  0
 52 46  1  0  0  0  0
 52 47  2  0  0  0  0
 53 48  1  0  0  0  0
 53 55  1  0  0  0  0
 54 53  1  0  0  0  0
 54 55  1  0  0  0  0
M  END
>  <MODEL>
6

>  <REMARK>
 VINA RESULT:      11.1      2.069      3.985
  Name = 
  13 active torsions:
  status: ('A' for Active; 'I' for Inactive)
    1  A    between atoms: C_1  and  C_53
    2  A    between atoms: C_6  and  C_14
    3  A    between atoms: C_6  and  C_20
    4  A    between atoms: C_6  and  C_53
    5  A    between atoms: C_8  and  C_20
    6  A    between atoms: C_8  and  C_43
    7  A    between atoms: C_10  and  C_32
    8  A    between atoms: C_11  and  C_29
    9  A    between atoms: C_11  and  O_38
   10  A    between atoms: C_26  and  C_45
   11  A    between atoms: C_33  and  C_49
   12  A    between atoms: C_33  and  C_52
   13  A    between atoms: O_38  and  C_53
                            x       y       z     vdW  Elec       q    Type
                         _______ _______ _______ _____ _____    ______ ____

>  <TORSDO>
F 13

$$$$
