=
 OpenBabel11062410453D

 32 36  0  0  1  0  0  0  0  0999 V2000
  161.5380  207.3320  149.5870 C   0  0  0  0  0  0  0  0  0  0  0  0
  161.2940  203.8450  152.9920 C   0  0  0  0  0  3  0  0  0  0  0  0
  161.1190  202.9140  152.0440 C   0  0  0  0  0  3  0  0  0  0  0  0
  161.5900  206.7310  147.1220 C   0  0  2  0  0  3  0  0  0  0  0  0
  160.9360  205.6910  146.2270 C   0  0  1  0  0  3  0  0  0  0  0  0
  161.6560  209.7840  150.2330 C   0  0  2  0  0  3  0  0  0  0  0  0
  161.4870  208.0200  152.0450 C   0  0  0  0  0  2  0  0  0  0  0  0
  161.0530  203.5920  145.3850 C   0  0  0  0  0  0  0  0  0  0  0  0
  160.8700  205.2690  152.7490 C   0  0  0  0  0  2  0  0  0  0  0  0
  161.4010  206.9810  150.9520 C   0  0  0  0  0  0  0  0  0  0  0  0
  161.0790  205.6580  151.3030 C   0  0  0  0  0  0  0  0  0  0  0  0
  161.0360  205.0130  148.9510 C   0  0  0  0  0  0  0  0  0  0  0  0
  160.8510  204.5290  144.2470 C   0  0  0  0  0  2  0  0  0  0  0  0
  162.1600  209.3240  151.6070 C   0  0  2  0  0  3  0  0  0  0  0  0
  161.1280  205.8640  144.7900 N   0  0  0  0  0  2  0  0  0  0  0  0
  160.4960  203.2810  150.7230 C   0  0  0  0  0  2  0  0  0  0  0  0
  160.8950  204.6790  150.3070 C   0  0  0  0  0  0  0  0  0  0  0  0
  160.7480  203.9550  147.8940 C   0  0  0  0  0  2  0  0  0  0  0  0
  161.9730  208.7220  149.1870 C   0  0  0  0  0  2  0  0  0  0  0  0
  162.9600  206.8110  146.8560 O   0  0  0  0  0  1  0  0  0  0  0  0
  160.9800  202.3760  145.3000 O   0  0  0  0  0  0  0  0  0  0  0  0
  161.3670  206.3540  148.5850 C   0  0  0  0  0  0  0  0  0  0  0  0
  161.4390  204.3280  146.5960 C   0  0  2  0  0  3  0  0  0  0  0  0
  162.0030  211.4450  148.3430 C   0  0  0  0  0  1  0  0  0  0  0  0
  162.2370  211.1370  149.8150 C   0  0  0  0  0  2  0  0  0  0  0  0
  162.0980  210.3260  152.6040 O   0  0  0  0  0  0  0  0  0  0  0  0
  160.8840  210.2090  153.3020 C   0  0  0  0  0  2  0  0  0  0  0  0
  161.1400  210.3540  154.7870 C   0  0  0  0  0  2  0  0  0  0  0  0
  160.0280  209.7830  155.5270 N   0  0  0  0  0  2  0  0  0  0  0  0
  160.5570  208.6870  156.3200 C   0  0  1  0  0  3  0  0  0  0  0  0
  160.1120  207.3710  155.7190 C   0  0  0  0  0  1  0  0  0  0  0  0
  161.9510  208.7420  156.3300 O   0  0  0  0  0  1  0  0  0  0  0  0
  1 10  1  0  0  0  0
  3  2  2  0  0  0  0
  4 20  1  6  0  0  0
  4 22  1  0  0  0  0
  5 15  1  6  0  0  0
  5 23  1  0  0  0  0
  5  4  1  0  0  0  0
  6 25  1  6  0  0  0
  6 14  1  0  0  0  0
  8 23  1  0  0  0  0
  9  2  1  0  0  0  0
 10 11  2  0  0  0  0
 10  7  1  0  0  0  0
 11  9  1  0  0  0  0
 12 17  2  0  0  0  0
 13 15  1  0  0  0  0
 13  8  1  0  0  0  0
 14  7  1  0  0  0  0
 14 26  1  1  0  0  0
 16  3  1  0  0  0  0
 17 16  1  0  0  0  0
 17 11  1  0  0  0  0
 18 12  1  0  0  0  0
 19  1  1  0  0  0  0
 19  6  1  0  0  0  0
 21  8  2  0  0  0  0
 22 12  1  0  0  0  0
 22  1  2  0  0  0  0
 23 18  1  1  0  0  0
 24 25  1  0  0  0  0
 26 27  1  0  0  0  0
 27 28  1  0  0  0  0
 28 29  1  0  0  0  0
 29 30  1  0  0  0  0
 30 31  1  6  0  0  0
 30 32  1  0  0  0  0
M  END
>  <MODEL>
1

>  <REMARK>
 VINA RESULT:      -8.7      0.000      0.000
  Name = 
  6 active torsions:
  status: ('A' for Active; 'I' for Inactive)
    1  A    between atoms: C_1  and  N_10
    2  A    between atoms: C_2  and  O_12
    3  A    between atoms: C_2  and  C_24
    4  A    between atoms: C_8  and  C_23
    5  A    between atoms: N_10  and  C_24
    6  A    between atoms: O_12  and  C_21
                            x       y       z     vdW  Elec       q    Type
                         _______ _______ _______ _____ _____    ______ ____

>  <TORSDO>
F 6

$$$$
=
 OpenBabel11062410453D

 32 36  0  0  1  0  0  0  0  0999 V2000
  161.0900  206.1020  151.3780 C   0  0  0  0  0  0  0  0  0  0  0  0
  162.3670  209.8930  148.5830 C   0  0  0  0  0  3  0  0  0  0  0  0
  162.2740  210.7170  149.6350 C   0  0  0  0  0  3  0  0  0  0  0  0
  160.8570  206.3700  153.8910 C   0  0  2  0  0  3  0  0  0  0  0  0
  160.3460  207.4380  154.8430 C   0  0  1  0  0  3  0  0  0  0  0  0
  160.6820  203.8100  150.3660 C   0  0  2  0  0  3  0  0  0  0  0  0
  161.3010  205.7520  148.8580 C   0  0  0  0  0  2  0  0  0  0  0  0
  160.8510  209.3050  156.0220 C   0  0  0  0  0  0  0  0  0  0  0  0
  161.5520  208.6280  148.5310 C   0  0  0  0  0  2  0  0  0  0  0  0
  161.2940  206.6370  150.0820 C   0  0  0  0  0  0  0  0  0  0  0  0
  161.3930  208.0280  149.9090 C   0  0  0  0  0  0  0  0  0  0  0  0
  161.1010  208.3770  152.3050 C   0  0  0  0  0  0  0  0  0  0  0  0
  160.2150  208.3360  156.9540 C   0  0  0  0  0  2  0  0  0  0  0  0
  161.5240  204.2690  149.1680 C   0  0  2  0  0  3  0  0  0  0  0  0
  160.2280  207.0510  156.2460 N   0  0  0  0  0  2  0  0  0  0  0  0
  161.3530  210.3870  150.7800 C   0  0  0  0  0  2  0  0  0  0  0  0
  161.2950  208.8950  151.0160 C   0  0  0  0  0  0  0  0  0  0  0  0
  160.9140  209.3410  153.4700 C   0  0  0  0  0  2  0  0  0  0  0  0
  161.0720  204.6100  151.6040 C   0  0  0  0  0  2  0  0  0  0  0  0
  162.0900  205.8760  154.3280 O   0  0  0  0  0  1  0  0  0  0  0  0
  161.0820  210.4730  156.2920 O   0  0  0  0  0  0  0  0  0  0  0  0
  161.0030  206.9640  152.4920 C   0  0  0  0  0  0  0  0  0  0  0  0
  161.2420  208.6380  154.7730 C   0  0  2  0  0  3  0  0  0  0  0  0
  160.0180  201.4680  149.6440 C   0  0  0  0  0  1  0  0  0  0  0  0
  160.8090  202.3090  150.6360 C   0  0  0  0  0  2  0  0  0  0  0  0
  161.3830  203.4490  148.0230 O   0  0  0  0  0  0  0  0  0  0  0  0
  161.8400  204.1500  146.8940 C   0  0  0  0  0  2  0  0  0  0  0  0
  161.5430  203.3450  145.6470 C   0  0  0  0  0  2  0  0  0  0  0  0
  160.6060  204.0760  144.8120 N   0  0  0  0  0  2  0  0  0  0  0  0
  161.0770  205.4490  144.7380 C   0  0  1  0  0  3  0  0  0  0  0  0
  161.4840  205.7650  143.3150 C   0  0  0  0  0  1  0  0  0  0  0  0
  160.0580  206.3180  145.1310 O   0  0  0  0  0  1  0  0  0  0  0  0
  1 19  1  0  0  0  0
  1 22  1  0  0  0  0
  2  3  2  0  0  0  0
  3 16  1  0  0  0  0
  4 20  1  1  0  0  0
  4  5  1  0  0  0  0
  5 15  1  1  0  0  0
  6 25  1  1  0  0  0
  6 19  1  0  0  0  0
  7 14  1  0  0  0  0
  7 10  1  0  0  0  0
  8 21  2  0  0  0  0
  8 13  1  0  0  0  0
  9  2  1  0  0  0  0
  9 11  1  0  0  0  0
 10  1  2  0  0  0  0
 11 10  1  0  0  0  0
 11 17  2  0  0  0  0
 12 22  2  0  0  0  0
 12 18  1  0  0  0  0
 14 26  1  6  0  0  0
 14  6  1  0  0  0  0
 15 13  1  0  0  0  0
 16 17  1  0  0  0  0
 17 12  1  0  0  0  0
 22  4  1  0  0  0  0
 23 18  1  6  0  0  0
 23  5  1  0  0  0  0
 23  8  1  0  0  0  0
 24 25  1  0  0  0  0
 27 26  1  0  0  0  0
 28 27  1  0  0  0  0
 29 28  1  0  0  0  0
 30 31  1  6  0  0  0
 30 29  1  0  0  0  0
 30 32  1  0  0  0  0
M  END
>  <MODEL>
2

>  <REMARK>
 VINA RESULT:      -8.4      1.599      8.669
  Name = 
  6 active torsions:
  status: ('A' for Active; 'I' for Inactive)
    1  A    between atoms: C_1  and  N_10
    2  A    between atoms: C_2  and  O_12
    3  A    between atoms: C_2  and  C_24
    4  A    between atoms: C_8  and  C_23
    5  A    between atoms: N_10  and  C_24
    6  A    between atoms: O_12  and  C_21
                            x       y       z     vdW  Elec       q    Type
                         _______ _______ _______ _____ _____    ______ ____

>  <TORSDO>
F 6

$$$$
=
 OpenBabel11062410453D

 32 36  0  0  1  0  0  0  0  0999 V2000
  161.5180  207.4780  149.6320 C   0  0  0  0  0  0  0  0  0  0  0  0
  161.2620  204.1100  153.1530 C   0  0  0  0  0  3  0  0  0  0  0  0
  161.1120  203.1440  152.2360 C   0  0  0  0  0  3  0  0  0  0  0  0
  161.6130  206.7920  147.1910 C   0  0  2  0  0  3  0  0  0  0  0  0
  160.9830  205.7140  146.3220 C   0  0  1  0  0  3  0  0  0  0  0  0
  161.5990  209.9530  150.1930 C   0  0  2  0  0  3  0  0  0  0  0  0
  161.4230  208.2500  152.0630 C   0  0  0  0  0  2  0  0  0  0  0  0
  161.1360  203.5880  145.5570 C   0  0  0  0  0  0  0  0  0  0  0  0
  160.8250  205.5190  152.8540 C   0  0  0  0  0  2  0  0  0  0  0  0
  161.3640  207.1730  151.0060 C   0  0  0  0  0  0  0  0  0  0  0  0
  161.0520  205.8600  151.3980 C   0  0  0  0  0  0  0  0  0  0  0  0
  161.0510  205.1330  149.0700 C   0  0  0  0  0  0  0  0  0  0  0  0
  160.9410  204.4830  144.3840 C   0  0  0  0  0  2  0  0  0  0  0  0
  162.0870  209.5470  151.5890 C   0  0  2  0  0  3  0  0  0  0  0  0
  161.1950  205.8380  144.8830 N   0  0  0  0  0  2  0  0  0  0  0  0
  160.5050  203.4570  150.8940 C   0  0  0  0  0  2  0  0  0  0  0  0
  160.8940  204.8450  150.4350 C   0  0  0  0  0  0  0  0  0  0  0  0
  160.7900  204.0350  148.0460 C   0  0  0  0  0  2  0  0  0  0  0  0
  161.9430  208.8580  149.1890 C   0  0  0  0  0  2  0  0  0  0  0  0
  162.9860  206.8780  146.9410 O   0  0  0  0  0  1  0  0  0  0  0  0
  161.0790  202.3700  145.5140 O   0  0  0  0  0  0  0  0  0  0  0  0
  161.3730  206.4640  148.6620 C   0  0  0  0  0  0  0  0  0  0  0  0
  161.4960  204.3710  146.7460 C   0  0  2  0  0  3  0  0  0  0  0  0
  162.1180  211.4720  148.2250 C   0  0  0  0  0  1  0  0  0  0  0  0
  162.1700  211.2970  149.7360 C   0  0  0  0  0  2  0  0  0  0  0  0
  161.9990  210.5820  152.5490 O   0  0  0  0  0  0  0  0  0  0  0  0
  161.8400  210.0170  153.8260 C   0  0  0  0  0  2  0  0  0  0  0  0
  160.9380  210.9010  154.6600 C   0  0  0  0  0  2  0  0  0  0  0  0
  159.5650  210.4460  154.5340 N   0  0  0  0  0  2  0  0  0  0  0  0
  158.7770  211.5790  154.0770 C   0  0  1  0  0  3  0  0  0  0  0  0
  158.7260  211.5790  152.5650 C   0  0  0  0  0  1  0  0  0  0  0  0
  157.4790  211.4840  154.5830 O   0  0  0  0  0  1  0  0  0  0  0  0
  1 10  1  0  0  0  0
  3  2  2  0  0  0  0
  4 20  1  1  0  0  0
  4 22  1  0  0  0  0
  5 15  1  6  0  0  0
  5 23  1  0  0  0  0
  5  4  1  0  0  0  0
  6 25  1  6  0  0  0
  6 14  1  0  0  0  0
  8 23  1  0  0  0  0
  9  2  1  0  0  0  0
 10 11  2  0  0  0  0
 10  7  1  0  0  0  0
 11  9  1  0  0  0  0
 12 17  2  0  0  0  0
 13 15  1  0  0  0  0
 13  8  1  0  0  0  0
 14  7  1  0  0  0  0
 14 26  1  1  0  0  0
 16  3  1  0  0  0  0
 17 16  1  0  0  0  0
 17 11  1  0  0  0  0
 18 12  1  0  0  0  0
 19  1  1  0  0  0  0
 19  6  1  0  0  0  0
 21  8  2  0  0  0  0
 22 12  1  0  0  0  0
 22  1  2  0  0  0  0
 23 18  1  1  0  0  0
 24 25  1  0  0  0  0
 26 27  1  0  0  0  0
 27 28  1  0  0  0  0
 29 28  1  0  0  0  0
 30 31  1  6  0  0  0
 30 29  1  0  0  0  0
 30 32  1  0  0  0  0
M  END
>  <MODEL>
3

>  <REMARK>
 VINA RESULT:      -8.3      1.184      1.591
  Name = 
  6 active torsions:
  status: ('A' for Active; 'I' for Inactive)
    1  A    between atoms: C_1  and  N_10
    2  A    between atoms: C_2  and  O_12
    3  A    between atoms: C_2  and  C_24
    4  A    between atoms: C_8  and  C_23
    5  A    between atoms: N_10  and  C_24
    6  A    between atoms: O_12  and  C_21
                            x       y       z     vdW  Elec       q    Type
                         _______ _______ _______ _____ _____    ______ ____

>  <TORSDO>
F 6

$$$$
=
 OpenBabel11062410453D

 32 36  0  0  1  0  0  0  0  0999 V2000
  161.1350  206.5270  150.3790 C   0  0  0  0  0  0  0  0  0  0  0  0
  161.5580  202.0550  152.2850 C   0  0  0  0  0  3  0  0  0  0  0  0
  161.5100  201.5140  151.0600 C   0  0  0  0  0  3  0  0  0  0  0  0
  161.2120  206.8740  147.8670 C   0  0  2  0  0  3  0  0  0  0  0  0
  160.7100  206.1380  146.6360 C   0  0  1  0  0  3  0  0  0  0  0  0
  160.8720  208.5640  151.8710 C   0  0  2  0  0  3  0  0  0  0  0  0
  161.0440  206.2620  152.9170 C   0  0  0  0  0  2  0  0  0  0  0  0
  161.1410  204.5330  145.0970 C   0  0  0  0  0  0  0  0  0  0  0  0
  160.9010  203.3810  152.5590 C   0  0  0  0  0  2  0  0  0  0  0  0
  161.0960  205.6890  151.5200 C   0  0  0  0  0  0  0  0  0  0  0  0
  161.0030  204.2950  151.3590 C   0  0  0  0  0  0  0  0  0  0  0  0
  160.9970  204.5460  148.9330 C   0  0  0  0  0  0  0  0  0  0  0  0
  160.7580  205.7720  144.3680 C   0  0  0  0  0  2  0  0  0  0  0  0
  161.4830  207.7260  153.0010 C   0  0  2  0  0  3  0  0  0  0  0  0
  160.8300  206.8460  145.3650 N   0  0  0  0  0  2  0  0  0  0  0  0
  160.7970  202.2280  149.9410 C   0  0  0  0  0  2  0  0  0  0  0  0
  160.9520  203.7270  150.0710 C   0  0  0  0  0  0  0  0  0  0  0  0
  160.8540  203.9100  147.5560 C   0  0  0  0  0  2  0  0  0  0  0  0
  161.3270  208.0180  150.5220 C   0  0  0  0  0  2  0  0  0  0  0  0
  162.5430  207.2650  147.6920 O   0  0  0  0  0  1  0  0  0  0  0  0
  161.2650  203.4350  144.5770 O   0  0  0  0  0  0  0  0  0  0  0  0
  161.0960  205.9630  149.0870 C   0  0  0  0  0  0  0  0  0  0  0  0
  161.4380  204.8340  146.5030 C   0  0  2  0  0  3  0  0  0  0  0  0
  160.0740  210.8680  152.5830 C   0  0  0  0  0  1  0  0  0  0  0  0
  161.2130  210.0520  151.9890 C   0  0  0  0  0  2  0  0  0  0  0  0
  161.2880  208.2760  154.2900 O   0  0  0  0  0  0  0  0  0  0  0  0
  160.7010  207.3080  155.1220 C   0  0  0  0  0  2  0  0  0  0  0  0
  159.7830  207.9860  156.1160 C   0  0  0  0  0  2  0  0  0  0  0  0
  160.5750  208.5820  157.1770 N   0  0  0  0  0  2  0  0  0  0  0  0
  160.2640  210.0010  157.2020 C   0  0  1  0  0  3  0  0  0  0  0  0
  161.4770  210.7900  156.7580 C   0  0  0  0  0  1  0  0  0  0  0  0
  159.2000  210.2650  156.3370 O   0  0  0  0  0  1  0  0  0  0  0  0
  1 19  1  0  0  0  0
  1 10  1  0  0  0  0
  2  9  1  0  0  0  0
  3  2  2  0  0  0  0
  4 20  1  6  0  0  0
  4 22  1  0  0  0  0
  5 15  1  6  0  0  0
  5  4  1  0  0  0  0
  6 25  1  1  0  0  0
  6 14  1  0  0  0  0
  7 14  1  0  0  0  0
  8 23  1  0  0  0  0
 10  7  1  0  0  0  0
 11 10  2  0  0  0  0
 11  9  1  0  0  0  0
 12 22  1  0  0  0  0
 12 17  2  0  0  0  0
 13  8  1  0  0  0  0
 13 15  1  0  0  0  0
 14 26  1  1  0  0  0
 16 17  1  0  0  0  0
 16  3  1  0  0  0  0
 17 11  1  0  0  0  0
 18 12  1  0  0  0  0
 19  6  1  0  0  0  0
 21  8  2  0  0  0  0
 22  1  2  0  0  0  0
 23  5  1  0  0  0  0
 23 18  1  1  0  0  0
 25 24  1  0  0  0  0
 26 27  1  0  0  0  0
 27 28  1  0  0  0  0
 28 29  1  0  0  0  0
 29 30  1  0  0  0  0
 30 31  1  6  0  0  0
 32 30  1  0  0  0  0
M  END
>  <MODEL>
4

>  <REMARK>
 VINA RESULT:      -8.2      1.477      2.041
  Name = 
  6 active torsions:
  status: ('A' for Active; 'I' for Inactive)
    1  A    between atoms: C_1  and  N_10
    2  A    between atoms: C_2  and  O_12
    3  A    between atoms: C_2  and  C_24
    4  A    between atoms: C_8  and  C_23
    5  A    between atoms: N_10  and  C_24
    6  A    between atoms: O_12  and  C_21
                            x       y       z     vdW  Elec       q    Type
                         _______ _______ _______ _____ _____    ______ ____

>  <TORSDO>
F 6

$$$$
=
 OpenBabel11062410453D

 32 36  0  0  1  0  0  0  0  0999 V2000
  161.1240  206.1950  151.3600 C   0  0  0  0  0  0  0  0  0  0  0  0
  162.3760  210.0670  148.6670 C   0  0  0  0  0  3  0  0  0  0  0  0
  162.2720  210.8630  149.7390 C   0  0  0  0  0  3  0  0  0  0  0  0
  160.8800  206.3970  153.8780 C   0  0  2  0  0  3  0  0  0  0  0  0
  160.3550  207.4360  154.8550 C   0  0  1  0  0  3  0  0  0  0  0  0
  160.7410  203.9260  150.2890 C   0  0  2  0  0  3  0  0  0  0  0  0
  161.3470  205.9110  148.8330 C   0  0  0  0  0  2  0  0  0  0  0  0
  160.8390  209.2770  156.0830 C   0  0  0  0  0  0  0  0  0  0  0  0
  161.5730  208.7970  148.5800 C   0  0  0  0  0  2  0  0  0  0  0  0
  161.3280  206.7640  150.0790 C   0  0  0  0  0  0  0  0  0  0  0  0
  161.4150  208.1600  149.9420 C   0  0  0  0  0  0  0  0  0  0  0  0
  161.1110  208.4460  152.3450 C   0  0  0  0  0  0  0  0  0  0  0  0
  160.2080  208.2780  156.9880 C   0  0  0  0  0  2  0  0  0  0  0  0
  161.5830  204.4220  149.1060 C   0  0  2  0  0  3  0  0  0  0  0  0
  160.2360  207.0120  156.2470 N   0  0  0  0  0  2  0  0  0  0  0  0
  161.3490  210.4960  150.8720 C   0  0  0  0  0  2  0  0  0  0  0  0
  161.3040  208.9970  151.0690 C   0  0  0  0  0  0  0  0  0  0  0  0
  160.9110  209.3780  153.5330 C   0  0  0  0  0  2  0  0  0  0  0  0
  161.1190  204.6970  151.5480 C   0  0  0  0  0  2  0  0  0  0  0  0
  162.1150  205.9030  154.3070 O   0  0  0  0  0  1  0  0  0  0  0  0
  161.0580  210.4400  156.3830 O   0  0  0  0  0  0  0  0  0  0  0  0
  161.0250  207.0270  152.4950 C   0  0  0  0  0  0  0  0  0  0  0  0
  161.2410  208.6450  154.8190 C   0  0  2  0  0  3  0  0  0  0  0  0
  160.0340  201.5990  149.5580 C   0  0  0  0  0  1  0  0  0  0  0  0
  160.8800  202.4200  150.5210 C   0  0  0  0  0  2  0  0  0  0  0  0
  161.4530  203.6310  147.9400 O   0  0  0  0  0  0  0  0  0  0  0  0
  161.9050  204.3660  146.8300 C   0  0  0  0  0  2  0  0  0  0  0  0
  161.3460  203.7570  145.5620 C   0  0  0  0  0  2  0  0  0  0  0  0
  161.2190  202.3200  145.7310 N   0  0  0  0  0  2  0  0  0  0  0  0
  159.8980  201.9460  145.2550 C   0  0  1  0  0  3  0  0  0  0  0  0
  159.4100  202.9790  144.2620 C   0  0  0  0  0  1  0  0  0  0  0  0
  159.9580  200.6990  144.6310 O   0  0  0  0  0  1  0  0  0  0  0  0
  1 19  1  0  0  0  0
  1 22  1  0  0  0  0
  2  3  2  0  0  0  0
  3 16  1  0  0  0  0
  4 20  1  1  0  0  0
  4  5  1  0  0  0  0
  5 15  1  1  0  0  0
  6 25  1  1  0  0  0
  6 19  1  0  0  0  0
  7 14  1  0  0  0  0
  7 10  1  0  0  0  0
  8 21  2  0  0  0  0
  8 13  1  0  0  0  0
  9  2  1  0  0  0  0
  9 11  1  0  0  0  0
 10  1  2  0  0  0  0
 11 10  1  0  0  0  0
 11 17  2  0  0  0  0
 12 22  2  0  0  0  0
 12 18  1  0  0  0  0
 14 26  1  6  0  0  0
 14  6  1  0  0  0  0
 15 13  1  0  0  0  0
 16 17  1  0  0  0  0
 17 12  1  0  0  0  0
 22  4  1  0  0  0  0
 23 18  1  6  0  0  0
 23  5  1  0  0  0  0
 23  8  1  0  0  0  0
 24 25  1  0  0  0  0
 27 26  1  0  0  0  0
 28 29  1  0  0  0  0
 28 27  1  0  0  0  0
 30 31  1  6  0  0  0
 30 29  1  0  0  0  0
 32 30  1  0  0  0  0
M  END
>  <MODEL>
5

>  <REMARK>
 VINA RESULT:      -8.1      1.694      8.824
  Name = 
  6 active torsions:
  status: ('A' for Active; 'I' for Inactive)
    1  A    between atoms: C_1  and  N_10
    2  A    between atoms: C_2  and  O_12
    3  A    between atoms: C_2  and  C_24
    4  A    between atoms: C_8  and  C_23
    5  A    between atoms: N_10  and  C_24
    6  A    between atoms: O_12  and  C_21
                            x       y       z     vdW  Elec       q    Type
                         _______ _______ _______ _____ _____    ______ ____

>  <TORSDO>
F 6

$$$$
=
 OpenBabel11062410453D

 32 36  0  0  1  0  0  0  0  0999 V2000
  161.2620  206.8100  152.5770 C   0  0  0  0  0  0  0  0  0  0  0  0
  161.9110  210.3080  149.2370 C   0  0  0  0  0  3  0  0  0  0  0  0
  161.9240  209.3900  148.2600 C   0  0  0  0  0  3  0  0  0  0  0  0
  160.8400  204.4100  151.8690 C   0  0  2  0  0  3  0  0  0  0  0  0
  161.3320  203.4800  150.7720 C   0  0  1  0  0  3  0  0  0  0  0  0
  161.2990  207.3480  155.0570 C   0  0  2  0  0  3  0  0  0  0  0  0
  161.6850  209.1990  153.3690 C   0  0  0  0  0  2  0  0  0  0  0  0
  161.0430  202.7650  148.6420 C   0  0  0  0  0  0  0  0  0  0  0  0
  162.3310  209.9380  150.6340 C   0  0  0  0  0  2  0  0  0  0  0  0
  161.5870  208.1570  152.2810 C   0  0  0  0  0  0  0  0  0  0  0  0
  161.9240  208.5200  150.9660 C   0  0  0  0  0  0  0  0  0  0  0  0
  161.6110  206.2200  150.2170 C   0  0  0  0  0  0  0  0  0  0  0  0
  161.1010  201.5670  149.5220 C   0  0  0  0  0  2  0  0  0  0  0  0
  160.9880  208.8000  154.6740 C   0  0  2  0  0  3  0  0  0  0  0  0
  160.9380  202.0790  150.8870 N   0  0  0  0  0  2  0  0  0  0  0  0
  162.3580  207.9770  148.5490 C   0  0  0  0  0  2  0  0  0  0  0  0
  161.9380  207.5560  149.9390 C   0  0  0  0  0  0  0  0  0  0  0  0
  161.7170  205.1840  149.1050 C   0  0  0  0  0  2  0  0  0  0  0  0
  160.8080  206.4100  153.9600 C   0  0  0  0  0  2  0  0  0  0  0  0
  159.4480  204.3390  151.9800 O   0  0  0  0  0  1  0  0  0  0  0  0
  161.0730  202.7300  147.4220 O   0  0  0  0  0  0  0  0  0  0  0  0
  161.2620  205.8410  151.5510 C   0  0  0  0  0  0  0  0  0  0  0  0
  160.8550  203.9830  149.4420 C   0  0  2  0  0  3  0  0  0  0  0  0
  159.1750  206.9540  156.3930 C   0  0  0  0  0  1  0  0  0  0  0  0
  160.6970  206.9530  156.4080 C   0  0  0  0  0  2  0  0  0  0  0  0
  161.2180  209.7290  155.7160 O   0  0  0  0  0  0  0  0  0  0  0  0
  161.4340  211.0020  155.1620 C   0  0  0  0  0  2  0  0  0  0  0  0
  160.3820  211.9610  155.6780 C   0  0  0  0  0  2  0  0  0  0  0  0
  159.1720  211.8230  154.8880 N   0  0  0  0  0  2  0  0  0  0  0  0
  159.4430  212.4010  153.5820 C   0  0  1  0  0  3  0  0  0  0  0  0
  158.9560  211.4570  152.5040 C   0  0  0  0  0  1  0  0  0  0  0  0
  158.7770  213.6220  153.4620 O   0  0  0  0  0  1  0  0  0  0  0  0
  1 19  1  0  0  0  0
  2  9  1  0  0  0  0
  3 16  1  0  0  0  0
  3  2  2  0  0  0  0
  4 20  1  6  0  0  0
  5 15  1  1  0  0  0
  5  4  1  0  0  0  0
  6 25  1  1  0  0  0
  7 14  1  0  0  0  0
  8 23  1  0  0  0  0
  8 13  1  0  0  0  0
  9 11  1  0  0  0  0
 10  1  1  0  0  0  0
 10  7  1  0  0  0  0
 11 10  2  0  0  0  0
 12 22  1  0  0  0  0
 13 15  1  0  0  0  0
 14  6  1  0  0  0  0
 14 26  1  1  0  0  0
 16 17  1  0  0  0  0
 17 12  2  0  0  0  0
 17 11  1  0  0  0  0
 18 12  1  0  0  0  0
 19  6  1  0  0  0  0
 21  8  2  0  0  0  0
 22  4  1  0  0  0  0
 22  1  2  0  0  0  0
 23 18  1  6  0  0  0
 23  5  1  0  0  0  0
 24 25  1  0  0  0  0
 27 28  1  0  0  0  0
 27 26  1  0  0  0  0
 29 28  1  0  0  0  0
 30 31  1  6  0  0  0
 30 29  1  0  0  0  0
 32 30  1  0  0  0  0
M  END
>  <MODEL>
6

>  <REMARK>
 VINA RESULT:      -7.3      2.356      4.929
  Name = 
  6 active torsions:
  status: ('A' for Active; 'I' for Inactive)
    1  A    between atoms: C_1  and  N_10
    2  A    between atoms: C_2  and  O_12
    3  A    between atoms: C_2  and  C_24
    4  A    between atoms: C_8  and  C_23
    5  A    between atoms: N_10  and  C_24
    6  A    between atoms: O_12  and  C_21
                            x       y       z     vdW  Elec       q    Type
                         _______ _______ _______ _____ _____    ______ ____

>  <TORSDO>
F 6

$$$$
=
 OpenBabel11062410453D

 32 36  0  0  1  0  0  0  0  0999 V2000
  161.3730  209.8530  151.1240 C   0  0  0  0  0  0  0  0  0  0  0  0
  161.2140  205.4500  149.0260 C   0  0  0  0  0  3  0  0  0  0  0  0
  161.0670  204.8700  150.2250 C   0  0  0  0  0  3  0  0  0  0  0  0
  160.9080  210.1210  153.6040 C   0  0  2  0  0  3  0  0  0  0  0  0
  161.2070  209.3390  154.8730 C   0  0  1  0  0  3  0  0  0  0  0  0
  161.8810  211.9330  149.7600 C   0  0  2  0  0  3  0  0  0  0  0  0
  161.8550  209.6680  148.6240 C   0  0  0  0  0  2  0  0  0  0  0  0
  160.5270  207.6920  156.2710 C   0  0  0  0  0  0  0  0  0  0  0  0
  161.9170  206.7760  148.9020 C   0  0  0  0  0  2  0  0  0  0  0  0
  161.5820  209.0510  149.9750 C   0  0  0  0  0  0  0  0  0  0  0  0
  161.6370  207.6520  150.1020 C   0  0  0  0  0  0  0  0  0  0  0  0
  161.2670  207.8250  152.5060 C   0  0  0  0  0  0  0  0  0  0  0  0
  160.8030  208.9020  157.0920 C   0  0  0  0  0  2  0  0  0  0  0  0
  161.4470  211.1400  148.5210 C   0  0  2  0  0  3  0  0  0  0  0  0
  160.8960  210.0080  156.1320 N   0  0  0  0  0  2  0  0  0  0  0  0
  161.6020  205.5380  151.4640 C   0  0  0  0  0  2  0  0  0  0  0  0
  161.4830  207.0420  151.3620 C   0  0  0  0  0  0  0  0  0  0  0  0
  161.1880  207.1440  153.8670 C   0  0  0  0  0  2  0  0  0  0  0  0
  161.2180  211.3500  151.0030 C   0  0  0  0  0  2  0  0  0  0  0  0
  159.5700  210.5240  153.5830 O   0  0  0  0  0  1  0  0  0  0  0  0
  160.3150  206.5800  156.7290 O   0  0  0  0  0  0  0  0  0  0  0  0
  161.2050  209.2480  152.3870 C   0  0  0  0  0  0  0  0  0  0  0  0
  160.4560  208.0410  154.8460 C   0  0  2  0  0  3  0  0  0  0  0  0
  160.1390  213.7630  150.0160 C   0  0  0  0  0  1  0  0  0  0  0  0
  161.5750  213.4280  149.6410 C   0  0  0  0  0  2  0  0  0  0  0  0
  161.8450  211.7280  147.2970 O   0  0  0  0  0  0  0  0  0  0  0  0
  160.7080  212.2030  146.6210 C   0  0  0  0  0  2  0  0  0  0  0  0
  161.1320  213.1860  145.5510 C   0  0  0  0  0  2  0  0  0  0  0  0
  160.9950  212.5670  144.2450 N   0  0  0  0  0  2  0  0  0  0  0  0
  162.0370  213.1190  143.3950 C   0  0  1  0  0  3  0  0  0  0  0  0
  163.2940  213.3260  144.2120 C   0  0  0  0  0  1  0  0  0  0  0  0
  162.3070  212.2370  142.3480 O   0  0  0  0  0  1  0  0  0  0  0  0
  1 22  1  0  0  0  0
  2  3  2  0  0  0  0
  3 16  1  0  0  0  0
  4 20  1  1  0  0  0
  4  5  1  0  0  0  0
  5 15  1  1  0  0  0
  6 25  1  6  0  0  0
  6 19  1  0  0  0  0
  7 10  1  0  0  0  0
  8 21  2  0  0  0  0
  8 13  1  0  0  0  0
  9  2  1  0  0  0  0
  9 11  1  0  0  0  0
 10 11  1  0  0  0  0
 10  1  2  0  0  0  0
 11 17  2  0  0  0  0
 12 18  1  0  0  0  0
 14 26  1  6  0  0  0
 14  7  1  0  0  0  0
 14  6  1  0  0  0  0
 15 13  1  0  0  0  0
 17 16  1  0  0  0  0
 17 12  1  0  0  0  0
 19  1  1  0  0  0  0
 22 12  2  0  0  0  0
 22  4  1  0  0  0  0
 23 18  1  6  0  0  0
 23  5  1  0  0  0  0
 23  8  1  0  0  0  0
 25 24  1  0  0  0  0
 27 26  1  0  0  0  0
 28 27  1  0  0  0  0
 29 28  1  0  0  0  0
 30 31  1  1  0  0  0
 30 29  1  0  0  0  0
 32 30  1  0  0  0  0
M  END
>  <MODEL>
7

>  <REMARK>
 VINA RESULT:      -6.0      2.894      7.946
  Name = 
  6 active torsions:
  status: ('A' for Active; 'I' for Inactive)
    1  A    between atoms: C_1  and  N_10
    2  A    between atoms: C_2  and  O_12
    3  A    between atoms: C_2  and  C_24
    4  A    between atoms: C_8  and  C_23
    5  A    between atoms: N_10  and  C_24
    6  A    between atoms: O_12  and  C_21
                            x       y       z     vdW  Elec       q    Type
                         _______ _______ _______ _____ _____    ______ ____

>  <TORSDO>
F 6

$$$$
=
 OpenBabel11062410453D

 32 36  0  0  1  0  0  0  0  0999 V2000
  161.6610  205.5520  148.7340 C   0  0  0  0  0  0  0  0  0  0  0  0
  160.0630  201.8870  151.5310 C   0  0  0  0  0  3  0  0  0  0  0  0
  160.0810  202.6840  152.6070 C   0  0  0  0  0  3  0  0  0  0  0  0
  161.8640  207.9010  149.6730 C   0  0  2  0  0  3  0  0  0  0  0  0
  162.2770  208.5290  150.9940 C   0  0  1  0  0  3  0  0  0  0  0  0
  162.2710  205.1700  146.2990 C   0  0  2  0  0  3  0  0  0  0  0  0
  161.4880  203.2180  147.7150 C   0  0  0  0  0  2  0  0  0  0  0  0
  161.6060  209.1870  153.0550 C   0  0  0  0  0  0  0  0  0  0  0  0
  160.9860  202.1520  150.3720 C   0  0  0  0  0  2  0  0  0  0  0  0
  161.4140  204.1660  148.8880 C   0  0  0  0  0  0  0  0  0  0  0  0
  161.1940  203.6360  150.1720 C   0  0  0  0  0  0  0  0  0  0  0  0
  161.4480  205.8500  151.1630 C   0  0  0  0  0  0  0  0  0  0  0  0
  162.3230  210.3270  152.4230 C   0  0  0  0  0  2  0  0  0  0  0  0
  161.3950  203.9110  146.3520 C   0  0  2  0  0  3  0  0  0  0  0  0
  162.4240  209.9820  151.0010 N   0  0  0  0  0  2  0  0  0  0  0  0
  161.0250  203.8560  152.6710 C   0  0  0  0  0  2  0  0  0  0  0  0
  161.2130  204.4740  151.3040 C   0  0  0  0  0  0  0  0  0  0  0  0
  161.5470  206.7170  152.4120 C   0  0  0  0  0  2  0  0  0  0  0  0
  161.8090  206.1620  147.3600 C   0  0  0  0  0  2  0  0  0  0  0  0
  160.6780  208.4780  149.2080 O   0  0  0  0  0  1  0  0  0  0  0  0
  161.2730  209.1450  154.2290 O   0  0  0  0  0  0  0  0  0  0  0  0
  161.6690  206.3990  149.8620 C   0  0  0  0  0  0  0  0  0  0  0  0
  161.2790  208.1650  152.0520 C   0  0  2  0  0  3  0  0  0  0  0  0
  160.8730  206.0960  144.3920 C   0  0  0  0  0  1  0  0  0  0  0  0
  162.2760  205.8270  144.9170 C   0  0  0  0  0  2  0  0  0  0  0  0
  161.6110  203.0190  145.2760 O   0  0  0  0  0  0  0  0  0  0  0  0
  160.3820  202.4590  144.8860 C   0  0  0  0  0  2  0  0  0  0  0  0
  160.0820  201.2510  145.7460 C   0  0  0  0  0  2  0  0  0  0  0  0
  160.3400  200.0400  144.9870 N   0  0  0  0  0  2  0  0  0  0  0  0
  161.4410  199.3500  145.6370 C   0  0  1  0  0  3  0  0  0  0  0  0
  161.5590  199.8280  147.0680 C   0  0  0  0  0  1  0  0  0  0  0  0
  161.2050  197.9750  145.6270 O   0  0  0  0  0  1  0  0  0  0  0  0
  1 10  2  0  0  0  0
  1 22  1  0  0  0  0
  2  3  2  0  0  0  0
  3 16  1  0  0  0  0
  4 20  1  1  0  0  0
  4 22  1  0  0  0  0
  4  5  1  0  0  0  0
  5 15  1  6  0  0  0
  5 23  1  0  0  0  0
  6 25  1  6  0  0  0
  6 14  1  0  0  0  0
  6 19  1  0  0  0  0
  7 10  1  0  0  0  0
  8 21  2  0  0  0  0
  9  2  1  0  0  0  0
 10 11  1  0  0  0  0
 11  9  1  0  0  0  0
 11 17  2  0  0  0  0
 12 17  1  0  0  0  0
 12 18  1  0  0  0  0
 13  8  1  0  0  0  0
 14 26  1  6  0  0  0
 14  7  1  0  0  0  0
 15 13  1  0  0  0  0
 17 16  1  0  0  0  0
 19  1  1  0  0  0  0
 22 12  2  0  0  0  0
 23 18  1  1  0  0  0
 23  8  1  0  0  0  0
 24 25  1  0  0  0  0
 27 26  1  0  0  0  0
 27 28  1  0  0  0  0
 29 30  1  0  0  0  0
 29 28  1  0  0  0  0
 30 31  1  1  0  0  0
 32 30  1  0  0  0  0
M  END
>  <MODEL>
8

>  <REMARK>
 VINA RESULT:      -5.8      2.304      7.873
  Name = 
  6 active torsions:
  status: ('A' for Active; 'I' for Inactive)
    1  A    between atoms: C_1  and  N_10
    2  A    between atoms: C_2  and  O_12
    3  A    between atoms: C_2  and  C_24
    4  A    between atoms: C_8  and  C_23
    5  A    between atoms: N_10  and  C_24
    6  A    between atoms: O_12  and  C_21
                            x       y       z     vdW  Elec       q    Type
                         _______ _______ _______ _____ _____    ______ ____

>  <TORSDO>
F 6

$$$$
