=
 OpenBabel11062410203D

 43 47  0  0  1  0  0  0  0  0999 V2000
  158.5660  213.2320  152.4490 C   0  0  0  0  0  0  0  0  0  0  0  0
  160.2350  210.9790  152.6400 C   0  0  0  0  0  0  0  0  0  0  0  0
  156.3070  213.4450  154.1120 C   0  0  0  0  0  0  0  0  0  0  0  0
  157.1330  212.3120  154.2130 C   0  0  0  0  0  0  0  0  0  0  0  0
  155.1870  213.5820  154.9250 O   0  0  0  0  0  1  0  0  0  0  0  0
  159.1120  211.0870  153.4570 C   0  0  0  0  0  3  0  0  0  0  0  0
  158.2660  212.2020  153.3780 C   0  0  0  0  0  0  0  0  0  0  0  0
  157.7240  214.3500  152.3710 C   0  0  0  0  0  3  0  0  0  0  0  0
  159.7060  213.1240  151.6260 C   0  0  0  0  0  0  0  0  0  0  0  0
  160.5330  212.0010  151.7300 C   0  0  0  0  0  3  0  0  0  0  0  0
  156.6040  214.4530  153.1950 C   0  0  0  0  0  3  0  0  0  0  0  0
  161.1250  209.7870  152.7930 C   0  0  1  0  0  3  0  0  0  0  0  0
  161.4130  209.4840  154.2550 C   0  0  0  0  0  1  0  0  0  0  0  0
  160.5300  208.5740  152.0940 C   0  0  0  0  0  2  0  0  0  0  0  0
  161.2560  207.3300  152.4940 C   0  0  0  0  0  0  0  0  0  0  0  0
  160.9240  206.7270  153.5020 O   0  0  0  0  0  0  0  0  0  0  0  0
  162.3560  206.7890  151.6180 C   0  0  0  0  0  2  0  0  0  0  0  0
  161.9240  205.7500  150.6660 N   0  0  0  0  0  0  0  0  0  0  0  0
  161.4300  203.7660  151.9970 C   0  0  0  0  0  2  0  0  0  0  0  0
  160.8450  204.9410  151.2310 C   0  0  0  0  0  3  0  0  0  0  0  0
  160.8620  203.5550  150.6110 C   0  0  0  0  0  2  0  0  0  0  0  0
  161.4000  206.4570  149.1600 S   0  0  0  0  0  0  0  0  0  0  0  0
  159.8980  206.5350  149.1150 O   0  0  0  0  0  0  0  0  0  0  0  0
  161.9720  207.8420  149.0200 O   0  0  0  0  0  0  0  0  0  0  0  0
  161.9680  205.4500  147.8040 C   0  0  0  0  0  3  0  0  0  0  0  0
  162.0010  205.5380  145.2380 C   0  0  0  0  0  2  0  0  0  0  0  0
  161.5110  203.3700  146.4420 C   0  0  0  0  0  2  0  0  0  0  0  0
  162.3980  204.0750  145.4050 C   0  0  0  0  0  2  0  0  0  0  0  0
  160.9900  204.3060  147.5410 C   0  0  0  0  0  2  0  0  0  0  0  0
  162.1760  206.3130  146.5510 C   0  0  0  0  0  2  0  0  0  0  0  0
  160.0500  214.1740  150.6120 C   0  0  0  0  0  2  0  0  0  0  0  0
  160.9540  212.6050  147.2810 C   0  0  0  0  0  3  0  0  0  0  0  0
  159.7270  212.6520  146.6100 C   0  0  0  0  0  0  0  0  0  0  0  0
  158.7070  213.6710  148.5580 C   0  0  0  0  0  3  0  0  0  0  0  0
  161.0590  213.0950  148.5850 C   0  0  0  0  0  3  0  0  0  0  0  0
  159.9340  213.6280  149.2270 C   0  0  0  0  0  0  0  0  0  0  0  0
  158.6020  213.1820  147.2520 C   0  0  0  0  0  3  0  0  0  0  0  0
  159.6130  212.1170  145.2250 C   0  0  0  0  0  2  0  0  0  0  0  0
  159.9810  213.1880  144.2170 C   0  0  0  0  0  1  0  0  0  0  0  0
  156.7850  211.2330  155.2020 C   0  0  0  0  0  2  0  0  0  0  0  0
  157.0840  211.6680  156.6300 C   0  0  0  0  0  2  0  0  0  0  0  0
  158.5280  211.8400  156.8290 C   0  0  0  0  0  0  0  0  0  0  0  0
  159.7140  211.9800  156.9920 C   0  0  0  0  0  3  0  0  0  0  0  0
  1  7  1  0  0  0  0
  2 12  1  0  0  0  0
  2  6  1  0  0  0  0
  3  4  2  0  0  0  0
  3  5  1  0  0  0  0
  4 40  1  0  0  0  0
  7  6  2  0  0  0  0
  7  4  1  0  0  0  0
  8  1  1  0  0  0  0
  8 11  2  0  0  0  0
  9 10  1  0  0  0  0
  9  1  2  0  0  0  0
 10  2  2  0  0  0  0
 11  3  1  0  0  0  0
 12 13  1  1  0  0  0
 14 15  1  0  0  0  0
 14 12  1  0  0  0  0
 15 16  2  0  0  0  0
 17 15  1  0  0  0  0
 18 20  1  0  0  0  0
 18 17  1  0  0  0  0
 20 19  1  0  0  0  0
 21 20  1  0  0  0  0
 21 19  1  0  0  0  0
 22 18  1  0  0  0  0
 23 22  2  0  0  0  0
 24 22  2  0  0  0  0
 25 22  1  0  0  0  0
 26 28  1  0  0  0  0
 26 30  1  0  0  0  0
 27 29  1  0  0  0  0
 28 27  1  0  0  0  0
 29 25  1  0  0  0  0
 30 25  1  0  0  0  0
 31  9  1  0  0  0  0
 32 35  1  0  0  0  0
 33 37  1  0  0  0  0
 33 32  2  0  0  0  0
 34 36  1  0  0  0  0
 35 36  2  0  0  0  0
 36 31  1  0  0  0  0
 37 34  2  0  0  0  0
 38 33  1  0  0  0  0
 39 38  1  0  0  0  0
 40 41  1  0  0  0  0
 41 42  1  0  0  0  0
 42 43  3  0  0  0  0
M  END
>  <MODEL>
1

>  <REMARK>
 VINA RESULT:      -7.3      0.000      0.000
  Name = 
  14 active torsions:
  status: ('A' for Active; 'I' for Inactive)
    1  A    between atoms: C_1  and  C_34
    2  A    between atoms: C_1  and  C_35
    3  A    between atoms: C_2  and  C_6
    4  A    between atoms: C_2  and  C_13
    5  A    between atoms: C_3  and  N_4
    6  A    between atoms: C_3  and  C_12
    7  A    between atoms: N_4  and  S_14
    8  A    between atoms: N_4  and  C_15
    9  A    between atoms: C_5  and  C_18
   10  A    between atoms: C_6  and  C_12
   11  A    between atoms: C_11  and  S_14
   12  A    between atoms: C_18  and  C_24
   13  A    between atoms: C_19  and  C_25
   14  A    between atoms: C_21  and  C_24
                            x       y       z     vdW  Elec       q    Type
                         _______ _______ _______ _____ _____    ______ ____

>  <TORSDO>
F 14

$$$$
=
 OpenBabel11062410203D

 43 47  0  0  1  0  0  0  0  0999 V2000
  157.9750  213.3100  152.9200 C   0  0  0  0  0  0  0  0  0  0  0  0
  159.9640  211.3490  152.6090 C   0  0  0  0  0  0  0  0  0  0  0  0
  156.2670  213.2300  155.1540 C   0  0  0  0  0  0  0  0  0  0  0  0
  157.2560  212.2420  155.0060 C   0  0  0  0  0  0  0  0  0  0  0  0
  155.4120  213.2210  156.2510 O   0  0  0  0  0  1  0  0  0  0  0  0
  159.1110  211.3110  153.7110 C   0  0  0  0  0  3  0  0  0  0  0  0
  158.1130  212.2790  153.8850 C   0  0  0  0  0  0  0  0  0  0  0  0
  156.9790  214.2820  153.0930 C   0  0  0  0  0  3  0  0  0  0  0  0
  158.8420  213.3510  151.8080 C   0  0  0  0  0  0  0  0  0  0  0  0
  159.8300  212.3730  151.6640 C   0  0  0  0  0  3  0  0  0  0  0  0
  156.1330  214.2400  154.2000 C   0  0  0  0  0  3  0  0  0  0  0  0
  161.0370  210.3140  152.4940 C   0  0  1  0  0  3  0  0  0  0  0  0
  161.9370  210.2970  153.7190 C   0  0  0  0  0  1  0  0  0  0  0  0
  160.4380  208.9390  152.2410 C   0  0  0  0  0  2  0  0  0  0  0  0
  161.5010  207.8890  152.2780 C   0  0  0  0  0  0  0  0  0  0  0  0
  161.6850  207.2420  153.2970 O   0  0  0  0  0  0  0  0  0  0  0  0
  162.3030  207.5880  151.0380 C   0  0  0  0  0  2  0  0  0  0  0  0
  161.6270  207.9350  149.7750 N   0  0  0  0  0  0  0  0  0  0  0  0
  162.1230  210.2960  149.4090 C   0  0  0  0  0  2  0  0  0  0  0  0
  162.4350  208.8690  148.9910 C   0  0  0  0  0  3  0  0  0  0  0  0
  161.5320  209.7370  148.1340 C   0  0  0  0  0  2  0  0  0  0  0  0
  161.2970  206.5080  148.8280 S   0  0  0  0  0  0  0  0  0  0  0  0
  159.8920  206.5520  148.2910 O   0  0  0  0  0  0  0  0  0  0  0  0
  162.2640  206.4230  147.6780 O   0  0  0  0  0  0  0  0  0  0  0  0
  161.4790  205.0620  149.8540 C   0  0  0  0  0  3  0  0  0  0  0  0
  160.7900  202.5890  149.8140 C   0  0  0  0  0  2  0  0  0  0  0  0
  160.6950  203.9140  151.9640 C   0  0  0  0  0  2  0  0  0  0  0  0
  161.2430  202.6600  151.2690 C   0  0  0  0  0  2  0  0  0  0  0  0
  160.4870  205.1010  151.0140 C   0  0  0  0  0  2  0  0  0  0  0  0
  161.3130  203.7880  149.0120 C   0  0  0  0  0  2  0  0  0  0  0  0
  158.7180  214.4050  150.7490 C   0  0  0  0  0  2  0  0  0  0  0  0
  160.4260  213.2570  147.5650 C   0  0  0  0  0  3  0  0  0  0  0  0
  159.3410  212.7700  146.8290 C   0  0  0  0  0  0  0  0  0  0  0  0
  157.8550  213.3290  148.6590 C   0  0  0  0  0  3  0  0  0  0  0  0
  160.2260  213.7840  148.8430 C   0  0  0  0  0  3  0  0  0  0  0  0
  158.9380  213.8200  149.3930 C   0  0  0  0  0  0  0  0  0  0  0  0
  158.0550  212.8020  147.3790 C   0  0  0  0  0  3  0  0  0  0  0  0
  159.5580  212.1950  145.4720 C   0  0  0  0  0  2  0  0  0  0  0  0
  160.8210  212.7660  144.8570 C   0  0  0  0  0  1  0  0  0  0  0  0
  157.3720  211.1570  156.0420 C   0  0  0  0  0  2  0  0  0  0  0  0
  158.3420  211.5450  157.1500 C   0  0  0  0  0  2  0  0  0  0  0  0
  159.5090  210.6560  157.1550 C   0  0  0  0  0  0  0  0  0  0  0  0
  160.4680  209.9250  157.1610 C   0  0  0  0  0  3  0  0  0  0  0  0
  1  8  1  0  0  0  0
  1  7  1  0  0  0  0
  2  6  1  0  0  0  0
  3  5  1  0  0  0  0
  4  3  2  0  0  0  0
  4 40  1  0  0  0  0
  6  7  2  0  0  0  0
  7  4  1  0  0  0  0
  8 11  2  0  0  0  0
  9  1  2  0  0  0  0
 10  9  1  0  0  0  0
 10  2  2  0  0  0  0
 11  3  1  0  0  0  0
 12  2  1  0  0  0  0
 12 13  1  1  0  0  0
 14 15  1  0  0  0  0
 14 12  1  0  0  0  0
 15 16  2  0  0  0  0
 17 15  1  0  0  0  0
 18 17  1  0  0  0  0
 20 19  1  0  0  0  0
 20 18  1  0  0  0  0
 21 20  1  0  0  0  0
 21 19  1  0  0  0  0
 22 18  1  0  0  0  0
 22 25  1  0  0  0  0
 23 22  2  0  0  0  0
 24 22  2  0  0  0  0
 25 29  1  0  0  0  0
 26 28  1  0  0  0  0
 28 27  1  0  0  0  0
 29 27  1  0  0  0  0
 30 26  1  0  0  0  0
 30 25  1  0  0  0  0
 31  9  1  0  0  0  0
 32 35  1  0  0  0  0
 33 37  1  0  0  0  0
 33 32  2  0  0  0  0
 34 36  1  0  0  0  0
 35 36  2  0  0  0  0
 36 31  1  0  0  0  0
 37 34  2  0  0  0  0
 38 33  1  0  0  0  0
 39 38  1  0  0  0  0
 40 41  1  0  0  0  0
 41 42  1  0  0  0  0
 42 43  3  0  0  0  0
M  END
>  <MODEL>
2

>  <REMARK>
 VINA RESULT:      -7.1      1.468      2.596
  Name = 
  14 active torsions:
  status: ('A' for Active; 'I' for Inactive)
    1  A    between atoms: C_1  and  C_34
    2  A    between atoms: C_1  and  C_35
    3  A    between atoms: C_2  and  C_6
    4  A    between atoms: C_2  and  C_13
    5  A    between atoms: C_3  and  N_4
    6  A    between atoms: C_3  and  C_12
    7  A    between atoms: N_4  and  S_14
    8  A    between atoms: N_4  and  C_15
    9  A    between atoms: C_5  and  C_18
   10  A    between atoms: C_6  and  C_12
   11  A    between atoms: C_11  and  S_14
   12  A    between atoms: C_18  and  C_24
   13  A    between atoms: C_19  and  C_25
   14  A    between atoms: C_21  and  C_24
                            x       y       z     vdW  Elec       q    Type
                         _______ _______ _______ _____ _____    ______ ____

>  <TORSDO>
F 14

$$$$
=
 OpenBabel11062410203D

 43 47  0  0  1  0  0  0  0  0999 V2000
  161.2740  204.7380  151.4270 C   0  0  0  0  0  0  0  0  0  0  0  0
  161.8660  207.1380  150.0890 C   0  0  0  0  0  0  0  0  0  0  0  0
  160.6610  202.4250  149.9470 C   0  0  0  0  0  0  0  0  0  0  0  0
  160.9520  203.6210  149.2680 C   0  0  0  0  0  0  0  0  0  0  0  0
  160.3610  201.2640  149.2440 O   0  0  0  0  0  1  0  0  0  0  0  0
  161.5570  205.9910  149.3610 C   0  0  0  0  0  3  0  0  0  0  0  0
  161.2580  204.7840  150.0090 C   0  0  0  0  0  0  0  0  0  0  0  0
  160.9790  203.5320  152.0770 C   0  0  0  0  0  3  0  0  0  0  0  0
  161.5920  205.8990  152.1630 C   0  0  0  0  0  0  0  0  0  0  0  0
  161.8890  207.0870  151.4880 C   0  0  0  0  0  3  0  0  0  0  0  0
  160.6740  202.3870  151.3420 C   0  0  0  0  0  3  0  0  0  0  0  0
  162.2160  208.3890  149.3470 C   0  0  1  0  0  3  0  0  0  0  0  0
  162.2120  208.1710  147.8430 C   0  0  0  0  0  1  0  0  0  0  0  0
  161.2820  209.5260  149.7340 C   0  0  0  0  0  2  0  0  0  0  0  0
  161.8270  210.8350  149.2610 C   0  0  0  0  0  0  0  0  0  0  0  0
  162.6960  211.4030  149.9030 O   0  0  0  0  0  0  0  0  0  0  0  0
  161.3460  211.4210  147.9580 C   0  0  0  0  0  2  0  0  0  0  0  0
  161.1980  212.8870  147.9660 N   0  0  0  0  0  0  0  0  0  0  0  0
  163.5690  213.0860  147.4300 C   0  0  0  0  0  2  0  0  0  0  0  0
  162.1590  213.5130  147.0590 C   0  0  0  0  0  3  0  0  0  0  0  0
  163.0630  214.4520  147.8360 C   0  0  0  0  0  2  0  0  0  0  0  0
  159.5780  213.3570  147.5190 S   0  0  0  0  0  0  0  0  0  0  0  0
  159.6180  214.4520  146.4890 O   0  0  0  0  0  0  0  0  0  0  0  0
  158.8410  212.1720  146.9540 O   0  0  0  0  0  0  0  0  0  0  0  0
  158.7140  213.9500  148.9610 C   0  0  0  0  0  3  0  0  0  0  0  0
  158.7210  213.5420  151.4960 C   0  0  0  0  0  2  0  0  0  0  0  0
  156.5430  213.8580  150.2510 C   0  0  0  0  0  2  0  0  0  0  0  0
  157.4240  214.3410  151.4130 C   0  0  0  0  0  2  0  0  0  0  0  0
  157.3430  213.2880  149.0720 C   0  0  0  0  0  2  0  0  0  0  0  0
  159.5590  213.7110  150.2220 C   0  0  0  0  0  2  0  0  0  0  0  0
  161.5960  205.9070  153.6620 C   0  0  0  0  0  2  0  0  0  0  0  0
  160.5860  209.5480  153.9660 C   0  0  0  0  0  3  0  0  0  0  0  0
  159.9140  209.5480  155.1930 C   0  0  0  0  0  0  0  0  0  0  0  0
  160.3210  207.1690  155.4090 C   0  0  0  0  0  3  0  0  0  0  0  0
  161.1290  208.3630  153.4640 C   0  0  0  0  0  3  0  0  0  0  0  0
  160.9960  207.1700  154.1850 C   0  0  0  0  0  0  0  0  0  0  0  0
  159.7770  208.3550  155.9130 C   0  0  0  0  0  3  0  0  0  0  0  0
  159.3220  210.8080  155.7210 C   0  0  0  0  0  2  0  0  0  0  0  0
  159.7940  211.9930  154.8990 C   0  0  0  0  0  1  0  0  0  0  0  0
  160.9200  203.6400  147.7640 C   0  0  0  0  0  2  0  0  0  0  0  0
  162.3250  203.6830  147.1770 C   0  0  0  0  0  2  0  0  0  0  0  0
  162.4090  204.6790  146.1030 C   0  0  0  0  0  0  0  0  0  0  0  0
  162.4770  205.4980  145.2210 C   0  0  0  0  0  3  0  0  0  0  0  0
  1  8  1  0  0  0  0
  1  9  1  0  0  0  0
  2 10  1  0  0  0  0
  3 11  1  0  0  0  0
  4  3  2  0  0  0  0
  4  7  1  0  0  0  0
  5  3  1  0  0  0  0
  6  7  1  0  0  0  0
  6  2  2  0  0  0  0
  7  1  2  0  0  0  0
  9 31  1  0  0  0  0
 10  9  2  0  0  0  0
 11  8  2  0  0  0  0
 12 13  1  6  0  0  0
 12 14  1  0  0  0  0
 12  2  1  0  0  0  0
 15 14  1  0  0  0  0
 15 16  2  0  0  0  0
 17 18  1  0  0  0  0
 17 15  1  0  0  0  0
 19 21  1  0  0  0  0
 20 19  1  0  0  0  0
 20 21  1  0  0  0  0
 20 18  1  0  0  0  0
 22 18  1  0  0  0  0
 22 25  1  0  0  0  0
 23 22  2  0  0  0  0
 24 22  2  0  0  0  0
 25 29  1  0  0  0  0
 25 30  1  0  0  0  0
 27 28  1  0  0  0  0
 28 26  1  0  0  0  0
 29 27  1  0  0  0  0
 30 26  1  0  0  0  0
 31 36  1  0  0  0  0
 32 33  1  0  0  0  0
 33 38  1  0  0  0  0
 33 37  2  0  0  0  0
 34 37  1  0  0  0  0
 35 32  2  0  0  0  0
 35 36  1  0  0  0  0
 36 34  2  0  0  0  0
 39 38  1  0  0  0  0
 40  4  1  0  0  0  0
 41 40  1  0  0  0  0
 42 41  1  0  0  0  0
 43 42  3  0  0  0  0
M  END
>  <MODEL>
3

>  <REMARK>
 VINA RESULT:      -7.1      3.013      9.543
  Name = 
  14 active torsions:
  status: ('A' for Active; 'I' for Inactive)
    1  A    between atoms: C_1  and  C_34
    2  A    between atoms: C_1  and  C_35
    3  A    between atoms: C_2  and  C_6
    4  A    between atoms: C_2  and  C_13
    5  A    between atoms: C_3  and  N_4
    6  A    between atoms: C_3  and  C_12
    7  A    between atoms: N_4  and  S_14
    8  A    between atoms: N_4  and  C_15
    9  A    between atoms: C_5  and  C_18
   10  A    between atoms: C_6  and  C_12
   11  A    between atoms: C_11  and  S_14
   12  A    between atoms: C_18  and  C_24
   13  A    between atoms: C_19  and  C_25
   14  A    between atoms: C_21  and  C_24
                            x       y       z     vdW  Elec       q    Type
                         _______ _______ _______ _____ _____    ______ ____

>  <TORSDO>
F 14

$$$$
=
 OpenBabel11062410203D

 43 47  0  0  1  0  0  0  0  0999 V2000
  160.3570  211.6320  152.8890 C   0  0  0  0  0  0  0  0  0  0  0  0
  161.7290  209.8480  151.2040 C   0  0  0  0  0  0  0  0  0  0  0  0
  160.0680  211.0340  155.6230 C   0  0  0  0  0  0  0  0  0  0  0  0
  160.7530  210.1330  154.7880 C   0  0  0  0  0  0  0  0  0  0  0  0
  159.9160  210.7700  156.9790 O   0  0  0  0  0  1  0  0  0  0  0  0
  161.5780  209.5540  152.5590 C   0  0  0  0  0  3  0  0  0  0  0  0
  160.8970  210.4300  153.4150 C   0  0  0  0  0  0  0  0  0  0  0  0
  159.6780  212.5100  153.7450 C   0  0  0  0  0  3  0  0  0  0  0  0
  160.5140  211.9300  151.5190 C   0  0  0  0  0  0  0  0  0  0  0  0
  161.2010  211.0390  150.6900 C   0  0  0  0  0  3  0  0  0  0  0  0
  159.5350  212.2120  155.0990 C   0  0  0  0  0  3  0  0  0  0  0  0
  162.4990  208.8980  150.3430 C   0  0  1  0  0  3  0  0  0  0  0  0
  162.4510  207.4800  150.8880 C   0  0  0  0  0  1  0  0  0  0  0  0
  161.9990  208.9460  148.9070 C   0  0  0  0  0  2  0  0  0  0  0  0
  161.4910  207.6050  148.4850 C   0  0  0  0  0  0  0  0  0  0  0  0
  160.4780  207.1480  148.9910 O   0  0  0  0  0  0  0  0  0  0  0  0
  162.1950  206.8460  147.3900 C   0  0  0  0  0  2  0  0  0  0  0  0
  161.3940  205.7690  146.7800 N   0  0  0  0  0  0  0  0  0  0  0  0
  159.4660  205.9670  145.2970 C   0  0  0  0  0  2  0  0  0  0  0  0
  160.9710  206.1350  145.4290 C   0  0  0  0  0  3  0  0  0  0  0  0
  160.3960  204.9210  144.7230 C   0  0  0  0  0  2  0  0  0  0  0  0
  162.2890  204.2730  146.7290 S   0  0  0  0  0  0  0  0  0  0  0  0
  161.9600  203.5110  145.4740 O   0  0  0  0  0  0  0  0  0  0  0  0
  163.7650  204.5600  146.7610 O   0  0  0  0  0  0  0  0  0  0  0  0
  161.8560  203.2760  148.1430 C   0  0  0  0  0  3  0  0  0  0  0  0
  160.0480  201.5780  148.8040 C   0  0  0  0  0  2  0  0  0  0  0  0
  160.8530  203.3080  150.4620 C   0  0  0  0  0  2  0  0  0  0  0  0
  160.6380  201.8110  150.1910 C   0  0  0  0  0  2  0  0  0  0  0  0
  161.1460  204.1240  149.1960 C   0  0  0  0  0  2  0  0  0  0  0  0
  160.9960  202.0810  147.7070 C   0  0  0  0  0  2  0  0  0  0  0  0
  159.9380  213.1740  150.9110 C   0  0  0  0  0  2  0  0  0  0  0  0
  159.3820  213.1740  147.1610 C   0  0  0  0  0  3  0  0  0  0  0  0
  160.6960  213.2350  146.6860 C   0  0  0  0  0  0  0  0  0  0  0  0
  161.5130  213.2780  148.9670 C   0  0  0  0  0  3  0  0  0  0  0  0
  159.1340  213.1600  148.5360 C   0  0  0  0  0  3  0  0  0  0  0  0
  160.2000  213.2130  149.4420 C   0  0  0  0  0  0  0  0  0  0  0  0
  161.7630  213.2920  147.5910 C   0  0  0  0  0  3  0  0  0  0  0  0
  160.9590  213.2650  145.2200 C   0  0  0  0  0  2  0  0  0  0  0  0
  160.0330  212.3030  144.5020 C   0  0  0  0  0  1  0  0  0  0  0  0
  161.3090  208.8640  155.3750 C   0  0  0  0  0  2  0  0  0  0  0  0
  160.2980  207.7270  155.3030 C   0  0  0  0  0  2  0  0  0  0  0  0
  160.7650  206.6730  154.3960 C   0  0  0  0  0  0  0  0  0  0  0  0
  161.1490  205.8050  153.6510 C   0  0  0  0  0  3  0  0  0  0  0  0
  1  7  1  0  0  0  0
  1  8  1  0  0  0  0
  2  6  1  0  0  0  0
  3  5  1  0  0  0  0
  4 40  1  0  0  0  0
  4  3  2  0  0  0  0
  6  7  2  0  0  0  0
  7  4  1  0  0  0  0
  8 11  2  0  0  0  0
  9  1  2  0  0  0  0
 10  2  2  0  0  0  0
 10  9  1  0  0  0  0
 11  3  1  0  0  0  0
 12 13  1  1  0  0  0
 12  2  1  0  0  0  0
 14 12  1  0  0  0  0
 15 14  1  0  0  0  0
 15 16  2  0  0  0  0
 17 15  1  0  0  0  0
 18 17  1  0  0  0  0
 19 20  1  0  0  0  0
 20 18  1  0  0  0  0
 21 19  1  0  0  0  0
 21 20  1  0  0  0  0
 22 24  2  0  0  0  0
 22 18  1  0  0  0  0
 22 25  1  0  0  0  0
 23 22  2  0  0  0  0
 25 29  1  0  0  0  0
 26 28  1  0  0  0  0
 28 27  1  0  0  0  0
 29 27  1  0  0  0  0
 30 25  1  0  0  0  0
 30 26  1  0  0  0  0
 31  9  1  0  0  0  0
 32 35  1  0  0  0  0
 33 32  2  0  0  0  0
 33 37  1  0  0  0  0
 34 36  1  0  0  0  0
 35 36  2  0  0  0  0
 36 31  1  0  0  0  0
 37 34  2  0  0  0  0
 38 33  1  0  0  0  0
 39 38  1  0  0  0  0
 41 40  1  0  0  0  0
 42 41  1  0  0  0  0
 43 42  3  0  0  0  0
M  END
>  <MODEL>
4

>  <REMARK>
 VINA RESULT:      -6.9      2.146      4.062
  Name = 
  14 active torsions:
  status: ('A' for Active; 'I' for Inactive)
    1  A    between atoms: C_1  and  C_34
    2  A    between atoms: C_1  and  C_35
    3  A    between atoms: C_2  and  C_6
    4  A    between atoms: C_2  and  C_13
    5  A    between atoms: C_3  and  N_4
    6  A    between atoms: C_3  and  C_12
    7  A    between atoms: N_4  and  S_14
    8  A    between atoms: N_4  and  C_15
    9  A    between atoms: C_5  and  C_18
   10  A    between atoms: C_6  and  C_12
   11  A    between atoms: C_11  and  S_14
   12  A    between atoms: C_18  and  C_24
   13  A    between atoms: C_19  and  C_25
   14  A    between atoms: C_21  and  C_24
                            x       y       z     vdW  Elec       q    Type
                         _______ _______ _______ _____ _____    ______ ____

>  <TORSDO>
F 14

$$$$
=
 OpenBabel11062410203D

 43 47  0  0  1  0  0  0  0  0999 V2000
  161.1630  204.1410  151.1880 C   0  0  0  0  0  0  0  0  0  0  0  0
  161.5610  206.6370  149.9570 C   0  0  0  0  0  0  0  0  0  0  0  0
  160.9280  201.8240  149.6100 C   0  0  0  0  0  0  0  0  0  0  0  0
  161.1230  203.0670  148.9850 C   0  0  0  0  0  0  0  0  0  0  0  0
  160.8150  200.6600  148.8580 O   0  0  0  0  0  1  0  0  0  0  0  0
  161.4390  205.4860  149.1800 C   0  0  0  0  0  3  0  0  0  0  0  0
  161.2390  204.2320  149.7740 C   0  0  0  0  0  0  0  0  0  0  0  0
  160.9670  202.8880  151.7840 C   0  0  0  0  0  3  0  0  0  0  0  0
  161.2920  205.3060  151.9740 C   0  0  0  0  0  0  0  0  0  0  0  0
  161.4930  206.5420  151.3530 C   0  0  0  0  0  3  0  0  0  0  0  0
  160.8500  201.7410  151.0010 C   0  0  0  0  0  3  0  0  0  0  0  0
  161.8120  207.9430  149.2750 C   0  0  1  0  0  3  0  0  0  0  0  0
  161.4140  207.8970  147.8080 C   0  0  0  0  0  1  0  0  0  0  0  0
  161.0980  209.0760  149.9960 C   0  0  0  0  0  2  0  0  0  0  0  0
  162.0470  210.1950  150.2820 C   0  0  0  0  0  0  0  0  0  0  0  0
  162.8290  210.1110  151.2160 O   0  0  0  0  0  0  0  0  0  0  0  0
  162.0800  211.4000  149.3780 C   0  0  0  0  0  2  0  0  0  0  0  0
  160.9400  212.3200  149.5440 N   0  0  0  0  0  0  0  0  0  0  0  0
  159.7860  212.3080  151.6930 C   0  0  0  0  0  2  0  0  0  0  0  0
  160.9290  212.9000  150.8860 C   0  0  0  0  0  3  0  0  0  0  0  0
  159.6500  213.6910  151.0950 C   0  0  0  0  0  2  0  0  0  0  0  0
  160.9840  213.5960  148.3550 S   0  0  0  0  0  0  0  0  0  0  0  0
  159.7530  214.4520  148.4620 O   0  0  0  0  0  0  0  0  0  0  0  0
  162.2030  214.4510  148.5700 O   0  0  0  0  0  0  0  0  0  0  0  0
  161.0520  212.8810  146.7230 C   0  0  0  0  0  3  0  0  0  0  0  0
  162.1810  213.3650  144.4690 C   0  0  0  0  0  2  0  0  0  0  0  0
  159.7900  212.5500  144.5590 C   0  0  0  0  0  2  0  0  0  0  0  0
  161.1950  212.3050  143.9890 C   0  0  0  0  0  2  0  0  0  0  0  0
  159.7970  213.2370  145.9310 C   0  0  0  0  0  2  0  0  0  0  0  0
  162.3260  213.3360  145.9960 C   0  0  0  0  0  2  0  0  0  0  0  0
  161.1920  205.2640  153.4690 C   0  0  0  0  0  2  0  0  0  0  0  0
  161.1960  209.0220  153.9710 C   0  0  0  0  0  3  0  0  0  0  0  0
  160.3480  209.1550  155.0760 C   0  0  0  0  0  0  0  0  0  0  0  0
  160.0340  206.7520  155.1170 C   0  0  0  0  0  3  0  0  0  0  0  0
  161.4670  207.7560  153.4440 C   0  0  0  0  0  3  0  0  0  0  0  0
  160.8850  206.6190  154.0160 C   0  0  0  0  0  0  0  0  0  0  0  0
  159.7630  208.0180  155.6460 C   0  0  0  0  0  3  0  0  0  0  0  0
  160.0490  210.5050  155.6280 C   0  0  0  0  0  2  0  0  0  0  0  0
  160.1520  210.4870  157.1410 C   0  0  0  0  0  1  0  0  0  0  0  0
  161.1930  203.1330  147.4830 C   0  0  0  0  0  2  0  0  0  0  0  0
  161.7560  204.4660  147.0080 C   0  0  0  0  0  2  0  0  0  0  0  0
  161.4510  204.6830  145.5900 C   0  0  0  0  0  0  0  0  0  0  0  0
  161.2000  204.8610  144.4240 C   0  0  0  0  0  3  0  0  0  0  0  0
  1  8  1  0  0  0  0
  1  9  1  0  0  0  0
  2 10  1  0  0  0  0
  3 11  1  0  0  0  0
  4  3  2  0  0  0  0
  4  7  1  0  0  0  0
  5  3  1  0  0  0  0
  6  7  1  0  0  0  0
  6  2  2  0  0  0  0
  7  1  2  0  0  0  0
  9 31  1  0  0  0  0
 10  9  2  0  0  0  0
 11  8  2  0  0  0  0
 12 13  1  6  0  0  0
 12  2  1  0  0  0  0
 12 14  1  0  0  0  0
 14 15  1  0  0  0  0
 15 16  2  0  0  0  0
 17 18  1  0  0  0  0
 17 15  1  0  0  0  0
 18 20  1  0  0  0  0
 20 21  1  0  0  0  0
 20 19  1  0  0  0  0
 21 19  1  0  0  0  0
 22 23  2  0  0  0  0
 22 24  2  0  0  0  0
 22 18  1  0  0  0  0
 25 22  1  0  0  0  0
 26 30  1  0  0  0  0
 27 29  1  0  0  0  0
 28 26  1  0  0  0  0
 28 27  1  0  0  0  0
 29 25  1  0  0  0  0
 30 25  1  0  0  0  0
 31 36  1  0  0  0  0
 32 33  1  0  0  0  0
 33 38  1  0  0  0  0
 33 37  2  0  0  0  0
 34 37  1  0  0  0  0
 35 32  2  0  0  0  0
 35 36  1  0  0  0  0
 36 34  2  0  0  0  0
 38 39  1  0  0  0  0
 40  4  1  0  0  0  0
 41 40  1  0  0  0  0
 42 41  1  0  0  0  0
 43 42  3  0  0  0  0
M  END
>  <MODEL>
5

>  <REMARK>
 VINA RESULT:      -6.7      2.883      9.338
  Name = 
  14 active torsions:
  status: ('A' for Active; 'I' for Inactive)
    1  A    between atoms: C_1  and  C_34
    2  A    between atoms: C_1  and  C_35
    3  A    between atoms: C_2  and  C_6
    4  A    between atoms: C_2  and  C_13
    5  A    between atoms: C_3  and  N_4
    6  A    between atoms: C_3  and  C_12
    7  A    between atoms: N_4  and  S_14
    8  A    between atoms: N_4  and  C_15
    9  A    between atoms: C_5  and  C_18
   10  A    between atoms: C_6  and  C_12
   11  A    between atoms: C_11  and  S_14
   12  A    between atoms: C_18  and  C_24
   13  A    between atoms: C_19  and  C_25
   14  A    between atoms: C_21  and  C_24
                            x       y       z     vdW  Elec       q    Type
                         _______ _______ _______ _____ _____    ______ ____

>  <TORSDO>
F 14

$$$$
=
 OpenBabel11062410203D

 43 47  0  0  1  0  0  0  0  0999 V2000
  158.5990  213.7370  148.5760 C   0  0  0  0  0  0  0  0  0  0  0  0
  161.0680  212.4140  148.3320 C   0  0  0  0  0  0  0  0  0  0  0  0
  156.8560  213.8640  146.3710 C   0  0  0  0  0  0  0  0  0  0  0  0
  158.0890  213.2030  146.2380 C   0  0  0  0  0  0  0  0  0  0  0  0
  155.9700  213.9370  145.3020 O   0  0  0  0  0  1  0  0  0  0  0  0
  160.2020  212.4850  147.2420 C   0  0  0  0  0  3  0  0  0  0  0  0
  158.9670  213.1400  147.3420 C   0  0  0  0  0  0  0  0  0  0  0  0
  157.3630  214.3900  148.6790 C   0  0  0  0  0  3  0  0  0  0  0  0
  159.4740  213.6600  149.6800 C   0  0  0  0  0  0  0  0  0  0  0  0
  160.6980  212.9970  149.5500 C   0  0  0  0  0  3  0  0  0  0  0  0
  156.5010  214.4520  147.5860 C   0  0  0  0  0  3  0  0  0  0  0  0
  162.3550  211.6690  148.1820 C   0  0  1  0  0  3  0  0  0  0  0  0
  163.5550  212.6000  148.2490 C   0  0  0  0  0  1  0  0  0  0  0  0
  162.4650  210.5650  149.2240 C   0  0  0  0  0  2  0  0  0  0  0  0
  162.1040  209.2440  148.6270 C   0  0  0  0  0  0  0  0  0  0  0  0
  161.2070  209.1710  147.8010 O   0  0  0  0  0  0  0  0  0  0  0  0
  162.8880  208.0120  149.0000 C   0  0  0  0  0  2  0  0  0  0  0  0
  162.1480  207.0430  149.8280 N   0  0  0  0  0  0  0  0  0  0  0  0
  161.8690  208.1570  151.9810 C   0  0  0  0  0  2  0  0  0  0  0  0
  161.1860  207.7250  150.6940 C   0  0  0  0  0  3  0  0  0  0  0  0
  160.9880  206.9280  151.9700 C   0  0  0  0  0  2  0  0  0  0  0  0
  161.3170  205.8750  148.8350 S   0  0  0  0  0  0  0  0  0  0  0  0
  159.8550  206.2160  148.7390 O   0  0  0  0  0  0  0  0  0  0  0  0
  161.9140  205.8620  147.4540 O   0  0  0  0  0  0  0  0  0  0  0  0
  161.4870  204.2550  149.5600 C   0  0  0  0  0  3  0  0  0  0  0  0
  160.5380  201.8950  149.2120 C   0  0  0  0  0  2  0  0  0  0  0  0
  160.8900  202.8070  151.5430 C   0  0  0  0  0  2  0  0  0  0  0  0
  161.1970  201.6610  150.5680 C   0  0  0  0  0  2  0  0  0  0  0  0
  160.6780  204.1600  150.8520 C   0  0  0  0  0  2  0  0  0  0  0  0
  161.0680  203.1740  148.5520 C   0  0  0  0  0  2  0  0  0  0  0  0
  159.1410  214.2970  150.9960 C   0  0  0  0  0  2  0  0  0  0  0  0
  157.7570  212.3760  153.9570 C   0  0  0  0  0  3  0  0  0  0  0  0
  158.6950  211.3460  154.0810 C   0  0  0  0  0  0  0  0  0  0  0  0
  159.9100  212.2290  152.1800 C   0  0  0  0  0  3  0  0  0  0  0  0
  157.8980  213.3340  152.9490 C   0  0  0  0  0  3  0  0  0  0  0  0
  158.9750  213.2610  152.0570 C   0  0  0  0  0  0  0  0  0  0  0  0
  159.7700  211.2700  153.1880 C   0  0  0  0  0  3  0  0  0  0  0  0
  158.5360  210.3170  155.1460 C   0  0  0  0  0  2  0  0  0  0  0  0
  159.8790  210.0030  155.7770 C   0  0  0  0  0  1  0  0  0  0  0  0
  158.4550  212.5860  144.9150 C   0  0  0  0  0  2  0  0  0  0  0  0
  159.2460  213.5560  144.0470 C   0  0  0  0  0  2  0  0  0  0  0  0
  158.9900  213.3090  142.6240 C   0  0  0  0  0  0  0  0  0  0  0  0
  158.7790  213.1040  141.4540 C   0  0  0  0  0  3  0  0  0  0  0  0
  1  8  1  0  0  0  0
  1  9  1  0  0  0  0
  2 10  1  0  0  0  0
  3 11  1  0  0  0  0
  4  3  2  0  0  0  0
  4  7  1  0  0  0  0
  5  3  1  0  0  0  0
  6  7  1  0  0  0  0
  6  2  2  0  0  0  0
  7  1  2  0  0  0  0
  9 31  1  0  0  0  0
 10  9  2  0  0  0  0
 11  8  2  0  0  0  0
 12 13  1  1  0  0  0
 12  2  1  0  0  0  0
 12 14  1  0  0  0  0
 15 17  1  0  0  0  0
 15 14  1  0  0  0  0
 16 15  2  0  0  0  0
 17 18  1  0  0  0  0
 18 20  1  0  0  0  0
 20 21  1  0  0  0  0
 20 19  1  0  0  0  0
 21 19  1  0  0  0  0
 22 25  1  0  0  0  0
 22 18  1  0  0  0  0
 23 22  2  0  0  0  0
 24 22  2  0  0  0  0
 25 29  1  0  0  0  0
 26 28  1  0  0  0  0
 28 27  1  0  0  0  0
 29 27  1  0  0  0  0
 30 26  1  0  0  0  0
 30 25  1  0  0  0  0
 31 36  1  0  0  0  0
 32 33  1  0  0  0  0
 33 38  1  0  0  0  0
 34 37  1  0  0  0  0
 35 32  2  0  0  0  0
 36 34  2  0  0  0  0
 36 35  1  0  0  0  0
 37 33  2  0  0  0  0
 38 39  1  0  0  0  0
 40  4  1  0  0  0  0
 41 40  1  0  0  0  0
 42 41  1  0  0  0  0
 43 42  3  0  0  0  0
M  END
>  <MODEL>
6

>  <REMARK>
 VINA RESULT:      -6.5      2.309      6.653
  Name = 
  14 active torsions:
  status: ('A' for Active; 'I' for Inactive)
    1  A    between atoms: C_1  and  C_34
    2  A    between atoms: C_1  and  C_35
    3  A    between atoms: C_2  and  C_6
    4  A    between atoms: C_2  and  C_13
    5  A    between atoms: C_3  and  N_4
    6  A    between atoms: C_3  and  C_12
    7  A    between atoms: N_4  and  S_14
    8  A    between atoms: N_4  and  C_15
    9  A    between atoms: C_5  and  C_18
   10  A    between atoms: C_6  and  C_12
   11  A    between atoms: C_11  and  S_14
   12  A    between atoms: C_18  and  C_24
   13  A    between atoms: C_19  and  C_25
   14  A    between atoms: C_21  and  C_24
                            x       y       z     vdW  Elec       q    Type
                         _______ _______ _______ _____ _____    ______ ____

>  <TORSDO>
F 14

$$$$
=
 OpenBabel11062410203D

 43 47  0  0  1  0  0  0  0  0999 V2000
  161.6140  205.8410  149.1970 C   0  0  0  0  0  0  0  0  0  0  0  0
  161.6500  208.2290  150.6780 C   0  0  0  0  0  0  0  0  0  0  0  0
  160.8440  203.4360  150.4370 C   0  0  0  0  0  0  0  0  0  0  0  0
  160.8620  204.6240  151.1880 C   0  0  0  0  0  0  0  0  0  0  0  0
  160.4620  202.2330  151.0200 O   0  0  0  0  0  1  0  0  0  0  0  0
  161.2740  207.0340  151.2890 C   0  0  0  0  0  3  0  0  0  0  0  0
  161.2500  205.8320  150.5680 C   0  0  0  0  0  0  0  0  0  0  0  0
  161.5870  204.6400  148.4730 C   0  0  0  0  0  3  0  0  0  0  0  0
  161.9880  207.0520  148.5780 C   0  0  0  0  0  0  0  0  0  0  0  0
  162.0000  208.2350  149.3220 C   0  0  0  0  0  3  0  0  0  0  0  0
  161.2060  203.4490  149.0890 C   0  0  0  0  0  3  0  0  0  0  0  0
  161.6200  209.4890  151.4830 C   0  0  1  0  0  3  0  0  0  0  0  0
  161.5800  210.7230  150.5960 C   0  0  0  0  0  1  0  0  0  0  0  0
  160.4500  209.4820  152.4550 C   0  0  0  0  0  2  0  0  0  0  0  0
  160.0630  210.8780  152.8190 C   0  0  0  0  0  0  0  0  0  0  0  0
  159.0770  211.3910  152.3130 O   0  0  0  0  0  0  0  0  0  0  0  0
  160.8540  211.6300  153.8590 C   0  0  0  0  0  2  0  0  0  0  0  0
  160.3780  211.4450  155.2410 N   0  0  0  0  0  0  0  0  0  0  0  0
  162.1290  209.8870  155.9180 C   0  0  0  0  0  2  0  0  0  0  0  0
  161.5000  211.2490  156.1580 C   0  0  0  0  0  3  0  0  0  0  0  0
  161.2030  210.0930  157.0950 C   0  0  0  0  0  2  0  0  0  0  0  0
  159.4250  212.8100  155.7640 S   0  0  0  0  0  0  0  0  0  0  0  0
  160.1380  213.5540  156.8600 O   0  0  0  0  0  0  0  0  0  0  0  0
  159.1890  213.7410  154.6060 O   0  0  0  0  0  0  0  0  0  0  0  0
  157.8550  212.2340  156.3810 C   0  0  0  0  0  3  0  0  0  0  0  0
  155.8060  210.9610  155.5030 C   0  0  0  0  0  2  0  0  0  0  0  0
  155.5240  212.9290  157.0640 C   0  0  0  0  0  2  0  0  0  0  0  0
  155.2060  211.4460  156.8190 C   0  0  0  0  0  2  0  0  0  0  0  0
  156.8510  213.3820  156.4430 C   0  0  0  0  0  2  0  0  0  0  0  0
  157.3360  211.0770  155.5150 C   0  0  0  0  0  2  0  0  0  0  0  0
  162.4050  207.1070  147.1390 C   0  0  0  0  0  2  0  0  0  0  0  0
  159.7130  205.2010  145.2700 C   0  0  0  0  0  3  0  0  0  0  0  0
  160.3990  204.0370  144.9070 C   0  0  0  0  0  0  0  0  0  0  0  0
  162.3990  204.8860  145.9810 C   0  0  0  0  0  3  0  0  0  0  0  0
  160.3670  206.2030  145.9920 C   0  0  0  0  0  3  0  0  0  0  0  0
  161.7120  206.0480  146.3470 C   0  0  0  0  0  0  0  0  0  0  0  0
  161.7450  203.8830  145.2590 C   0  0  0  0  0  3  0  0  0  0  0  0
  159.7060  202.9760  144.1260 C   0  0  0  0  0  2  0  0  0  0  0  0
  159.7240  201.6660  144.8900 C   0  0  0  0  0  1  0  0  0  0  0  0
  160.4790  204.5810  152.6420 C   0  0  0  0  0  2  0  0  0  0  0  0
  161.4610  205.3660  153.5010 C   0  0  0  0  0  2  0  0  0  0  0  0
  160.7490  206.2550  154.4260 C   0  0  0  0  0  0  0  0  0  0  0  0
  160.1640  206.9860  155.1850 C   0  0  0  0  0  3  0  0  0  0  0  0
  1  7  1  0  0  0  0
  2  6  1  0  0  0  0
  2 12  1  0  0  0  0
  3  5  1  0  0  0  0
  3  4  2  0  0  0  0
  4 40  1  0  0  0  0
  7  4  1  0  0  0  0
  7  6  2  0  0  0  0
  8 11  2  0  0  0  0
  8  1  1  0  0  0  0
  9  1  2  0  0  0  0
  9 10  1  0  0  0  0
 10  2  2  0  0  0  0
 11  3  1  0  0  0  0
 12 13  1  6  0  0  0
 12 14  1  0  0  0  0
 14 15  1  0  0  0  0
 15 17  1  0  0  0  0
 16 15  2  0  0  0  0
 17 18  1  0  0  0  0
 18 22  1  0  0  0  0
 18 20  1  0  0  0  0
 19 20  1  0  0  0  0
 19 21  1  0  0  0  0
 20 21  1  0  0  0  0
 22 25  1  0  0  0  0
 22 23  2  0  0  0  0
 24 22  2  0  0  0  0
 25 29  1  0  0  0  0
 26 30  1  0  0  0  0
 26 28  1  0  0  0  0
 28 27  1  0  0  0  0
 29 27  1  0  0  0  0
 30 25  1  0  0  0  0
 31  9  1  0  0  0  0
 32 35  1  0  0  0  0
 33 37  1  0  0  0  0
 33 32  2  0  0  0  0
 34 36  1  0  0  0  0
 35 36  2  0  0  0  0
 36 31  1  0  0  0  0
 37 34  2  0  0  0  0
 38 39  1  0  0  0  0
 38 33  1  0  0  0  0
 40 41  1  0  0  0  0
 41 42  1  0  0  0  0
 42 43  3  0  0  0  0
M  END
>  <MODEL>
7

>  <REMARK>
 VINA RESULT:      -6.0      3.516      9.118
  Name = 
  14 active torsions:
  status: ('A' for Active; 'I' for Inactive)
    1  A    between atoms: C_1  and  C_34
    2  A    between atoms: C_1  and  C_35
    3  A    between atoms: C_2  and  C_6
    4  A    between atoms: C_2  and  C_13
    5  A    between atoms: C_3  and  N_4
    6  A    between atoms: C_3  and  C_12
    7  A    between atoms: N_4  and  S_14
    8  A    between atoms: N_4  and  C_15
    9  A    between atoms: C_5  and  C_18
   10  A    between atoms: C_6  and  C_12
   11  A    between atoms: C_11  and  S_14
   12  A    between atoms: C_18  and  C_24
   13  A    between atoms: C_19  and  C_25
   14  A    between atoms: C_21  and  C_24
                            x       y       z     vdW  Elec       q    Type
                         _______ _______ _______ _____ _____    ______ ____

>  <TORSDO>
F 14

$$$$
=
 OpenBabel11062410203D

 43 47  0  0  1  0  0  0  0  0999 V2000
  158.4720  213.6670  148.4780 C   0  0  0  0  0  0  0  0  0  0  0  0
  160.9840  212.4120  148.3460 C   0  0  0  0  0  0  0  0  0  0  0  0
  156.9450  213.9930  146.1370 C   0  0  0  0  0  0  0  0  0  0  0  0
  158.2020  213.3670  146.0600 C   0  0  0  0  0  0  0  0  0  0  0  0
  156.1650  214.1620  144.9990 O   0  0  0  0  0  1  0  0  0  0  0  0
  160.2250  212.5810  147.1890 C   0  0  0  0  0  3  0  0  0  0  0  0
  158.9710  213.2040  147.2320 C   0  0  0  0  0  0  0  0  0  0  0  0
  157.2160  214.2870  148.5250 C   0  0  0  0  0  3  0  0  0  0  0  0
  159.2370  213.4910  149.6500 C   0  0  0  0  0  0  0  0  0  0  0  0
  160.4840  212.8620  149.5740 C   0  0  0  0  0  3  0  0  0  0  0  0
  156.4610  214.4490  147.3640 C   0  0  0  0  0  3  0  0  0  0  0  0
  162.2980  211.7050  148.2490 C   0  0  1  0  0  3  0  0  0  0  0  0
  163.4660  212.6590  148.4400 C   0  0  0  0  0  1  0  0  0  0  0  0
  162.3670  210.5550  149.2430 C   0  0  0  0  0  2  0  0  0  0  0  0
  161.9350  209.2780  148.5980 C   0  0  0  0  0  0  0  0  0  0  0  0
  160.9670  209.2670  147.8540 O   0  0  0  0  0  0  0  0  0  0  0  0
  162.7320  208.0190  148.8200 C   0  0  0  0  0  2  0  0  0  0  0  0
  162.1500  207.0940  149.8090 N   0  0  0  0  0  0  0  0  0  0  0  0
  162.1340  208.1340  152.0160 C   0  0  0  0  0  2  0  0  0  0  0  0
  161.3210  207.8150  150.7730 C   0  0  0  0  0  3  0  0  0  0  0  0
  161.1520  206.9840  152.0320 C   0  0  0  0  0  2  0  0  0  0  0  0
  161.2010  205.8550  149.0300 S   0  0  0  0  0  0  0  0  0  0  0  0
  161.4410  204.5230  149.6850 O   0  0  0  0  0  0  0  0  0  0  0  0
  159.7390  206.1980  149.1240 O   0  0  0  0  0  0  0  0  0  0  0  0
  161.6660  205.7480  147.3120 C   0  0  0  0  0  3  0  0  0  0  0  0
  160.5120  205.5480  145.0270 C   0  0  0  0  0  2  0  0  0  0  0  0
  162.6190  204.2410  145.5210 C   0  0  0  0  0  2  0  0  0  0  0  0
  161.9360  205.2390  144.5740 C   0  0  0  0  0  2  0  0  0  0  0  0
  162.1210  204.3310  146.9690 C   0  0  0  0  0  2  0  0  0  0  0  0
  160.5020  206.1980  146.4170 C   0  0  0  0  0  2  0  0  0  0  0  0
  158.7650  213.9850  150.9830 C   0  0  0  0  0  2  0  0  0  0  0  0
  160.0170  210.9090  152.8120 C   0  0  0  0  0  3  0  0  0  0  0  0
  160.0380  211.3630  154.1350 C   0  0  0  0  0  0  0  0  0  0  0  0
  159.2510  213.5330  153.3980 C   0  0  0  0  0  3  0  0  0  0  0  0
  159.6080  211.7630  151.7840 C   0  0  0  0  0  3  0  0  0  0  0  0
  159.2250  213.0780  152.0760 C   0  0  0  0  0  0  0  0  0  0  0  0
  159.6590  212.6780  154.4270 C   0  0  0  0  0  3  0  0  0  0  0  0
  160.4880  210.4560  155.2270 C   0  0  0  0  0  2  0  0  0  0  0  0
  160.2950  209.0080  154.8200 C   0  0  0  0  0  1  0  0  0  0  0  0
  158.7080  212.8940  144.7230 C   0  0  0  0  0  2  0  0  0  0  0  0
  159.5040  213.9800  144.0130 C   0  0  0  0  0  2  0  0  0  0  0  0
  160.9350  213.6570  144.0080 C   0  0  0  0  0  0  0  0  0  0  0  0
  162.1120  213.3920  144.0050 C   0  0  0  0  0  3  0  0  0  0  0  0
  1  8  1  0  0  0  0
  1  9  1  0  0  0  0
  2 10  1  0  0  0  0
  3 11  1  0  0  0  0
  4  3  2  0  0  0  0
  4  7  1  0  0  0  0
  5  3  1  0  0  0  0
  6  7  1  0  0  0  0
  6  2  2  0  0  0  0
  7  1  2  0  0  0  0
  9 31  1  0  0  0  0
 10  9  2  0  0  0  0
 11  8  2  0  0  0  0
 12  2  1  0  0  0  0
 12 13  1  1  0  0  0
 12 14  1  0  0  0  0
 15 17  1  0  0  0  0
 15 14  1  0  0  0  0
 16 15  2  0  0  0  0
 17 18  1  0  0  0  0
 18 20  1  0  0  0  0
 19 21  1  0  0  0  0
 20 19  1  0  0  0  0
 20 21  1  0  0  0  0
 22 24  2  0  0  0  0
 22 23  2  0  0  0  0
 22 18  1  0  0  0  0
 25 22  1  0  0  0  0
 26 30  1  0  0  0  0
 27 29  1  0  0  0  0
 28 26  1  0  0  0  0
 28 27  1  0  0  0  0
 29 25  1  0  0  0  0
 30 25  1  0  0  0  0
 31 36  1  0  0  0  0
 32 33  1  0  0  0  0
 33 37  2  0  0  0  0
 33 38  1  0  0  0  0
 34 37  1  0  0  0  0
 35 36  1  0  0  0  0
 35 32  2  0  0  0  0
 36 34  2  0  0  0  0
 39 38  1  0  0  0  0
 40  4  1  0  0  0  0
 41 40  1  0  0  0  0
 42 41  1  0  0  0  0
 43 42  3  0  0  0  0
M  END
>  <MODEL>
8

>  <REMARK>
 VINA RESULT:      -5.8      2.400      6.294
  Name = 
  14 active torsions:
  status: ('A' for Active; 'I' for Inactive)
    1  A    between atoms: C_1  and  C_34
    2  A    between atoms: C_1  and  C_35
    3  A    between atoms: C_2  and  C_6
    4  A    between atoms: C_2  and  C_13
    5  A    between atoms: C_3  and  N_4
    6  A    between atoms: C_3  and  C_12
    7  A    between atoms: N_4  and  S_14
    8  A    between atoms: N_4  and  C_15
    9  A    between atoms: C_5  and  C_18
   10  A    between atoms: C_6  and  C_12
   11  A    between atoms: C_11  and  S_14
   12  A    between atoms: C_18  and  C_24
   13  A    between atoms: C_19  and  C_25
   14  A    between atoms: C_21  and  C_24
                            x       y       z     vdW  Elec       q    Type
                         _______ _______ _______ _____ _____    ______ ____

>  <TORSDO>
F 14

$$$$
=
 OpenBabel11062410203D

 43 47  0  0  1  0  0  0  0  0999 V2000
  160.5830  210.0770  153.5700 C   0  0  0  0  0  0  0  0  0  0  0  0
  160.6850  211.6180  151.2210 C   0  0  0  0  0  0  0  0  0  0  0  0
  159.1390  211.0110  155.7960 C   0  0  0  0  0  0  0  0  0  0  0  0
  159.1860  211.7910  154.6270 C   0  0  0  0  0  0  0  0  0  0  0  0
  158.4270  211.4430  156.9100 O   0  0  0  0  0  1  0  0  0  0  0  0
  159.9750  212.0790  152.3290 C   0  0  0  0  0  3  0  0  0  0  0  0
  159.9120  211.3260  153.5090 C   0  0  0  0  0  0  0  0  0  0  0  0
  160.5190  209.3210  154.7480 C   0  0  0  0  0  3  0  0  0  0  0  0
  161.2970  209.6100  152.4460 C   0  0  0  0  0  0  0  0  0  0  0  0
  161.3390  210.3820  151.2810 C   0  0  0  0  0  3  0  0  0  0  0  0
  159.8040  209.7860  155.8500 C   0  0  0  0  0  3  0  0  0  0  0  0
  160.6870  212.4430  149.9740 C   0  0  1  0  0  3  0  0  0  0  0  0
  160.6530  213.9310  150.2820 C   0  0  0  0  0  1  0  0  0  0  0  0
  161.8820  212.0960  149.0980 C   0  0  0  0  0  2  0  0  0  0  0  0
  161.4430  211.8300  147.6950 C   0  0  0  0  0  0  0  0  0  0  0  0
  161.0490  210.7190  147.3780 O   0  0  0  0  0  0  0  0  0  0  0  0
  161.4300  212.9510  146.6870 C   0  0  0  0  0  2  0  0  0  0  0  0
  160.4000  212.8200  145.6410 N   0  0  0  0  0  0  0  0  0  0  0  0
  158.1110  212.3070  146.3110 C   0  0  0  0  0  2  0  0  0  0  0  0
  159.1340  213.4060  146.0790 C   0  0  0  0  0  3  0  0  0  0  0  0
  158.0560  213.1340  145.0450 C   0  0  0  0  0  2  0  0  0  0  0  0
  160.9140  213.5780  144.1560 S   0  0  0  0  0  0  0  0  0  0  0  0
  159.8190  214.4520  143.6100 O   0  0  0  0  0  0  0  0  0  0  0  0
  162.1380  214.4160  144.4080 O   0  0  0  0  0  0  0  0  0  0  0  0
  161.3050  212.3200  142.9550 C   0  0  0  0  0  3  0  0  0  0  0  0
  162.7640  212.0650  140.8580 C   0  0  0  0  0  2  0  0  0  0  0  0
  160.4520  211.0470  140.9450 C   0  0  0  0  0  2  0  0  0  0  0  0
  161.9470  210.7870  140.7040 C   0  0  0  0  0  2  0  0  0  0  0  0
  160.1810  212.1920  141.9300 C   0  0  0  0  0  2  0  0  0  0  0  0
  162.6500  212.6280  142.2810 C   0  0  0  0  0  2  0  0  0  0  0  0
  162.0430  208.3100  152.4700 C   0  0  0  0  0  2  0  0  0  0  0  0
  160.5900  205.6690  150.1700 C   0  0  0  0  0  3  0  0  0  0  0  0
  161.2290  205.9710  148.9630 C   0  0  0  0  0  0  0  0  0  0  0  0
  162.3810  207.8120  150.0390 C   0  0  0  0  0  3  0  0  0  0  0  0
  160.8500  206.4330  151.3110 C   0  0  0  0  0  3  0  0  0  0  0  0
  161.7460  207.5080  151.2470 C   0  0  0  0  0  0  0  0  0  0  0  0
  162.1220  207.0470  148.8970 C   0  0  0  0  0  3  0  0  0  0  0  0
  160.9410  205.1660  147.7440 C   0  0  0  0  0  2  0  0  0  0  0  0
  161.5310  203.7760  147.8820 C   0  0  0  0  0  1  0  0  0  0  0  0
  158.4710  213.1150  154.5970 C   0  0  0  0  0  2  0  0  0  0  0  0
  157.1330  213.0090  153.8760 C   0  0  0  0  0  2  0  0  0  0  0  0
  156.2780  212.0010  154.5120 C   0  0  0  0  0  0  0  0  0  0  0  0
  155.5770  211.1710  155.0350 C   0  0  0  0  0  3  0  0  0  0  0  0
  1  8  1  0  0  0  0
  2 10  2  0  0  0  0
  2  6  1  0  0  0  0
  3 11  1  0  0  0  0
  3  5  1  0  0  0  0
  4  3  2  0  0  0  0
  6  7  2  0  0  0  0
  7  1  1  0  0  0  0
  7  4  1  0  0  0  0
  8 11  2  0  0  0  0
  9 31  1  0  0  0  0
  9  1  2  0  0  0  0
 10  9  1  0  0  0  0
 12 13  1  1  0  0  0
 12  2  1  0  0  0  0
 14 12  1  0  0  0  0
 15 14  1  0  0  0  0
 16 15  2  0  0  0  0
 17 15  1  0  0  0  0
 18 20  1  0  0  0  0
 18 17  1  0  0  0  0
 20 19  1  0  0  0  0
 21 20  1  0  0  0  0
 21 19  1  0  0  0  0
 22 24  2  0  0  0  0
 22 18  1  0  0  0  0
 23 22  2  0  0  0  0
 25 22  1  0  0  0  0
 26 30  1  0  0  0  0
 27 29  1  0  0  0  0
 28 26  1  0  0  0  0
 28 27  1  0  0  0  0
 29 25  1  0  0  0  0
 30 25  1  0  0  0  0
 32 35  1  0  0  0  0
 33 32  2  0  0  0  0
 34 36  1  0  0  0  0
 36 35  2  0  0  0  0
 36 31  1  0  0  0  0
 37 33  1  0  0  0  0
 37 34  2  0  0  0  0
 38 39  1  0  0  0  0
 38 33  1  0  0  0  0
 40  4  1  0  0  0  0
 41 42  1  0  0  0  0
 41 40  1  0  0  0  0
 42 43  3  0  0  0  0
M  END
>  <MODEL>
9

>  <REMARK>
 VINA RESULT:      -5.7      3.263      6.919
  Name = 
  14 active torsions:
  status: ('A' for Active; 'I' for Inactive)
    1  A    between atoms: C_1  and  C_34
    2  A    between atoms: C_1  and  C_35
    3  A    between atoms: C_2  and  C_6
    4  A    between atoms: C_2  and  C_13
    5  A    between atoms: C_3  and  N_4
    6  A    between atoms: C_3  and  C_12
    7  A    between atoms: N_4  and  S_14
    8  A    between atoms: N_4  and  C_15
    9  A    between atoms: C_5  and  C_18
   10  A    between atoms: C_6  and  C_12
   11  A    between atoms: C_11  and  S_14
   12  A    between atoms: C_18  and  C_24
   13  A    between atoms: C_19  and  C_25
   14  A    between atoms: C_21  and  C_24
                            x       y       z     vdW  Elec       q    Type
                         _______ _______ _______ _____ _____    ______ ____

>  <TORSDO>
F 14

$$$$
