=
 OpenBabel11052422223D

 31 35  0  0  0  0  0  0  0  0999 V2000
  160.9840  206.9790  154.4680 C   0  0  0  0  0  0  0  0  0  0  0  0
  161.1980  206.6260  150.7160 C   0  0  0  0  0  0  0  0  0  0  0  0
  161.1230  205.2180  150.4250 C   0  0  0  0  0  0  0  0  0  0  0  0
  161.5450  211.8330  149.9440 O   0  0  0  0  0  0  0  0  0  0  0  0
  161.6060  211.2570  148.8240 C   0  0  0  0  0  0  0  0  0  0  0  0
  161.6420  202.9640  151.4600 C   0  0  0  0  0  2  0  0  0  0  0  0
  161.1370  207.1830  152.0350 C   0  0  0  0  0  0  0  0  0  0  0  0
  161.0350  208.3640  154.6020 C   0  0  0  0  0  3  0  0  0  0  0  0
  160.7960  204.2250  151.5180 C   0  0  0  0  0  2  0  0  0  0  0  0
  161.4000  208.9210  149.8540 C   0  0  0  0  0  0  0  0  0  0  0  0
  160.8840  206.1940  155.5670 F   0  0  0  0  0  0  0  0  0  0  0  0
  161.3920  205.7080  148.0490 C   0  0  0  0  0  3  0  0  0  0  0  0
  160.9410  201.8850  150.6380 C   0  0  0  0  0  2  0  0  0  0  0  0
  161.3230  209.4000  151.1190 N   0  0  0  0  0  0  0  0  0  0  0  0
  161.3460  207.5350  149.6280 C   0  0  0  0  0  0  0  0  0  0  0  0
  161.5380  209.8250  148.7470 N   0  0  0  0  0  2  0  0  0  0  0  0
  161.0380  206.4000  153.1990 C   0  0  0  0  0  3  0  0  0  0  0  0
  160.3170  202.4290  149.3540 C   0  0  0  0  0  2  0  0  0  0  0  0
  161.1990  208.5910  152.1960 C   0  0  0  0  0  0  0  0  0  0  0  0
  161.1440  209.1670  153.4680 C   0  0  0  0  0  3  0  0  0  0  0  0
  161.4400  207.0630  148.3200 C   0  0  0  0  0  3  0  0  0  0  0  0
  161.2240  204.7800  149.0690 C   0  0  0  0  0  0  0  0  0  0  0  0
  161.2920  203.3390  148.6260 C   0  0  0  0  0  2  0  0  0  0  0  0
  161.9260  213.5310  145.1950 C   0  0  0  0  0  0  0  0  0  0  0  0
  160.6360  212.1910  146.7380 C   0  0  0  0  0  3  0  0  0  0  0  0
  164.1050  212.5580  147.9980 O   0  0  0  0  0  1  0  0  0  0  0  0
  162.0180  214.3150  143.9360 C   0  0  0  0  0  1  0  0  0  0  0  0
  160.7210  212.9280  145.5550 C   0  0  0  0  0  3  0  0  0  0  0  0
  162.9670  212.6640  147.2070 C   0  0  0  0  0  0  0  0  0  0  0  0
  161.7510  212.0480  147.5800 C   0  0  0  0  0  0  0  0  0  0  0  0
  163.0450  213.4000  146.0200 C   0  0  0  0  0  3  0  0  0  0  0  0
  1  8  1  0  0  0  0
  1 11  1  0  0  0  0
  2  7  1  0  0  0  0
  3  2  1  0  0  0  0
  3  9  1  0  0  0  0
  5  4  2  0  0  0  0
  6  9  1  0  0  0  0
  7 19  2  0  0  0  0
  7 17  1  0  0  0  0
 10 14  2  0  0  0  0
 12 21  2  0  0  0  0
 12 22  1  0  0  0  0
 13  6  1  0  0  0  0
 14 19  1  0  0  0  0
 15 10  1  0  0  0  0
 15  2  2  0  0  0  0
 16  5  1  0  0  0  0
 16 10  1  0  0  0  0
 17  1  2  0  0  0  0
 18 13  1  0  0  0  0
 19 20  1  0  0  0  0
 20  8  2  0  0  0  0
 21 15  1  0  0  0  0
 22  3  2  0  0  0  0
 23 22  1  0  0  0  0
 23 18  1  0  0  0  0
 24 28  2  0  0  0  0
 24 31  1  0  0  0  0
 25 30  2  0  0  0  0
 27 24  1  0  0  0  0
 28 25  1  0  0  0  0
 29 30  1  0  0  0  0
 29 26  1  0  0  0  0
 30  5  1  0  0  0  0
 31 29  2  0  0  0  0
M  END
>  <MODEL>
1

>  <REMARK>
 VINA RESULT:     -10.9      0.000      0.000
  Name = 
  1 active torsions:
  status: ('A' for Active; 'I' for Inactive)
    1  A    between atoms: C_9  and  C_22
                            x       y       z     vdW  Elec       q    Type
                         _______ _______ _______ _____ _____    ______ ____

>  <TORSDO>
F 1

$$$$
=
 OpenBabel11052422223D

 31 35  0  0  0  0  0  0  0  0999 V2000
  161.1660  201.1470  149.5740 C   0  0  0  0  0  0  0  0  0  0  0  0
  161.1290  204.8900  149.0930 C   0  0  0  0  0  0  0  0  0  0  0  0
  161.1470  205.1280  147.6730 C   0  0  0  0  0  0  0  0  0  0  0  0
  160.9960  205.8570  154.2770 O   0  0  0  0  0  0  0  0  0  0  0  0
  161.0210  206.9580  153.6650 C   0  0  0  0  0  0  0  0  0  0  0  0
  161.9220  204.0620  145.5090 C   0  0  0  0  0  2  0  0  0  0  0  0
  161.1220  203.5890  149.6940 C   0  0  0  0  0  0  0  0  0  0  0  0
  161.1150  201.0620  150.9630 C   0  0  0  0  0  3  0  0  0  0  0  0
  160.9830  203.9810  146.7000 C   0  0  0  0  0  2  0  0  0  0  0  0
  161.0800  205.8400  151.3620 C   0  0  0  0  0  0  0  0  0  0  0  0
  161.2120  200.0170  148.8270 F   0  0  0  0  0  0  0  0  0  0  0  0
  161.1980  207.5330  148.0900 C   0  0  0  0  0  3  0  0  0  0  0  0
  161.2510  204.7920  144.3470 C   0  0  0  0  0  2  0  0  0  0  0  0
  161.0590  204.5890  151.8820 N   0  0  0  0  0  0  0  0  0  0  0  0
  161.1220  206.0150  149.9680 C   0  0  0  0  0  0  0  0  0  0  0  0
  161.0630  206.9840  152.2300 N   0  0  0  0  0  2  0  0  0  0  0  0
  161.1720  202.3960  148.9520 C   0  0  0  0  0  3  0  0  0  0  0  0
  160.4910  206.0420  144.7910 C   0  0  0  0  0  2  0  0  0  0  0  0
  161.0810  203.4800  151.1080 C   0  0  0  0  0  0  0  0  0  0  0  0
  161.0740  202.2270  151.7270 C   0  0  0  0  0  3  0  0  0  0  0  0
  161.1560  207.3110  149.4540 C   0  0  0  0  0  3  0  0  0  0  0  0
  161.1820  206.4730  147.1920 C   0  0  0  0  0  0  0  0  0  0  0  0
  161.3340  206.8720  145.7450 C   0  0  0  0  0  2  0  0  0  0  0  0
  161.0130  210.6090  155.9270 C   0  0  0  0  0  0  0  0  0  0  0  0
  161.3430  208.2200  155.7800 C   0  0  0  0  0  3  0  0  0  0  0  0
  160.3310  209.5490  152.4680 O   0  0  0  0  0  1  0  0  0  0  0  0
  161.0170  211.8630  156.7240 C   0  0  0  0  0  1  0  0  0  0  0  0
  161.3470  209.3970  156.5300 C   0  0  0  0  0  3  0  0  0  0  0  0
  160.6720  209.4690  153.8130 C   0  0  0  0  0  0  0  0  0  0  0  0
  161.0080  208.2360  154.4160 C   0  0  0  0  0  0  0  0  0  0  0  0
  160.6780  210.6440  154.5720 C   0  0  0  0  0  3  0  0  0  0  0  0
  1  8  1  0  0  0  0
  2  7  1  0  0  0  0
  2 15  1  0  0  0  0
  3  2  2  0  0  0  0
  5  4  2  0  0  0  0
  5 30  1  0  0  0  0
  6  9  1  0  0  0  0
  7 19  2  0  0  0  0
  8 20  2  0  0  0  0
  9  3  1  0  0  0  0
 10 14  2  0  0  0  0
 10 16  1  0  0  0  0
 11  1  1  0  0  0  0
 12 21  1  0  0  0  0
 13 18  1  0  0  0  0
 13  6  1  0  0  0  0
 15 10  1  0  0  0  0
 16  5  1  0  0  0  0
 17  1  2  0  0  0  0
 17  7  1  0  0  0  0
 18 23  1  0  0  0  0
 19 20  1  0  0  0  0
 19 14  1  0  0  0  0
 21 15  2  0  0  0  0
 22  3  1  0  0  0  0
 22 12  2  0  0  0  0
 23 22  1  0  0  0  0
 24 28  1  0  0  0  0
 24 27  1  0  0  0  0
 25 28  2  0  0  0  0
 26 29  1  0  0  0  0
 29 30  2  0  0  0  0
 29 31  1  0  0  0  0
 30 25  1  0  0  0  0
 31 24  2  0  0  0  0
M  END
>  <MODEL>
2

>  <REMARK>
 VINA RESULT:     -10.3      3.838      6.861
  Name = 
  1 active torsions:
  status: ('A' for Active; 'I' for Inactive)
    1  A    between atoms: C_9  and  C_22
                            x       y       z     vdW  Elec       q    Type
                         _______ _______ _______ _____ _____    ______ ____

>  <TORSDO>
F 1

$$$$
=
 OpenBabel11052422223D

 31 35  0  0  0  0  0  0  0  0999 V2000
  161.8470  210.9690  150.0740 C   0  0  0  0  0  0  0  0  0  0  0  0
  161.2710  207.5030  151.4510 C   0  0  0  0  0  0  0  0  0  0  0  0
  161.0950  207.6420  152.8730 C   0  0  0  0  0  0  0  0  0  0  0  0
  161.6070  205.2330  146.7010 O   0  0  0  0  0  0  0  0  0  0  0  0
  161.4190  204.3330  147.5620 C   0  0  0  0  0  0  0  0  0  0  0  0
  161.7490  209.1570  154.7960 C   0  0  0  0  0  2  0  0  0  0  0  0
  161.5010  208.5950  150.5530 C   0  0  0  0  0  0  0  0  0  0  0  0
  161.9660  210.6930  148.7140 C   0  0  0  0  0  3  0  0  0  0  0  0
  160.9710  209.0140  153.4990 C   0  0  0  0  0  2  0  0  0  0  0  0
  161.3590  206.0020  149.5030 C   0  0  0  0  0  0  0  0  0  0  0  0
  161.9520  212.2440  150.5180 F   0  0  0  0  0  0  0  0  0  0  0  0
  160.8820  205.2190  153.0730 C   0  0  0  0  0  3  0  0  0  0  0  0
  160.8610  208.8230  155.9930 C   0  0  0  0  0  2  0  0  0  0  0  0
  161.5590  207.0700  148.6930 N   0  0  0  0  0  0  0  0  0  0  0  0
  161.2180  206.1930  150.8880 C   0  0  0  0  0  0  0  0  0  0  0  0
  161.2930  204.6790  148.9490 N   0  0  0  0  0  2  0  0  0  0  0  0
  161.6200  209.9300  150.9780 C   0  0  0  0  0  3  0  0  0  0  0  0
  160.0020  207.5800  155.7670 C   0  0  0  0  0  2  0  0  0  0  0  0
  161.6360  208.3360  149.1650 C   0  0  0  0  0  0  0  0  0  0  0  0
  161.8620  209.3780  148.2620 C   0  0  0  0  0  3  0  0  0  0  0  0
  161.0260  205.0800  151.7050 C   0  0  0  0  0  3  0  0  0  0  0  0
  160.9010  206.4730  153.6700 C   0  0  0  0  0  0  0  0  0  0  0  0
  160.8330  206.4530  155.1770 C   0  0  0  0  0  2  0  0  0  0  0  0
  161.1790  200.1830  146.4780 C   0  0  0  0  0  0  0  0  0  0  0  0
  161.6080  201.9170  148.1070 C   0  0  0  0  0  3  0  0  0  0  0  0
  160.6790  203.4520  144.8600 O   0  0  0  0  0  1  0  0  0  0  0  0
  161.1010  198.7430  146.1210 C   0  0  0  0  0  1  0  0  0  0  0  0
  161.5340  200.5630  147.7730 C   0  0  0  0  0  3  0  0  0  0  0  0
  160.9670  202.5160  145.8460 C   0  0  0  0  0  0  0  0  0  0  0  0
  161.3270  202.9110  147.1550 C   0  0  0  0  0  0  0  0  0  0  0  0
  160.8960  201.1580  145.5190 C   0  0  0  0  0  3  0  0  0  0  0  0
  1 11  1  0  0  0  0
  1 17  1  0  0  0  0
  2  3  1  0  0  0  0
  3  9  1  0  0  0  0
  3 22  2  0  0  0  0
  4  5  2  0  0  0  0
  5 16  1  0  0  0  0
  6 13  1  0  0  0  0
  7 17  2  0  0  0  0
  7  2  1  0  0  0  0
  8  1  2  0  0  0  0
  9  6  1  0  0  0  0
 10 15  1  0  0  0  0
 12 22  1  0  0  0  0
 14 19  1  0  0  0  0
 14 10  2  0  0  0  0
 15  2  2  0  0  0  0
 15 21  1  0  0  0  0
 16 10  1  0  0  0  0
 18 13  1  0  0  0  0
 19  7  1  0  0  0  0
 20  8  1  0  0  0  0
 20 19  2  0  0  0  0
 21 12  2  0  0  0  0
 22 23  1  0  0  0  0
 23 18  1  0  0  0  0
 24 28  1  0  0  0  0
 26 29  1  0  0  0  0
 27 24  1  0  0  0  0
 28 25  2  0  0  0  0
 29 30  2  0  0  0  0
 30  5  1  0  0  0  0
 30 25  1  0  0  0  0
 31 29  1  0  0  0  0
 31 24  2  0  0  0  0
M  END
>  <MODEL>
3

>  <REMARK>
 VINA RESULT:      -8.9      3.342      7.731
  Name = 
  1 active torsions:
  status: ('A' for Active; 'I' for Inactive)
    1  A    between atoms: C_9  and  C_22
                            x       y       z     vdW  Elec       q    Type
                         _______ _______ _______ _____ _____    ______ ____

>  <TORSDO>
F 1

$$$$
=
 OpenBabel11052422223D

 31 35  0  0  0  0  0  0  0  0999 V2000
  161.7520  212.1790  149.5980 C   0  0  0  0  0  0  0  0  0  0  0  0
  161.3600  208.8040  151.2400 C   0  0  0  0  0  0  0  0  0  0  0  0
  161.2560  209.0380  152.6560 C   0  0  0  0  0  0  0  0  0  0  0  0
  161.5120  206.2150  146.6460 O   0  0  0  0  0  0  0  0  0  0  0  0
  161.3990  205.3730  147.5760 C   0  0  0  0  0  0  0  0  0  0  0  0
  161.9640  210.7020  154.4320 C   0  0  0  0  0  2  0  0  0  0  0  0
  161.5070  209.8370  150.2580 C   0  0  0  0  0  0  0  0  0  0  0  0
  161.8060  211.8120  148.2550 C   0  0  0  0  0  3  0  0  0  0  0  0
  161.1230  210.4470  153.1930 C   0  0  0  0  0  2  0  0  0  0  0  0
  161.3910  207.1730  149.3980 C   0  0  0  0  0  0  0  0  0  0  0  0
  161.8410  213.4850  149.9470 F   0  0  0  0  0  0  0  0  0  0  0  0
  161.1310  206.6300  153.0340 C   0  0  0  0  0  3  0  0  0  0  0  0
  161.1530  210.4290  155.6960 C   0  0  0  0  0  2  0  0  0  0  0  0
  161.5140  208.1870  148.5060 N   0  0  0  0  0  0  0  0  0  0  0  0
  161.3180  207.4570  150.7720 C   0  0  0  0  0  0  0  0  0  0  0  0
  161.3370  205.8120  148.9410 N   0  0  0  0  0  2  0  0  0  0  0  0
  161.6060  211.2010  150.5830 C   0  0  0  0  0  3  0  0  0  0  0  0
  160.3220  209.1500  155.6040 C   0  0  0  0  0  2  0  0  0  0  0  0
  161.5760  209.4840  148.8860 C   0  0  0  0  0  0  0  0  0  0  0  0
  161.7200  210.4660  147.9020 C   0  0  0  0  0  3  0  0  0  0  0  0
  161.2050  206.4000  151.6730 C   0  0  0  0  0  3  0  0  0  0  0  0
  161.1420  207.9230  153.5420 C   0  0  0  0  0  0  0  0  0  0  0  0
  161.1560  208.0070  155.0480 C   0  0  0  0  0  2  0  0  0  0  0  0
  161.2030  201.1530  146.8000 C   0  0  0  0  0  0  0  0  0  0  0  0
  161.3440  203.0110  148.3400 C   0  0  0  0  0  3  0  0  0  0  0  0
  161.2350  204.2790  144.8560 O   0  0  0  0  0  1  0  0  0  0  0  0
  161.1350  199.6900  146.5500 C   0  0  0  0  0  1  0  0  0  0  0  0
  161.2800  201.6360  148.1070 C   0  0  0  0  0  3  0  0  0  0  0  0
  161.2520  203.4260  145.9530 C   0  0  0  0  0  0  0  0  0  0  0  0
  161.3300  203.9240  147.2730 C   0  0  0  0  0  0  0  0  0  0  0  0
  161.1890  202.0470  145.7270 C   0  0  0  0  0  3  0  0  0  0  0  0
  1 11  1  0  0  0  0
  1 17  1  0  0  0  0
  2  3  1  0  0  0  0
  3  9  1  0  0  0  0
  3 22  2  0  0  0  0
  4  5  2  0  0  0  0
  5 16  1  0  0  0  0
  6 13  1  0  0  0  0
  7 17  2  0  0  0  0
  7  2  1  0  0  0  0
  8  1  2  0  0  0  0
  9  6  1  0  0  0  0
 10 15  1  0  0  0  0
 12 22  1  0  0  0  0
 14 19  1  0  0  0  0
 14 10  2  0  0  0  0
 15  2  2  0  0  0  0
 15 21  1  0  0  0  0
 16 10  1  0  0  0  0
 18 13  1  0  0  0  0
 19  7  1  0  0  0  0
 20  8  1  0  0  0  0
 20 19  2  0  0  0  0
 21 12  2  0  0  0  0
 22 23  1  0  0  0  0
 23 18  1  0  0  0  0
 24 28  1  0  0  0  0
 26 29  1  0  0  0  0
 27 24  1  0  0  0  0
 28 25  2  0  0  0  0
 29 30  2  0  0  0  0
 30  5  1  0  0  0  0
 30 25  1  0  0  0  0
 31 29  1  0  0  0  0
 31 24  2  0  0  0  0
M  END
>  <MODEL>
4

>  <REMARK>
 VINA RESULT:      -8.2      3.133      7.633
  Name = 
  1 active torsions:
  status: ('A' for Active; 'I' for Inactive)
    1  A    between atoms: C_9  and  C_22
                            x       y       z     vdW  Elec       q    Type
                         _______ _______ _______ _____ _____    ______ ____

>  <TORSDO>
F 1

$$$$
