=
 OpenBabel11062410473D

 32 36  0  0  1  0  0  0  0  0999 V2000
  160.9420  209.7340  155.6640 C   0  0  1  0  0  3  0  0  0  0  0  0
  161.0590  207.5200  150.9580 C   0  0  2  0  0  3  0  0  0  0  0  0
  160.9900  202.7450  151.8480 C   0  0  0  0  0  3  0  0  0  0  0  0
  160.8330  202.5050  150.4790 C   0  0  0  0  0  3  0  0  0  0  0  0
  161.1910  209.0660  152.8630 C   0  0  0  0  0  0  0  0  0  0  0  0
  161.1640  206.6860  153.3080 N   0  0  0  0  0  0  0  0  0  0  0  0
  161.2940  208.3070  155.2610 C   0  0  0  0  0  2  0  0  0  0  0  0
  161.0770  204.0550  152.3270 C   0  0  0  0  0  3  0  0  0  0  0  0
  161.0900  206.3940  151.9030 C   0  0  0  0  0  0  0  0  0  0  0  0
  161.0240  205.1390  151.4360 C   0  0  0  0  0  0  0  0  0  0  0  0
  160.8620  205.9220  149.1390 C   0  0  0  0  0  0  0  0  0  0  0  0
  161.5830  210.7470  154.7180 C   0  0  0  0  0  2  0  0  0  0  0  0
  161.1920  208.0510  153.7690 C   0  0  0  0  0  0  0  0  0  0  0  0
  161.1570  210.5150  153.2790 C   0  0  0  0  0  2  0  0  0  0  0  0
  160.7800  203.5670  149.5800 C   0  0  0  0  0  3  0  0  0  0  0  0
  160.8860  204.8950  150.0310 C   0  0  0  0  0  0  0  0  0  0  0  0
  161.1090  208.7750  151.4120 C   0  0  0  0  0  3  0  0  0  0  0  0
  160.9650  207.2500  149.5910 O   0  0  0  0  0  0  0  0  0  0  0  0
  159.4370  209.9470  155.7950 C   0  0  0  0  0  2  0  0  0  0  0  0
  159.1210  211.3450  156.0710 N   0  0  0  0  0  2  0  0  0  0  0  0
  158.1960  212.0780  155.2920 N   0  0  0  0  0  0  0  0  0  0  0  0
  157.6300  213.0740  155.7930 O   0  0  0  0  0  0  0  0  0  0  0  0
  157.7690  211.5990  154.0710 O   0  0  0  0  0  0  0  0  0  0  0  0
  160.7630  205.6890  147.6590 C   0  0  0  0  0  2  0  0  0  0  0  0
  162.4130  204.1250  146.7280 C   0  0  1  0  0  3  0  0  0  0  0  0
  162.1360  205.0380  145.6170 C   0  0  2  0  0  3  0  0  0  0  0  0
  162.1260  205.5450  147.0480 N   0  0  0  0  0  0  0  0  0  0  0  0
  161.1450  205.9680  144.8440 C   0  0  0  0  0  3  0  0  0  0  0  0
  159.8020  205.6370  145.0820 O   0  0  0  0  0  1  0  0  0  0  0  0
  161.4080  205.9790  143.4750 O   0  0  0  0  0  1  0  0  0  0  0  0
  161.2660  203.0820  146.7940 C   0  0  0  0  0  2  0  0  0  0  0  0
  161.0180  202.4950  145.3990 C   0  0  0  0  0  1  0  0  0  0  0  0
  1 19  1  6  0  0  0
  2 17  1  1  0  0  0
  2  9  1  0  0  0  0
  3  8  2  0  0  0  0
  4  3  1  0  0  0  0
  5 14  1  0  0  0  0
  5 13  1  0  0  0  0
  6 13  2  0  0  0  0
  7  1  1  0  0  0  0
  9  6  1  0  0  0  0
 10  9  2  0  0  0  0
 10  8  1  0  0  0  0
 11 18  1  0  0  0  0
 11 16  2  0  0  0  0
 12  1  1  0  0  0  0
 13  7  1  0  0  0  0
 14 12  1  0  0  0  0
 15 16  1  0  0  0  0
 15  4  2  0  0  0  0
 16 10  1  0  0  0  0
 17  5  2  0  0  0  0
 18  2  1  0  0  0  0
 19 20  1  0  0  0  0
 21 22  2  0  0  0  0
 21 20  1  0  0  0  0
 23 21  2  0  0  0  0
 24 11  1  0  0  0  0
 25 31  1  1  0  0  0
 25 27  1  0  0  0  0
 26 28  1  1  0  0  0
 26 25  1  0  0  0  0
 26 27  1  0  0  0  0
 27 24  1  0  0  0  0
 28 29  1  0  0  0  0
 30 28  1  0  0  0  0
 32 31  1  0  0  0  0
M  END
>  <MODEL>
1

>  <REMARK>
 VINA RESULT:      -9.4      0.000      0.000
  Name = 
  7 active torsions:
  status: ('A' for Active; 'I' for Inactive)
    1  A    between atoms: N_1  and  N_10
    2  A    between atoms: C_2  and  C_24
    3  A    between atoms: C_6  and  C_7
    4  A    between atoms: N_10  and  C_24
    5  A    between atoms: C_11  and  C_22
    6  A    between atoms: C_16  and  C_27
    7  A    between atoms: C_27  and  N_32
                            x       y       z     vdW  Elec       q    Type
                         _______ _______ _______ _____ _____    ______ ____

>  <TORSDO>
F 7

$$$$
=
 OpenBabel11062410473D

 32 36  0  0  1  0  0  0  0  0999 V2000
  161.1640  201.9960  149.0010 C   0  0  1  0  0  3  0  0  0  0  0  0
  161.1690  206.3460  151.8540 C   0  0  0  0  0  0  0  0  0  0  0  0
  162.1820  209.8880  148.6870 C   0  0  0  0  0  3  0  0  0  0  0  0
  161.9170  210.8350  149.6810 C   0  0  0  0  0  3  0  0  0  0  0  0
  161.2090  204.0200  151.0630 C   0  0  0  0  0  0  0  0  0  0  0  0
  161.7210  205.7830  149.4860 N   0  0  0  0  0  2  0  0  0  0  0  0
  161.7490  203.3690  148.6920 C   0  0  0  0  0  2  0  0  0  0  0  0
  162.0570  208.5240  148.9640 C   0  0  0  0  0  3  0  0  0  0  0  0
  161.5420  206.7850  150.5010 C   0  0  0  0  0  0  0  0  0  0  0  0
  161.6780  208.0940  150.2460 C   0  0  0  0  0  0  0  0  0  0  0  0
  161.0870  208.6770  152.5320 C   0  0  0  0  0  0  0  0  0  0  0  0
  161.4670  201.5790  150.4380 C   0  0  0  0  0  2  0  0  0  0  0  0
  161.5250  204.3900  149.7930 C   0  0  0  0  0  0  0  0  0  0  0  0
  160.9300  202.5860  151.4380 C   0  0  0  0  0  2  0  0  0  0  0  0
  161.5410  210.4280  150.9580 C   0  0  0  0  0  3  0  0  0  0  0  0
  161.4270  209.0620  151.2720 C   0  0  0  0  0  0  0  0  0  0  0  0
  161.0160  205.0460  152.1160 C   0  0  0  0  0  3  0  0  0  0  0  0
  160.9710  207.3100  152.8440 O   0  0  0  0  0  0  0  0  0  0  0  0
  159.6740  201.9150  148.6850 C   0  0  0  0  0  2  0  0  0  0  0  0
  159.4450  201.4340  147.3250 N   0  0  0  0  0  2  0  0  0  0  0  0
  160.4960  201.2870  146.3900 N   0  0  0  0  0  0  0  0  0  0  0  0
  160.6900  202.1860  145.5420 O   0  0  0  0  0  0  0  0  0  0  0  0
  161.1750  200.0910  146.2780 O   0  0  0  0  0  0  0  0  0  0  0  0
  160.8630  209.6720  153.6350 C   0  0  0  0  0  2  0  0  0  0  0  0
  161.1970  209.2610  156.0330 C   0  0  1  0  0  3  0  0  0  0  0  0
  159.9000  209.9390  155.9750 C   0  0  2  0  0  3  0  0  0  0  0  0
  160.3250  208.9980  154.8630 N   0  0  0  0  0  0  0  0  0  0  0  0
  158.9410  210.9710  155.2980 C   0  0  0  0  0  3  0  0  0  0  0  0
  159.3630  212.2960  155.4820 O   0  0  0  0  0  1  0  0  0  0  0  0
  157.6250  210.8150  155.7290 O   0  0  0  0  0  1  0  0  0  0  0  0
  162.3090  210.3370  155.9290 C   0  0  0  0  0  2  0  0  0  0  0  0
  162.4320  211.0880  157.2610 C   0  0  0  0  0  1  0  0  0  0  0  0
  1 19  1  1  0  0  0
  1 12  1  0  0  0  0
  2 17  2  0  0  0  0
  2 18  1  0  0  0  0
  3  8  2  0  0  0  0
  3  4  1  0  0  0  0
  4 15  2  0  0  0  0
  5 14  1  0  0  0  0
  5 17  1  0  0  0  0
  6 13  1  0  0  0  0
  6  9  1  0  0  0  0
  7  1  1  0  0  0  0
  7 13  1  0  0  0  0
  8 10  1  0  0  0  0
  9  2  1  0  0  0  0
 10  9  2  0  0  0  0
 10 16  1  0  0  0  0
 11 18  1  0  0  0  0
 11 24  1  0  0  0  0
 12 14  1  0  0  0  0
 13  5  2  0  0  0  0
 15 16  1  0  0  0  0
 16 11  2  0  0  0  0
 20 19  1  0  0  0  0
 21 20  1  0  0  0  0
 22 21  2  0  0  0  0
 23 21  2  0  0  0  0
 24 27  1  0  0  0  0
 25 31  1  6  0  0  0
 26 28  1  6  0  0  0
 26 25  1  0  0  0  0
 27 26  1  0  0  0  0
 27 25  1  0  0  0  0
 28 29  1  0  0  0  0
 28 30  1  0  0  0  0
 31 32  1  0  0  0  0
M  END
>  <MODEL>
2

>  <REMARK>
 VINA RESULT:      -7.8      2.366      9.436
  Name = 
  7 active torsions:
  status: ('A' for Active; 'I' for Inactive)
    1  A    between atoms: N_1  and  N_10
    2  A    between atoms: C_2  and  C_24
    3  A    between atoms: C_6  and  C_7
    4  A    between atoms: N_10  and  C_24
    5  A    between atoms: C_11  and  C_22
    6  A    between atoms: C_16  and  C_27
    7  A    between atoms: C_27  and  N_32
                            x       y       z     vdW  Elec       q    Type
                         _______ _______ _______ _____ _____    ______ ____

>  <TORSDO>
F 7

$$$$
=
 OpenBabel11062410473D

 32 36  0  0  1  0  0  0  0  0999 V2000
  161.3260  202.1570  147.3580 C   0  0  1  0  0  3  0  0  0  0  0  0
  160.9940  205.9030  150.9540 C   0  0  0  0  0  0  0  0  0  0  0  0
  162.3560  209.9500  148.6360 C   0  0  0  0  0  3  0  0  0  0  0  0
  161.9760  210.7020  149.7520 C   0  0  0  0  0  3  0  0  0  0  0  0
  161.1300  203.7630  149.7540 C   0  0  0  0  0  0  0  0  0  0  0  0
  161.8150  205.7780  148.6000 N   0  0  0  0  0  2  0  0  0  0  0  0
  161.9400  203.5520  147.3790 C   0  0  0  0  0  2  0  0  0  0  0  0
  162.2030  208.5600  148.6380 C   0  0  0  0  0  3  0  0  0  0  0  0
  161.5180  206.5770  149.7570 C   0  0  0  0  0  0  0  0  0  0  0  0
  161.6800  207.9080  149.7670 C   0  0  0  0  0  0  0  0  0  0  0  0
  160.8300  208.0690  152.0400 C   0  0  0  0  0  0  0  0  0  0  0  0
  161.4630  201.4750  148.7180 C   0  0  0  0  0  2  0  0  0  0  0  0
  161.5880  204.3560  148.6180 C   0  0  0  0  0  0  0  0  0  0  0  0
  160.8120  202.2900  149.8210 C   0  0  0  0  0  2  0  0  0  0  0  0
  161.4570  210.0720  150.8810 C   0  0  0  0  0  3  0  0  0  0  0  0
  161.3110  208.6740  150.9200 C   0  0  0  0  0  0  0  0  0  0  0  0
  160.8140  204.5800  150.9500 C   0  0  0  0  0  3  0  0  0  0  0  0
  160.6810  206.6710  152.0770 O   0  0  0  0  0  0  0  0  0  0  0  0
  159.8820  202.1650  146.8670 C   0  0  0  0  0  2  0  0  0  0  0  0
  159.8150  202.0190  145.4150 N   0  0  0  0  0  2  0  0  0  0  0  0
  159.7060  203.1320  144.5500 N   0  0  0  0  0  0  0  0  0  0  0  0
  160.5960  204.0110  144.5700 O   0  0  0  0  0  0  0  0  0  0  0  0
  158.5480  203.3580  143.8350 O   0  0  0  0  0  0  0  0  0  0  0  0
  160.4790  208.8470  153.2760 C   0  0  0  0  0  2  0  0  0  0  0  0
  161.4690  210.7670  154.4430 C   0  0  1  0  0  3  0  0  0  0  0  0
  161.5760  209.6770  155.4160 C   0  0  2  0  0  3  0  0  0  0  0  0
  161.7110  209.3960  153.9310 N   0  0  0  0  0  0  0  0  0  0  0  0
  161.0150  208.3570  156.0360 C   0  0  0  0  0  3  0  0  0  0  0  0
  159.7060  208.5050  156.5210 O   0  0  0  0  0  1  0  0  0  0  0  0
  161.8500  207.8590  157.0350 O   0  0  0  0  0  1  0  0  0  0  0  0
  160.0200  211.3180  154.4920 C   0  0  0  0  0  2  0  0  0  0  0  0
  159.7940  212.2850  153.3230 C   0  0  0  0  0  1  0  0  0  0  0  0
  1 19  1  1  0  0  0
  1  7  1  0  0  0  0
  1 12  1  0  0  0  0
  2 18  1  0  0  0  0
  3  8  2  0  0  0  0
  3  4  1  0  0  0  0
  4 15  2  0  0  0  0
  5 14  1  0  0  0  0
  5 17  1  0  0  0  0
  6 13  1  0  0  0  0
  6  9  1  0  0  0  0
  7 13  1  0  0  0  0
  8 10  1  0  0  0  0
  9 10  2  0  0  0  0
  9  2  1  0  0  0  0
 10 16  1  0  0  0  0
 11 18  1  0  0  0  0
 11 24  1  0  0  0  0
 12 14  1  0  0  0  0
 13  5  2  0  0  0  0
 15 16  1  0  0  0  0
 16 11  2  0  0  0  0
 17  2  2  0  0  0  0
 20 19  1  0  0  0  0
 21 22  2  0  0  0  0
 21 20  1  0  0  0  0
 23 21  2  0  0  0  0
 24 27  1  0  0  0  0
 25 31  1  6  0  0  0
 25 26  1  0  0  0  0
 26 28  1  6  0  0  0
 27 25  1  0  0  0  0
 27 26  1  0  0  0  0
 28 29  1  0  0  0  0
 28 30  1  0  0  0  0
 32 31  1  0  0  0  0
M  END
>  <MODEL>
3

>  <REMARK>
 VINA RESULT:      -7.5      2.384      9.356
  Name = 
  7 active torsions:
  status: ('A' for Active; 'I' for Inactive)
    1  A    between atoms: N_1  and  N_10
    2  A    between atoms: C_2  and  C_24
    3  A    between atoms: C_6  and  C_7
    4  A    between atoms: N_10  and  C_24
    5  A    between atoms: C_11  and  C_22
    6  A    between atoms: C_16  and  C_27
    7  A    between atoms: C_27  and  N_32
                            x       y       z     vdW  Elec       q    Type
                         _______ _______ _______ _____ _____    ______ ____

>  <TORSDO>
F 7

$$$$
=
 OpenBabel11062410473D

 32 36  0  0  1  0  0  0  0  0999 V2000
  160.6420  209.0530  156.5690 C   0  0  1  0  0  3  0  0  0  0  0  0
  161.1120  206.0930  152.3160 C   0  0  2  0  0  3  0  0  0  0  0  0
  161.9900  209.2410  148.7220 C   0  0  0  0  0  3  0  0  0  0  0  0
  162.2420  208.1690  147.8610 C   0  0  0  0  0  3  0  0  0  0  0  0
  160.6290  206.9770  154.5570 C   0  0  0  0  0  0  0  0  0  0  0  0
  161.0600  208.5470  152.7660 N   0  0  0  0  0  0  0  0  0  0  0  0
  160.5650  209.4360  155.0950 C   0  0  0  0  0  2  0  0  0  0  0  0
  161.6520  209.0070  150.0580 C   0  0  0  0  0  3  0  0  0  0  0  0
  161.2420  207.4740  151.8280 C   0  0  0  0  0  0  0  0  0  0  0  0
  161.5490  207.6920  150.5410 C   0  0  0  0  0  0  0  0  0  0  0  0
  161.6630  205.3060  150.0850 C   0  0  0  0  0  0  0  0  0  0  0  0
  159.8700  207.7640  156.8430 C   0  0  0  0  0  2  0  0  0  0  0  0
  160.7720  208.2670  154.1490 C   0  0  0  0  0  0  0  0  0  0  0  0
  160.3890  206.6120  156.0000 C   0  0  0  0  0  2  0  0  0  0  0  0
  162.1430  206.8580  148.3220 C   0  0  0  0  0  3  0  0  0  0  0  0
  161.7850  206.5910  149.6550 C   0  0  0  0  0  0  0  0  0  0  0  0
  160.8210  205.8620  153.5990 C   0  0  0  0  0  3  0  0  0  0  0  0
  161.3070  205.0410  151.4200 O   0  0  0  0  0  0  0  0  0  0  0  0
  162.0790  208.9780  157.0750 C   0  0  0  0  0  2  0  0  0  0  0  0
  162.6460  210.3110  157.2600 N   0  0  0  0  0  2  0  0  0  0  0  0
  163.6020  210.8540  156.3710 N   0  0  0  0  0  0  0  0  0  0  0  0
  164.5280  211.5610  156.8270 O   0  0  0  0  0  0  0  0  0  0  0  0
  163.4180  210.7770  155.0060 O   0  0  0  0  0  0  0  0  0  0  0  0
  161.8610  204.1370  149.1640 C   0  0  0  0  0  2  0  0  0  0  0  0
  160.8590  203.7330  146.9580 C   0  0  1  0  0  3  0  0  0  0  0  0
  160.5980  202.4910  147.6900 C   0  0  2  0  0  3  0  0  0  0  0  0
  160.5990  203.8250  148.4160 N   0  0  0  0  0  0  0  0  0  0  0  0
  161.0240  201.4380  148.7630 C   0  0  0  0  0  3  0  0  0  0  0  0
  161.6780  200.3320  148.1980 O   0  0  0  0  0  1  0  0  0  0  0  0
  159.9420  201.0200  149.5360 O   0  0  0  0  0  1  0  0  0  0  0  0
  162.3230  203.6940  146.4460 C   0  0  0  0  0  2  0  0  0  0  0  0
  162.5200  204.7570  145.3580 C   0  0  0  0  0  1  0  0  0  0  0  0
  1 12  1  0  0  0  0
  1 19  1  6  0  0  0
  2 17  1  1  0  0  0
  3  8  2  0  0  0  0
  4 15  2  0  0  0  0
  4  3  1  0  0  0  0
  5 14  1  0  0  0  0
  6 13  2  0  0  0  0
  7  1  1  0  0  0  0
  8 10  1  0  0  0  0
  9  2  1  0  0  0  0
  9  6  1  0  0  0  0
 10  9  2  0  0  0  0
 11 18  1  0  0  0  0
 13  5  1  0  0  0  0
 13  7  1  0  0  0  0
 14 12  1  0  0  0  0
 15 16  1  0  0  0  0
 16 11  2  0  0  0  0
 16 10  1  0  0  0  0
 17  5  2  0  0  0  0
 18  2  1  0  0  0  0
 19 20  1  0  0  0  0
 21 22  2  0  0  0  0
 21 20  1  0  0  0  0
 23 21  2  0  0  0  0
 24 11  1  0  0  0  0
 25 31  1  1  0  0  0
 25 26  1  0  0  0  0
 25 27  1  0  0  0  0
 26 27  1  0  0  0  0
 26 28  1  1  0  0  0
 27 24  1  0  0  0  0
 28 30  1  0  0  0  0
 29 28  1  0  0  0  0
 32 31  1  0  0  0  0
M  END
>  <MODEL>
4

>  <REMARK>
 VINA RESULT:      -7.4      2.973      4.153
  Name = 
  7 active torsions:
  status: ('A' for Active; 'I' for Inactive)
    1  A    between atoms: N_1  and  N_10
    2  A    between atoms: C_2  and  C_24
    3  A    between atoms: C_6  and  C_7
    4  A    between atoms: N_10  and  C_24
    5  A    between atoms: C_11  and  C_22
    6  A    between atoms: C_16  and  C_27
    7  A    between atoms: C_27  and  N_32
                            x       y       z     vdW  Elec       q    Type
                         _______ _______ _______ _____ _____    ______ ____

>  <TORSDO>
F 7

$$$$
=
 OpenBabel11062410473D

 32 36  0  0  1  0  0  0  0  0999 V2000
  161.2350  213.6060  149.3840 C   0  0  1  0  0  3  0  0  0  0  0  0
  161.7780  208.4330  149.4390 C   0  0  2  0  0  3  0  0  0  0  0  0
  160.9620  207.1640  154.0580 C   0  0  0  0  0  3  0  0  0  0  0  0
  160.9860  205.8180  153.6790 C   0  0  0  0  0  3  0  0  0  0  0  0
  161.8180  210.8220  148.8700 C   0  0  0  0  0  0  0  0  0  0  0  0
  161.4180  210.1920  151.1730 N   0  0  0  0  0  0  0  0  0  0  0  0
  161.4580  212.6570  150.5560 C   0  0  0  0  0  2  0  0  0  0  0  0
  161.1440  208.1670  153.1010 C   0  0  0  0  0  3  0  0  0  0  0  0
  161.5210  208.7980  150.8410 C   0  0  0  0  0  0  0  0  0  0  0  0
  161.3660  207.8310  151.7560 C   0  0  0  0  0  0  0  0  0  0  0  0
  161.6560  206.0930  150.0800 C   0  0  0  0  0  0  0  0  0  0  0  0
  162.1370  213.2460  148.2050 C   0  0  0  0  0  2  0  0  0  0  0  0
  161.5510  211.1970  150.1500 C   0  0  0  0  0  0  0  0  0  0  0  0
  161.9080  211.8190  147.7420 C   0  0  0  0  0  2  0  0  0  0  0  0
  161.2060  205.4650  152.3500 C   0  0  0  0  0  3  0  0  0  0  0  0
  161.4120  206.4520  151.3690 C   0  0  0  0  0  0  0  0  0  0  0  0
  161.9200  209.3860  148.5160 C   0  0  0  0  0  3  0  0  0  0  0  0
  161.8590  207.0810  149.0990 O   0  0  0  0  0  0  0  0  0  0  0  0
  159.7680  213.6910  148.9760 C   0  0  0  0  0  2  0  0  0  0  0  0
  158.8890  213.6260  150.1410 N   0  0  0  0  0  2  0  0  0  0  0  0
  157.4840  213.5150  150.0210 N   0  0  0  0  0  0  0  0  0  0  0  0
  157.0000  212.9520  149.0140 O   0  0  0  0  0  0  0  0  0  0  0  0
  156.6480  214.1840  150.8900 O   0  0  0  0  0  0  0  0  0  0  0  0
  161.7540  204.6540  149.6590 C   0  0  0  0  0  2  0  0  0  0  0  0
  161.2070  204.2500  147.2990 C   0  0  1  0  0  3  0  0  0  0  0  0
  160.8610  202.9870  147.9560 C   0  0  2  0  0  3  0  0  0  0  0  0
  160.6700  204.3070  148.6810 N   0  0  0  0  0  0  0  0  0  0  0  0
  161.1160  201.9330  149.0810 C   0  0  0  0  0  3  0  0  0  0  0  0
  161.6840  200.7480  148.5860 O   0  0  0  0  0  1  0  0  0  0  0  0
  159.9560  201.6520  149.8010 O   0  0  0  0  0  1  0  0  0  0  0  0
  162.7410  204.2740  147.0760 C   0  0  0  0  0  2  0  0  0  0  0  0
  163.0490  204.7030  145.6360 C   0  0  0  0  0  1  0  0  0  0  0  0
  1 19  1  6  0  0  0
  1  7  1  0  0  0  0
  2 17  1  6  0  0  0
  2  9  1  0  0  0  0
  4  3  1  0  0  0  0
  5 13  1  0  0  0  0
  8  3  2  0  0  0  0
  9  6  1  0  0  0  0
  9 10  2  0  0  0  0
 10  8  1  0  0  0  0
 11 16  2  0  0  0  0
 12  1  1  0  0  0  0
 13  7  1  0  0  0  0
 13  6  2  0  0  0  0
 14 12  1  0  0  0  0
 14  5  1  0  0  0  0
 15  4  2  0  0  0  0
 16 10  1  0  0  0  0
 16 15  1  0  0  0  0
 17  5  2  0  0  0  0
 18  2  1  0  0  0  0
 18 11  1  0  0  0  0
 19 20  1  0  0  0  0
 21 20  1  0  0  0  0
 21 23  2  0  0  0  0
 22 21  2  0  0  0  0
 24 11  1  0  0  0  0
 25 31  1  1  0  0  0
 25 26  1  0  0  0  0
 25 27  1  0  0  0  0
 26 27  1  0  0  0  0
 26 28  1  1  0  0  0
 27 24  1  0  0  0  0
 28 30  1  0  0  0  0
 29 28  1  0  0  0  0
 32 31  1  0  0  0  0
M  END
>  <MODEL>
5

>  <REMARK>
 VINA RESULT:      -7.3      3.414      4.727
  Name = 
  7 active torsions:
  status: ('A' for Active; 'I' for Inactive)
    1  A    between atoms: N_1  and  N_10
    2  A    between atoms: C_2  and  C_24
    3  A    between atoms: C_6  and  C_7
    4  A    between atoms: N_10  and  C_24
    5  A    between atoms: C_11  and  C_22
    6  A    between atoms: C_16  and  C_27
    7  A    between atoms: C_27  and  N_32
                            x       y       z     vdW  Elec       q    Type
                         _______ _______ _______ _____ _____    ______ ____

>  <TORSDO>
F 7

$$$$
=
 OpenBabel11062410473D

 32 36  0  0  1  0  0  0  0  0999 V2000
  160.6820  209.2510  156.0510 C   0  0  1  0  0  3  0  0  0  0  0  0
  161.5110  206.9490  151.4600 C   0  0  2  0  0  3  0  0  0  0  0  0
  160.5110  202.2590  152.2430 C   0  0  0  0  0  3  0  0  0  0  0  0
  160.6310  202.0170  150.8710 C   0  0  0  0  0  3  0  0  0  0  0  0
  161.4480  208.4950  153.3680 C   0  0  0  0  0  0  0  0  0  0  0  0
  160.9570  206.1570  153.7610 N   0  0  0  0  0  0  0  0  0  0  0  0
  160.8920  207.7790  155.7170 C   0  0  0  0  0  2  0  0  0  0  0  0
  160.6890  203.5500  152.7480 C   0  0  0  0  0  3  0  0  0  0  0  0
  161.1560  205.8500  152.3710 C   0  0  0  0  0  0  0  0  0  0  0  0
  161.0040  204.6110  151.8830 C   0  0  0  0  0  0  0  0  0  0  0  0
  161.4840  205.3620  149.6210 C   0  0  0  0  0  0  0  0  0  0  0  0
  161.6670  210.1340  155.2870 C   0  0  0  0  0  2  0  0  0  0  0  0
  161.0900  207.5100  154.2360 C   0  0  0  0  0  0  0  0  0  0  0  0
  161.5450  209.9400  153.7860 C   0  0  0  0  0  2  0  0  0  0  0  0
  160.9440  203.0570  149.9980 C   0  0  0  0  0  3  0  0  0  0  0  0
  161.1500  204.3620  150.4800 C   0  0  0  0  0  0  0  0  0  0  0  0
  161.6500  208.1900  151.9310 C   0  0  0  0  0  3  0  0  0  0  0  0
  161.6860  206.6680  150.1040 O   0  0  0  0  0  0  0  0  0  0  0  0
  159.2380  209.6940  155.8420 C   0  0  0  0  0  2  0  0  0  0  0  0
  159.1540  211.1300  155.5890 N   0  0  0  0  0  2  0  0  0  0  0  0
  157.9980  211.7330  155.0430 N   0  0  0  0  0  0  0  0  0  0  0  0
  156.9330  211.0780  154.9910 O   0  0  0  0  0  0  0  0  0  0  0  0
  158.0780  212.9490  154.3940 O   0  0  0  0  0  0  0  0  0  0  0  0
  161.6860  205.1160  148.1530 C   0  0  0  0  0  2  0  0  0  0  0  0
  160.7730  207.1410  147.1060 C   0  0  1  0  0  3  0  0  0  0  0  0
  160.9460  206.2180  145.9820 C   0  0  2  0  0  3  0  0  0  0  0  0
  160.5570  205.6950  147.3530 N   0  0  0  0  0  0  0  0  0  0  0  0
  161.7240  205.0480  145.3000 C   0  0  0  0  0  3  0  0  0  0  0  0
  163.0340  205.4070  144.9480 O   0  0  0  0  0  1  0  0  0  0  0  0
  161.0430  204.5500  144.1900 O   0  0  0  0  0  1  0  0  0  0  0  0
  162.1530  207.7720  147.4300 C   0  0  0  0  0  2  0  0  0  0  0  0
  161.9770  208.9140  148.4380 C   0  0  0  0  0  1  0  0  0  0  0  0
  1 19  1  6  0  0  0
  2 17  1  6  0  0  0
  2  9  1  0  0  0  0
  3  8  2  0  0  0  0
  4  3  1  0  0  0  0
  5 14  1  0  0  0  0
  5 13  1  0  0  0  0
  6 13  2  0  0  0  0
  7  1  1  0  0  0  0
  9  6  1  0  0  0  0
 10  9  2  0  0  0  0
 10  8  1  0  0  0  0
 11 18  1  0  0  0  0
 11 16  2  0  0  0  0
 12  1  1  0  0  0  0
 13  7  1  0  0  0  0
 14 12  1  0  0  0  0
 15 16  1  0  0  0  0
 15  4  2  0  0  0  0
 16 10  1  0  0  0  0
 17  5  2  0  0  0  0
 18  2  1  0  0  0  0
 20 19  1  0  0  0  0
 21 20  1  0  0  0  0
 22 21  2  0  0  0  0
 23 21  2  0  0  0  0
 24 11  1  0  0  0  0
 25 27  1  0  0  0  0
 25 31  1  1  0  0  0
 26 28  1  1  0  0  0
 26 25  1  0  0  0  0
 26 27  1  0  0  0  0
 27 24  1  0  0  0  0
 29 28  1  0  0  0  0
 30 28  1  0  0  0  0
 31 32  1  0  0  0  0
M  END
>  <MODEL>
6

>  <REMARK>
 VINA RESULT:      -6.6      1.211      1.995
  Name = 
  7 active torsions:
  status: ('A' for Active; 'I' for Inactive)
    1  A    between atoms: N_1  and  N_10
    2  A    between atoms: C_2  and  C_24
    3  A    between atoms: C_6  and  C_7
    4  A    between atoms: N_10  and  C_24
    5  A    between atoms: C_11  and  C_22
    6  A    between atoms: C_16  and  C_27
    7  A    between atoms: C_27  and  N_32
                            x       y       z     vdW  Elec       q    Type
                         _______ _______ _______ _____ _____    ______ ____

>  <TORSDO>
F 7

$$$$
=
 OpenBabel11062410473D

 32 36  0  0  1  0  0  0  0  0999 V2000
  161.5780  212.8690  149.7290 C   0  0  1  0  0  3  0  0  0  0  0  0
  161.4300  207.7910  148.6090 C   0  0  2  0  0  3  0  0  0  0  0  0
  161.1780  205.5890  152.9330 C   0  0  0  0  0  3  0  0  0  0  0  0
  160.9630  204.3680  152.2840 C   0  0  0  0  0  3  0  0  0  0  0  0
  161.6990  210.2320  148.5510 C   0  0  0  0  0  0  0  0  0  0  0  0
  161.5800  209.1350  150.7060 N   0  0  0  0  0  0  0  0  0  0  0  0
  161.8520  211.6610  150.6190 C   0  0  0  0  0  2  0  0  0  0  0  0
  161.3410  206.7610  152.1890 C   0  0  0  0  0  3  0  0  0  0  0  0
  161.4440  207.8500  150.0790 C   0  0  0  0  0  0  0  0  0  0  0  0
  161.3050  206.7200  150.7860 C   0  0  0  0  0  0  0  0  0  0  0  0
  161.0980  205.3890  148.7610 C   0  0  0  0  0  0  0  0  0  0  0  0
  162.2310  212.7020  148.3590 C   0  0  0  0  0  2  0  0  0  0  0  0
  161.6860  210.3300  149.9080 C   0  0  0  0  0  0  0  0  0  0  0  0
  161.7450  211.4460  147.6580 C   0  0  0  0  0  2  0  0  0  0  0  0
  160.9260  204.3080  150.8940 C   0  0  0  0  0  3  0  0  0  0  0  0
  161.1080  205.4670  150.1190 C   0  0  0  0  0  0  0  0  0  0  0  0
  161.5530  208.9110  147.8940 C   0  0  0  0  0  3  0  0  0  0  0  0
  161.2770  206.5500  147.9870 O   0  0  0  0  0  0  0  0  0  0  0  0
  160.0900  213.1840  149.6200 C   0  0  0  0  0  2  0  0  0  0  0  0
  159.8320  214.1670  148.5710 N   0  0  0  0  0  2  0  0  0  0  0  0
  158.7900  214.0090  147.6280 N   0  0  0  0  0  0  0  0  0  0  0  0
  159.0730  213.6800  146.4550 O   0  0  0  0  0  0  0  0  0  0  0  0
  157.5020  214.3990  147.9300 O   0  0  0  0  0  0  0  0  0  0  0  0
  160.9380  204.0810  148.0400 C   0  0  0  0  0  2  0  0  0  0  0  0
  162.1410  202.3960  146.7190 C   0  0  1  0  0  3  0  0  0  0  0  0
  161.7530  203.4020  145.7270 C   0  0  2  0  0  3  0  0  0  0  0  0
  162.1110  203.8170  147.1430 N   0  0  0  0  0  0  0  0  0  0  0  0
  160.7490  204.4860  145.2210 C   0  0  0  0  0  3  0  0  0  0  0  0
  159.7040  203.9370  144.4620 O   0  0  0  0  0  1  0  0  0  0  0  0
  161.3920  205.4940  144.5040 O   0  0  0  0  0  1  0  0  0  0  0  0
  160.9110  201.4920  146.9960 C   0  0  0  0  0  2  0  0  0  0  0  0
  161.1920  200.5890  148.2030 C   0  0  0  0  0  1  0  0  0  0  0  0
  1 19  1  6  0  0  0
  1  7  1  0  0  0  0
  2 17  1  1  0  0  0
  2  9  1  0  0  0  0
  4  3  1  0  0  0  0
  5 13  1  0  0  0  0
  8  3  2  0  0  0  0
  9  6  1  0  0  0  0
  9 10  2  0  0  0  0
 10  8  1  0  0  0  0
 11 16  2  0  0  0  0
 12  1  1  0  0  0  0
 13  7  1  0  0  0  0
 13  6  2  0  0  0  0
 14 12  1  0  0  0  0
 14  5  1  0  0  0  0
 15  4  2  0  0  0  0
 16 10  1  0  0  0  0
 16 15  1  0  0  0  0
 17  5  2  0  0  0  0
 18  2  1  0  0  0  0
 18 11  1  0  0  0  0
 20 19  1  0  0  0  0
 21 23  2  0  0  0  0
 21 20  1  0  0  0  0
 22 21  2  0  0  0  0
 24 11  1  0  0  0  0
 25 31  1  1  0  0  0
 25 27  1  0  0  0  0
 26 28  1  1  0  0  0
 26 25  1  0  0  0  0
 26 27  1  0  0  0  0
 27 24  1  0  0  0  0
 29 28  1  0  0  0  0
 30 28  1  0  0  0  0
 31 32  1  0  0  0  0
M  END
>  <MODEL>
7

>  <REMARK>
 VINA RESULT:      -6.4      3.494      4.370
  Name = 
  7 active torsions:
  status: ('A' for Active; 'I' for Inactive)
    1  A    between atoms: N_1  and  N_10
    2  A    between atoms: C_2  and  C_24
    3  A    between atoms: C_6  and  C_7
    4  A    between atoms: N_10  and  C_24
    5  A    between atoms: C_11  and  C_22
    6  A    between atoms: C_16  and  C_27
    7  A    between atoms: C_27  and  N_32
                            x       y       z     vdW  Elec       q    Type
                         _______ _______ _______ _____ _____    ______ ____

>  <TORSDO>
F 7

$$$$
