=
 OpenBabel11052421433D

 30 35  0  0  1  0  0  0  0  0999 V2000
  161.2070  207.2930  149.3670 C   0  0  0  0  0  0  0  0  0  0  0  0
  161.0610  205.2140  147.6020 C   0  0  0  0  0  0  0  0  0  0  0  0
  162.1180  204.1520  151.6130 N   0  0  0  0  0  2  0  0  0  0  0  0
  161.1100  207.7660  150.7220 C   0  0  0  0  0  0  0  0  0  0  0  0
  161.6080  208.1910  148.3610 C   0  0  0  0  0  3  0  0  0  0  0  0
  162.1310  211.1930  150.0270 N   0  0  0  0  0  0  0  0  0  0  0  0
  160.0600  209.8230  152.9740 C   0  0  0  0  0  2  0  0  0  0  0  0
  161.8170  209.9130  149.9820 N   0  0  0  0  0  0  0  0  0  0  0  0
  162.2740  210.4840  147.8800 N   0  0  0  0  0  0  0  0  0  0  0  0
  161.2290  206.2070  154.0600 O   0  0  0  0  0  0  0  0  0  0  0  0
  162.6130  205.2900  152.3430 C   0  0  0  0  0  0  0  0  0  0  0  0
  161.8970  209.4990  148.7150 C   0  0  0  0  0  0  0  0  0  0  0  0
  161.4350  209.1150  151.0140 C   0  0  0  0  0  0  0  0  0  0  0  0
  161.0840  203.8360  147.3940 C   0  0  0  0  0  3  0  0  0  0  0  0
  161.3410  207.4240  154.7390 C   0  0  0  0  0  2  0  0  0  0  0  0
  160.1020  209.5770  154.4820 C   0  0  0  0  0  2  0  0  0  0  0  0
  162.8160  212.8870  148.3230 C   0  0  0  0  0  1  0  0  0  0  0  0
  161.0940  206.0630  146.3800 C   0  0  0  0  0  1  0  0  0  0  0  0
  160.8280  204.0900  150.9440 C   0  0  2  0  0  3  0  0  0  0  0  0
  161.0380  202.7190  148.4820 C   0  0  0  0  0  2  0  0  0  0  0  0
  162.4090  211.5210  148.7450 C   0  0  0  0  0  0  0  0  0  0  0  0
  160.9710  205.8650  148.9870 C   0  0  0  0  0  0  0  0  0  0  0  0
  160.6280  206.8760  151.8340 C   0  0  0  0  0  2  0  0  0  0  0  0
  163.8180  205.2870  152.7060 O   0  0  0  0  0  0  0  0  0  0  0  0
  161.7530  206.4540  152.7870 C   0  0  1  0  0  3  0  0  0  0  0  0
  159.9810  208.0980  154.8050 C   0  0  0  0  0  2  0  0  0  0  0  0
  162.5150  210.3600  152.8830 C   0  0  0  0  0  1  0  0  0  0  0  0
  160.9310  203.4160  149.7330 N   0  0  0  0  0  0  0  0  0  0  0  0
  160.8930  204.9090  149.8520 C   0  0  0  0  0  0  0  0  0  0  0  0
  161.3680  209.6330  152.3530 N   0  0  0  0  0  0  0  0  0  0  0  0
  1  4  1  0  0  0  0
  2 22  1  0  0  0  0
  3 11  1  0  0  0  0
  4 13  2  0  0  0  0
  4 23  1  0  0  0  0
  5 12  1  0  0  0  0
  5  1  2  0  0  0  0
  7 16  1  0  0  0  0
  8  6  1  0  0  0  0
  8 13  1  0  0  0  0
  9 12  2  0  0  0  0
  9 21  1  0  0  0  0
 10 15  1  0  0  0  0
 11 24  2  0  0  0  0
 11 25  1  0  0  0  0
 12  8  1  0  0  0  0
 13 30  1  0  0  0  0
 14  2  2  0  0  0  0
 14 20  1  0  0  0  0
 15 26  1  0  0  0  0
 16 26  1  0  0  0  0
 17 21  1  0  0  0  0
 18  2  1  0  0  0  0
 19 29  1  6  0  0  0
 19  3  1  0  0  0  0
 20 28  1  0  0  0  0
 21  6  2  0  0  0  0
 22  1  1  0  0  0  0
 22 29  2  0  0  0  0
 25 23  1  6  0  0  0
 25 10  1  0  0  0  0
 28 29  1  0  0  0  0
 28 19  1  0  0  0  0
 30 27  1  0  0  0  0
 30  7  1  0  0  0  0
M  END
>  <MODEL>
1

>  <REMARK>
 VINA RESULT:      -7.1      0.000      0.000
  Name = 
  0 active torsions:
  status: ('A' for Active; 'I' for Inactive)
                            x       y       z     vdW  Elec       q    Type
                         _______ _______ _______ _____ _____    ______ ____

>  <TORSDO>
F 0

$$$$
=
 OpenBabel11052421433D

 30 35  0  0  1  0  0  0  0  0999 V2000
  161.1770  210.1280  151.6270 C   0  0  0  0  0  0  0  0  0  0  0  0
  161.2320  211.8280  149.4910 C   0  0  0  0  0  0  0  0  0  0  0  0
  158.5720  212.9370  152.6580 N   0  0  0  0  0  2  0  0  0  0  0  0
  160.9510  209.9250  153.0330 C   0  0  0  0  0  0  0  0  0  0  0  0
  161.4650  209.0140  150.8180 C   0  0  0  0  0  3  0  0  0  0  0  0
  161.4160  206.3120  153.0000 N   0  0  0  0  0  0  0  0  0  0  0  0
  161.7730  208.7830  155.9350 C   0  0  0  0  0  2  0  0  0  0  0  0
  161.2880  207.5930  152.7110 N   0  0  0  0  0  0  0  0  0  0  0  0
  161.7970  206.6010  150.7850 N   0  0  0  0  0  0  0  0  0  0  0  0
  159.1840  211.7600  155.6980 O   0  0  0  0  0  0  0  0  0  0  0  0
  158.2580  211.8090  153.4970 C   0  0  0  0  0  0  0  0  0  0  0  0
  161.5190  207.7600  151.4060 C   0  0  0  0  0  0  0  0  0  0  0  0
  161.0070  208.6120  153.5650 C   0  0  0  0  0  0  0  0  0  0  0  0
  160.8320  213.0430  148.9360 C   0  0  0  0  0  3  0  0  0  0  0  0
  159.2520  210.7040  156.6120 C   0  0  0  0  0  2  0  0  0  0  0  0
  161.1360  209.1990  157.2610 C   0  0  0  0  0  2  0  0  0  0  0  0
  161.9560  204.2650  151.6720 C   0  0  0  0  0  1  0  0  0  0  0  0
  161.9030  210.8740  148.5660 C   0  0  0  0  0  1  0  0  0  0  0  0
  159.9170  213.4080  152.3660 C   0  0  2  0  0  3  0  0  0  0  0  0
  160.1310  214.2280  149.6700 C   0  0  0  0  0  2  0  0  0  0  0  0
  161.7210  205.7270  151.8200 C   0  0  0  0  0  0  0  0  0  0  0  0
  161.0480  211.4650  150.9690 C   0  0  0  0  0  0  0  0  0  0  0  0
  160.6990  211.0780  153.9650 C   0  0  0  0  0  2  0  0  0  0  0  0
  157.0720  211.3890  153.5110 O   0  0  0  0  0  0  0  0  0  0  0  0
  159.2440  211.1520  154.4400 C   0  0  1  0  0  3  0  0  0  0  0  0
  160.6460  210.6370  157.2110 C   0  0  0  0  0  2  0  0  0  0  0  0
  159.8210  207.3160  155.3340 C   0  0  0  0  0  1  0  0  0  0  0  0
  160.0230  213.8110  151.0400 N   0  0  0  0  0  0  0  0  0  0  0  0
  160.5050  212.4860  151.5460 C   0  0  0  0  0  0  0  0  0  0  0  0
  160.7740  208.3540  154.9590 N   0  0  0  0  0  0  0  0  0  0  0  0
  1  4  1  0  0  0  0
  2 22  1  0  0  0  0
  3 11  1  0  0  0  0
  4 13  2  0  0  0  0
  4 23  1  0  0  0  0
  5 12  1  0  0  0  0
  5  1  2  0  0  0  0
  7 16  1  0  0  0  0
  8  6  1  0  0  0  0
  8 13  1  0  0  0  0
  9 12  2  0  0  0  0
  9 21  1  0  0  0  0
 10 15  1  0  0  0  0
 11 24  2  0  0  0  0
 11 25  1  0  0  0  0
 12  8  1  0  0  0  0
 13 30  1  0  0  0  0
 14  2  2  0  0  0  0
 14 20  1  0  0  0  0
 15 26  1  0  0  0  0
 17 21  1  0  0  0  0
 18  2  1  0  0  0  0
 19 29  1  6  0  0  0
 19  3  1  0  0  0  0
 20 28  1  0  0  0  0
 21  6  2  0  0  0  0
 22 29  2  0  0  0  0
 22  1  1  0  0  0  0
 25 23  1  6  0  0  0
 25 10  1  0  0  0  0
 26 16  1  0  0  0  0
 28 29  1  0  0  0  0
 28 19  1  0  0  0  0
 30 27  1  0  0  0  0
 30  7  1  0  0  0  0
M  END
>  <MODEL>
2

>  <REMARK>
 VINA RESULT:      -6.0      3.206      6.463
  Name = 
  0 active torsions:
  status: ('A' for Active; 'I' for Inactive)
                            x       y       z     vdW  Elec       q    Type
                         _______ _______ _______ _____ _____    ______ ____

>  <TORSDO>
F 0

$$$$
=
 OpenBabel11052421433D

 30 35  0  0  1  0  0  0  0  0999 V2000
  161.2060  209.7470  151.0650 C   0  0  0  0  0  0  0  0  0  0  0  0
  162.1550  207.1920  151.2200 C   0  0  0  0  0  0  0  0  0  0  0  0
  161.2110  209.0340  154.9680 N   0  0  0  0  0  2  0  0  0  0  0  0
  160.4100  210.8010  151.6360 C   0  0  0  0  0  0  0  0  0  0  0  0
  161.9560  210.0140  149.9060 C   0  0  0  0  0  3  0  0  0  0  0  0
  161.2890  213.3440  149.1800 N   0  0  0  0  0  0  0  0  0  0  0  0
  158.1890  213.1330  151.4600 C   0  0  0  0  0  2  0  0  0  0  0  0
  161.1680  212.2530  149.9110 N   0  0  0  0  0  0  0  0  0  0  0  0
  162.5370  211.7000  148.2460 N   0  0  0  0  0  0  0  0  0  0  0  0
  159.0340  211.5360  154.9750 O   0  0  0  0  0  0  0  0  0  0  0  0
  161.1670  210.4680  154.8500 C   0  0  0  0  0  0  0  0  0  0  0  0
  161.9010  211.2850  149.3560 C   0  0  0  0  0  0  0  0  0  0  0  0
  160.4120  212.0820  151.0270 C   0  0  0  0  0  0  0  0  0  0  0  0
  162.4160  206.0730  152.0110 C   0  0  0  0  0  3  0  0  0  0  0  0
  158.6740  212.8480  154.6520 C   0  0  0  0  0  2  0  0  0  0  0  0
  157.5110  213.7980  152.6570 C   0  0  0  0  0  2  0  0  0  0  0  0
  162.5460  213.9250  147.1000 C   0  0  0  0  0  1  0  0  0  0  0  0
  162.6980  207.1570  149.8350 C   0  0  0  0  0  1  0  0  0  0  0  0
  160.4280  208.1090  154.1640 C   0  0  2  0  0  3  0  0  0  0  0  0
  161.9560  205.8310  153.4810 C   0  0  0  0  0  2  0  0  0  0  0  0
  162.1240  212.9910  148.1770 C   0  0  0  0  0  0  0  0  0  0  0  0
  161.3320  208.3950  151.6930 C   0  0  0  0  0  0  0  0  0  0  0  0
  159.5380  210.5660  152.8370 C   0  0  0  0  0  2  0  0  0  0  0  0
  162.0320  211.1440  155.4660 O   0  0  0  0  0  0  0  0  0  0  0  0
  160.0860  211.2260  154.1070 C   0  0  1  0  0  3  0  0  0  0  0  0
  157.3970  212.8400  153.8310 C   0  0  0  0  0  2  0  0  0  0  0  0
  160.3040  214.4530  151.7870 C   0  0  0  0  0  1  0  0  0  0  0  0
  161.1790  206.9890  153.8280 N   0  0  0  0  0  0  0  0  0  0  0  0
  160.9370  208.1370  152.8960 C   0  0  0  0  0  0  0  0  0  0  0  0
  159.6460  213.1720  151.5660 N   0  0  0  0  0  0  0  0  0  0  0  0
  1  4  1  0  0  0  0
  1 22  1  0  0  0  0
  2 22  1  0  0  0  0
  2 14  2  0  0  0  0
  4 23  1  0  0  0  0
  5  1  2  0  0  0  0
  6  8  1  0  0  0  0
  7 30  1  0  0  0  0
  7 16  1  0  0  0  0
  8 13  1  0  0  0  0
  9 12  2  0  0  0  0
 11  3  1  0  0  0  0
 11 24  2  0  0  0  0
 12  5  1  0  0  0  0
 12  8  1  0  0  0  0
 13 30  1  0  0  0  0
 13  4  2  0  0  0  0
 14 20  1  0  0  0  0
 15 10  1  0  0  0  0
 16 26  1  0  0  0  0
 17 21  1  0  0  0  0
 18  2  1  0  0  0  0
 19 29  1  6  0  0  0
 19  3  1  0  0  0  0
 20 28  1  0  0  0  0
 21  9  1  0  0  0  0
 21  6  2  0  0  0  0
 22 29  2  0  0  0  0
 25 23  1  6  0  0  0
 25 11  1  0  0  0  0
 25 10  1  0  0  0  0
 26 15  1  0  0  0  0
 28 19  1  0  0  0  0
 29 28  1  0  0  0  0
 30 27  1  0  0  0  0
M  END
>  <MODEL>
3

>  <REMARK>
 VINA RESULT:      -5.7      2.894      4.429
  Name = 
  0 active torsions:
  status: ('A' for Active; 'I' for Inactive)
                            x       y       z     vdW  Elec       q    Type
                         _______ _______ _______ _____ _____    ______ ____

>  <TORSDO>
F 0

$$$$
=
 OpenBabel11052421433D

 30 35  0  0  1  0  0  0  0  0999 V2000
  160.4820  209.7790  152.6660 C   0  0  0  0  0  0  0  0  0  0  0  0
  161.1320  207.4220  153.8810 C   0  0  0  0  0  0  0  0  0  0  0  0
  159.9200  210.5740  156.5120 N   0  0  0  0  0  2  0  0  0  0  0  0
  159.7340  211.0070  152.6850 C   0  0  0  0  0  0  0  0  0  0  0  0
  161.3950  209.5560  151.6200 C   0  0  0  0  0  3  0  0  0  0  0  0
  161.1750  212.4030  149.6440 N   0  0  0  0  0  0  0  0  0  0  0  0
  157.8080  213.2140  151.3340 C   0  0  0  0  0  2  0  0  0  0  0  0
  160.8500  211.6720  150.6920 N   0  0  0  0  0  0  0  0  0  0  0  0
  162.3530  210.4690  149.5750 N   0  0  0  0  0  0  0  0  0  0  0  0
  158.0320  213.0040  155.2750 O   0  0  0  0  0  0  0  0  0  0  0  0
  160.0410  211.8610  155.8770 C   0  0  0  0  0  0  0  0  0  0  0  0
  161.5420  210.5310  150.6460 C   0  0  0  0  0  0  0  0  0  0  0  0
  159.9460  211.9670  151.6630 C   0  0  0  0  0  0  0  0  0  0  0  0
  161.1740  206.6670  155.0530 C   0  0  0  0  0  3  0  0  0  0  0  0
  157.8550  214.1170  154.4460 C   0  0  0  0  0  2  0  0  0  0  0  0
  157.0570  214.3110  152.0880 C   0  0  0  0  0  2  0  0  0  0  0  0
  162.7380  212.1030  147.7180 C   0  0  0  0  0  1  0  0  0  0  0  0
  161.8380  206.8450  152.7040 C   0  0  0  0  0  1  0  0  0  0  0  0
  159.1530  209.4560  155.9860 C   0  0  2  0  0  3  0  0  0  0  0  0
  160.5090  207.0150  156.4200 C   0  0  0  0  0  2  0  0  0  0  0  0
  162.0890  211.6600  148.9810 C   0  0  0  0  0  0  0  0  0  0  0  0
  160.3860  208.7550  153.7520 C   0  0  0  0  0  0  0  0  0  0  0  0
  158.6970  211.2830  153.7390 C   0  0  0  0  0  2  0  0  0  0  0  0
  160.8870  212.6740  156.3340 O   0  0  0  0  0  0  0  0  0  0  0  0
  159.1470  212.3400  154.7530 C   0  0  1  0  0  3  0  0  0  0  0  0
  156.6960  213.8670  153.4960 C   0  0  0  0  0  2  0  0  0  0  0  0
  159.9900  214.4530  151.4860 C   0  0  0  0  0  1  0  0  0  0  0  0
  159.8200  208.2560  156.1990 N   0  0  0  0  0  0  0  0  0  0  0  0
  159.8180  208.9830  154.8890 C   0  0  0  0  0  0  0  0  0  0  0  0
  159.2350  213.2160  151.6440 N   0  0  0  0  0  0  0  0  0  0  0  0
  1  4  1  0  0  0  0
  1 22  1  0  0  0  0
  2 14  2  0  0  0  0
  4 23  1  0  0  0  0
  5  1  2  0  0  0  0
  6  8  1  0  0  0  0
  7 30  1  0  0  0  0
  7 16  1  0  0  0  0
  8 13  1  0  0  0  0
  9 12  2  0  0  0  0
 11 24  2  0  0  0  0
 11  3  1  0  0  0  0
 12  8  1  0  0  0  0
 12  5  1  0  0  0  0
 13  4  2  0  0  0  0
 14 20  1  0  0  0  0
 15 10  1  0  0  0  0
 16 26  1  0  0  0  0
 17 21  1  0  0  0  0
 18  2  1  0  0  0  0
 19 29  1  6  0  0  0
 19 28  1  0  0  0  0
 19  3  1  0  0  0  0
 21  9  1  0  0  0  0
 21  6  2  0  0  0  0
 22  2  1  0  0  0  0
 22 29  2  0  0  0  0
 25 23  1  1  0  0  0
 25 10  1  0  0  0  0
 25 11  1  0  0  0  0
 26 15  1  0  0  0  0
 27 30  1  0  0  0  0
 28 20  1  0  0  0  0
 29 28  1  0  0  0  0
 30 13  1  0  0  0  0
M  END
>  <MODEL>
4

>  <REMARK>
 VINA RESULT:      -5.4      3.890      5.905
  Name = 
  0 active torsions:
  status: ('A' for Active; 'I' for Inactive)
                            x       y       z     vdW  Elec       q    Type
                         _______ _______ _______ _____ _____    ______ ____

>  <TORSDO>
F 0

$$$$
=
 OpenBabel11052421433D

 30 35  0  0  1  0  0  0  0  0999 V2000
  158.9530  211.1370  138.6420 C   0  0  0  0  0  0  0  0  0  0  0  0
  156.2350  211.3950  138.5700 C   0  0  0  0  0  0  0  0  0  0  0  0
  158.1980  213.4900  141.7460 N   0  0  0  0  0  2  0  0  0  0  0  0
  160.2310  211.6830  139.0130 C   0  0  0  0  0  0  0  0  0  0  0  0
  158.9000  209.8450  138.0910 C   0  0  0  0  0  3  0  0  0  0  0  0
  162.2080  208.7900  138.0140 N   0  0  0  0  0  0  0  0  0  0  0  0
  163.3010  212.4650  138.4050 C   0  0  0  0  0  2  0  0  0  0  0  0
  161.2580  209.6610  138.2930 N   0  0  0  0  0  0  0  0  0  0  0  0
  160.2120  207.9110  137.4020 N   0  0  0  0  0  0  0  0  0  0  0  0
  161.3970  214.2780  141.3570 O   0  0  0  0  0  0  0  0  0  0  0  0
  159.5130  212.9550  141.9930 C   0  0  0  0  0  0  0  0  0  0  0  0
  160.0830  209.1420  137.9270 C   0  0  0  0  0  0  0  0  0  0  0  0
  161.4010  210.9020  138.8290 C   0  0  0  0  0  0  0  0  0  0  0  0
  155.0920  212.0160  139.0730 C   0  0  0  0  0  3  0  0  0  0  0  0
  162.7440  213.9160  141.2490 C   0  0  0  0  0  2  0  0  0  0  0  0
  164.1600  213.3950  139.2600 C   0  0  0  0  0  2  0  0  0  0  0  0
  162.2430  206.5020  137.0110 C   0  0  0  0  0  1  0  0  0  0  0  0
  156.0070  210.2460  137.6530 C   0  0  0  0  0  1  0  0  0  0  0  0
  157.7290  213.9810  140.4600 C   0  0  2  0  0  3  0  0  0  0  0  0
  155.0340  213.2460  140.0300 C   0  0  0  0  0  2  0  0  0  0  0  0
  161.5550  207.7350  137.4780 C   0  0  0  0  0  0  0  0  0  0  0  0
  157.6630  211.8560  138.8850 C   0  0  0  0  0  0  0  0  0  0  0  0
  160.3650  213.0810  139.5490 C   0  0  0  0  0  2  0  0  0  0  0  0
  159.7280  212.3870  143.0960 O   0  0  0  0  0  0  0  0  0  0  0  0
  160.6850  213.1140  141.0480 C   0  0  1  0  0  3  0  0  0  0  0  0
  163.3140  214.4530  139.9480 C   0  0  0  0  0  2  0  0  0  0  0  0
  163.5610  210.5590  140.0240 C   0  0  0  0  0  1  0  0  0  0  0  0
  156.4030  213.6200  140.2480 N   0  0  0  0  0  0  0  0  0  0  0  0
  157.5680  212.8980  139.6420 C   0  0  0  0  0  0  0  0  0  0  0  0
  162.6990  211.3950  139.1970 N   0  0  0  0  0  0  0  0  0  0  0  0
  1 22  1  0  0  0  0
  1  4  1  0  0  0  0
  2 22  1  0  0  0  0
  2 14  2  0  0  0  0
  3 11  1  0  0  0  0
  4 23  1  0  0  0  0
  5  1  2  0  0  0  0
  6  8  1  0  0  0  0
  7 30  1  0  0  0  0
  7 16  1  0  0  0  0
  8 13  1  0  0  0  0
  9 21  1  0  0  0  0
  9 12  2  0  0  0  0
 11 24  2  0  0  0  0
 12  5  1  0  0  0  0
 12  8  1  0  0  0  0
 13  4  2  0  0  0  0
 13 30  1  0  0  0  0
 14 20  1  0  0  0  0
 15 10  1  0  0  0  0
 16 26  1  0  0  0  0
 17 21  1  0  0  0  0
 18  2  1  0  0  0  0
 19 29  1  6  0  0  0
 19  3  1  0  0  0  0
 20 28  1  0  0  0  0
 21  6  2  0  0  0  0
 22 29  2  0  0  0  0
 25 23  1  6  0  0  0
 25 10  1  0  0  0  0
 25 11  1  0  0  0  0
 26 15  1  0  0  0  0
 28 19  1  0  0  0  0
 29 28  1  0  0  0  0
 30 27  1  0  0  0  0
M  END
>  <MODEL>
5

>  <REMARK>
 VINA RESULT:      -4.6     11.090     13.262
  Name = 
  0 active torsions:
  status: ('A' for Active; 'I' for Inactive)
                            x       y       z     vdW  Elec       q    Type
                         _______ _______ _______ _____ _____    ______ ____

>  <TORSDO>
F 0

$$$$
=
 OpenBabel11052421433D

 30 35  0  0  1  0  0  0  0  0999 V2000
  160.8730  211.0830  151.6330 C   0  0  0  0  0  0  0  0  0  0  0  0
  161.2220  212.0870  149.1180 C   0  0  0  0  0  0  0  0  0  0  0  0
  158.3070  214.1070  151.5170 N   0  0  0  0  0  2  0  0  0  0  0  0
  160.4960  211.3020  153.0040 C   0  0  0  0  0  0  0  0  0  0  0  0
  161.1900  209.7780  151.2160 C   0  0  0  0  0  3  0  0  0  0  0  0
  160.7960  207.8300  154.0640 N   0  0  0  0  0  0  0  0  0  0  0  0
  160.9660  211.0430  156.1850 C   0  0  0  0  0  2  0  0  0  0  0  0
  160.7580  208.9720  153.4070 N   0  0  0  0  0  0  0  0  0  0  0  0
  161.4140  207.4550  151.9170 N   0  0  0  0  0  0  0  0  0  0  0  0
  158.5530  213.8580  154.8160 O   0  0  0  0  0  0  0  0  0  0  0  0
  157.8590  213.2770  152.6050 C   0  0  0  0  0  0  0  0  0  0  0  0
  161.1260  208.7490  152.1430 C   0  0  0  0  0  0  0  0  0  0  0  0
  160.4380  210.2000  153.8950 C   0  0  0  0  0  0  0  0  0  0  0  0
  160.9350  213.0930  148.1960 C   0  0  0  0  0  3  0  0  0  0  0  0
  158.4790  213.1130  155.9970 C   0  0  0  0  0  2  0  0  0  0  0  0
  160.2180  211.8360  157.2550 C   0  0  0  0  0  2  0  0  0  0  0  0
  161.3750  205.4770  153.4500 C   0  0  0  0  0  1  0  0  0  0  0  0
  161.9380  210.8950  148.5870 C   0  0  0  0  0  1  0  0  0  0  0  0
  159.6950  214.4530  151.2530 C   0  0  2  0  0  3  0  0  0  0  0  0
  160.2190  214.4490  148.4750 C   0  0  0  0  0  2  0  0  0  0  0  0
  161.1930  206.9210  153.1440 C   0  0  0  0  0  0  0  0  0  0  0  0
  160.8720  212.1720  150.6080 C   0  0  0  0  0  0  0  0  0  0  0  0
  160.2040  212.6800  153.5300 C   0  0  0  0  0  2  0  0  0  0  0  0
  156.6590  212.8960  152.6090 O   0  0  0  0  0  0  0  0  0  0  0  0
  158.7130  212.9090  153.8000 C   0  0  1  0  0  3  0  0  0  0  0  0
  159.8010  213.2040  156.7400 C   0  0  0  0  0  2  0  0  0  0  0  0
  159.0210  209.4920  155.8190 C   0  0  0  0  0  1  0  0  0  0  0  0
  159.9530  214.4510  149.8870 N   0  0  0  0  0  0  0  0  0  0  0  0
  160.3200  213.3240  150.8030 C   0  0  0  0  0  0  0  0  0  0  0  0
  160.0530  210.3630  155.2690 N   0  0  0  0  0  0  0  0  0  0  0  0
  1  4  1  0  0  0  0
  2 22  1  0  0  0  0
  3 11  1  0  0  0  0
  4 23  1  0  0  0  0
  4 13  2  0  0  0  0
  5  1  2  0  0  0  0
  5 12  1  0  0  0  0
  7 16  1  0  0  0  0
  8 13  1  0  0  0  0
  8  6  1  0  0  0  0
  9 12  2  0  0  0  0
  9 21  1  0  0  0  0
 10 15  1  0  0  0  0
 11 24  2  0  0  0  0
 11 25  1  0  0  0  0
 12  8  1  0  0  0  0
 13 30  1  0  0  0  0
 14 20  1  0  0  0  0
 14  2  2  0  0  0  0
 15 26  1  0  0  0  0
 18  2  1  0  0  0  0
 19 29  1  1  0  0  0
 19  3  1  0  0  0  0
 20 28  1  0  0  0  0
 21 17  1  0  0  0  0
 21  6  2  0  0  0  0
 22 29  2  0  0  0  0
 22  1  1  0  0  0  0
 25 23  1  6  0  0  0
 25 10  1  0  0  0  0
 26 16  1  0  0  0  0
 28 29  1  0  0  0  0
 28 19  1  0  0  0  0
 30 27  1  0  0  0  0
 30  7  1  0  0  0  0
M  END
>  <MODEL>
6

>  <REMARK>
 VINA RESULT:      -4.5      3.988      7.094
  Name = 
  0 active torsions:
  status: ('A' for Active; 'I' for Inactive)
                            x       y       z     vdW  Elec       q    Type
                         _______ _______ _______ _____ _____    ______ ____

>  <TORSDO>
F 0

$$$$
