=
 OpenBabel11062409313D

 34 37  0  0  1  0  0  0  0  0999 V2000
  160.8420  209.2810  152.6000 C   0  0  1  0  0  3  0  0  0  0  0  0
  160.2270  212.1690  153.6350 N   0  0  0  0  0  1  0  0  0  0  0  0
  160.6640  207.4390  154.9850 C   0  0  0  0  0  2  0  0  0  0  0  0
  160.6300  207.7670  152.4690 C   0  0  0  0  0  2  0  0  0  0  0  0
  160.5210  208.8910  155.0510 N   0  0  0  0  0  0  0  0  0  0  0  0
  160.2530  209.6140  156.1560 C   0  0  0  0  0  3  0  0  0  0  0  0
  161.2740  207.0140  153.6420 C   0  0  2  0  0  3  0  0  0  0  0  0
  160.2820  210.9970  154.4410 C   0  0  0  0  0  0  0  0  0  0  0  0
  160.5150  209.7210  153.9970 C   0  0  0  0  0  0  0  0  0  0  0  0
  160.1030  210.9560  155.8120 C   0  0  0  0  0  3  0  0  0  0  0  0
  161.2230  205.4970  153.4460 C   0  0  0  0  0  2  0  0  0  0  0  0
  161.0770  203.3350  150.3250 C   0  0  0  0  0  3  0  0  0  0  0  0
  161.3050  206.0480  150.9990 C   0  0  0  0  0  3  0  0  0  0  0  0
  161.2780  204.8350  146.9980 C   0  0  0  0  0  0  0  0  0  0  0  0
  161.1760  203.9240  148.0090 N   0  0  0  0  0  0  0  0  0  0  0  0
  161.1810  204.2980  149.3160 C   0  0  0  0  0  0  0  0  0  0  0  0
  161.3950  206.6100  148.6430 C   0  0  0  0  0  3  0  0  0  0  0  0
  161.2940  205.6610  149.6580 C   0  0  0  0  0  0  0  0  0  0  0  0
  161.3870  206.2000  147.3090 C   0  0  0  0  0  3  0  0  0  0  0  0
  161.2010  205.0820  152.0080 C   0  0  0  0  0  0  0  0  0  0  0  0
  161.0880  203.7270  151.6680 C   0  0  0  0  0  3  0  0  0  0  0  0
  161.2760  204.3930  145.6290 N   0  0  0  0  0  0  0  0  0  0  0  0
  161.0000  203.0060  145.2790 C   0  0  0  0  0  1  0  0  0  0  0  0
  161.5660  205.3240  144.5510 C   0  0  0  0  0  1  0  0  0  0  0  0
  162.1710  209.5970  152.3060 O   0  0  0  0  0  0  0  0  0  0  0  0
  162.2810  209.4370  150.9240 C   0  0  0  0  0  2  0  0  0  0  0  0
  161.8510  210.7170  150.2320 C   0  0  0  0  0  2  0  0  0  0  0  0
  162.0220  210.5910  148.7260 C   0  0  0  0  0  2  0  0  0  0  0  0
  161.8600  211.9390  148.0360 C   0  0  2  0  0  3  0  0  0  0  0  0
  163.2110  212.5500  147.7010 C   0  0  0  0  0  1  0  0  0  0  0  0
  161.0490  212.8940  148.9040 C   0  0  0  0  0  2  0  0  0  0  0  0
  160.1820  213.6670  148.1250 O   0  0  0  0  0  0  0  0  0  0  0  0
  158.1360  212.8450  147.2420 C   0  0  0  0  0  1  0  0  0  0  0  0
  159.6480  212.7730  147.1960 C   0  0  0  0  0  2  0  0  0  0  0  0
  1 25  1  1  0  0  0
  1  9  1  0  0  0  0
  2  8  1  0  0  0  0
  3  5  1  0  0  0  0
  4  1  1  0  0  0  0
  4  7  1  0  0  0  0
  5  6  1  0  0  0  0
  7 11  1  6  0  0  0
  7  3  1  0  0  0  0
  8 10  1  0  0  0  0
  9  8  2  0  0  0  0
  9  5  1  0  0  0  0
 10  6  2  0  0  0  0
 12 21  1  0  0  0  0
 13 20  1  0  0  0  0
 14 19  1  0  0  0  0
 14 15  2  0  0  0  0
 15 16  1  0  0  0  0
 16 18  1  0  0  0  0
 16 12  2  0  0  0  0
 17 18  1  0  0  0  0
 18 13  2  0  0  0  0
 19 17  2  0  0  0  0
 20 11  1  0  0  0  0
 21 20  2  0  0  0  0
 22 14  1  0  0  0  0
 23 22  1  0  0  0  0
 24 22  1  0  0  0  0
 26 25  1  0  0  0  0
 27 26  1  0  0  0  0
 28 27  1  0  0  0  0
 29 30  1  1  0  0  0
 29 28  1  0  0  0  0
 29 31  1  0  0  0  0
 32 31  1  0  0  0  0
 34 33  1  0  0  0  0
 34 32  1  0  0  0  0
M  END
>  <MODEL>
1

>  <REMARK>
 VINA RESULT:      -8.6      0.000      0.000
  Name = 
  11 active torsions:
  status: ('A' for Active; 'I' for Inactive)
    1  A    between atoms: C_1  and  O_34
    2  A    between atoms: C_2  and  C_23
    3  A    between atoms: C_2  and  C_32
    4  A    between atoms: O_3  and  C_24
    5  A    between atoms: O_3  and  C_27
    6  A    between atoms: C_7  and  N_11
    7  A    between atoms: C_17  and  C_18
    8  A    between atoms: C_18  and  C_30
    9  A    between atoms: C_23  and  C_25
   10  A    between atoms: C_25  and  C_27
   11  A    between atoms: C_32  and  O_34
                            x       y       z     vdW  Elec       q    Type
                         _______ _______ _______ _____ _____    ______ ____

>  <TORSDO>
F 11

$$$$
=
 OpenBabel11062409313D

 34 37  0  0  1  0  0  0  0  0999 V2000
  162.0130  206.3320  149.6120 C   0  0  1  0  0  3  0  0  0  0  0  0
  161.9640  205.0720  146.7480 N   0  0  0  0  0  1  0  0  0  0  0  0
  161.0250  204.2120  151.5190 C   0  0  0  0  0  2  0  0  0  0  0  0
  162.2970  206.3700  151.1180 C   0  0  0  0  0  2  0  0  0  0  0  0
  161.0820  204.0550  150.0680 N   0  0  0  0  0  0  0  0  0  0  0  0
  160.7480  202.9490  149.3740 C   0  0  0  0  0  3  0  0  0  0  0  0
  161.1740  205.6890  151.9120 C   0  0  2  0  0  3  0  0  0  0  0  0
  161.5420  204.4240  147.9430 C   0  0  0  0  0  0  0  0  0  0  0  0
  161.5910  204.9490  149.2080 C   0  0  0  0  0  0  0  0  0  0  0  0
  161.0170  203.1470  148.0220 C   0  0  0  0  0  3  0  0  0  0  0  0
  161.3510  205.8630  153.4220 C   0  0  0  0  0  2  0  0  0  0  0  0
  160.1750  208.6520  155.7180 C   0  0  0  0  0  3  0  0  0  0  0  0
  160.9360  208.3080  153.0410 C   0  0  0  0  0  3  0  0  0  0  0  0
  159.7580  212.0590  154.4640 C   0  0  0  0  0  0  0  0  0  0  0  0
  159.7830  210.9710  155.2870 N   0  0  0  0  0  0  0  0  0  0  0  0
  160.1650  209.7440  154.8450 C   0  0  0  0  0  0  0  0  0  0  0  0
  160.5350  210.6650  152.6400 C   0  0  0  0  0  3  0  0  0  0  0  0
  160.5490  209.5690  153.5000 C   0  0  0  0  0  0  0  0  0  0  0  0
  160.1410  211.9150  153.1200 C   0  0  0  0  0  3  0  0  0  0  0  0
  160.9450  207.2160  153.9180 C   0  0  0  0  0  0  0  0  0  0  0  0
  160.5640  207.3910  155.2550 C   0  0  0  0  0  3  0  0  0  0  0  0
  159.3400  213.3380  154.9740 N   0  0  0  0  0  0  0  0  0  0  0  0
  158.4510  214.2050  154.2140 C   0  0  0  0  0  1  0  0  0  0  0  0
  159.8130  213.8080  156.2660 C   0  0  0  0  0  1  0  0  0  0  0  0
  160.9990  207.2420  149.3010 O   0  0  0  0  0  0  0  0  0  0  0  0
  161.5740  208.1220  148.3830 C   0  0  0  0  0  2  0  0  0  0  0  0
  161.9750  209.4010  149.0920 C   0  0  0  0  0  2  0  0  0  0  0  0
  161.5870  210.6150  148.2620 C   0  0  0  0  0  2  0  0  0  0  0  0
  162.1560  211.8970  148.8550 C   0  0  2  0  0  3  0  0  0  0  0  0
  161.0500  212.7980  149.3790 C   0  0  0  0  0  1  0  0  0  0  0  0
  162.9980  212.6400  147.8240 C   0  0  0  0  0  2  0  0  0  0  0  0
  162.4750  213.9120  147.5720 O   0  0  0  0  0  0  0  0  0  0  0  0
  161.3140  213.3000  145.5920 C   0  0  0  0  0  1  0  0  0  0  0  0
  162.4990  214.0350  146.1820 C   0  0  0  0  0  2  0  0  0  0  0  0
  1 25  1  1  0  0  0
  1  4  1  0  0  0  0
  2  8  1  0  0  0  0
  3  7  1  0  0  0  0
  4  7  1  0  0  0  0
  5  3  1  0  0  0  0
  6  5  1  0  0  0  0
  7 11  1  1  0  0  0
  8 10  1  0  0  0  0
  8  9  2  0  0  0  0
  9  1  1  0  0  0  0
  9  5  1  0  0  0  0
 10  6  2  0  0  0  0
 11 20  1  0  0  0  0
 13 18  2  0  0  0  0
 13 20  1  0  0  0  0
 14 22  1  0  0  0  0
 14 15  2  0  0  0  0
 16 15  1  0  0  0  0
 16 12  2  0  0  0  0
 17 19  2  0  0  0  0
 17 18  1  0  0  0  0
 18 16  1  0  0  0  0
 19 14  1  0  0  0  0
 20 21  2  0  0  0  0
 21 12  1  0  0  0  0
 22 24  1  0  0  0  0
 23 22  1  0  0  0  0
 26 27  1  0  0  0  0
 26 25  1  0  0  0  0
 28 29  1  0  0  0  0
 28 27  1  0  0  0  0
 29 30  1  6  0  0  0
 31 29  1  0  0  0  0
 32 31  1  0  0  0  0
 33 34  1  0  0  0  0
 34 32  1  0  0  0  0
M  END
>  <MODEL>
2

>  <REMARK>
 VINA RESULT:      -8.2      1.717      7.124
  Name = 
  11 active torsions:
  status: ('A' for Active; 'I' for Inactive)
    1  A    between atoms: C_1  and  O_34
    2  A    between atoms: C_2  and  C_23
    3  A    between atoms: C_2  and  C_32
    4  A    between atoms: O_3  and  C_24
    5  A    between atoms: O_3  and  C_27
    6  A    between atoms: C_7  and  N_11
    7  A    between atoms: C_17  and  C_18
    8  A    between atoms: C_18  and  C_30
    9  A    between atoms: C_23  and  C_25
   10  A    between atoms: C_25  and  C_27
   11  A    between atoms: C_32  and  O_34
                            x       y       z     vdW  Elec       q    Type
                         _______ _______ _______ _____ _____    ______ ____

>  <TORSDO>
F 11

$$$$
=
 OpenBabel11062409313D

 34 37  0  0  1  0  0  0  0  0999 V2000
  158.9230  211.8220  153.2090 C   0  0  1  0  0  3  0  0  0  0  0  0
  157.8530  214.4530  154.5210 N   0  0  0  0  0  1  0  0  0  0  0  0
  160.9550  210.6570  155.1130 C   0  0  0  0  0  2  0  0  0  0  0  0
  159.3470  210.3480  153.1750 C   0  0  0  0  0  2  0  0  0  0  0  0
  160.2730  211.9320  155.3130 N   0  0  0  0  0  0  0  0  0  0  0  0
  160.4110  212.7500  156.3760 C   0  0  0  0  0  3  0  0  0  0  0  0
  160.7920  210.1750  153.6640 C   0  0  2  0  0  3  0  0  0  0  0  0
  158.8550  213.6050  155.0700 C   0  0  0  0  0  0  0  0  0  0  0  0
  159.3080  212.4320  154.5250 C   0  0  0  0  0  0  0  0  0  0  0  0
  159.5350  213.8260  156.2540 C   0  0  0  0  0  3  0  0  0  0  0  0
  161.2920  208.7410  153.4790 C   0  0  0  0  0  2  0  0  0  0  0  0
  162.0190  208.8800  149.7520 C   0  0  0  0  0  3  0  0  0  0  0  0
  161.0690  207.0430  151.6460 C   0  0  0  0  0  3  0  0  0  0  0  0
  161.4270  205.9720  147.6200 C   0  0  0  0  0  0  0  0  0  0  0  0
  161.7690  207.2220  148.0480 N   0  0  0  0  0  0  0  0  0  0  0  0
  161.6620  207.5890  149.3520 C   0  0  0  0  0  0  0  0  0  0  0  0
  160.8340  205.3830  149.8940 C   0  0  0  0  0  3  0  0  0  0  0  0
  161.1850  206.6670  150.3060 C   0  0  0  0  0  0  0  0  0  0  0  0
  160.9550  205.0310  148.5490 C   0  0  0  0  0  3  0  0  0  0  0  0
  161.4270  208.3370  152.0440 C   0  0  0  0  0  0  0  0  0  0  0  0
  161.9010  209.2530  151.0960 C   0  0  0  0  0  3  0  0  0  0  0  0
  161.5510  205.6290  146.2290 N   0  0  0  0  0  0  0  0  0  0  0  0
  162.7190  204.9250  145.7200 C   0  0  0  0  0  1  0  0  0  0  0  0
  160.5090  205.9950  145.2820 C   0  0  0  0  0  1  0  0  0  0  0  0
  159.5470  212.5150  152.1690 O   0  0  0  0  0  0  0  0  0  0  0  0
  158.5050  212.9320  151.3390 C   0  0  0  0  0  2  0  0  0  0  0  0
  159.0320  213.9370  150.3320 C   0  0  0  0  0  2  0  0  0  0  0  0
  157.9570  214.2870  149.3150 C   0  0  0  0  0  2  0  0  0  0  0  0
  158.4020  213.9450  147.8990 C   0  0  2  0  0  3  0  0  0  0  0  0
  157.6270  212.7570  147.3530 C   0  0  0  0  0  1  0  0  0  0  0  0
  159.8990  213.6620  147.8590 C   0  0  0  0  0  2  0  0  0  0  0  0
  160.1790  212.5560  147.0510 O   0  0  0  0  0  0  0  0  0  0  0  0
  162.2000  212.9970  148.2180 C   0  0  0  0  0  1  0  0  0  0  0  0
  161.2710  211.9390  147.6610 C   0  0  0  0  0  2  0  0  0  0  0  0
  1 25  1  6  0  0  0
  1  9  1  0  0  0  0
  2  8  1  0  0  0  0
  3  5  1  0  0  0  0
  4  1  1  0  0  0  0
  4  7  1  0  0  0  0
  5  6  1  0  0  0  0
  7 11  1  1  0  0  0
  7  3  1  0  0  0  0
  8 10  1  0  0  0  0
  9  8  2  0  0  0  0
  9  5  1  0  0  0  0
 10  6  2  0  0  0  0
 12 21  1  0  0  0  0
 13 20  1  0  0  0  0
 14 15  2  0  0  0  0
 14 19  1  0  0  0  0
 15 16  1  0  0  0  0
 16 12  2  0  0  0  0
 16 18  1  0  0  0  0
 17 18  1  0  0  0  0
 18 13  2  0  0  0  0
 19 17  2  0  0  0  0
 20 11  1  0  0  0  0
 21 20  2  0  0  0  0
 22 14  1  0  0  0  0
 23 22  1  0  0  0  0
 24 22  1  0  0  0  0
 26 25  1  0  0  0  0
 27 26  1  0  0  0  0
 28 27  1  0  0  0  0
 29 30  1  1  0  0  0
 29 28  1  0  0  0  0
 31 29  1  0  0  0  0
 32 34  1  0  0  0  0
 32 31  1  0  0  0  0
 34 33  1  0  0  0  0
M  END
>  <MODEL>
3

>  <REMARK>
 VINA RESULT:      -8.0      1.908      3.394
  Name = 
  11 active torsions:
  status: ('A' for Active; 'I' for Inactive)
    1  A    between atoms: C_1  and  O_34
    2  A    between atoms: C_2  and  C_23
    3  A    between atoms: C_2  and  C_32
    4  A    between atoms: O_3  and  C_24
    5  A    between atoms: O_3  and  C_27
    6  A    between atoms: C_7  and  N_11
    7  A    between atoms: C_17  and  C_18
    8  A    between atoms: C_18  and  C_30
    9  A    between atoms: C_23  and  C_25
   10  A    between atoms: C_25  and  C_27
   11  A    between atoms: C_32  and  O_34
                            x       y       z     vdW  Elec       q    Type
                         _______ _______ _______ _____ _____    ______ ____

>  <TORSDO>
F 11

$$$$
=
 OpenBabel11062409313D

 34 37  0  0  1  0  0  0  0  0999 V2000
  159.6530  210.2470  154.6800 C   0  0  1  0  0  3  0  0  0  0  0  0
  159.5590  213.0890  155.9840 N   0  0  0  0  0  1  0  0  0  0  0  0
  161.8470  208.7150  156.0760 C   0  0  0  0  0  2  0  0  0  0  0  0
  159.7360  208.7150  154.6680 C   0  0  0  0  0  2  0  0  0  0  0  0
  161.5270  210.1160  156.3340 N   0  0  0  0  0  0  0  0  0  0  0  0
  162.1210  210.9130  157.2430 C   0  0  0  0  0  3  0  0  0  0  0  0
  161.1920  208.2380  154.7720 C   0  0  2  0  0  3  0  0  0  0  0  0
  160.4760  212.0550  156.3230 C   0  0  0  0  0  0  0  0  0  0  0  0
  160.5070  210.7940  155.7870 C   0  0  0  0  0  0  0  0  0  0  0  0
  161.4880  212.1540  157.2610 C   0  0  0  0  0  3  0  0  0  0  0  0
  161.3130  206.7240  154.5920 C   0  0  0  0  0  2  0  0  0  0  0  0
  161.0320  204.5160  151.5120 C   0  0  0  0  0  3  0  0  0  0  0  0
  161.3560  207.2320  152.1350 C   0  0  0  0  0  3  0  0  0  0  0  0
  161.2040  205.9540  148.1560 C   0  0  0  0  0  0  0  0  0  0  0  0
  161.0970  205.0640  149.1850 N   0  0  0  0  0  0  0  0  0  0  0  0
  161.1420  205.4590  150.4850 C   0  0  0  0  0  0  0  0  0  0  0  0
  161.4110  207.7520  149.7680 C   0  0  0  0  0  3  0  0  0  0  0  0
  161.3040  206.8230  150.8010 C   0  0  0  0  0  0  0  0  0  0  0  0
  161.3600  207.3210  148.4420 C   0  0  0  0  0  3  0  0  0  0  0  0
  161.2460  206.2850  153.1620 C   0  0  0  0  0  0  0  0  0  0  0  0
  161.0850  204.9300  152.8480 C   0  0  0  0  0  3  0  0  0  0  0  0
  161.1570  205.4910  146.7960 N   0  0  0  0  0  0  0  0  0  0  0  0
  161.8440  204.2750  146.3840 C   0  0  0  0  0  1  0  0  0  0  0  0
  160.4290  206.2390  145.7840 C   0  0  0  0  0  1  0  0  0  0  0  0
  160.0930  210.7510  153.4530 O   0  0  0  0  0  0  0  0  0  0  0  0
  158.9280  211.0820  152.7620 C   0  0  0  0  0  2  0  0  0  0  0  0
  158.9580  212.5540  152.3950 C   0  0  0  0  0  2  0  0  0  0  0  0
  160.0820  212.8350  151.4100 C   0  0  0  0  0  2  0  0  0  0  0  0
  159.7210  213.9770  150.4690 C   0  0  2  0  0  3  0  0  0  0  0  0
  158.3820  213.7290  149.7930 C   0  0  0  0  0  1  0  0  0  0  0  0
  160.8110  214.1770  149.4230 C   0  0  0  0  0  2  0  0  0  0  0  0
  160.5430  213.4320  148.2700 O   0  0  0  0  0  0  0  0  0  0  0  0
  161.9890  211.5650  148.5230 C   0  0  0  0  0  1  0  0  0  0  0  0
  161.7820  212.9210  147.8820 C   0  0  0  0  0  2  0  0  0  0  0  0
  1 25  1  6  0  0  0
  1  9  1  0  0  0  0
  2  8  1  0  0  0  0
  3  5  1  0  0  0  0
  4  1  1  0  0  0  0
  4  7  1  0  0  0  0
  5  6  1  0  0  0  0
  6 10  2  0  0  0  0
  7 11  1  1  0  0  0
  7  3  1  0  0  0  0
  8 10  1  0  0  0  0
  9  8  2  0  0  0  0
  9  5  1  0  0  0  0
 12 21  1  0  0  0  0
 13 20  1  0  0  0  0
 14 19  1  0  0  0  0
 14 15  2  0  0  0  0
 15 16  1  0  0  0  0
 16 18  1  0  0  0  0
 16 12  2  0  0  0  0
 17 18  1  0  0  0  0
 18 13  2  0  0  0  0
 19 17  2  0  0  0  0
 20 11  1  0  0  0  0
 21 20  2  0  0  0  0
 22 14  1  0  0  0  0
 23 22  1  0  0  0  0
 24 22  1  0  0  0  0
 26 25  1  0  0  0  0
 27 26  1  0  0  0  0
 28 27  1  0  0  0  0
 29 30  1  6  0  0  0
 29 28  1  0  0  0  0
 31 29  1  0  0  0  0
 32 31  1  0  0  0  0
 34 32  1  0  0  0  0
 34 33  1  0  0  0  0
M  END
>  <MODEL>
4

>  <REMARK>
 VINA RESULT:      -7.8      1.661      2.528
  Name = 
  11 active torsions:
  status: ('A' for Active; 'I' for Inactive)
    1  A    between atoms: C_1  and  O_34
    2  A    between atoms: C_2  and  C_23
    3  A    between atoms: C_2  and  C_32
    4  A    between atoms: O_3  and  C_24
    5  A    between atoms: O_3  and  C_27
    6  A    between atoms: C_7  and  N_11
    7  A    between atoms: C_17  and  C_18
    8  A    between atoms: C_18  and  C_30
    9  A    between atoms: C_23  and  C_25
   10  A    between atoms: C_25  and  C_27
   11  A    between atoms: C_32  and  O_34
                            x       y       z     vdW  Elec       q    Type
                         _______ _______ _______ _____ _____    ______ ____

>  <TORSDO>
F 11

$$$$
=
 OpenBabel11062409313D

 34 37  0  0  1  0  0  0  0  0999 V2000
  160.6400  205.3570  150.2440 C   0  0  1  0  0  3  0  0  0  0  0  0
  160.4210  206.2040  147.2400 N   0  0  0  0  0  1  0  0  0  0  0  0
  162.2160  207.5120  151.6500 C   0  0  0  0  0  2  0  0  0  0  0  0
  160.5950  205.5640  151.7630 C   0  0  0  0  0  2  0  0  0  0  0  0
  161.9550  207.4850  150.2140 N   0  0  0  0  0  0  0  0  0  0  0  0
  162.3340  208.4190  149.3190 C   0  0  0  0  0  3  0  0  0  0  0  0
  161.9170  206.1450  152.2830 C   0  0  2  0  0  3  0  0  0  0  0  0
  161.1160  206.9240  148.2530 C   0  0  0  0  0  0  0  0  0  0  0  0
  161.1910  206.5840  149.5780 C   0  0  0  0  0  0  0  0  0  0  0  0
  161.8280  208.0940  148.0620 C   0  0  0  0  0  3  0  0  0  0  0  0
  161.9570  206.2020  153.8110 C   0  0  0  0  0  2  0  0  0  0  0  0
  159.7060  208.2440  156.0910 C   0  0  0  0  0  3  0  0  0  0  0  0
  161.2040  208.5940  153.7460 C   0  0  0  0  0  3  0  0  0  0  0  0
  159.0010  211.7560  155.3690 C   0  0  0  0  0  0  0  0  0  0  0  0
  159.0120  210.5290  155.9650 N   0  0  0  0  0  0  0  0  0  0  0  0
  159.7220  209.4880  155.4550 C   0  0  0  0  0  0  0  0  0  0  0  0
  160.4860  210.9080  153.6520 C   0  0  0  0  0  3  0  0  0  0  0  0
  160.4770  209.6620  154.2760 C   0  0  0  0  0  0  0  0  0  0  0  0
  159.7490  211.9600  154.1980 C   0  0  0  0  0  3  0  0  0  0  0  0
  161.1850  207.3490  154.3860 C   0  0  0  0  0  0  0  0  0  0  0  0
  160.4350  207.1760  155.5570 C   0  0  0  0  0  3  0  0  0  0  0  0
  158.2290  212.8260  155.9410 N   0  0  0  0  0  0  0  0  0  0  0  0
  156.8490  212.6270  156.3600 C   0  0  0  0  0  1  0  0  0  0  0  0
  158.8070  214.1510  156.1030 C   0  0  0  0  0  1  0  0  0  0  0  0
  161.4480  204.2560  149.9430 O   0  0  0  0  0  0  0  0  0  0  0  0
  160.9060  203.2010  150.6770 C   0  0  0  0  0  2  0  0  0  0  0  0
  160.1010  202.3050  149.7550 C   0  0  0  0  0  2  0  0  0  0  0  0
  160.9910  201.2370  149.1380 C   0  0  0  0  0  2  0  0  0  0  0  0
  160.7970  201.1570  147.6300 C   0  0  2  0  0  3  0  0  0  0  0  0
  161.5810  199.9990  147.0360 C   0  0  0  0  0  1  0  0  0  0  0  0
  161.2060  202.4670  146.9660 C   0  0  0  0  0  2  0  0  0  0  0  0
  160.9170  202.4470  145.5980 O   0  0  0  0  0  0  0  0  0  0  0  0
  162.5970  204.1250  145.6340 C   0  0  0  0  0  1  0  0  0  0  0  0
  161.2150  203.7350  145.1540 C   0  0  0  0  0  2  0  0  0  0  0  0
  1 25  1  1  0  0  0
  1  4  1  0  0  0  0
  2  8  1  0  0  0  0
  3  7  1  0  0  0  0
  4  7  1  0  0  0  0
  5  3  1  0  0  0  0
  6  5  1  0  0  0  0
  7 11  1  1  0  0  0
  8  9  2  0  0  0  0
  9  5  1  0  0  0  0
  9  1  1  0  0  0  0
 10  8  1  0  0  0  0
 10  6  2  0  0  0  0
 11 20  1  0  0  0  0
 13 18  2  0  0  0  0
 13 20  1  0  0  0  0
 14 22  1  0  0  0  0
 14 15  2  0  0  0  0
 16 15  1  0  0  0  0
 16 12  2  0  0  0  0
 17 19  2  0  0  0  0
 17 18  1  0  0  0  0
 18 16  1  0  0  0  0
 19 14  1  0  0  0  0
 20 21  2  0  0  0  0
 21 12  1  0  0  0  0
 22 24  1  0  0  0  0
 22 23  1  0  0  0  0
 25 26  1  0  0  0  0
 27 26  1  0  0  0  0
 28 27  1  0  0  0  0
 29 30  1  6  0  0  0
 29 28  1  0  0  0  0
 31 29  1  0  0  0  0
 32 31  1  0  0  0  0
 34 32  1  0  0  0  0
 34 33  1  0  0  0  0
M  END
>  <MODEL>
5

>  <REMARK>
 VINA RESULT:      -7.7      3.063      8.614
  Name = 
  11 active torsions:
  status: ('A' for Active; 'I' for Inactive)
    1  A    between atoms: C_1  and  O_34
    2  A    between atoms: C_2  and  C_23
    3  A    between atoms: C_2  and  C_32
    4  A    between atoms: O_3  and  C_24
    5  A    between atoms: O_3  and  C_27
    6  A    between atoms: C_7  and  N_11
    7  A    between atoms: C_17  and  C_18
    8  A    between atoms: C_18  and  C_30
    9  A    between atoms: C_23  and  C_25
   10  A    between atoms: C_25  and  C_27
   11  A    between atoms: C_32  and  O_34
                            x       y       z     vdW  Elec       q    Type
                         _______ _______ _______ _____ _____    ______ ____

>  <TORSDO>
F 11

$$$$
=
 OpenBabel11062409313D

 34 37  0  0  1  0  0  0  0  0999 V2000
  159.0500  211.1060  153.3610 C   0  0  1  0  0  3  0  0  0  0  0  0
  157.3240  211.4890  155.9420 N   0  0  0  0  0  1  0  0  0  0  0  0
  161.5980  209.7280  154.2080 C   0  0  0  0  0  2  0  0  0  0  0  0
  159.9490  210.3430  152.3800 C   0  0  0  0  0  2  0  0  0  0  0  0
  160.5510  210.1620  155.1270 N   0  0  0  0  0  0  0  0  0  0  0  0
  160.5400  209.9830  156.4630 C   0  0  0  0  0  3  0  0  0  0  0  0
  161.4170  210.3800  152.8290 C   0  0  2  0  0  3  0  0  0  0  0  0
  158.6230  210.9100  155.8960 C   0  0  0  0  0  0  0  0  0  0  0  0
  159.3750  210.7020  154.7690 C   0  0  0  0  0  0  0  0  0  0  0  0
  159.3380  210.4520  156.9880 C   0  0  0  0  0  3  0  0  0  0  0  0
  162.3530  209.7730  151.7820 C   0  0  0  0  0  2  0  0  0  0  0  0
  161.4330  206.0990  152.0850 C   0  0  0  0  0  3  0  0  0  0  0  0
  161.9560  207.9800  150.0720 C   0  0  0  0  0  3  0  0  0  0  0  0
  161.0250  204.0200  149.1080 C   0  0  0  0  0  0  0  0  0  0  0  0
  161.0820  204.4320  150.4070 N   0  0  0  0  0  0  0  0  0  0  0  0
  161.3810  205.7150  150.7420 C   0  0  0  0  0  0  0  0  0  0  0  0
  161.5870  206.2670  148.3970 C   0  0  0  0  0  3  0  0  0  0  0  0
  161.6440  206.6630  149.7320 C   0  0  0  0  0  0  0  0  0  0  0  0
  161.2770  204.9440  148.0810 C   0  0  0  0  0  3  0  0  0  0  0  0
  162.0070  208.3630  151.4180 C   0  0  0  0  0  0  0  0  0  0  0  0
  161.7460  207.4210  152.4220 C   0  0  0  0  0  3  0  0  0  0  0  0
  160.7120  202.6500  148.8010 N   0  0  0  0  0  0  0  0  0  0  0  0
  160.1850  201.7460  149.8130 C   0  0  0  0  0  1  0  0  0  0  0  0
  160.9300  202.1230  147.4630 C   0  0  0  0  0  1  0  0  0  0  0  0
  159.2470  212.4810  153.2080 O   0  0  0  0  0  0  0  0  0  0  0  0
  158.1130  212.9340  152.5330 C   0  0  0  0  0  2  0  0  0  0  0  0
  158.4810  214.1290  151.6730 C   0  0  0  0  0  2  0  0  0  0  0  0
  159.5240  213.7400  150.6380 C   0  0  0  0  0  2  0  0  0  0  0  0
  159.0700  214.1020  149.2300 C   0  0  2  0  0  3  0  0  0  0  0  0
  157.7980  213.3590  148.8560 C   0  0  0  0  0  1  0  0  0  0  0  0
  160.1700  213.8070  148.2170 C   0  0  0  0  0  2  0  0  0  0  0  0
  161.4290  213.8200  148.8260 O   0  0  0  0  0  0  0  0  0  0  0  0
  162.0440  211.5340  148.6370 C   0  0  0  0  0  1  0  0  0  0  0  0
  162.1950  212.9310  148.0720 C   0  0  0  0  0  2  0  0  0  0  0  0
  1 25  1  1  0  0  0
  1  9  1  0  0  0  0
  3  5  1  0  0  0  0
  4  7  1  0  0  0  0
  4  1  1  0  0  0  0
  5  6  1  0  0  0  0
  6 10  2  0  0  0  0
  7 11  1  6  0  0  0
  7  3  1  0  0  0  0
  8  2  1  0  0  0  0
  8 10  1  0  0  0  0
  9  5  1  0  0  0  0
  9  8  2  0  0  0  0
 12 21  1  0  0  0  0
 13 20  1  0  0  0  0
 14 15  2  0  0  0  0
 15 16  1  0  0  0  0
 16 12  2  0  0  0  0
 17 18  1  0  0  0  0
 18 13  2  0  0  0  0
 18 16  1  0  0  0  0
 19 17  2  0  0  0  0
 19 14  1  0  0  0  0
 20 11  1  0  0  0  0
 20 21  2  0  0  0  0
 22 14  1  0  0  0  0
 22 23  1  0  0  0  0
 24 22  1  0  0  0  0
 26 25  1  0  0  0  0
 27 26  1  0  0  0  0
 28 27  1  0  0  0  0
 29 30  1  6  0  0  0
 29 28  1  0  0  0  0
 31 32  1  0  0  0  0
 31 29  1  0  0  0  0
 34 33  1  0  0  0  0
 34 32  1  0  0  0  0
M  END
>  <MODEL>
6

>  <REMARK>
 VINA RESULT:      -7.7      1.903      3.290
  Name = 
  11 active torsions:
  status: ('A' for Active; 'I' for Inactive)
    1  A    between atoms: C_1  and  O_34
    2  A    between atoms: C_2  and  C_23
    3  A    between atoms: C_2  and  C_32
    4  A    between atoms: O_3  and  C_24
    5  A    between atoms: O_3  and  C_27
    6  A    between atoms: C_7  and  N_11
    7  A    between atoms: C_17  and  C_18
    8  A    between atoms: C_18  and  C_30
    9  A    between atoms: C_23  and  C_25
   10  A    between atoms: C_25  and  C_27
   11  A    between atoms: C_32  and  O_34
                            x       y       z     vdW  Elec       q    Type
                         _______ _______ _______ _____ _____    ______ ____

>  <TORSDO>
F 11

$$$$
=
 OpenBabel11062409313D

 34 37  0  0  1  0  0  0  0  0999 V2000
  160.8710  206.9020  151.3890 C   0  0  1  0  0  3  0  0  0  0  0  0
  160.7000  206.2280  148.3390 N   0  0  0  0  0  1  0  0  0  0  0  0
  162.0480  209.6720  151.6100 C   0  0  0  0  0  2  0  0  0  0  0  0
  160.7130  207.7760  152.6400 C   0  0  0  0  0  2  0  0  0  0  0  0
  161.8720  208.9480  150.3540 N   0  0  0  0  0  0  0  0  0  0  0  0
  162.1640  209.4100  149.1220 C   0  0  0  0  0  3  0  0  0  0  0  0
  161.9100  208.7230  152.8090 C   0  0  2  0  0  3  0  0  0  0  0  0
  161.2300  207.4280  148.8910 C   0  0  0  0  0  0  0  0  0  0  0  0
  161.2790  207.7520  150.2210 C   0  0  0  0  0  0  0  0  0  0  0  0
  161.7790  208.4710  148.1680 C   0  0  0  0  0  3  0  0  0  0  0  0
  161.8570  209.4820  154.1360 C   0  0  0  0  0  2  0  0  0  0  0  0
  158.5050  210.5610  155.5630 C   0  0  0  0  0  3  0  0  0  0  0  0
  160.2520  211.3020  153.4980 C   0  0  0  0  0  3  0  0  0  0  0  0
  156.6540  213.3470  154.0920 C   0  0  0  0  0  0  0  0  0  0  0  0
  157.0100  212.3030  154.8960 N   0  0  0  0  0  0  0  0  0  0  0  0
  158.1760  211.6270  154.7210 C   0  0  0  0  0  0  0  0  0  0  0  0
  158.7170  213.0640  152.8530 C   0  0  0  0  0  3  0  0  0  0  0  0
  159.0560  211.9980  153.6840 C   0  0  0  0  0  0  0  0  0  0  0  0
  157.5140  213.7420  153.0550 C   0  0  0  0  0  3  0  0  0  0  0  0
  160.5790  210.2340  154.3430 C   0  0  0  0  0  0  0  0  0  0  0  0
  159.7050  209.8650  155.3730 C   0  0  0  0  0  3  0  0  0  0  0  0
  155.4070  214.0290  154.3100 N   0  0  0  0  0  0  0  0  0  0  0  0
  154.9950  214.4530  155.6410 C   0  0  0  0  0  1  0  0  0  0  0  0
  154.5090  214.3020  153.1990 C   0  0  0  0  0  1  0  0  0  0  0  0
  161.8410  205.9230  151.6190 O   0  0  0  0  0  0  0  0  0  0  0  0
  161.1300  204.8140  152.0810 C   0  0  0  0  0  2  0  0  0  0  0  0
  161.4670  203.6070  151.2260 C   0  0  0  0  0  2  0  0  0  0  0  0
  160.6750  203.6350  149.9280 C   0  0  0  0  0  2  0  0  0  0  0  0
  160.5130  202.2370  149.3470 C   0  0  2  0  0  3  0  0  0  0  0  0
  161.1240  201.1880  150.2610 C   0  0  0  0  0  1  0  0  0  0  0  0
  161.1390  202.1550  147.9590 C   0  0  0  0  0  2  0  0  0  0  0  0
  161.5380  203.4190  147.5140 O   0  0  0  0  0  0  0  0  0  0  0  0
  160.5510  202.2440  145.7010 C   0  0  0  0  0  1  0  0  0  0  0  0
  161.5240  203.3250  146.1220 C   0  0  0  0  0  2  0  0  0  0  0  0
  1 25  1  1  0  0  0
  1  4  1  0  0  0  0
  2  8  1  0  0  0  0
  3  7  1  0  0  0  0
  4  7  1  0  0  0  0
  5  3  1  0  0  0  0
  6  5  1  0  0  0  0
  7 11  1  1  0  0  0
  8  9  2  0  0  0  0
  9  5  1  0  0  0  0
  9  1  1  0  0  0  0
 10  8  1  0  0  0  0
 10  6  2  0  0  0  0
 11 20  1  0  0  0  0
 13 18  2  0  0  0  0
 13 20  1  0  0  0  0
 14 22  1  0  0  0  0
 14 15  2  0  0  0  0
 16 15  1  0  0  0  0
 16 12  2  0  0  0  0
 17 19  2  0  0  0  0
 17 18  1  0  0  0  0
 18 16  1  0  0  0  0
 19 14  1  0  0  0  0
 20 21  2  0  0  0  0
 21 12  1  0  0  0  0
 22 23  1  0  0  0  0
 24 22  1  0  0  0  0
 25 26  1  0  0  0  0
 27 26  1  0  0  0  0
 28 27  1  0  0  0  0
 29 28  1  0  0  0  0
 29 30  1  1  0  0  0
 31 29  1  0  0  0  0
 32 31  1  0  0  0  0
 33 34  1  0  0  0  0
 34 32  1  0  0  0  0
M  END
>  <MODEL>
7

>  <REMARK>
 VINA RESULT:      -7.5      3.057      8.791
  Name = 
  11 active torsions:
  status: ('A' for Active; 'I' for Inactive)
    1  A    between atoms: C_1  and  O_34
    2  A    between atoms: C_2  and  C_23
    3  A    between atoms: C_2  and  C_32
    4  A    between atoms: O_3  and  C_24
    5  A    between atoms: O_3  and  C_27
    6  A    between atoms: C_7  and  N_11
    7  A    between atoms: C_17  and  C_18
    8  A    between atoms: C_18  and  C_30
    9  A    between atoms: C_23  and  C_25
   10  A    between atoms: C_25  and  C_27
   11  A    between atoms: C_32  and  O_34
                            x       y       z     vdW  Elec       q    Type
                         _______ _______ _______ _____ _____    ______ ____

>  <TORSDO>
F 11

$$$$
=
 OpenBabel11062409313D

 34 37  0  0  1  0  0  0  0  0999 V2000
  159.7070  211.8910  153.1960 C   0  0  1  0  0  3  0  0  0  0  0  0
  157.9300  214.4530  152.9370 N   0  0  0  0  0  1  0  0  0  0  0  0
  161.2100  211.6010  150.5950 C   0  0  0  0  0  2  0  0  0  0  0  0
  160.9880  211.0580  153.0630 C   0  0  0  0  0  2  0  0  0  0  0  0
  160.2090  212.6300  150.8590 N   0  0  0  0  0  0  0  0  0  0  0  0
  159.8380  213.6130  150.0150 C   0  0  0  0  0  3  0  0  0  0  0  0
  161.1320  210.4850  151.6470 C   0  0  2  0  0  3  0  0  0  0  0  0
  158.7760  213.9290  151.9200 C   0  0  0  0  0  0  0  0  0  0  0  0
  159.5870  212.8300  152.0310 C   0  0  0  0  0  0  0  0  0  0  0  0
  158.9240  214.4530  150.6480 C   0  0  0  0  0  3  0  0  0  0  0  0
  162.3100  209.5140  151.5380 C   0  0  0  0  0  2  0  0  0  0  0  0
  161.4480  206.9950  148.8280 C   0  0  0  0  0  3  0  0  0  0  0  0
  161.8080  207.0570  151.6080 C   0  0  0  0  0  3  0  0  0  0  0  0
  160.8000  203.4970  149.6610 C   0  0  0  0  0  0  0  0  0  0  0  0
  160.9630  204.6580  148.9630 N   0  0  0  0  0  0  0  0  0  0  0  0
  161.2920  205.8250  149.5760 C   0  0  0  0  0  0  0  0  0  0  0  0
  161.3180  204.6850  151.7090 C   0  0  0  0  0  3  0  0  0  0  0  0
  161.4750  205.8580  150.9740 C   0  0  0  0  0  0  0  0  0  0  0  0
  160.9810  203.4990  151.0540 C   0  0  0  0  0  3  0  0  0  0  0  0
  161.9630  208.2280  150.8560 C   0  0  0  0  0  0  0  0  0  0  0  0
  161.7820  208.1950  149.4670 C   0  0  0  0  0  3  0  0  0  0  0  0
  160.4440  202.2860  148.9710 N   0  0  0  0  0  0  0  0  0  0  0  0
  160.9550  201.9930  147.6390 C   0  0  0  0  0  1  0  0  0  0  0  0
  159.5440  201.3220  149.5840 C   0  0  0  0  0  1  0  0  0  0  0  0
  158.5960  211.0430  153.2330 O   0  0  0  0  0  0  0  0  0  0  0  0
  157.9260  211.3800  154.4100 C   0  0  0  0  0  2  0  0  0  0  0  0
  158.9240  211.8970  155.4290 C   0  0  0  0  0  2  0  0  0  0  0  0
  158.8500  211.0810  156.7100 C   0  0  0  0  0  2  0  0  0  0  0  0
  160.2250  210.5800  157.1290 C   0  0  2  0  0  3  0  0  0  0  0  0
  161.3280  211.4420  156.5360 C   0  0  0  0  0  1  0  0  0  0  0  0
  160.4150  209.1240  156.7180 C   0  0  0  0  0  2  0  0  0  0  0  0
  161.2780  209.0200  155.6230 O   0  0  0  0  0  0  0  0  0  0  0  0
  159.9590  207.0670  155.9160 C   0  0  0  0  0  1  0  0  0  0  0  0
  161.0540  207.7400  155.1150 C   0  0  0  0  0  2  0  0  0  0  0  0
  1 25  1  6  0  0  0
  3  5  1  0  0  0  0
  3  7  1  0  0  0  0
  4  1  1  0  0  0  0
  5  9  1  0  0  0  0
  6 10  2  0  0  0  0
  6  5  1  0  0  0  0
  7 11  1  1  0  0  0
  7  4  1  0  0  0  0
  8  9  2  0  0  0  0
  8  2  1  0  0  0  0
  9  1  1  0  0  0  0
 10  8  1  0  0  0  0
 12 21  2  0  0  0  0
 12 16  1  0  0  0  0
 14 19  1  0  0  0  0
 15 16  1  0  0  0  0
 15 14  2  0  0  0  0
 16 18  2  0  0  0  0
 18 13  1  0  0  0  0
 18 17  1  0  0  0  0
 19 17  2  0  0  0  0
 20 11  1  0  0  0  0
 20 13  2  0  0  0  0
 21 20  1  0  0  0  0
 22 24  1  0  0  0  0
 22 14  1  0  0  0  0
 23 22  1  0  0  0  0
 25 26  1  0  0  0  0
 26 27  1  0  0  0  0
 27 28  1  0  0  0  0
 28 29  1  0  0  0  0
 29 30  1  6  0  0  0
 31 29  1  0  0  0  0
 32 31  1  0  0  0  0
 34 32  1  0  0  0  0
 34 33  1  0  0  0  0
M  END
>  <MODEL>
8

>  <REMARK>
 VINA RESULT:      -7.5      2.488      5.746
  Name = 
  11 active torsions:
  status: ('A' for Active; 'I' for Inactive)
    1  A    between atoms: C_1  and  O_34
    2  A    between atoms: C_2  and  C_23
    3  A    between atoms: C_2  and  C_32
    4  A    between atoms: O_3  and  C_24
    5  A    between atoms: O_3  and  C_27
    6  A    between atoms: C_7  and  N_11
    7  A    between atoms: C_17  and  C_18
    8  A    between atoms: C_18  and  C_30
    9  A    between atoms: C_23  and  C_25
   10  A    between atoms: C_25  and  C_27
   11  A    between atoms: C_32  and  O_34
                            x       y       z     vdW  Elec       q    Type
                         _______ _______ _______ _____ _____    ______ ____

>  <TORSDO>
F 11

$$$$
=
 OpenBabel11062409313D

 34 37  0  0  1  0  0  0  0  0999 V2000
  160.2480  212.0530  152.0200 C   0  0  1  0  0  3  0  0  0  0  0  0
  160.1600  214.4490  150.0100 N   0  0  0  0  0  1  0  0  0  0  0  0
  161.9370  209.9010  150.7450 C   0  0  0  0  0  2  0  0  0  0  0  0
  160.9070  210.9260  152.8250 C   0  0  0  0  0  2  0  0  0  0  0  0
  161.5800  211.1600  150.0990 N   0  0  0  0  0  0  0  0  0  0  0  0
  161.9730  211.5660  148.8750 C   0  0  0  0  0  3  0  0  0  0  0  0
  161.0560  209.6540  151.9790 C   0  0  2  0  0  3  0  0  0  0  0  0
  160.8230  213.2090  149.7890 C   0  0  0  0  0  0  0  0  0  0  0  0
  160.9000  212.1650  150.6730 C   0  0  0  0  0  0  0  0  0  0  0  0
  161.5060  212.8570  148.6390 C   0  0  0  0  0  3  0  0  0  0  0  0
  161.5530  208.4680  152.8080 C   0  0  0  0  0  2  0  0  0  0  0  0
  161.1300  204.7420  152.2020 C   0  0  0  0  0  3  0  0  0  0  0  0
  161.4610  207.0940  150.7110 C   0  0  0  0  0  3  0  0  0  0  0  0
  161.1070  203.3880  148.8070 C   0  0  0  0  0  0  0  0  0  0  0  0
  161.0640  203.4860  150.1680 N   0  0  0  0  0  0  0  0  0  0  0  0
  161.1750  204.6810  150.8060 C   0  0  0  0  0  0  0  0  0  0  0  0
  161.3830  205.7910  148.6680 C   0  0  0  0  0  3  0  0  0  0  0  0
  161.3410  205.8650  150.0590 C   0  0  0  0  0  0  0  0  0  0  0  0
  161.2660  204.5520  148.0380 C   0  0  0  0  0  3  0  0  0  0  0  0
  161.4150  207.1510  152.1100 C   0  0  0  0  0  0  0  0  0  0  0  0
  161.2500  205.9750  152.8520 C   0  0  0  0  0  3  0  0  0  0  0  0
  160.9930  202.1010  148.1760 N   0  0  0  0  0  0  0  0  0  0  0  0
  161.1280  200.8670  148.9360 C   0  0  0  0  0  1  0  0  0  0  0  0
  160.7520  201.9980  146.7450 C   0  0  0  0  0  1  0  0  0  0  0  0
  158.8860  211.7840  151.8630 O   0  0  0  0  0  0  0  0  0  0  0  0
  158.2350  212.8890  152.4130 C   0  0  0  0  0  2  0  0  0  0  0  0
  157.4890  212.4640  153.6640 C   0  0  0  0  0  2  0  0  0  0  0  0
  158.4300  212.4190  154.8570 C   0  0  0  0  0  2  0  0  0  0  0  0
  157.9390  211.4370  155.9130 C   0  0  2  0  0  3  0  0  0  0  0  0
  157.1990  212.1550  157.0290 C   0  0  0  0  0  1  0  0  0  0  0  0
  159.1020  210.6340  156.4820 C   0  0  0  0  0  2  0  0  0  0  0  0
  159.3900  209.5270  155.6770 O   0  0  0  0  0  0  0  0  0  0  0  0
  160.1340  207.3320  156.1960 C   0  0  0  0  0  1  0  0  0  0  0  0
  160.3610  208.8180  156.3830 C   0  0  0  0  0  2  0  0  0  0  0  0
  1 25  1  6  0  0  0
  1  4  1  0  0  0  0
  3  7  1  0  0  0  0
  5  9  1  0  0  0  0
  5  3  1  0  0  0  0
  6  5  1  0  0  0  0
  7 11  1  1  0  0  0
  7  4  1  0  0  0  0
  8  2  1  0  0  0  0
  8  9  2  0  0  0  0
  9  1  1  0  0  0  0
 10  6  2  0  0  0  0
 10  8  1  0  0  0  0
 12 21  1  0  0  0  0
 13 20  1  0  0  0  0
 14 15  2  0  0  0  0
 15 16  1  0  0  0  0
 16 12  2  0  0  0  0
 17 18  1  0  0  0  0
 18 13  2  0  0  0  0
 18 16  1  0  0  0  0
 19 17  2  0  0  0  0
 19 14  1  0  0  0  0
 20 11  1  0  0  0  0
 20 21  2  0  0  0  0
 22 14  1  0  0  0  0
 22 23  1  0  0  0  0
 24 22  1  0  0  0  0
 25 26  1  0  0  0  0
 26 27  1  0  0  0  0
 27 28  1  0  0  0  0
 28 29  1  0  0  0  0
 29 31  1  0  0  0  0
 29 30  1  1  0  0  0
 32 34  1  0  0  0  0
 32 31  1  0  0  0  0
 33 34  1  0  0  0  0
M  END
>  <MODEL>
9

>  <REMARK>
 VINA RESULT:      -7.5      2.183      5.544
  Name = 
  11 active torsions:
  status: ('A' for Active; 'I' for Inactive)
    1  A    between atoms: C_1  and  O_34
    2  A    between atoms: C_2  and  C_23
    3  A    between atoms: C_2  and  C_32
    4  A    between atoms: O_3  and  C_24
    5  A    between atoms: O_3  and  C_27
    6  A    between atoms: C_7  and  N_11
    7  A    between atoms: C_17  and  C_18
    8  A    between atoms: C_18  and  C_30
    9  A    between atoms: C_23  and  C_25
   10  A    between atoms: C_25  and  C_27
   11  A    between atoms: C_32  and  O_34
                            x       y       z     vdW  Elec       q    Type
                         _______ _______ _______ _____ _____    ______ ____

>  <TORSDO>
F 11

$$$$
