=
 OpenBabel11062409223D

 37 39  0  0  1  0  0  0  0  0999 V2000
  160.5980  207.3420  153.4230 O   0  0  0  0  0  0  0  0  0  0  0  0
  159.2920  211.6810  152.6300 C   0  0  0  0  0  0  0  0  0  0  0  0
  161.4730  208.0850  152.5550 C   0  0  2  0  0  0  0  0  0  0  0  0
  161.4890  211.7230  155.7980 C   0  0  0  0  0  2  0  0  0  0  0  0
  159.8030  211.1610  153.9710 C   0  0  0  0  0  2  0  0  0  0  0  0
  161.8700  208.5120  156.4650 C   0  0  1  0  0  3  0  0  0  0  0  0
  160.2440  212.1480  151.5250 C   0  0  2  0  0  3  0  0  0  0  0  0
  160.4260  212.2600  154.8280 C   0  0  1  0  0  3  0  0  0  0  0  0
  162.3110  209.1180  153.3140 C   0  0  0  0  0  1  0  0  0  0  0  0
  161.4650  211.2380  151.3780 C   0  0  0  0  0  2  0  0  0  0  0  0
  160.5520  208.8060  151.5550 C   0  0  0  0  0  2  0  0  0  0  0  0
  157.9180  212.3210  152.6430 C   0  0  0  0  0  2  0  0  0  0  0  0
  161.1350  209.9220  150.6630 C   0  0  2  0  0  3  0  0  0  0  0  0
  160.8230  206.9900  154.7650 C   0  0  0  0  0  0  0  0  0  0  0  0
  160.9540  210.7620  156.8630 C   0  0  0  0  0  2  0  0  0  0  0  0
  158.1000  210.9100  152.1100 C   0  0  0  0  0  2  0  0  0  0  0  0
  159.9810  206.2630  155.3520 O   0  0  0  0  0  0  0  0  0  0  0  0
  160.6940  209.3950  156.2620 C   0  0  2  0  0  3  0  0  0  0  0  0
  160.7120  208.4020  157.2610 O   0  0  0  0  0  0  0  0  0  0  0  0
  161.9290  207.4740  155.4750 O   0  0  0  0  0  0  0  0  0  0  0  0
  158.0620  212.5820  155.6950 N   0  0  0  0  0  2  0  0  0  0  0  0
  157.1560  214.4360  156.8070 O   0  0  0  0  0  0  0  0  0  0  0  0
  159.3930  213.0870  155.5280 C   0  0  0  0  0  0  0  0  0  0  0  0
  156.9890  213.2780  156.3370 C   0  0  0  0  0  0  0  0  0  0  0  0
  159.7160  214.2180  155.9790 O   0  0  0  0  0  0  0  0  0  0  0  0
  155.6530  212.6180  156.4310 C   0  0  2  0  0  3  0  0  0  0  0  0
  155.6580  211.3160  155.6510 C   0  0  0  0  0  1  0  0  0  0  0  0
  154.9200  213.5530  154.5630 C   0  0  0  0  0  1  0  0  0  0  0  0
  154.6600  213.4640  155.9320 O   0  0  0  0  0  0  0  0  0  0  0  0
  161.5920  205.9880  151.3650 C   0  0  0  0  0  1  0  0  0  0  0  0
  162.3350  207.1630  151.8080 N   0  0  0  0  0  2  0  0  0  0  0  0
  160.7000  213.5770  151.7980 C   0  0  0  0  0  2  0  0  0  0  0  0
  160.5660  214.4470  150.5570 C   0  0  0  0  0  2  0  0  0  0  0  0
  159.4210  213.9590  149.6910 C   0  0  0  0  0  1  0  0  0  0  0  0
  162.1670  209.4580  149.7300 N   0  0  0  0  0  2  0  0  0  0  0  0
  161.5870  208.7250  148.6100 C   0  0  0  0  0  2  0  0  0  0  0  0
  162.4710  207.5430  148.2700 C   0  0  0  0  0  1  0  0  0  0  0  0
  1 14  1  0  0  0  0
  2 12  1  0  0  0  0
  2  5  1  0  0  0  0
  3  9  1  1  0  0  0
  3  1  1  0  0  0  0
  4 15  1  0  0  0  0
  5  8  1  0  0  0  0
  6 20  1  6  0  0  0
  6 19  1  0  0  0  0
  7 32  1  1  0  0  0
  7  2  1  0  0  0  0
  8 23  1  1  0  0  0
  8  4  1  0  0  0  0
 10  7  1  0  0  0  0
 11  3  1  0  0  0  0
 13 35  1  1  0  0  0
 13 10  1  0  0  0  0
 13 11  1  0  0  0  0
 14 17  2  0  0  0  0
 14 20  1  0  0  0  0
 16  2  1  0  0  0  0
 16 12  1  0  0  0  0
 18  6  1  0  0  0  0
 18 15  1  1  0  0  0
 18 19  1  0  0  0  0
 21 24  1  0  0  0  0
 23 21  1  0  0  0  0
 23 25  2  0  0  0  0
 24 26  1  0  0  0  0
 24 22  2  0  0  0  0
 26 27  1  6  0  0  0
 28 29  1  0  0  0  0
 29 26  1  0  0  0  0
 30 31  1  0  0  0  0
 31  3  1  0  0  0  0
 33 32  1  0  0  0  0
 34 33  1  0  0  0  0
 36 35  1  0  0  0  0
 37 36  1  0  0  0  0
M  END
>  <MODEL>
1

>  <REMARK>
 VINA RESULT:       0.3      0.000      0.000
  Name = 
  8 active torsions:
  status: ('A' for Active; 'I' for Inactive)
    1  A    between atoms: C_2  and  O_19
    2  A    between atoms: C_2  and  C_35
    3  A    between atoms: C_3  and  N_32
    4  A    between atoms: C_5  and  N_23
    5  A    between atoms: C_9  and  C_13
    6  A    between atoms: C_9  and  C_16
    7  A    between atoms: C_14  and  C_31
    8  A    between atoms: C_25  and  N_32
                            x       y       z     vdW  Elec       q    Type
                         _______ _______ _______ _____ _____    ______ ____

>  <TORSDO>
F 8

$$$$
=
 OpenBabel11062409223D

 37 39  0  0  1  0  0  0  0  0999 V2000
  162.8000  207.1240  151.4710 O   0  0  0  0  0  0  0  0  0  0  0  0
  162.2260  204.9680  147.4470 C   0  0  0  0  0  0  0  0  0  0  0  0
  161.8670  207.7570  150.5750 C   0  0  2  0  0  0  0  0  0  0  0  0
  159.6820  203.4520  149.9150 C   0  0  0  0  0  2  0  0  0  0  0  0
  161.7500  204.4310  148.7940 C   0  0  0  0  0  2  0  0  0  0  0  0
  160.6090  204.7470  152.8070 C   0  0  1  0  0  3  0  0  0  0  0  0
  161.3880  205.9530  146.6260 C   0  0  2  0  0  3  0  0  0  0  0  0
  160.5670  203.4750  148.6610 C   0  0  1  0  0  3  0  0  0  0  0  0
  160.5410  206.9980  150.4790 C   0  0  0  0  0  1  0  0  0  0  0  0
  160.7300  207.0290  147.4930 C   0  0  0  0  0  2  0  0  0  0  0  0
  162.5540  207.7680  149.1980 C   0  0  0  0  0  2  0  0  0  0  0  0
  163.1590  204.0690  146.6620 C   0  0  0  0  0  2  0  0  0  0  0  0
  161.7230  208.1080  147.9440 C   0  0  2  0  0  3  0  0  0  0  0  0
  162.5050  206.3830  152.6270 C   0  0  0  0  0  0  0  0  0  0  0  0
  160.3720  202.9200  151.1740 C   0  0  0  0  0  2  0  0  0  0  0  0
  163.7070  205.2690  147.4170 C   0  0  0  0  0  2  0  0  0  0  0  0
  163.4540  205.9660  153.3410 O   0  0  0  0  0  0  0  0  0  0  0  0
  161.3030  203.9680  151.7510 C   0  0  2  0  0  3  0  0  0  0  0  0
  161.5310  203.7290  153.1210 O   0  0  0  0  0  0  0  0  0  0  0  0
  161.1890  206.0510  152.9700 O   0  0  0  0  0  0  0  0  0  0  0  0
  160.7190  201.6330  146.9200 N   0  0  0  0  0  2  0  0  0  0  0  0
  161.6540  199.4950  147.1360 O   0  0  0  0  0  0  0  0  0  0  0  0
  160.9930  202.1000  148.2470 C   0  0  0  0  0  0  0  0  0  0  0  0
  161.0680  200.3430  146.4100 C   0  0  0  0  0  0  0  0  0  0  0  0
  161.6060  201.3740  149.0740 O   0  0  0  0  0  0  0  0  0  0  0  0
  160.7110  200.0010  145.0010 C   0  0  2  0  0  3  0  0  0  0  0  0
  159.6360  200.9450  144.4920 C   0  0  0  0  0  1  0  0  0  0  0  0
  161.4160  197.9120  144.7970 C   0  0  0  0  0  1  0  0  0  0  0  0
  160.2580  198.6820  144.9240 O   0  0  0  0  0  0  0  0  0  0  0  0
  160.6160  209.2290  152.0230 C   0  0  0  0  0  1  0  0  0  0  0  0
  161.6430  209.1470  150.9900 N   0  0  0  0  0  2  0  0  0  0  0  0
  160.3170  205.2020  145.8420 C   0  0  0  0  0  2  0  0  0  0  0  0
  160.8710  204.6560  144.5350 C   0  0  0  0  0  2  0  0  0  0  0  0
  161.6360  205.7360  143.7930 C   0  0  0  0  0  1  0  0  0  0  0  0
  161.1850  209.4730  147.9410 N   0  0  0  0  0  2  0  0  0  0  0  0
  162.2080  210.4540  148.2830 C   0  0  0  0  0  2  0  0  0  0  0  0
  161.6030  211.8420  148.2630 C   0  0  0  0  0  1  0  0  0  0  0  0
  1 14  1  0  0  0  0
  2  5  1  0  0  0  0
  3  9  1  6  0  0  0
  3 31  1  0  0  0  0
  3  1  1  0  0  0  0
  4 15  1  0  0  0  0
  6 20  1  6  0  0  0
  6 19  1  0  0  0  0
  7 32  1  1  0  0  0
  7  2  1  0  0  0  0
  7 10  1  0  0  0  0
  8 23  1  1  0  0  0
  8  5  1  0  0  0  0
  8  4  1  0  0  0  0
 10 13  1  0  0  0  0
 11  3  1  0  0  0  0
 12 16  1  0  0  0  0
 12  2  1  0  0  0  0
 13 35  1  1  0  0  0
 13 11  1  0  0  0  0
 14 20  1  0  0  0  0
 14 17  2  0  0  0  0
 16  2  1  0  0  0  0
 18 15  1  1  0  0  0
 18  6  1  0  0  0  0
 18 19  1  0  0  0  0
 21 23  1  0  0  0  0
 23 25  2  0  0  0  0
 24 21  1  0  0  0  0
 24 22  2  0  0  0  0
 26 27  1  1  0  0  0
 26 24  1  0  0  0  0
 28 29  1  0  0  0  0
 29 26  1  0  0  0  0
 31 30  1  0  0  0  0
 33 32  1  0  0  0  0
 34 33  1  0  0  0  0
 35 36  1  0  0  0  0
 37 36  1  0  0  0  0
M  END
>  <MODEL>
2

>  <REMARK>
 VINA RESULT:       0.6      4.965     10.279
  Name = 
  8 active torsions:
  status: ('A' for Active; 'I' for Inactive)
    1  A    between atoms: C_2  and  O_19
    2  A    between atoms: C_2  and  C_35
    3  A    between atoms: C_3  and  N_32
    4  A    between atoms: C_5  and  N_23
    5  A    between atoms: C_9  and  C_13
    6  A    between atoms: C_9  and  C_16
    7  A    between atoms: C_14  and  C_31
    8  A    between atoms: C_25  and  N_32
                            x       y       z     vdW  Elec       q    Type
                         _______ _______ _______ _____ _____    ______ ____

>  <TORSDO>
F 8

$$$$
=
 OpenBabel11062409223D

 37 39  0  0  1  0  0  0  0  0999 V2000
  156.9110  212.9240  151.7990 O   0  0  0  0  0  0  0  0  0  0  0  0
  160.2210  210.0930  153.2820 C   0  0  0  0  0  0  0  0  0  0  0  0
  157.6320  213.3920  152.9540 C   0  0  2  0  0  0  0  0  0  0  0  0
  161.8160  212.4180  150.6520 C   0  0  0  0  0  2  0  0  0  0  0  0
  160.2740  210.8790  151.9740 C   0  0  0  0  0  2  0  0  0  0  0  0
  159.2010  213.9760  149.3730 C   0  0  1  0  0  3  0  0  0  0  0  0
  160.6520  210.7100  154.6160 C   0  0  2  0  0  3  0  0  0  0  0  0
  161.7030  211.1480  151.5080 C   0  0  1  0  0  3  0  0  0  0  0  0
  159.0420  213.8760  152.6060 C   0  0  0  0  0  1  0  0  0  0  0  0
  160.1760  212.1550  154.7760 C   0  0  0  0  0  2  0  0  0  0  0  0
  157.7220  212.1860  153.9050 C   0  0  0  0  0  2  0  0  0  0  0  0
  160.3670  208.5900  153.1620 C   0  0  0  0  0  2  0  0  0  0  0  0
  158.6810  212.2480  155.1110 C   0  0  2  0  0  3  0  0  0  0  0  0
  157.0250  213.3830  150.4770 C   0  0  0  0  0  0  0  0  0  0  0  0
  161.0590  212.3620  149.3220 C   0  0  0  0  0  2  0  0  0  0  0  0
  158.9990  209.2110  153.3940 C   0  0  0  0  0  2  0  0  0  0  0  0
  156.2540  212.9140  149.6000 O   0  0  0  0  0  0  0  0  0  0  0  0
  159.5720  212.5490  149.5500 C   0  0  2  0  0  3  0  0  0  0  0  0
  158.9450  213.0120  148.3760 O   0  0  0  0  0  0  0  0  0  0  0  0
  158.0090  214.3070  150.1030 O   0  0  0  0  0  0  0  0  0  0  0  0
  161.5480  209.2020  149.8860 N   0  0  0  0  0  2  0  0  0  0  0  0
  163.1780  207.5970  149.3740 O   0  0  0  0  0  0  0  0  0  0  0  0
  162.3120  209.9590  150.8330 C   0  0  0  0  0  0  0  0  0  0  0  0
  162.0150  208.0460  149.1830 C   0  0  0  0  0  0  0  0  0  0  0  0
  163.5030  209.6490  151.0980 O   0  0  0  0  0  0  0  0  0  0  0  0
  161.0960  207.3610  148.2260 C   0  0  2  0  0  3  0  0  0  0  0  0
  160.3580  206.2350  148.9260 C   0  0  0  0  0  1  0  0  0  0  0  0
  161.4010  205.5250  147.0270 C   0  0  0  0  0  1  0  0  0  0  0  0
  161.8180  206.8520  147.1440 O   0  0  0  0  0  0  0  0  0  0  0  0
  155.4760  214.0590  153.8110 C   0  0  0  0  0  1  0  0  0  0  0  0
  156.8680  214.4520  153.6220 N   0  0  0  0  0  2  0  0  0  0  0  0
  162.1690  210.6520  154.7530 C   0  0  0  0  0  2  0  0  0  0  0  0
  162.5840  210.3360  156.1820 C   0  0  0  0  0  2  0  0  0  0  0  0
  161.9480  209.0380  156.6420 C   0  0  0  0  0  1  0  0  0  0  0  0
  158.3390  213.2850  156.0900 N   0  0  0  0  0  2  0  0  0  0  0  0
  157.6640  212.7220  157.2550 C   0  0  0  0  0  2  0  0  0  0  0  0
  156.2020  213.1120  157.2270 C   0  0  0  0  0  1  0  0  0  0  0  0
  1  3  1  0  0  0  0
  2 16  1  0  0  0  0
  2  7  1  0  0  0  0
  3  9  1  6  0  0  0
  3 31  1  0  0  0  0
  3 11  1  0  0  0  0
  4  8  1  0  0  0  0
  5  2  1  0  0  0  0
  6 19  1  6  0  0  0
  6 18  1  0  0  0  0
  6 20  1  0  0  0  0
  7 32  1  6  0  0  0
  7 10  1  0  0  0  0
  8 23  1  6  0  0  0
  8  5  1  0  0  0  0
 10 13  1  0  0  0  0
 11 13  1  0  0  0  0
 12  2  1  0  0  0  0
 12 16  1  0  0  0  0
 13 35  1  6  0  0  0
 14  1  1  0  0  0  0
 15  4  1  0  0  0  0
 17 14  2  0  0  0  0
 18 15  1  6  0  0  0
 19 18  1  0  0  0  0
 20 14  1  0  0  0  0
 21 23  1  0  0  0  0
 23 25  2  0  0  0  0
 24 22  2  0  0  0  0
 24 21  1  0  0  0  0
 26 27  1  1  0  0  0
 26 24  1  0  0  0  0
 28 29  1  0  0  0  0
 29 26  1  0  0  0  0
 31 30  1  0  0  0  0
 32 33  1  0  0  0  0
 33 34  1  0  0  0  0
 35 36  1  0  0  0  0
 37 36  1  0  0  0  0
M  END
>  <MODEL>
3

>  <REMARK>
 VINA RESULT:       1.2      2.942      8.166
  Name = 
  8 active torsions:
  status: ('A' for Active; 'I' for Inactive)
    1  A    between atoms: C_2  and  O_19
    2  A    between atoms: C_2  and  C_35
    3  A    between atoms: C_3  and  N_32
    4  A    between atoms: C_5  and  N_23
    5  A    between atoms: C_9  and  C_13
    6  A    between atoms: C_9  and  C_16
    7  A    between atoms: C_14  and  C_31
    8  A    between atoms: C_25  and  N_32
                            x       y       z     vdW  Elec       q    Type
                         _______ _______ _______ _____ _____    ______ ____

>  <TORSDO>
F 8

$$$$
=
 OpenBabel11062409223D

 37 39  0  0  1  0  0  0  0  0999 V2000
  160.2240  210.4870  151.8200 O   0  0  0  0  0  0  0  0  0  0  0  0
  160.6830  206.0640  150.6400 C   0  0  0  0  0  0  0  0  0  0  0  0
  161.1040  209.7260  152.6670 C   0  0  2  0  0  0  0  0  0  0  0  0
  163.3610  208.0380  148.6910 C   0  0  0  0  0  2  0  0  0  0  0  0
  161.2260  207.2380  149.8300 C   0  0  0  0  0  2  0  0  0  0  0  0
  162.5230  211.1770  149.2750 C   0  0  1  0  0  3  0  0  0  0  0  0
  161.4640  205.4580  151.8110 C   0  0  2  0  0  3  0  0  0  0  0  0
  162.4240  206.8520  148.9660 C   0  0  1  0  0  3  0  0  0  0  0  0
  162.4420  209.4160  151.9910 C   0  0  0  0  0  1  0  0  0  0  0  0
  162.1310  206.5210  152.6850 C   0  0  0  0  0  2  0  0  0  0  0  0
  160.3610  208.4110  152.9640 C   0  0  0  0  0  2  0  0  0  0  0  0
  159.7400  205.1300  149.9110 C   0  0  0  0  0  2  0  0  0  0  0  0
  161.1320  207.2390  153.6030 C   0  0  2  0  0  3  0  0  0  0  0  0
  160.5830  211.4360  150.8470 C   0  0  0  0  0  0  0  0  0  0  0  0
  162.7360  209.1670  147.8680 C   0  0  0  0  0  2  0  0  0  0  0  0
  159.1950  206.1540  150.8920 C   0  0  0  0  0  2  0  0  0  0  0  0
  159.6750  212.0710  150.2520 O   0  0  0  0  0  0  0  0  0  0  0  0
  161.8040  209.9980  148.7300 C   0  0  2  0  0  3  0  0  0  0  0  0
  161.6390  211.2850  148.1830 O   0  0  0  0  0  0  0  0  0  0  0  0
  161.9200  211.6500  150.4890 O   0  0  0  0  0  0  0  0  0  0  0  0
  161.8750  204.7280  147.6890 N   0  0  0  0  0  2  0  0  0  0  0  0
  161.2650  204.4960  145.4380 O   0  0  0  0  0  0  0  0  0  0  0  0
  162.0140  206.1540  147.7070 C   0  0  0  0  0  0  0  0  0  0  0  0
  161.4970  203.9490  146.5500 C   0  0  0  0  0  0  0  0  0  0  0  0
  161.7800  206.8390  146.6760 O   0  0  0  0  0  0  0  0  0  0  0  0
  161.3970  202.4650  146.6890 C   0  0  2  0  0  3  0  0  0  0  0  0
  160.5380  201.8940  145.5760 C   0  0  0  0  0  1  0  0  0  0  0  0
  161.2610  200.8210  148.1660 C   0  0  0  0  0  1  0  0  0  0  0  0
  160.8470  202.1330  147.9290 O   0  0  0  0  0  0  0  0  0  0  0  0
  160.0410  210.7860  154.5570 C   0  0  0  0  0  1  0  0  0  0  0  0
  161.3130  210.4350  153.9340 N   0  0  0  0  0  2  0  0  0  0  0  0
  162.5180  204.4880  151.2890 C   0  0  0  0  0  2  0  0  0  0  0  0
  162.0640  203.0440  151.4410 C   0  0  0  0  0  2  0  0  0  0  0  0
  160.8200  202.9700  152.3060 C   0  0  0  0  0  1  0  0  0  0  0  0
  161.6380  207.5240  154.9500 N   0  0  0  0  0  2  0  0  0  0  0  0
  160.6370  207.2350  155.9720 C   0  0  0  0  0  2  0  0  0  0  0  0
  160.8100  208.1910  157.1320 C   0  0  0  0  0  1  0  0  0  0  0  0
  1  3  1  0  0  0  0
  2 16  1  0  0  0  0
  2  7  1  0  0  0  0
  3  9  1  6  0  0  0
  3 11  1  0  0  0  0
  3 31  1  0  0  0  0
  4  8  1  0  0  0  0
  5  2  1  0  0  0  0
  6 19  1  6  0  0  0
  6 20  1  0  0  0  0
  7 32  1  6  0  0  0
  7 10  1  0  0  0  0
  8 23  1  6  0  0  0
  8  5  1  0  0  0  0
 10 13  1  0  0  0  0
 11 13  1  0  0  0  0
 12  2  1  0  0  0  0
 12 16  1  0  0  0  0
 13 35  1  1  0  0  0
 14  1  1  0  0  0  0
 15  4  1  0  0  0  0
 17 14  2  0  0  0  0
 18 15  1  6  0  0  0
 18  6  1  0  0  0  0
 19 18  1  0  0  0  0
 20 14  1  0  0  0  0
 21 23  1  0  0  0  0
 22 24  2  0  0  0  0
 24 26  1  0  0  0  0
 24 21  1  0  0  0  0
 25 23  2  0  0  0  0
 26 27  1  6  0  0  0
 26 29  1  0  0  0  0
 29 28  1  0  0  0  0
 31 30  1  0  0  0  0
 32 33  1  0  0  0  0
 33 34  1  0  0  0  0
 35 36  1  0  0  0  0
 36 37  1  0  0  0  0
M  END
>  <MODEL>
4

>  <REMARK>
 VINA RESULT:       1.5      3.822      9.262
  Name = 
  8 active torsions:
  status: ('A' for Active; 'I' for Inactive)
    1  A    between atoms: C_2  and  O_19
    2  A    between atoms: C_2  and  C_35
    3  A    between atoms: C_3  and  N_32
    4  A    between atoms: C_5  and  N_23
    5  A    between atoms: C_9  and  C_13
    6  A    between atoms: C_9  and  C_16
    7  A    between atoms: C_14  and  C_31
    8  A    between atoms: C_25  and  N_32
                            x       y       z     vdW  Elec       q    Type
                         _______ _______ _______ _____ _____    ______ ____

>  <TORSDO>
F 8

$$$$
=
 OpenBabel11062409223D

 37 39  0  0  1  0  0  0  0  0999 V2000
  159.8320  202.4260  147.5730 O   0  0  0  0  0  0  0  0  0  0  0  0
  160.9080  206.4690  149.4880 C   0  0  0  0  0  0  0  0  0  0  0  0
  161.0300  203.0360  147.0600 C   0  0  2  0  0  0  0  0  0  0  0  0
  162.5580  203.7250  151.6360 C   0  0  0  0  0  2  0  0  0  0  0  0
  160.9790  205.1230  150.2050 C   0  0  0  0  0  2  0  0  0  0  0  0
  161.2480  200.9530  150.4130 C   0  0  1  0  0  3  0  0  0  0  0  0
  162.0580  206.9850  148.6180 C   0  0  2  0  0  3  0  0  0  0  0  0
  161.9860  205.1220  151.3530 C   0  0  1  0  0  3  0  0  0  0  0  0
  162.1990  202.9470  148.0450 C   0  0  0  0  0  1  0  0  0  0  0  0
  162.6790  205.8870  147.7530 C   0  0  0  0  0  2  0  0  0  0  0  0
  160.6740  204.5130  146.8170 C   0  0  0  0  0  2  0  0  0  0  0  0
  160.0330  207.5230  150.1340 C   0  0  0  0  0  2  0  0  0  0  0  0
  161.8050  205.5260  146.5440 C   0  0  2  0  0  3  0  0  0  0  0  0
  159.7380  201.3260  148.4420 C   0  0  0  0  0  0  0  0  0  0  0  0
  161.5300  202.7010  152.1230 C   0  0  0  0  0  2  0  0  0  0  0  0
  159.5400  206.7630  148.9140 C   0  0  0  0  0  2  0  0  0  0  0  0
  158.6000  200.8710  148.7260 O   0  0  0  0  0  0  0  0  0  0  0  0
  160.6830  202.2090  150.9660 C   0  0  2  0  0  3  0  0  0  0  0  0
  160.1230  200.9500  151.2610 O   0  0  0  0  0  0  0  0  0  0  0  0
  160.8730  200.7630  149.0400 O   0  0  0  0  0  0  0  0  0  0  0  0
  161.5390  207.1860  152.7620 N   0  0  0  0  0  2  0  0  0  0  0  0
  160.5090  207.3230  154.8630 O   0  0  0  0  0  0  0  0  0  0  0  0
  161.4390  205.7670  152.5880 C   0  0  0  0  0  0  0  0  0  0  0  0
  161.0620  207.9160  153.8960 C   0  0  0  0  0  0  0  0  0  0  0  0
  160.8780  205.0480  153.4570 O   0  0  0  0  0  0  0  0  0  0  0  0
  161.2430  209.3980  153.9320 C   0  0  2  0  0  3  0  0  0  0  0  0
  161.5740  209.8490  155.3430 C   0  0  0  0  0  1  0  0  0  0  0  0
  160.4890  210.8050  152.3980 C   0  0  0  0  0  1  0  0  0  0  0  0
  160.0820  210.0360  153.4910 O   0  0  0  0  0  0  0  0  0  0  0  0
  160.1950  202.0570  145.0180 C   0  0  0  0  0  1  0  0  0  0  0  0
  161.3870  202.4290  145.7730 N   0  0  0  0  0  2  0  0  0  0  0  0
  163.1330  207.6170  149.4950 C   0  0  0  0  0  2  0  0  0  0  0  0
  162.7050  208.9880  149.9930 C   0  0  0  0  0  2  0  0  0  0  0  0
  162.3270  209.8810  148.8260 C   0  0  0  0  0  1  0  0  0  0  0  0
  162.5510  205.2650  145.3080 N   0  0  0  0  0  2  0  0  0  0  0  0
  161.7150  205.4500  144.1280 C   0  0  0  0  0  2  0  0  0  0  0  0
  160.4600  206.2040  144.5120 C   0  0  0  0  0  1  0  0  0  0  0  0
  1 14  1  0  0  0  0
  2 12  1  0  0  0  0
  2  5  1  0  0  0  0
  3  1  1  0  0  0  0
  3  9  1  1  0  0  0
  4 15  1  0  0  0  0
  5  8  1  0  0  0  0
  6 20  1  6  0  0  0
  6 18  1  0  0  0  0
  6 19  1  0  0  0  0
  7  2  1  0  0  0  0
  7 32  1  1  0  0  0
  8  4  1  0  0  0  0
  8 23  1  1  0  0  0
 10  7  1  0  0  0  0
 11  3  1  0  0  0  0
 13 35  1  6  0  0  0
 13 11  1  0  0  0  0
 13 10  1  0  0  0  0
 14 17  2  0  0  0  0
 14 20  1  0  0  0  0
 16  2  1  0  0  0  0
 16 12  1  0  0  0  0
 18 19  1  0  0  0  0
 18 15  1  1  0  0  0
 21 24  1  0  0  0  0
 23 21  1  0  0  0  0
 23 25  2  0  0  0  0
 24 26  1  0  0  0  0
 24 22  2  0  0  0  0
 26 27  1  1  0  0  0
 28 29  1  0  0  0  0
 29 26  1  0  0  0  0
 30 31  1  0  0  0  0
 31  3  1  0  0  0  0
 32 33  1  0  0  0  0
 34 33  1  0  0  0  0
 36 37  1  0  0  0  0
 36 35  1  0  0  0  0
M  END
>  <MODEL>
5

>  <REMARK>
 VINA RESULT:       1.6      4.140      7.435
  Name = 
  8 active torsions:
  status: ('A' for Active; 'I' for Inactive)
    1  A    between atoms: C_2  and  O_19
    2  A    between atoms: C_2  and  C_35
    3  A    between atoms: C_3  and  N_32
    4  A    between atoms: C_5  and  N_23
    5  A    between atoms: C_9  and  C_13
    6  A    between atoms: C_9  and  C_16
    7  A    between atoms: C_14  and  C_31
    8  A    between atoms: C_25  and  N_32
                            x       y       z     vdW  Elec       q    Type
                         _______ _______ _______ _____ _____    ______ ____

>  <TORSDO>
F 8

$$$$
=
 OpenBabel11062409223D

 37 39  0  0  1  0  0  0  0  0999 V2000
  162.7050  203.1430  147.2660 O   0  0  0  0  0  0  0  0  0  0  0  0
  162.1510  204.8730  151.4940 C   0  0  0  0  0  0  0  0  0  0  0  0
  161.5760  202.6200  147.9890 C   0  0  2  0  0  0  0  0  0  0  0  0
  160.2400  207.1810  149.0670 C   0  0  0  0  0  2  0  0  0  0  0  0
  161.9390  205.6580  150.2010 C   0  0  0  0  0  2  0  0  0  0  0  0
  161.1900  206.0750  146.1060 C   0  0  1  0  0  3  0  0  0  0  0  0
  161.0500  203.9980  152.1000 C   0  0  2  0  0  3  0  0  0  0  0  0
  160.9640  206.8200  150.3720 C   0  0  1  0  0  3  0  0  0  0  0  0
  160.4260  203.6270  148.0840 C   0  0  0  0  0  1  0  0  0  0  0  0
  160.2860  203.1980  151.0430 C   0  0  0  0  0  2  0  0  0  0  0  0
  162.0960  202.2990  149.4000 C   0  0  0  0  0  2  0  0  0  0  0  0
  163.1570  205.4530  152.4670 C   0  0  0  0  0  2  0  0  0  0  0  0
  161.0850  201.9950  150.5250 C   0  0  2  0  0  3  0  0  0  0  0  0
  162.6900  204.0640  146.2060 C   0  0  0  0  0  0  0  0  0  0  0  0
  161.1520  207.7010  147.9530 C   0  0  0  0  0  2  0  0  0  0  0  0
  163.5300  204.2640  151.5970 C   0  0  0  0  0  2  0  0  0  0  0  0
  163.7730  204.3510  145.6330 O   0  0  0  0  0  0  0  0  0  0  0  0
  161.9100  206.5560  147.3110 C   0  0  2  0  0  3  0  0  0  0  0  0
  162.3250  206.9040  146.0110 O   0  0  0  0  0  0  0  0  0  0  0  0
  161.5110  204.7070  145.8090 O   0  0  0  0  0  0  0  0  0  0  0  0
  160.8600  208.8450  151.9000 N   0  0  0  0  0  2  0  0  0  0  0  0
  162.5460  210.4020  152.3750 O   0  0  0  0  0  0  0  0  0  0  0  0
  161.6100  208.0130  151.0060 C   0  0  0  0  0  0  0  0  0  0  0  0
  161.3610  210.0120  152.5590 C   0  0  0  0  0  0  0  0  0  0  0  0
  162.8190  208.2600  150.7550 O   0  0  0  0  0  0  0  0  0  0  0  0
  160.4520  210.7790  153.4630 C   0  0  2  0  0  3  0  0  0  0  0  0
  159.8080  211.9250  152.7040 C   0  0  0  0  0  1  0  0  0  0  0  0
  161.0130  210.3120  155.5530 C   0  0  0  0  0  1  0  0  0  0  0  0
  161.1660  211.2770  154.5550 O   0  0  0  0  0  0  0  0  0  0  0  0
  160.4540  201.6260  146.0970 C   0  0  0  0  0  1  0  0  0  0  0  0
  161.1230  201.3700  147.3670 N   0  0  0  0  0  2  0  0  0  0  0  0
  160.0750  204.8600  152.8940 C   0  0  0  0  0  2  0  0  0  0  0  0
  160.7350  205.4390  154.1360 C   0  0  0  0  0  2  0  0  0  0  0  0
  160.3040  206.8790  154.3400 C   0  0  0  0  0  1  0  0  0  0  0  0
  160.2870  200.7860  150.2960 N   0  0  0  0  0  2  0  0  0  0  0  0
  158.8570  201.0610  150.3860 C   0  0  0  0  0  2  0  0  0  0  0  0
  158.2350  200.9530  149.0110 C   0  0  0  0  0  1  0  0  0  0  0  0
  1  3  1  0  0  0  0
  2 16  1  0  0  0  0
  2  7  1  0  0  0  0
  2 12  1  0  0  0  0
  3  9  1  1  0  0  0
  3 11  1  0  0  0  0
  4  8  1  0  0  0  0
  5  8  1  0  0  0  0
  5  2  1  0  0  0  0
  6 20  1  6  0  0  0
  6 18  1  0  0  0  0
  7 32  1  6  0  0  0
  8 23  1  6  0  0  0
 10  7  1  0  0  0  0
 11 13  1  0  0  0  0
 13 35  1  6  0  0  0
 13 10  1  0  0  0  0
 14  1  1  0  0  0  0
 15  4  1  0  0  0  0
 16 12  1  0  0  0  0
 17 14  2  0  0  0  0
 18 15  1  1  0  0  0
 19  6  1  0  0  0  0
 19 18  1  0  0  0  0
 20 14  1  0  0  0  0
 21 24  1  0  0  0  0
 22 24  2  0  0  0  0
 23 21  1  0  0  0  0
 24 26  1  0  0  0  0
 25 23  2  0  0  0  0
 26 27  1  6  0  0  0
 26 29  1  0  0  0  0
 29 28  1  0  0  0  0
 30 31  1  0  0  0  0
 31  3  1  0  0  0  0
 32 33  1  0  0  0  0
 33 34  1  0  0  0  0
 35 36  1  0  0  0  0
 37 36  1  0  0  0  0
M  END
>  <MODEL>
6

>  <REMARK>
 VINA RESULT:       2.8      4.299      8.213
  Name = 
  8 active torsions:
  status: ('A' for Active; 'I' for Inactive)
    1  A    between atoms: C_2  and  O_19
    2  A    between atoms: C_2  and  C_35
    3  A    between atoms: C_3  and  N_32
    4  A    between atoms: C_5  and  N_23
    5  A    between atoms: C_9  and  C_13
    6  A    between atoms: C_9  and  C_16
    7  A    between atoms: C_14  and  C_31
    8  A    between atoms: C_25  and  N_32
                            x       y       z     vdW  Elec       q    Type
                         _______ _______ _______ _____ _____    ______ ____

>  <TORSDO>
F 8

$$$$
=
 OpenBabel11062409223D

 37 39  0  0  1  0  0  0  0  0999 V2000
  159.9890  202.0450  148.2500 O   0  0  0  0  0  0  0  0  0  0  0  0
  160.7870  206.5340  148.8620 C   0  0  0  0  0  0  0  0  0  0  0  0
  161.1670  202.5430  147.5900 C   0  0  2  0  0  0  0  0  0  0  0  0
  162.5190  204.6720  151.7600 C   0  0  0  0  0  2  0  0  0  0  0  0
  160.9100  205.4750  149.9540 C   0  0  0  0  0  2  0  0  0  0  0  0
  161.3970  201.5860  151.4190 C   0  0  1  0  0  3  0  0  0  0  0  0
  161.9330  206.8320  147.8900 C   0  0  2  0  0  3  0  0  0  0  0  0
  161.8810  205.8810  151.0600 C   0  0  1  0  0  3  0  0  0  0  0  0
  162.3090  202.8260  148.5690 C   0  0  0  0  0  1  0  0  0  0  0  0
  162.6380  205.5640  147.4060 C   0  0  0  0  0  2  0  0  0  0  0  0
  160.7390  203.8530  146.9070 C   0  0  0  0  0  2  0  0  0  0  0  0
  159.8380  207.6800  149.1480 C   0  0  0  0  0  2  0  0  0  0  0  0
  161.8210  204.8030  146.3530 C   0  0  2  0  0  3  0  0  0  0  0  0
  159.9280  201.2550  149.4100 C   0  0  0  0  0  0  0  0  0  0  0  0
  161.5330  203.7830  152.5220 C   0  0  0  0  0  2  0  0  0  0  0  0
  159.4240  206.5580  148.2090 C   0  0  0  0  0  2  0  0  0  0  0  0
  158.8080  200.8390  149.8050 O   0  0  0  0  0  0  0  0  0  0  0  0
  160.7480  202.9140  151.5590 C   0  0  2  0  0  3  0  0  0  0  0  0
  160.2490  201.7720  152.2150 O   0  0  0  0  0  0  0  0  0  0  0  0
  161.0730  200.9690  150.1630 O   0  0  0  0  0  0  0  0  0  0  0  0
  161.4100  206.6160  153.4440 N   0  0  0  0  0  2  0  0  0  0  0  0
  160.1760  208.4670  154.1830 O   0  0  0  0  0  0  0  0  0  0  0  0
  161.2630  206.8350  152.0350 C   0  0  0  0  0  0  0  0  0  0  0  0
  160.8630  207.4490  154.4710 C   0  0  0  0  0  0  0  0  0  0  0  0
  160.6320  207.8330  151.5990 O   0  0  0  0  0  0  0  0  0  0  0  0
  161.1010  207.0860  155.9000 C   0  0  2  0  0  3  0  0  0  0  0  0
  159.7780  206.9530  156.6320 C   0  0  0  0  0  1  0  0  0  0  0  0
  160.9850  208.8600  157.2200 C   0  0  0  0  0  1  0  0  0  0  0  0
  161.8890  208.0590  156.5190 O   0  0  0  0  0  0  0  0  0  0  0  0
  160.5110  201.3210  145.6140 C   0  0  0  0  0  1  0  0  0  0  0  0
  161.5930  201.5980  146.5520 N   0  0  0  0  0  2  0  0  0  0  0  0
  162.9460  207.7630  148.5470 C   0  0  0  0  0  2  0  0  0  0  0  0
  162.4110  209.1830  148.6440 C   0  0  0  0  0  2  0  0  0  0  0  0
  162.5820  209.7170  150.0530 C   0  0  0  0  0  1  0  0  0  0  0  0
  162.6170  204.2270  145.2630 N   0  0  0  0  0  2  0  0  0  0  0  0
  162.4020  204.9390  144.0090 C   0  0  0  0  0  2  0  0  0  0  0  0
  161.1560  205.7910  144.1190 C   0  0  0  0  0  1  0  0  0  0  0  0
  1 14  1  0  0  0  0
  2 12  1  0  0  0  0
  2  5  1  0  0  0  0
  3  1  1  0  0  0  0
  3  9  1  1  0  0  0
  4 15  1  0  0  0  0
  5  8  1  0  0  0  0
  6 20  1  6  0  0  0
  6 18  1  0  0  0  0
  6 19  1  0  0  0  0
  7 32  1  1  0  0  0
  7  2  1  0  0  0  0
  8  4  1  0  0  0  0
  8 23  1  1  0  0  0
 10  7  1  0  0  0  0
 11  3  1  0  0  0  0
 13 35  1  1  0  0  0
 13 11  1  0  0  0  0
 13 10  1  0  0  0  0
 14 17  2  0  0  0  0
 14 20  1  0  0  0  0
 16  2  1  0  0  0  0
 16 12  1  0  0  0  0
 18 19  1  0  0  0  0
 18 15  1  1  0  0  0
 21 24  1  0  0  0  0
 22 24  2  0  0  0  0
 23 21  1  0  0  0  0
 24 26  1  0  0  0  0
 25 23  2  0  0  0  0
 26 29  1  0  0  0  0
 26 27  1  1  0  0  0
 29 28  1  0  0  0  0
 30 31  1  0  0  0  0
 31  3  1  0  0  0  0
 32 33  1  0  0  0  0
 33 34  1  0  0  0  0
 36 37  1  0  0  0  0
 36 35  1  0  0  0  0
M  END
>  <MODEL>
7

>  <REMARK>
 VINA RESULT:       3.1      4.295      7.294
  Name = 
  8 active torsions:
  status: ('A' for Active; 'I' for Inactive)
    1  A    between atoms: C_2  and  O_19
    2  A    between atoms: C_2  and  C_35
    3  A    between atoms: C_3  and  N_32
    4  A    between atoms: C_5  and  N_23
    5  A    between atoms: C_9  and  C_13
    6  A    between atoms: C_9  and  C_16
    7  A    between atoms: C_14  and  C_31
    8  A    between atoms: C_25  and  N_32
                            x       y       z     vdW  Elec       q    Type
                         _______ _______ _______ _____ _____    ______ ____

>  <TORSDO>
F 8

$$$$
=
 OpenBabel11062409223D

 37 39  0  0  1  0  0  0  0  0999 V2000
  162.8220  208.4670  148.1430 O   0  0  0  0  0  0  0  0  0  0  0  0
  162.3020  205.8900  151.9190 C   0  0  0  0  0  0  0  0  0  0  0  0
  161.8140  207.4450  148.0410 C   0  0  2  0  0  0  0  0  0  0  0  0
  159.9670  208.9340  152.2980 C   0  0  0  0  0  2  0  0  0  0  0  0
  161.9140  207.3620  151.8140 C   0  0  0  0  0  2  0  0  0  0  0  0
  160.8740  210.8680  149.7800 C   0  0  1  0  0  3  0  0  0  0  0  0
  161.3620  204.7690  151.4640 C   0  0  2  0  0  3  0  0  0  0  0  0
  160.8090  207.7500  152.7940 C   0  0  1  0  0  3  0  0  0  0  0  0
  160.5520  207.7860  148.8370 C   0  0  0  0  0  1  0  0  0  0  0  0
  160.6450  205.1000  150.1530 C   0  0  0  0  0  2  0  0  0  0  0  0
  162.4550  206.1690  148.6160 C   0  0  0  0  0  2  0  0  0  0  0  0
  163.2810  205.5350  153.0190 C   0  0  0  0  0  2  0  0  0  0  0  0
  161.5610  204.9530  148.9300 C   0  0  2  0  0  3  0  0  0  0  0  0
  162.6250  209.8500  148.2960 C   0  0  0  0  0  0  0  0  0  0  0  0
  160.7370  210.2510  152.1600 C   0  0  0  0  0  2  0  0  0  0  0  0
  163.7520  205.6330  151.5780 C   0  0  0  0  0  2  0  0  0  0  0  0
  163.6250  210.6120  148.2870 O   0  0  0  0  0  0  0  0  0  0  0  0
  161.5970  210.2340  150.9110 C   0  0  2  0  0  3  0  0  0  0  0  0
  161.8850  211.5460  150.4900 O   0  0  0  0  0  0  0  0  0  0  0  0
  161.3510  210.3900  148.5130 O   0  0  0  0  0  0  0  0  0  0  0  0
  161.6370  209.2990  154.6270 N   0  0  0  0  0  2  0  0  0  0  0  0
  162.3810  208.7450  156.7800 O   0  0  0  0  0  0  0  0  0  0  0  0
  161.3320  207.9720  154.1790 C   0  0  0  0  0  0  0  0  0  0  0  0
  162.1470  209.6380  155.9200 C   0  0  0  0  0  0  0  0  0  0  0  0
  161.4820  206.9820  154.9430 O   0  0  0  0  0  0  0  0  0  0  0  0
  162.4180  211.0720  156.2380 C   0  0  2  0  0  3  0  0  0  0  0  0
  163.7190  211.1980  157.0090 C   0  0  0  0  0  1  0  0  0  0  0  0
  160.4600  212.0870  156.0440 C   0  0  0  0  0  1  0  0  0  0  0  0
  161.3690  211.6060  156.9890 O   0  0  0  0  0  0  0  0  0  0  0  0
  162.4360  206.2750  146.0230 C   0  0  0  0  0  1  0  0  0  0  0  0
  161.4900  207.2040  146.6300 N   0  0  0  0  0  2  0  0  0  0  0  0
  160.3330  204.4770  152.5500 C   0  0  0  0  0  2  0  0  0  0  0  0
  160.1820  202.9820  152.7810 C   0  0  0  0  0  2  0  0  0  0  0  0
  161.1590  202.2120  151.9130 C   0  0  0  0  0  1  0  0  0  0  0  0
  160.9130  204.3700  147.7490 N   0  0  0  0  0  2  0  0  0  0  0  0
  161.4820  203.0700  147.4120 C   0  0  0  0  0  2  0  0  0  0  0  0
  160.7910  201.9930  148.2200 C   0  0  0  0  0  1  0  0  0  0  0  0
  1 14  1  0  0  0  0
  2 12  1  0  0  0  0
  3  1  1  0  0  0  0
  3 11  1  0  0  0  0
  3  9  1  1  0  0  0
  4  8  1  0  0  0  0
  5  2  1  0  0  0  0
  5  8  1  0  0  0  0
  6 20  1  6  0  0  0
  6 19  1  0  0  0  0
  6 18  1  0  0  0  0
  7  2  1  0  0  0  0
  7 32  1  1  0  0  0
  8 23  1  1  0  0  0
 10  7  1  0  0  0  0
 11 13  1  0  0  0  0
 13 35  1  6  0  0  0
 13 10  1  0  0  0  0
 14 20  1  0  0  0  0
 15  4  1  0  0  0  0
 16  2  1  0  0  0  0
 16 12  1  0  0  0  0
 17 14  2  0  0  0  0
 18 15  1  1  0  0  0
 19 18  1  0  0  0  0
 21 24  1  0  0  0  0
 23 21  1  0  0  0  0
 23 25  2  0  0  0  0
 24 26  1  0  0  0  0
 24 22  2  0  0  0  0
 26 29  1  0  0  0  0
 26 27  1  1  0  0  0
 28 29  1  0  0  0  0
 30 31  1  0  0  0  0
 31  3  1  0  0  0  0
 32 33  1  0  0  0  0
 34 33  1  0  0  0  0
 36 35  1  0  0  0  0
 36 37  1  0  0  0  0
M  END
>  <MODEL>
8

>  <REMARK>
 VINA RESULT:       3.1      3.070      6.894
  Name = 
  8 active torsions:
  status: ('A' for Active; 'I' for Inactive)
    1  A    between atoms: C_2  and  O_19
    2  A    between atoms: C_2  and  C_35
    3  A    between atoms: C_3  and  N_32
    4  A    between atoms: C_5  and  N_23
    5  A    between atoms: C_9  and  C_13
    6  A    between atoms: C_9  and  C_16
    7  A    between atoms: C_14  and  C_31
    8  A    between atoms: C_25  and  N_32
                            x       y       z     vdW  Elec       q    Type
                         _______ _______ _______ _____ _____    ______ ____

>  <TORSDO>
F 8

$$$$
