=
 OpenBabel11062410383D

 32 37  0  0  1  0  0  0  0  0999 V2000
  161.3660  211.0990  151.1060 N   0  0  0  0  0  2  0  0  0  0  0  0
  161.6160  206.6600  148.4060 C   0  0  0  0  0  0  0  0  0  0  0  0
  160.6950  203.3440  151.9970 C   0  0  0  0  0  3  0  0  0  0  0  0
  160.9120  202.3030  151.0950 C   0  0  0  0  0  3  0  0  0  0  0  0
  160.8920  205.5170  146.2750 C   0  0  0  0  0  0  0  0  0  0  0  0
  160.6640  204.1490  145.8920 C   0  0  0  0  0  0  0  0  0  0  0  0
  161.9480  208.9730  148.9410 N   0  0  0  0  0  0  0  0  0  0  0  0
  161.2580  207.3960  150.7050 C   0  0  0  0  0  3  0  0  0  0  0  0
  160.5740  201.3970  145.6090 C   0  0  0  0  0  0  0  0  0  0  0  0
  161.8700  209.7440  151.2920 C   0  0  0  0  0  2  0  0  0  0  0  0
  160.8470  204.6670  151.5840 C   0  0  0  0  0  3  0  0  0  0  0  0
  161.3630  206.3830  149.8330 C   0  0  0  0  0  0  0  0  0  0  0  0
  161.2120  204.9700  150.2600 C   0  0  0  0  0  0  0  0  0  0  0  0
  161.9070  204.1800  147.9250 C   0  0  2  0  0  3  0  0  0  0  0  0
  159.9760  202.2270  144.6410 C   0  0  0  0  0  3  0  0  0  0  0  0
  161.9680  211.4150  148.7550 C   0  0  0  0  0  3  0  0  0  0  0  0
  161.2700  208.8250  150.2400 C   0  0  1  0  0  3  0  0  0  0  0  0
  160.0210  203.6230  144.7740 C   0  0  0  0  0  3  0  0  0  0  0  0
  162.7550  210.1460  148.6230 C   0  0  0  0  0  2  0  0  0  0  0  0
  161.3820  211.8460  149.8770 C   0  0  0  0  0  0  0  0  0  0  0  0
  161.2760  202.5870  149.7770 C   0  0  0  0  0  3  0  0  0  0  0  0
  161.4040  203.9120  149.3340 C   0  0  0  0  0  0  0  0  0  0  0  0
  161.2200  201.9570  146.7240 C   0  0  0  0  0  3  0  0  0  0  0  0
  161.9250  207.8950  147.9990 C   0  0  0  0  0  3  0  0  0  0  0  0
  160.4690  206.5310  145.6590 O   0  0  0  0  0  0  0  0  0  0  0  0
  160.5200  199.6580  145.4180 Cl  0  0  0  0  0  0  0  0  0  0  0  0
  161.6260  205.5600  147.4960 N   0  0  0  0  0  0  0  0  0  0  0  0
  161.2350  203.3470  146.8580 C   0  0  0  0  0  0  0  0  0  0  0  0
  159.6400  213.3200  148.6050 O   0  0  0  0  0  0  0  0  0  0  0  0
  160.5460  213.4080  149.8250 S   0  0  1  0  0  0  0  0  0  0  0  0
  159.2280  213.3550  151.4750 S   0  0  0  0  0  0  0  0  0  0  0  0
  157.7710  213.3950  150.3940 C   0  0  0  0  0  1  0  0  0  0  0  0
  1 10  1  0  0  0  0
  2 12  1  0  0  0  0
  4  3  2  0  0  0  0
  5 27  1  0  0  0  0
  6  5  1  0  0  0  0
  6 28  1  0  0  0  0
  7 17  1  0  0  0  0
  9 23  1  0  0  0  0
 11  3  1  0  0  0  0
 12 13  1  0  0  0  0
 12  8  2  0  0  0  0
 13 11  2  0  0  0  0
 14 28  1  6  0  0  0
 14 22  1  0  0  0  0
 15 18  1  0  0  0  0
 15  9  2  0  0  0  0
 16 20  2  0  0  0  0
 17  8  1  1  0  0  0
 17 10  1  0  0  0  0
 18  6  2  0  0  0  0
 19 16  1  0  0  0  0
 19  7  1  0  0  0  0
 20  1  1  0  0  0  0
 21  4  1  0  0  0  0
 22 21  2  0  0  0  0
 22 13  1  0  0  0  0
 23 28  2  0  0  0  0
 24  2  2  0  0  0  0
 24  7  1  0  0  0  0
 25  5  2  0  0  0  0
 26  9  1  0  0  0  0
 27 14  1  0  0  0  0
 27  2  1  0  0  0  0
 30 29  2  6  0  0  0
 30 20  1  0  0  0  0
 30 31  1  0  0  0  0
 32 31  1  0  0  0  0
M  END
>  <MODEL>
1

>  <REMARK>
 VINA RESULT:      -8.6      0.000      0.000
  Name = 
  2 active torsions:
  status: ('A' for Active; 'I' for Inactive)
    1  A    between atoms: S_1  and  S_20
    2  A    between atoms: S_20  and  C_24
                            x       y       z     vdW  Elec       q    Type
                         _______ _______ _______ _____ _____    ______ ____

>  <TORSDO>
F 2

$$$$
=
 OpenBabel11062410383D

 32 37  0  0  1  0  0  0  0  0999 V2000
  160.6150  209.5650  155.9960 N   0  0  0  0  0  2  0  0  0  0  0  0
  161.6170  207.3800  151.3840 C   0  0  0  0  0  0  0  0  0  0  0  0
  160.4610  202.6380  152.3400 C   0  0  0  0  0  3  0  0  0  0  0  0
  160.8910  202.2730  151.0650 C   0  0  0  0  0  3  0  0  0  0  0  0
  161.3060  207.6260  148.8910 C   0  0  0  0  0  0  0  0  0  0  0  0
  161.2490  206.7060  147.7860 C   0  0  0  0  0  0  0  0  0  0  0  0
  161.6770  208.9990  153.1510 N   0  0  0  0  0  0  0  0  0  0  0  0
  160.8710  206.7150  153.6100 C   0  0  0  0  0  3  0  0  0  0  0  0
  161.4270  204.5800  146.0230 C   0  0  0  0  0  0  0  0  0  0  0  0
  161.1960  208.3300  155.4860 C   0  0  0  0  0  2  0  0  0  0  0  0
  160.5620  203.9650  152.7570 C   0  0  0  0  0  3  0  0  0  0  0  0
  161.1840  206.3580  152.3560 C   0  0  0  0  0  0  0  0  0  0  0  0
  161.0890  204.9490  151.9020 C   0  0  0  0  0  0  0  0  0  0  0  0
  162.1770  205.5840  149.6720 C   0  0  2  0  0  3  0  0  0  0  0  0
  160.9100  205.8160  145.5890 C   0  0  0  0  0  3  0  0  0  0  0  0
  161.5240  211.1290  154.3480 C   0  0  0  0  0  3  0  0  0  0  0  0
  160.8330  208.1610  154.0190 C   0  0  1  0  0  3  0  0  0  0  0  0
  160.8200  206.9010  146.4750 C   0  0  0  0  0  3  0  0  0  0  0  0
  162.4230  210.1390  153.6710 C   0  0  0  0  0  2  0  0  0  0  0  0
  160.7480  210.8700  155.4060 C   0  0  0  0  0  0  0  0  0  0  0  0
  161.4180  203.2380  150.2040 C   0  0  0  0  0  3  0  0  0  0  0  0
  161.5000  204.5840  150.5930 C   0  0  0  0  0  0  0  0  0  0  0  0
  161.8560  204.4160  147.3510 C   0  0  0  0  0  3  0  0  0  0  0  0
  161.8790  208.6270  151.7830 C   0  0  0  0  0  3  0  0  0  0  0  0
  160.8950  208.8170  148.8760 O   0  0  0  0  0  0  0  0  0  0  0  0
  161.5440  203.2430  144.9000 Cl  0  0  0  0  0  0  0  0  0  0  0  0
  161.8490  206.9720  150.0350 N   0  0  0  0  0  0  0  0  0  0  0  0
  161.7370  205.4950  148.2290 C   0  0  0  0  0  0  0  0  0  0  0  0
  159.7570  213.2480  154.9760 O   0  0  0  0  0  0  0  0  0  0  0  0
  159.8030  212.2070  156.0850 S   0  0  1  0  0  0  0  0  0  0  0  0
  157.8320  211.4560  156.1950 S   0  0  0  0  0  0  0  0  0  0  0  0
  157.6300  211.5400  154.3950 C   0  0  0  0  0  1  0  0  0  0  0  0
  2 24  2  0  0  0  0
  2 12  1  0  0  0  0
  3 11  1  0  0  0  0
  4  3  2  0  0  0  0
  5 27  1  0  0  0  0
  6 28  1  0  0  0  0
  6  5  1  0  0  0  0
  7 19  1  0  0  0  0
  7 17  1  0  0  0  0
  9 23  1  0  0  0  0
 10  1  1  0  0  0  0
 12  8  2  0  0  0  0
 13 12  1  0  0  0  0
 13 11  2  0  0  0  0
 14 28  1  6  0  0  0
 14 27  1  0  0  0  0
 14 22  1  0  0  0  0
 15  9  2  0  0  0  0
 15 18  1  0  0  0  0
 16 20  2  0  0  0  0
 17  8  1  6  0  0  0
 17 10  1  0  0  0  0
 18  6  2  0  0  0  0
 19 16  1  0  0  0  0
 20  1  1  0  0  0  0
 20 30  1  0  0  0  0
 21 22  2  0  0  0  0
 21  4  1  0  0  0  0
 22 13  1  0  0  0  0
 23 28  2  0  0  0  0
 24  7  1  0  0  0  0
 25  5  2  0  0  0  0
 26  9  1  0  0  0  0
 27  2  1  0  0  0  0
 30 29  2  6  0  0  0
 30 31  1  0  0  0  0
 32 31  1  0  0  0  0
M  END
>  <MODEL>
2

>  <REMARK>
 VINA RESULT:      -7.4      2.929      3.810
  Name = 
  2 active torsions:
  status: ('A' for Active; 'I' for Inactive)
    1  A    between atoms: S_1  and  S_20
    2  A    between atoms: S_20  and  C_24
                            x       y       z     vdW  Elec       q    Type
                         _______ _______ _______ _____ _____    ______ ____

>  <TORSDO>
F 2

$$$$
=
 OpenBabel11062410383D

 32 37  0  0  1  0  0  0  0  0999 V2000
  160.8260  209.9610  153.1240 N   0  0  0  0  0  2  0  0  0  0  0  0
  161.3490  206.3950  149.3740 C   0  0  0  0  0  0  0  0  0  0  0  0
  160.4560  202.2260  151.9340 C   0  0  0  0  0  3  0  0  0  0  0  0
  160.7460  201.4660  150.8020 C   0  0  0  0  0  3  0  0  0  0  0  0
  160.7420  205.8270  146.9900 C   0  0  0  0  0  0  0  0  0  0  0  0
  160.5850  204.6010  146.2550 C   0  0  0  0  0  0  0  0  0  0  0  0
  161.5660  208.4970  150.5060 N   0  0  0  0  0  0  0  0  0  0  0  0
  160.8880  206.4920  151.7680 C   0  0  0  0  0  3  0  0  0  0  0  0
  160.6200  202.0180  145.2610 C   0  0  0  0  0  0  0  0  0  0  0  0
  161.3810  208.6220  152.9720 C   0  0  0  0  0  2  0  0  0  0  0  0
  160.5650  203.6160  151.8870 C   0  0  0  0  0  3  0  0  0  0  0  0
  161.0630  205.7460  150.6670 C   0  0  0  0  0  0  0  0  0  0  0  0
  160.9590  204.2660  150.7040 C   0  0  0  0  0  0  0  0  0  0  0  0
  161.7600  204.1390  148.2760 C   0  0  2  0  0  3  0  0  0  0  0  0
  160.0190  203.0530  144.5180 C   0  0  0  0  0  3  0  0  0  0  0  0
  161.4900  210.9010  150.9640 C   0  0  0  0  0  3  0  0  0  0  0  0
  160.8550  207.9920  151.6920 C   0  0  1  0  0  3  0  0  0  0  0  0
  160.0010  204.3660  145.0120 C   0  0  0  0  0  3  0  0  0  0  0  0
  162.3320  209.7380  150.5390 C   0  0  0  0  0  2  0  0  0  0  0  0
  160.8500  211.0050  152.1340 C   0  0  0  0  0  0  0  0  0  0  0  0
  161.1390  202.0960  149.6200 C   0  0  0  0  0  3  0  0  0  0  0  0
  161.2250  203.4950  149.5430 C   0  0  0  0  0  0  0  0  0  0  0  0
  161.2060  202.2870  146.5090 C   0  0  0  0  0  3  0  0  0  0  0  0
  161.6190  207.7030  149.3160 C   0  0  0  0  0  3  0  0  0  0  0  0
  160.2960  206.9530  146.6430 O   0  0  0  0  0  0  0  0  0  0  0  0
  160.6460  200.3890  144.6210 Cl  0  0  0  0  0  0  0  0  0  0  0  0
  161.4350  205.5730  148.2100 N   0  0  0  0  0  0  0  0  0  0  0  0
  161.1580  203.5930  147.0010 C   0  0  0  0  0  0  0  0  0  0  0  0
  158.6100  212.2960  151.7650 O   0  0  0  0  0  0  0  0  0  0  0  0
  159.9510  212.4980  152.4560 S   0  0  1  0  0  0  0  0  0  0  0  0
  159.5070  212.4100  154.5200 S   0  0  0  0  0  0  0  0  0  0  0  0
  157.7330  212.2130  154.1960 C   0  0  0  0  0  1  0  0  0  0  0  0
  2 12  1  0  0  0  0
  4  3  2  0  0  0  0
  5 27  1  0  0  0  0
  6  5  1  0  0  0  0
  6 28  1  0  0  0  0
  7 19  1  0  0  0  0
  7 17  1  0  0  0  0
  9 23  1  0  0  0  0
 10  1  1  0  0  0  0
 11  3  1  0  0  0  0
 12 13  1  0  0  0  0
 12  8  2  0  0  0  0
 13 11  2  0  0  0  0
 14 28  1  6  0  0  0
 14 22  1  0  0  0  0
 15 18  1  0  0  0  0
 15  9  2  0  0  0  0
 16 20  2  0  0  0  0
 17  8  1  1  0  0  0
 17 10  1  0  0  0  0
 18  6  2  0  0  0  0
 19 16  1  0  0  0  0
 20 30  1  0  0  0  0
 20  1  1  0  0  0  0
 21  4  1  0  0  0  0
 22 21  2  0  0  0  0
 22 13  1  0  0  0  0
 23 28  2  0  0  0  0
 24  2  2  0  0  0  0
 24  7  1  0  0  0  0
 25  5  2  0  0  0  0
 26  9  1  0  0  0  0
 27 14  1  0  0  0  0
 27  2  1  0  0  0  0
 30 29  2  6  0  0  0
 30 31  1  0  0  0  0
 32 31  1  0  0  0  0
M  END
>  <MODEL>
3

>  <REMARK>
 VINA RESULT:      -7.3      1.528      1.719
  Name = 
  2 active torsions:
  status: ('A' for Active; 'I' for Inactive)
    1  A    between atoms: S_1  and  S_20
    2  A    between atoms: S_20  and  C_24
                            x       y       z     vdW  Elec       q    Type
                         _______ _______ _______ _____ _____    ______ ____

>  <TORSDO>
F 2

$$$$
=
 OpenBabel11062410383D

 32 37  0  0  1  0  0  0  0  0999 V2000
  161.8710  210.5940  154.0600 N   0  0  0  0  0  0  0  0  0  0  0  0
  160.8870  206.1790  151.4920 C   0  0  0  0  0  0  0  0  0  0  0  0
  162.5420  207.3620  146.9540 C   0  0  0  0  0  3  0  0  0  0  0  0
  162.0940  206.1350  146.4680 C   0  0  0  0  0  3  0  0  0  0  0  0
  161.0630  203.6630  151.6040 C   0  0  0  0  0  0  0  0  0  0  0  0
  161.1600  202.6150  150.6240 C   0  0  0  0  0  0  0  0  0  0  0  0
  160.7460  207.8460  153.2100 N   0  0  0  0  0  0  0  0  0  0  0  0
  161.7920  208.4010  151.0490 C   0  0  0  0  0  3  0  0  0  0  0  0
  161.1140  200.9960  148.3790 C   0  0  0  0  0  0  0  0  0  0  0  0
  161.3920  210.1900  152.7440 C   0  0  0  0  0  2  0  0  0  0  0  0
  162.3300  207.7020  148.2900 C   0  0  0  0  0  3  0  0  0  0  0  0
  161.4600  207.1890  150.5820 C   0  0  0  0  0  0  0  0  0  0  0  0
  161.6730  206.8160  149.1620 C   0  0  0  0  0  0  0  0  0  0  0  0
  160.4310  204.6100  149.5440 C   0  0  2  0  0  3  0  0  0  0  0  0
  161.4890  200.4620  149.6290 C   0  0  0  0  0  3  0  0  0  0  0  0
  160.7420  208.9010  155.4190 C   0  0  0  0  0  2  0  0  0  0  0  0
  161.7050  208.7200  152.5150 C   0  0  1  0  0  3  0  0  0  0  0  0
  161.5100  201.2750  150.7730 C   0  0  0  0  0  3  0  0  0  0  0  0
  159.9160  208.3320  154.3070 C   0  0  0  0  0  2  0  0  0  0  0  0
  161.5860  209.9330  155.3050 C   0  0  0  0  0  0  0  0  0  0  0  0
  161.4380  205.2440  147.3200 C   0  0  0  0  0  3  0  0  0  0  0  0
  161.2420  205.5550  148.6750 C   0  0  0  0  0  0  0  0  0  0  0  0
  160.7620  202.3510  148.2620 C   0  0  0  0  0  3  0  0  0  0  0  0
  160.5210  206.5140  152.7330 C   0  0  0  0  0  3  0  0  0  0  0  0
  161.3540  203.5560  152.8250 O   0  0  0  0  0  0  0  0  0  0  0  0
  161.0800  199.9630  146.9670 Cl  0  0  0  0  0  0  0  0  0  0  0  0
  160.6370  204.8710  150.9780 N   0  0  0  0  0  0  0  0  0  0  0  0
  160.8130  203.1540  149.4030 C   0  0  0  0  0  0  0  0  0  0  0  0
  163.8120  210.8830  156.2880 O   0  0  0  0  0  0  0  0  0  0  0  0
  162.4240  210.4820  156.7670 S   0  0  1  0  0  0  0  0  0  0  0  0
  161.4810  212.3070  157.2600 S   0  0  0  0  0  0  0  0  0  0  0  0
  159.8380  211.5400  157.2350 C   0  0  0  0  0  1  0  0  0  0  0  0
  1 20  2  0  0  0  0
  2 24  2  0  0  0  0
  3 11  1  0  0  0  0
  4  3  2  0  0  0  0
  4 21  1  0  0  0  0
  5 25  2  0  0  0  0
  6 18  1  0  0  0  0
  6  5  1  0  0  0  0
  7 19  1  0  0  0  0
  9 15  1  0  0  0  0
 10  1  1  0  0  0  0
 11 13  2  0  0  0  0
 12  8  2  0  0  0  0
 12  2  1  0  0  0  0
 13 12  1  0  0  0  0
 14 22  1  6  0  0  0
 14 27  1  0  0  0  0
 15 18  2  0  0  0  0
 17  8  1  6  0  0  0
 17 10  1  0  0  0  0
 17  7  1  0  0  0  0
 19 16  1  0  0  0  0
 20 16  1  0  0  0  0
 20 30  1  0  0  0  0
 21 22  2  0  0  0  0
 22 13  1  0  0  0  0
 23  9  2  0  0  0  0
 23 28  1  0  0  0  0
 24  7  1  0  0  0  0
 26  9  1  0  0  0  0
 27  2  1  0  0  0  0
 27  5  1  0  0  0  0
 28 14  1  0  0  0  0
 28  6  2  0  0  0  0
 30 29  2  6  0  0  0
 30 31  1  0  0  0  0
 32 31  1  0  0  0  0
M  END
>  <MODEL>
4

>  <REMARK>
 VINA RESULT:      -7.2      3.546      4.999
  Name = 
  2 active torsions:
  status: ('A' for Active; 'I' for Inactive)
    1  A    between atoms: S_1  and  S_20
    2  A    between atoms: S_20  and  C_24
                            x       y       z     vdW  Elec       q    Type
                         _______ _______ _______ _____ _____    ______ ____

>  <TORSDO>
F 2

$$$$
=
 OpenBabel11062410383D

 32 37  0  0  1  0  0  0  0  0999 V2000
  160.9580  213.5680  149.1240 N   0  0  0  0  0  2  0  0  0  0  0  0
  161.7670  208.4890  149.8970 C   0  0  0  0  0  0  0  0  0  0  0  0
  160.4780  208.0670  154.6820 C   0  0  0  0  0  3  0  0  0  0  0  0
  160.8630  206.7270  154.6700 C   0  0  0  0  0  3  0  0  0  0  0  0
  161.4000  206.1860  148.9270 C   0  0  0  0  0  0  0  0  0  0  0  0
  161.2840  204.8650  149.4840 C   0  0  0  0  0  0  0  0  0  0  0  0
  161.9260  210.6460  148.8640 N   0  0  0  0  0  0  0  0  0  0  0  0
  161.0560  210.4500  151.1610 C   0  0  0  0  0  3  0  0  0  0  0  0
  161.3450  202.5560  151.0100 C   0  0  0  0  0  0  0  0  0  0  0  0
  161.4840  212.7020  150.1710 C   0  0  0  0  0  2  0  0  0  0  0  0
  160.6340  208.8470  153.5360 C   0  0  0  0  0  3  0  0  0  0  0  0
  161.3250  209.1360  151.1460 C   0  0  0  0  0  0  0  0  0  0  0  0
  161.1710  208.2960  152.3590 C   0  0  0  0  0  0  0  0  0  0  0  0
  162.2220  206.3110  151.1290 C   0  0  2  0  0  3  0  0  0  0  0  0
  160.8580  202.5170  149.6880 C   0  0  0  0  0  3  0  0  0  0  0  0
  161.8750  212.4140  147.1710 C   0  0  0  0  0  3  0  0  0  0  0  0
  161.0780  211.2620  149.8970 C   0  0  1  0  0  3  0  0  0  0  0  0
  160.8280  203.6830  148.9060 C   0  0  0  0  0  3  0  0  0  0  0  0
  162.7230  211.4490  147.9430 C   0  0  0  0  0  2  0  0  0  0  0  0
  161.1180  213.3780  147.7070 C   0  0  0  0  0  0  0  0  0  0  0  0
  161.3990  206.1650  153.5100 C   0  0  0  0  0  3  0  0  0  0  0  0
  161.5360  206.9250  152.3370 C   0  0  0  0  0  0  0  0  0  0  0  0
  161.8030  203.7630  151.5630 C   0  0  0  0  0  3  0  0  0  0  0  0
  162.0810  209.2230  148.8260 C   0  0  0  0  0  3  0  0  0  0  0  0
  161.0280  206.5320  147.7740 O   0  0  0  0  0  0  0  0  0  0  0  0
  161.3880  201.0900  151.9640 Cl  0  0  0  0  0  0  0  0  0  0  0  0
  161.9500  207.0720  149.8990 N   0  0  0  0  0  0  0  0  0  0  0  0
  161.7430  204.9200  150.7840 C   0  0  0  0  0  0  0  0  0  0  0  0
  160.7780  214.1060  145.2220 O   0  0  0  0  0  0  0  0  0  0  0  0
  160.2370  214.4480  146.6030 S   0  0  1  0  0  0  0  0  0  0  0  0
  158.2630  213.6940  146.6050 S   0  0  0  0  0  0  0  0  0  0  0  0
  158.6150  212.5890  145.2100 C   0  0  0  0  0  1  0  0  0  0  0  0
  1 10  1  0  0  0  0
  2 27  1  0  0  0  0
  2 12  1  0  0  0  0
  4  3  1  0  0  0  0
  5  6  1  0  0  0  0
  5 27  1  0  0  0  0
  6 28  1  0  0  0  0
  7 17  1  0  0  0  0
  9 23  1  0  0  0  0
  9 26  1  0  0  0  0
 11  3  2  0  0  0  0
 12  8  2  0  0  0  0
 12 13  1  0  0  0  0
 13 11  1  0  0  0  0
 14 28  1  6  0  0  0
 14 22  1  0  0  0  0
 15  9  2  0  0  0  0
 16 20  2  0  0  0  0
 16 19  1  0  0  0  0
 17 10  1  1  0  0  0
 17  8  1  0  0  0  0
 18  6  2  0  0  0  0
 18 15  1  0  0  0  0
 19  7  1  0  0  0  0
 20  1  1  0  0  0  0
 21  4  2  0  0  0  0
 22 13  2  0  0  0  0
 22 21  1  0  0  0  0
 24  7  1  0  0  0  0
 24  2  2  0  0  0  0
 25  5  2  0  0  0  0
 27 14  1  0  0  0  0
 28 23  2  0  0  0  0
 30 29  2  6  0  0  0
 30 31  1  0  0  0  0
 30 20  1  0  0  0  0
 32 31  1  0  0  0  0
M  END
>  <MODEL>
5

>  <REMARK>
 VINA RESULT:      -6.7      2.695      3.976
  Name = 
  2 active torsions:
  status: ('A' for Active; 'I' for Inactive)
    1  A    between atoms: S_1  and  S_20
    2  A    between atoms: S_20  and  C_24
                            x       y       z     vdW  Elec       q    Type
                         _______ _______ _______ _____ _____    ______ ____

>  <TORSDO>
F 2

$$$$
