=
 OpenBabel11062410253D

 43 49  0  0  1  0  0  0  0  0999 V2000
  161.0990  209.3070  155.8860 C   0  0  1  0  0  3  0  0  0  0  0  0
  161.8920  208.5640  151.0740 C   0  0  1  0  0  3  0  0  0  0  0  0
  161.2400  210.9510  149.4690 C   0  0  2  0  0  3  0  0  0  0  0  0
  160.8550  208.3560  153.6850 C   0  0  0  0  0  0  0  0  0  0  0  0
  162.1410  210.3110  155.3490 C   0  0  0  0  0  2  0  0  0  0  0  0
  159.8300  209.9830  156.0930 N   0  0  0  0  0  1  0  0  0  0  0  0
  161.0260  209.7540  153.1370 C   0  0  1  0  0  3  0  0  0  0  0  0
  160.9150  208.1770  154.9680 N   0  0  0  0  0  0  0  0  0  0  0  0
  162.2550  210.3650  153.8100 C   0  0  0  0  0  2  0  0  0  0  0  0
  161.5140  211.0550  150.9660 C   0  0  0  0  0  2  0  0  0  0  0  0
  161.0730  209.7430  151.6040 C   0  0  1  0  0  3  0  0  0  0  0  0
  161.2760  207.2920  151.5840 C   0  0  0  0  0  3  0  0  0  0  0  0
  162.0520  208.5810  149.5650 C   0  0  0  0  0  0  0  0  0  0  0  0
  161.8440  209.7100  148.8580 C   0  0  0  0  0  3  0  0  0  0  0  0
  160.8370  207.2190  152.8060 N   0  0  0  0  0  0  0  0  0  0  0  0
  161.6670  212.1910  148.7570 C   0  0  0  0  0  0  0  0  0  0  0  0
  162.0620  212.1010  147.3890 N   0  0  0  0  0  2  0  0  0  0  0  0
  161.6420  213.3080  149.3440 O   0  0  0  0  0  0  0  0  0  0  0  0
  162.5140  213.5170  146.4330 S   0  0  0  0  0  0  0  0  0  0  0  0
  159.9350  212.6470  146.0270 C   0  0  0  0  0  2  0  0  0  0  0  0
  161.5310  212.5460  144.0780 C   0  0  0  0  0  2  0  0  0  0  0  0
  159.0780  212.9540  142.9700 C   0  0  2  0  0  3  0  0  0  0  0  0
  161.0950  213.3370  145.3090 C   0  0  2  0  0  3  0  0  0  0  0  0
  158.7060  212.5200  145.1380 C   0  0  0  0  0  2  0  0  0  0  0  0
  160.5480  212.5180  142.8860 C   0  0  1  0  0  0  0  0  0  0  0  0
  160.1290  213.8450  142.3010 C   0  0  0  0  0  2  0  0  0  0  0  0
  158.7040  213.5460  144.1870 O   0  0  0  0  0  0  0  0  0  0  0  0
  160.7730  211.5160  141.9050 O   0  0  0  0  0  0  0  0  0  0  0  0
  161.8300  211.6070  141.0030 C   0  0  0  0  0  0  0  0  0  0  0  0
  162.7420  211.0050  140.1110 N   0  0  0  0  0  0  0  0  0  0  0  0
  162.7430  212.3540  140.3220 C   0  0  1  0  0  3  0  0  0  0  0  0
  162.6740  214.0190  138.5740 N   0  0  0  0  0  2  0  0  0  0  0  0
  160.8030  212.5200  138.6020 C   0  0  0  0  0  1  0  0  0  0  0  0
  162.0700  213.0650  139.1820 C   0  0  0  0  0  0  0  0  0  0  0  0
  162.7200  207.4300  148.8810 C   0  0  0  0  0  2  0  0  0  0  0  0
  160.9390  204.2000  147.9190 C   0  0  0  0  0  2  0  0  0  0  0  0
  161.9220  203.9080  146.7770 C   0  0  2  0  0  3  0  0  0  0  0  0
  162.0860  206.4430  146.6660 C   0  0  0  0  0  2  0  0  0  0  0  0
  161.4910  205.2570  148.8690 C   0  0  0  0  0  2  0  0  0  0  0  0
  161.6910  206.5930  148.1430 C   0  0  1  0  0  3  0  0  0  0  0  0
  162.7970  205.1150  146.3980 C   0  0  0  0  0  2  0  0  0  0  0  0
  160.8920  202.0440  145.6950 O   0  0  0  0  0  1  0  0  0  0  0  0
  161.1470  203.4110  145.5700 C   0  0  0  0  0  2  0  0  0  0  0  0
  1  6  1  6  0  0  0
  2 12  1  6  0  0  0
  2 11  1  0  0  0  0
  3 16  1  6  0  0  0
  3 10  1  0  0  0  0
  4  8  2  0  0  0  0
  5  1  1  0  0  0  0
  7  4  1  0  0  0  0
  7  9  1  1  0  0  0
  8  1  1  0  0  0  0
  9  5  1  0  0  0  0
 11 10  1  1  0  0  0
 11  7  1  0  0  0  0
 12 15  2  0  0  0  0
 13  2  1  0  0  0  0
 14  3  1  0  0  0  0
 14 13  2  0  0  0  0
 15  4  1  0  0  0  0
 16 18  2  0  0  0  0
 17 16  1  0  0  0  0
 19 17  1  0  0  0  0
 21 23  1  0  0  0  0
 22 26  1  6  0  0  0
 22 27  1  0  0  0  0
 23 20  1  0  0  0  0
 23 19  1  1  0  0  0
 24 20  1  0  0  0  0
 25 28  1  6  0  0  0
 25 22  1  0  0  0  0
 25 21  1  0  0  0  0
 26 25  1  0  0  0  0
 27 24  1  0  0  0  0
 29 28  1  0  0  0  0
 30 31  1  0  0  0  0
 30 29  2  0  0  0  0
 31 34  1  6  0  0  0
 31 29  1  0  0  0  0
 32 34  2  0  0  0  0
 33 34  1  0  0  0  0
 35 13  1  0  0  0  0
 36 39  1  0  0  0  0
 37 43  1  6  0  0  0
 37 36  1  0  0  0  0
 38 40  1  0  0  0  0
 40 39  1  0  0  0  0
 40 35  1  1  0  0  0
 41 38  1  0  0  0  0
 41 37  1  0  0  0  0
 43 42  1  0  0  0  0
M  END
>  <MODEL>
1

>  <REMARK>
 VINA RESULT:      -7.6      0.000      0.000
  Name = 
  9 active torsions:
  status: ('A' for Active; 'I' for Inactive)
    1  A    between atoms: C_1  and  C_34
    2  A    between atoms: C_1  and  C_35
    3  A    between atoms: C_2  and  C_13
    4  A    between atoms: N_6  and  S_17
    5  A    between atoms: C_11  and  O_14
    6  A    between atoms: C_12  and  S_17
    7  A    between atoms: O_14  and  C_22
    8  A    between atoms: C_19  and  C_37
    9  A    between atoms: C_31  and  C_40
                            x       y       z     vdW  Elec       q    Type
                         _______ _______ _______ _____ _____    ______ ____

>  <TORSDO>
F 9

$$$$
=
 OpenBabel11062410253D

 43 49  0  0  1  0  0  0  0  0999 V2000
  161.2550  204.6380  145.6930 C   0  0  1  0  0  3  0  0  0  0  0  0
  161.0980  207.2010  149.9060 C   0  0  1  0  0  3  0  0  0  0  0  0
  162.2790  209.8870  149.6050 C   0  0  2  0  0  3  0  0  0  0  0  0
  161.7000  205.2280  147.9870 C   0  0  0  0  0  0  0  0  0  0  0  0
  160.4400  205.9360  145.5050 C   0  0  0  0  0  2  0  0  0  0  0  0
  162.5550  204.7800  145.0610 N   0  0  0  0  0  1  0  0  0  0  0  0
  161.7910  206.6640  147.5280 C   0  0  1  0  0  3  0  0  0  0  0  0
  161.4280  204.3100  147.1130 N   0  0  0  0  0  0  0  0  0  0  0  0
  160.5640  206.9510  146.6630 C   0  0  0  0  0  2  0  0  0  0  0  0
  161.8010  209.0920  148.3930 C   0  0  0  0  0  2  0  0  0  0  0  0
  161.9720  207.6140  148.7190 C   0  0  1  0  0  3  0  0  0  0  0  0
  161.4640  205.7980  150.2980 C   0  0  0  0  0  3  0  0  0  0  0  0
  161.1670  208.1780  151.0640 C   0  0  0  0  0  0  0  0  0  0  0  0
  161.6190  209.4350  150.8860 C   0  0  0  0  0  3  0  0  0  0  0  0
  161.7040  204.9020  149.3870 N   0  0  0  0  0  0  0  0  0  0  0  0
  162.1230  211.3540  149.3810 C   0  0  0  0  0  0  0  0  0  0  0  0
  162.7530  211.9490  148.2480 N   0  0  0  0  0  2  0  0  0  0  0  0
  161.4130  212.0490  150.1580 O   0  0  0  0  0  0  0  0  0  0  0  0
  162.5720  213.6620  147.8490 S   0  0  0  0  0  0  0  0  0  0  0  0
  160.4950  212.1890  146.8060 C   0  0  0  0  0  2  0  0  0  0  0  0
  162.2910  212.9750  145.2220 C   0  0  0  0  0  2  0  0  0  0  0  0
  160.0160  212.8810  143.7290 C   0  0  2  0  0  3  0  0  0  0  0  0
  161.4570  213.3230  146.4520 C   0  0  2  0  0  3  0  0  0  0  0  0
  159.5080  211.9040  145.6840 C   0  0  0  0  0  2  0  0  0  0  0  0
  161.5450  212.9180  143.8700 C   0  0  1  0  0  0  0  0  0  0  0  0
  160.8050  214.1590  143.4340 C   0  0  0  0  0  2  0  0  0  0  0  0
  159.3070  213.0630  144.9280 O   0  0  0  0  0  0  0  0  0  0  0  0
  162.2150  212.2590  142.8050 O   0  0  0  0  0  0  0  0  0  0  0  0
  162.5250  212.9230  141.6210 C   0  0  0  0  0  0  0  0  0  0  0  0
  163.2560  213.8990  140.9130 N   0  0  0  0  0  0  0  0  0  0  0  0
  162.3480  213.0980  140.2820 C   0  0  1  0  0  3  0  0  0  0  0  0
  164.1370  212.2510  138.8980 N   0  0  0  0  0  2  0  0  0  0  0  0
  162.6180  210.5800  139.7010 C   0  0  0  0  0  1  0  0  0  0  0  0
  163.0490  212.0020  139.5290 C   0  0  0  0  0  0  0  0  0  0  0  0
  160.4670  207.8520  152.3460 C   0  0  0  0  0  2  0  0  0  0  0  0
  161.4640  207.9980  156.0220 C   0  0  0  0  0  2  0  0  0  0  0  0
  160.5100  209.1650  156.3140 C   0  0  2  0  0  3  0  0  0  0  0  0
  160.9740  209.7640  153.8870 C   0  0  0  0  0  2  0  0  0  0  0  0
  161.1290  207.3260  154.6950 C   0  0  0  0  0  2  0  0  0  0  0  0
  161.3040  208.3070  153.5280 C   0  0  1  0  0  3  0  0  0  0  0  0
  159.9790  209.8540  155.0450 C   0  0  0  0  0  2  0  0  0  0  0  0
  162.5400  210.3240  156.8050 O   0  0  0  0  0  1  0  0  0  0  0  0
  161.2130  210.1670  157.2120 C   0  0  0  0  0  2  0  0  0  0  0  0
  1  6  1  1  0  0  0
  1  8  1  0  0  0  0
  2 12  1  1  0  0  0
  2 13  1  0  0  0  0
  3 16  1  6  0  0  0
  3 14  1  0  0  0  0
  4 15  1  0  0  0  0
  5  1  1  0  0  0  0
  5  9  1  0  0  0  0
  7  9  1  1  0  0  0
  7  4  1  0  0  0  0
  7 11  1  0  0  0  0
  8  4  2  0  0  0  0
 10  3  1  0  0  0  0
 11 10  1  6  0  0  0
 11  2  1  0  0  0  0
 13 35  1  0  0  0  0
 14 13  2  0  0  0  0
 15 12  2  0  0  0  0
 16 18  2  0  0  0  0
 17 16  1  0  0  0  0
 19 17  1  0  0  0  0
 21 23  1  0  0  0  0
 22 26  1  6  0  0  0
 22 25  1  0  0  0  0
 22 27  1  0  0  0  0
 23 20  1  0  0  0  0
 23 19  1  1  0  0  0
 24 20  1  0  0  0  0
 25 28  1  6  0  0  0
 25 21  1  0  0  0  0
 26 25  1  0  0  0  0
 27 24  1  0  0  0  0
 29 28  1  0  0  0  0
 30 29  2  0  0  0  0
 31 34  1  6  0  0  0
 31 30  1  0  0  0  0
 31 29  1  0  0  0  0
 32 34  2  0  0  0  0
 34 33  1  0  0  0  0
 36 37  1  0  0  0  0
 37 43  1  1  0  0  0
 38 41  1  0  0  0  0
 39 36  1  0  0  0  0
 40 35  1  6  0  0  0
 40 38  1  0  0  0  0
 40 39  1  0  0  0  0
 41 37  1  0  0  0  0
 42 43  1  0  0  0  0
M  END
>  <MODEL>
2

>  <REMARK>
 VINA RESULT:      -7.5      2.710      6.048
  Name = 
  9 active torsions:
  status: ('A' for Active; 'I' for Inactive)
    1  A    between atoms: C_1  and  C_34
    2  A    between atoms: C_1  and  C_35
    3  A    between atoms: C_2  and  C_13
    4  A    between atoms: N_6  and  S_17
    5  A    between atoms: C_11  and  O_14
    6  A    between atoms: C_12  and  S_17
    7  A    between atoms: O_14  and  C_22
    8  A    between atoms: C_19  and  C_37
    9  A    between atoms: C_31  and  C_40
                            x       y       z     vdW  Elec       q    Type
                         _______ _______ _______ _____ _____    ______ ____

>  <TORSDO>
F 9

$$$$
=
 OpenBabel11062410253D

 43 49  0  0  1  0  0  0  0  0999 V2000
  160.5860  201.2310  149.1290 C   0  0  1  0  0  3  0  0  0  0  0  0
  160.8680  205.3600  151.8130 C   0  0  1  0  0  3  0  0  0  0  0  0
  162.2170  207.5370  150.3480 C   0  0  2  0  0  3  0  0  0  0  0  0
  161.2110  202.7080  150.9280 C   0  0  0  0  0  0  0  0  0  0  0  0
  159.8560  202.3890  148.4150 C   0  0  0  0  0  2  0  0  0  0  0  0
  161.8520  200.9690  148.4660 N   0  0  0  0  0  1  0  0  0  0  0  0
  161.3760  203.7920  149.8880 C   0  0  1  0  0  3  0  0  0  0  0  0
  160.8210  201.5320  150.5450 N   0  0  0  0  0  0  0  0  0  0  0  0
  160.1220  203.7880  149.0140 C   0  0  0  0  0  2  0  0  0  0  0  0
  161.6100  206.3450  149.6130 C   0  0  0  0  0  2  0  0  0  0  0  0
  161.6950  205.1420  150.5440 C   0  0  1  0  0  3  0  0  0  0  0  0
  161.1570  204.2370  152.7670 C   0  0  0  0  0  3  0  0  0  0  0  0
  161.0770  206.7300  152.4310 C   0  0  0  0  0  0  0  0  0  0  0  0
  161.6060  207.7420  151.7140 C   0  0  0  0  0  3  0  0  0  0  0  0
  161.2770  203.0180  152.3290 N   0  0  0  0  0  0  0  0  0  0  0  0
  162.1520  208.7720  149.5140 C   0  0  0  0  0  0  0  0  0  0  0  0
  162.0330  210.0370  150.1620 N   0  0  0  0  0  2  0  0  0  0  0  0
  162.2420  208.7020  148.2580 O   0  0  0  0  0  0  0  0  0  0  0  0
  162.0230  211.5650  149.2730 S   0  0  0  0  0  0  0  0  0  0  0  0
  160.2130  213.5960  149.6780 C   0  0  0  0  0  2  0  0  0  0  0  0
  160.8260  212.1580  151.6540 C   0  0  0  0  0  2  0  0  0  0  0  0
  158.2590  212.9380  152.1120 C   0  0  2  0  0  3  0  0  0  0  0  0
  160.5560  212.1840  150.1520 C   0  0  2  0  0  3  0  0  0  0  0  0
  158.9600  214.1380  150.3510 C   0  0  0  0  0  2  0  0  0  0  0  0
  159.6140  212.3890  152.5830 C   0  0  1  0  0  0  0  0  0  0  0  0
  158.4390  211.4520  152.4370 C   0  0  0  0  0  2  0  0  0  0  0  0
  158.1270  213.0750  150.7210 O   0  0  0  0  0  0  0  0  0  0  0  0
  159.9050  212.7190  153.9330 O   0  0  0  0  0  0  0  0  0  0  0  0
  158.9560  213.3190  154.7560 C   0  0  0  0  0  0  0  0  0  0  0  0
  158.2260  214.4530  155.1690 N   0  0  0  0  0  0  0  0  0  0  0  0
  158.0320  213.2340  155.7530 C   0  0  1  0  0  3  0  0  0  0  0  0
  155.9920  213.2590  154.4610 N   0  0  0  0  0  2  0  0  0  0  0  0
  156.5500  211.1290  155.4080 C   0  0  0  0  0  1  0  0  0  0  0  0
  156.7760  212.5960  155.2310 C   0  0  0  0  0  0  0  0  0  0  0  0
  160.4350  207.0530  153.7430 C   0  0  0  0  0  2  0  0  0  0  0  0
  161.8210  208.7920  156.8390 C   0  0  0  0  0  2  0  0  0  0  0  0
  160.6260  209.7530  156.9280 C   0  0  2  0  0  3  0  0  0  0  0  0
  160.5870  209.4670  154.4020 C   0  0  0  0  0  2  0  0  0  0  0  0
  161.5160  207.6120  155.9230 C   0  0  0  0  0  2  0  0  0  0  0  0
  161.2590  208.0880  154.4880 C   0  0  1  0  0  3  0  0  0  0  0  0
  159.7650  209.7790  155.6540 C   0  0  0  0  0  2  0  0  0  0  0  0
  162.5160  211.2070  157.0670 O   0  0  0  0  0  1  0  0  0  0  0  0
  161.1340  211.1450  157.2580 C   0  0  0  0  0  2  0  0  0  0  0  0
  1  6  1  6  0  0  0
  1  8  1  0  0  0  0
  2 13  1  0  0  0  0
  2 12  1  1  0  0  0
  3 16  1  6  0  0  0
  3 14  1  0  0  0  0
  4 15  1  0  0  0  0
  5  9  1  0  0  0  0
  5  1  1  0  0  0  0
  7  9  1  1  0  0  0
  7 11  1  0  0  0  0
  7  4  1  0  0  0  0
  8  4  2  0  0  0  0
 10  3  1  0  0  0  0
 11 10  1  6  0  0  0
 11  2  1  0  0  0  0
 13 35  1  0  0  0  0
 14 13  2  0  0  0  0
 15 12  2  0  0  0  0
 16 17  1  0  0  0  0
 18 16  2  0  0  0  0
 19 17  1  0  0  0  0
 20 23  1  0  0  0  0
 20 24  1  0  0  0  0
 21 25  1  0  0  0  0
 22 26  1  6  0  0  0
 22 25  1  0  0  0  0
 23 19  1  6  0  0  0
 23 21  1  0  0  0  0
 24 27  1  0  0  0  0
 25 28  1  1  0  0  0
 26 25  1  0  0  0  0
 27 22  1  0  0  0  0
 28 29  1  0  0  0  0
 29 30  2  0  0  0  0
 29 31  1  0  0  0  0
 30 31  1  0  0  0  0
 31 34  1  6  0  0  0
 32 34  2  0  0  0  0
 34 33  1  0  0  0  0
 36 37  1  0  0  0  0
 37 43  1  6  0  0  0
 38 40  1  0  0  0  0
 38 41  1  0  0  0  0
 39 36  1  0  0  0  0
 40 35  1  1  0  0  0
 40 39  1  0  0  0  0
 41 37  1  0  0  0  0
 42 43  1  0  0  0  0
M  END
>  <MODEL>
3

>  <REMARK>
 VINA RESULT:      -6.1      5.365      9.594
  Name = 
  9 active torsions:
  status: ('A' for Active; 'I' for Inactive)
    1  A    between atoms: C_1  and  C_34
    2  A    between atoms: C_1  and  C_35
    3  A    between atoms: C_2  and  C_13
    4  A    between atoms: N_6  and  S_17
    5  A    between atoms: C_11  and  O_14
    6  A    between atoms: C_12  and  S_17
    7  A    between atoms: O_14  and  C_22
    8  A    between atoms: C_19  and  C_37
    9  A    between atoms: C_31  and  C_40
                            x       y       z     vdW  Elec       q    Type
                         _______ _______ _______ _____ _____    ______ ____

>  <TORSDO>
F 9

$$$$
=
 OpenBabel11062410253D

 43 49  0  0  1  0  0  0  0  0999 V2000
  161.0100  202.5080  145.5540 C   0  0  1  0  0  3  0  0  0  0  0  0
  161.7330  206.7130  148.0300 C   0  0  1  0  0  3  0  0  0  0  0  0
  160.8070  206.5190  150.8240 C   0  0  2  0  0  3  0  0  0  0  0  0
  160.7970  204.8330  146.1530 C   0  0  0  0  0  0  0  0  0  0  0  0
  161.9340  202.2670  146.7670 C   0  0  0  0  0  2  0  0  0  0  0  0
  159.6870  201.9750  145.8330 N   0  0  0  0  0  1  0  0  0  0  0  0
  160.8160  204.3900  147.5980 C   0  0  1  0  0  3  0  0  0  0  0  0
  160.9110  203.9340  145.2250 N   0  0  0  0  0  0  0  0  0  0  0  0
  161.9980  203.4370  147.7730 C   0  0  0  0  0  2  0  0  0  0  0  0
  161.1120  205.2690  150.0030 C   0  0  0  0  0  2  0  0  0  0  0  0
  160.8190  205.5980  148.5440 C   0  0  1  0  0  3  0  0  0  0  0  0
  161.2590  207.1230  146.6650 C   0  0  0  0  0  3  0  0  0  0  0  0
  161.8480  207.8790  148.9930 C   0  0  0  0  0  0  0  0  0  0  0  0
  161.5110  207.7440  150.2910 C   0  0  0  0  0  3  0  0  0  0  0  0
  160.8640  206.2260  145.8100 N   0  0  0  0  0  0  0  0  0  0  0  0
  161.0910  206.2930  152.2710 C   0  0  0  0  0  0  0  0  0  0  0  0
  160.6260  207.2500  153.2230 N   0  0  0  0  0  2  0  0  0  0  0  0
  161.6960  205.2540  152.6510 O   0  0  0  0  0  0  0  0  0  0  0  0
  160.8440  207.0420  154.9650 S   0  0  0  0  0  0  0  0  0  0  0  0
  161.9680  209.1240  156.3680 C   0  0  0  0  0  2  0  0  0  0  0  0
  159.5640  209.3560  155.6460 C   0  0  0  0  0  2  0  0  0  0  0  0
  160.5490  211.8930  155.6660 C   0  0  2  0  0  3  0  0  0  0  0  0
  160.9480  208.8320  155.2680 C   0  0  2  0  0  3  0  0  0  0  0  0
  162.1260  210.6160  156.6220 C   0  0  0  0  0  2  0  0  0  0  0  0
  159.3860  210.8900  155.6810 C   0  0  1  0  0  0  0  0  0  0  0  0
  159.6990  211.6520  154.4160 C   0  0  0  0  0  2  0  0  0  0  0  0
  161.8170  211.3270  155.4580 O   0  0  0  0  0  0  0  0  0  0  0  0
  158.2410  211.3780  156.3640 O   0  0  0  0  0  0  0  0  0  0  0  0
  156.9780  211.3470  155.7780 C   0  0  0  0  0  0  0  0  0  0  0  0
  155.6060  211.0230  155.8280 N   0  0  0  0  0  0  0  0  0  0  0  0
  156.1530  211.6230  154.7300 C   0  0  1  0  0  3  0  0  0  0  0  0
  156.3000  213.8640  155.6170 N   0  0  0  0  0  2  0  0  0  0  0  0
  155.1370  213.6890  153.5290 C   0  0  0  0  0  1  0  0  0  0  0  0
  155.8230  213.0880  154.7140 C   0  0  0  0  0  0  0  0  0  0  0  0
  162.6040  209.1030  148.5820 C   0  0  0  0  0  2  0  0  0  0  0  0
  160.5920  212.1050  147.3710 C   0  0  0  0  0  2  0  0  0  0  0  0
  161.8180  213.0290  147.3840 C   0  0  2  0  0  3  0  0  0  0  0  0
  162.5730  211.5110  149.2790 C   0  0  0  0  0  2  0  0  0  0  0  0
  161.0030  210.6380  147.4380 C   0  0  0  0  0  2  0  0  0  0  0  0
  161.7360  210.3360  148.7510 C   0  0  1  0  0  3  0  0  0  0  0  0
  163.0160  212.4460  148.1520 C   0  0  0  0  0  2  0  0  0  0  0  0
  160.3550  214.2150  148.8540 O   0  0  0  0  0  1  0  0  0  0  0  0
  161.4170  214.3750  147.9620 C   0  0  0  0  0  2  0  0  0  0  0  0
  1  6  1  1  0  0  0
  1  5  1  0  0  0  0
  2 12  1  6  0  0  0
  2 11  1  0  0  0  0
  2 13  1  0  0  0  0
  3 16  1  1  0  0  0
  4  7  1  0  0  0  0
  5  9  1  0  0  0  0
  7  9  1  6  0  0  0
  7 11  1  0  0  0  0
  8  1  1  0  0  0  0
  8  4  2  0  0  0  0
 10  3  1  0  0  0  0
 11 10  1  1  0  0  0
 13 14  2  0  0  0  0
 14  3  1  0  0  0  0
 15  4  1  0  0  0  0
 15 12  2  0  0  0  0
 16 18  2  0  0  0  0
 16 17  1  0  0  0  0
 17 19  1  0  0  0  0
 20 24  1  0  0  0  0
 21 25  1  0  0  0  0
 22 26  1  6  0  0  0
 22 25  1  0  0  0  0
 23 19  1  1  0  0  0
 23 21  1  0  0  0  0
 23 20  1  0  0  0  0
 25 28  1  1  0  0  0
 26 25  1  0  0  0  0
 27 22  1  0  0  0  0
 27 24  1  0  0  0  0
 29 30  2  0  0  0  0
 29 28  1  0  0  0  0
 31 34  1  1  0  0  0
 31 29  1  0  0  0  0
 31 30  1  0  0  0  0
 33 34  1  0  0  0  0
 34 32  2  0  0  0  0
 35 13  1  0  0  0  0
 36 37  1  0  0  0  0
 36 39  1  0  0  0  0
 37 43  1  1  0  0  0
 37 41  1  0  0  0  0
 39 40  1  0  0  0  0
 40 35  1  6  0  0  0
 40 38  1  0  0  0  0
 41 38  1  0  0  0  0
 43 42  1  0  0  0  0
M  END
>  <MODEL>
4

>  <REMARK>
 VINA RESULT:      -6.1      4.509     10.643
  Name = 
  9 active torsions:
  status: ('A' for Active; 'I' for Inactive)
    1  A    between atoms: C_1  and  C_34
    2  A    between atoms: C_1  and  C_35
    3  A    between atoms: C_2  and  C_13
    4  A    between atoms: N_6  and  S_17
    5  A    between atoms: C_11  and  O_14
    6  A    between atoms: C_12  and  S_17
    7  A    between atoms: O_14  and  C_22
    8  A    between atoms: C_19  and  C_37
    9  A    between atoms: C_31  and  C_40
                            x       y       z     vdW  Elec       q    Type
                         _______ _______ _______ _____ _____    ______ ____

>  <TORSDO>
F 9

$$$$
=
 OpenBabel11062410253D

 43 49  0  0  1  0  0  0  0  0999 V2000
  160.6920  214.2710  148.5720 C   0  0  1  0  0  3  0  0  0  0  0  0
  161.0600  211.3040  152.4960 C   0  0  1  0  0  3  0  0  0  0  0  0
  160.8390  208.4580  151.7500 C   0  0  2  0  0  3  0  0  0  0  0  0
  160.1400  213.2590  150.6880 C   0  0  0  0  0  0  0  0  0  0  0  0
  161.8920  213.3120  148.4130 C   0  0  0  0  0  2  0  0  0  0  0  0
  159.6050  213.8390  147.7090 N   0  0  0  0  0  1  0  0  0  0  0  0
  160.5710  211.9390  150.0910 C   0  0  1  0  0  3  0  0  0  0  0  0
  160.2290  214.3300  149.9620 N   0  0  0  0  0  0  0  0  0  0  0  0
  161.9340  212.1540  149.4340 C   0  0  0  0  0  2  0  0  0  0  0  0
  161.2070  209.5210  150.7180 C   0  0  0  0  0  2  0  0  0  0  0  0
  160.5350  210.8210  151.1420 C   0  0  1  0  0  3  0  0  0  0  0  0
  160.2190  212.4650  152.9440 C   0  0  0  0  0  3  0  0  0  0  0  0
  161.1410  210.1980  153.5310 C   0  0  0  0  0  0  0  0  0  0  0  0
  161.1370  208.9010  153.1630 C   0  0  0  0  0  3  0  0  0  0  0  0
  159.8390  213.3690  152.0890 N   0  0  0  0  0  0  0  0  0  0  0  0
  161.4790  207.1500  151.4250 C   0  0  0  0  0  0  0  0  0  0  0  0
  160.6860  206.1240  150.8300 N   0  0  0  0  0  2  0  0  0  0  0  0
  162.7090  206.9690  151.6360 O   0  0  0  0  0  0  0  0  0  0  0  0
  161.3600  204.5660  150.3380 S   0  0  0  0  0  0  0  0  0  0  0  0
  160.6070  206.1650  148.2300 C   0  0  0  0  0  2  0  0  0  0  0  0
  161.5830  203.9030  147.6990 C   0  0  0  0  0  2  0  0  0  0  0  0
  162.2940  205.4930  145.6070 C   0  0  2  0  0  3  0  0  0  0  0  0
  161.6430  205.1130  148.6270 C   0  0  2  0  0  3  0  0  0  0  0  0
  160.8360  206.6900  146.8200 C   0  0  0  0  0  2  0  0  0  0  0  0
  162.0630  204.1150  146.2460 C   0  0  1  0  0  0  0  0  0  0  0  0
  163.4720  204.6200  146.0480 C   0  0  0  0  0  2  0  0  0  0  0  0
  162.1910  206.5800  146.4900 O   0  0  0  0  0  0  0  0  0  0  0  0
  161.6830  203.1240  145.3030 O   0  0  0  0  0  0  0  0  0  0  0  0
  160.7850  202.1130  145.6340 C   0  0  0  0  0  0  0  0  0  0  0  0
  159.8980  201.0830  145.2580 N   0  0  0  0  0  0  0  0  0  0  0  0
  160.1220  201.3800  146.5720 C   0  0  1  0  0  3  0  0  0  0  0  0
  161.5840  199.4620  146.4560 N   0  0  0  0  0  2  0  0  0  0  0  0
  161.5520  200.5690  148.5820 C   0  0  0  0  0  1  0  0  0  0  0  0
  161.0550  200.3750  147.1850 C   0  0  0  0  0  0  0  0  0  0  0  0
  161.5170  210.5320  154.9400 C   0  0  0  0  0  2  0  0  0  0  0  0
  157.7810  210.7150  155.6720 C   0  0  0  0  0  2  0  0  0  0  0  0
  157.8080  212.2420  155.8290 C   0  0  2  0  0  3  0  0  0  0  0  0
  160.1850  211.8210  156.6280 C   0  0  0  0  0  2  0  0  0  0  0  0
  159.0420  210.2060  154.9840 C   0  0  0  0  0  2  0  0  0  0  0  0
  160.2860  210.5140  155.8280 C   0  0  1  0  0  3  0  0  0  0  0  0
  159.2270  212.8180  155.9720 C   0  0  0  0  0  2  0  0  0  0  0  0
  155.7710  213.2390  156.5800 O   0  0  0  0  0  1  0  0  0  0  0  0
  156.9500  212.6330  157.0190 C   0  0  0  0  0  2  0  0  0  0  0  0
  1  6  1  6  0  0  0
  1  8  1  0  0  0  0
  2 12  1  1  0  0  0
  2 13  1  0  0  0  0
  3 16  1  6  0  0  0
  3 14  1  0  0  0  0
  4 15  1  0  0  0  0
  5  1  1  0  0  0  0
  5  9  1  0  0  0  0
  7  9  1  1  0  0  0
  7  4  1  0  0  0  0
  7 11  1  0  0  0  0
  8  4  2  0  0  0  0
 10  3  1  0  0  0  0
 11 10  1  6  0  0  0
 11  2  1  0  0  0  0
 13 35  1  0  0  0  0
 14 13  2  0  0  0  0
 15 12  2  0  0  0  0
 16 18  2  0  0  0  0
 17 16  1  0  0  0  0
 19 17  1  0  0  0  0
 20 23  1  0  0  0  0
 21 23  1  0  0  0  0
 22 26  1  1  0  0  0
 22 25  1  0  0  0  0
 22 27  1  0  0  0  0
 23 19  1  1  0  0  0
 24 20  1  0  0  0  0
 25 28  1  6  0  0  0
 25 21  1  0  0  0  0
 26 25  1  0  0  0  0
 27 24  1  0  0  0  0
 28 29  1  0  0  0  0
 29 31  1  0  0  0  0
 30 29  2  0  0  0  0
 30 31  1  0  0  0  0
 31 34  1  1  0  0  0
 32 34  2  0  0  0  0
 34 33  1  0  0  0  0
 36 37  1  0  0  0  0
 37 41  1  0  0  0  0
 37 43  1  1  0  0  0
 39 36  1  0  0  0  0
 39 40  1  0  0  0  0
 40 35  1  6  0  0  0
 40 38  1  0  0  0  0
 41 38  1  0  0  0  0
 42 43  1  0  0  0  0
M  END
>  <MODEL>
5

>  <REMARK>
 VINA RESULT:      -5.7      4.813      9.418
  Name = 
  9 active torsions:
  status: ('A' for Active; 'I' for Inactive)
    1  A    between atoms: C_1  and  C_34
    2  A    between atoms: C_1  and  C_35
    3  A    between atoms: C_2  and  C_13
    4  A    between atoms: N_6  and  S_17
    5  A    between atoms: C_11  and  O_14
    6  A    between atoms: C_12  and  S_17
    7  A    between atoms: O_14  and  C_22
    8  A    between atoms: C_19  and  C_37
    9  A    between atoms: C_31  and  C_40
                            x       y       z     vdW  Elec       q    Type
                         _______ _______ _______ _____ _____    ______ ____

>  <TORSDO>
F 9

$$$$
=
 OpenBabel11062410253D

 43 49  0  0  1  0  0  0  0  0999 V2000
  160.6020  207.9270  157.0940 C   0  0  1  0  0  3  0  0  0  0  0  0
  160.6850  210.7900  153.0770 C   0  0  1  0  0  3  0  0  0  0  0  0
  161.9140  209.4190  150.7720 C   0  0  2  0  0  3  0  0  0  0  0  0
  161.1590  209.7870  155.6670 C   0  0  0  0  0  0  0  0  0  0  0  0
  159.8100  207.2670  155.9440 C   0  0  0  0  0  2  0  0  0  0  0  0
  161.8770  207.2490  157.2610 N   0  0  0  0  0  1  0  0  0  0  0  0
  161.2630  208.7960  154.5310 C   0  0  1  0  0  3  0  0  0  0  0  0
  160.8280  209.3540  156.8440 N   0  0  0  0  0  0  0  0  0  0  0  0
  160.0070  207.9260  154.5610 C   0  0  0  0  0  2  0  0  0  0  0  0
  161.3660  208.6340  151.9610 C   0  0  0  0  0  2  0  0  0  0  0  0
  161.5170  209.5110  153.1970 C   0  0  1  0  0  3  0  0  0  0  0  0
  161.0350  211.6920  154.2250 C   0  0  0  0  0  3  0  0  0  0  0  0
  160.8260  211.4660  151.7270 C   0  0  0  0  0  0  0  0  0  0  0  0
  161.3000  210.7940  150.6590 C   0  0  0  0  0  3  0  0  0  0  0  0
  161.2160  211.2010  155.4160 N   0  0  0  0  0  0  0  0  0  0  0  0
  161.7820  208.6400  149.5070 C   0  0  0  0  0  0  0  0  0  0  0  0
  161.3590  207.2790  149.5750 N   0  0  0  0  0  2  0  0  0  0  0  0
  162.0020  209.1870  148.3920 O   0  0  0  0  0  0  0  0  0  0  0  0
  161.1000  206.2890  148.1340 S   0  0  0  0  0  0  0  0  0  0  0  0
  161.5890  204.8430  150.4230 C   0  0  0  0  0  2  0  0  0  0  0  0
  161.2650  203.5680  148.2730 C   0  0  0  0  0  2  0  0  0  0  0  0
  160.3450  201.9120  150.2280 C   0  0  2  0  0  3  0  0  0  0  0  0
  160.8250  204.7730  149.1000 C   0  0  2  0  0  3  0  0  0  0  0  0
  161.3490  203.6140  151.2880 C   0  0  0  0  0  2  0  0  0  0  0  0
  160.8650  202.1740  148.8070 C   0  0  1  0  0  0  0  0  0  0  0  0
  159.3950  201.9120  149.0270 C   0  0  0  0  0  2  0  0  0  0  0  0
  160.0970  203.0650  150.9900 O   0  0  0  0  0  0  0  0  0  0  0  0
  161.5590  201.0630  148.2570 O   0  0  0  0  0  0  0  0  0  0  0  0
  161.3220  200.6310  146.9560 C   0  0  0  0  0  0  0  0  0  0  0  0
  160.8880  199.6430  146.0470 N   0  0  0  0  0  0  0  0  0  0  0  0
  161.3280  200.8600  145.6130 C   0  0  1  0  0  3  0  0  0  0  0  0
  158.9660  201.3210  145.4200 N   0  0  0  0  0  2  0  0  0  0  0  0
  160.3940  203.1710  144.8830 C   0  0  0  0  0  1  0  0  0  0  0  0
  160.1670  201.7370  145.2410 C   0  0  0  0  0  0  0  0  0  0  0  0
  160.1750  212.7940  151.4950 C   0  0  0  0  0  2  0  0  0  0  0  0
  156.5790  214.0520  151.3800 C   0  0  0  0  0  2  0  0  0  0  0  0
  156.5440  214.3230  152.8900 C   0  0  2  0  0  3  0  0  0  0  0  0
  158.1930  212.3900  152.9770 C   0  0  0  0  0  2  0  0  0  0  0  0
  158.0090  213.8710  150.8820 C   0  0  0  0  0  2  0  0  0  0  0  0
  158.6650  212.6500  151.5380 C   0  0  1  0  0  3  0  0  0  0  0  0
  157.7070  213.6710  153.6570 C   0  0  0  0  0  2  0  0  0  0  0  0
  155.3840  213.3370  154.7300 O   0  0  0  0  0  1  0  0  0  0  0  0
  155.2100  213.8590  153.4460 C   0  0  0  0  0  2  0  0  0  0  0  0
  1  6  1  6  0  0  0
  2 11  1  0  0  0  0
  2 12  1  1  0  0  0
  3 16  1  6  0  0  0
  3 10  1  0  0  0  0
  4  8  2  0  0  0  0
  5  1  1  0  0  0  0
  7  9  1  6  0  0  0
  7  4  1  0  0  0  0
  8  1  1  0  0  0  0
  9  5  1  0  0  0  0
 11 10  1  6  0  0  0
 11  7  1  0  0  0  0
 12 15  2  0  0  0  0
 13  2  1  0  0  0  0
 14  3  1  0  0  0  0
 14 13  2  0  0  0  0
 15  4  1  0  0  0  0
 16 17  1  0  0  0  0
 18 16  2  0  0  0  0
 19 17  1  0  0  0  0
 20 24  1  0  0  0  0
 21 25  1  0  0  0  0
 21 23  1  0  0  0  0
 22 26  1  6  0  0  0
 22 27  1  0  0  0  0
 23 19  1  6  0  0  0
 23 20  1  0  0  0  0
 25 28  1  6  0  0  0
 25 26  1  0  0  0  0
 25 22  1  0  0  0  0
 27 24  1  0  0  0  0
 29 28  1  0  0  0  0
 30 29  2  0  0  0  0
 31 34  1  1  0  0  0
 31 30  1  0  0  0  0
 31 29  1  0  0  0  0
 33 34  1  0  0  0  0
 34 32  2  0  0  0  0
 35 13  1  0  0  0  0
 36 37  1  0  0  0  0
 37 43  1  1  0  0  0
 37 41  1  0  0  0  0
 38 41  1  0  0  0  0
 39 36  1  0  0  0  0
 39 40  1  0  0  0  0
 40 35  1  1  0  0  0
 40 38  1  0  0  0  0
 43 42  1  0  0  0  0
M  END
>  <MODEL>
6

>  <REMARK>
 VINA RESULT:      -5.6      5.556      9.225
  Name = 
  9 active torsions:
  status: ('A' for Active; 'I' for Inactive)
    1  A    between atoms: C_1  and  C_34
    2  A    between atoms: C_1  and  C_35
    3  A    between atoms: C_2  and  C_13
    4  A    between atoms: N_6  and  S_17
    5  A    between atoms: C_11  and  O_14
    6  A    between atoms: C_12  and  S_17
    7  A    between atoms: O_14  and  C_22
    8  A    between atoms: C_19  and  C_37
    9  A    between atoms: C_31  and  C_40
                            x       y       z     vdW  Elec       q    Type
                         _______ _______ _______ _____ _____    ______ ____

>  <TORSDO>
F 9

$$$$
=
 OpenBabel11062410253D

 43 49  0  0  1  0  0  0  0  0999 V2000
  160.6950  213.5990  148.4400 C   0  0  1  0  0  3  0  0  0  0  0  0
  160.1350  212.4900  153.2140 C   0  0  1  0  0  3  0  0  0  0  0  0
  159.8170  209.5890  153.6410 C   0  0  2  0  0  3  0  0  0  0  0  0
  159.7040  213.5410  150.6360 C   0  0  0  0  0  0  0  0  0  0  0  0
  161.8230  212.6560  148.9110 C   0  0  0  0  0  2  0  0  0  0  0  0
  159.7430  212.8580  147.6310 N   0  0  0  0  0  1  0  0  0  0  0  0
  160.1240  212.0910  150.7110 C   0  0  1  0  0  3  0  0  0  0  0  0
  160.0040  214.2220  149.5740 N   0  0  0  0  0  0  0  0  0  0  0  0
  161.5930  212.0140  150.2970 C   0  0  0  0  0  2  0  0  0  0  0  0
  160.4430  210.1370  152.3620 C   0  0  0  0  0  2  0  0  0  0  0  0
  159.8150  211.4990  152.0930 C   0  0  1  0  0  3  0  0  0  0  0  0
  159.3260  213.7360  152.9900 C   0  0  0  0  0  3  0  0  0  0  0  0
  159.9460  211.9020  154.5990 C   0  0  0  0  0  0  0  0  0  0  0  0
  159.9000  210.5680  154.7870 C   0  0  0  0  0  3  0  0  0  0  0  0
  159.1740  214.2140  151.7900 N   0  0  0  0  0  0  0  0  0  0  0  0
  160.3950  208.2600  153.9950 C   0  0  0  0  0  0  0  0  0  0  0  0
  161.0260  207.4880  152.9740 N   0  0  0  0  0  2  0  0  0  0  0  0
  160.3630  207.8440  155.1850 O   0  0  0  0  0  0  0  0  0  0  0  0
  161.8070  205.9360  153.3000 S   0  0  0  0  0  0  0  0  0  0  0  0
  161.8220  203.8010  151.5650 C   0  0  0  0  0  2  0  0  0  0  0  0
  162.0160  206.1150  150.5840 C   0  0  0  0  0  2  0  0  0  0  0  0
  160.7360  204.6420  148.6860 C   0  0  2  0  0  3  0  0  0  0  0  0
  161.3710  205.2580  151.6710 C   0  0  2  0  0  3  0  0  0  0  0  0
  161.4330  203.1760  150.2340 C   0  0  0  0  0  2  0  0  0  0  0  0
  161.5490  205.8670  149.1330 C   0  0  1  0  0  0  0  0  0  0  0  0
  160.0740  206.0140  148.8450 C   0  0  0  0  0  2  0  0  0  0  0  0
  160.2940  203.8130  149.7290 O   0  0  0  0  0  0  0  0  0  0  0  0
  162.3780  206.3860  148.1040 O   0  0  0  0  0  0  0  0  0  0  0  0
  162.6990  205.6310  146.9790 C   0  0  0  0  0  0  0  0  0  0  0  0
  163.2690  204.4830  146.3900 N   0  0  0  0  0  0  0  0  0  0  0  0
  162.6830  205.4540  145.6290 C   0  0  1  0  0  3  0  0  0  0  0  0
  161.0680  203.7790  144.9830 N   0  0  0  0  0  2  0  0  0  0  0  0
  160.1750  205.9910  145.2170 C   0  0  0  0  0  1  0  0  0  0  0  0
  161.3130  205.0210  145.1900 C   0  0  0  0  0  0  0  0  0  0  0  0
  160.0970  212.7810  155.8010 C   0  0  0  0  0  2  0  0  0  0  0  0
  156.4160  212.0630  156.4830 C   0  0  0  0  0  2  0  0  0  0  0  0
  155.9760  213.4540  156.0050 C   0  0  2  0  0  3  0  0  0  0  0  0
  158.2730  214.1440  156.8500 C   0  0  0  0  0  2  0  0  0  0  0  0
  157.8370  211.7450  156.0320 C   0  0  0  0  0  2  0  0  0  0  0  0
  158.8380  212.7300  156.6480 C   0  0  1  0  0  3  0  0  0  0  0  0
  157.1400  214.4510  155.8690 C   0  0  0  0  0  2  0  0  0  0  0  0
  153.7330  214.2340  156.2590 O   0  0  0  0  0  1  0  0  0  0  0  0
  154.9200  213.9920  156.9540 C   0  0  0  0  0  2  0  0  0  0  0  0
  1  6  1  1  0  0  0
  1  5  1  0  0  0  0
  1  8  1  0  0  0  0
  2 12  1  1  0  0  0
  2 13  1  0  0  0  0
  3 16  1  1  0  0  0
  3 14  1  0  0  0  0
  4  7  1  0  0  0  0
  4 15  1  0  0  0  0
  5  9  1  0  0  0  0
  7  9  1  1  0  0  0
  7 11  1  0  0  0  0
  8  4  2  0  0  0  0
 10  3  1  0  0  0  0
 11 10  1  1  0  0  0
 11  2  1  0  0  0  0
 13 14  2  0  0  0  0
 13 35  1  0  0  0  0
 15 12  2  0  0  0  0
 16 18  2  0  0  0  0
 17 19  1  0  0  0  0
 17 16  1  0  0  0  0
 20 23  1  0  0  0  0
 21 23  1  0  0  0  0
 22 26  1  1  0  0  0
 22 25  1  0  0  0  0
 22 27  1  0  0  0  0
 23 19  1  1  0  0  0
 24 20  1  0  0  0  0
 25 28  1  6  0  0  0
 25 21  1  0  0  0  0
 26 25  1  0  0  0  0
 27 24  1  0  0  0  0
 29 28  1  0  0  0  0
 30 29  2  0  0  0  0
 31 34  1  1  0  0  0
 31 30  1  0  0  0  0
 31 29  1  0  0  0  0
 32 34  2  0  0  0  0
 34 33  1  0  0  0  0
 37 36  1  0  0  0  0
 37 43  1  1  0  0  0
 39 36  1  0  0  0  0
 39 40  1  0  0  0  0
 40 35  1  6  0  0  0
 40 38  1  0  0  0  0
 41 37  1  0  0  0  0
 41 38  1  0  0  0  0
 42 43  1  0  0  0  0
M  END
>  <MODEL>
7

>  <REMARK>
 VINA RESULT:      -5.1      4.885      9.605
  Name = 
  9 active torsions:
  status: ('A' for Active; 'I' for Inactive)
    1  A    between atoms: C_1  and  C_34
    2  A    between atoms: C_1  and  C_35
    3  A    between atoms: C_2  and  C_13
    4  A    between atoms: N_6  and  S_17
    5  A    between atoms: C_11  and  O_14
    6  A    between atoms: C_12  and  S_17
    7  A    between atoms: O_14  and  C_22
    8  A    between atoms: C_19  and  C_37
    9  A    between atoms: C_31  and  C_40
                            x       y       z     vdW  Elec       q    Type
                         _______ _______ _______ _____ _____    ______ ____

>  <TORSDO>
F 9

$$$$
=
 OpenBabel11062410253D

 43 49  0  0  1  0  0  0  0  0999 V2000
  156.8690  212.5260  155.7390 C   0  0  1  0  0  3  0  0  0  0  0  0
  157.2580  213.4140  150.9020 C   0  0  1  0  0  3  0  0  0  0  0  0
  160.0650  213.3680  149.9960 C   0  0  2  0  0  3  0  0  0  0  0  0
  156.7210  213.7190  153.6500 C   0  0  0  0  0  0  0  0  0  0  0  0
  157.5390  211.3330  155.0240 C   0  0  0  0  0  2  0  0  0  0  0  0
  157.8710  213.2790  156.4750 N   0  0  0  0  0  1  0  0  0  0  0  0
  158.0570  213.1120  153.2880 C   0  0  1  0  0  3  0  0  0  0  0  0
  156.1840  213.4090  154.7900 N   0  0  0  0  0  0  0  0  0  0  0  0
  157.9730  211.6120  153.5680 C   0  0  0  0  0  2  0  0  0  0  0  0
  159.6430  212.6970  151.3000 C   0  0  0  0  0  2  0  0  0  0  0  0
  158.4560  213.4760  151.8520 C   0  0  1  0  0  3  0  0  0  0  0  0
  156.2050  214.3600  151.4040 C   0  0  0  0  0  3  0  0  0  0  0  0
  157.6350  213.6600  149.4530 C   0  0  0  0  0  0  0  0  0  0  0  0
  158.9110  213.5390  149.0370 C   0  0  0  0  0  3  0  0  0  0  0  0
  155.9590  214.4530  152.6780 N   0  0  0  0  0  0  0  0  0  0  0  0
  161.2130  212.6510  149.3690 C   0  0  0  0  0  0  0  0  0  0  0  0
  161.3260  211.2400  149.5480 N   0  0  0  0  0  2  0  0  0  0  0  0
  162.0490  213.2750  148.6600 O   0  0  0  0  0  0  0  0  0  0  0  0
  162.6040  210.2830  148.7890 S   0  0  0  0  0  0  0  0  0  0  0  0
  162.5630  208.5110  150.8930 C   0  0  0  0  0  2  0  0  0  0  0  0
  162.3750  207.5720  148.5610 C   0  0  0  0  0  2  0  0  0  0  0  0
  160.9710  205.8520  150.1360 C   0  0  2  0  0  3  0  0  0  0  0  0
  161.9910  208.7210  149.4910 C   0  0  2  0  0  3  0  0  0  0  0  0
  162.0380  207.2380  151.5410 C   0  0  0  0  0  2  0  0  0  0  0  0
  161.7170  206.2020  148.8400 C   0  0  1  0  0  0  0  0  0  0  0  0
  160.2090  206.1450  148.8410 C   0  0  0  0  0  2  0  0  0  0  0  0
  160.7780  206.9280  151.0180 O   0  0  0  0  0  0  0  0  0  0  0  0
  162.3230  205.0730  148.2280 O   0  0  0  0  0  0  0  0  0  0  0  0
  162.5180  205.0110  146.8510 C   0  0  0  0  0  0  0  0  0  0  0  0
  163.0200  204.3550  145.7080 N   0  0  0  0  0  0  0  0  0  0  0  0
  162.3510  205.5410  145.6070 C   0  0  1  0  0  3  0  0  0  0  0  0
  160.0640  206.2390  145.2660 N   0  0  0  0  0  2  0  0  0  0  0  0
  160.6080  204.1010  144.3280 C   0  0  0  0  0  1  0  0  0  0  0  0
  160.9410  205.3110  145.1420 C   0  0  0  0  0  0  0  0  0  0  0  0
  156.5590  213.7560  148.4180 C   0  0  0  0  0  2  0  0  0  0  0  0
  156.9510  214.3090  144.6670 C   0  0  0  0  0  2  0  0  0  0  0  0
  158.1430  213.3450  144.5720 C   0  0  2  0  0  3  0  0  0  0  0  0
  158.5690  214.1060  146.9610 C   0  0  0  0  0  2  0  0  0  0  0  0
  156.1920  214.1240  145.9760 C   0  0  0  0  0  2  0  0  0  0  0  0
  157.0880  214.4530  147.1770 C   0  0  1  0  0  3  0  0  0  0  0  0
  158.7470  212.9810  145.9390 C   0  0  0  0  0  2  0  0  0  0  0  0
  160.0710  212.9580  143.2150 O   0  0  0  0  0  1  0  0  0  0  0  0
  159.1990  213.9520  143.6660 C   0  0  0  0  0  2  0  0  0  0  0  0
  1  6  1  6  0  0  0
  2 12  1  1  0  0  0
  2 11  1  0  0  0  0
  3 16  1  6  0  0  0
  3 10  1  0  0  0  0
  4  8  2  0  0  0  0
  5  1  1  0  0  0  0
  7  9  1  6  0  0  0
  7  4  1  0  0  0  0
  8  1  1  0  0  0  0
  9  5  1  0  0  0  0
 11 10  1  6  0  0  0
 11  7  1  0  0  0  0
 12 15  2  0  0  0  0
 13  2  1  0  0  0  0
 14 13  2  0  0  0  0
 14  3  1  0  0  0  0
 15  4  1  0  0  0  0
 16 17  1  0  0  0  0
 18 16  2  0  0  0  0
 19 17  1  0  0  0  0
 20 24  1  0  0  0  0
 21 25  1  0  0  0  0
 21 23  1  0  0  0  0
 22 26  1  6  0  0  0
 22 27  1  0  0  0  0
 23 19  1  6  0  0  0
 23 20  1  0  0  0  0
 25 28  1  6  0  0  0
 25 26  1  0  0  0  0
 25 22  1  0  0  0  0
 27 24  1  0  0  0  0
 29 28  1  0  0  0  0
 30 29  2  0  0  0  0
 31 34  1  6  0  0  0
 31 30  1  0  0  0  0
 31 29  1  0  0  0  0
 33 34  1  0  0  0  0
 34 32  2  0  0  0  0
 35 13  1  0  0  0  0
 36 39  1  0  0  0  0
 37 43  1  6  0  0  0
 37 36  1  0  0  0  0
 37 41  1  0  0  0  0
 38 40  1  0  0  0  0
 39 40  1  0  0  0  0
 40 35  1  1  0  0  0
 41 38  1  0  0  0  0
 42 43  1  0  0  0  0
M  END
>  <MODEL>
8

>  <REMARK>
 VINA RESULT:      -5.1      3.675      7.850
  Name = 
  9 active torsions:
  status: ('A' for Active; 'I' for Inactive)
    1  A    between atoms: C_1  and  C_34
    2  A    between atoms: C_1  and  C_35
    3  A    between atoms: C_2  and  C_13
    4  A    between atoms: N_6  and  S_17
    5  A    between atoms: C_11  and  O_14
    6  A    between atoms: C_12  and  S_17
    7  A    between atoms: O_14  and  C_22
    8  A    between atoms: C_19  and  C_37
    9  A    between atoms: C_31  and  C_40
                            x       y       z     vdW  Elec       q    Type
                         _______ _______ _______ _____ _____    ______ ____

>  <TORSDO>
F 9

$$$$
=
 OpenBabel11062410253D

 43 49  0  0  1  0  0  0  0  0999 V2000
  160.6710  201.0190  148.7980 C   0  0  1  0  0  3  0  0  0  0  0  0
  160.8020  205.0880  151.5830 C   0  0  1  0  0  3  0  0  0  0  0  0
  162.2140  207.3000  150.2360 C   0  0  2  0  0  3  0  0  0  0  0  0
  161.1990  202.4570  150.6580 C   0  0  0  0  0  0  0  0  0  0  0  0
  159.9730  202.1900  148.0740 C   0  0  0  0  0  2  0  0  0  0  0  0
  161.9700  200.7750  148.1940 N   0  0  0  0  0  1  0  0  0  0  0  0
  161.4120  203.5640  149.6520 C   0  0  1  0  0  3  0  0  0  0  0  0
  160.8330  201.2880  150.2300 N   0  0  0  0  0  0  0  0  0  0  0  0
  160.2030  203.5760  148.7150 C   0  0  0  0  0  2  0  0  0  0  0  0
  161.6510  206.1220  149.4450 C   0  0  0  0  0  2  0  0  0  0  0  0
  161.6930  204.9000  150.3530 C   0  0  1  0  0  3  0  0  0  0  0  0
  161.0460  203.9440  152.5250 C   0  0  0  0  0  3  0  0  0  0  0  0
  160.9740  206.4450  152.2400 C   0  0  0  0  0  0  0  0  0  0  0  0
  161.5350  207.4730  151.5730 C   0  0  0  0  0  3  0  0  0  0  0  0
  161.1920  202.7360  152.0670 N   0  0  0  0  0  0  0  0  0  0  0  0
  162.1880  208.5530  149.4260 C   0  0  0  0  0  0  0  0  0  0  0  0
  162.3970  209.8030  150.0820 N   0  0  0  0  0  2  0  0  0  0  0  0
  162.0230  208.5050  148.1770 O   0  0  0  0  0  0  0  0  0  0  0  0
  162.4600  211.3380  149.2080 S   0  0  0  0  0  0  0  0  0  0  0  0
  160.8140  211.2030  151.4090 C   0  0  0  0  0  2  0  0  0  0  0  0
  159.8650  212.1840  149.2900 C   0  0  0  0  0  2  0  0  0  0  0  0
  158.5630  213.4600  151.3110 C   0  0  2  0  0  3  0  0  0  0  0  0
  161.1020  212.0610  150.1770 C   0  0  2  0  0  3  0  0  0  0  0  0
  159.7160  211.7980  152.2780 C   0  0  0  0  0  2  0  0  0  0  0  0
  158.6910  213.0190  149.8450 C   0  0  1  0  0  0  0  0  0  0  0  0
  158.9770  214.4530  150.2210 C   0  0  0  0  0  2  0  0  0  0  0  0
  159.6840  213.1860  152.1110 O   0  0  0  0  0  0  0  0  0  0  0  0
  157.4340  212.8450  149.2070 O   0  0  0  0  0  0  0  0  0  0  0  0
  157.2990  212.9510  147.8260 C   0  0  0  0  0  0  0  0  0  0  0  0
  156.7120  213.5440  146.6890 N   0  0  0  0  0  0  0  0  0  0  0  0
  157.6520  212.5620  146.5690 C   0  0  1  0  0  3  0  0  0  0  0  0
  159.1170  214.4250  146.1040 N   0  0  0  0  0  2  0  0  0  0  0  0
  160.2100  212.2940  146.2020 C   0  0  0  0  0  1  0  0  0  0  0  0
  158.9860  213.1530  146.2090 C   0  0  0  0  0  0  0  0  0  0  0  0
  160.2650  206.7370  153.5250 C   0  0  0  0  0  2  0  0  0  0  0  0
  161.3280  208.1020  156.9210 C   0  0  0  0  0  2  0  0  0  0  0  0
  160.7250  209.4860  156.6390 C   0  0  2  0  0  3  0  0  0  0  0  0
  161.2910  208.9140  154.2270 C   0  0  0  0  0  2  0  0  0  0  0  0
  160.8030  207.0590  155.9410 C   0  0  0  0  0  2  0  0  0  0  0  0
  161.2130  207.4050  154.5040 C   0  0  1  0  0  3  0  0  0  0  0  0
  160.3770  209.7120  155.1580 C   0  0  0  0  0  2  0  0  0  0  0  0
  162.9700  210.0180  157.2610 O   0  0  0  0  0  1  0  0  0  0  0  0
  161.6860  210.5540  157.1300 C   0  0  0  0  0  2  0  0  0  0  0  0
  1  6  1  6  0  0  0
  1  8  1  0  0  0  0
  2 13  1  0  0  0  0
  2 12  1  1  0  0  0
  3 16  1  6  0  0  0
  3 14  1  0  0  0  0
  4 15  1  0  0  0  0
  5  9  1  0  0  0  0
  5  1  1  0  0  0  0
  7  9  1  1  0  0  0
  7 11  1  0  0  0  0
  7  4  1  0  0  0  0
  8  4  2  0  0  0  0
 10  3  1  0  0  0  0
 11 10  1  6  0  0  0
 11  2  1  0  0  0  0
 13 35  1  0  0  0  0
 14 13  2  0  0  0  0
 15 12  2  0  0  0  0
 16 17  1  0  0  0  0
 18 16  2  0  0  0  0
 19 17  1  0  0  0  0
 20 24  1  0  0  0  0
 21 25  1  0  0  0  0
 21 23  1  0  0  0  0
 22 26  1  6  0  0  0
 22 27  1  0  0  0  0
 23 19  1  6  0  0  0
 23 20  1  0  0  0  0
 25 28  1  6  0  0  0
 25 26  1  0  0  0  0
 25 22  1  0  0  0  0
 27 24  1  0  0  0  0
 29 28  1  0  0  0  0
 30 29  2  0  0  0  0
 31 34  1  6  0  0  0
 31 30  1  0  0  0  0
 31 29  1  0  0  0  0
 32 34  2  0  0  0  0
 33 34  1  0  0  0  0
 37 36  1  0  0  0  0
 37 43  1  6  0  0  0
 38 40  1  0  0  0  0
 38 41  1  0  0  0  0
 39 36  1  0  0  0  0
 40 35  1  6  0  0  0
 40 39  1  0  0  0  0
 41 37  1  0  0  0  0
 43 42  1  0  0  0  0
M  END
>  <MODEL>
9

>  <REMARK>
 VINA RESULT:      -5.0      3.966      7.782
  Name = 
  9 active torsions:
  status: ('A' for Active; 'I' for Inactive)
    1  A    between atoms: C_1  and  C_34
    2  A    between atoms: C_1  and  C_35
    3  A    between atoms: C_2  and  C_13
    4  A    between atoms: N_6  and  S_17
    5  A    between atoms: C_11  and  O_14
    6  A    between atoms: C_12  and  S_17
    7  A    between atoms: O_14  and  C_22
    8  A    between atoms: C_19  and  C_37
    9  A    between atoms: C_31  and  C_40
                            x       y       z     vdW  Elec       q    Type
                         _______ _______ _______ _____ _____    ______ ____

>  <TORSDO>
F 9

$$$$
