=
 OpenBabel11052423033D

 28 30  0  0  1  0  0  0  0  0999 V2000
  160.6430  202.8960  152.7620 O   0  0  0  0  0  1  0  0  0  0  0  0
  161.2930  206.2030  151.3560 N   0  0  0  0  0  0  0  0  0  0  0  0
  161.2860  205.4180  153.5670 O   0  0  0  0  0  0  0  0  0  0  0  0
  160.9310  203.4750  150.4530 C   0  0  1  0  0  3  0  0  0  0  0  0
  161.2150  205.8890  149.9590 C   0  0  0  0  0  3  0  0  0  0  0  0
  161.3810  203.7160  151.9060 C   0  0  1  0  0  3  0  0  0  0  0  0
  161.2780  205.1460  152.3350 C   0  0  0  0  0  0  0  0  0  0  0  0
  161.0880  204.6460  149.4930 C   0  0  0  0  0  0  0  0  0  0  0  0
  160.6250  208.0070  152.8970 C   0  0  0  0  0  3  0  0  0  0  0  0
  161.9940  208.5500  150.9720 C   0  0  0  0  0  0  0  0  0  0  0  0
  161.2970  210.2960  152.5020 C   0  0  0  0  0  0  0  0  0  0  0  0
  161.3130  207.5890  151.7460 C   0  0  0  0  0  0  0  0  0  0  0  0
  161.9860  209.8950  151.3550 C   0  0  0  0  0  3  0  0  0  0  0  0
  162.6880  208.1850  149.8650 F   0  0  0  0  0  0  0  0  0  0  0  0
  161.2920  211.6010  152.8670 F   0  0  0  0  0  0  0  0  0  0  0  0
  160.6180  209.3510  153.2740 C   0  0  0  0  0  3  0  0  0  0  0  0
  160.8140  204.5240  148.0170 C   0  0  1  0  0  3  0  0  0  0  0  0
  160.4630  205.8100  147.2790 C   0  0  0  0  0  1  0  0  0  0  0  0
  162.4050  204.0150  146.0670 N   0  0  0  0  0  0  0  0  0  0  0  0
  160.9050  202.6150  145.2810 C   0  0  1  0  0  3  0  0  0  0  0  0
  160.8920  202.3890  146.7740 C   0  0  0  0  0  2  0  0  0  0  0  0
  161.7320  203.5220  147.2740 C   0  0  2  0  0  3  0  0  0  0  0  0
  159.5970  202.6510  144.8010 O   0  0  0  0  0  1  0  0  0  0  0  0
  161.5330  203.8490  145.0330 O   0  0  0  0  0  0  0  0  0  0  0  0
  162.7950  205.4180  146.1340 C   0  0  0  0  0  2  0  0  0  0  0  0
  162.6850  205.9980  144.8700 O   0  0  0  0  0  1  0  0  0  0  0  0
  160.3660  201.3060  149.9700 C   0  0  0  0  0  1  0  0  0  0  0  0
  161.4090  202.2480  149.9420 O   0  0  0  0  0  0  0  0  0  0  0  0
  2 12  1  0  0  0  0
  2  7  1  0  0  0  0
  4 28  1  6  0  0  0
  4  6  1  0  0  0  0
  5  2  1  0  0  0  0
  6  7  1  0  0  0  0
  6  1  1  1  0  0  0
  7  3  2  0  0  0  0
  8  5  2  0  0  0  0
  8  4  1  0  0  0  0
  9 16  1  0  0  0  0
 10 13  2  0  0  0  0
 10 12  1  0  0  0  0
 11 15  1  0  0  0  0
 11 16  2  0  0  0  0
 12  9  2  0  0  0  0
 13 11  1  0  0  0  0
 14 10  1  0  0  0  0
 17 18  1  6  0  0  0
 17  8  1  0  0  0  0
 19 25  1  0  0  0  0
 19 22  1  0  0  0  0
 20 23  1  1  0  0  0
 20 21  1  0  0  0  0
 21 22  1  0  0  0  0
 22 17  1  6  0  0  0
 24 20  1  0  0  0  0
 24 19  1  0  0  0  0
 26 25  1  0  0  0  0
 28 27  1  0  0  0  0
M  END
>  <MODEL>
1

>  <REMARK>
 VINA RESULT:      -7.8      0.000      0.000
  Name = 
  5 active torsions:
  status: ('A' for Active; 'I' for Inactive)
    1  A    between atoms: C_1  and  C_11
    2  A    between atoms: C_1  and  C_27
    3  A    between atoms: C_2  and  N_3
    4  A    between atoms: N_10  and  C_13
    5  A    between atoms: C_16  and  O_21
                            x       y       z     vdW  Elec       q    Type
                         _______ _______ _______ _____ _____    ______ ____

>  <TORSDO>
F 5

$$$$
=
 OpenBabel11052423033D

 28 30  0  0  1  0  0  0  0  0999 V2000
  160.5630  202.8390  152.7520 O   0  0  0  0  0  1  0  0  0  0  0  0
  161.2110  206.3040  151.7990 N   0  0  0  0  0  0  0  0  0  0  0  0
  161.2050  205.2310  153.8860 O   0  0  0  0  0  0  0  0  0  0  0  0
  160.8490  203.7210  150.5400 C   0  0  1  0  0  3  0  0  0  0  0  0
  161.1330  206.1800  150.3730 C   0  0  0  0  0  3  0  0  0  0  0  0
  161.3000  203.7660  152.0130 C   0  0  1  0  0  3  0  0  0  0  0  0
  161.1960  205.1260  152.6290 C   0  0  0  0  0  0  0  0  0  0  0  0
  161.0060  205.0090  149.7460 C   0  0  0  0  0  0  0  0  0  0  0  0
  160.4920  207.9020  153.5330 C   0  0  0  0  0  3  0  0  0  0  0  0
  161.9630  208.6670  151.7650 C   0  0  0  0  0  0  0  0  0  0  0  0
  161.2150  210.2080  153.4780 C   0  0  0  0  0  0  0  0  0  0  0  0
  161.2310  207.6260  152.3710 C   0  0  0  0  0  0  0  0  0  0  0  0
  161.9540  209.9490  152.3220 C   0  0  0  0  0  3  0  0  0  0  0  0
  162.7060  208.4370  150.6540 F   0  0  0  0  0  0  0  0  0  0  0  0
  161.2090  211.4530  154.0140 F   0  0  0  0  0  0  0  0  0  0  0  0
  160.4850  209.1840  154.0840 C   0  0  0  0  0  3  0  0  0  0  0  0
  160.7320  205.0860  148.2670 C   0  0  1  0  0  3  0  0  0  0  0  0
  159.8080  206.2040  147.8000 C   0  0  0  0  0  1  0  0  0  0  0  0
  162.3900  205.8330  146.4530 N   0  0  0  0  0  0  0  0  0  0  0  0
  161.5190  204.3250  145.1130 C   0  0  1  0  0  3  0  0  0  0  0  0
  161.5980  203.6400  146.4580 C   0  0  0  0  0  2  0  0  0  0  0  0
  161.9550  204.7720  147.3700 C   0  0  2  0  0  3  0  0  0  0  0  0
  160.2900  204.0460  144.5170 O   0  0  0  0  0  1  0  0  0  0  0  0
  161.6390  205.7100  145.3230 O   0  0  0  0  0  0  0  0  0  0  0  0
  162.2270  207.1810  146.9830 C   0  0  0  0  0  2  0  0  0  0  0  0
  163.0810  207.3660  148.0700 O   0  0  0  0  0  1  0  0  0  0  0  0
  160.2330  201.7750  149.4960 C   0  0  0  0  0  1  0  0  0  0  0  0
  161.3280  202.5730  149.8700 O   0  0  0  0  0  0  0  0  0  0  0  0
  2 12  1  0  0  0  0
  2  7  1  0  0  0  0
  4 28  1  6  0  0  0
  4  6  1  0  0  0  0
  5  2  1  0  0  0  0
  6  7  1  0  0  0  0
  6  1  1  1  0  0  0
  7  3  2  0  0  0  0
  8  5  2  0  0  0  0
  8  4  1  0  0  0  0
  9 16  1  0  0  0  0
 10 13  2  0  0  0  0
 10 12  1  0  0  0  0
 11 15  1  0  0  0  0
 11 16  2  0  0  0  0
 12  9  2  0  0  0  0
 13 11  1  0  0  0  0
 14 10  1  0  0  0  0
 17 18  1  1  0  0  0
 17  8  1  0  0  0  0
 19 25  1  0  0  0  0
 19 22  1  0  0  0  0
 20 23  1  1  0  0  0
 20 24  1  0  0  0  0
 20 21  1  0  0  0  0
 21 22  1  0  0  0  0
 22 17  1  6  0  0  0
 24 19  1  0  0  0  0
 25 26  1  0  0  0  0
 27 28  1  0  0  0  0
M  END
>  <MODEL>
2

>  <REMARK>
 VINA RESULT:      -7.8      1.155      1.225
  Name = 
  5 active torsions:
  status: ('A' for Active; 'I' for Inactive)
    1  A    between atoms: C_1  and  C_11
    2  A    between atoms: C_1  and  C_27
    3  A    between atoms: C_2  and  N_3
    4  A    between atoms: N_10  and  C_13
    5  A    between atoms: C_16  and  O_21
                            x       y       z     vdW  Elec       q    Type
                         _______ _______ _______ _____ _____    ______ ____

>  <TORSDO>
F 5

$$$$
=
 OpenBabel11052423033D

 28 30  0  0  1  0  0  0  0  0999 V2000
  162.0100  209.1570  148.2660 O   0  0  0  0  0  1  0  0  0  0  0  0
  161.4570  206.3310  150.5110 N   0  0  0  0  0  0  0  0  0  0  0  0
  162.2310  206.4420  148.2990 O   0  0  0  0  0  0  0  0  0  0  0  0
  161.5200  209.2250  150.6130 C   0  0  1  0  0  3  0  0  0  0  0  0
  161.0820  207.0390  151.7010 C   0  0  0  0  0  3  0  0  0  0  0  0
  162.2750  208.5110  149.4750 C   0  0  1  0  0  3  0  0  0  0  0  0
  161.9560  207.0520  149.3690 C   0  0  0  0  0  0  0  0  0  0  0  0
  161.1320  208.3680  151.8090 C   0  0  0  0  0  0  0  0  0  0  0  0
  160.9230  204.2760  149.2590 C   0  0  0  0  0  3  0  0  0  0  0  0
  161.3510  204.1260  151.6400 C   0  0  0  0  0  0  0  0  0  0  0  0
  160.8030  202.1340  150.3740 C   0  0  0  0  0  0  0  0  0  0  0  0
  161.2530  204.9060  150.4700 C   0  0  0  0  0  0  0  0  0  0  0  0
  161.1290  202.7460  151.5860 C   0  0  0  0  0  3  0  0  0  0  0  0
  161.6870  204.6920  152.8260 F   0  0  0  0  0  0  0  0  0  0  0  0
  160.5890  200.7960  150.3270 F   0  0  0  0  0  0  0  0  0  0  0  0
  160.7010  202.8980  149.2100 C   0  0  0  0  0  3  0  0  0  0  0  0
  160.5070  208.9470  153.0510 C   0  0  1  0  0  3  0  0  0  0  0  0
  160.8190  208.2430  154.3650 C   0  0  0  0  0  1  0  0  0  0  0  0
  161.1130  211.1500  154.2240 N   0  0  0  0  0  0  0  0  0  0  0  0
  158.9730  211.4720  154.6040 C   0  0  1  0  0  3  0  0  0  0  0  0
  159.0320  210.9260  153.1960 C   0  0  0  0  0  2  0  0  0  0  0  0
  160.4610  210.4950  153.0830 C   0  0  2  0  0  3  0  0  0  0  0  0
  157.9340  210.8570  155.3010 O   0  0  0  0  0  1  0  0  0  0  0  0
  160.1980  211.1880  155.2330 O   0  0  0  0  0  0  0  0  0  0  0  0
  162.3090  210.4660  154.6980 C   0  0  0  0  0  2  0  0  0  0  0  0
  162.5870  210.8570  156.0080 O   0  0  0  0  0  1  0  0  0  0  0  0
  161.8390  211.3990  149.9560 C   0  0  0  0  0  1  0  0  0  0  0  0
  162.1190  210.4560  150.9610 O   0  0  0  0  0  0  0  0  0  0  0  0
  2  5  1  0  0  0  0
  3  7  2  0  0  0  0
  4 28  1  1  0  0  0
  4  8  1  0  0  0  0
  5  8  2  0  0  0  0
  6  1  1  6  0  0  0
  6  4  1  0  0  0  0
  7  6  1  0  0  0  0
  7  2  1  0  0  0  0
  8 17  1  0  0  0  0
  9 12  1  0  0  0  0
 10 14  1  0  0  0  0
 11 13  2  0  0  0  0
 12  2  1  0  0  0  0
 12 10  2  0  0  0  0
 13 10  1  0  0  0  0
 15 11  1  0  0  0  0
 16  9  2  0  0  0  0
 16 11  1  0  0  0  0
 17 18  1  1  0  0  0
 19 25  1  0  0  0  0
 19 24  1  0  0  0  0
 20 24  1  0  0  0  0
 20 23  1  1  0  0  0
 21 20  1  0  0  0  0
 22 17  1  1  0  0  0
 22 21  1  0  0  0  0
 22 19  1  0  0  0  0
 25 26  1  0  0  0  0
 27 28  1  0  0  0  0
M  END
>  <MODEL>
3

>  <REMARK>
 VINA RESULT:      -7.7      3.483      8.293
  Name = 
  5 active torsions:
  status: ('A' for Active; 'I' for Inactive)
    1  A    between atoms: C_1  and  C_11
    2  A    between atoms: C_1  and  C_27
    3  A    between atoms: C_2  and  N_3
    4  A    between atoms: N_10  and  C_13
    5  A    between atoms: C_16  and  O_21
                            x       y       z     vdW  Elec       q    Type
                         _______ _______ _______ _____ _____    ______ ____

>  <TORSDO>
F 5

$$$$
=
 OpenBabel11052423033D

 28 30  0  0  1  0  0  0  0  0999 V2000
  160.5100  206.7780  145.4860 O   0  0  0  0  0  1  0  0  0  0  0  0
  161.0420  203.4500  146.8910 N   0  0  0  0  0  0  0  0  0  0  0  0
  161.0600  204.2350  144.6800 O   0  0  0  0  0  0  0  0  0  0  0  0
  160.7800  206.1890  147.7950 C   0  0  1  0  0  3  0  0  0  0  0  0
  160.9780  203.7660  148.2880 C   0  0  0  0  0  3  0  0  0  0  0  0
  161.2190  205.9320  146.3410 C   0  0  1  0  0  3  0  0  0  0  0  0
  161.0630  204.5060  145.9120 C   0  0  0  0  0  0  0  0  0  0  0  0
  160.8960  205.0140  148.7540 C   0  0  0  0  0  0  0  0  0  0  0  0
  160.4560  201.6920  145.2660 C   0  0  0  0  0  3  0  0  0  0  0  0
  161.5090  201.0590  147.3560 C   0  0  0  0  0  0  0  0  0  0  0  0
  160.8970  199.3620  145.7380 C   0  0  0  0  0  0  0  0  0  0  0  0
  161.0120  202.0640  146.5010 C   0  0  0  0  0  0  0  0  0  0  0  0
  161.4520  199.7160  146.9700 C   0  0  0  0  0  3  0  0  0  0  0  0
  162.0720  201.3780  148.5480 F   0  0  0  0  0  0  0  0  0  0  0  0
  160.8440  198.0590  145.3690 F   0  0  0  0  0  0  0  0  0  0  0  0
  160.4000  200.3500  144.8860 C   0  0  0  0  0  3  0  0  0  0  0  0
  160.6290  205.1450  150.2310 C   0  0  1  0  0  3  0  0  0  0  0  0
  159.4460  204.3600  150.7840 C   0  0  0  0  0  1  0  0  0  0  0  0
  161.9070  204.3600  152.3150 N   0  0  0  0  0  0  0  0  0  0  0  0
  161.7470  206.4000  153.1150 C   0  0  1  0  0  3  0  0  0  0  0  0
  162.0520  206.5880  151.6470 C   0  0  0  0  0  2  0  0  0  0  0  0
  161.9020  205.1990  151.1110 C   0  0  2  0  0  3  0  0  0  0  0  0
  160.7480  207.2910  153.5040 O   0  0  0  0  0  1  0  0  0  0  0  0
  161.3000  205.0800  153.3010 O   0  0  0  0  0  0  0  0  0  0  0  0
  161.2060  203.0910  152.1590 C   0  0  0  0  0  2  0  0  0  0  0  0
  162.0750  202.1340  151.6360 O   0  0  0  0  0  1  0  0  0  0  0  0
  162.7040  207.3730  148.1890 C   0  0  0  0  0  1  0  0  0  0  0  0
  161.3030  207.3980  148.3050 O   0  0  0  0  0  0  0  0  0  0  0  0
  2  5  1  0  0  0  0
  3  7  2  0  0  0  0
  4 28  1  1  0  0  0
  4  8  1  0  0  0  0
  5  8  2  0  0  0  0
  6  1  1  6  0  0  0
  6  4  1  0  0  0  0
  7  6  1  0  0  0  0
  7  2  1  0  0  0  0
  8 17  1  0  0  0  0
  9 12  1  0  0  0  0
 10 14  1  0  0  0  0
 11 13  2  0  0  0  0
 12  2  1  0  0  0  0
 12 10  2  0  0  0  0
 13 10  1  0  0  0  0
 15 11  1  0  0  0  0
 16  9  2  0  0  0  0
 16 11  1  0  0  0  0
 17 18  1  1  0  0  0
 19 24  1  0  0  0  0
 20 24  1  0  0  0  0
 20 23  1  6  0  0  0
 21 20  1  0  0  0  0
 22 17  1  1  0  0  0
 22 21  1  0  0  0  0
 22 19  1  0  0  0  0
 25 19  1  0  0  0  0
 26 25  1  0  0  0  0
 27 28  1  0  0  0  0
M  END
>  <MODEL>
4

>  <REMARK>
 VINA RESULT:      -7.1      3.082      7.963
  Name = 
  5 active torsions:
  status: ('A' for Active; 'I' for Inactive)
    1  A    between atoms: C_1  and  C_11
    2  A    between atoms: C_1  and  C_27
    3  A    between atoms: C_2  and  N_3
    4  A    between atoms: N_10  and  C_13
    5  A    between atoms: C_16  and  O_21
                            x       y       z     vdW  Elec       q    Type
                         _______ _______ _______ _____ _____    ______ ____

>  <TORSDO>
F 5

$$$$
=
 OpenBabel11052423033D

 28 30  0  0  1  0  0  0  0  0999 V2000
  161.1290  201.5060  150.6520 O   0  0  0  0  0  1  0  0  0  0  0  0
  161.0640  204.3840  148.4060 N   0  0  0  0  0  0  0  0  0  0  0  0
  160.7420  202.0920  148.0200 O   0  0  0  0  0  0  0  0  0  0  0  0
  161.1580  203.8280  151.2470 C   0  0  1  0  0  3  0  0  0  0  0  0
  161.2430  205.4380  149.3610 C   0  0  0  0  0  3  0  0  0  0  0  0
  160.5960  202.7480  150.3030 C   0  0  1  0  0  3  0  0  0  0  0  0
  160.8410  203.0330  148.8540 C   0  0  0  0  0  0  0  0  0  0  0  0
  161.2540  205.2370  150.6800 C   0  0  0  0  0  0  0  0  0  0  0  0
  162.0100  203.9240  146.1770 C   0  0  0  0  0  3  0  0  0  0  0  0
  160.5070  205.8050  146.4520 C   0  0  0  0  0  0  0  0  0  0  0  0
  161.4760  205.3280  144.2820 C   0  0  0  0  0  0  0  0  0  0  0  0
  161.1850  204.7010  147.0060 C   0  0  0  0  0  0  0  0  0  0  0  0
  160.6520  206.1110  145.0950 C   0  0  0  0  0  3  0  0  0  0  0  0
  159.6850  206.5690  147.2140 F   0  0  0  0  0  0  0  0  0  0  0  0
  161.6140  205.6300  142.9680 F   0  0  0  0  0  0  0  0  0  0  0  0
  162.1540  204.2340  144.8230 C   0  0  0  0  0  3  0  0  0  0  0  0
  161.6600  206.4210  151.5190 C   0  0  1  0  0  3  0  0  0  0  0  0
  163.1560  206.6450  151.7070 C   0  0  0  0  0  1  0  0  0  0  0  0
  161.3820  208.7770  150.5360 N   0  0  0  0  0  0  0  0  0  0  0  0
  161.3450  209.5680  152.5850 C   0  0  1  0  0  3  0  0  0  0  0  0
  160.5230  208.3020  152.6500 C   0  0  0  0  0  2  0  0  0  0  0  0
  160.7870  207.6830  151.3130 C   0  0  2  0  0  3  0  0  0  0  0  0
  162.1900  209.6350  153.6910 O   0  0  0  0  0  1  0  0  0  0  0  0
  162.1110  209.5290  151.4070 O   0  0  0  0  0  0  0  0  0  0  0  0
  162.2510  208.3330  149.4540 C   0  0  0  0  0  2  0  0  0  0  0  0
  161.7540  208.7880  148.2330 O   0  0  0  0  0  1  0  0  0  0  0  0
  161.1890  204.7330  153.3540 C   0  0  0  0  0  1  0  0  0  0  0  0
  160.5790  203.7670  152.5340 O   0  0  0  0  0  0  0  0  0  0  0  0
  2  7  1  0  0  0  0
  2  5  1  0  0  0  0
  3  7  2  0  0  0  0
  4 28  1  1  0  0  0
  5  8  2  0  0  0  0
  6  1  1  1  0  0  0
  6  4  1  0  0  0  0
  7  6  1  0  0  0  0
  8  4  1  0  0  0  0
  8 17  1  0  0  0  0
  9 12  1  0  0  0  0
 10 12  2  0  0  0  0
 10 14  1  0  0  0  0
 11 16  1  0  0  0  0
 11 13  2  0  0  0  0
 12  2  1  0  0  0  0
 13 10  1  0  0  0  0
 15 11  1  0  0  0  0
 16  9  2  0  0  0  0
 17 18  1  6  0  0  0
 19 22  1  0  0  0  0
 19 24  1  0  0  0  0
 20 21  1  0  0  0  0
 20 23  1  1  0  0  0
 22 17  1  1  0  0  0
 22 21  1  0  0  0  0
 24 20  1  0  0  0  0
 25 19  1  0  0  0  0
 26 25  1  0  0  0  0
 28 27  1  0  0  0  0
M  END
>  <MODEL>
5

>  <REMARK>
 VINA RESULT:      -7.1      2.595      6.504
  Name = 
  5 active torsions:
  status: ('A' for Active; 'I' for Inactive)
    1  A    between atoms: C_1  and  C_11
    2  A    between atoms: C_1  and  C_27
    3  A    between atoms: C_2  and  N_3
    4  A    between atoms: N_10  and  C_13
    5  A    between atoms: C_16  and  O_21
                            x       y       z     vdW  Elec       q    Type
                         _______ _______ _______ _____ _____    ______ ____

>  <TORSDO>
F 5

$$$$
=
 OpenBabel11052423033D

 28 30  0  0  1  0  0  0  0  0999 V2000
  161.4490  203.5060  151.6710 O   0  0  0  0  0  1  0  0  0  0  0  0
  161.1260  205.8150  148.8620 N   0  0  0  0  0  0  0  0  0  0  0  0
  160.9780  203.4770  148.9880 O   0  0  0  0  0  0  0  0  0  0  0  0
  161.3060  205.8980  151.7510 C   0  0  1  0  0  3  0  0  0  0  0  0
  161.2360  207.0620  149.5610 C   0  0  0  0  0  3  0  0  0  0  0  0
  160.8160  204.6010  151.0800 C   0  0  1  0  0  3  0  0  0  0  0  0
  161.0160  204.5820  149.5970 C   0  0  0  0  0  0  0  0  0  0  0  0
  161.2830  207.1540  150.8910 C   0  0  0  0  0  0  0  0  0  0  0  0
  160.0810  206.2060  146.6630 C   0  0  0  0  0  3  0  0  0  0  0  0
  162.3790  205.4400  146.7550 C   0  0  0  0  0  0  0  0  0  0  0  0
  161.3050  205.8180  144.6150 C   0  0  0  0  0  0  0  0  0  0  0  0
  161.2000  205.8290  147.4230 C   0  0  0  0  0  0  0  0  0  0  0  0
  162.4260  205.4400  145.3570 C   0  0  0  0  0  3  0  0  0  0  0  0
  163.4880  205.0880  147.4510 F   0  0  0  0  0  0  0  0  0  0  0  0
  161.3570  205.8150  143.2610 F   0  0  0  0  0  0  0  0  0  0  0  0
  160.1330  206.2020  145.2680 C   0  0  0  0  0  3  0  0  0  0  0  0
  161.6080  208.5170  151.4420 C   0  0  1  0  0  3  0  0  0  0  0  0
  162.4390  209.4340  150.5530 C   0  0  0  0  0  1  0  0  0  0  0  0
  160.4040  210.6450  152.2300 N   0  0  0  0  0  0  0  0  0  0  0  0
  161.0270  210.1710  154.2830 C   0  0  1  0  0  3  0  0  0  0  0  0
  160.6280  208.8400  153.6890 C   0  0  0  0  0  2  0  0  0  0  0  0
  160.4570  209.1780  152.2410 C   0  0  2  0  0  3  0  0  0  0  0  0
  162.2110  210.0260  155.0050 O   0  0  0  0  0  1  0  0  0  0  0  0
  161.2270  211.0770  153.2270 O   0  0  0  0  0  0  0  0  0  0  0  0
  160.8300  211.2460  150.9730 C   0  0  0  0  0  2  0  0  0  0  0  0
  160.3100  212.5360  150.8680 O   0  0  0  0  0  1  0  0  0  0  0  0
  161.7790  205.9690  153.9930 C   0  0  0  0  0  1  0  0  0  0  0  0
  160.7530  206.0760  153.0390 O   0  0  0  0  0  0  0  0  0  0  0  0
  2  5  1  0  0  0  0
  2  7  1  0  0  0  0
  3  7  2  0  0  0  0
  4 28  1  1  0  0  0
  5  8  2  0  0  0  0
  6  1  1  1  0  0  0
  6  4  1  0  0  0  0
  7  6  1  0  0  0  0
  8 17  1  0  0  0  0
  8  4  1  0  0  0  0
  9 12  1  0  0  0  0
 10 12  2  0  0  0  0
 10 14  1  0  0  0  0
 11 16  1  0  0  0  0
 11 13  2  0  0  0  0
 12  2  1  0  0  0  0
 13 10  1  0  0  0  0
 15 11  1  0  0  0  0
 16  9  2  0  0  0  0
 17 18  1  6  0  0  0
 19 22  1  0  0  0  0
 19 24  1  0  0  0  0
 20 23  1  6  0  0  0
 21 20  1  0  0  0  0
 22 17  1  6  0  0  0
 22 21  1  0  0  0  0
 24 20  1  0  0  0  0
 25 19  1  0  0  0  0
 26 25  1  0  0  0  0
 28 27  1  0  0  0  0
M  END
>  <MODEL>
6

>  <REMARK>
 VINA RESULT:      -7.0      2.953      7.146
  Name = 
  5 active torsions:
  status: ('A' for Active; 'I' for Inactive)
    1  A    between atoms: C_1  and  C_11
    2  A    between atoms: C_1  and  C_27
    3  A    between atoms: C_2  and  N_3
    4  A    between atoms: N_10  and  C_13
    5  A    between atoms: C_16  and  O_21
                            x       y       z     vdW  Elec       q    Type
                         _______ _______ _______ _____ _____    ______ ____

>  <TORSDO>
F 5

$$$$
=
 OpenBabel11052423033D

 28 30  0  0  1  0  0  0  0  0999 V2000
  161.7750  207.7120  155.8620 O   0  0  0  0  0  1  0  0  0  0  0  0
  160.8350  208.3570  152.3930 N   0  0  0  0  0  0  0  0  0  0  0  0
  161.9090  206.5350  153.4090 O   0  0  0  0  0  0  0  0  0  0  0  0
  160.3910  209.4830  155.0240 C   0  0  1  0  0  3  0  0  0  0  0  0
  160.1430  209.6020  152.5590 C   0  0  0  0  0  3  0  0  0  0  0  0
  160.7890  207.9980  154.9160 C   0  0  1  0  0  3  0  0  0  0  0  0
  161.2470  207.6010  153.5470 C   0  0  0  0  0  0  0  0  0  0  0  0
  159.8800  210.1410  153.7510 C   0  0  0  0  0  0  0  0  0  0  0  0
  160.7550  206.6660  150.6020 C   0  0  0  0  0  3  0  0  0  0  0  0
  161.9210  208.7530  150.1990 C   0  0  0  0  0  0  0  0  0  0  0  0
  161.8340  207.0540  148.4730 C   0  0  0  0  0  0  0  0  0  0  0  0
  161.1640  207.9300  151.0570 C   0  0  0  0  0  0  0  0  0  0  0  0
  162.2480  208.3130  148.9120 C   0  0  0  0  0  3  0  0  0  0  0  0
  162.3180  209.9880  150.5930 F   0  0  0  0  0  0  0  0  0  0  0  0
  162.1550  206.6330  147.2260 F   0  0  0  0  0  0  0  0  0  0  0  0
  161.0860  206.2310  149.3170 C   0  0  0  0  0  3  0  0  0  0  0  0
  159.3330  211.5440  153.7290 C   0  0  1  0  0  3  0  0  0  0  0  0
  160.0810  212.5560  152.8690 C   0  0  0  0  0  1  0  0  0  0  0  0
  157.2020  212.9710  153.6050 N   0  0  0  0  0  0  0  0  0  0  0  0
  156.7640  212.3990  155.6810 C   0  0  1  0  0  3  0  0  0  0  0  0
  157.2750  211.1320  155.0360 C   0  0  0  0  0  2  0  0  0  0  0  0
  157.7870  211.6300  153.7200 C   0  0  2  0  0  3  0  0  0  0  0  0
  157.3350  212.5450  156.9440 O   0  0  0  0  0  1  0  0  0  0  0  0
  157.1370  213.4830  154.8660 O   0  0  0  0  0  0  0  0  0  0  0  0
  157.9670  213.8840  152.7650 C   0  0  0  0  0  2  0  0  0  0  0  0
  157.2160  214.2320  151.6420 O   0  0  0  0  0  1  0  0  0  0  0  0
  160.3240  210.5360  157.0600 C   0  0  0  0  0  1  0  0  0  0  0  0
  159.5930  209.7400  156.1620 O   0  0  0  0  0  0  0  0  0  0  0  0
  2  5  1  0  0  0  0
  2  7  1  0  0  0  0
  3  7  2  0  0  0  0
  4 28  1  1  0  0  0
  5  8  2  0  0  0  0
  6  4  1  0  0  0  0
  6  1  1  1  0  0  0
  7  6  1  0  0  0  0
  8  4  1  0  0  0  0
  9 12  1  0  0  0  0
 10 14  1  0  0  0  0
 10 12  2  0  0  0  0
 11 13  2  0  0  0  0
 11 16  1  0  0  0  0
 12  2  1  0  0  0  0
 13 10  1  0  0  0  0
 15 11  1  0  0  0  0
 16  9  2  0  0  0  0
 17 18  1  6  0  0  0
 17  8  1  0  0  0  0
 19 22  1  0  0  0  0
 19 24  1  0  0  0  0
 20 23  1  1  0  0  0
 21 20  1  0  0  0  0
 22 17  1  1  0  0  0
 22 21  1  0  0  0  0
 24 20  1  0  0  0  0
 25 19  1  0  0  0  0
 26 25  1  0  0  0  0
 28 27  1  0  0  0  0
M  END
>  <MODEL>
7

>  <REMARK>
 VINA RESULT:      -6.9      4.323      8.739
  Name = 
  5 active torsions:
  status: ('A' for Active; 'I' for Inactive)
    1  A    between atoms: C_1  and  C_11
    2  A    between atoms: C_1  and  C_27
    3  A    between atoms: C_2  and  N_3
    4  A    between atoms: N_10  and  C_13
    5  A    between atoms: C_16  and  O_21
                            x       y       z     vdW  Elec       q    Type
                         _______ _______ _______ _____ _____    ______ ____

>  <TORSDO>
F 5

$$$$
=
 OpenBabel11052423033D

 28 30  0  0  1  0  0  0  0  0999 V2000
  161.5970  203.0870  151.2640 O   0  0  0  0  0  1  0  0  0  0  0  0
  161.0790  205.3710  148.4630 N   0  0  0  0  0  0  0  0  0  0  0  0
  161.2720  203.0350  148.5610 O   0  0  0  0  0  0  0  0  0  0  0  0
  161.0980  205.4310  151.3580 C   0  0  1  0  0  3  0  0  0  0  0  0
  160.9680  206.6090  149.1790 C   0  0  0  0  0  3  0  0  0  0  0  0
  160.8390  204.0870  150.6510 C   0  0  1  0  0  3  0  0  0  0  0  0
  161.1150  204.1230  149.1800 C   0  0  0  0  0  0  0  0  0  0  0  0
  160.9330  206.6840  150.5110 C   0  0  0  0  0  0  0  0  0  0  0  0
  160.1460  205.8290  146.2280 C   0  0  0  0  0  3  0  0  0  0  0  0
  162.4280  205.0340  146.4100 C   0  0  0  0  0  0  0  0  0  0  0  0
  161.4640  205.4780  144.2320 C   0  0  0  0  0  0  0  0  0  0  0  0
  161.2230  205.4200  147.0310 C   0  0  0  0  0  0  0  0  0  0  0  0
  162.5440  205.0680  145.0170 C   0  0  0  0  0  3  0  0  0  0  0  0
  163.4990  204.6520  147.1500 F   0  0  0  0  0  0  0  0  0  0  0  0
  161.5810  205.5080  142.8820 F   0  0  0  0  0  0  0  0  0  0  0  0
  160.2660  205.8600  144.8370 C   0  0  0  0  0  3  0  0  0  0  0  0
  161.0250  208.0710  151.0910 C   0  0  1  0  0  3  0  0  0  0  0  0
  160.4560  208.2650  152.4910 C   0  0  0  0  0  1  0  0  0  0  0  0
  162.4650  210.1890  151.2720 N   0  0  0  0  0  0  0  0  0  0  0  0
  162.2320  210.4670  149.1050 C   0  0  1  0  0  3  0  0  0  0  0  0
  162.4390  208.9810  149.2780 C   0  0  0  0  0  2  0  0  0  0  0  0
  162.3410  208.8180  150.7630 C   0  0  2  0  0  3  0  0  0  0  0  0
  161.2060  210.6930  148.1880 O   0  0  0  0  0  1  0  0  0  0  0  0
  161.8750  211.0060  150.3540 O   0  0  0  0  0  0  0  0  0  0  0  0
  161.8330  210.4020  152.5680 C   0  0  0  0  0  2  0  0  0  0  0  0
  160.8900  211.4250  152.4690 O   0  0  0  0  0  1  0  0  0  0  0  0
  161.4380  205.4530  153.6260 C   0  0  0  0  0  1  0  0  0  0  0  0
  160.4600  205.5040  152.6170 O   0  0  0  0  0  0  0  0  0  0  0  0
  2  5  1  0  0  0  0
  2  7  1  0  0  0  0
  3  7  2  0  0  0  0
  4 28  1  1  0  0  0
  5  8  2  0  0  0  0
  6  1  1  1  0  0  0
  6  4  1  0  0  0  0
  7  6  1  0  0  0  0
  8 17  1  0  0  0  0
  8  4  1  0  0  0  0
  9 12  1  0  0  0  0
 10 12  2  0  0  0  0
 10 14  1  0  0  0  0
 11 16  1  0  0  0  0
 11 13  2  0  0  0  0
 12  2  1  0  0  0  0
 13 10  1  0  0  0  0
 15 11  1  0  0  0  0
 16  9  2  0  0  0  0
 17 18  1  1  0  0  0
 19 25  1  0  0  0  0
 20 23  1  6  0  0  0
 20 21  1  0  0  0  0
 20 24  1  0  0  0  0
 21 22  1  0  0  0  0
 22 17  1  6  0  0  0
 22 19  1  0  0  0  0
 24 19  1  0  0  0  0
 26 25  1  0  0  0  0
 28 27  1  0  0  0  0
M  END
>  <MODEL>
8

>  <REMARK>
 VINA RESULT:      -6.6      3.027      6.630
  Name = 
  5 active torsions:
  status: ('A' for Active; 'I' for Inactive)
    1  A    between atoms: C_1  and  C_11
    2  A    between atoms: C_1  and  C_27
    3  A    between atoms: C_2  and  N_3
    4  A    between atoms: N_10  and  C_13
    5  A    between atoms: C_16  and  O_21
                            x       y       z     vdW  Elec       q    Type
                         _______ _______ _______ _____ _____    ______ ____

>  <TORSDO>
F 5

$$$$
=
 OpenBabel11052423033D

 28 30  0  0  1  0  0  0  0  0999 V2000
  161.4770  211.8510  156.9420 O   0  0  0  0  0  1  0  0  0  0  0  0
  160.4430  210.1510  153.8810 N   0  0  0  0  0  0  0  0  0  0  0  0
  162.3260  209.8870  155.2560 O   0  0  0  0  0  0  0  0  0  0  0  0
  159.3630  212.0090  155.8220 C   0  0  1  0  0  3  0  0  0  0  0  0
  159.1650  210.7690  153.6820 C   0  0  0  0  0  3  0  0  0  0  0  0
  160.5310  211.0980  156.2450 C   0  0  1  0  0  3  0  0  0  0  0  0
  161.1750  210.3800  155.1000 C   0  0  0  0  0  0  0  0  0  0  0  0
  158.6090  211.6010  154.5640 C   0  0  0  0  0  0  0  0  0  0  0  0
  161.5670  209.9940  151.6920 C   0  0  0  0  0  3  0  0  0  0  0  0
  160.9490  207.9540  152.8470 C   0  0  0  0  0  0  0  0  0  0  0  0
  162.0380  207.8470  150.6840 C   0  0  0  0  0  0  0  0  0  0  0  0
  160.9960  209.3620  152.8090 C   0  0  0  0  0  0  0  0  0  0  0  0
  161.4720  207.2050  151.7880 C   0  0  0  0  0  3  0  0  0  0  0  0
  160.4250  207.3050  153.9160 F   0  0  0  0  0  0  0  0  0  0  0  0
  162.5420  207.1170  149.6610 F   0  0  0  0  0  0  0  0  0  0  0  0
  162.0860  209.2420  150.6370 C   0  0  0  0  0  3  0  0  0  0  0  0
  157.3670  212.3150  154.0980 C   0  0  1  0  0  3  0  0  0  0  0  0
  156.0670  211.9590  154.8080 C   0  0  0  0  0  1  0  0  0  0  0  0
  156.7030  214.3690  152.7080 N   0  0  0  0  0  0  0  0  0  0  0  0
  158.6590  214.2600  151.7140 C   0  0  1  0  0  3  0  0  0  0  0  0
  158.9530  213.9670  153.1660 C   0  0  0  0  0  2  0  0  0  0  0  0
  157.5810  213.8070  153.7420 C   0  0  2  0  0  3  0  0  0  0  0  0
  159.3690  213.3750  150.9040 O   0  0  0  0  0  1  0  0  0  0  0  0
  157.2800  214.0890  151.5050 O   0  0  0  0  0  0  0  0  0  0  0  0
  155.3490  213.8300  152.7190 C   0  0  0  0  0  2  0  0  0  0  0  0
  154.8230  213.8520  151.4280 O   0  0  0  0  0  1  0  0  0  0  0  0
  158.7170  213.6970  157.2330 C   0  0  0  0  0  1  0  0  0  0  0  0
  158.5240  212.3420  156.9090 O   0  0  0  0  0  0  0  0  0  0  0  0
  2  7  1  0  0  0  0
  4  6  1  0  0  0  0
  4 28  1  1  0  0  0
  5  2  1  0  0  0  0
  5  8  2  0  0  0  0
  6  1  1  6  0  0  0
  7  3  2  0  0  0  0
  7  6  1  0  0  0  0
  8  4  1  0  0  0  0
  9 12  1  0  0  0  0
 10 14  1  0  0  0  0
 11 13  2  0  0  0  0
 12 10  2  0  0  0  0
 12  2  1  0  0  0  0
 13 10  1  0  0  0  0
 15 11  1  0  0  0  0
 16 11  1  0  0  0  0
 16  9  2  0  0  0  0
 17  8  1  0  0  0  0
 17 18  1  1  0  0  0
 19 25  1  0  0  0  0
 19 22  1  0  0  0  0
 20 23  1  6  0  0  0
 20 21  1  0  0  0  0
 21 22  1  0  0  0  0
 22 17  1  6  0  0  0
 24 20  1  0  0  0  0
 24 19  1  0  0  0  0
 26 25  1  0  0  0  0
 28 27  1  0  0  0  0
M  END
>  <MODEL>
9

>  <REMARK>
 VINA RESULT:      -6.6      5.950      9.506
  Name = 
  5 active torsions:
  status: ('A' for Active; 'I' for Inactive)
    1  A    between atoms: C_1  and  C_11
    2  A    between atoms: C_1  and  C_27
    3  A    between atoms: C_2  and  N_3
    4  A    between atoms: N_10  and  C_13
    5  A    between atoms: C_16  and  O_21
                            x       y       z     vdW  Elec       q    Type
                         _______ _______ _______ _____ _____    ______ ____

>  <TORSDO>
F 5

$$$$
