=
 OpenBabel11062409303D

 34 38  0  0  1  0  0  0  0  0999 V2000
  159.9940  210.2400  153.0630 C   0  0  0  0  0  0  0  0  0  0  0  0
  157.9070  213.1580  154.4200 C   0  0  0  0  0  2  0  0  0  0  0  0
  159.1250  211.2900  155.5290 C   0  0  0  0  0  3  0  0  0  0  0  0
  160.4500  209.7240  151.8550 O   0  0  0  0  0  1  0  0  0  0  0  0
  161.2080  208.4360  154.4710 C   0  0  2  0  0  3  0  0  0  0  0  0
  161.4340  208.4030  155.9890 C   0  0  0  0  0  3  0  0  0  0  0  0
  159.9370  210.1600  155.4720 C   0  0  0  0  0  0  0  0  0  0  0  0
  160.3510  209.6350  154.2750 C   0  0  0  0  0  0  0  0  0  0  0  0
  160.4760  209.4180  156.6280 C   0  0  0  0  0  3  0  0  0  0  0  0
  157.2060  213.4930  153.1050 C   0  0  0  0  0  2  0  0  0  0  0  0
  158.1740  213.4110  151.9230 C   0  0  2  0  0  3  0  0  0  0  0  0
  158.7180  211.8980  154.3330 C   0  0  0  0  0  0  0  0  0  0  0  0
  158.7150  211.9880  151.7830 C   0  0  0  0  0  2  0  0  0  0  0  0
  159.1730  211.3860  153.0880 C   0  0  0  0  0  0  0  0  0  0  0  0
  160.4640  207.1680  154.0690 C   0  0  0  0  0  2  0  0  0  0  0  0
  161.4180  205.9970  153.8780 C   0  0  0  0  0  2  0  0  0  0  0  0
  161.0700  203.4920  152.5330 O   0  0  0  0  0  0  0  0  0  0  0  0
  161.4450  206.9690  150.3330 C   0  0  0  0  0  2  0  0  0  0  0  0
  161.0950  203.1840  148.2930 C   0  0  0  0  0  0  0  0  0  0  0  0
  161.1370  203.2270  149.6950 C   0  0  0  0  0  3  0  0  0  0  0  0
  161.2760  204.4480  150.3660 C   0  0  0  0  0  0  0  0  0  0  0  0
  161.6710  205.7590  152.4630 N   0  0  0  0  0  0  0  0  0  0  0  0
  161.3230  205.6050  148.2340 C   0  0  0  0  0  3  0  0  0  0  0  0
  161.3780  205.6430  149.6290 C   0  0  0  0  0  0  0  0  0  0  0  0
  161.1890  204.3840  147.5700 C   0  0  0  0  0  3  0  0  0  0  0  0
  162.2110  206.8470  151.6510 C   0  0  0  0  0  2  0  0  0  0  0  0
  161.3330  204.5100  151.8360 C   0  0  0  0  0  0  0  0  0  0  0  0
  160.5650  201.8590  146.3960 O   0  0  0  0  0  0  0  0  0  0  0  0
  160.9520  201.8920  147.5950 C   0  0  0  0  0  0  0  0  0  0  0  0
  161.2580  200.6060  148.2850 C   0  0  0  0  0  1  0  0  0  0  0  0
  159.3200  214.4160  152.0290 C   0  0  0  0  0  2  0  0  0  0  0  0
  160.1500  214.4520  150.7520 C   0  0  0  0  0  2  0  0  0  0  0  0
  159.2740  214.3910  149.5120 C   0  0  0  0  0  2  0  0  0  0  0  0
  159.8370  213.3960  148.5130 C   0  0  0  0  0  1  0  0  0  0  0  0
  1 14  2  0  0  0  0
  1  8  1  0  0  0  0
  4  1  1  0  0  0  0
  5 15  1  1  0  0  0
  5  6  1  0  0  0  0
  6  9  2  0  0  0  0
  7  3  1  0  0  0  0
  7  9  1  0  0  0  0
  8  5  1  0  0  0  0
  8  7  2  0  0  0  0
 10  2  1  0  0  0  0
 11 31  1  1  0  0  0
 11 10  1  0  0  0  0
 12  2  1  0  0  0  0
 12  3  2  0  0  0  0
 13 11  1  0  0  0  0
 13 14  1  0  0  0  0
 14 12  1  0  0  0  0
 16 15  1  0  0  0  0
 18 26  1  0  0  0  0
 19 20  1  0  0  0  0
 20 21  2  0  0  0  0
 21 27  1  0  0  0  0
 22 16  1  0  0  0  0
 23 24  2  0  0  0  0
 24 18  1  0  0  0  0
 24 21  1  0  0  0  0
 25 23  1  0  0  0  0
 25 19  2  0  0  0  0
 26 22  1  0  0  0  0
 27 22  1  0  0  0  0
 27 17  2  0  0  0  0
 28 29  2  0  0  0  0
 29 30  1  0  0  0  0
 29 19  1  0  0  0  0
 32 31  1  0  0  0  0
 33 32  1  0  0  0  0
 34 33  1  0  0  0  0
M  END
>  <MODEL>
1

>  <REMARK>
 VINA RESULT:      -8.6      0.000      0.000
  Name = 
  7 active torsions:
  status: ('A' for Active; 'I' for Inactive)
    1  A    between atoms: C_3  and  C_24
    2  A    between atoms: C_7  and  C_15
    3  A    between atoms: C_8  and  C_17
    4  A    between atoms: C_8  and  N_18
    5  A    between atoms: C_10  and  C_17
    6  A    between atoms: C_24  and  C_25
    7  A    between atoms: C_25  and  C_27
                            x       y       z     vdW  Elec       q    Type
                         _______ _______ _______ _____ _____    ______ ____

>  <TORSDO>
F 7

$$$$
=
 OpenBabel11062409303D

 34 38  0  0  1  0  0  0  0  0999 V2000
  159.9760  210.1910  153.2540 C   0  0  0  0  0  0  0  0  0  0  0  0
  157.6440  212.8470  154.7430 C   0  0  0  0  0  2  0  0  0  0  0  0
  158.9990  211.0240  155.7630 C   0  0  0  0  0  3  0  0  0  0  0  0
  160.4860  209.7850  152.0260 O   0  0  0  0  0  1  0  0  0  0  0  0
  161.3190  208.4130  154.5760 C   0  0  2  0  0  3  0  0  0  0  0  0
  161.5310  208.3110  156.0930 C   0  0  0  0  0  3  0  0  0  0  0  0
  159.9010  209.9680  155.6540 C   0  0  0  0  0  0  0  0  0  0  0  0
  160.3690  209.5480  154.4350 C   0  0  0  0  0  0  0  0  0  0  0  0
  160.4870  209.2060  156.7730 C   0  0  0  0  0  3  0  0  0  0  0  0
  156.9320  213.2010  153.4390 C   0  0  0  0  0  2  0  0  0  0  0  0
  157.9160  213.2650  152.2690 C   0  0  2  0  0  3  0  0  0  0  0  0
  158.5560  211.6640  154.5980 C   0  0  0  0  0  0  0  0  0  0  0  0
  158.5720  211.9020  152.0570 C   0  0  0  0  0  2  0  0  0  0  0  0
  159.0640  211.2630  153.3320 C   0  0  0  0  0  0  0  0  0  0  0  0
  160.6850  207.1140  154.0920 C   0  0  0  0  0  2  0  0  0  0  0  0
  161.7380  206.1210  153.6200 C   0  0  0  0  0  2  0  0  0  0  0  0
  161.8020  207.1870  150.9620 O   0  0  0  0  0  0  0  0  0  0  0  0
  161.2870  203.1280  151.5330 C   0  0  0  0  0  2  0  0  0  0  0  0
  161.2080  204.7440  147.5340 C   0  0  0  0  0  0  0  0  0  0  0  0
  161.3520  205.6000  148.6370 C   0  0  0  0  0  3  0  0  0  0  0  0
  161.3530  205.0890  149.9400 C   0  0  0  0  0  0  0  0  0  0  0  0
  161.2920  205.4220  152.4210 N   0  0  0  0  0  0  0  0  0  0  0  0
  161.0760  202.8480  149.0510 C   0  0  0  0  0  3  0  0  0  0  0  0
  161.2060  203.7040  150.1470 C   0  0  0  0  0  0  0  0  0  0  0  0
  161.0710  203.3650  147.7540 C   0  0  0  0  0  3  0  0  0  0  0  0
  160.6960  204.0950  152.5590 C   0  0  0  0  0  2  0  0  0  0  0  0
  161.4920  205.9730  151.1080 C   0  0  0  0  0  0  0  0  0  0  0  0
  160.6770  206.4140  145.9330 O   0  0  0  0  0  0  0  0  0  0  0  0
  161.2050  205.2940  146.1650 C   0  0  0  0  0  0  0  0  0  0  0  0
  161.8200  204.5430  145.0320 C   0  0  0  0  0  1  0  0  0  0  0  0
  158.9750  214.3520  152.4500 C   0  0  0  0  0  2  0  0  0  0  0  0
  159.8830  214.4530  151.2310 C   0  0  0  0  0  2  0  0  0  0  0  0
  159.0870  214.4530  149.9360 C   0  0  0  0  0  2  0  0  0  0  0  0
  159.9400  213.9480  148.7880 C   0  0  0  0  0  1  0  0  0  0  0  0
  1 14  2  0  0  0  0
  1  8  1  0  0  0  0
  4  1  1  0  0  0  0
  5 15  1  1  0  0  0
  5  6  1  0  0  0  0
  6  9  2  0  0  0  0
  7  3  1  0  0  0  0
  7  9  1  0  0  0  0
  8  5  1  0  0  0  0
  8  7  2  0  0  0  0
 10  2  1  0  0  0  0
 11 31  1  1  0  0  0
 11 10  1  0  0  0  0
 12  2  1  0  0  0  0
 12  3  2  0  0  0  0
 13 11  1  0  0  0  0
 13 14  1  0  0  0  0
 14 12  1  0  0  0  0
 16 15  1  0  0  0  0
 17 27  2  0  0  0  0
 18 26  1  0  0  0  0
 19 25  2  0  0  0  0
 19 20  1  0  0  0  0
 20 21  2  0  0  0  0
 21 24  1  0  0  0  0
 21 27  1  0  0  0  0
 22 26  1  0  0  0  0
 22 16  1  0  0  0  0
 23 24  2  0  0  0  0
 24 18  1  0  0  0  0
 25 23  1  0  0  0  0
 27 22  1  0  0  0  0
 28 29  2  0  0  0  0
 29 19  1  0  0  0  0
 30 29  1  0  0  0  0
 32 31  1  0  0  0  0
 33 32  1  0  0  0  0
 34 33  1  0  0  0  0
M  END
>  <MODEL>
2

>  <REMARK>
 VINA RESULT:      -8.5      1.272      1.988
  Name = 
  7 active torsions:
  status: ('A' for Active; 'I' for Inactive)
    1  A    between atoms: C_3  and  C_24
    2  A    between atoms: C_7  and  C_15
    3  A    between atoms: C_8  and  C_17
    4  A    between atoms: C_8  and  N_18
    5  A    between atoms: C_10  and  C_17
    6  A    between atoms: C_24  and  C_25
    7  A    between atoms: C_25  and  C_27
                            x       y       z     vdW  Elec       q    Type
                         _______ _______ _______ _____ _____    ______ ____

>  <TORSDO>
F 7

$$$$
=
 OpenBabel11062409303D

 34 38  0  0  1  0  0  0  0  0999 V2000
  161.5120  207.2240  149.0220 C   0  0  0  0  0  0  0  0  0  0  0  0
  161.8110  203.6920  147.5580 C   0  0  0  0  0  2  0  0  0  0  0  0
  161.4220  204.5380  149.8680 C   0  0  0  0  0  3  0  0  0  0  0  0
  161.5290  208.5540  148.6160 O   0  0  0  0  0  1  0  0  0  0  0  0
  161.0520  207.8250  151.5000 C   0  0  2  0  0  3  0  0  0  0  0  0
  160.6380  206.8920  152.6470 C   0  0  0  0  0  3  0  0  0  0  0  0
  161.2310  205.5850  150.7670 C   0  0  0  0  0  0  0  0  0  0  0  0
  161.2890  206.8940  150.3650 C   0  0  0  0  0  0  0  0  0  0  0  0
  160.9200  205.4510  152.2030 C   0  0  0  0  0  3  0  0  0  0  0  0
  162.4740  204.1060  146.2460 C   0  0  0  0  0  2  0  0  0  0  0  0
  161.8410  205.3800  145.6820 C   0  0  2  0  0  3  0  0  0  0  0  0
  161.6850  204.8350  148.5240 C   0  0  0  0  0  0  0  0  0  0  0  0
  162.0350  206.5400  146.6580 C   0  0  0  0  0  2  0  0  0  0  0  0
  161.7080  206.1870  148.0880 C   0  0  0  0  0  0  0  0  0  0  0  0
  162.3430  208.5310  151.8990 C   0  0  0  0  0  2  0  0  0  0  0  0
  162.1990  210.0450  151.8190 C   0  0  0  0  0  2  0  0  0  0  0  0
  160.0380  211.8950  151.4820 O   0  0  0  0  0  0  0  0  0  0  0  0
  160.3390  209.7040  154.9710 C   0  0  0  0  0  2  0  0  0  0  0  0
  157.1810  212.6120  154.5470 C   0  0  0  0  0  0  0  0  0  0  0  0
  158.1320  212.4520  153.5280 C   0  0  0  0  0  3  0  0  0  0  0  0
  159.1760  211.5290  153.6670 C   0  0  0  0  0  0  0  0  0  0  0  0
  161.3420  210.5420  152.8870 N   0  0  0  0  0  0  0  0  0  0  0  0
  158.3210  210.9040  155.8500 C   0  0  0  0  0  3  0  0  0  0  0  0
  159.2740  210.7570  154.8390 C   0  0  0  0  0  0  0  0  0  0  0  0
  157.2850  211.8300  155.7080 C   0  0  0  0  0  3  0  0  0  0  0  0
  161.6230  210.1370  154.2630 C   0  0  0  0  0  2  0  0  0  0  0  0
  160.1880  211.3560  152.6120 C   0  0  0  0  0  0  0  0  0  0  0  0
  155.8160  214.0640  153.2570 O   0  0  0  0  0  0  0  0  0  0  0  0
  156.0870  213.5900  154.3930 C   0  0  0  0  0  0  0  0  0  0  0  0
  155.2820  214.0370  155.5670 C   0  0  0  0  0  1  0  0  0  0  0  0
  160.3630  205.2020  145.3410 C   0  0  0  0  0  2  0  0  0  0  0  0
  160.1680  204.2030  144.2070 C   0  0  0  0  0  2  0  0  0  0  0  0
  159.2130  203.0880  144.5990 C   0  0  0  0  0  2  0  0  0  0  0  0
  159.9810  201.8170  144.9130 C   0  0  0  0  0  1  0  0  0  0  0  0
  1  8  1  0  0  0  0
  2 12  1  0  0  0  0
  3  7  1  0  0  0  0
  4  1  1  0  0  0  0
  5 15  1  1  0  0  0
  5  6  1  0  0  0  0
  7  9  1  0  0  0  0
  8  7  2  0  0  0  0
  8  5  1  0  0  0  0
  9  6  2  0  0  0  0
 10  2  1  0  0  0  0
 11 31  1  1  0  0  0
 11 10  1  0  0  0  0
 11 13  1  0  0  0  0
 12  3  2  0  0  0  0
 13 14  1  0  0  0  0
 14 12  1  0  0  0  0
 14  1  2  0  0  0  0
 16 15  1  0  0  0  0
 16 22  1  0  0  0  0
 17 27  2  0  0  0  0
 19 25  1  0  0  0  0
 20 21  1  0  0  0  0
 20 19  2  0  0  0  0
 21 24  2  0  0  0  0
 22 26  1  0  0  0  0
 24 18  1  0  0  0  0
 24 23  1  0  0  0  0
 25 23  2  0  0  0  0
 26 18  1  0  0  0  0
 27 22  1  0  0  0  0
 27 21  1  0  0  0  0
 28 29  2  0  0  0  0
 29 19  1  0  0  0  0
 29 30  1  0  0  0  0
 32 33  1  0  0  0  0
 32 31  1  0  0  0  0
 33 34  1  0  0  0  0
M  END
>  <MODEL>
3

>  <REMARK>
 VINA RESULT:      -8.3      2.623      9.400
  Name = 
  7 active torsions:
  status: ('A' for Active; 'I' for Inactive)
    1  A    between atoms: C_3  and  C_24
    2  A    between atoms: C_7  and  C_15
    3  A    between atoms: C_8  and  C_17
    4  A    between atoms: C_8  and  N_18
    5  A    between atoms: C_10  and  C_17
    6  A    between atoms: C_24  and  C_25
    7  A    between atoms: C_25  and  C_27
                            x       y       z     vdW  Elec       q    Type
                         _______ _______ _______ _____ _____    ______ ____

>  <TORSDO>
F 7

$$$$
=
 OpenBabel11062409303D

 34 38  0  0  1  0  0  0  0  0999 V2000
  159.6150  211.3610  153.8390 C   0  0  0  0  0  0  0  0  0  0  0  0
  156.2450  211.5340  155.6610 C   0  0  0  0  0  2  0  0  0  0  0  0
  158.0860  209.8570  155.6660 C   0  0  0  0  0  3  0  0  0  0  0  0
  160.3920  212.1030  152.9560 O   0  0  0  0  0  1  0  0  0  0  0  0
  161.3900  209.4880  154.0680 C   0  0  2  0  0  3  0  0  0  0  0  0
  161.4380  208.3390  155.0850 C   0  0  0  0  0  3  0  0  0  0  0  0
  159.3440  209.4270  155.2520 C   0  0  0  0  0  0  0  0  0  0  0  0
  160.0860  210.1460  154.3510 C   0  0  0  0  0  0  0  0  0  0  0  0
  160.0460  208.2160  155.7200 C   0  0  0  0  0  3  0  0  0  0  0  0
  155.6160  212.5940  154.7580 C   0  0  0  0  0  2  0  0  0  0  0  0
  156.6240  213.6860  154.3990 C   0  0  2  0  0  3  0  0  0  0  0  0
  157.5680  211.0500  155.1430 C   0  0  0  0  0  0  0  0  0  0  0  0
  157.7970  213.0870  153.6240 C   0  0  0  0  0  2  0  0  0  0  0  0
  158.3450  211.8240  154.2390 C   0  0  0  0  0  0  0  0  0  0  0  0
  161.4000  208.8880  152.6670 C   0  0  0  0  0  2  0  0  0  0  0  0
  161.2380  207.3750  152.7060 C   0  0  0  0  0  2  0  0  0  0  0  0
  160.7990  204.6430  151.9640 O   0  0  0  0  0  0  0  0  0  0  0  0
  161.6930  207.4410  149.0590 C   0  0  0  0  0  2  0  0  0  0  0  0
  161.2060  203.3000  147.9510 C   0  0  0  0  0  0  0  0  0  0  0  0
  161.1160  203.6840  149.2980 C   0  0  0  0  0  3  0  0  0  0  0  0
  161.2980  205.0210  149.6710 C   0  0  0  0  0  0  0  0  0  0  0  0
  161.6040  206.7810  151.4270 N   0  0  0  0  0  0  0  0  0  0  0  0
  161.6530  205.6120  147.3450 C   0  0  0  0  0  3  0  0  0  0  0  0
  161.5760  205.9890  148.6880 C   0  0  0  0  0  0  0  0  0  0  0  0
  161.4750  204.2760  146.9790 C   0  0  0  0  0  3  0  0  0  0  0  0
  162.3150  207.5990  150.4470 C   0  0  0  0  0  2  0  0  0  0  0  0
  161.2180  205.4390  151.0800 C   0  0  0  0  0  0  0  0  0  0  0  0
  160.6120  201.5930  146.4120 O   0  0  0  0  0  0  0  0  0  0  0  0
  161.0160  201.8870  147.5690 C   0  0  0  0  0  0  0  0  0  0  0  0
  161.2950  200.7850  148.5340 C   0  0  0  0  0  1  0  0  0  0  0  0
  157.1220  214.4530  155.6230 C   0  0  0  0  0  2  0  0  0  0  0  0
  158.6440  214.4500  155.7020 C   0  0  0  0  0  2  0  0  0  0  0  0
  159.1310  214.1790  157.1170 C   0  0  0  0  0  2  0  0  0  0  0  0
  160.2370  213.1400  157.1070 C   0  0  0  0  0  1  0  0  0  0  0  0
  1 14  2  0  0  0  0
  1  8  1  0  0  0  0
  4  1  1  0  0  0  0
  5 15  1  6  0  0  0
  5  8  1  0  0  0  0
  5  6  1  0  0  0  0
  6  9  2  0  0  0  0
  7  3  1  0  0  0  0
  7  9  1  0  0  0  0
  8  7  2  0  0  0  0
 10  2  1  0  0  0  0
 11 10  1  0  0  0  0
 11 31  1  1  0  0  0
 12  2  1  0  0  0  0
 12  3  2  0  0  0  0
 13 14  1  0  0  0  0
 13 11  1  0  0  0  0
 14 12  1  0  0  0  0
 15 16  1  0  0  0  0
 18 26  1  0  0  0  0
 19 20  1  0  0  0  0
 20 21  2  0  0  0  0
 21 27  1  0  0  0  0
 22 16  1  0  0  0  0
 23 24  2  0  0  0  0
 24 18  1  0  0  0  0
 24 21  1  0  0  0  0
 25 23  1  0  0  0  0
 25 19  2  0  0  0  0
 26 22  1  0  0  0  0
 27 22  1  0  0  0  0
 27 17  2  0  0  0  0
 28 29  2  0  0  0  0
 29 19  1  0  0  0  0
 29 30  1  0  0  0  0
 31 32  1  0  0  0  0
 32 33  1  0  0  0  0
 34 33  1  0  0  0  0
M  END
>  <MODEL>
4

>  <REMARK>
 VINA RESULT:      -8.1      1.859      2.704
  Name = 
  7 active torsions:
  status: ('A' for Active; 'I' for Inactive)
    1  A    between atoms: C_3  and  C_24
    2  A    between atoms: C_7  and  C_15
    3  A    between atoms: C_8  and  C_17
    4  A    between atoms: C_8  and  N_18
    5  A    between atoms: C_10  and  C_17
    6  A    between atoms: C_24  and  C_25
    7  A    between atoms: C_25  and  C_27
                            x       y       z     vdW  Elec       q    Type
                         _______ _______ _______ _____ _____    ______ ____

>  <TORSDO>
F 7

$$$$
=
 OpenBabel11062409303D

 34 38  0  0  1  0  0  0  0  0999 V2000
  158.7630  211.6430  153.5750 C   0  0  0  0  0  0  0  0  0  0  0  0
  156.8360  210.9250  156.8120 C   0  0  0  0  0  2  0  0  0  0  0  0
  159.0940  210.2530  156.0040 C   0  0  0  0  0  3  0  0  0  0  0  0
  158.6250  212.3450  152.3830 O   0  0  0  0  0  1  0  0  0  0  0  0
  161.1600  210.8420  153.0050 C   0  0  2  0  0  3  0  0  0  0  0  0
  162.1880  210.1740  153.9300 C   0  0  0  0  0  3  0  0  0  0  0  0
  160.1060  210.2850  155.0470 C   0  0  0  0  0  0  0  0  0  0  0  0
  159.9450  210.9470  153.8570 C   0  0  0  0  0  0  0  0  0  0  0  0
  161.4440  209.6760  155.1760 C   0  0  0  0  0  3  0  0  0  0  0  0
  155.4570  211.3070  156.2780 C   0  0  0  0  0  2  0  0  0  0  0  0
  155.5270  212.5610  155.4050 C   0  0  2  0  0  3  0  0  0  0  0  0
  157.8840  210.9080  155.7370 C   0  0  0  0  0  0  0  0  0  0  0  0
  156.4150  212.3050  154.1880 C   0  0  0  0  0  2  0  0  0  0  0  0
  157.7210  211.6300  154.5240 C   0  0  0  0  0  0  0  0  0  0  0  0
  160.9100  209.9160  151.8200 C   0  0  0  0  0  2  0  0  0  0  0  0
  162.0210  208.8850  151.6730 C   0  0  0  0  0  2  0  0  0  0  0  0
  161.8720  207.2830  149.3020 O   0  0  0  0  0  0  0  0  0  0  0  0
  161.3740  205.5220  153.0060 C   0  0  0  0  0  2  0  0  0  0  0  0
  160.9760  203.1290  149.4380 C   0  0  0  0  0  0  0  0  0  0  0  0
  161.2180  204.5080  149.3380 C   0  0  0  0  0  3  0  0  0  0  0  0
  161.3240  205.2980  150.4890 C   0  0  0  0  0  0  0  0  0  0  0  0
  161.4710  207.5380  151.6010 N   0  0  0  0  0  0  0  0  0  0  0  0
  160.9550  203.3310  151.8620 C   0  0  0  0  0  3  0  0  0  0  0  0
  161.1830  204.7050  151.7580 C   0  0  0  0  0  0  0  0  0  0  0  0
  160.8460  202.5490  150.7100 C   0  0  0  0  0  3  0  0  0  0  0  0
  160.8780  206.9530  152.8010 C   0  0  0  0  0  2  0  0  0  0  0  0
  161.5670  206.7470  150.4030 C   0  0  0  0  0  0  0  0  0  0  0  0
  160.5020  201.1020  148.2990 O   0  0  0  0  0  0  0  0  0  0  0  0
  160.8630  202.3060  148.2190 C   0  0  0  0  0  0  0  0  0  0  0  0
  161.1720  202.8750  146.8750 C   0  0  0  0  0  1  0  0  0  0  0  0
  156.0080  213.7890  156.1760 C   0  0  0  0  0  2  0  0  0  0  0  0
  157.3260  214.3140  155.6210 C   0  0  0  0  0  2  0  0  0  0  0  0
  158.3790  214.4480  156.7090 C   0  0  0  0  0  2  0  0  0  0  0  0
  159.7400  214.0290  156.1850 C   0  0  0  0  0  1  0  0  0  0  0  0
  1  8  2  0  0  0  0
  1 14  1  0  0  0  0
  4  1  1  0  0  0  0
  5 15  1  6  0  0  0
  5  8  1  0  0  0  0
  5  6  1  0  0  0  0
  6  9  2  0  0  0  0
  7  9  1  0  0  0  0
  7  3  2  0  0  0  0
  8  7  1  0  0  0  0
 10  2  1  0  0  0  0
 11 31  1  1  0  0  0
 11 10  1  0  0  0  0
 12  3  1  0  0  0  0
 12  2  1  0  0  0  0
 13 14  1  0  0  0  0
 13 11  1  0  0  0  0
 14 12  2  0  0  0  0
 16 15  1  0  0  0  0
 17 27  2  0  0  0  0
 19 25  1  0  0  0  0
 20 19  2  0  0  0  0
 20 21  1  0  0  0  0
 21 24  2  0  0  0  0
 22 16  1  0  0  0  0
 22 26  1  0  0  0  0
 24 23  1  0  0  0  0
 24 18  1  0  0  0  0
 25 23  2  0  0  0  0
 26 18  1  0  0  0  0
 27 21  1  0  0  0  0
 27 22  1  0  0  0  0
 29 28  2  0  0  0  0
 29 19  1  0  0  0  0
 30 29  1  0  0  0  0
 32 31  1  0  0  0  0
 32 33  1  0  0  0  0
 34 33  1  0  0  0  0
M  END
>  <MODEL>
5

>  <REMARK>
 VINA RESULT:      -8.0      2.189      3.455
  Name = 
  7 active torsions:
  status: ('A' for Active; 'I' for Inactive)
    1  A    between atoms: C_3  and  C_24
    2  A    between atoms: C_7  and  C_15
    3  A    between atoms: C_8  and  C_17
    4  A    between atoms: C_8  and  N_18
    5  A    between atoms: C_10  and  C_17
    6  A    between atoms: C_24  and  C_25
    7  A    between atoms: C_25  and  C_27
                            x       y       z     vdW  Elec       q    Type
                         _______ _______ _______ _____ _____    ______ ____

>  <TORSDO>
F 7

$$$$
=
 OpenBabel11062409303D

 34 38  0  0  1  0  0  0  0  0999 V2000
  161.5370  210.4010  150.8230 C   0  0  0  0  0  0  0  0  0  0  0  0
  159.5280  213.5960  150.1430 C   0  0  0  0  0  2  0  0  0  0  0  0
  159.7430  212.1280  152.1420 C   0  0  0  0  0  3  0  0  0  0  0  0
  162.4410  209.5530  150.1930 O   0  0  0  0  0  1  0  0  0  0  0  0
  161.6130  209.0800  153.0500 C   0  0  2  0  0  3  0  0  0  0  0  0
  161.0570  209.4900  154.4210 C   0  0  0  0  0  3  0  0  0  0  0  0
  160.2960  211.0270  152.7920 C   0  0  0  0  0  0  0  0  0  0  0  0
  161.1560  210.1740  152.1510 C   0  0  0  0  0  0  0  0  0  0  0  0
  160.0780  210.6510  154.2030 C   0  0  0  0  0  3  0  0  0  0  0  0
  159.6220  213.5370  148.6190 C   0  0  0  0  0  2  0  0  0  0  0  0
  161.0200  213.1100  148.1660 C   0  0  2  0  0  3  0  0  0  0  0  0
  160.0730  212.3620  150.8010 C   0  0  0  0  0  0  0  0  0  0  0  0
  161.3340  211.7060  148.6810 C   0  0  0  0  0  2  0  0  0  0  0  0
  160.9950  211.5070  150.1380 C   0  0  0  0  0  0  0  0  0  0  0  0
  160.9760  207.7530  152.6520 C   0  0  0  0  0  2  0  0  0  0  0  0
  162.0220  206.7520  152.1790 C   0  0  0  0  0  2  0  0  0  0  0  0
  162.0450  206.2840  149.3530 O   0  0  0  0  0  0  0  0  0  0  0  0
  160.9890  203.2340  151.9300 C   0  0  0  0  0  2  0  0  0  0  0  0
  160.8520  202.5670  147.6710 C   0  0  0  0  0  0  0  0  0  0  0  0
  161.2000  203.8300  148.1750 C   0  0  0  0  0  3  0  0  0  0  0  0
  161.2220  204.0630  149.5550 C   0  0  0  0  0  0  0  0  0  0  0  0
  161.3920  205.6220  151.5080 N   0  0  0  0  0  0  0  0  0  0  0  0
  160.5570  201.7630  149.9470 C   0  0  0  0  0  3  0  0  0  0  0  0
  160.8910  203.0250  150.4450 C   0  0  0  0  0  0  0  0  0  0  0  0
  160.5320  201.5370  148.5690 C   0  0  0  0  0  3  0  0  0  0  0  0
  160.6210  204.6700  152.3030 C   0  0  0  0  0  2  0  0  0  0  0  0
  161.5740  205.3840  150.1010 C   0  0  0  0  0  0  0  0  0  0  0  0
  160.4910  201.2060  145.7600 O   0  0  0  0  0  0  0  0  0  0  0  0
  160.8280  202.3320  146.2140 C   0  0  0  0  0  0  0  0  0  0  0  0
  161.2000  203.4110  145.2540 C   0  0  0  0  0  1  0  0  0  0  0  0
  162.1050  214.0980  148.5930 C   0  0  0  0  0  2  0  0  0  0  0  0
  163.0240  214.4520  147.4310 C   0  0  0  0  0  2  0  0  0  0  0  0
  162.2990  214.3710  146.0970 C   0  0  0  0  0  2  0  0  0  0  0  0
  163.0650  213.4890  145.1290 C   0  0  0  0  0  1  0  0  0  0  0  0
  1  8  1  0  0  0  0
  2 12  1  0  0  0  0
  3  7  1  0  0  0  0
  4  1  1  0  0  0  0
  5 15  1  6  0  0  0
  5  6  1  0  0  0  0
  7  9  1  0  0  0  0
  8  7  2  0  0  0  0
  8  5  1  0  0  0  0
  9  6  2  0  0  0  0
 10  2  1  0  0  0  0
 11 31  1  1  0  0  0
 11 10  1  0  0  0  0
 11 13  1  0  0  0  0
 12  3  2  0  0  0  0
 13 14  1  0  0  0  0
 14 12  1  0  0  0  0
 14  1  2  0  0  0  0
 16 15  1  0  0  0  0
 17 27  2  0  0  0  0
 18 26  1  0  0  0  0
 19 20  2  0  0  0  0
 19 25  1  0  0  0  0
 20 21  1  0  0  0  0
 21 27  1  0  0  0  0
 21 24  2  0  0  0  0
 22 16  1  0  0  0  0
 22 26  1  0  0  0  0
 23 24  1  0  0  0  0
 24 18  1  0  0  0  0
 25 23  2  0  0  0  0
 27 22  1  0  0  0  0
 28 29  2  0  0  0  0
 29 19  1  0  0  0  0
 30 29  1  0  0  0  0
 32 31  1  0  0  0  0
 33 32  1  0  0  0  0
 34 33  1  0  0  0  0
M  END
>  <MODEL>
6

>  <REMARK>
 VINA RESULT:      -8.0      1.991      3.267
  Name = 
  7 active torsions:
  status: ('A' for Active; 'I' for Inactive)
    1  A    between atoms: C_3  and  C_24
    2  A    between atoms: C_7  and  C_15
    3  A    between atoms: C_8  and  C_17
    4  A    between atoms: C_8  and  N_18
    5  A    between atoms: C_10  and  C_17
    6  A    between atoms: C_24  and  C_25
    7  A    between atoms: C_25  and  C_27
                            x       y       z     vdW  Elec       q    Type
                         _______ _______ _______ _____ _____    ______ ____

>  <TORSDO>
F 7

$$$$
=
 OpenBabel11062409303D

 34 38  0  0  1  0  0  0  0  0999 V2000
  159.2490  211.1920  154.2440 C   0  0  0  0  0  0  0  0  0  0  0  0
  156.8870  211.6120  157.2360 C   0  0  0  0  0  2  0  0  0  0  0  0
  159.3180  211.1040  157.0600 C   0  0  0  0  0  3  0  0  0  0  0  0
  159.2350  211.2560  152.8550 O   0  0  0  0  0  1  0  0  0  0  0  0
  161.7910  210.7020  154.3520 C   0  0  2  0  0  3  0  0  0  0  0  0
  162.7150  210.7220  155.5780 C   0  0  0  0  0  3  0  0  0  0  0  0
  160.4710  210.9080  156.3030 C   0  0  0  0  0  0  0  0  0  0  0  0
  160.4410  210.9340  154.9320 C   0  0  0  0  0  0  0  0  0  0  0  0
  161.8310  210.6890  156.8320 C   0  0  0  0  0  3  0  0  0  0  0  0
  155.5860  211.4450  156.4530 C   0  0  0  0  0  2  0  0  0  0  0  0
  155.6500  212.1740  155.1100 C   0  0  2  0  0  3  0  0  0  0  0  0
  158.1010  211.3270  156.4020 C   0  0  0  0  0  0  0  0  0  0  0  0
  156.7640  211.5870  154.2440 C   0  0  0  0  0  2  0  0  0  0  0  0
  158.0650  211.3950  154.9820 C   0  0  0  0  0  0  0  0  0  0  0  0
  161.8740  209.3210  153.7120 C   0  0  0  0  0  2  0  0  0  0  0  0
  162.0520  209.4150  152.2030 C   0  0  0  0  0  2  0  0  0  0  0  0
  162.0970  208.9340  149.3790 O   0  0  0  0  0  0  0  0  0  0  0  0
  161.4150  205.8010  151.9850 C   0  0  0  0  0  2  0  0  0  0  0  0
  161.3080  205.0950  147.7310 C   0  0  0  0  0  0  0  0  0  0  0  0
  161.5180  206.3920  148.2240 C   0  0  0  0  0  3  0  0  0  0  0  0
  161.5290  206.6360  149.6030 C   0  0  0  0  0  0  0  0  0  0  0  0
  161.5460  208.2180  151.5450 N   0  0  0  0  0  0  0  0  0  0  0  0
  161.1300  204.2780  150.0150 C   0  0  0  0  0  3  0  0  0  0  0  0
  161.3260  205.5730  150.5020 C   0  0  0  0  0  0  0  0  0  0  0  0
  161.1150  204.0420  148.6380 C   0  0  0  0  0  3  0  0  0  0  0  0
  160.8940  207.1900  152.3540 C   0  0  0  0  0  2  0  0  0  0  0  0
  161.7370  207.9920  150.1370 C   0  0  0  0  0  0  0  0  0  0  0  0
  161.7760  203.7810  145.8100 O   0  0  0  0  0  0  0  0  0  0  0  0
  161.2950  204.8490  146.2760 C   0  0  0  0  0  0  0  0  0  0  0  0
  160.7190  205.8490  145.3310 C   0  0  0  0  0  1  0  0  0  0  0  0
  155.8270  213.6830  155.2660 C   0  0  0  0  0  2  0  0  0  0  0  0
  154.9070  214.4530  154.3270 C   0  0  0  0  0  2  0  0  0  0  0  0
  154.6440  213.6830  153.0430 C   0  0  0  0  0  2  0  0  0  0  0  0
  155.2850  214.3870  151.8610 C   0  0  0  0  0  1  0  0  0  0  0  0
  1  8  2  0  0  0  0
  1 14  1  0  0  0  0
  4  1  1  0  0  0  0
  5 15  1  1  0  0  0
  5  8  1  0  0  0  0
  5  6  1  0  0  0  0
  6  9  2  0  0  0  0
  7  9  1  0  0  0  0
  7  3  2  0  0  0  0
  8  7  1  0  0  0  0
 10  2  1  0  0  0  0
 11 31  1  1  0  0  0
 11 10  1  0  0  0  0
 12  3  1  0  0  0  0
 12  2  1  0  0  0  0
 13 14  1  0  0  0  0
 13 11  1  0  0  0  0
 14 12  2  0  0  0  0
 16 15  1  0  0  0  0
 17 27  2  0  0  0  0
 18 26  1  0  0  0  0
 19 20  2  0  0  0  0
 19 25  1  0  0  0  0
 20 21  1  0  0  0  0
 21 27  1  0  0  0  0
 21 24  2  0  0  0  0
 22 16  1  0  0  0  0
 22 26  1  0  0  0  0
 23 24  1  0  0  0  0
 24 18  1  0  0  0  0
 25 23  2  0  0  0  0
 27 22  1  0  0  0  0
 28 29  2  0  0  0  0
 29 19  1  0  0  0  0
 30 29  1  0  0  0  0
 32 31  1  0  0  0  0
 33 32  1  0  0  0  0
 34 33  1  0  0  0  0
M  END
>  <MODEL>
7

>  <REMARK>
 VINA RESULT:      -7.9      2.593      3.431
  Name = 
  7 active torsions:
  status: ('A' for Active; 'I' for Inactive)
    1  A    between atoms: C_3  and  C_24
    2  A    between atoms: C_7  and  C_15
    3  A    between atoms: C_8  and  C_17
    4  A    between atoms: C_8  and  N_18
    5  A    between atoms: C_10  and  C_17
    6  A    between atoms: C_24  and  C_25
    7  A    between atoms: C_25  and  C_27
                            x       y       z     vdW  Elec       q    Type
                         _______ _______ _______ _____ _____    ______ ____

>  <TORSDO>
F 7

$$$$
=
 OpenBabel11062409303D

 34 38  0  0  1  0  0  0  0  0999 V2000
  160.9480  209.7220  152.3640 C   0  0  0  0  0  0  0  0  0  0  0  0
  159.6790  209.0510  155.9200 C   0  0  0  0  0  2  0  0  0  0  0  0
  160.9290  207.6560  154.2790 C   0  0  0  0  0  3  0  0  0  0  0  0
  160.9860  210.7410  151.4180 O   0  0  0  0  0  1  0  0  0  0  0  0
  162.2850  208.0770  150.8740 C   0  0  2  0  0  3  0  0  0  0  0  0
  162.9180  206.7350  151.2670 C   0  0  0  0  0  3  0  0  0  0  0  0
  161.5540  207.4910  153.0460 C   0  0  0  0  0  0  0  0  0  0  0  0
  161.5540  208.4870  152.1030 C   0  0  0  0  0  0  0  0  0  0  0  0
  162.3020  206.2990  152.6030 C   0  0  0  0  0  3  0  0  0  0  0  0
  158.6850  210.2100  155.9690 C   0  0  0  0  0  2  0  0  0  0  0  0
  159.2690  211.4700  155.3290 C   0  0  2  0  0  3  0  0  0  0  0  0
  160.2800  208.8670  154.5570 C   0  0  0  0  0  0  0  0  0  0  0  0
  159.5780  211.2170  153.8540 C   0  0  0  0  0  2  0  0  0  0  0  0
  160.3070  209.9200  153.6040 C   0  0  0  0  0  0  0  0  0  0  0  0
  161.3140  207.8310  149.7250 C   0  0  0  0  0  2  0  0  0  0  0  0
  161.9400  206.9630  148.6420 C   0  0  0  0  0  2  0  0  0  0  0  0
  161.9710  205.1640  146.4130 O   0  0  0  0  0  0  0  0  0  0  0  0
  160.9570  203.7650  150.1650 C   0  0  0  0  0  2  0  0  0  0  0  0
  160.8310  201.0860  146.7870 C   0  0  0  0  0  0  0  0  0  0  0  0
  161.1610  202.4370  146.6020 C   0  0  0  0  0  3  0  0  0  0  0  0
  161.1790  203.3210  147.6880 C   0  0  0  0  0  0  0  0  0  0  0  0
  161.3270  205.6410  148.6180 N   0  0  0  0  0  0  0  0  0  0  0  0
  160.5470  201.5030  149.1660 C   0  0  0  0  0  3  0  0  0  0  0  0
  160.8630  202.8510  148.9760 C   0  0  0  0  0  0  0  0  0  0  0  0
  160.5260  200.6280  148.0780 C   0  0  0  0  0  3  0  0  0  0  0  0
  160.5690  205.1940  149.7850 C   0  0  0  0  0  2  0  0  0  0  0  0
  161.5120  204.7440  147.5100 C   0  0  0  0  0  0  0  0  0  0  0  0
  160.1360  200.4460  144.6100 O   0  0  0  0  0  0  0  0  0  0  0  0
  160.8110  200.1630  145.6350 C   0  0  0  0  0  0  0  0  0  0  0  0
  161.5810  198.8860  145.6580 C   0  0  0  0  0  1  0  0  0  0  0  0
  160.5090  211.9810  156.0610 C   0  0  0  0  0  2  0  0  0  0  0  0
  160.2450  213.3190  156.7400 C   0  0  0  0  0  2  0  0  0  0  0  0
  158.7570  213.6130  156.8400 C   0  0  0  0  0  2  0  0  0  0  0  0
  158.3000  214.4510  155.6620 C   0  0  0  0  0  1  0  0  0  0  0  0
  1 14  1  0  0  0  0
  2 10  1  0  0  0  0
  3 12  1  0  0  0  0
  4  1  1  0  0  0  0
  5 15  1  6  0  0  0
  5  6  1  0  0  0  0
  5  8  1  0  0  0  0
  6  9  2  0  0  0  0
  7  3  2  0  0  0  0
  8  1  2  0  0  0  0
  8  7  1  0  0  0  0
  9  7  1  0  0  0  0
 11 10  1  0  0  0  0
 11 31  1  1  0  0  0
 12  2  1  0  0  0  0
 13 11  1  0  0  0  0
 14 13  1  0  0  0  0
 14 12  2  0  0  0  0
 16 15  1  0  0  0  0
 17 27  2  0  0  0  0
 19 25  1  0  0  0  0
 20 19  2  0  0  0  0
 20 21  1  0  0  0  0
 21 24  2  0  0  0  0
 22 16  1  0  0  0  0
 22 26  1  0  0  0  0
 24 23  1  0  0  0  0
 24 18  1  0  0  0  0
 25 23  2  0  0  0  0
 26 18  1  0  0  0  0
 27 21  1  0  0  0  0
 27 22  1  0  0  0  0
 28 29  2  0  0  0  0
 29 30  1  0  0  0  0
 29 19  1  0  0  0  0
 31 32  1  0  0  0  0
 32 33  1  0  0  0  0
 34 33  1  0  0  0  0
M  END
>  <MODEL>
8

>  <REMARK>
 VINA RESULT:      -7.9      2.474      4.194
  Name = 
  7 active torsions:
  status: ('A' for Active; 'I' for Inactive)
    1  A    between atoms: C_3  and  C_24
    2  A    between atoms: C_7  and  C_15
    3  A    between atoms: C_8  and  C_17
    4  A    between atoms: C_8  and  N_18
    5  A    between atoms: C_10  and  C_17
    6  A    between atoms: C_24  and  C_25
    7  A    between atoms: C_25  and  C_27
                            x       y       z     vdW  Elec       q    Type
                         _______ _______ _______ _____ _____    ______ ____

>  <TORSDO>
F 7

$$$$
=
 OpenBabel11062409303D

 34 38  0  0  1  0  0  0  0  0999 V2000
  160.0120  210.1070  153.8510 C   0  0  0  0  0  0  0  0  0  0  0  0
  157.4080  211.8880  156.0320 C   0  0  0  0  0  2  0  0  0  0  0  0
  158.6960  209.7770  156.3210 C   0  0  0  0  0  3  0  0  0  0  0  0
  160.6870  210.2690  152.6470 O   0  0  0  0  0  1  0  0  0  0  0  0
  161.2490  207.9050  154.4270 C   0  0  2  0  0  3  0  0  0  0  0  0
  161.2730  207.1450  155.7610 C   0  0  0  0  0  3  0  0  0  0  0  0
  159.6470  208.8590  155.8810 C   0  0  0  0  0  0  0  0  0  0  0  0
  160.2790  209.0050  154.6730 C   0  0  0  0  0  0  0  0  0  0  0  0
  160.1180  207.6730  156.6220 C   0  0  0  0  0  3  0  0  0  0  0  0
  156.8510  212.7900  154.9320 C   0  0  0  0  0  2  0  0  0  0  0  0
  157.9700  213.3410  154.0470 C   0  0  2  0  0  3  0  0  0  0  0  0
  158.3780  210.8710  155.5050 C   0  0  0  0  0  0  0  0  0  0  0  0
  158.7020  212.1960  153.3490 C   0  0  0  0  0  2  0  0  0  0  0  0
  159.0550  211.0550  154.2690 C   0  0  0  0  0  0  0  0  0  0  0  0
  160.7320  206.9610  153.3470 C   0  0  0  0  0  2  0  0  0  0  0  0
  161.8750  206.2570  152.6280 C   0  0  0  0  0  2  0  0  0  0  0  0
  161.9190  206.4120  149.7680 O   0  0  0  0  0  0  0  0  0  0  0  0
  161.2330  202.7820  151.6170 C   0  0  0  0  0  2  0  0  0  0  0  0
  161.1240  203.0340  147.3120 C   0  0  0  0  0  0  0  0  0  0  0  0
  161.3360  204.1890  148.0800 C   0  0  0  0  0  3  0  0  0  0  0  0
  161.3480  204.1220  149.4780 C   0  0  0  0  0  0  0  0  0  0  0  0
  161.3660  205.2350  151.7220 N   0  0  0  0  0  0  0  0  0  0  0  0
  160.9450  201.7330  149.3590 C   0  0  0  0  0  3  0  0  0  0  0  0
  161.1420  202.8870  150.1210 C   0  0  0  0  0  0  0  0  0  0  0  0
  160.9290  201.8060  147.9640 C   0  0  0  0  0  3  0  0  0  0  0  0
  160.7130  204.0560  152.2840 C   0  0  0  0  0  2  0  0  0  0  0  0
  161.5580  205.3260  150.2990 C   0  0  0  0  0  0  0  0  0  0  0  0
  160.5140  202.2360  145.1610 O   0  0  0  0  0  0  0  0  0  0  0  0
  161.1110  203.1150  145.8390 C   0  0  0  0  0  0  0  0  0  0  0  0
  161.7970  204.2290  145.1230 C   0  0  0  0  0  1  0  0  0  0  0  0
  158.9540  214.2190  154.8190 C   0  0  0  0  0  2  0  0  0  0  0  0
  158.4890  214.4520  156.2510 C   0  0  0  0  0  2  0  0  0  0  0  0
  159.6540  214.4490  157.2270 C   0  0  0  0  0  2  0  0  0  0  0  0
  160.4690  213.1780  157.0770 C   0  0  0  0  0  1  0  0  0  0  0  0
  1 14  2  0  0  0  0
  1  8  1  0  0  0  0
  4  1  1  0  0  0  0
  5 15  1  6  0  0  0
  5  8  1  0  0  0  0
  5  6  1  0  0  0  0
  6  9  2  0  0  0  0
  7  3  1  0  0  0  0
  7  9  1  0  0  0  0
  8  7  2  0  0  0  0
 10  2  1  0  0  0  0
 11 31  1  1  0  0  0
 11 10  1  0  0  0  0
 12  2  1  0  0  0  0
 12  3  2  0  0  0  0
 13 11  1  0  0  0  0
 13 14  1  0  0  0  0
 14 12  1  0  0  0  0
 16 15  1  0  0  0  0
 17 27  2  0  0  0  0
 18 26  1  0  0  0  0
 19 25  2  0  0  0  0
 19 20  1  0  0  0  0
 20 21  2  0  0  0  0
 21 24  1  0  0  0  0
 21 27  1  0  0  0  0
 22 26  1  0  0  0  0
 22 16  1  0  0  0  0
 23 24  2  0  0  0  0
 24 18  1  0  0  0  0
 25 23  1  0  0  0  0
 27 22  1  0  0  0  0
 28 29  2  0  0  0  0
 29 19  1  0  0  0  0
 30 29  1  0  0  0  0
 31 32  1  0  0  0  0
 32 33  1  0  0  0  0
 34 33  1  0  0  0  0
M  END
>  <MODEL>
9

>  <REMARK>
 VINA RESULT:      -7.9      1.868      3.095
  Name = 
  7 active torsions:
  status: ('A' for Active; 'I' for Inactive)
    1  A    between atoms: C_3  and  C_24
    2  A    between atoms: C_7  and  C_15
    3  A    between atoms: C_8  and  C_17
    4  A    between atoms: C_8  and  N_18
    5  A    between atoms: C_10  and  C_17
    6  A    between atoms: C_24  and  C_25
    7  A    between atoms: C_25  and  C_27
                            x       y       z     vdW  Elec       q    Type
                         _______ _______ _______ _____ _____    ______ ____

>  <TORSDO>
F 7

$$$$
