=
 OpenBabel11062408533D

 55 60  0  0  1  0  0  0  0  0999 V2000
  160.9480  209.0110  152.9830 O   0  0  0  0  0  0  0  0  0  0  0  0
  162.7540  207.2290  150.8430 C   0  0  0  0  0  2  0  0  0  0  0  0
  162.5410  208.9440  147.4480 C   0  0  0  0  0  1  0  0  0  0  0  0
  162.0530  211.9680  148.0000 C   0  0  0  0  0  2  0  0  0  0  0  0
  161.3310  214.4470  147.8750 C   0  0  0  0  0  2  0  0  0  0  0  0
  160.6330  212.9940  149.7680 C   0  0  0  0  0  0  0  0  0  0  0  0
  160.1480  213.9230  148.6970 C   0  0  0  0  0  2  0  0  0  0  0  0
  161.2880  209.6020  149.4990 C   0  0  0  0  0  2  0  0  0  0  0  0
  162.2580  213.3360  147.3320 C   0  0  0  0  0  2  0  0  0  0  0  0
  161.4720  208.0690  155.1400 C   0  0  0  0  0  2  0  0  0  0  0  0
  161.8340  212.1150  149.5090 C   0  0  1  0  0  3  0  0  0  0  0  0
  160.4650  205.8860  153.6280 C   0  0  2  0  0  3  0  0  0  0  0  0
  161.8370  210.0000  152.5720 C   0  0  0  0  0  2  0  0  0  0  0  0
  161.6380  206.6690  153.0220 C   0  0  1  0  0  3  0  0  0  0  0  0
  160.3150  211.8940  151.8860 C   0  0  0  0  0  0  0  0  0  0  0  0
  161.4790  206.7290  151.5000 C   0  0  0  0  0  2  0  0  0  0  0  0
  159.9500  212.8410  150.8600 N   0  0  0  0  0  0  0  0  0  0  0  0
  162.5190  207.3980  149.3570 C   0  0  0  0  0  2  0  0  0  0  0  0
  162.5180  208.8640  148.9580 C   0  0  1  0  0  3  0  0  0  0  0  0
  160.2250  207.4750  155.3840 O   0  0  0  0  0  0  0  0  0  0  0  0
  161.7690  208.0830  153.6340 C   0  0  1  0  0  3  0  0  0  0  0  0
  161.6650  210.8320  150.2100 N   0  0  0  0  0  0  0  0  0  0  0  0
  161.2190  210.9230  151.5730 C   0  0  0  0  0  0  0  0  0  0  0  0
  160.4040  206.1110  155.1390 C   0  0  0  0  0  2  0  0  0  0  0  0
  159.6480  213.0600  153.9690 C   0  0  0  0  0  3  0  0  0  0  0  0
  157.8750  212.1550  155.5240 C   0  0  1  0  0  3  0  0  0  0  0  0
  158.6450  210.8400  153.5300 C   0  0  0  0  0  2  0  0  0  0  0  0
  158.2870  210.7770  155.0160 C   0  0  0  0  0  2  0  0  0  0  0  0
  159.0320  213.1340  155.3370 C   0  0  0  0  0  2  0  0  0  0  0  0
  159.5740  211.9810  153.1790 C   0  0  0  0  0  0  0  0  0  0  0  0
  156.7390  212.6150  154.8490 O   0  0  0  0  0  0  0  0  0  0  0  0
  155.6610  212.0340  155.5180 C   0  0  0  0  0  2  0  0  0  0  0  0
  155.5160  212.6730  156.8840 C   0  0  0  0  0  1  0  0  0  0  0  0
  160.6240  204.4020  153.3370 C   0  0  0  0  0  2  0  0  0  0  0  0
  163.3750  200.8990  152.5160 O   0  0  0  0  0  0  0  0  0  0  0  0
  162.6040  201.8080  152.1920 C   0  0  0  0  0  0  0  0  0  0  0  0
  160.5030  203.2790  151.2040 C   0  0  1  0  0  3  0  0  0  0  0  0
  161.7800  202.7660  151.8700 C   0  0  0  0  0  0  0  0  0  0  0  0
  161.2680  204.2070  151.9770 C   0  0  2  0  0  3  0  0  0  0  0  0
  160.6670  203.4570  149.6860 C   0  0  2  0  0  3  0  0  0  0  0  0
  160.1930  204.6960  149.2290 O   0  0  0  0  0  1  0  0  0  0  0  0
  159.9960  202.3210  148.9110 C   0  0  2  0  0  3  0  0  0  0  0  0
  159.3760  201.4150  149.7790 O   0  0  0  0  0  1  0  0  0  0  0  0
  161.0010  201.6480  147.9600 C   0  0  0  0  0  2  0  0  0  0  0  0
  159.2440  201.7280  146.2850 C   0  0  0  0  0  1  0  0  0  0  0  0
  161.1950  200.3300  145.8190 C   0  0  0  0  0  1  0  0  0  0  0  0
  160.7510  201.6560  146.4340 C   0  0  0  0  0  0  0  0  0  0  0  0
  161.3670  202.8920  145.7050 C   0  0  2  0  0  3  0  0  0  0  0  0
  162.1240  203.8490  146.6530 C   0  0  0  0  0  2  0  0  0  0  0  0
  163.4940  204.2330  146.1040 C   0  0  0  0  0  2  0  0  0  0  0  0
  163.5260  205.5930  145.7790 O   0  0  0  0  0  1  0  0  0  0  0  0
  160.4100  203.5910  144.9470 O   0  0  0  0  0  0  0  0  0  0  0  0
  161.0290  204.7600  144.4660 C   0  0  0  0  0  2  0  0  0  0  0  0
  160.2600  206.3430  146.2520 C   0  0  0  0  0  1  0  0  0  0  0  0
  160.2060  206.0050  144.7770 C   0  0  0  0  0  2  0  0  0  0  0  0
  1 21  1  0  0  0  0
  2 16  1  0  0  0  0
  5  7  1  0  0  0  0
  6 17  2  0  0  0  0
  7  6  1  0  0  0  0
  8 22  1  0  0  0  0
  9  5  1  0  0  0  0
  9  4  1  0  0  0  0
 10 20  1  0  0  0  0
 11  4  1  6  0  0  0
 11  6  1  0  0  0  0
 11 22  1  0  0  0  0
 12 34  1  1  0  0  0
 12 24  1  0  0  0  0
 13  1  1  0  0  0  0
 14 16  1  6  0  0  0
 14 12  1  0  0  0  0
 14 21  1  0  0  0  0
 15 30  1  0  0  0  0
 17 15  1  0  0  0  0
 18  2  1  0  0  0  0
 19  3  1  6  0  0  0
 19 18  1  0  0  0  0
 19  8  1  0  0  0  0
 21 10  1  1  0  0  0
 22 23  1  0  0  0  0
 23 15  2  0  0  0  0
 23 13  1  0  0  0  0
 24 20  1  0  0  0  0
 25 29  1  0  0  0  0
 26 31  1  6  0  0  0
 27 28  1  0  0  0  0
 28 26  1  0  0  0  0
 29 26  1  0  0  0  0
 30 27  1  0  0  0  0
 30 25  2  0  0  0  0
 31 32  1  0  0  0  0
 32 33  1  0  0  0  0
 36 35  2  0  0  0  0
 37 40  1  6  0  0  0
 37 38  1  0  0  0  0
 37 39  1  0  0  0  0
 38 39  1  0  0  0  0
 38 36  2  0  0  0  0
 39 34  1  1  0  0  0
 40 41  1  6  0  0  0
 42 40  1  0  0  0  0
 42 43  1  1  0  0  0
 44 42  1  0  0  0  0
 45 47  1  0  0  0  0
 46 47  1  0  0  0  0
 47 44  1  0  0  0  0
 48 47  1  0  0  0  0
 48 49  1  1  0  0  0
 50 49  1  0  0  0  0
 51 50  1  0  0  0  0
 52 48  1  0  0  0  0
 53 55  1  0  0  0  0
 53 52  1  0  0  0  0
 55 54  1  0  0  0  0
M  END
>  <MODEL>
1

>  <REMARK>
 VINA RESULT:      -1.6      0.000      0.000
  Name = 
  15 active torsions:
  status: ('A' for Active; 'I' for Inactive)
    1  A    between atoms: C_3  and  C_14
    2  A    between atoms: C_3  and  O_38
    3  A    between atoms: C_6  and  C_20
    4  A    between atoms: C_6  and  C_53
    5  A    between atoms: O_10  and  C_18
    6  A    between atoms: O_10  and  C_32
    7  A    between atoms: C_11  and  C_29
    8  A    between atoms: C_20  and  C_22
    9  A    between atoms: C_27  and  C_54
   10  A    between atoms: C_29  and  C_50
   11  A    between atoms: C_30  and  C_50
   12  A    between atoms: C_30  and  C_53
   13  A    between atoms: C_33  and  C_52
   14  A    between atoms: O_38  and  C_50
   15  A    between atoms: C_51  and  C_54
                            x       y       z     vdW  Elec       q    Type
                         _______ _______ _______ _____ _____    ______ ____

>  <TORSDO>
F 15

$$$$
=
 OpenBabel11062408533D

 55 60  0  0  1  0  0  0  0  0999 V2000
  159.8660  211.8030  153.4810 O   0  0  0  0  0  0  0  0  0  0  0  0
  162.7340  210.8030  152.1450 C   0  0  0  0  0  2  0  0  0  0  0  0
  162.3260  210.8690  148.3570 C   0  0  0  0  0  1  0  0  0  0  0  0
  160.1910  213.0430  147.7220 C   0  0  0  0  0  2  0  0  0  0  0  0
  158.2940  214.4530  146.6760 C   0  0  0  0  0  2  0  0  0  0  0  0
  158.1200  213.5750  148.9960 C   0  0  0  0  0  0  0  0  0  0  0  0
  157.4400  213.6470  147.6620 C   0  0  0  0  0  2  0  0  0  0  0  0
  160.5320  211.3110  150.0280 C   0  0  0  0  0  2  0  0  0  0  0  0
  159.7590  213.9720  146.5790 C   0  0  0  0  0  2  0  0  0  0  0  0
  160.3640  212.0960  155.8210 C   0  0  0  0  0  2  0  0  0  0  0  0
  159.6280  213.5180  149.0650 C   0  0  1  0  0  3  0  0  0  0  0  0
  161.0170  209.3850  155.2810 C   0  0  2  0  0  3  0  0  0  0  0  0
  160.1460  212.9240  152.7030 C   0  0  0  0  0  2  0  0  0  0  0  0
  161.6800  210.4500  154.3960 C   0  0  1  0  0  3  0  0  0  0  0  0
  158.0210  213.2520  151.3800 C   0  0  0  0  0  0  0  0  0  0  0  0
  161.8250  209.9090  152.9700 C   0  0  0  0  0  2  0  0  0  0  0  0
  157.4210  213.4230  150.0780 N   0  0  0  0  0  0  0  0  0  0  0  0
  162.7520  210.3130  150.7120 C   0  0  0  0  0  2  0  0  0  0  0  0
  162.0450  211.2860  149.7840 C   0  0  1  0  0  3  0  0  0  0  0  0
  159.6120  211.0130  156.3010 O   0  0  0  0  0  0  0  0  0  0  0  0
  160.9040  211.7880  154.4190 C   0  0  1  0  0  3  0  0  0  0  0  0
  160.0360  212.6840  150.2070 N   0  0  0  0  0  0  0  0  0  0  0  0
  159.3460  212.9390  151.4410 C   0  0  0  0  0  0  0  0  0  0  0  0
  160.5410  210.0100  156.5920 C   0  0  0  0  0  2  0  0  0  0  0  0
  155.8280  213.6970  152.4450 C   0  0  0  0  0  3  0  0  0  0  0  0
  155.3480  213.1230  154.8580 C   0  0  1  0  0  3  0  0  0  0  0  0
  157.6430  212.8270  153.8850 C   0  0  0  0  0  2  0  0  0  0  0  0
  156.8420  213.3270  155.0890 C   0  0  0  0  0  2  0  0  0  0  0  0
  154.9130  213.9030  153.6190 C   0  0  0  0  0  2  0  0  0  0  0  0
  157.1060  213.3130  152.5570 C   0  0  0  0  0  0  0  0  0  0  0  0
  155.0500  211.7650  154.7030 O   0  0  0  0  0  0  0  0  0  0  0  0
  155.7730  211.1200  155.7070 C   0  0  0  0  0  2  0  0  0  0  0  0
  154.8510  210.8070  156.8670 C   0  0  0  0  0  1  0  0  0  0  0  0
  162.0040  208.2660  155.5750 C   0  0  0  0  0  2  0  0  0  0  0  0
  157.8910  206.4890  156.2410 O   0  0  0  0  0  0  0  0  0  0  0  0
  158.9380  206.6670  155.6090 C   0  0  0  0  0  0  0  0  0  0  0  0
  160.8090  207.3190  153.7040 C   0  0  1  0  0  3  0  0  0  0  0  0
  160.0450  206.8740  154.9520 C   0  0  0  0  0  0  0  0  0  0  0  0
  161.5710  206.9950  154.8700 C   0  0  2  0  0  3  0  0  0  0  0  0
  160.8440  206.2280  152.6210 C   0  0  2  0  0  3  0  0  0  0  0  0
  161.5840  205.1020  153.0070 O   0  0  0  0  0  1  0  0  0  0  0  0
  161.3710  206.7730  151.2920 C   0  0  2  0  0  3  0  0  0  0  0  0
  160.6250  207.8780  150.8670 O   0  0  0  0  0  1  0  0  0  0  0  0
  161.4390  205.6540  150.2370 C   0  0  0  0  0  2  0  0  0  0  0  0
  162.3250  207.2200  148.6060 C   0  0  0  0  0  1  0  0  0  0  0  0
  160.0270  206.4440  148.3030 C   0  0  0  0  0  1  0  0  0  0  0  0
  161.4270  206.0060  148.7320 C   0  0  0  0  0  0  0  0  0  0  0  0
  162.0080  204.8800  147.8210 C   0  0  2  0  0  3  0  0  0  0  0  0
  161.4170  204.8780  146.3940 C   0  0  0  0  0  2  0  0  0  0  0  0
  162.4800  205.1470  145.3330 C   0  0  0  0  0  2  0  0  0  0  0  0
  163.5930  204.3260  145.5390 O   0  0  0  0  0  1  0  0  0  0  0  0
  161.8940  203.6070  148.4110 O   0  0  0  0  0  0  0  0  0  0  0  0
  160.9680  202.8720  147.6480 C   0  0  0  0  0  2  0  0  0  0  0  0
  161.0820  201.0580  149.3760 C   0  0  0  0  0  1  0  0  0  0  0  0
  160.1700  201.9010  148.5100 C   0  0  0  0  0  2  0  0  0  0  0  0
  1 21  1  0  0  0  0
  2 16  1  0  0  0  0
  5  7  1  0  0  0  0
  6 11  1  0  0  0  0
  6 17  2  0  0  0  0
  7  6  1  0  0  0  0
  8 22  1  0  0  0  0
  9  5  1  0  0  0  0
  9  4  1  0  0  0  0
 10 20  1  0  0  0  0
 11  4  1  6  0  0  0
 11 22  1  0  0  0  0
 12 34  1  1  0  0  0
 12 24  1  0  0  0  0
 13  1  1  0  0  0  0
 14 16  1  6  0  0  0
 14 21  1  0  0  0  0
 14 12  1  0  0  0  0
 15 23  2  0  0  0  0
 15 30  1  0  0  0  0
 17 15  1  0  0  0  0
 18  2  1  0  0  0  0
 19  3  1  6  0  0  0
 19  8  1  0  0  0  0
 19 18  1  0  0  0  0
 20 24  1  0  0  0  0
 21 10  1  1  0  0  0
 22 23  1  0  0  0  0
 23 13  1  0  0  0  0
 25 30  2  0  0  0  0
 25 29  1  0  0  0  0
 26 31  1  6  0  0  0
 26 28  1  0  0  0  0
 27 28  1  0  0  0  0
 29 26  1  0  0  0  0
 30 27  1  0  0  0  0
 31 32  1  0  0  0  0
 32 33  1  0  0  0  0
 36 35  2  0  0  0  0
 37 40  1  6  0  0  0
 37 39  1  0  0  0  0
 37 38  1  0  0  0  0
 38 36  2  0  0  0  0
 39 38  1  0  0  0  0
 39 34  1  1  0  0  0
 40 41  1  1  0  0  0
 42 43  1  6  0  0  0
 42 40  1  0  0  0  0
 44 42  1  0  0  0  0
 45 47  1  0  0  0  0
 46 47  1  0  0  0  0
 47 44  1  0  0  0  0
 48 49  1  6  0  0  0
 48 52  1  0  0  0  0
 48 47  1  0  0  0  0
 50 51  1  0  0  0  0
 50 49  1  0  0  0  0
 53 52  1  0  0  0  0
 53 55  1  0  0  0  0
 55 54  1  0  0  0  0
M  END
>  <MODEL>
2

>  <REMARK>
 VINA RESULT:      -1.5      1.980      4.010
  Name = 
  15 active torsions:
  status: ('A' for Active; 'I' for Inactive)
    1  A    between atoms: C_3  and  C_14
    2  A    between atoms: C_3  and  O_38
    3  A    between atoms: C_6  and  C_20
    4  A    between atoms: C_6  and  C_53
    5  A    between atoms: O_10  and  C_18
    6  A    between atoms: O_10  and  C_32
    7  A    between atoms: C_11  and  C_29
    8  A    between atoms: C_20  and  C_22
    9  A    between atoms: C_27  and  C_54
   10  A    between atoms: C_29  and  C_50
   11  A    between atoms: C_30  and  C_50
   12  A    between atoms: C_30  and  C_53
   13  A    between atoms: C_33  and  C_52
   14  A    between atoms: O_38  and  C_50
   15  A    between atoms: C_51  and  C_54
                            x       y       z     vdW  Elec       q    Type
                         _______ _______ _______ _____ _____    ______ ____

>  <TORSDO>
F 15

$$$$
=
 OpenBabel11062408533D

 55 60  0  0  1  0  0  0  0  0999 V2000
  161.3990  208.5740  150.6230 O   0  0  0  0  0  0  0  0  0  0  0  0
  161.4380  207.9490  147.3650 C   0  0  0  0  0  2  0  0  0  0  0  0
  162.2140  204.2460  146.9110 C   0  0  0  0  0  1  0  0  0  0  0  0
  161.1810  202.7940  149.4620 C   0  0  0  0  0  2  0  0  0  0  0  0
  160.8230  201.1720  151.4430 C   0  0  0  0  0  2  0  0  0  0  0  0
  161.2700  203.5890  151.8190 C   0  0  0  0  0  0  0  0  0  0  0  0
  161.7050  202.1970  152.1650 C   0  0  0  0  0  2  0  0  0  0  0  0
  162.2050  205.4830  149.0730 C   0  0  0  0  0  2  0  0  0  0  0  0
  160.7110  201.4060  149.9190 C   0  0  0  0  0  2  0  0  0  0  0  0
  160.5240  210.8140  150.7950 C   0  0  0  0  0  2  0  0  0  0  0  0
  160.7280  203.8830  150.4410 C   0  0  1  0  0  3  0  0  0  0  0  0
  162.8220  211.0650  149.1460 C   0  0  2  0  0  3  0  0  0  0  0  0
  160.4160  207.5890  150.5790 C   0  0  0  0  0  2  0  0  0  0  0  0
  161.7620  210.0450  148.7090 C   0  0  1  0  0  3  0  0  0  0  0  0
  161.1740  205.9390  152.3330 C   0  0  0  0  0  0  0  0  0  0  0  0
  162.4500  208.8340  148.0710 C   0  0  0  0  0  2  0  0  0  0  0  0
  161.4830  204.5650  152.6470 N   0  0  0  0  0  0  0  0  0  0  0  0
  162.1310  206.7010  146.8590 C   0  0  0  0  0  2  0  0  0  0  0  0
  161.6890  205.4700  147.6300 C   0  0  1  0  0  3  0  0  0  0  0  0
  161.7080  211.4370  151.2160 O   0  0  0  0  0  0  0  0  0  0  0  0
  160.8450  209.6230  149.8810 C   0  0  1  0  0  3  0  0  0  0  0  0
  161.1220  205.2430  150.0380 N   0  0  0  0  0  0  0  0  0  0  0  0
  160.9360  206.2630  151.0310 C   0  0  0  0  0  0  0  0  0  0  0  0
  162.2060  212.0980  150.0880 C   0  0  0  0  0  2  0  0  0  0  0  0
  161.9440  208.0700  153.3390 C   0  0  0  0  0  3  0  0  0  0  0  0
  161.1270  208.8840  155.5870 C   0  0  1  0  0  3  0  0  0  0  0  0
  160.4620  206.6310  154.7030 C   0  0  0  0  0  2  0  0  0  0  0  0
  160.9400  207.4090  155.9300 C   0  0  0  0  0  2  0  0  0  0  0  0
  162.1710  209.0200  154.4800 C   0  0  0  0  0  2  0  0  0  0  0  0
  161.2610  206.9230  153.4520 C   0  0  0  0  0  0  0  0  0  0  0  0
  159.9170  209.4580  155.1830 O   0  0  0  0  0  0  0  0  0  0  0  0
  159.9650  210.7700  155.6580 C   0  0  0  0  0  2  0  0  0  0  0  0
  159.0440  211.6380  154.8250 C   0  0  0  0  0  1  0  0  0  0  0  0
  163.4030  211.7650  147.9270 C   0  0  0  0  0  2  0  0  0  0  0  0
  163.9280  213.8290  143.9300 O   0  0  0  0  0  0  0  0  0  0  0  0
  163.2910  213.4890  144.9320 C   0  0  0  0  0  0  0  0  0  0  0  0
  161.4500  212.4140  146.6670 C   0  0  1  0  0  3  0  0  0  0  0  0
  162.6300  213.1130  145.9910 C   0  0  0  0  0  0  0  0  0  0  0  0
  162.4980  212.9070  147.5050 C   0  0  2  0  0  3  0  0  0  0  0  0
  160.1850  213.2870  146.6830 C   0  0  2  0  0  3  0  0  0  0  0  0
  159.4980  213.2280  147.9040 O   0  0  0  0  0  1  0  0  0  0  0  0
  159.2410  212.9300  145.5330 C   0  0  2  0  0  3  0  0  0  0  0  0
  158.2270  212.0660  145.9610 O   0  0  0  0  0  1  0  0  0  0  0  0
  160.0330  212.3770  144.3350 C   0  0  0  0  0  2  0  0  0  0  0  0
  159.4630  214.4530  143.2110 C   0  0  0  0  0  1  0  0  0  0  0  0
  158.7290  212.3630  142.1770 C   0  0  0  0  0  1  0  0  0  0  0  0
  159.8790  213.0210  142.9380 C   0  0  0  0  0  0  0  0  0  0  0  0
  161.2030  213.0530  142.1130 C   0  0  2  0  0  3  0  0  0  0  0  0
  161.2570  214.2030  141.0820 C   0  0  0  0  0  2  0  0  0  0  0  0
  160.5830  213.8260  139.7670 C   0  0  0  0  0  2  0  0  0  0  0  0
  161.5140  213.8280  138.7240 O   0  0  0  0  0  1  0  0  0  0  0  0
  161.4750  211.8170  141.4980 O   0  0  0  0  0  0  0  0  0  0  0  0
  162.8450  211.8020  141.1720 C   0  0  0  0  0  2  0  0  0  0  0  0
  161.9210  210.3170  139.3760 C   0  0  0  0  0  1  0  0  0  0  0  0
  163.1660  210.7420  140.1260 C   0  0  0  0  0  2  0  0  0  0  0  0
  2 16  1  0  0  0  0
  4  9  1  0  0  0  0
  5  7  1  0  0  0  0
  6  7  1  0  0  0  0
  6 17  2  0  0  0  0
  8 22  1  0  0  0  0
  9  5  1  0  0  0  0
 10 20  1  0  0  0  0
 11  4  1  6  0  0  0
 11  6  1  0  0  0  0
 12 34  1  6  0  0  0
 12 24  1  0  0  0  0
 13  1  1  0  0  0  0
 13 23  1  0  0  0  0
 14 16  1  1  0  0  0
 14 12  1  0  0  0  0
 14 21  1  0  0  0  0
 15 17  1  0  0  0  0
 15 30  1  0  0  0  0
 18  2  1  0  0  0  0
 18 19  1  0  0  0  0
 19  3  1  6  0  0  0
 19  8  1  0  0  0  0
 21  1  1  0  0  0  0
 21 10  1  1  0  0  0
 22 11  1  0  0  0  0
 22 23  1  0  0  0  0
 23 15  2  0  0  0  0
 24 20  1  0  0  0  0
 25 30  2  0  0  0  0
 25 29  1  0  0  0  0
 26 31  1  6  0  0  0
 26 28  1  0  0  0  0
 27 28  1  0  0  0  0
 29 26  1  0  0  0  0
 30 27  1  0  0  0  0
 31 32  1  0  0  0  0
 33 32  1  0  0  0  0
 35 36  2  0  0  0  0
 36 38  2  0  0  0  0
 37 40  1  1  0  0  0
 37 39  1  0  0  0  0
 38 37  1  0  0  0  0
 38 39  1  0  0  0  0
 39 34  1  6  0  0  0
 40 41  1  1  0  0  0
 42 43  1  1  0  0  0
 42 40  1  0  0  0  0
 44 42  1  0  0  0  0
 46 47  1  0  0  0  0
 47 45  1  0  0  0  0
 47 44  1  0  0  0  0
 48 49  1  6  0  0  0
 48 47  1  0  0  0  0
 50 49  1  0  0  0  0
 51 50  1  0  0  0  0
 52 48  1  0  0  0  0
 53 52  1  0  0  0  0
 54 55  1  0  0  0  0
 55 53  1  0  0  0  0
M  END
>  <MODEL>
3

>  <REMARK>
 VINA RESULT:      -1.0      4.073      8.677
  Name = 
  15 active torsions:
  status: ('A' for Active; 'I' for Inactive)
    1  A    between atoms: C_3  and  C_14
    2  A    between atoms: C_3  and  O_38
    3  A    between atoms: C_6  and  C_20
    4  A    between atoms: C_6  and  C_53
    5  A    between atoms: O_10  and  C_18
    6  A    between atoms: O_10  and  C_32
    7  A    between atoms: C_11  and  C_29
    8  A    between atoms: C_20  and  C_22
    9  A    between atoms: C_27  and  C_54
   10  A    between atoms: C_29  and  C_50
   11  A    between atoms: C_30  and  C_50
   12  A    between atoms: C_30  and  C_53
   13  A    between atoms: C_33  and  C_52
   14  A    between atoms: O_38  and  C_50
   15  A    between atoms: C_51  and  C_54
                            x       y       z     vdW  Elec       q    Type
                         _______ _______ _______ _____ _____    ______ ____

>  <TORSDO>
F 15

$$$$
=
 OpenBabel11062408533D

 55 60  0  0  1  0  0  0  0  0999 V2000
  161.3390  208.1760  150.6570 O   0  0  0  0  0  0  0  0  0  0  0  0
  161.3440  207.7550  147.3660 C   0  0  0  0  0  2  0  0  0  0  0  0
  162.0820  204.0810  146.6750 C   0  0  0  0  0  1  0  0  0  0  0  0
  161.0590  202.4820  149.1410 C   0  0  0  0  0  2  0  0  0  0  0  0
  160.7030  200.7420  151.0200 C   0  0  0  0  0  2  0  0  0  0  0  0
  161.1760  203.1270  151.5420 C   0  0  0  0  0  0  0  0  0  0  0  0
  161.6020  201.7130  151.7970 C   0  0  0  0  0  2  0  0  0  0  0  0
  162.1040  205.1810  148.9100 C   0  0  0  0  0  2  0  0  0  0  0  0
  160.5800  201.0720  149.5150 C   0  0  0  0  0  2  0  0  0  0  0  0
  160.4860  210.4080  150.9760 C   0  0  0  0  0  2  0  0  0  0  0  0
  160.6250  203.5110  150.1890 C   0  0  1  0  0  3  0  0  0  0  0  0
  162.7720  210.7420  149.3240 C   0  0  2  0  0  3  0  0  0  0  0  0
  160.3470  207.2040  150.5610 C   0  0  0  0  0  2  0  0  0  0  0  0
  161.6980  209.7600  148.8350 C   0  0  1  0  0  3  0  0  0  0  0  0
  161.1050  205.4420  152.2020 C   0  0  2  0  0  3  0  0  0  0  0  0
  162.3700  208.5860  148.1160 C   0  0  0  0  0  2  0  0  0  0  0  0
  161.4050  204.0480  152.4260 N   0  0  0  0  0  0  0  0  0  0  0  0
  162.0210  206.5350  146.7760 C   0  0  0  0  0  2  0  0  0  0  0  0
  161.5740  205.2620  147.4740 C   0  0  1  0  0  3  0  0  0  0  0  0
  161.6790  210.9940  151.4230 O   0  0  0  0  0  0  0  0  0  0  0  0
  160.7890  209.2740  149.9870 C   0  0  1  0  0  3  0  0  0  0  0  0
  161.0270  204.8900  149.8680 N   0  0  1  0  0  0  0  0  0  0  0  0
  160.8590  205.8490  150.9250 C   0  0  1  0  0  3  0  0  0  0  0  0
  162.1730  211.7190  150.3350 C   0  0  0  0  0  2  0  0  0  0  0  0
  161.7440  207.5790  153.2840 C   0  0  0  0  0  3  0  0  0  0  0  0
  161.1080  208.1390  155.6640 C   0  0  1  0  0  3  0  0  0  0  0  0
  160.6010  205.8860  154.6820 C   0  0  0  0  0  2  0  0  0  0  0  0
  161.1280  206.6330  155.9070 C   0  0  0  0  0  2  0  0  0  0  0  0
  161.9940  208.4720  154.4650 C   0  0  0  0  0  2  0  0  0  0  0  0
  161.2110  206.3530  153.3790 C   0  0  0  0  0  0  0  0  0  0  0  0
  159.8030  208.5890  155.4390 O   0  0  0  0  0  0  0  0  0  0  0  0
  159.8500  209.9640  155.6770 C   0  0  0  0  0  2  0  0  0  0  0  0
  159.6570  210.2240  157.1560 C   0  0  0  0  0  1  0  0  0  0  0  0
  163.3480  211.5120  148.1460 C   0  0  0  0  0  2  0  0  0  0  0  0
  163.0890  213.8230  144.2600 O   0  0  0  0  0  0  0  0  0  0  0  0
  162.7600  213.5560  145.4200 C   0  0  0  0  0  0  0  0  0  0  0  0
  161.3850  212.8370  147.6890 C   0  0  1  0  0  3  0  0  0  0  0  0
  162.4180  213.2530  146.6410 C   0  0  0  0  0  0  0  0  0  0  0  0
  162.7530  212.9060  148.0960 C   0  0  2  0  0  3  0  0  0  0  0  0
  160.5350  214.0240  148.1740 C   0  0  2  0  0  3  0  0  0  0  0  0
  160.8080  214.3800  149.5030 O   0  0  0  0  0  1  0  0  0  0  0  0
  159.0400  213.7530  148.0000 C   0  0  2  0  0  3  0  0  0  0  0  0
  158.5980  214.1590  146.7350 O   0  0  0  0  0  1  0  0  0  0  0  0
  158.2370  214.3910  149.1470 C   0  0  0  0  0  2  0  0  0  0  0  0
  156.9460  212.3340  149.1310 C   0  0  0  0  0  1  0  0  0  0  0  0
  155.7390  214.4360  148.8110 C   0  0  0  0  0  1  0  0  0  0  0  0
  156.8840  213.7800  149.5810 C   0  0  0  0  0  0  0  0  0  0  0  0
  156.6560  213.7950  151.1250 C   0  0  2  0  0  3  0  0  0  0  0  0
  155.2810  214.3660  151.5370 C   0  0  0  0  0  2  0  0  0  0  0  0
  154.5910  213.4990  152.5850 C   0  0  0  0  0  2  0  0  0  0  0  0
  154.5680  214.1540  153.8210 O   0  0  0  0  0  1  0  0  0  0  0  0
  157.6950  214.4530  151.8090 O   0  0  0  0  0  0  0  0  0  0  0  0
  157.7720  213.8910  153.0970 C   0  0  0  0  0  2  0  0  0  0  0  0
  159.5190  212.1210  153.4100 C   0  0  0  0  0  1  0  0  0  0  0  0
  158.0750  212.3990  153.0470 C   0  0  0  0  0  2  0  0  0  0  0  0
  2 16  1  0  0  0  0
  4  9  1  0  0  0  0
  5  7  1  0  0  0  0
  6  7  1  0  0  0  0
  6 17  2  0  0  0  0
  9  5  1  0  0  0  0
 10 20  1  0  0  0  0
 11  4  1  6  0  0  0
 11  6  1  0  0  0  0
 12 34  1  6  0  0  0
 12 24  1  0  0  0  0
 13  1  1  0  0  0  0
 14 16  1  1  0  0  0
 14 12  1  0  0  0  0
 14 21  1  0  0  0  0
 15 17  1  0  0  0  0
 15 30  1  6  0  0  0
 18  2  1  0  0  0  0
 18 19  1  0  0  0  0
 19  3  1  6  0  0  0
 19  8  1  0  0  0  0
 21  1  1  0  0  0  0
 21 10  1  1  0  0  0
 22  8  1  1  0  0  0
 22 11  1  0  0  0  0
 22 23  1  0  0  0  0
 23 13  1  1  0  0  0
 23 15  1  0  0  0  0
 24 20  1  0  0  0  0
 25 30  2  0  0  0  0
 25 29  1  0  0  0  0
 26 31  1  6  0  0  0
 26 28  1  0  0  0  0
 27 28  1  0  0  0  0
 29 26  1  0  0  0  0
 30 27  1  0  0  0  0
 31 32  1  0  0  0  0
 32 33  1  0  0  0  0
 35 36  2  0  0  0  0
 36 38  2  0  0  0  0
 37 39  1  0  0  0  0
 37 40  1  1  0  0  0
 38 37  1  0  0  0  0
 38 39  1  0  0  0  0
 39 34  1  6  0  0  0
 40 41  1  1  0  0  0
 42 43  1  6  0  0  0
 42 40  1  0  0  0  0
 42 44  1  0  0  0  0
 44 47  1  0  0  0  0
 45 47  1  0  0  0  0
 46 47  1  0  0  0  0
 47 48  1  0  0  0  0
 48 49  1  6  0  0  0
 48 52  1  0  0  0  0
 49 50  1  0  0  0  0
 50 51  1  0  0  0  0
 52 53  1  0  0  0  0
 55 53  1  0  0  0  0
 55 54  1  0  0  0  0
M  END
>  <MODEL>
4

>  <REMARK>
 VINA RESULT:      -0.9      2.958      9.461
  Name = 
  15 active torsions:
  status: ('A' for Active; 'I' for Inactive)
    1  A    between atoms: C_3  and  C_14
    2  A    between atoms: C_3  and  O_38
    3  A    between atoms: C_6  and  C_20
    4  A    between atoms: C_6  and  C_53
    5  A    between atoms: O_10  and  C_18
    6  A    between atoms: O_10  and  C_32
    7  A    between atoms: C_11  and  C_29
    8  A    between atoms: C_20  and  C_22
    9  A    between atoms: C_27  and  C_54
   10  A    between atoms: C_29  and  C_50
   11  A    between atoms: C_30  and  C_50
   12  A    between atoms: C_30  and  C_53
   13  A    between atoms: C_33  and  C_52
   14  A    between atoms: O_38  and  C_50
   15  A    between atoms: C_51  and  C_54
                            x       y       z     vdW  Elec       q    Type
                         _______ _______ _______ _____ _____    ______ ____

>  <TORSDO>
F 15

$$$$
=
 OpenBabel11062408533D

 55 60  0  0  1  0  0  0  0  0999 V2000
  160.9180  209.2030  153.0700 O   0  0  0  0  0  0  0  0  0  0  0  0
  162.7770  207.4350  150.9650 C   0  0  0  0  0  2  0  0  0  0  0  0
  162.4200  209.0070  147.5120 C   0  0  0  0  0  1  0  0  0  0  0  0
  161.7860  212.0210  147.9600 C   0  0  0  0  0  2  0  0  0  0  0  0
  160.9350  214.4530  147.7550 C   0  0  0  0  0  2  0  0  0  0  0  0
  160.3450  213.0390  149.7150 C   0  0  0  0  0  0  0  0  0  0  0  0
  159.7940  213.9010  148.6180 C   0  0  0  0  0  2  0  0  0  0  0  0
  161.1690  209.6780  149.5600 C   0  0  0  0  0  2  0  0  0  0  0  0
  161.9090  213.3710  147.2380 C   0  0  0  0  0  2  0  0  0  0  0  0
  161.5250  208.3730  155.2500 C   0  0  0  0  0  2  0  0  0  0  0  0
  161.5850  212.2140  149.4660 C   0  0  1  0  0  3  0  0  0  0  0  0
  160.6080  206.0850  153.8400 C   0  0  2  0  0  3  0  0  0  0  0  0
  161.7480  210.2210  152.6050 C   0  0  0  0  0  2  0  0  0  0  0  0
  161.7280  206.9040  153.1830 C   0  0  1  0  0  3  0  0  0  0  0  0
  160.1180  212.0060  151.8780 C   0  0  0  0  0  0  0  0  0  0  0  0
  161.5410  206.8970  151.6630 C   0  0  0  0  0  2  0  0  0  0  0  0
  159.6890  212.8940  150.8240 N   0  0  0  0  0  0  0  0  0  0  0  0
  162.5100  207.5360  149.4780 C   0  0  0  0  0  2  0  0  0  0  0  0
  162.4270  208.9830  149.0250 C   0  0  1  0  0  3  0  0  0  0  0  0
  160.3140  207.7260  155.5390 O   0  0  0  0  0  0  0  0  0  0  0  0
  161.7960  208.3440  153.7400 C   0  0  1  0  0  3  0  0  0  0  0  0
  161.4940  210.9520  150.2180 N   0  0  0  0  0  0  0  0  0  0  0  0
  161.0660  211.0720  151.5840 C   0  0  0  0  0  0  0  0  0  0  0  0
  160.5600  206.3640  155.3420 C   0  0  0  0  0  2  0  0  0  0  0  0
  160.0260  212.4130  154.3210 C   0  0  0  0  0  3  0  0  0  0  0  0
  157.8480  212.5450  155.5940 C   0  0  1  0  0  3  0  0  0  0  0  0
  157.8920  211.9420  153.1590 C   0  0  0  0  0  2  0  0  0  0  0  0
  157.2930  211.6080  154.5250 C   0  0  0  0  0  2  0  0  0  0  0  0
  159.3660  212.3890  155.6700 C   0  0  0  0  0  2  0  0  0  0  0  0
  159.3960  212.1050  153.1790 C   0  0  0  0  0  0  0  0  0  0  0  0
  157.5130  213.8740  155.3140 O   0  0  0  0  0  0  0  0  0  0  0  0
  156.6520  214.2540  156.3450 C   0  0  0  0  0  2  0  0  0  0  0  0
  155.2740  213.6850  156.0820 C   0  0  0  0  0  1  0  0  0  0  0  0
  160.8390  204.6010  153.6010 C   0  0  0  0  0  2  0  0  0  0  0  0
  162.1910  200.4950  152.2500 O   0  0  0  0  0  0  0  0  0  0  0  0
  161.8240  201.6610  152.0710 C   0  0  0  0  0  0  0  0  0  0  0  0
  160.4710  203.9300  151.3130 C   0  0  1  0  0  3  0  0  0  0  0  0
  161.4260  202.8910  151.9000 C   0  0  0  0  0  0  0  0  0  0  0  0
  161.4620  204.3870  152.2350 C   0  0  2  0  0  3  0  0  0  0  0  0
  160.7950  204.2580  149.8460 C   0  0  2  0  0  3  0  0  0  0  0  0
  160.0290  205.3200  149.3430 O   0  0  0  0  0  1  0  0  0  0  0  0
  160.6390  203.0290  148.9480 C   0  0  2  0  0  3  0  0  0  0  0  0
  160.4840  201.8640  149.7080 O   0  0  0  0  0  1  0  0  0  0  0  0
  161.8030  202.9400  147.9450 C   0  0  0  0  0  2  0  0  0  0  0  0
  163.2090  203.9310  146.2310 C   0  0  0  0  0  1  0  0  0  0  0  0
  161.1900  205.1440  146.8860 C   0  0  0  0  0  1  0  0  0  0  0  0
  161.7570  203.7490  146.6290 C   0  0  0  0  0  0  0  0  0  0  0  0
  161.0280  203.0100  145.4640 C   0  0  2  0  0  3  0  0  0  0  0  0
  160.2980  203.9640  144.4920 C   0  0  0  0  0  2  0  0  0  0  0  0
  161.1630  205.1590  144.1060 C   0  0  0  0  0  2  0  0  0  0  0  0
  160.6590  206.3320  144.6780 O   0  0  0  0  0  1  0  0  0  0  0  0
  160.1550  202.0110  145.9330 O   0  0  0  0  0  0  0  0  0  0  0  0
  160.0930  201.0090  144.9460 C   0  0  0  0  0  2  0  0  0  0  0  0
  161.2290  199.8040  146.8290 C   0  0  0  0  0  1  0  0  0  0  0  0
  160.8570  199.7570  145.3620 C   0  0  0  0  0  2  0  0  0  0  0  0
  1 21  1  0  0  0  0
  2 16  1  0  0  0  0
  5  7  1  0  0  0  0
  6 17  2  0  0  0  0
  7  6  1  0  0  0  0
  8 22  1  0  0  0  0
  9  5  1  0  0  0  0
  9  4  1  0  0  0  0
 10 20  1  0  0  0  0
 11  4  1  6  0  0  0
 11  6  1  0  0  0  0
 11 22  1  0  0  0  0
 12 34  1  1  0  0  0
 12 24  1  0  0  0  0
 13  1  1  0  0  0  0
 14 16  1  6  0  0  0
 14 21  1  0  0  0  0
 14 12  1  0  0  0  0
 15 30  1  0  0  0  0
 17 15  1  0  0  0  0
 18  2  1  0  0  0  0
 19  3  1  6  0  0  0
 19 18  1  0  0  0  0
 19  8  1  0  0  0  0
 21 10  1  1  0  0  0
 22 23  1  0  0  0  0
 23 15  2  0  0  0  0
 23 13  1  0  0  0  0
 24 20  1  0  0  0  0
 25 29  1  0  0  0  0
 26 31  1  6  0  0  0
 26 29  1  0  0  0  0
 27 30  1  0  0  0  0
 27 28  1  0  0  0  0
 28 26  1  0  0  0  0
 30 25  2  0  0  0  0
 31 32  1  0  0  0  0
 33 32  1  0  0  0  0
 36 35  2  0  0  0  0
 37 40  1  6  0  0  0
 37 38  1  0  0  0  0
 37 39  1  0  0  0  0
 38 36  2  0  0  0  0
 38 39  1  0  0  0  0
 39 34  1  1  0  0  0
 40 41  1  6  0  0  0
 42 43  1  1  0  0  0
 42 40  1  0  0  0  0
 44 42  1  0  0  0  0
 45 47  1  0  0  0  0
 47 46  1  0  0  0  0
 47 44  1  0  0  0  0
 48 49  1  1  0  0  0
 48 52  1  0  0  0  0
 48 47  1  0  0  0  0
 50 49  1  0  0  0  0
 50 51  1  0  0  0  0
 53 55  1  0  0  0  0
 53 52  1  0  0  0  0
 55 54  1  0  0  0  0
M  END
>  <MODEL>
5

>  <REMARK>
 VINA RESULT:      -0.5      0.946      1.946
  Name = 
  15 active torsions:
  status: ('A' for Active; 'I' for Inactive)
    1  A    between atoms: C_3  and  C_14
    2  A    between atoms: C_3  and  O_38
    3  A    between atoms: C_6  and  C_20
    4  A    between atoms: C_6  and  C_53
    5  A    between atoms: O_10  and  C_18
    6  A    between atoms: O_10  and  C_32
    7  A    between atoms: C_11  and  C_29
    8  A    between atoms: C_20  and  C_22
    9  A    between atoms: C_27  and  C_54
   10  A    between atoms: C_29  and  C_50
   11  A    between atoms: C_30  and  C_50
   12  A    between atoms: C_30  and  C_53
   13  A    between atoms: C_33  and  C_52
   14  A    between atoms: O_38  and  C_50
   15  A    between atoms: C_51  and  C_54
                            x       y       z     vdW  Elec       q    Type
                         _______ _______ _______ _____ _____    ______ ____

>  <TORSDO>
F 15

$$$$
=
 OpenBabel11062408533D

 55 60  0  0  1  0  0  0  0  0999 V2000
  159.3300  212.8650  151.2990 O   0  0  0  0  0  0  0  0  0  0  0  0
  162.1080  212.1730  149.6200 C   0  0  0  0  0  2  0  0  0  0  0  0
  161.1630  211.7440  145.9540 C   0  0  0  0  0  1  0  0  0  0  0  0
  158.6230  213.4780  145.4740 C   0  0  0  0  0  2  0  0  0  0  0  0
  156.3860  214.4510  144.6190 C   0  0  0  0  0  2  0  0  0  0  0  0
  156.6930  213.8250  147.0070 C   0  0  0  0  0  0  0  0  0  0  0  0
  155.8290  213.6400  145.7960 C   0  0  0  0  0  2  0  0  0  0  0  0
  159.5740  212.0920  147.8420 C   0  0  0  0  0  2  0  0  0  0  0  0
  157.8830  214.1940  144.3350 C   0  0  0  0  0  2  0  0  0  0  0  0
  160.0970  213.4940  153.4950 C   0  0  0  0  0  2  0  0  0  0  0  0
  158.1830  214.0090  146.8410 C   0  0  1  0  0  3  0  0  0  0  0  0
  161.1170  210.8730  153.1030 C   0  0  2  0  0  3  0  0  0  0  0  0
  159.3030  213.9190  150.3900 C   0  0  0  0  0  2  0  0  0  0  0  0
  161.4580  211.9200  152.0320 C   0  0  1  0  0  3  0  0  0  0  0  0
  156.9880  213.7640  149.3960 C   0  0  0  0  0  0  0  0  0  0  0  0
  161.4900  211.2490  150.6550 C   0  0  0  0  0  2  0  0  0  0  0  0
  156.1900  213.6920  148.1950 N   0  0  0  0  0  0  0  0  0  0  0  0
  162.0060  211.5320  148.2520 C   0  0  0  0  0  2  0  0  0  0  0  0
  161.0200  212.2720  147.3650 C   0  0  1  0  0  3  0  0  0  0  0  0
  159.6150  212.3700  154.1830 O   0  0  0  0  0  0  0  0  0  0  0  0
  160.4790  213.1160  152.0580 C   0  0  1  0  0  3  0  0  0  0  0  0
  158.8840  213.3830  147.9750 N   0  0  0  0  0  0  0  0  0  0  0  0
  158.3420  213.6680  149.2740 C   0  0  0  0  0  0  0  0  0  0  0  0
  160.7330  211.5620  154.4110 C   0  0  0  0  0  2  0  0  0  0  0  0
  154.9170  213.7250  150.7570 C   0  0  0  0  0  3  0  0  0  0  0  0
  154.9530  213.6470  153.2820 C   0  0  1  0  0  3  0  0  0  0  0  0
  157.0740  213.8780  151.9610 C   0  0  0  0  0  2  0  0  0  0  0  0
  156.2900  214.3750  153.1760 C   0  0  0  0  0  2  0  0  0  0  0  0
  154.1290  213.9100  152.0220 C   0  0  0  0  0  2  0  0  0  0  0  0
  156.2520  213.8170  150.6930 C   0  0  0  0  0  0  0  0  0  0  0  0
  155.1470  212.2720  153.4530 O   0  0  0  0  0  0  0  0  0  0  0  0
  155.7430  212.1460  154.7090 C   0  0  0  0  0  2  0  0  0  0  0  0
  155.6940  210.6960  155.1440 C   0  0  0  0  0  1  0  0  0  0  0  0
  162.3110  209.9590  153.3350 C   0  0  0  0  0  2  0  0  0  0  0  0
  158.9140  208.3690  155.8730 O   0  0  0  0  0  0  0  0  0  0  0  0
  159.6770  208.3570  154.9020 C   0  0  0  0  0  0  0  0  0  0  0  0
  160.7550  208.3850  152.3740 C   0  0  1  0  0  3  0  0  0  0  0  0
  160.4860  208.3670  153.8790 C   0  0  0  0  0  0  0  0  0  0  0  0
  161.8770  208.5080  153.2510 C   0  0  2  0  0  3  0  0  0  0  0  0
  160.6180  206.9900  151.7400 C   0  0  2  0  0  3  0  0  0  0  0  0
  160.8150  205.9520  152.6620 O   0  0  0  0  0  1  0  0  0  0  0  0
  161.5630  206.8200  150.5490 C   0  0  2  0  0  3  0  0  0  0  0  0
  162.6430  207.7070  150.6300 O   0  0  0  0  0  1  0  0  0  0  0  0
  160.7900  206.9360  149.2230 C   0  0  0  0  0  2  0  0  0  0  0  0
  162.7170  207.2000  147.7690 C   0  0  0  0  0  1  0  0  0  0  0  0
  160.5450  206.8070  146.7170 C   0  0  0  0  0  1  0  0  0  0  0  0
  161.4220  206.4240  147.9090 C   0  0  0  0  0  0  0  0  0  0  0  0
  161.7710  204.9030  147.9320 C   0  0  2  0  0  3  0  0  0  0  0  0
  162.0050  204.3050  146.5270 C   0  0  0  0  0  2  0  0  0  0  0  0
  161.2040  203.0260  146.3080 C   0  0  0  0  0  2  0  0  0  0  0  0
  160.8250  202.9110  144.9670 O   0  0  0  0  0  1  0  0  0  0  0  0
  160.8180  204.1510  148.6440 O   0  0  0  0  0  0  0  0  0  0  0  0
  161.3870  203.8210  149.8880 C   0  0  0  0  0  2  0  0  0  0  0  0
  161.0940  202.4960  151.9970 C   0  0  0  0  0  1  0  0  0  0  0  0
  160.4020  203.0770  150.7810 C   0  0  0  0  0  2  0  0  0  0  0  0
  1 21  1  0  0  0  0
  2 16  1  0  0  0  0
  5  7  1  0  0  0  0
  6 17  2  0  0  0  0
  7  6  1  0  0  0  0
  8 22  1  0  0  0  0
  9  5  1  0  0  0  0
  9  4  1  0  0  0  0
 10 20  1  0  0  0  0
 11  4  1  6  0  0  0
 11  6  1  0  0  0  0
 11 22  1  0  0  0  0
 12 34  1  1  0  0  0
 12 24  1  0  0  0  0
 13  1  1  0  0  0  0
 14 16  1  6  0  0  0
 14 21  1  0  0  0  0
 14 12  1  0  0  0  0
 15 30  1  0  0  0  0
 17 15  1  0  0  0  0
 18  2  1  0  0  0  0
 19  3  1  6  0  0  0
 19  8  1  0  0  0  0
 19 18  1  0  0  0  0
 20 24  1  0  0  0  0
 21 10  1  1  0  0  0
 22 23  1  0  0  0  0
 23 15  2  0  0  0  0
 23 13  1  0  0  0  0
 25 29  1  0  0  0  0
 26 31  1  6  0  0  0
 27 28  1  0  0  0  0
 28 26  1  0  0  0  0
 29 26  1  0  0  0  0
 30 25  2  0  0  0  0
 30 27  1  0  0  0  0
 31 32  1  0  0  0  0
 32 33  1  0  0  0  0
 36 35  2  0  0  0  0
 37 40  1  1  0  0  0
 37 39  1  0  0  0  0
 37 38  1  0  0  0  0
 38 36  2  0  0  0  0
 39 34  1  6  0  0  0
 39 38  1  0  0  0  0
 40 41  1  1  0  0  0
 42 43  1  6  0  0  0
 42 40  1  0  0  0  0
 44 42  1  0  0  0  0
 45 47  1  0  0  0  0
 46 47  1  0  0  0  0
 47 48  1  0  0  0  0
 47 44  1  0  0  0  0
 48 49  1  6  0  0  0
 48 52  1  0  0  0  0
 50 49  1  0  0  0  0
 51 50  1  0  0  0  0
 52 53  1  0  0  0  0
 53 55  1  0  0  0  0
 55 54  1  0  0  0  0
M  END
>  <MODEL>
6

>  <REMARK>
 VINA RESULT:       0.1      2.581      5.052
  Name = 
  15 active torsions:
  status: ('A' for Active; 'I' for Inactive)
    1  A    between atoms: C_3  and  C_14
    2  A    between atoms: C_3  and  O_38
    3  A    between atoms: C_6  and  C_20
    4  A    between atoms: C_6  and  C_53
    5  A    between atoms: O_10  and  C_18
    6  A    between atoms: O_10  and  C_32
    7  A    between atoms: C_11  and  C_29
    8  A    between atoms: C_20  and  C_22
    9  A    between atoms: C_27  and  C_54
   10  A    between atoms: C_29  and  C_50
   11  A    between atoms: C_30  and  C_50
   12  A    between atoms: C_30  and  C_53
   13  A    between atoms: C_33  and  C_52
   14  A    between atoms: O_38  and  C_50
   15  A    between atoms: C_51  and  C_54
                            x       y       z     vdW  Elec       q    Type
                         _______ _______ _______ _____ _____    ______ ____

>  <TORSDO>
F 15

$$$$
=
 OpenBabel11062408533D

 55 60  0  0  1  0  0  0  0  0999 V2000
  160.4670  210.6850  153.2100 O   0  0  0  0  0  0  0  0  0  0  0  0
  159.6580  212.9910  150.9650 C   0  0  0  0  0  2  0  0  0  0  0  0
  156.1640  214.2520  151.8150 C   0  0  0  0  0  1  0  0  0  0  0  0
  155.7990  213.8810  154.8840 C   0  0  0  0  0  2  0  0  0  0  0  0
  154.8580  213.5000  157.2610 C   0  0  0  0  0  2  0  0  0  0  0  0
  156.5950  211.9980  156.3050 C   0  0  0  0  0  0  0  0  0  0  0  0
  155.2420  212.0480  156.9500 C   0  0  0  0  0  2  0  0  0  0  0  0
  157.3590  212.3810  152.9470 C   0  0  0  0  0  2  0  0  0  0  0  0
  154.9820  214.4530  156.0510 C   0  0  0  0  0  2  0  0  0  0  0  0
  162.8050  210.2550  152.8130 C   0  0  0  0  0  2  0  0  0  0  0  0
  157.0280  213.1180  155.3890 C   0  0  1  0  0  3  0  0  0  0  0  0
  161.5420  209.6980  150.3320 C   0  0  2  0  0  3  0  0  0  0  0  0
  160.2310  211.7530  154.0710 C   0  0  0  0  0  2  0  0  0  0  0  0
  161.2880  211.0820  150.9460 C   0  0  1  0  0  3  0  0  0  0  0  0
  158.6030  210.7940  155.7460 C   0  0  0  0  0  0  0  0  0  0  0  0
  159.8540  211.5210  150.6380 C   0  0  0  0  0  2  0  0  0  0  0  0
  157.3350  210.9400  156.4200 N   0  0  0  0  0  0  0  0  0  0  0  0
  158.2010  213.3580  150.7730 C   0  0  0  0  0  2  0  0  0  0  0  0
  157.5220  213.6480  152.1000 C   0  0  1  0  0  3  0  0  0  0  0  0
  162.6650  208.9590  152.2960 O   0  0  0  0  0  0  0  0  0  0  0  0
  161.5750  211.1040  152.4650 C   0  0  1  0  0  3  0  0  0  0  0  0
  157.8710  212.5730  154.3120 N   0  0  0  0  0  0  0  0  0  0  0  0
  158.8920  211.6530  154.7280 C   0  0  0  0  0  0  0  0  0  0  0  0
  162.8170  209.0880  150.9130 C   0  0  0  0  0  2  0  0  0  0  0  0
  158.9730  208.3760  156.1420 C   0  0  0  0  0  3  0  0  0  0  0  0
  161.2540  207.4170  156.6540 C   0  0  1  0  0  3  0  0  0  0  0  0
  160.9040  209.8940  156.4500 C   0  0  0  0  0  2  0  0  0  0  0  0
  161.5700  208.7810  157.2600 C   0  0  0  0  0  2  0  0  0  0  0  0
  159.7430  207.1950  156.6620 C   0  0  0  0  0  2  0  0  0  0  0  0
  159.4470  209.6290  156.1410 C   0  0  0  0  0  0  0  0  0  0  0  0
  161.7490  207.3260  155.3490 O   0  0  0  0  0  0  0  0  0  0  0  0
  161.2740  206.1040  154.8680 C   0  0  0  0  0  2  0  0  0  0  0  0
  161.7020  205.9340  153.4250 C   0  0  0  0  0  1  0  0  0  0  0  0
  161.6720  209.8150  148.8210 C   0  0  0  0  0  2  0  0  0  0  0  0
  160.6200  205.9450  150.9260 O   0  0  0  0  0  0  0  0  0  0  0  0
  160.9140  206.6330  149.9430 C   0  0  0  0  0  0  0  0  0  0  0  0
  160.9250  207.9260  147.5170 C   0  0  1  0  0  3  0  0  0  0  0  0
  161.2140  207.3770  148.9150 C   0  0  0  0  0  0  0  0  0  0  0  0
  162.0410  208.4690  148.2270 C   0  0  2  0  0  3  0  0  0  0  0  0
  161.3200  206.9380  146.4080 C   0  0  2  0  0  3  0  0  0  0  0  0
  160.2140  206.2950  145.8320 O   0  0  0  0  0  1  0  0  0  0  0  0
  162.3250  205.9000  146.9110 C   0  0  2  0  0  3  0  0  0  0  0  0
  163.3570  205.7060  145.9860 O   0  0  0  0  0  1  0  0  0  0  0  0
  161.6090  204.5930  147.2920 C   0  0  0  0  0  2  0  0  0  0  0  0
  163.0730  203.2320  145.9130 C   0  0  0  0  0  1  0  0  0  0  0  0
  160.8380  203.7250  145.0540 C   0  0  0  0  0  1  0  0  0  0  0  0
  161.6220  203.3890  146.3220 C   0  0  0  0  0  0  0  0  0  0  0  0
  161.1580  202.0510  146.9770 C   0  0  2  0  0  3  0  0  0  0  0  0
  160.8150  200.9500  145.9480 C   0  0  0  0  0  2  0  0  0  0  0  0
  161.0180  199.5500  146.5180 C   0  0  0  0  0  2  0  0  0  0  0  0
  161.5260  198.6930  145.5360 O   0  0  0  0  0  1  0  0  0  0  0  0
  160.0950  202.2420  147.8780 O   0  0  0  0  0  0  0  0  0  0  0  0
  160.4370  201.5870  149.0760 C   0  0  0  0  0  2  0  0  0  0  0  0
  161.6070  201.9950  151.2560 C   0  0  0  0  0  1  0  0  0  0  0  0
  160.6750  202.5740  150.2130 C   0  0  0  0  0  2  0  0  0  0  0  0
  1 13  1  0  0  0  0
  4  9  1  0  0  0  0
  6 17  2  0  0  0  0
  6  7  1  0  0  0  0
  7  5  1  0  0  0  0
  8 22  1  0  0  0  0
  9  5  1  0  0  0  0
 11  4  1  6  0  0  0
 11  6  1  0  0  0  0
 12 34  1  6  0  0  0
 12 24  1  0  0  0  0
 12 14  1  0  0  0  0
 13 23  1  0  0  0  0
 14 16  1  1  0  0  0
 14 21  1  0  0  0  0
 15 30  1  0  0  0  0
 15 17  1  0  0  0  0
 16  2  1  0  0  0  0
 18  2  1  0  0  0  0
 18 19  1  0  0  0  0
 19  3  1  6  0  0  0
 19  8  1  0  0  0  0
 20 10  1  0  0  0  0
 21 10  1  6  0  0  0
 21  1  1  0  0  0  0
 22 23  1  0  0  0  0
 22 11  1  0  0  0  0
 23 15  2  0  0  0  0
 24 20  1  0  0  0  0
 25 29  1  0  0  0  0
 26 31  1  6  0  0  0
 26 29  1  0  0  0  0
 26 28  1  0  0  0  0
 27 28  1  0  0  0  0
 30 25  2  0  0  0  0
 30 27  1  0  0  0  0
 32 31  1  0  0  0  0
 33 32  1  0  0  0  0
 36 35  2  0  0  0  0
 37 40  1  6  0  0  0
 37 39  1  0  0  0  0
 37 38  1  0  0  0  0
 38 36  2  0  0  0  0
 39 34  1  1  0  0  0
 39 38  1  0  0  0  0
 40 41  1  1  0  0  0
 40 42  1  0  0  0  0
 42 43  1  6  0  0  0
 42 44  1  0  0  0  0
 45 47  1  0  0  0  0
 46 47  1  0  0  0  0
 47 48  1  0  0  0  0
 47 44  1  0  0  0  0
 48 49  1  6  0  0  0
 48 52  1  0  0  0  0
 49 50  1  0  0  0  0
 51 50  1  0  0  0  0
 52 53  1  0  0  0  0
 53 55  1  0  0  0  0
 55 54  1  0  0  0  0
M  END
>  <MODEL>
7

>  <REMARK>
 VINA RESULT:       0.1      2.101      6.135
  Name = 
  15 active torsions:
  status: ('A' for Active; 'I' for Inactive)
    1  A    between atoms: C_3  and  C_14
    2  A    between atoms: C_3  and  O_38
    3  A    between atoms: C_6  and  C_20
    4  A    between atoms: C_6  and  C_53
    5  A    between atoms: O_10  and  C_18
    6  A    between atoms: O_10  and  C_32
    7  A    between atoms: C_11  and  C_29
    8  A    between atoms: C_20  and  C_22
    9  A    between atoms: C_27  and  C_54
   10  A    between atoms: C_29  and  C_50
   11  A    between atoms: C_30  and  C_50
   12  A    between atoms: C_30  and  C_53
   13  A    between atoms: C_33  and  C_52
   14  A    between atoms: O_38  and  C_50
   15  A    between atoms: C_51  and  C_54
                            x       y       z     vdW  Elec       q    Type
                         _______ _______ _______ _____ _____    ______ ____

>  <TORSDO>
F 15

$$$$
=
 OpenBabel11062408533D

 55 60  0  0  1  0  0  0  0  0999 V2000
  161.0010  209.1200  152.7290 O   0  0  0  0  0  0  0  0  0  0  0  0
  163.0620  207.3280  150.8430 C   0  0  0  0  0  2  0  0  0  0  0  0
  163.1180  208.9080  147.3760 C   0  0  0  0  0  1  0  0  0  0  0  0
  162.4790  211.9300  147.7570 C   0  0  0  0  0  2  0  0  0  0  0  0
  161.6890  214.3740  147.4640 C   0  0  0  0  0  2  0  0  0  0  0  0
  160.8620  212.9660  149.3400 C   0  0  0  0  0  0  0  0  0  0  0  0
  160.4500  213.8370  148.1910 C   0  0  0  0  0  2  0  0  0  0  0  0
  161.6530  209.5940  149.2710 C   0  0  0  0  0  2  0  0  0  0  0  0
  162.7010  213.2790  147.0570 C   0  0  0  0  0  2  0  0  0  0  0  0
  161.3470  208.2790  154.9610 C   0  0  0  0  0  2  0  0  0  0  0  0
  162.1110  212.1240  149.2310 C   0  0  1  0  0  3  0  0  0  0  0  0
  160.5630  206.0050  153.4510 C   0  0  2  0  0  3  0  0  0  0  0  0
  161.8920  210.1260  152.3640 C   0  0  0  0  0  2  0  0  0  0  0  0
  161.7620  206.8090  152.9270 C   0  0  1  0  0  3  0  0  0  0  0  0
  160.3790  211.9340  151.4610 C   0  0  2  0  0  3  0  0  0  0  0  0
  161.7480  206.8060  151.3950 C   0  0  0  0  0  2  0  0  0  0  0  0
  160.0830  212.8290  150.3680 N   0  0  0  0  0  0  0  0  0  0  0  0
  162.9660  207.4340  149.3350 C   0  0  0  0  0  2  0  0  0  0  0  0
  162.9540  208.8830  148.8800 C   0  0  1  0  0  3  0  0  0  0  0  0
  160.1020  207.6480  155.1100 O   0  0  0  0  0  0  0  0  0  0  0  0
  161.7860  208.2480  153.4920 C   0  0  1  0  0  3  0  0  0  0  0  0
  161.9180  210.8630  149.9650 N   0  0  1  0  0  0  0  0  0  0  0  0
  161.3410  210.9870  151.2740 C   0  0  1  0  0  3  0  0  0  0  0  0
  160.3500  206.2830  154.9380 C   0  0  0  0  0  2  0  0  0  0  0  0
  159.1800  210.9700  153.4050 C   0  0  0  0  0  3  0  0  0  0  0  0
  158.0690  212.4040  155.1630 C   0  0  1  0  0  3  0  0  0  0  0  0
  159.1030  213.4270  153.1180 C   0  0  0  0  0  2  0  0  0  0  0  0
  157.8930  213.4360  154.0530 C   0  0  0  0  0  2  0  0  0  0  0  0
  158.2060  211.0130  154.5470 C   0  0  0  0  0  2  0  0  0  0  0  0
  159.5150  212.0420  152.6730 C   0  0  0  0  0  0  0  0  0  0  0  0
  159.1920  212.6990  155.9430 O   0  0  0  0  0  0  0  0  0  0  0  0
  159.7380  211.4580  156.2740 C   0  0  0  0  0  2  0  0  0  0  0  0
  160.8770  211.6560  157.2530 C   0  0  0  0  0  1  0  0  0  0  0  0
  160.8000  204.5180  153.2360 C   0  0  0  0  0  2  0  0  0  0  0  0
  163.4440  200.9630  152.3000 O   0  0  0  0  0  0  0  0  0  0  0  0
  162.6560  201.8690  152.0130 C   0  0  0  0  0  0  0  0  0  0  0  0
  160.4910  203.3310  151.1580 C   0  0  1  0  0  3  0  0  0  0  0  0
  161.8160  202.8260  151.7310 C   0  0  0  0  0  0  0  0  0  0  0  0
  161.3250  204.2740  151.8340 C   0  0  2  0  0  3  0  0  0  0  0  0
  160.5290  203.4600  149.6260 C   0  0  2  0  0  3  0  0  0  0  0  0
  161.3540  202.5010  149.0200 O   0  0  0  0  0  1  0  0  0  0  0  0
  160.9510  204.8650  149.1910 C   0  0  2  0  0  3  0  0  0  0  0  0
  159.8350  205.6750  148.9510 O   0  0  0  0  0  1  0  0  0  0  0  0
  161.9100  204.7940  147.9900 C   0  0  0  0  0  2  0  0  0  0  0  0
  162.7120  205.4900  145.8060 C   0  0  0  0  0  1  0  0  0  0  0  0
  160.7240  206.6020  146.6920 C   0  0  0  0  0  1  0  0  0  0  0  0
  161.4380  205.2550  146.5910 C   0  0  0  0  0  0  0  0  0  0  0  0
  160.5930  204.1840  145.8310 C   0  0  2  0  0  3  0  0  0  0  0  0
  161.3180  202.8290  145.6740 C   0  0  0  0  0  2  0  0  0  0  0  0
  160.3390  201.6710  145.5130 C   0  0  0  0  0  2  0  0  0  0  0  0
  160.6950  200.6110  146.3530 O   0  0  0  0  0  1  0  0  0  0  0  0
  160.1370  204.6550  144.5860 O   0  0  0  0  0  0  0  0  0  0  0  0
  161.2670  204.8520  143.7710 C   0  0  0  0  0  2  0  0  0  0  0  0
  162.0980  206.1720  141.8080 C   0  0  0  0  0  1  0  0  0  0  0  0
  161.2050  206.1830  143.0310 C   0  0  0  0  0  2  0  0  0  0  0  0
  1 21  1  0  0  0  0
  2 16  1  0  0  0  0
  5  7  1  0  0  0  0
  6 17  2  0  0  0  0
  7  6  1  0  0  0  0
  9  5  1  0  0  0  0
  9  4  1  0  0  0  0
 10 20  1  0  0  0  0
 11  4  1  6  0  0  0
 11  6  1  0  0  0  0
 11 22  1  0  0  0  0
 12 34  1  1  0  0  0
 12 24  1  0  0  0  0
 13  1  1  0  0  0  0
 14 16  1  6  0  0  0
 14 12  1  0  0  0  0
 14 21  1  0  0  0  0
 15 30  1  6  0  0  0
 17 15  1  0  0  0  0
 18  2  1  0  0  0  0
 19  3  1  6  0  0  0
 19  8  1  0  0  0  0
 19 18  1  0  0  0  0
 21 10  1  1  0  0  0
 22  8  1  6  0  0  0
 22 23  1  0  0  0  0
 23 15  1  0  0  0  0
 23 13  1  1  0  0  0
 24 20  1  0  0  0  0
 25 29  1  0  0  0  0
 26 31  1  6  0  0  0
 27 28  1  0  0  0  0
 28 26  1  0  0  0  0
 29 26  1  0  0  0  0
 30 27  1  0  0  0  0
 30 25  2  0  0  0  0
 31 32  1  0  0  0  0
 32 33  1  0  0  0  0
 36 35  2  0  0  0  0
 37 40  1  6  0  0  0
 37 38  1  0  0  0  0
 37 39  1  0  0  0  0
 38 39  1  0  0  0  0
 38 36  2  0  0  0  0
 39 34  1  1  0  0  0
 40 41  1  6  0  0  0
 42 43  1  6  0  0  0
 42 40  1  0  0  0  0
 44 42  1  0  0  0  0
 45 47  1  0  0  0  0
 47 46  1  0  0  0  0
 47 44  1  0  0  0  0
 48 49  1  6  0  0  0
 48 47  1  0  0  0  0
 50 49  1  0  0  0  0
 50 51  1  0  0  0  0
 52 48  1  0  0  0  0
 53 52  1  0  0  0  0
 54 55  1  0  0  0  0
 55 53  1  0  0  0  0
M  END
>  <MODEL>
8

>  <REMARK>
 VINA RESULT:       0.3      1.188      2.308
  Name = 
  15 active torsions:
  status: ('A' for Active; 'I' for Inactive)
    1  A    between atoms: C_3  and  C_14
    2  A    between atoms: C_3  and  O_38
    3  A    between atoms: C_6  and  C_20
    4  A    between atoms: C_6  and  C_53
    5  A    between atoms: O_10  and  C_18
    6  A    between atoms: O_10  and  C_32
    7  A    between atoms: C_11  and  C_29
    8  A    between atoms: C_20  and  C_22
    9  A    between atoms: C_27  and  C_54
   10  A    between atoms: C_29  and  C_50
   11  A    between atoms: C_30  and  C_50
   12  A    between atoms: C_30  and  C_53
   13  A    between atoms: C_33  and  C_52
   14  A    between atoms: O_38  and  C_50
   15  A    between atoms: C_51  and  C_54
                            x       y       z     vdW  Elec       q    Type
                         _______ _______ _______ _____ _____    ______ ____

>  <TORSDO>
F 15

$$$$
=
 OpenBabel11062408533D

 55 60  0  0  1  0  0  0  0  0999 V2000
  160.9460  209.5790  152.8190 O   0  0  0  0  0  0  0  0  0  0  0  0
  162.8740  207.7180  150.8610 C   0  0  0  0  0  2  0  0  0  0  0  0
  162.5220  209.0410  147.3040 C   0  0  0  0  0  1  0  0  0  0  0  0
  161.8110  212.0620  147.5370 C   0  0  0  0  0  2  0  0  0  0  0  0
  160.9040  214.4520  147.1570 C   0  0  0  0  0  2  0  0  0  0  0  0
  160.3230  213.1610  149.2020 C   0  0  0  0  0  0  0  0  0  0  0  0
  159.7660  213.9320  148.0430 C   0  0  0  0  0  2  0  0  0  0  0  0
  161.2300  209.8190  149.2870 C   0  0  0  0  0  2  0  0  0  0  0  0
  161.9100  213.3620  146.7260 C   0  0  0  0  0  2  0  0  0  0  0  0
  161.5460  208.9160  155.0570 C   0  0  0  0  0  2  0  0  0  0  0  0
  161.5860  212.3520  149.0240 C   0  0  1  0  0  3  0  0  0  0  0  0
  160.7010  206.5140  153.7980 C   0  0  2  0  0  3  0  0  0  0  0  0
  161.7570  210.5830  152.2950 C   0  0  0  0  0  2  0  0  0  0  0  0
  161.8100  207.3140  153.0980 C   0  0  1  0  0  3  0  0  0  0  0  0
  160.0950  212.2730  151.4280 C   0  0  0  0  0  0  0  0  0  0  0  0
  161.6420  207.1980  151.5800 C   0  0  0  0  0  2  0  0  0  0  0  0
  159.6570  213.0760  150.3110 N   0  0  0  0  0  0  0  0  0  0  0  0
  162.6230  207.7100  149.3670 C   0  0  0  0  0  2  0  0  0  0  0  0
  162.5110  209.1200  148.8150 C   0  0  1  0  0  3  0  0  0  0  0  0
  160.3470  208.2600  155.3770 O   0  0  0  0  0  0  0  0  0  0  0  0
  161.8370  208.7900  153.5560 C   0  0  1  0  0  3  0  0  0  0  0  0
  161.5150  211.1420  149.8600 N   0  0  0  0  0  0  0  0  0  0  0  0
  161.0680  211.3450  151.2100 C   0  0  0  0  0  0  0  0  0  0  0  0
  160.6280  206.8940  155.2760 C   0  0  0  0  0  2  0  0  0  0  0  0
  159.0880  213.6510  153.2260 C   0  0  0  0  0  3  0  0  0  0  0  0
  157.6650  212.6590  155.0620 C   0  0  1  0  0  3  0  0  0  0  0  0
  158.8150  211.1960  153.3790 C   0  0  0  0  0  2  0  0  0  0  0  0
  158.4830  211.3880  154.8590 C   0  0  0  0  0  2  0  0  0  0  0  0
  158.4690  213.8640  154.5780 C   0  0  0  0  0  2  0  0  0  0  0  0
  159.3540  212.4430  152.7120 C   0  0  0  0  0  0  0  0  0  0  0  0
  156.4480  212.5830  154.3760 O   0  0  0  0  0  0  0  0  0  0  0  0
  155.5920  211.8930  155.2360 C   0  0  0  0  0  2  0  0  0  0  0  0
  155.5040  212.6330  156.5550 C   0  0  0  0  0  1  0  0  0  0  0  0
  160.9710  205.0240  153.6640 C   0  0  0  0  0  2  0  0  0  0  0  0
  163.3310  201.4690  152.1470 O   0  0  0  0  0  0  0  0  0  0  0  0
  162.4220  202.3040  152.0980 C   0  0  0  0  0  0  0  0  0  0  0  0
  159.9840  203.5690  152.0100 C   0  0  1  0  0  3  0  0  0  0  0  0
  161.4630  203.1870  152.0680 C   0  0  0  0  0  0  0  0  0  0  0  0
  160.9350  204.6190  152.2020 C   0  0  2  0  0  3  0  0  0  0  0  0
  159.4190  203.5020  150.5810 C   0  0  2  0  0  3  0  0  0  0  0  0
  158.7480  202.2990  150.3180 O   0  0  0  0  0  1  0  0  0  0  0  0
  160.5110  203.7330  149.5350 C   0  0  2  0  0  3  0  0  0  0  0  0
  160.6200  205.0900  149.2110 O   0  0  0  0  0  1  0  0  0  0  0  0
  160.2770  202.8410  148.3030 C   0  0  0  0  0  2  0  0  0  0  0  0
  161.1850  200.7500  149.1410 C   0  0  0  0  0  1  0  0  0  0  0  0
  162.6990  202.2450  147.9380 C   0  0  0  0  0  1  0  0  0  0  0  0
  161.2710  201.7050  147.9670 C   0  0  0  0  0  0  0  0  0  0  0  0
  160.9030  200.9130  146.6730 C   0  0  2  0  0  3  0  0  0  0  0  0
  161.5530  199.5130  146.6050 C   0  0  0  0  0  2  0  0  0  0  0  0
  161.4540  198.9030  145.2110 C   0  0  0  0  0  2  0  0  0  0  0  0
  160.7550  197.6930  145.2560 O   0  0  0  0  0  1  0  0  0  0  0  0
  161.1750  201.6480  145.5050 O   0  0  0  0  0  0  0  0  0  0  0  0
  160.0070  202.3600  145.1750 C   0  0  0  0  0  2  0  0  0  0  0  0
  161.7730  204.1330  145.0140 C   0  0  0  0  0  1  0  0  0  0  0  0
  160.3140  203.8000  144.7800 C   0  0  0  0  0  2  0  0  0  0  0  0
  1 21  1  0  0  0  0
  2 16  1  0  0  0  0
  5  7  1  0  0  0  0
  6 17  2  0  0  0  0
  7  6  1  0  0  0  0
  8 22  1  0  0  0  0
  9  5  1  0  0  0  0
  9  4  1  0  0  0  0
 10 20  1  0  0  0  0
 11  4  1  6  0  0  0
 11  6  1  0  0  0  0
 11 22  1  0  0  0  0
 12 34  1  1  0  0  0
 12 24  1  0  0  0  0
 13  1  1  0  0  0  0
 14 16  1  6  0  0  0
 14 21  1  0  0  0  0
 14 12  1  0  0  0  0
 15 30  1  0  0  0  0
 17 15  1  0  0  0  0
 18  2  1  0  0  0  0
 19  3  1  6  0  0  0
 19  8  1  0  0  0  0
 19 18  1  0  0  0  0
 21 10  1  1  0  0  0
 22 23  1  0  0  0  0
 23 15  2  0  0  0  0
 23 13  1  0  0  0  0
 24 20  1  0  0  0  0
 25 29  1  0  0  0  0
 26 31  1  6  0  0  0
 27 28  1  0  0  0  0
 28 26  1  0  0  0  0
 29 26  1  0  0  0  0
 30 25  2  0  0  0  0
 30 27  1  0  0  0  0
 31 32  1  0  0  0  0
 32 33  1  0  0  0  0
 36 35  2  0  0  0  0
 37 40  1  6  0  0  0
 37 38  1  0  0  0  0
 37 39  1  0  0  0  0
 38 36  2  0  0  0  0
 38 39  1  0  0  0  0
 39 34  1  1  0  0  0
 40 41  1  6  0  0  0
 42 43  1  6  0  0  0
 42 40  1  0  0  0  0
 44 42  1  0  0  0  0
 46 47  1  0  0  0  0
 47 44  1  0  0  0  0
 47 45  1  0  0  0  0
 48 49  1  6  0  0  0
 48 47  1  0  0  0  0
 50 51  1  0  0  0  0
 50 49  1  0  0  0  0
 52 48  1  0  0  0  0
 53 52  1  0  0  0  0
 55 54  1  0  0  0  0
 55 53  1  0  0  0  0
M  END
>  <MODEL>
9

>  <REMARK>
 VINA RESULT:       1.0      1.177      2.036
  Name = 
  15 active torsions:
  status: ('A' for Active; 'I' for Inactive)
    1  A    between atoms: C_3  and  C_14
    2  A    between atoms: C_3  and  O_38
    3  A    between atoms: C_6  and  C_20
    4  A    between atoms: C_6  and  C_53
    5  A    between atoms: O_10  and  C_18
    6  A    between atoms: O_10  and  C_32
    7  A    between atoms: C_11  and  C_29
    8  A    between atoms: C_20  and  C_22
    9  A    between atoms: C_27  and  C_54
   10  A    between atoms: C_29  and  C_50
   11  A    between atoms: C_30  and  C_50
   12  A    between atoms: C_30  and  C_53
   13  A    between atoms: C_33  and  C_52
   14  A    between atoms: O_38  and  C_50
   15  A    between atoms: C_51  and  C_54
                            x       y       z     vdW  Elec       q    Type
                         _______ _______ _______ _____ _____    ______ ____

>  <TORSDO>
F 15

$$$$
