=
 OpenBabel11062408373D

 55 61  0  0  1  0  0  0  0  0999 V2000
  160.1410  211.8130  151.4240 O   0  0  0  0  0  0  0  0  0  0  0  0
  160.2680  207.4720  153.3420 C   0  0  0  0  0  2  0  0  0  0  0  0
  158.5300  207.7640  155.6210 O   0  0  0  0  0  1  0  0  0  0  0  0
  158.0400  212.2580  156.0540 C   0  0  0  0  0  2  0  0  0  0  0  0
  158.3490  213.1330  157.2610 C   0  0  0  0  0  2  0  0  0  0  0  0
  160.1130  213.1960  154.9000 C   0  0  1  0  0  3  0  0  0  0  0  0
  160.3320  214.1100  156.1030 C   0  0  0  0  0  2  0  0  0  0  0  0
  158.3720  209.7580  154.3090 C   0  0  0  0  0  2  0  0  0  0  0  0
  159.0180  214.4240  156.8090 C   0  0  0  0  0  2  0  0  0  0  0  0
  162.4230  211.2060  150.9500 C   0  0  0  0  0  3  0  0  0  0  0  0
  159.3240  211.9250  155.2800 C   0  0  2  0  0  3  0  0  0  0  0  0
  161.6120  208.7490  149.9480 C   0  0  0  0  0  0  0  0  0  0  0  0
  158.7560  211.5110  151.5480 C   0  0  0  0  0  2  0  0  0  0  0  0
  160.6540  209.6560  150.4020 C   0  0  0  0  0  3  0  0  0  0  0  0
  158.2130  213.4050  153.1980 C   0  0  2  0  0  3  0  0  0  0  0  0
  161.5850  207.1000  152.6760 C   0  0  0  0  0  2  0  0  0  0  0  0
  159.5460  213.9740  153.7010 C   0  0  0  0  0  2  0  0  0  0  0  0
  160.5370  208.4400  154.4840 C   0  0  0  0  0  2  0  0  0  0  0  0
  159.2530  208.8750  155.1890 C   0  0  2  0  0  3  0  0  0  0  0  0
  163.3520  210.2740  150.4870 C   0  0  0  0  0  3  0  0  0  0  0  0
  161.4080  206.0810  151.5500 C   0  0  2  0  0  3  0  0  0  0  0  0
  161.0630  210.8930  150.9190 C   0  0  0  0  0  0  0  0  0  0  0  0
  159.0320  211.1030  154.0130 C   0  0  2  0  0  3  0  0  0  0  0  0
  158.2470  211.8830  152.9380 C   0  0  2  0  0  3  0  0  0  0  0  0
  160.4600  206.5890  150.4640 C   0  0  0  0  0  2  0  0  0  0  0  0
  161.1970  207.4170  149.4160 C   0  0  0  0  0  2  0  0  0  0  0  0
  162.9320  209.0740  150.0040 N   0  0  0  0  0  0  0  0  0  0  0  0
  158.4100  214.4180  150.9780 O   0  0  0  0  0  0  0  0  0  0  0  0
  156.9170  213.3540  149.3890 C   0  0  2  0  0  3  0  0  0  0  0  0
  156.1190  213.7650  151.7300 C   0  0  0  0  0  2  0  0  0  0  0  0
  155.8370  214.0130  150.2550 C   0  0  0  0  0  2  0  0  0  0  0  0
  158.2770  213.3230  150.0980 C   0  0  0  0  0  2  0  0  0  0  0  0
  157.5470  214.2340  152.0910 C   0  0  1  0  0  3  0  0  0  0  0  0
  157.0190  214.0410  148.0640 C   0  0  0  0  0  0  0  0  0  0  0  0
  158.6320  214.4530  147.4070 S   0  0  0  0  0  1  0  0  0  0  0  0
  156.0140  214.3210  147.4280 O   0  0  0  0  0  0  0  0  0  0  0  0
  160.9410  204.7400  152.1070 C   0  0  0  0  0  2  0  0  0  0  0  0
  161.2380  202.4320  146.7810 C   0  0  0  0  0  2  0  0  0  0  0  0
  161.6780  203.8250  148.7660 C   0  0  2  0  0  3  0  0  0  0  0  0
  160.9110  201.9570  152.5190 O   0  0  0  0  0  0  0  0  0  0  0  0
  161.4910  202.3750  148.2790 C   0  0  1  0  0  3  0  0  0  0  0  0
  160.3410  201.6350  148.9630 C   0  0  0  0  0  2  0  0  0  0  0  0
  160.7680  202.3460  151.3280 C   0  0  0  0  0  0  0  0  0  0  0  0
  160.7730  203.7620  151.0370 N   0  0  0  0  0  0  0  0  0  0  0  0
  160.9650  203.8850  146.4610 C   0  0  1  0  0  3  0  0  0  0  0  0
  160.6450  201.3700  150.3300 O   0  0  0  0  0  0  0  0  0  0  0  0
  160.5650  204.2930  149.6980 C   0  0  0  0  0  2  0  0  0  0  0  0
  161.6950  204.7000  147.5280 C   0  0  2  0  0  3  0  0  0  0  0  0
  163.1130  205.0480  147.1720 C   0  0  0  0  0  0  0  0  0  0  0  0
  163.7870  204.3070  146.4070 O   0  0  0  0  0  0  0  0  0  0  0  0
  163.6890  206.1920  147.7070 O   0  0  0  0  0  1  0  0  0  0  0  0
  161.3900  204.2060  145.1030 N   0  0  0  0  0  2  0  0  0  0  0  0
  160.5490  205.2920  144.6290 C   0  0  1  0  0  3  0  0  0  0  0  0
  160.1380  206.1600  145.7990 C   0  0  0  0  0  1  0  0  0  0  0  0
  161.2850  206.0960  143.6700 N   0  0  0  0  0  1  0  0  0  0  0  0
  1 13  1  0  0  0  0
  2 18  1  0  0  0  0
  4  5  1  0  0  0  0
  6 17  1  6  0  0  0
  6 11  1  0  0  0  0
  6  7  1  0  0  0  0
  7  9  1  0  0  0  0
  8 19  1  0  0  0  0
  9  5  1  0  0  0  0
 11  4  1  6  0  0  0
 12 27  2  0  0  0  0
 12 14  1  0  0  0  0
 14 22  2  0  0  0  0
 15 17  1  6  0  0  0
 16  2  1  0  0  0  0
 18 19  1  0  0  0  0
 19  3  1  6  0  0  0
 20 10  2  0  0  0  0
 21 37  1  1  0  0  0
 21 16  1  0  0  0  0
 22 10  1  0  0  0  0
 22  1  1  0  0  0  0
 23  8  1  1  0  0  0
 23 11  1  0  0  0  0
 24 13  1  6  0  0  0
 24 15  1  0  0  0  0
 24 23  1  0  0  0  0
 25 21  1  0  0  0  0
 26 12  1  0  0  0  0
 26 25  1  0  0  0  0
 27 20  1  0  0  0  0
 28 33  1  0  0  0  0
 29 34  1  6  0  0  0
 29 32  1  0  0  0  0
 29 31  1  0  0  0  0
 31 30  1  0  0  0  0
 32 28  1  0  0  0  0
 33 30  1  6  0  0  0
 33 15  1  0  0  0  0
 35 34  1  0  0  0  0
 36 34  2  0  0  0  0
 39 47  1  1  0  0  0
 41 38  1  6  0  0  0
 41 39  1  0  0  0  0
 41 42  1  0  0  0  0
 42 46  1  0  0  0  0
 43 40  2  0  0  0  0
 44 43  1  0  0  0  0
 44 37  1  0  0  0  0
 45 52  1  6  0  0  0
 45 38  1  0  0  0  0
 45 48  1  0  0  0  0
 46 43  1  0  0  0  0
 47 44  1  0  0  0  0
 48 49  1  6  0  0  0
 48 39  1  0  0  0  0
 49 51  1  0  0  0  0
 50 49  2  0  0  0  0
 53 52  1  0  0  0  0
 53 54  1  1  0  0  0
 55 53  1  0  0  0  0
M  END
>  <MODEL>
1

>  <REMARK>
 VINA RESULT:       3.2      0.000      0.000
  Name = 
  7 active torsions:
  status: ('A' for Active; 'I' for Inactive)
    1  A    between atoms: C_1  and  C_53
    2  A    between atoms: C_8  and  N_22
    3  A    between atoms: C_8  and  C_43
    4  A    between atoms: C_10  and  C_32
    5  A    between atoms: C_11  and  N_29
    6  A    between atoms: N_29  and  C_38
    7  A    between atoms: C_33  and  C_52
                            x       y       z     vdW  Elec       q    Type
                         _______ _______ _______ _____ _____    ______ ____

>  <TORSDO>
F 7

$$$$
=
 OpenBabel11062408373D

 55 61  0  0  1  0  0  0  0  0999 V2000
  157.7980  213.0060  144.1120 O   0  0  0  0  0  0  0  0  0  0  0  0
  160.7760  213.1200  147.8080 C   0  0  0  0  0  2  0  0  0  0  0  0
  163.3220  213.5340  146.5260 O   0  0  0  0  0  1  0  0  0  0  0  0
  162.4960  212.6500  142.1480 C   0  0  0  0  0  2  0  0  0  0  0  0
  163.1740  211.6320  141.2420 C   0  0  0  0  0  2  0  0  0  0  0  0
  160.4380  211.1450  142.2240 C   0  0  1  0  0  3  0  0  0  0  0  0
  161.1340  210.1960  141.2510 C   0  0  0  0  0  2  0  0  0  0  0  0
  161.6110  213.7590  144.8670 C   0  0  0  0  0  2  0  0  0  0  0  0
  162.1360  210.9360  140.3730 C   0  0  0  0  0  2  0  0  0  0  0  0
  156.7380  211.4000  145.5610 C   0  0  0  0  0  3  0  0  0  0  0  0
  161.4510  211.9700  143.0440 C   0  0  2  0  0  3  0  0  0  0  0  0
  156.9090  213.1530  147.7060 C   0  0  0  0  0  0  0  0  0  0  0  0
  158.5050  214.2170  143.8770 C   0  0  0  0  0  2  0  0  0  0  0  0
  157.3780  213.5510  146.4540 C   0  0  0  0  0  3  0  0  0  0  0  0
  159.5690  213.4840  141.6550 C   0  0  2  0  0  3  0  0  0  0  0  0
  159.8260  212.3740  148.7340 C   0  0  0  0  0  2  0  0  0  0  0  0
  159.3510  211.9720  141.5180 C   0  0  0  0  0  2  0  0  0  0  0  0
  161.3830  212.1430  146.8150 C   0  0  0  0  0  2  0  0  0  0  0  0
  162.3360  212.8280  145.8370 C   0  0  2  0  0  3  0  0  0  0  0  0
  156.2800  211.0370  146.8280 C   0  0  0  0  0  3  0  0  0  0  0  0
  159.2140  213.2790  149.8040 C   0  0  2  0  0  3  0  0  0  0  0  0
  157.3030  212.6630  145.3730 C   0  0  0  0  0  0  0  0  0  0  0  0
  160.6970  212.9880  143.9180 C   0  0  2  0  0  3  0  0  0  0  0  0
  159.7980  213.9480  143.1120 C   0  0  2  0  0  3  0  0  0  0  0  0
  158.4480  214.4510  149.1920 C   0  0  0  0  0  2  0  0  0  0  0  0
  157.0030  214.0760  148.8760 C   0  0  0  0  0  2  0  0  0  0  0  0
  156.3780  211.9100  147.8660 N   0  0  0  0  0  0  0  0  0  0  0  0
  158.7030  214.1170  139.4550 O   0  0  0  0  0  0  0  0  0  0  0  0
  156.4050  213.3940  139.1710 C   0  0  2  0  0  3  0  0  0  0  0  0
  157.1350  214.3040  141.3910 C   0  0  0  0  0  2  0  0  0  0  0  0
  156.1410  214.4530  140.2470 C   0  0  0  0  0  2  0  0  0  0  0  0
  157.8920  213.0230  139.0880 C   0  0  0  0  0  2  0  0  0  0  0  0
  158.5830  214.3430  140.8520 C   0  0  1  0  0  3  0  0  0  0  0  0
  155.8920  213.8540  137.8440 C   0  0  0  0  0  0  0  0  0  0  0  0
  154.1510  213.6770  137.4640 S   0  0  0  0  0  1  0  0  0  0  0  0
  156.6470  214.3480  137.0200 O   0  0  0  0  0  0  0  0  0  0  0  0
  160.2870  213.7670  150.7730 C   0  0  0  0  0  2  0  0  0  0  0  0
  158.4780  211.1090  155.6150 C   0  0  0  0  0  2  0  0  0  0  0  0
  158.5040  212.2560  153.4330 C   0  0  2  0  0  3  0  0  0  0  0  0
  161.9170  211.4840  151.0000 O   0  0  0  0  0  0  0  0  0  0  0  0
  159.1080  211.0840  154.2320 C   0  0  1  0  0  3  0  0  0  0  0  0
  160.6290  211.1430  154.3620 C   0  0  0  0  0  2  0  0  0  0  0  0
  161.2030  211.7630  152.0030 C   0  0  0  0  0  0  0  0  0  0  0  0
  160.3380  212.9210  151.9610 N   0  0  0  0  0  0  0  0  0  0  0  0
  157.7730  212.4430  155.7260 C   0  0  1  0  0  3  0  0  0  0  0  0
  161.2600  210.9030  153.1070 O   0  0  0  0  0  0  0  0  0  0  0  0
  159.5230  213.3380  153.0910 C   0  0  0  0  0  2  0  0  0  0  0  0
  157.4110  212.8540  154.2980 C   0  0  2  0  0  3  0  0  0  0  0  0
  156.0700  212.3570  153.8380 C   0  0  0  0  0  0  0  0  0  0  0  0
  155.3500  213.0550  153.0730 O   0  0  0  0  0  0  0  0  0  0  0  0
  155.6150  211.1200  154.2730 O   0  0  0  0  0  1  0  0  0  0  0  0
  156.6130  212.3460  156.6060 N   0  0  0  0  0  2  0  0  0  0  0  0
  156.4540  213.6330  157.2610 C   0  0  1  0  0  3  0  0  0  0  0  0
  157.7130  214.4530  157.0750 C   0  0  0  0  0  1  0  0  0  0  0  0
  155.3290  214.3420  156.6790 N   0  0  0  0  0  1  0  0  0  0  0  0
  1 22  1  0  0  0  0
  2 16  1  0  0  0  0
  5  4  1  0  0  0  0
  6  7  1  6  0  0  0
  6 11  1  0  0  0  0
  8 19  1  0  0  0  0
  9  5  1  0  0  0  0
  9  7  1  0  0  0  0
 10 20  1  0  0  0  0
 11  4  1  6  0  0  0
 11 23  1  0  0  0  0
 12 27  1  0  0  0  0
 12 26  1  0  0  0  0
 13  1  1  0  0  0  0
 14 12  2  0  0  0  0
 15 17  1  1  0  0  0
 15 24  1  0  0  0  0
 16 21  1  0  0  0  0
 17  6  1  0  0  0  0
 18  2  1  0  0  0  0
 19  3  1  1  0  0  0
 19 18  1  0  0  0  0
 20 27  2  0  0  0  0
 21 37  1  1  0  0  0
 22 10  2  0  0  0  0
 22 14  1  0  0  0  0
 23  8  1  6  0  0  0
 24 13  1  1  0  0  0
 24 23  1  0  0  0  0
 25 21  1  0  0  0  0
 26 25  1  0  0  0  0
 28 33  1  0  0  0  0
 29 34  1  6  0  0  0
 29 31  1  0  0  0  0
 31 30  1  0  0  0  0
 32 29  1  0  0  0  0
 32 28  1  0  0  0  0
 33 30  1  1  0  0  0
 33 15  1  0  0  0  0
 35 34  1  0  0  0  0
 36 34  2  0  0  0  0
 37 44  1  0  0  0  0
 38 45  1  0  0  0  0
 39 47  1  1  0  0  0
 39 41  1  0  0  0  0
 39 48  1  0  0  0  0
 40 43  2  0  0  0  0
 41 42  1  1  0  0  0
 41 38  1  0  0  0  0
 43 46  1  0  0  0  0
 44 43  1  0  0  0  0
 44 47  1  0  0  0  0
 45 52  1  1  0  0  0
 46 42  1  0  0  0  0
 48 49  1  6  0  0  0
 48 45  1  0  0  0  0
 49 51  1  0  0  0  0
 50 49  2  0  0  0  0
 52 53  1  0  0  0  0
 53 54  1  6  0  0  0
 55 53  1  0  0  0  0
M  END
>  <MODEL>
2

>  <REMARK>
 VINA RESULT:       3.5      5.691     11.131
  Name = 
  7 active torsions:
  status: ('A' for Active; 'I' for Inactive)
    1  A    between atoms: C_1  and  C_53
    2  A    between atoms: C_8  and  N_22
    3  A    between atoms: C_8  and  C_43
    4  A    between atoms: C_10  and  C_32
    5  A    between atoms: C_11  and  N_29
    6  A    between atoms: N_29  and  C_38
    7  A    between atoms: C_33  and  C_52
                            x       y       z     vdW  Elec       q    Type
                         _______ _______ _______ _____ _____    ______ ____

>  <TORSDO>
F 7

$$$$
