=
 OpenBabel11062410013D

 43 49  0  0  1  0  0  0  0  0999 V2000
  162.6290  208.1450  148.1320 C   0  0  0  0  0  2  0  0  0  0  0  0
  161.4900  208.4550  149.0010 N   0  0  0  0  0  0  0  0  0  0  0  0
  162.2820  206.9720  147.2170 C   0  0  0  0  0  2  0  0  0  0  0  0
  161.2190  207.3230  149.8900 C   0  0  0  0  0  2  0  0  0  0  0  0
  160.8360  206.0920  149.0670 C   0  0  1  0  0  3  0  0  0  0  0  0
  161.9370  205.7480  148.0590 C   0  0  0  0  0  2  0  0  0  0  0  0
  161.2390  201.0800  148.1750 C   0  0  0  0  0  0  0  0  0  0  0  0
  161.0100  204.9830  151.3850 C   0  0  0  0  0  0  0  0  0  0  0  0
  160.9610  202.4400  150.1430 C   0  0  0  0  0  0  0  0  0  0  0  0
  161.0330  202.1760  147.3960 N   0  0  0  0  0  0  0  0  0  0  0  0
  161.4900  199.7580  147.5440 C   0  0  0  0  0  1  0  0  0  0  0  0
  160.7680  203.5670  149.3310 C   0  0  0  0  0  0  0  0  0  0  0  0
  161.1920  201.1900  149.5650 C   0  0  0  0  0  3  0  0  0  0  0  0
  160.7930  203.4010  147.9380 C   0  0  0  0  0  3  0  0  0  0  0  0
  160.4550  204.9030  149.9700 C   0  0  2  0  0  3  0  0  0  0  0  0
  161.1750  203.9000  152.0920 N   0  0  0  0  0  0  0  0  0  0  0  0
  161.3160  206.2570  151.9620 N   0  0  0  0  0  2  0  0  0  0  0  0
  160.8140  202.5600  151.6280 C   0  0  0  0  0  2  0  0  0  0  0  0
  161.7030  206.4170  153.3580 C   0  0  0  0  0  2  0  0  0  0  0  0
  160.3250  209.9740  153.9790 C   0  0  0  0  0  2  0  0  0  0  0  0
  160.7080  210.1130  155.3920 N   0  0  0  0  0  0  0  0  0  0  0  0
  161.2950  207.6890  155.4780 C   0  0  0  0  0  2  0  0  0  0  0  0
  161.0890  208.8500  153.2710 C   0  0  0  0  0  2  0  0  0  0  0  0
  160.8990  207.5330  154.0150 C   0  0  0  0  0  3  0  0  0  0  0  0
  160.5160  208.8460  156.1100 C   0  0  0  0  0  2  0  0  0  0  0  0
  162.4630  210.7560  156.9600 C   0  0  0  0  0  1  0  0  0  0  0  0
  162.1000  210.5440  155.5020 C   0  0  0  0  0  2  0  0  0  0  0  0
  161.7830  209.6490  149.8000 C   0  0  0  0  0  2  0  0  0  0  0  0
  162.4390  210.7720  148.9970 C   0  0  0  0  0  2  0  0  0  0  0  0
  161.3910  211.4370  148.1270 C   0  0  0  0  0  2  0  0  0  0  0  0
  161.1070  212.8510  148.6310 C   0  0  1  0  0  0  0  0  0  0  0  0
  160.8580  213.8560  147.5210 C   0  0  1  0  0  0  0  0  0  0  0  0
  159.7430  213.2830  148.2940 N   0  0  0  0  0  0  0  0  0  0  0  0
  162.1810  213.8410  148.2570 C   0  0  0  0  0  2  0  0  0  0  0  0
  160.9280  213.2960  146.1080 C   0  0  0  0  0  0  0  0  0  0  0  0
  162.1460  212.9590  144.0270 C   0  0  0  0  0  3  0  0  0  0  0  0
  159.8410  212.2400  144.2030 C   0  0  0  0  0  3  0  0  0  0  0  0
  161.0190  212.3590  143.4590 C   0  0  0  0  0  3  0  0  0  0  0  0
  159.7940  212.7130  145.5170 C   0  0  0  0  0  3  0  0  0  0  0  0
  162.0990  213.4320  145.3420 C   0  0  0  0  0  3  0  0  0  0  0  0
  159.3430  214.2790  149.2750 C   0  0  0  0  0  2  0  0  0  0  0  0
  159.6040  213.8130  151.6000 O   0  0  0  0  0  1  0  0  0  0  0  0
  158.7700  213.5950  150.5030 C   0  0  0  0  0  2  0  0  0  0  0  0
  1  2  1  0  0  0  0
  2 28  1  0  0  0  0
  2  4  1  0  0  0  0
  3  6  1  0  0  0  0
  3  1  1  0  0  0  0
  5  6  1  1  0  0  0
  5  4  1  0  0  0  0
  5 15  1  0  0  0  0
  7 13  1  0  0  0  0
  8 17  1  0  0  0  0
  8 16  2  0  0  0  0
  9 18  1  0  0  0  0
 10 14  1  0  0  0  0
 10  7  2  0  0  0  0
 11  7  1  0  0  0  0
 12  9  1  0  0  0  0
 13  9  2  0  0  0  0
 14 12  2  0  0  0  0
 15 12  1  6  0  0  0
 15  8  1  0  0  0  0
 17 19  1  0  0  0  0
 18 16  1  0  0  0  0
 19 24  1  0  0  0  0
 20 21  1  0  0  0  0
 21 27  1  0  0  0  0
 21 25  1  0  0  0  0
 22 25  1  0  0  0  0
 23 20  1  0  0  0  0
 23 24  1  0  0  0  0
 24 22  1  0  0  0  0
 27 26  1  0  0  0  0
 29 28  1  0  0  0  0
 30 29  1  0  0  0  0
 31 30  1  6  0  0  0
 32 35  1  6  0  0  0
 32 34  1  0  0  0  0
 32 33  1  0  0  0  0
 32 31  1  0  0  0  0
 33 31  1  0  0  0  0
 33 41  1  0  0  0  0
 34 31  1  0  0  0  0
 36 40  1  0  0  0  0
 37 39  2  0  0  0  0
 38 36  2  0  0  0  0
 38 37  1  0  0  0  0
 39 35  1  0  0  0  0
 40 35  2  0  0  0  0
 41 43  1  0  0  0  0
 43 42  1  0  0  0  0
M  END
>  <MODEL>
1

>  <REMARK>
 VINA RESULT:      -8.8      0.000      0.000
  Name = 
  11 active torsions:
  status: ('A' for Active; 'I' for Inactive)
    1  A    between atoms: C_1  and  N_34
    2  A    between atoms: C_1  and  C_35
    3  A    between atoms: C_3  and  C_4
    4  A    between atoms: C_3  and  C_12
    5  A    between atoms: N_6  and  C_17
    6  A    between atoms: C_10  and  N_22
    7  A    between atoms: C_10  and  C_42
    8  A    between atoms: C_11  and  C_14
    9  A    between atoms: C_12  and  C_17
   10  A    between atoms: N_19  and  C_37
   11  A    between atoms: C_27  and  C_30
                            x       y       z     vdW  Elec       q    Type
                         _______ _______ _______ _____ _____    ______ ____

>  <TORSDO>
F 11

$$$$
=
 OpenBabel11062410013D

 43 49  0  0  1  0  0  0  0  0999 V2000
  162.4390  209.9500  153.1920 C   0  0  0  0  0  2  0  0  0  0  0  0
  161.4090  209.1730  152.4970 N   0  0  0  0  0  0  0  0  0  0  0  0
  161.8560  210.5680  154.4620 C   0  0  0  0  0  2  0  0  0  0  0  0
  160.3320  210.0590  152.0500 C   0  0  0  0  0  2  0  0  0  0  0  0
  159.6610  210.7160  153.2580 C   0  0  1  0  0  3  0  0  0  0  0  0
  160.6890  211.4800  154.1000 C   0  0  0  0  0  2  0  0  0  0  0  0
  155.9490  212.7360  156.1250 C   0  0  0  0  0  0  0  0  0  0  0  0
  158.8270  212.7810  151.9650 C   0  0  0  0  0  0  0  0  0  0  0  0
  156.8090  213.1550  153.9150 C   0  0  0  0  0  0  0  0  0  0  0  0
  156.7140  211.6130  156.2030 N   0  0  0  0  0  0  0  0  0  0  0  0
  155.0680  213.1130  157.2610 C   0  0  0  0  0  1  0  0  0  0  0  0
  157.6080  212.0060  154.0140 C   0  0  0  0  0  0  0  0  0  0  0  0
  155.9720  213.5200  154.9710 C   0  0  0  0  0  3  0  0  0  0  0  0
  157.5280  211.2320  155.1810 C   0  0  0  0  0  3  0  0  0  0  0  0
  158.4630  211.5870  152.8360 C   0  0  2  0  0  3  0  0  0  0  0  0
  158.0500  213.8260  151.9180 N   0  0  0  0  0  0  0  0  0  0  0  0
  160.0100  212.7440  151.1600 N   0  0  0  0  0  2  0  0  0  0  0  0
  156.7780  213.9300  152.6350 C   0  0  0  0  0  2  0  0  0  0  0  0
  160.3370  213.7830  150.1910 C   0  0  0  0  0  2  0  0  0  0  0  0
  162.3310  213.4760  146.8950 C   0  0  0  0  0  2  0  0  0  0  0  0
  161.2090  213.2000  145.9850 N   0  0  0  0  0  0  0  0  0  0  0  0
  159.6920  212.8840  147.9420 C   0  0  0  0  0  2  0  0  0  0  0  0
  161.8730  214.0790  148.2260 C   0  0  0  0  0  2  0  0  0  0  0  0
  160.8480  213.1670  148.8930 C   0  0  0  0  0  3  0  0  0  0  0  0
  160.2260  212.3150  146.6250 C   0  0  0  0  0  2  0  0  0  0  0  0
  159.5340  214.1690  144.4990 C   0  0  0  0  0  1  0  0  0  0  0  0
  160.5650  214.4470  145.5770 C   0  0  0  0  0  2  0  0  0  0  0  0
  161.9970  208.4910  151.3390 C   0  0  0  0  0  2  0  0  0  0  0  0
  161.0260  208.3330  150.1690 C   0  0  0  0  0  2  0  0  0  0  0  0
  160.9920  206.8780  149.7460 C   0  0  0  0  0  2  0  0  0  0  0  0
  161.4180  206.7410  148.2860 C   0  0  1  0  0  0  0  0  0  0  0  0
  161.5830  205.3030  147.8300 C   0  0  1  0  0  0  0  0  0  0  0  0
  160.3830  206.0800  147.4780 N   0  0  0  0  0  0  0  0  0  0  0  0
  162.7980  206.1580  148.1230 C   0  0  0  0  0  2  0  0  0  0  0  0
  161.2980  204.2470  148.8880 C   0  0  0  0  0  0  0  0  0  0  0  0
  161.1130  203.5950  151.2260 C   0  0  0  0  0  3  0  0  0  0  0  0
  160.8700  201.9270  149.4880 C   0  0  0  0  0  3  0  0  0  0  0  0
  160.8790  202.2710  150.8420 C   0  0  0  0  0  3  0  0  0  0  0  0
  161.0860  202.9080  148.5160 C   0  0  0  0  0  3  0  0  0  0  0  0
  161.3290  204.5760  150.2540 C   0  0  0  0  0  3  0  0  0  0  0  0
  160.5460  206.5270  146.1040 C   0  0  0  0  0  2  0  0  0  0  0  0
  161.6450  205.5860  144.2070 O   0  0  0  0  0  1  0  0  0  0  0  0
  160.6790  205.3290  145.1820 C   0  0  0  0  0  2  0  0  0  0  0  0
  1  3  1  0  0  0  0
  2  1  1  0  0  0  0
  4  2  1  0  0  0  0
  5  4  1  6  0  0  0
  5  6  1  0  0  0  0
  6  3  1  0  0  0  0
  7 10  1  0  0  0  0
  7 11  1  0  0  0  0
  9 12  2  0  0  0  0
  9 13  1  0  0  0  0
 12 14  1  0  0  0  0
 13  7  2  0  0  0  0
 14 10  2  0  0  0  0
 15  8  1  1  0  0  0
 15  5  1  0  0  0  0
 15 12  1  0  0  0  0
 16  8  2  0  0  0  0
 16 18  1  0  0  0  0
 17  8  1  0  0  0  0
 18  9  1  0  0  0  0
 19 17  1  0  0  0  0
 20 23  1  0  0  0  0
 21 25  1  0  0  0  0
 21 20  1  0  0  0  0
 22 24  1  0  0  0  0
 23 24  1  0  0  0  0
 24 19  1  0  0  0  0
 25 22  1  0  0  0  0
 26 27  1  0  0  0  0
 27 21  1  0  0  0  0
 28  2  1  0  0  0  0
 29 28  1  0  0  0  0
 30 29  1  0  0  0  0
 31 30  1  1  0  0  0
 32 34  1  0  0  0  0
 32 31  1  0  0  0  0
 32 35  1  1  0  0  0
 33 32  1  0  0  0  0
 33 31  1  0  0  0  0
 34 31  1  0  0  0  0
 35 40  1  0  0  0  0
 37 38  2  0  0  0  0
 38 36  1  0  0  0  0
 39 35  2  0  0  0  0
 39 37  1  0  0  0  0
 40 36  2  0  0  0  0
 41 33  1  0  0  0  0
 42 43  1  0  0  0  0
 43 41  1  0  0  0  0
M  END
>  <MODEL>
2

>  <REMARK>
 VINA RESULT:      -8.3      3.095      9.735
  Name = 
  11 active torsions:
  status: ('A' for Active; 'I' for Inactive)
    1  A    between atoms: C_1  and  N_34
    2  A    between atoms: C_1  and  C_35
    3  A    between atoms: C_3  and  C_4
    4  A    between atoms: C_3  and  C_12
    5  A    between atoms: N_6  and  C_17
    6  A    between atoms: C_10  and  N_22
    7  A    between atoms: C_10  and  C_42
    8  A    between atoms: C_11  and  C_14
    9  A    between atoms: C_12  and  C_17
   10  A    between atoms: N_19  and  C_37
   11  A    between atoms: C_27  and  C_30
                            x       y       z     vdW  Elec       q    Type
                         _______ _______ _______ _____ _____    ______ ____

>  <TORSDO>
F 11

$$$$
=
 OpenBabel11062410013D

 43 49  0  0  1  0  0  0  0  0999 V2000
  162.6800  208.2830  148.2250 C   0  0  0  0  0  2  0  0  0  0  0  0
  161.6140  208.6370  149.1650 N   0  0  0  0  0  0  0  0  0  0  0  0
  162.2160  207.1510  147.3120 C   0  0  0  0  0  2  0  0  0  0  0  0
  161.3320  207.5040  150.0490 C   0  0  0  0  0  2  0  0  0  0  0  0
  160.8340  206.3130  149.2290 C   0  0  1  0  0  3  0  0  0  0  0  0
  161.8540  205.9300  148.1520 C   0  0  0  0  0  2  0  0  0  0  0  0
  161.2190  201.2960  148.3520 C   0  0  0  0  0  0  0  0  0  0  0  0
  160.9870  205.2080  151.5510 C   0  0  0  0  0  0  0  0  0  0  0  0
  160.9330  202.6620  150.3160 C   0  0  0  0  0  0  0  0  0  0  0  0
  161.0230  202.3910  147.5690 N   0  0  0  0  0  0  0  0  0  0  0  0
  161.4670  199.9710  147.7260 C   0  0  0  0  0  1  0  0  0  0  0  0
  160.7520  203.7880  149.4990 C   0  0  0  0  0  0  0  0  0  0  0  0
  161.1620  201.4100  149.7420 C   0  0  0  0  0  3  0  0  0  0  0  0
  160.7860  203.6190  148.1060 C   0  0  0  0  0  3  0  0  0  0  0  0
  160.4410  205.1280  150.1320 C   0  0  2  0  0  3  0  0  0  0  0  0
  161.1420  204.1270  152.2620 N   0  0  0  0  0  0  0  0  0  0  0  0
  161.2950  206.4820  152.1270 N   0  0  0  0  0  2  0  0  0  0  0  0
  160.7770  202.7870  151.7990 C   0  0  0  0  0  2  0  0  0  0  0  0
  161.6740  206.6440  153.5250 C   0  0  0  0  0  2  0  0  0  0  0  0
  160.4280  210.2540  154.1150 C   0  0  0  0  0  2  0  0  0  0  0  0
  160.7800  210.3770  155.5380 N   0  0  0  0  0  0  0  0  0  0  0  0
  161.2640  207.9310  155.6360 C   0  0  0  0  0  2  0  0  0  0  0  0
  161.1630  209.1010  153.4260 C   0  0  0  0  0  2  0  0  0  0  0  0
  160.9000  207.7920  154.1630 C   0  0  0  0  0  3  0  0  0  0  0  0
  160.5180  209.1190  156.2490 C   0  0  0  0  0  2  0  0  0  0  0  0
  162.6680  210.4130  157.0830 C   0  0  0  0  0  1  0  0  0  0  0  0
  162.1850  210.7500  155.6850 C   0  0  0  0  0  2  0  0  0  0  0  0
  162.0190  209.7970  149.9660 C   0  0  0  0  0  2  0  0  0  0  0  0
  162.2130  211.0680  149.1400 C   0  0  0  0  0  2  0  0  0  0  0  0
  160.9010  211.4340  148.4760 C   0  0  0  0  0  2  0  0  0  0  0  0
  161.1480  212.3830  147.3050 C   0  0  1  0  0  0  0  0  0  0  0  0
  160.1930  213.5620  147.2640 C   0  0  1  0  0  0  0  0  0  0  0  0
  161.5690  213.7140  147.7650 N   0  0  0  0  0  0  0  0  0  0  0  0
  160.0170  212.4010  146.3080 C   0  0  0  0  0  2  0  0  0  0  0  0
  159.1630  213.6060  148.3820 C   0  0  0  0  0  0  0  0  0  0  0  0
  156.8940  213.2310  149.1800 C   0  0  0  0  0  3  0  0  0  0  0  0
  158.5250  214.2730  150.6350 C   0  0  0  0  0  3  0  0  0  0  0  0
  157.2320  213.7900  150.4160 C   0  0  0  0  0  3  0  0  0  0  0  0
  159.4830  214.1890  149.6210 C   0  0  0  0  0  3  0  0  0  0  0  0
  157.8530  213.1460  148.1670 C   0  0  0  0  0  3  0  0  0  0  0  0
  162.3530  214.3190  146.6990 C   0  0  0  0  0  2  0  0  0  0  0  0
  163.1050  213.5040  144.5870 O   0  0  0  0  0  1  0  0  0  0  0  0
  163.1340  213.2490  145.9590 C   0  0  0  0  0  2  0  0  0  0  0  0
  1  2  1  0  0  0  0
  2 28  1  0  0  0  0
  2  4  1  0  0  0  0
  3  6  1  0  0  0  0
  3  1  1  0  0  0  0
  5  6  1  6  0  0  0
  5  4  1  0  0  0  0
  5 15  1  0  0  0  0
  7 13  1  0  0  0  0
  8 17  1  0  0  0  0
  8 16  2  0  0  0  0
  9 18  1  0  0  0  0
 10 14  1  0  0  0  0
 10  7  2  0  0  0  0
 11  7  1  0  0  0  0
 12  9  1  0  0  0  0
 13  9  2  0  0  0  0
 14 12  2  0  0  0  0
 15 12  1  6  0  0  0
 15  8  1  0  0  0  0
 17 19  1  0  0  0  0
 18 16  1  0  0  0  0
 19 24  1  0  0  0  0
 20 21  1  0  0  0  0
 21 27  1  0  0  0  0
 21 25  1  0  0  0  0
 22 25  1  0  0  0  0
 23 20  1  0  0  0  0
 23 24  1  0  0  0  0
 24 22  1  0  0  0  0
 27 26  1  0  0  0  0
 29 28  1  0  0  0  0
 30 29  1  0  0  0  0
 31 33  1  0  0  0  0
 31 30  1  1  0  0  0
 32 31  1  0  0  0  0
 32 33  1  0  0  0  0
 32 35  1  1  0  0  0
 34 32  1  0  0  0  0
 34 31  1  0  0  0  0
 35 39  1  0  0  0  0
 36 38  2  0  0  0  0
 38 37  1  0  0  0  0
 39 37  2  0  0  0  0
 40 35  2  0  0  0  0
 40 36  1  0  0  0  0
 41 33  1  0  0  0  0
 42 43  1  0  0  0  0
 43 41  1  0  0  0  0
M  END
>  <MODEL>
3

>  <REMARK>
 VINA RESULT:      -8.0      1.497      2.880
  Name = 
  11 active torsions:
  status: ('A' for Active; 'I' for Inactive)
    1  A    between atoms: C_1  and  N_34
    2  A    between atoms: C_1  and  C_35
    3  A    between atoms: C_3  and  C_4
    4  A    between atoms: C_3  and  C_12
    5  A    between atoms: N_6  and  C_17
    6  A    between atoms: C_10  and  N_22
    7  A    between atoms: C_10  and  C_42
    8  A    between atoms: C_11  and  C_14
    9  A    between atoms: C_12  and  C_17
   10  A    between atoms: N_19  and  C_37
   11  A    between atoms: C_27  and  C_30
                            x       y       z     vdW  Elec       q    Type
                         _______ _______ _______ _____ _____    ______ ____

>  <TORSDO>
F 11

$$$$
=
 OpenBabel11062410013D

 43 49  0  0  1  0  0  0  0  0999 V2000
  162.3110  209.1620  148.2670 C   0  0  0  0  0  2  0  0  0  0  0  0
  161.6490  209.8380  149.3860 N   0  0  0  0  0  0  0  0  0  0  0  0
  161.7620  207.7450  148.1160 C   0  0  0  0  0  2  0  0  0  0  0  0
  161.9670  209.1540  150.6410 C   0  0  0  0  0  2  0  0  0  0  0  0
  161.4360  207.7200  150.6030 C   0  0  1  0  0  3  0  0  0  0  0  0
  162.0070  206.9600  149.4010 C   0  0  0  0  0  2  0  0  0  0  0  0
  160.4010  209.2610  155.3600 C   0  0  0  0  0  0  0  0  0  0  0  0
  161.1410  205.5670  151.9850 C   0  0  0  0  0  0  0  0  0  0  0  0
  160.8630  207.1370  154.3240 C   0  0  0  0  0  0  0  0  0  0  0  0
  160.7380  209.8920  154.2030 N   0  0  0  0  0  0  0  0  0  0  0  0
  159.9830  210.0570  156.5440 C   0  0  0  0  0  1  0  0  0  0  0  0
  161.1890  207.7970  153.1290 C   0  0  0  0  0  0  0  0  0  0  0  0
  160.4730  207.8700  155.4460 C   0  0  0  0  0  3  0  0  0  0  0  0
  161.1330  209.1980  153.1010 C   0  0  0  0  0  3  0  0  0  0  0  0
  161.6710  206.9930  151.9400 C   0  0  2  0  0  3  0  0  0  0  0  0
  160.8470  205.0070  153.1240 N   0  0  0  0  0  0  0  0  0  0  0  0
  161.0010  204.8180  150.7730 N   0  0  0  0  0  2  0  0  0  0  0  0
  161.0340  205.6530  154.4240 C   0  0  0  0  0  2  0  0  0  0  0  0
  160.6470  203.4040  150.7560 C   0  0  0  0  0  2  0  0  0  0  0  0
  161.8790  202.7790  147.1470 C   0  0  0  0  0  2  0  0  0  0  0  0
  161.2730  201.4560  146.9350 N   0  0  0  0  0  0  0  0  0  0  0  0
  160.6990  201.3240  149.3600 C   0  0  0  0  0  2  0  0  0  0  0  0
  161.2480  203.5340  148.3210 C   0  0  0  0  0  2  0  0  0  0  0  0
  161.3260  202.6930  149.5910 C   0  0  0  0  0  3  0  0  0  0  0  0
  161.3570  200.6440  148.1560 C   0  0  0  0  0  2  0  0  0  0  0  0
  159.7930  201.7350  145.0150 C   0  0  0  0  0  1  0  0  0  0  0  0
  159.8770  201.5950  146.5230 C   0  0  0  0  0  2  0  0  0  0  0  0
  162.0950  211.2330  149.4590 C   0  0  0  0  0  2  0  0  0  0  0  0
  162.3850  211.8520  148.0930 C   0  0  0  0  0  2  0  0  0  0  0  0
  161.0950  211.9330  147.3010 C   0  0  0  0  0  2  0  0  0  0  0  0
  160.4480  213.3050  147.4840 C   0  0  1  0  0  0  0  0  0  0  0  0
  160.2980  214.0860  146.1920 C   0  0  1  0  0  0  0  0  0  0  0  0
  159.1510  213.3890  146.7970 N   0  0  0  0  0  0  0  0  0  0  0  0
  161.3840  214.4470  147.1830 C   0  0  0  0  0  2  0  0  0  0  0  0
  160.8070  213.3830  144.9430 C   0  0  0  0  0  0  0  0  0  0  0  0
  162.6130  212.8770  143.3910 C   0  0  0  0  0  3  0  0  0  0  0  0
  160.3720  212.0870  142.9280 C   0  0  0  0  0  3  0  0  0  0  0  0
  161.7220  212.1740  142.5750 C   0  0  0  0  0  3  0  0  0  0  0  0
  159.9160  212.6940  144.1020 C   0  0  0  0  0  3  0  0  0  0  0  0
  162.1570  213.4840  144.5640 C   0  0  0  0  0  3  0  0  0  0  0  0
  158.3520  214.3890  147.4870 C   0  0  0  0  0  2  0  0  0  0  0  0
  156.7000  214.3520  149.2080 O   0  0  0  0  0  1  0  0  0  0  0  0
  157.0660  213.7650  147.9960 C   0  0  0  0  0  2  0  0  0  0  0  0
  1  2  1  0  0  0  0
  2 28  1  0  0  0  0
  2  4  1  0  0  0  0
  3  1  1  0  0  0  0
  3  6  1  0  0  0  0
  5  6  1  6  0  0  0
  5  4  1  0  0  0  0
  5 15  1  0  0  0  0
  7 13  1  0  0  0  0
  7 11  1  0  0  0  0
  8 16  2  0  0  0  0
  9 18  1  0  0  0  0
  9 13  2  0  0  0  0
 10  7  2  0  0  0  0
 12  9  1  0  0  0  0
 14 12  2  0  0  0  0
 14 10  1  0  0  0  0
 15  8  1  6  0  0  0
 15 12  1  0  0  0  0
 16 18  1  0  0  0  0
 17  8  1  0  0  0  0
 19 17  1  0  0  0  0
 20 23  1  0  0  0  0
 21 20  1  0  0  0  0
 21 25  1  0  0  0  0
 22 24  1  0  0  0  0
 23 24  1  0  0  0  0
 24 19  1  0  0  0  0
 25 22  1  0  0  0  0
 26 27  1  0  0  0  0
 27 21  1  0  0  0  0
 29 28  1  0  0  0  0
 30 29  1  0  0  0  0
 31 30  1  6  0  0  0
 32 35  1  6  0  0  0
 32 33  1  0  0  0  0
 32 34  1  0  0  0  0
 32 31  1  0  0  0  0
 33 31  1  0  0  0  0
 33 41  1  0  0  0  0
 34 31  1  0  0  0  0
 36 40  2  0  0  0  0
 37 39  1  0  0  0  0
 38 37  2  0  0  0  0
 38 36  1  0  0  0  0
 39 35  2  0  0  0  0
 40 35  1  0  0  0  0
 41 43  1  0  0  0  0
 43 42  1  0  0  0  0
M  END
>  <MODEL>
4

>  <REMARK>
 VINA RESULT:      -7.9      1.426      6.280
  Name = 
  11 active torsions:
  status: ('A' for Active; 'I' for Inactive)
    1  A    between atoms: C_1  and  N_34
    2  A    between atoms: C_1  and  C_35
    3  A    between atoms: C_3  and  C_4
    4  A    between atoms: C_3  and  C_12
    5  A    between atoms: N_6  and  C_17
    6  A    between atoms: C_10  and  N_22
    7  A    between atoms: C_10  and  C_42
    8  A    between atoms: C_11  and  C_14
    9  A    between atoms: C_12  and  C_17
   10  A    between atoms: N_19  and  C_37
   11  A    between atoms: C_27  and  C_30
                            x       y       z     vdW  Elec       q    Type
                         _______ _______ _______ _____ _____    ______ ____

>  <TORSDO>
F 11

$$$$
=
 OpenBabel11062410013D

 43 49  0  0  1  0  0  0  0  0999 V2000
  162.5590  211.3260  148.2640 C   0  0  0  0  0  2  0  0  0  0  0  0
  162.1050  211.1090  149.6400 N   0  0  0  0  0  0  0  0  0  0  0  0
  162.8160  212.8130  148.0290 C   0  0  0  0  0  2  0  0  0  0  0  0
  160.8170  211.7720  149.8510 C   0  0  0  0  0  2  0  0  0  0  0  0
  160.9700  213.2820  149.6600 C   0  0  1  0  0  3  0  0  0  0  0  0
  161.5320  213.6000  148.2710 C   0  0  0  0  0  2  0  0  0  0  0  0
  157.0180  214.2680  146.5780 C   0  0  0  0  0  0  0  0  0  0  0  0
  158.9270  213.5420  151.2070 C   0  0  0  0  0  0  0  0  0  0  0  0
  157.3510  214.2470  148.9640 C   0  0  0  0  0  0  0  0  0  0  0  0
  158.3580  214.1180  146.3970 N   0  0  0  0  0  0  0  0  0  0  0  0
  156.1170  214.3700  145.4010 C   0  0  0  0  0  1  0  0  0  0  0  0
  158.7280  214.0740  148.7650 C   0  0  0  0  0  0  0  0  0  0  0  0
  156.4920  214.3510  147.8680 C   0  0  0  0  0  3  0  0  0  0  0  0
  159.2150  214.0280  147.4500 C   0  0  0  0  0  3  0  0  0  0  0  0
  159.6550  214.0270  149.9610 C   0  0  2  0  0  3  0  0  0  0  0  0
  157.6430  213.7250  151.3340 N   0  0  0  0  0  0  0  0  0  0  0  0
  159.6600  212.9180  152.2660 N   0  0  0  0  0  2  0  0  0  0  0  0
  156.8160  214.4270  150.3500 C   0  0  0  0  0  2  0  0  0  0  0  0
  159.0540  212.5700  153.5450 C   0  0  0  0  0  2  0  0  0  0  0  0
  161.9420  210.2160  154.5730 C   0  0  0  0  0  2  0  0  0  0  0  0
  161.2500  209.4720  155.6360 N   0  0  0  0  0  0  0  0  0  0  0  0
  159.3580  211.0970  155.5500 C   0  0  0  0  0  2  0  0  0  0  0  0
  160.9720  210.9510  153.6430 C   0  0  0  0  0  2  0  0  0  0  0  0
  160.0670  211.8760  154.4500 C   0  0  0  0  0  3  0  0  0  0  0  0
  160.3850  210.3660  156.4180 C   0  0  0  0  0  2  0  0  0  0  0  0
  160.1980  207.3230  156.1160 C   0  0  0  0  0  1  0  0  0  0  0  0
  160.4570  208.3860  155.0650 C   0  0  0  0  0  2  0  0  0  0  0  0
  161.9660  209.6720  149.8980 C   0  0  0  0  0  2  0  0  0  0  0  0
  161.8590  208.8330  148.6250 C   0  0  0  0  0  2  0  0  0  0  0  0
  162.4390  207.4570  148.8870 C   0  0  0  0  0  2  0  0  0  0  0  0
  161.5420  206.6800  149.8480 C   0  0  1  0  0  0  0  0  0  0  0  0
  160.8420  205.4960  149.2070 C   0  0  1  0  0  0  0  0  0  0  0  0
  162.0290  205.3090  150.0570 N   0  0  0  0  0  0  0  0  0  0  0  0
  160.0780  206.7710  149.4980 C   0  0  0  0  0  2  0  0  0  0  0  0
  161.1470  205.2780  147.7330 C   0  0  0  0  0  0  0  0  0  0  0  0
  160.7890  205.8520  145.3940 C   0  0  0  0  0  3  0  0  0  0  0  0
  162.2150  203.9820  145.9700 C   0  0  0  0  0  3  0  0  0  0  0  0
  161.6280  204.8040  145.0040 C   0  0  0  0  0  3  0  0  0  0  0  0
  161.9700  204.2130  147.3270 C   0  0  0  0  0  3  0  0  0  0  0  0
  160.5440  206.0830  146.7510 C   0  0  0  0  0  3  0  0  0  0  0  0
  161.5610  204.8710  151.3630 C   0  0  0  0  0  2  0  0  0  0  0  0
  161.5860  202.5010  151.6360 O   0  0  0  0  0  1  0  0  0  0  0  0
  160.7890  203.5710  151.2260 C   0  0  0  0  0  2  0  0  0  0  0  0
  1  2  1  0  0  0  0
  2  4  1  0  0  0  0
  2 28  1  0  0  0  0
  3  1  1  0  0  0  0
  3  6  1  0  0  0  0
  5  6  1  6  0  0  0
  5  4  1  0  0  0  0
  5 15  1  0  0  0  0
  7 13  1  0  0  0  0
  8 16  2  0  0  0  0
  8 17  1  0  0  0  0
  9 18  1  0  0  0  0
 10  7  2  0  0  0  0
 10 14  1  0  0  0  0
 11  7  1  0  0  0  0
 12  9  1  0  0  0  0
 13  9  2  0  0  0  0
 14 12  2  0  0  0  0
 15 12  1  6  0  0  0
 15  8  1  0  0  0  0
 17 19  1  0  0  0  0
 18 16  1  0  0  0  0
 19 24  1  0  0  0  0
 20 21  1  0  0  0  0
 21 25  1  0  0  0  0
 22 25  1  0  0  0  0
 23 24  1  0  0  0  0
 23 20  1  0  0  0  0
 24 22  1  0  0  0  0
 27 21  1  0  0  0  0
 27 26  1  0  0  0  0
 29 30  1  0  0  0  0
 29 28  1  0  0  0  0
 31 30  1  6  0  0  0
 31 33  1  0  0  0  0
 32 35  1  6  0  0  0
 32 34  1  0  0  0  0
 32 31  1  0  0  0  0
 32 33  1  0  0  0  0
 33 41  1  0  0  0  0
 34 31  1  0  0  0  0
 36 40  1  0  0  0  0
 37 39  2  0  0  0  0
 38 36  2  0  0  0  0
 38 37  1  0  0  0  0
 39 35  1  0  0  0  0
 40 35  2  0  0  0  0
 43 41  1  0  0  0  0
 43 42  1  0  0  0  0
M  END
>  <MODEL>
5

>  <REMARK>
 VINA RESULT:      -7.8      2.783      8.280
  Name = 
  11 active torsions:
  status: ('A' for Active; 'I' for Inactive)
    1  A    between atoms: C_1  and  N_34
    2  A    between atoms: C_1  and  C_35
    3  A    between atoms: C_3  and  C_4
    4  A    between atoms: C_3  and  C_12
    5  A    between atoms: N_6  and  C_17
    6  A    between atoms: C_10  and  N_22
    7  A    between atoms: C_10  and  C_42
    8  A    between atoms: C_11  and  C_14
    9  A    between atoms: C_12  and  C_17
   10  A    between atoms: N_19  and  C_37
   11  A    between atoms: C_27  and  C_30
                            x       y       z     vdW  Elec       q    Type
                         _______ _______ _______ _____ _____    ______ ____

>  <TORSDO>
F 11

$$$$
=
 OpenBabel11062410013D

 43 49  0  0  1  0  0  0  0  0999 V2000
  162.6810  211.4470  148.2660 C   0  0  0  0  0  2  0  0  0  0  0  0
  162.1300  211.0870  149.5750 N   0  0  0  0  0  0  0  0  0  0  0  0
  162.9590  212.9470  148.2120 C   0  0  0  0  0  2  0  0  0  0  0  0
  160.8320  211.7390  149.7660 C   0  0  0  0  0  2  0  0  0  0  0  0
  161.0040  213.2590  149.7510 C   0  0  1  0  0  3  0  0  0  0  0  0
  161.6640  213.7180  148.4470 C   0  0  0  0  0  2  0  0  0  0  0  0
  157.0200  214.0750  146.6610 C   0  0  0  0  0  0  0  0  0  0  0  0
  158.9610  213.5130  151.2990 C   0  0  0  0  0  0  0  0  0  0  0  0
  157.3610  214.1240  149.0450 C   0  0  0  0  0  0  0  0  0  0  0  0
  158.3630  213.9510  146.4780 N   0  0  0  0  0  0  0  0  0  0  0  0
  156.1130  214.1270  145.4850 C   0  0  0  0  0  1  0  0  0  0  0  0
  158.7420  213.9760  148.8450 C   0  0  0  0  0  0  0  0  0  0  0  0
  156.4970  214.1800  147.9500 C   0  0  0  0  0  3  0  0  0  0  0  0
  159.2250  213.9070  147.5300 C   0  0  0  0  0  3  0  0  0  0  0  0
  159.6740  213.9810  150.0380 C   0  0  2  0  0  3  0  0  0  0  0  0
  157.6730  213.6700  151.4260 N   0  0  0  0  0  0  0  0  0  0  0  0
  159.7110  212.9320  152.3700 N   0  0  0  0  0  2  0  0  0  0  0  0
  156.8280  214.3270  150.4280 C   0  0  0  0  0  2  0  0  0  0  0  0
  159.1180  212.6040  153.6610 C   0  0  0  0  0  2  0  0  0  0  0  0
  161.8050  209.9580  154.5050 C   0  0  0  0  0  2  0  0  0  0  0  0
  161.0750  209.2330  155.5560 N   0  0  0  0  0  0  0  0  0  0  0  0
  159.3370  211.0230  155.5920 C   0  0  0  0  0  2  0  0  0  0  0  0
  160.8830  210.8170  153.6350 C   0  0  0  0  0  2  0  0  0  0  0  0
  160.0860  211.7830  154.5060 C   0  0  0  0  0  3  0  0  0  0  0  0
  160.3150  210.1650  156.3990 C   0  0  0  0  0  2  0  0  0  0  0  0
  160.9620  207.0440  154.4830 C   0  0  0  0  0  1  0  0  0  0  0  0
  160.1730  208.2480  154.9620 C   0  0  0  0  0  2  0  0  0  0  0  0
  161.9680  209.6320  149.6650 C   0  0  0  0  0  2  0  0  0  0  0  0
  161.9680  208.9350  148.3060 C   0  0  0  0  0  2  0  0  0  0  0  0
  161.9530  207.4340  148.5190 C   0  0  0  0  0  2  0  0  0  0  0  0
  161.8150  206.7120  147.1800 C   0  0  1  0  0  0  0  0  0  0  0  0
  161.4090  205.2560  147.3100 C   0  0  1  0  0  0  0  0  0  0  0  0
  160.4300  206.2870  146.9320 N   0  0  0  0  0  0  0  0  0  0  0  0
  162.8410  205.6250  146.9840 C   0  0  0  0  0  2  0  0  0  0  0  0
  161.2060  204.7610  148.7350 C   0  0  0  0  0  0  0  0  0  0  0  0
  160.8330  202.9390  150.3050 C   0  0  0  0  0  3  0  0  0  0  0  0
  160.8340  205.2270  151.0950 C   0  0  0  0  0  3  0  0  0  0  0  0
  160.7210  203.8580  151.3520 C   0  0  0  0  0  3  0  0  0  0  0  0
  161.0680  205.6770  149.7920 C   0  0  0  0  0  3  0  0  0  0  0  0
  161.0670  203.3880  149.0020 C   0  0  0  0  0  3  0  0  0  0  0  0
  160.2470  206.2020  145.4920 C   0  0  0  0  0  2  0  0  0  0  0  0
  161.4100  205.0580  143.7510 O   0  0  0  0  0  1  0  0  0  0  0  0
  160.7760  204.8740  144.9810 C   0  0  0  0  0  2  0  0  0  0  0  0
  1  2  1  0  0  0  0
  2 28  1  0  0  0  0
  2  4  1  0  0  0  0
  3  1  1  0  0  0  0
  3  6  1  0  0  0  0
  5  6  1  6  0  0  0
  5  4  1  0  0  0  0
  5 15  1  0  0  0  0
  7 13  1  0  0  0  0
  8 16  2  0  0  0  0
  8 17  1  0  0  0  0
  9 18  1  0  0  0  0
 10  7  2  0  0  0  0
 10 14  1  0  0  0  0
 11  7  1  0  0  0  0
 12  9  1  0  0  0  0
 13  9  2  0  0  0  0
 14 12  2  0  0  0  0
 15 12  1  6  0  0  0
 15  8  1  0  0  0  0
 17 19  1  0  0  0  0
 18 16  1  0  0  0  0
 19 24  1  0  0  0  0
 20 21  1  0  0  0  0
 21 25  1  0  0  0  0
 22 25  1  0  0  0  0
 23 20  1  0  0  0  0
 23 24  1  0  0  0  0
 24 22  1  0  0  0  0
 26 27  1  0  0  0  0
 27 21  1  0  0  0  0
 29 30  1  0  0  0  0
 29 28  1  0  0  0  0
 31 32  1  0  0  0  0
 31 30  1  1  0  0  0
 32 35  1  1  0  0  0
 33 31  1  0  0  0  0
 33 32  1  0  0  0  0
 34 31  1  0  0  0  0
 34 32  1  0  0  0  0
 35 40  2  0  0  0  0
 35 39  1  0  0  0  0
 36 38  2  0  0  0  0
 37 38  1  0  0  0  0
 39 37  2  0  0  0  0
 40 36  1  0  0  0  0
 41 33  1  0  0  0  0
 42 43  1  0  0  0  0
 43 41  1  0  0  0  0
M  END
>  <MODEL>
6

>  <REMARK>
 VINA RESULT:      -7.7      2.904      8.564
  Name = 
  11 active torsions:
  status: ('A' for Active; 'I' for Inactive)
    1  A    between atoms: C_1  and  N_34
    2  A    between atoms: C_1  and  C_35
    3  A    between atoms: C_3  and  C_4
    4  A    between atoms: C_3  and  C_12
    5  A    between atoms: N_6  and  C_17
    6  A    between atoms: C_10  and  N_22
    7  A    between atoms: C_10  and  C_42
    8  A    between atoms: C_11  and  C_14
    9  A    between atoms: C_12  and  C_17
   10  A    between atoms: N_19  and  C_37
   11  A    between atoms: C_27  and  C_30
                            x       y       z     vdW  Elec       q    Type
                         _______ _______ _______ _____ _____    ______ ____

>  <TORSDO>
F 11

$$$$
=
 OpenBabel11062410013D

 43 49  0  0  1  0  0  0  0  0999 V2000
  160.5070  208.6500  153.8830 C   0  0  0  0  0  2  0  0  0  0  0  0
  161.3290  209.4960  153.0140 N   0  0  0  0  0  0  0  0  0  0  0  0
  161.1850  207.2970  154.0850 C   0  0  0  0  0  2  0  0  0  0  0  0
  161.4240  208.8970  151.6800 C   0  0  0  0  0  2  0  0  0  0  0  0
  162.1150  207.5350  151.7680 C   0  0  1  0  0  3  0  0  0  0  0  0
  161.3700  206.6100  152.7360 C   0  0  0  0  0  2  0  0  0  0  0  0
  160.7110  202.9400  150.0370 C   0  0  0  0  0  0  0  0  0  0  0  0
  161.8710  207.7950  149.2170 C   0  0  0  0  0  0  0  0  0  0  0  0
  161.3610  205.0190  149.0090 C   0  0  0  0  0  0  0  0  0  0  0  0
  161.0760  203.4340  151.2520 N   0  0  0  0  0  0  0  0  0  0  0  0
  160.1760  201.5580  149.9290 C   0  0  0  0  0  1  0  0  0  0  0  0
  161.7160  205.5240  150.2680 C   0  0  0  0  0  0  0  0  0  0  0  0
  160.8620  203.7200  148.8900 C   0  0  0  0  0  3  0  0  0  0  0  0
  161.5770  204.6920  151.3890 C   0  0  0  0  0  3  0  0  0  0  0  0
  162.3160  206.9110  150.3740 C   0  0  2  0  0  3  0  0  0  0  0  0
  161.5450  207.2690  148.0710 N   0  0  0  0  0  0  0  0  0  0  0  0
  161.8480  209.2180  149.3740 N   0  0  0  0  0  2  0  0  0  0  0  0
  161.6160  205.8350  147.7810 C   0  0  0  0  0  2  0  0  0  0  0  0
  161.5830  210.1280  148.2660 C   0  0  0  0  0  2  0  0  0  0  0  0
  161.2580  213.9470  148.7630 C   0  0  0  0  0  2  0  0  0  0  0  0
  162.4090  214.3710  147.9510 N   0  0  0  0  0  0  0  0  0  0  0  0
  163.1760  212.0020  147.7880 C   0  0  0  0  0  2  0  0  0  0  0  0
  160.8180  212.5130  148.4540 C   0  0  0  0  0  2  0  0  0  0  0  0
  161.9890  211.5520  148.6300 C   0  0  0  0  0  3  0  0  0  0  0  0
  163.5390  213.4500  148.1290 C   0  0  0  0  0  2  0  0  0  0  0  0
  160.5310  214.3550  146.3930 C   0  0  0  0  0  1  0  0  0  0  0  0
  162.0380  214.4400  146.5390 C   0  0  0  0  0  2  0  0  0  0  0  0
  160.7340  210.8330  152.9110 C   0  0  0  0  0  2  0  0  0  0  0  0
  159.2140  210.8120  152.7630 C   0  0  0  0  0  2  0  0  0  0  0  0
  158.7440  212.1680  152.2750 C   0  0  0  0  0  2  0  0  0  0  0  0
  158.2850  213.0240  153.4540 C   0  0  1  0  0  0  0  0  0  0  0  0
  157.3310  214.1380  153.0650 C   0  0  1  0  0  0  0  0  0  0  0  0
  156.8390  212.8970  153.6860 N   0  0  0  0  0  0  0  0  0  0  0  0
  158.7790  214.4470  153.3830 C   0  0  0  0  0  2  0  0  0  0  0  0
  156.9910  214.2170  151.5840 C   0  0  0  0  0  0  0  0  0  0  0  0
  155.3580  214.0960  149.7820 C   0  0  0  0  0  3  0  0  0  0  0  0
  157.7060  214.3760  149.2630 C   0  0  0  0  0  3  0  0  0  0  0  0
  156.3790  214.2540  148.8410 C   0  0  0  0  0  3  0  0  0  0  0  0
  158.0110  214.3510  150.6260 C   0  0  0  0  0  3  0  0  0  0  0  0
  155.6630  214.0700  151.1460 C   0  0  0  0  0  3  0  0  0  0  0  0
  156.5920  213.1860  155.0900 C   0  0  0  0  0  2  0  0  0  0  0  0
  155.7590  210.9530  154.9850 O   0  0  0  0  0  1  0  0  0  0  0  0
  156.3250  211.8960  155.8440 C   0  0  0  0  0  2  0  0  0  0  0  0
  1  3  1  0  0  0  0
  2  1  1  0  0  0  0
  4  2  1  0  0  0  0
  5  4  1  6  0  0  0
  5  6  1  0  0  0  0
  6  3  1  0  0  0  0
  7 10  1  0  0  0  0
  8 17  1  0  0  0  0
  9 12  2  0  0  0  0
 10 14  2  0  0  0  0
 11  7  1  0  0  0  0
 12 15  1  0  0  0  0
 12 14  1  0  0  0  0
 13  9  1  0  0  0  0
 13  7  2  0  0  0  0
 15  8  1  6  0  0  0
 15  5  1  0  0  0  0
 16  8  2  0  0  0  0
 18 16  1  0  0  0  0
 18  9  1  0  0  0  0
 19 24  1  0  0  0  0
 19 17  1  0  0  0  0
 21 25  1  0  0  0  0
 21 20  1  0  0  0  0
 22 25  1  0  0  0  0
 22 24  1  0  0  0  0
 23 24  1  0  0  0  0
 23 20  1  0  0  0  0
 26 27  1  0  0  0  0
 27 21  1  0  0  0  0
 28  2  1  0  0  0  0
 29 28  1  0  0  0  0
 30 29  1  0  0  0  0
 31 30  1  6  0  0  0
 31 33  1  0  0  0  0
 32 35  1  6  0  0  0
 32 34  1  0  0  0  0
 32 31  1  0  0  0  0
 32 33  1  0  0  0  0
 33 41  1  0  0  0  0
 34 31  1  0  0  0  0
 36 40  2  0  0  0  0
 37 39  1  0  0  0  0
 38 37  2  0  0  0  0
 38 36  1  0  0  0  0
 39 35  2  0  0  0  0
 40 35  1  0  0  0  0
 41 43  1  0  0  0  0
 42 43  1  0  0  0  0
M  END
>  <MODEL>
7

>  <REMARK>
 VINA RESULT:      -7.1      2.339      6.089
  Name = 
  11 active torsions:
  status: ('A' for Active; 'I' for Inactive)
    1  A    between atoms: C_1  and  N_34
    2  A    between atoms: C_1  and  C_35
    3  A    between atoms: C_3  and  C_4
    4  A    between atoms: C_3  and  C_12
    5  A    between atoms: N_6  and  C_17
    6  A    between atoms: C_10  and  N_22
    7  A    between atoms: C_10  and  C_42
    8  A    between atoms: C_11  and  C_14
    9  A    between atoms: C_12  and  C_17
   10  A    between atoms: N_19  and  C_37
   11  A    between atoms: C_27  and  C_30
                            x       y       z     vdW  Elec       q    Type
                         _______ _______ _______ _____ _____    ______ ____

>  <TORSDO>
F 11

$$$$
=
 OpenBabel11062410013D

 43 49  0  0  1  0  0  0  0  0999 V2000
  162.0440  210.7210  149.1310 C   0  0  0  0  0  2  0  0  0  0  0  0
  161.0920  210.7500  150.2450 N   0  0  0  0  0  0  0  0  0  0  0  0
  161.9780  209.3680  148.4240 C   0  0  0  0  0  2  0  0  0  0  0  0
  161.4720  209.7560  151.2520 C   0  0  0  0  0  2  0  0  0  0  0  0
  161.4150  208.3520  150.6470 C   0  0  1  0  0  3  0  0  0  0  0  0
  162.3170  208.2560  149.4120 C   0  0  0  0  0  2  0  0  0  0  0  0
  160.4620  208.3430  155.6640 C   0  0  0  0  0  0  0  0  0  0  0  0
  161.2520  205.8720  151.3210 C   0  0  0  0  0  0  0  0  0  0  0  0
  160.9790  206.6520  154.0280 C   0  0  0  0  0  0  0  0  0  0  0  0
  160.7370  209.3070  154.7450 N   0  0  0  0  0  0  0  0  0  0  0  0
  160.0460  208.7250  157.0390 C   0  0  0  0  0  1  0  0  0  0  0  0
  161.2420  207.6550  153.0830 C   0  0  0  0  0  0  0  0  0  0  0  0
  160.5930  206.9950  155.3250 C   0  0  0  0  0  3  0  0  0  0  0  0
  161.1270  208.9960  153.4790 C   0  0  0  0  0  3  0  0  0  0  0  0
  161.7210  207.2690  151.6990 C   0  0  2  0  0  3  0  0  0  0  0  0
  161.0160  204.9820  152.2440 N   0  0  0  0  0  0  0  0  0  0  0  0
  161.1070  205.5160  149.9420 N   0  0  0  0  0  2  0  0  0  0  0  0
  161.2160  205.2170  153.6750 C   0  0  0  0  0  2  0  0  0  0  0  0
  160.8120  204.1560  149.5070 C   0  0  0  0  0  2  0  0  0  0  0  0
  162.8370  204.7320  146.2660 C   0  0  0  0  0  2  0  0  0  0  0  0
  161.9860  203.9720  145.3380 N   0  0  0  0  0  0  0  0  0  0  0  0
  160.7080  203.0370  147.2670 C   0  0  0  0  0  2  0  0  0  0  0  0
  162.1170  205.0830  147.5710 C   0  0  0  0  0  2  0  0  0  0  0  0
  161.5850  203.8180  148.2370 C   0  0  0  0  0  3  0  0  0  0  0  0
  161.4820  202.7490  145.9770 C   0  0  0  0  0  2  0  0  0  0  0  0
  161.2100  205.4500  143.5590 C   0  0  0  0  0  1  0  0  0  0  0  0
  160.8670  204.7950  144.8840 C   0  0  0  0  0  2  0  0  0  0  0  0
  161.0760  212.0840  150.8520 C   0  0  0  0  0  2  0  0  0  0  0  0
  160.4490  212.1110  152.2460 C   0  0  0  0  0  2  0  0  0  0  0  0
  158.9460  212.2460  152.1110 C   0  0  0  0  0  2  0  0  0  0  0  0
  158.3650  212.9390  153.3420 C   0  0  1  0  0  0  0  0  0  0  0  0
  157.2600  213.9280  153.0210 C   0  0  1  0  0  0  0  0  0  0  0  0
  156.9520  212.5880  153.5460 N   0  0  0  0  0  0  0  0  0  0  0  0
  158.6480  214.4190  153.3770 C   0  0  0  0  0  2  0  0  0  0  0  0
  156.9150  214.0630  151.5460 C   0  0  0  0  0  0  0  0  0  0  0  0
  157.6020  214.4360  149.2400 C   0  0  0  0  0  3  0  0  0  0  0  0
  155.2490  214.2460  149.7790 C   0  0  0  0  0  3  0  0  0  0  0  0
  156.2650  214.4220  148.8350 C   0  0  0  0  0  3  0  0  0  0  0  0
  155.5720  214.0750  151.1280 C   0  0  0  0  0  3  0  0  0  0  0  0
  157.9250  214.2650  150.5890 C   0  0  0  0  0  3  0  0  0  0  0  0
  156.6640  212.7360  154.9640 C   0  0  0  0  0  2  0  0  0  0  0  0
  158.2610  212.2360  156.6650 O   0  0  0  0  0  1  0  0  0  0  0  0
  157.3780  211.6540  155.7540 C   0  0  0  0  0  2  0  0  0  0  0  0
  1  2  1  0  0  0  0
  2 28  1  0  0  0  0
  2  4  1  0  0  0  0
  3  1  1  0  0  0  0
  3  6  1  0  0  0  0
  5  6  1  6  0  0  0
  5  4  1  0  0  0  0
  5 15  1  0  0  0  0
  7 11  1  0  0  0  0
  8 16  2  0  0  0  0
  9 13  2  0  0  0  0
 10  7  2  0  0  0  0
 12 14  2  0  0  0  0
 12  9  1  0  0  0  0
 13  7  1  0  0  0  0
 14 10  1  0  0  0  0
 15  8  1  6  0  0  0
 15 12  1  0  0  0  0
 16 18  1  0  0  0  0
 17  8  1  0  0  0  0
 18  9  1  0  0  0  0
 19 17  1  0  0  0  0
 20 23  1  0  0  0  0
 21 25  1  0  0  0  0
 21 20  1  0  0  0  0
 22 24  1  0  0  0  0
 23 24  1  0  0  0  0
 24 19  1  0  0  0  0
 25 22  1  0  0  0  0
 26 27  1  0  0  0  0
 27 21  1  0  0  0  0
 28 29  1  0  0  0  0
 30 29  1  0  0  0  0
 31 30  1  6  0  0  0
 31 34  1  0  0  0  0
 31 33  1  0  0  0  0
 32 35  1  6  0  0  0
 32 31  1  0  0  0  0
 32 34  1  0  0  0  0
 32 33  1  0  0  0  0
 33 41  1  0  0  0  0
 36 40  1  0  0  0  0
 37 39  2  0  0  0  0
 38 36  2  0  0  0  0
 38 37  1  0  0  0  0
 39 35  1  0  0  0  0
 40 35  2  0  0  0  0
 41 43  1  0  0  0  0
 43 42  1  0  0  0  0
M  END
>  <MODEL>
8

>  <REMARK>
 VINA RESULT:      -7.0      2.764      7.146
  Name = 
  11 active torsions:
  status: ('A' for Active; 'I' for Inactive)
    1  A    between atoms: C_1  and  N_34
    2  A    between atoms: C_1  and  C_35
    3  A    between atoms: C_3  and  C_4
    4  A    between atoms: C_3  and  C_12
    5  A    between atoms: N_6  and  C_17
    6  A    between atoms: C_10  and  N_22
    7  A    between atoms: C_10  and  C_42
    8  A    between atoms: C_11  and  C_14
    9  A    between atoms: C_12  and  C_17
   10  A    between atoms: N_19  and  C_37
   11  A    between atoms: C_27  and  C_30
                            x       y       z     vdW  Elec       q    Type
                         _______ _______ _______ _____ _____    ______ ____

>  <TORSDO>
F 11

$$$$
=
 OpenBabel11062410013D

 43 49  0  0  1  0  0  0  0  0999 V2000
  162.3630  210.3220  150.7340 C   0  0  0  0  0  2  0  0  0  0  0  0
  161.0130  210.1370  151.2710 N   0  0  0  0  0  0  0  0  0  0  0  0
  162.4770  209.6530  149.3660 C   0  0  0  0  0  2  0  0  0  0  0  0
  160.7600  208.7130  151.5030 C   0  0  0  0  0  2  0  0  0  0  0  0
  160.8280  207.9480  150.1800 C   0  0  1  0  0  3  0  0  0  0  0  0
  162.1840  208.1620  149.4980 C   0  0  0  0  0  2  0  0  0  0  0  0
  161.4500  204.0360  146.9560 C   0  0  0  0  0  0  0  0  0  0  0  0
  161.0040  205.8460  151.6590 C   0  0  0  0  0  0  0  0  0  0  0  0
  161.0800  204.2430  149.3270 C   0  0  0  0  0  0  0  0  0  0  0  0
  161.2140  205.3680  146.8090 N   0  0  0  0  0  0  0  0  0  0  0  0
  161.7660  203.2030  145.7660 C   0  0  0  0  0  1  0  0  0  0  0  0
  160.8570  205.6190  149.1660 C   0  0  0  0  0  0  0  0  0  0  0  0
  161.3720  203.4470  148.2180 C   0  0  0  0  0  3  0  0  0  0  0  0
  160.9150  206.1610  147.8740 C   0  0  0  0  0  3  0  0  0  0  0  0
  160.4790  206.4590  150.3680 C   0  0  2  0  0  3  0  0  0  0  0  0
  161.1990  204.5610  151.7480 N   0  0  0  0  0  0  0  0  0  0  0  0
  161.2470  206.6790  152.7970 N   0  0  0  0  0  2  0  0  0  0  0  0
  160.9010  203.6130  150.6720 C   0  0  0  0  0  2  0  0  0  0  0  0
  161.6020  206.1410  154.1050 C   0  0  0  0  0  2  0  0  0  0  0  0
  159.4490  208.8870  155.7660 C   0  0  0  0  0  2  0  0  0  0  0  0
  160.4560  209.4230  156.6940 N   0  0  0  0  0  0  0  0  0  0  0  0
  161.9630  207.5020  156.1780 C   0  0  0  0  0  2  0  0  0  0  0  0
  160.0710  208.0590  154.6370 C   0  0  0  0  0  2  0  0  0  0  0  0
  160.9260  206.9370  155.2160 C   0  0  0  0  0  3  0  0  0  0  0  0
  161.2730  208.3400  157.2570 C   0  0  0  0  0  2  0  0  0  0  0  0
  160.8080  211.7990  156.2640 C   0  0  0  0  0  1  0  0  0  0  0  0
  161.3130  210.3910  156.0120 C   0  0  0  0  0  2  0  0  0  0  0  0
  160.8710  210.8730  152.5310 C   0  0  0  0  0  2  0  0  0  0  0  0
  159.4170  211.0940  152.9460 C   0  0  0  0  0  2  0  0  0  0  0  0
  158.7380  211.9830  151.9230 C   0  0  0  0  0  2  0  0  0  0  0  0
  158.3250  213.3060  152.5650 C   0  0  1  0  0  0  0  0  0  0  0  0
  157.8910  214.3610  151.5640 C   0  0  1  0  0  0  0  0  0  0  0  0
  156.9020  213.5960  152.3410 N   0  0  0  0  0  0  0  0  0  0  0  0
  159.2520  214.4460  152.2250 C   0  0  0  0  0  2  0  0  0  0  0  0
  157.9360  213.9320  150.1050 C   0  0  0  0  0  0  0  0  0  0  0  0
  159.1950  213.5120  148.0650 C   0  0  0  0  0  3  0  0  0  0  0  0
  156.7800  213.3380  148.0470 C   0  0  0  0  0  3  0  0  0  0  0  0
  158.0050  213.2460  147.3800 C   0  0  0  0  0  3  0  0  0  0  0  0
  156.7450  213.6860  149.4000 C   0  0  0  0  0  3  0  0  0  0  0  0
  159.1600  213.8600  149.4180 C   0  0  0  0  0  3  0  0  0  0  0  0
  156.4520  214.4520  153.4280 C   0  0  0  0  0  2  0  0  0  0  0  0
  155.5420  212.5670  154.5730 O   0  0  0  0  0  1  0  0  0  0  0  0
  155.2330  213.8430  154.0960 C   0  0  0  0  0  2  0  0  0  0  0  0
  1  2  1  0  0  0  0
  2  4  1  0  0  0  0
  2 28  1  0  0  0  0
  3  6  1  0  0  0  0
  3  1  1  0  0  0  0
  5  6  1  1  0  0  0
  5 15  1  0  0  0  0
  5  4  1  0  0  0  0
  7 13  1  0  0  0  0
  8 16  2  0  0  0  0
  8 17  1  0  0  0  0
  9 18  1  0  0  0  0
 10  7  2  0  0  0  0
 10 14  1  0  0  0  0
 11  7  1  0  0  0  0
 12  9  1  0  0  0  0
 13  9  2  0  0  0  0
 14 12  2  0  0  0  0
 15 12  1  6  0  0  0
 15  8  1  0  0  0  0
 17 19  1  0  0  0  0
 18 16  1  0  0  0  0
 19 24  1  0  0  0  0
 20 21  1  0  0  0  0
 21 25  1  0  0  0  0
 22 25  1  0  0  0  0
 23 24  1  0  0  0  0
 23 20  1  0  0  0  0
 24 22  1  0  0  0  0
 27 26  1  0  0  0  0
 27 21  1  0  0  0  0
 28 29  1  0  0  0  0
 30 29  1  0  0  0  0
 31 30  1  6  0  0  0
 32 35  1  6  0  0  0
 32 34  1  0  0  0  0
 32 33  1  0  0  0  0
 32 31  1  0  0  0  0
 33 31  1  0  0  0  0
 33 41  1  0  0  0  0
 34 31  1  0  0  0  0
 36 40  2  0  0  0  0
 37 39  1  0  0  0  0
 38 37  2  0  0  0  0
 38 36  1  0  0  0  0
 39 35  2  0  0  0  0
 40 35  1  0  0  0  0
 41 43  1  0  0  0  0
 43 42  1  0  0  0  0
M  END
>  <MODEL>
9

>  <REMARK>
 VINA RESULT:      -6.9      2.384      3.480
  Name = 
  11 active torsions:
  status: ('A' for Active; 'I' for Inactive)
    1  A    between atoms: C_1  and  N_34
    2  A    between atoms: C_1  and  C_35
    3  A    between atoms: C_3  and  C_4
    4  A    between atoms: C_3  and  C_12
    5  A    between atoms: N_6  and  C_17
    6  A    between atoms: C_10  and  N_22
    7  A    between atoms: C_10  and  C_42
    8  A    between atoms: C_11  and  C_14
    9  A    between atoms: C_12  and  C_17
   10  A    between atoms: N_19  and  C_37
   11  A    between atoms: C_27  and  C_30
                            x       y       z     vdW  Elec       q    Type
                         _______ _______ _______ _____ _____    ______ ____

>  <TORSDO>
F 11

$$$$
