=
 OpenBabel11052422193D

 25 29  0  0  1  0  0  0  0  0999 V2000
  161.4650  206.0980  149.9830 N   0  0  0  0  0  0  0  0  0  0  0  0
  161.7430  207.3020  150.7730 C   0  0  1  0  0  3  0  0  0  0  0  0
  161.7150  207.2680  147.9060 N   0  0  0  0  0  2  0  0  0  0  0  0
  161.2590  204.8250  150.3580 C   0  0  0  0  0  0  0  0  0  0  0  0
  160.7940  202.1110  150.6460 C   0  0  0  0  0  3  0  0  0  0  0  0
  162.3130  208.3520  148.5780 N   0  0  0  0  0  2  0  0  0  0  0  0
  161.0750  204.0360  149.2470 C   0  0  0  0  0  0  0  0  0  0  0  0
  160.8380  202.6680  149.3540 C   0  0  0  0  0  3  0  0  0  0  0  0
  160.9880  202.9210  151.7850 C   0  0  0  0  0  3  0  0  0  0  0  0
  161.4450  206.0820  148.6410 C   0  0  0  0  0  0  0  0  0  0  0  0
  161.1890  204.8210  148.1080 C   0  0  0  0  0  3  0  0  0  0  0  0
  161.2260  204.2990  151.6500 C   0  0  0  0  0  3  0  0  0  0  0  0
  161.6380  208.5610  149.8700 C   0  0  2  0  0  3  0  0  0  0  0  0
  162.2450  209.7740  150.5610 C   0  0  1  0  0  3  0  0  0  0  0  0
  162.1710  210.9410  149.6870 C   0  0  0  0  0  2  0  0  0  0  0  0
  161.1980  210.7850  150.7760 N   0  0  0  0  0  2  0  0  0  0  0  0
  160.7490  207.4060  151.9290 C   0  0  0  0  0  2  0  0  0  0  0  0
  160.5120  207.7560  155.4250 C   0  0  1  0  0  0  0  0  0  0  0  0
  161.4680  207.6580  153.2470 C   0  0  1  0  0  3  0  0  0  0  0  0
  159.2810  207.4310  155.9610 F   0  0  0  0  0  0  0  0  0  0  0  0
  161.5810  207.7440  156.5090 C   0  0  0  0  0  1  0  0  0  0  0  0
  161.3510  209.0160  153.6020 O   0  0  0  0  0  0  0  0  0  0  0  0
  160.7040  210.2190  155.5100 N   0  0  0  0  0  1  0  0  0  0  0  0
  160.8870  206.7860  154.3510 C   0  0  0  0  0  2  0  0  0  0  0  0
  160.4370  209.0660  154.6650 C   0  0  2  0  0  3  0  0  0  0  0  0
  1  4  1  0  0  0  0
  1  2  1  0  0  0  0
  2 17  1  1  0  0  0
  3  6  1  0  0  0  0
  3 10  1  0  0  0  0
  4 12  1  0  0  0  0
  5  9  1  0  0  0  0
  7  8  1  0  0  0  0
  7  4  2  0  0  0  0
  8  5  2  0  0  0  0
 10  1  1  0  0  0  0
 11 10  2  0  0  0  0
 11  7  1  0  0  0  0
 12  9  2  0  0  0  0
 13  6  1  6  0  0  0
 13 14  1  0  0  0  0
 13  2  1  0  0  0  0
 14 15  1  6  0  0  0
 14 16  1  0  0  0  0
 15 16  1  0  0  0  0
 18 20  1  0  0  0  0
 18 21  1  1  0  0  0
 19 17  1  6  0  0  0
 19 22  1  0  0  0  0
 19 24  1  0  0  0  0
 22 25  1  0  0  0  0
 24 18  1  0  0  0  0
 25 18  1  0  0  0  0
 25 23  1  1  0  0  0
M  END
>  <MODEL>
1

>  <REMARK>
 VINA RESULT:      -8.9      0.000      0.000
  Name = 
  3 active torsions:
  status: ('A' for Active; 'I' for Inactive)
    1  A    between atoms: C_3  and  C_16
    2  A    between atoms: C_6  and  C_16
    3  A    between atoms: C_13  and  C_24
                            x       y       z     vdW  Elec       q    Type
                         _______ _______ _______ _____ _____    ______ ____

>  <TORSDO>
F 3

$$$$
=
 OpenBabel11052422193D

 25 29  0  0  1  0  0  0  0  0999 V2000
  161.2910  206.0320  150.9580 N   0  0  0  0  0  0  0  0  0  0  0  0
  161.2130  205.1900  149.7590 C   0  0  1  0  0  3  0  0  0  0  0  0
  161.0660  204.1520  152.4290 N   0  0  0  0  0  2  0  0  0  0  0  0
  161.5110  207.3490  151.0970 C   0  0  0  0  0  0  0  0  0  0  0  0
  161.9310  209.9740  151.8710 C   0  0  0  0  0  3  0  0  0  0  0  0
  161.3250  203.2730  151.3590 N   0  0  0  0  0  2  0  0  0  0  0  0
  161.5310  207.6780  152.4320 C   0  0  0  0  0  0  0  0  0  0  0  0
  161.7390  208.9880  152.8570 C   0  0  0  0  0  3  0  0  0  0  0  0
  161.9140  209.6330  150.5020 C   0  0  0  0  0  3  0  0  0  0  0  0
  161.2150  205.5480  152.2080 C   0  0  0  0  0  0  0  0  0  0  0  0
  161.3420  206.5300  153.1870 C   0  0  0  0  0  3  0  0  0  0  0  0
  161.7020  208.3040  150.0980 C   0  0  0  0  0  3  0  0  0  0  0  0
  160.6780  203.7820  150.1370 C   0  0  2  0  0  3  0  0  0  0  0  0
  160.9060  202.7930  149.0020 C   0  0  1  0  0  3  0  0  0  0  0  0
  161.0650  201.4430  149.5340 C   0  0  0  0  0  2  0  0  0  0  0  0
  159.7800  201.8480  148.9480 N   0  0  0  0  0  2  0  0  0  0  0  0
  160.2910  205.8370  148.7280 C   0  0  0  0  0  2  0  0  0  0  0  0
  161.2990  204.9880  145.4620 C   0  0  1  0  0  0  0  0  0  0  0  0
  161.0620  206.2340  147.4770 C   0  0  1  0  0  3  0  0  0  0  0  0
  160.6920  203.8630  144.9380 F   0  0  0  0  0  0  0  0  0  0  0  0
  161.9030  205.8320  144.3470 C   0  0  0  0  0  1  0  0  0  0  0  0
  162.3370  205.6340  147.4930 O   0  0  0  0  0  0  0  0  0  0  0  0
  163.6280  204.3590  146.0040 N   0  0  0  0  0  1  0  0  0  0  0  0
  160.3100  205.8100  146.2240 C   0  0  0  0  0  2  0  0  0  0  0  0
  162.2980  204.6060  146.5380 C   0  0  2  0  0  3  0  0  0  0  0  0
  1  4  1  0  0  0  0
  1 10  1  0  0  0  0
  2 17  1  6  0  0  0
  2 13  1  0  0  0  0
  2  1  1  0  0  0  0
  4  7  1  0  0  0  0
  5  8  1  0  0  0  0
  6  3  1  0  0  0  0
  7  8  2  0  0  0  0
  7 11  1  0  0  0  0
  9  5  2  0  0  0  0
 10  3  1  0  0  0  0
 10 11  2  0  0  0  0
 12  9  1  0  0  0  0
 12  4  2  0  0  0  0
 13  6  1  1  0  0  0
 14 15  1  1  0  0  0
 14 13  1  0  0  0  0
 16 14  1  0  0  0  0
 16 15  1  0  0  0  0
 18 21  1  6  0  0  0
 18 24  1  0  0  0  0
 18 25  1  0  0  0  0
 19 22  1  0  0  0  0
 19 17  1  1  0  0  0
 20 18  1  0  0  0  0
 24 19  1  0  0  0  0
 25 23  1  6  0  0  0
 25 22  1  0  0  0  0
M  END
>  <MODEL>
2

>  <REMARK>
 VINA RESULT:      -8.6      3.547      7.390
  Name = 
  3 active torsions:
  status: ('A' for Active; 'I' for Inactive)
    1  A    between atoms: C_3  and  C_16
    2  A    between atoms: C_6  and  C_16
    3  A    between atoms: C_13  and  C_24
                            x       y       z     vdW  Elec       q    Type
                         _______ _______ _______ _____ _____    ______ ____

>  <TORSDO>
F 3

$$$$
=
 OpenBabel11052422193D

 25 29  0  0  1  0  0  0  0  0999 V2000
  161.5200  207.0350  150.5910 N   0  0  0  0  0  0  0  0  0  0  0  0
  161.5480  207.7710  149.3220 C   0  0  1  0  0  3  0  0  0  0  0  0
  161.8800  209.0240  151.8800 N   0  0  0  0  0  2  0  0  0  0  0  0
  161.2740  205.7410  150.8550 C   0  0  0  0  0  0  0  0  0  0  0  0
  160.8320  203.2050  151.8740 C   0  0  0  0  0  3  0  0  0  0  0  0
  161.5810  209.8170  150.7560 N   0  0  0  0  0  2  0  0  0  0  0  0
  161.3240  205.5260  152.2130 C   0  0  0  0  0  0  0  0  0  0  0  0
  161.1080  204.2640  152.7590 C   0  0  0  0  0  3  0  0  0  0  0  0
  160.7770  203.4290  150.4810 C   0  0  0  0  0  3  0  0  0  0  0  0
  161.6820  207.6190  151.7890 C   0  0  0  0  0  0  0  0  0  0  0  0
  161.5880  206.7270  152.8540 C   0  0  0  0  0  3  0  0  0  0  0  0
  160.9980  204.7130  149.9540 C   0  0  0  0  0  3  0  0  0  0  0  0
  162.1410  209.1880  149.5470 C   0  0  2  0  0  3  0  0  0  0  0  0
  161.8710  210.0840  148.3460 C   0  0  1  0  0  3  0  0  0  0  0  0
  161.5930  211.4480  148.7880 C   0  0  0  0  0  2  0  0  0  0  0  0
  162.9220  211.1100  148.2610 N   0  0  0  0  0  2  0  0  0  0  0  0
  162.3900  207.0110  148.2990 C   0  0  0  0  0  2  0  0  0  0  0  0
  162.2670  204.4780  145.8550 C   0  0  1  0  0  0  0  0  0  0  0  0
  161.5480  205.9890  147.5480 C   0  0  1  0  0  3  0  0  0  0  0  0
  163.4970  204.0720  145.3740 F   0  0  0  0  0  0  0  0  0  0  0  0
  161.2060  203.4300  145.5490 C   0  0  0  0  0  1  0  0  0  0  0  0
  161.1500  206.5200  146.3050 O   0  0  0  0  0  0  0  0  0  0  0  0
  161.2060  205.8160  144.0660 N   0  0  0  0  0  1  0  0  0  0  0  0
  162.3300  204.7020  147.3310 C   0  0  0  0  0  2  0  0  0  0  0  0
  161.9190  205.8600  145.3340 C   0  0  2  0  0  3  0  0  0  0  0  0
  1  4  1  0  0  0  0
  1 10  1  0  0  0  0
  2 17  1  6  0  0  0
  2 13  1  0  0  0  0
  2  1  1  0  0  0  0
  4  7  1  0  0  0  0
  5  8  1  0  0  0  0
  6  3  1  0  0  0  0
  7  8  2  0  0  0  0
  7 11  1  0  0  0  0
  9  5  2  0  0  0  0
 10  3  1  0  0  0  0
 10 11  2  0  0  0  0
 12  9  1  0  0  0  0
 12  4  2  0  0  0  0
 13  6  1  1  0  0  0
 14 15  1  1  0  0  0
 14 13  1  0  0  0  0
 16 14  1  0  0  0  0
 16 15  1  0  0  0  0
 18 21  1  6  0  0  0
 18 24  1  0  0  0  0
 19 17  1  6  0  0  0
 20 18  1  0  0  0  0
 22 19  1  0  0  0  0
 24 19  1  0  0  0  0
 25 23  1  6  0  0  0
 25 18  1  0  0  0  0
 25 22  1  0  0  0  0
M  END
>  <MODEL>
3

>  <REMARK>
 VINA RESULT:      -7.7      3.374      6.071
  Name = 
  3 active torsions:
  status: ('A' for Active; 'I' for Inactive)
    1  A    between atoms: C_3  and  C_16
    2  A    between atoms: C_6  and  C_16
    3  A    between atoms: C_13  and  C_24
                            x       y       z     vdW  Elec       q    Type
                         _______ _______ _______ _____ _____    ______ ____

>  <TORSDO>
F 3

$$$$
=
 OpenBabel11052422193D

 25 29  0  0  1  0  0  0  0  0999 V2000
  161.3880  207.5950  150.9500 N   0  0  0  0  0  0  0  0  0  0  0  0
  161.1020  206.5430  149.9680 C   0  0  1  0  0  3  0  0  0  0  0  0
  162.1480  209.1190  149.2620 N   0  0  0  0  0  2  0  0  0  0  0  0
  161.1780  207.6450  152.2750 C   0  0  0  0  0  0  0  0  0  0  0  0
  160.9370  208.2040  154.9760 C   0  0  0  0  0  3  0  0  0  0  0  0
  161.5860  208.3030  148.2610 N   0  0  0  0  0  2  0  0  0  0  0  0
  161.5810  208.8660  152.7650 C   0  0  0  0  0  0  0  0  0  0  0  0
  161.4750  209.1800  154.1170 C   0  0  0  0  0  3  0  0  0  0  0  0
  160.5200  206.9540  154.4710 C   0  0  0  0  0  3  0  0  0  0  0  0
  161.8840  208.7980  150.6220 C   0  0  0  0  0  0  0  0  0  0  0  0
  162.0480  209.6450  151.7160 C   0  0  0  0  0  3  0  0  0  0  0  0
  160.6370  206.6600  153.1020 C   0  0  0  0  0  3  0  0  0  0  0  0
  161.7820  206.8860  148.6150 C   0  0  2  0  0  3  0  0  0  0  0  0
  161.2320  206.0110  147.4970 C   0  0  1  0  0  3  0  0  0  0  0  0
  161.8080  206.4110  146.2150 C   0  0  0  0  0  2  0  0  0  0  0  0
  162.3310  205.2270  146.9100 N   0  0  0  0  0  2  0  0  0  0  0  0
  161.6140  205.1990  150.4820 C   0  0  0  0  0  2  0  0  0  0  0  0
  160.8880  201.7620  150.2340 C   0  0  1  0  0  0  0  0  0  0  0  0
  160.5540  204.1170  150.3330 C   0  0  1  0  0  3  0  0  0  0  0  0
  161.9560  200.9210  150.4780 F   0  0  0  0  0  0  0  0  0  0  0  0
  159.5750  201.0020  150.3670 C   0  0  0  0  0  1  0  0  0  0  0  0
  160.4560  203.7280  148.9820 O   0  0  0  0  0  0  0  0  0  0  0  0
  160.4710  201.7020  147.7980 N   0  0  0  0  0  1  0  0  0  0  0  0
  160.8940  202.9090  151.1930 C   0  0  0  0  0  2  0  0  0  0  0  0
  161.0490  202.4590  148.8970 C   0  0  2  0  0  3  0  0  0  0  0  0
  1  4  1  0  0  0  0
  2 17  1  1  0  0  0
  2  1  1  0  0  0  0
  3 10  1  0  0  0  0
  4  7  2  0  0  0  0
  4 12  1  0  0  0  0
  6  3  1  0  0  0  0
  7  8  1  0  0  0  0
  8  5  2  0  0  0  0
  9  5  1  0  0  0  0
 10  1  1  0  0  0  0
 10 11  2  0  0  0  0
 11  7  1  0  0  0  0
 12  9  2  0  0  0  0
 13  6  1  6  0  0  0
 13  2  1  0  0  0  0
 14 15  1  6  0  0  0
 14 13  1  0  0  0  0
 15 16  1  0  0  0  0
 16 14  1  0  0  0  0
 18 21  1  1  0  0  0
 18 20  1  0  0  0  0
 18 24  1  0  0  0  0
 19 17  1  6  0  0  0
 19 24  1  0  0  0  0
 22 19  1  0  0  0  0
 25 23  1  6  0  0  0
 25 22  1  0  0  0  0
 25 18  1  0  0  0  0
M  END
>  <MODEL>
4

>  <REMARK>
 VINA RESULT:      -7.5      2.768      6.043
  Name = 
  3 active torsions:
  status: ('A' for Active; 'I' for Inactive)
    1  A    between atoms: C_3  and  C_16
    2  A    between atoms: C_6  and  C_16
    3  A    between atoms: C_13  and  C_24
                            x       y       z     vdW  Elec       q    Type
                         _______ _______ _______ _____ _____    ______ ____

>  <TORSDO>
F 3

$$$$
=
 OpenBabel11052422193D

 25 29  0  0  1  0  0  0  0  0999 V2000
  161.2550  205.1990  151.0670 N   0  0  0  0  0  0  0  0  0  0  0  0
  161.2830  206.5240  150.4390 C   0  0  1  0  0  3  0  0  0  0  0  0
  161.1480  206.1260  153.2760 N   0  0  0  0  0  2  0  0  0  0  0  0
  161.2060  203.9700  150.5300 C   0  0  0  0  0  0  0  0  0  0  0  0
  161.1000  201.2770  149.8940 C   0  0  0  0  0  3  0  0  0  0  0  0
  160.8310  207.3890  152.7390 N   0  0  0  0  0  2  0  0  0  0  0  0
  161.1590  203.0270  151.5300 C   0  0  0  0  0  0  0  0  0  0  0  0
  161.1060  201.6640  151.2470 C   0  0  0  0  0  3  0  0  0  0  0  0
  161.1440  202.2460  148.8690 C   0  0  0  0  0  3  0  0  0  0  0  0
  161.2000  205.0110  152.3950 C   0  0  0  0  0  0  0  0  0  0  0  0
  161.1540  203.6680  152.7610 C   0  0  0  0  0  3  0  0  0  0  0  0
  161.1960  203.6150  149.1810 C   0  0  0  0  0  3  0  0  0  0  0  0
  161.6040  207.6070  151.5040 C   0  0  2  0  0  3  0  0  0  0  0  0
  161.3060  209.0000  150.9670 C   0  0  1  0  0  3  0  0  0  0  0  0
  161.2100  209.9550  152.0680 C   0  0  0  0  0  2  0  0  0  0  0  0
  162.4400  209.8890  151.2670 N   0  0  0  0  0  2  0  0  0  0  0  0
  162.3360  206.5540  149.3330 C   0  0  0  0  0  2  0  0  0  0  0  0
  160.8750  205.4540  146.3230 C   0  0  1  0  0  0  0  0  0  0  0  0
  161.7140  206.9270  147.9950 C   0  0  1  0  0  3  0  0  0  0  0  0
  160.5890  204.1040  146.2730 F   0  0  0  0  0  0  0  0  0  0  0  0
  160.0810  206.2030  145.2610 C   0  0  0  0  0  1  0  0  0  0  0  0
  162.6840  206.8390  146.9770 O   0  0  0  0  0  0  0  0  0  0  0  0
  162.8370  205.8260  144.8650 N   0  0  0  0  0  1  0  0  0  0  0  0
  160.5440  206.0100  147.6710 C   0  0  0  0  0  2  0  0  0  0  0  0
  162.3710  205.6890  146.2360 C   0  0  2  0  0  3  0  0  0  0  0  0
  1 10  1  0  0  0  0
  2 17  1  6  0  0  0
  2  1  1  0  0  0  0
  2 13  1  0  0  0  0
  4  1  1  0  0  0  0
  4  7  1  0  0  0  0
  5  8  1  0  0  0  0
  6  3  1  0  0  0  0
  7 11  1  0  0  0  0
  8  7  2  0  0  0  0
  9 12  1  0  0  0  0
  9  5  2  0  0  0  0
 10 11  2  0  0  0  0
 10  3  1  0  0  0  0
 12  4  2  0  0  0  0
 13  6  1  1  0  0  0
 14 16  1  0  0  0  0
 14 13  1  0  0  0  0
 14 15  1  1  0  0  0
 16 15  1  0  0  0  0
 18 21  1  6  0  0  0
 18 24  1  0  0  0  0
 19 17  1  1  0  0  0
 20 18  1  0  0  0  0
 22 19  1  0  0  0  0
 24 19  1  0  0  0  0
 25 23  1  6  0  0  0
 25 18  1  0  0  0  0
 25 22  1  0  0  0  0
M  END
>  <MODEL>
5

>  <REMARK>
 VINA RESULT:      -7.4      3.325      5.725
  Name = 
  3 active torsions:
  status: ('A' for Active; 'I' for Inactive)
    1  A    between atoms: C_3  and  C_16
    2  A    between atoms: C_6  and  C_16
    3  A    between atoms: C_13  and  C_24
                            x       y       z     vdW  Elec       q    Type
                         _______ _______ _______ _____ _____    ______ ____

>  <TORSDO>
F 3

$$$$
=
 OpenBabel11052422193D

 25 29  0  0  1  0  0  0  0  0999 V2000
  161.5400  207.6800  151.0870 N   0  0  0  0  0  0  0  0  0  0  0  0
  161.7140  206.2870  150.6600 C   0  0  1  0  0  3  0  0  0  0  0  0
  161.0320  207.0430  153.3420 N   0  0  0  0  0  2  0  0  0  0  0  0
  161.7190  208.8340  150.4240 C   0  0  0  0  0  0  0  0  0  0  0  0
  161.9570  211.4280  149.4850 C   0  0  0  0  0  3  0  0  0  0  0  0
  161.5090  205.7420  153.0910 N   0  0  0  0  0  2  0  0  0  0  0  0
  161.4650  209.8950  151.2610 C   0  0  0  0  0  0  0  0  0  0  0  0
  161.5740  211.2130  150.8220 C   0  0  0  0  0  3  0  0  0  0  0  0
  162.2210  210.3370  148.6290 C   0  0  0  0  0  3  0  0  0  0  0  0
  161.2140  208.0350  152.3400 C   0  0  0  0  0  0  0  0  0  0  0  0
  161.1320  209.4140  152.5190 C   0  0  0  0  0  3  0  0  0  0  0  0
  162.1050  209.0170  149.0960 C   0  0  0  0  0  3  0  0  0  0  0  0
  161.1210  205.3310  151.7300 C   0  0  2  0  0  3  0  0  0  0  0  0
  161.5820  203.8990  151.4910 C   0  0  1  0  0  3  0  0  0  0  0  0
  160.8720  202.9850  152.3810 C   0  0  0  0  0  2  0  0  0  0  0  0
  160.4550  203.1060  150.9780 N   0  0  0  0  0  2  0  0  0  0  0  0
  161.0170  206.0630  149.3200 C   0  0  0  0  0  2  0  0  0  0  0  0
  161.6290  205.1930  145.9620 C   0  0  1  0  0  0  0  0  0  0  0  0
  161.9700  205.4460  148.3050 C   0  0  1  0  0  3  0  0  0  0  0  0
  160.7080  205.6800  145.0560 F   0  0  0  0  0  0  0  0  0  0  0  0
  162.9140  204.7930  145.2480 C   0  0  0  0  0  1  0  0  0  0  0  0
  161.6100  204.1050  148.0680 O   0  0  0  0  0  0  0  0  0  0  0  0
  161.2060  202.7670  146.1820 N   0  0  0  0  0  1  0  0  0  0  0  0
  161.9410  206.2250  146.9980 C   0  0  0  0  0  2  0  0  0  0  0  0
  161.0270  204.0760  146.7920 C   0  0  2  0  0  3  0  0  0  0  0  0
  1 10  1  0  0  0  0
  2 17  1  6  0  0  0
  2  1  1  0  0  0  0
  2 13  1  0  0  0  0
  4  1  1  0  0  0  0
  4  7  1  0  0  0  0
  5  8  1  0  0  0  0
  6  3  1  0  0  0  0
  7 11  1  0  0  0  0
  8  7  2  0  0  0  0
  9 12  1  0  0  0  0
  9  5  2  0  0  0  0
 10 11  2  0  0  0  0
 10  3  1  0  0  0  0
 12  4  2  0  0  0  0
 13  6  1  1  0  0  0
 14 13  1  0  0  0  0
 14 15  1  1  0  0  0
 16 14  1  0  0  0  0
 16 15  1  0  0  0  0
 18 21  1  6  0  0  0
 18 25  1  0  0  0  0
 18 24  1  0  0  0  0
 19 17  1  1  0  0  0
 20 18  1  0  0  0  0
 22 19  1  0  0  0  0
 24 19  1  0  0  0  0
 25 23  1  6  0  0  0
 25 22  1  0  0  0  0
M  END
>  <MODEL>
6

>  <REMARK>
 VINA RESULT:      -7.4      3.388      7.364
  Name = 
  3 active torsions:
  status: ('A' for Active; 'I' for Inactive)
    1  A    between atoms: C_3  and  C_16
    2  A    between atoms: C_6  and  C_16
    3  A    between atoms: C_13  and  C_24
                            x       y       z     vdW  Elec       q    Type
                         _______ _______ _______ _____ _____    ______ ____

>  <TORSDO>
F 3

$$$$
=
 OpenBabel11052422193D

 25 29  0  0  1  0  0  0  0  0999 V2000
  161.2530  208.5010  153.1140 N   0  0  0  0  0  0  0  0  0  0  0  0
  161.1370  207.7330  151.8700 C   0  0  1  0  0  3  0  0  0  0  0  0
  162.0630  210.4450  151.9680 N   0  0  0  0  0  2  0  0  0  0  0  0
  160.9130  208.1920  154.3760 C   0  0  0  0  0  0  0  0  0  0  0  0
  160.3760  208.0130  157.0860 C   0  0  0  0  0  3  0  0  0  0  0  0
  161.6590  209.8970  150.7350 N   0  0  0  0  0  2  0  0  0  0  0  0
  161.1820  209.2580  155.2040 C   0  0  0  0  0  0  0  0  0  0  0  0
  160.9250  209.2020  156.5710 C   0  0  0  0  0  3  0  0  0  0  0  0
  160.0970  206.9220  156.2340 C   0  0  0  0  0  3  0  0  0  0  0  0
  161.6940  209.7680  153.1630 C   0  0  0  0  0  0  0  0  0  0  0  0
  161.6920  210.3040  154.4480 C   0  0  0  0  0  3  0  0  0  0  0  0
  160.3650  207.0030  154.8570 C   0  0  0  0  0  3  0  0  0  0  0  0
  161.9180  208.4470  150.7340 C   0  0  2  0  0  3  0  0  0  0  0  0
  161.5410  207.8730  149.3750 C   0  0  1  0  0  3  0  0  0  0  0  0
  162.0130  208.7520  148.3080 C   0  0  0  0  0  2  0  0  0  0  0  0
  162.7660  207.5340  148.6340 N   0  0  0  0  0  2  0  0  0  0  0  0
  161.6890  206.3240  152.0750 C   0  0  0  0  0  2  0  0  0  0  0  0
  161.1370  202.9750  151.1340 C   0  0  1  0  0  0  0  0  0  0  0  0
  160.7040  205.2730  151.5810 C   0  0  1  0  0  3  0  0  0  0  0  0
  162.1870  202.1160  151.3940 F   0  0  0  0  0  0  0  0  0  0  0  0
  159.8480  202.1890  150.9300 C   0  0  0  0  0  1  0  0  0  0  0  0
  160.8260  205.1240  150.1850 O   0  0  0  0  0  0  0  0  0  0  0  0
  161.0950  203.3360  148.6890 N   0  0  0  0  0  1  0  0  0  0  0  0
  160.9560  203.9370  152.2640 C   0  0  0  0  0  2  0  0  0  0  0  0
  161.4720  203.8960  149.9770 C   0  0  2  0  0  3  0  0  0  0  0  0
  1 10  1  0  0  0  0
  1  4  1  0  0  0  0
  2 17  1  1  0  0  0
  2  1  1  0  0  0  0
  3 10  1  0  0  0  0
  4 12  2  0  0  0  0
  4  7  1  0  0  0  0
  6  3  1  0  0  0  0
  7  8  2  0  0  0  0
  8  5  1  0  0  0  0
  9  5  2  0  0  0  0
 10 11  2  0  0  0  0
 11  7  1  0  0  0  0
 12  9  1  0  0  0  0
 13  6  1  6  0  0  0
 13  2  1  0  0  0  0
 14 15  1  6  0  0  0
 14 13  1  0  0  0  0
 15 16  1  0  0  0  0
 16 14  1  0  0  0  0
 18 21  1  6  0  0  0
 18 20  1  0  0  0  0
 18 24  1  0  0  0  0
 19 17  1  1  0  0  0
 19 24  1  0  0  0  0
 22 19  1  0  0  0  0
 25 23  1  6  0  0  0
 25 22  1  0  0  0  0
 25 18  1  0  0  0  0
M  END
>  <MODEL>
7

>  <REMARK>
 VINA RESULT:      -7.0      2.316      5.873
  Name = 
  3 active torsions:
  status: ('A' for Active; 'I' for Inactive)
    1  A    between atoms: C_3  and  C_16
    2  A    between atoms: C_6  and  C_16
    3  A    between atoms: C_13  and  C_24
                            x       y       z     vdW  Elec       q    Type
                         _______ _______ _______ _____ _____    ______ ____

>  <TORSDO>
F 3

$$$$
=
 OpenBabel11052422193D

 25 29  0  0  1  0  0  0  0  0999 V2000
  161.1450  204.6100  148.6220 N   0  0  0  0  0  0  0  0  0  0  0  0
  161.0580  205.5290  149.7630 C   0  0  1  0  0  3  0  0  0  0  0  0
  161.1220  202.6750  150.0370 N   0  0  0  0  0  2  0  0  0  0  0  0
  161.1330  204.8430  147.3000 C   0  0  0  0  0  0  0  0  0  0  0  0
  161.1420  204.8290  144.5310 C   0  0  0  0  0  3  0  0  0  0  0  0
  160.7010  203.4640  151.1250 N   0  0  0  0  0  2  0  0  0  0  0  0
  161.2020  203.6510  146.6170 C   0  0  0  0  0  0  0  0  0  0  0  0
  161.2090  203.6060  145.2250 C   0  0  0  0  0  3  0  0  0  0  0  0
  161.0670  206.0510  145.2340 C   0  0  0  0  0  3  0  0  0  0  0  0
  161.1820  203.2750  148.7490 C   0  0  0  0  0  0  0  0  0  0  0  0
  161.2360  202.6060  147.5290 C   0  0  0  0  0  3  0  0  0  0  0  0
  161.0610  206.0690  146.6380 C   0  0  0  0  0  3  0  0  0  0  0  0
  161.3820  204.7690  151.0770 C   0  0  2  0  0  3  0  0  0  0  0  0
  160.9720  205.5920  152.2920 C   0  0  1  0  0  3  0  0  0  0  0  0
  161.1860  204.8230  153.5160 C   0  0  0  0  0  2  0  0  0  0  0  0
  162.1580  205.8530  153.1240 N   0  0  0  0  0  2  0  0  0  0  0  0
  162.0380  206.6850  149.5750 C   0  0  0  0  0  2  0  0  0  0  0  0
  162.0800  209.9560  150.8810 C   0  0  1  0  0  0  0  0  0  0  0  0
  161.3310  208.0270  149.7030 C   0  0  1  0  0  3  0  0  0  0  0  0
  163.2740  210.3360  151.4620 F   0  0  0  0  0  0  0  0  0  0  0  0
  161.2410  211.1810  150.5450 C   0  0  0  0  0  1  0  0  0  0  0  0
  160.6300  208.0820  150.9240 O   0  0  0  0  0  0  0  0  0  0  0  0
  160.4740  209.5810  152.7230 N   0  0  0  0  0  1  0  0  0  0  0  0
  162.3320  209.1710  149.6340 C   0  0  0  0  0  2  0  0  0  0  0  0
  161.3560  208.9490  151.7540 C   0  0  2  0  0  3  0  0  0  0  0  0
  1 10  1  0  0  0  0
  1  2  1  0  0  0  0
  2 17  1  6  0  0  0
  2 13  1  0  0  0  0
  3  6  1  0  0  0  0
  4  1  1  0  0  0  0
  5  8  2  0  0  0  0
  5  9  1  0  0  0  0
  7  4  2  0  0  0  0
  7 11  1  0  0  0  0
  8  7  1  0  0  0  0
  9 12  2  0  0  0  0
 10  3  1  0  0  0  0
 11 10  2  0  0  0  0
 12  4  1  0  0  0  0
 13  6  1  6  0  0  0
 13 14  1  0  0  0  0
 14 16  1  0  0  0  0
 14 15  1  1  0  0  0
 16 15  1  0  0  0  0
 18 21  1  6  0  0  0
 18 20  1  0  0  0  0
 18 25  1  0  0  0  0
 19 17  1  1  0  0  0
 19 22  1  0  0  0  0
 22 25  1  0  0  0  0
 24 19  1  0  0  0  0
 24 18  1  0  0  0  0
 25 23  1  1  0  0  0
M  END
>  <MODEL>
8

>  <REMARK>
 VINA RESULT:      -6.9      2.561      4.732
  Name = 
  3 active torsions:
  status: ('A' for Active; 'I' for Inactive)
    1  A    between atoms: C_3  and  C_16
    2  A    between atoms: C_6  and  C_16
    3  A    between atoms: C_13  and  C_24
                            x       y       z     vdW  Elec       q    Type
                         _______ _______ _______ _____ _____    ______ ____

>  <TORSDO>
F 3

$$$$
=
 OpenBabel11052422193D

 25 29  0  0  1  0  0  0  0  0999 V2000
  161.2340  203.4040  148.1480 N   0  0  0  0  0  0  0  0  0  0  0  0
  161.6020  204.6370  147.4430 C   0  0  1  0  0  3  0  0  0  0  0  0
  160.8580  202.2140  146.1010 N   0  0  0  0  0  2  0  0  0  0  0  0
  161.2340  203.1040  149.4560 C   0  0  0  0  0  0  0  0  0  0  0  0
  161.0780  202.0360  152.0060 C   0  0  0  0  0  3  0  0  0  0  0  0
  161.5150  203.2300  145.3790 N   0  0  0  0  0  2  0  0  0  0  0  0
  160.8400  201.7980  149.6330 C   0  0  0  0  0  0  0  0  0  0  0  0
  160.7500  201.2280  150.9010 C   0  0  0  0  0  3  0  0  0  0  0  0
  161.4850  203.3750  151.8220 C   0  0  0  0  0  3  0  0  0  0  0  0
  160.8790  202.2720  147.5210 C   0  0  0  0  0  0  0  0  0  0  0  0
  160.6000  201.2230  148.3930 C   0  0  0  0  0  3  0  0  0  0  0  0
  161.5690  203.9260  150.5320 C   0  0  0  0  0  3  0  0  0  0  0  0
  161.1720  204.5420  145.9540 C   0  0  2  0  0  3  0  0  0  0  0  0
  161.8320  205.6380  145.1290 C   0  0  1  0  0  3  0  0  0  0  0  0
  161.4860  205.4840  143.7180 C   0  0  0  0  0  2  0  0  0  0  0  0
  160.7920  206.4900  144.5330 N   0  0  0  0  0  2  0  0  0  0  0  0
  160.9260  205.8360  148.1050 C   0  0  0  0  0  2  0  0  0  0  0  0
  161.4770  208.3930  150.4640 C   0  0  1  0  0  0  0  0  0  0  0  0
  161.9320  206.6700  148.8850 C   0  0  1  0  0  3  0  0  0  0  0  0
  160.3450  208.8320  151.1220 F   0  0  0  0  0  0  0  0  0  0  0  0
  162.7270  208.7940  151.2350 C   0  0  0  0  0  1  0  0  0  0  0  0
  162.1310  207.9060  148.2380 O   0  0  0  0  0  0  0  0  0  0  0  0
  162.1100  210.1680  148.8640 N   0  0  0  0  0  1  0  0  0  0  0  0
  161.4470  206.9060  150.3070 C   0  0  0  0  0  2  0  0  0  0  0  0
  161.4780  208.8680  149.0230 C   0  0  2  0  0  3  0  0  0  0  0  0
  1  4  1  0  0  0  0
  2 17  1  1  0  0  0
  2  1  1  0  0  0  0
  3 10  1  0  0  0  0
  4  7  2  0  0  0  0
  4 12  1  0  0  0  0
  6  3  1  0  0  0  0
  7  8  1  0  0  0  0
  8  5  2  0  0  0  0
  9  5  1  0  0  0  0
 10  1  1  0  0  0  0
 10 11  2  0  0  0  0
 11  7  1  0  0  0  0
 12  9  2  0  0  0  0
 13  6  1  6  0  0  0
 13  2  1  0  0  0  0
 14 15  1  6  0  0  0
 14 13  1  0  0  0  0
 15 16  1  0  0  0  0
 16 14  1  0  0  0  0
 18 20  1  0  0  0  0
 18 21  1  1  0  0  0
 19 17  1  6  0  0  0
 19 24  1  0  0  0  0
 22 19  1  0  0  0  0
 22 25  1  0  0  0  0
 24 18  1  0  0  0  0
 25 23  1  1  0  0  0
 25 18  1  0  0  0  0
M  END
>  <MODEL>
9

>  <REMARK>
 VINA RESULT:      -6.7      3.118      4.861
  Name = 
  3 active torsions:
  status: ('A' for Active; 'I' for Inactive)
    1  A    between atoms: C_3  and  C_16
    2  A    between atoms: C_6  and  C_16
    3  A    between atoms: C_13  and  C_24
                            x       y       z     vdW  Elec       q    Type
                         _______ _______ _______ _____ _____    ______ ____

>  <TORSDO>
F 3

$$$$
