=
 OpenBabel11052422083D

 25 27  0  0  1  0  0  0  0  0999 V2000
  161.1200  204.9260  151.7200 C   0  0  1  0  0  3  0  0  0  0  0  0
  160.3990  204.2870  150.5200 C   0  0  1  0  0  3  0  0  0  0  0  0
  162.6210  202.8530  151.6050 C   0  0  0  0  0  2  0  0  0  0  0  0
  161.2730  202.1400  151.6490 C   0  0  0  0  0  2  0  0  0  0  0  0
  160.3010  202.1930  149.2240 C   0  0  1  0  0  0  0  0  0  0  0  0
  158.9910  201.9020  148.8470 O   0  0  0  0  0  1  0  0  0  0  0  0
  161.1120  204.5390  149.2040 C   0  0  0  0  0  2  0  0  0  0  0  0
  162.4950  204.3170  152.0380 C   0  0  0  0  0  2  0  0  0  0  0  0
  161.1160  200.9050  149.1010 C   0  0  0  0  0  1  0  0  0  0  0  0
  160.8040  203.3400  148.3300 C   0  0  1  0  0  3  0  0  0  0  0  0
  160.2660  202.7620  150.6550 C   0  0  2  0  0  3  0  0  0  0  0  0
  161.1130  206.4270  151.7020 C   0  0  0  0  0  0  0  0  0  0  0  0
  161.1790  209.2290  151.5730 C   0  0  0  0  0  3  0  0  0  0  0  0
  160.8270  207.1980  152.8480 C   0  0  0  0  0  0  0  0  0  0  0  0
  160.8590  208.5950  152.7750 C   0  0  0  0  0  3  0  0  0  0  0  0
  161.4700  208.4690  150.4380 C   0  0  0  0  0  3  0  0  0  0  0  0
  160.5110  206.6090  154.0270 F   0  0  0  0  0  0  0  0  0  0  0  0
  161.4390  207.0740  150.5040 C   0  0  0  0  0  3  0  0  0  0  0  0
  162.1470  202.9700  147.1310 S   0  0  0  0  0  0  0  0  0  0  0  0
  161.2050  203.4560  145.6470 C   0  0  0  0  0  2  0  0  0  0  0  0
  161.7770  204.7270  145.0460 C   0  0  1  0  0  3  0  0  0  0  0  0
  161.3330  204.8590  143.7440 F   0  0  0  0  0  0  0  0  0  0  0  0
  161.3510  205.9170  145.8400 C   0  0  0  0  0  0  0  0  0  0  0  0
  162.2430  206.5370  146.7060 O   0  0  0  0  0  1  0  0  0  0  0  0
  160.1840  206.3690  145.7120 O   0  0  0  0  0  0  0  0  0  0  0  0
  1 12  1  6  0  0  0
  1  8  1  0  0  0  0
  2  7  1  6  0  0  0
  2 11  1  0  0  0  0
  2  1  1  0  0  0  0
  3  4  1  0  0  0  0
  3  8  1  0  0  0  0
  5  9  1  6  0  0  0
  5 11  1  0  0  0  0
  6  5  1  0  0  0  0
 10 19  1  1  0  0  0
 10  7  1  0  0  0  0
 10  5  1  0  0  0  0
 11  4  1  1  0  0  0
 12 14  1  0  0  0  0
 13 15  1  0  0  0  0
 14 17  1  0  0  0  0
 15 14  2  0  0  0  0
 16 18  1  0  0  0  0
 16 13  2  0  0  0  0
 18 12  2  0  0  0  0
 20 19  1  0  0  0  0
 21 22  1  6  0  0  0
 21 20  1  0  0  0  0
 21 23  1  0  0  0  0
 23 24  1  0  0  0  0
 25 23  2  0  0  0  0
M  END
>  <MODEL>
1

>  <REMARK>
 VINA RESULT:      -6.6      0.000      0.000
  Name = 
  5 active torsions:
  status: ('A' for Active; 'I' for Inactive)
    1  A    between atoms: C_1  and  C_5
    2  A    between atoms: C_2  and  C_21
    3  A    between atoms: S_6  and  C_15
    4  A    between atoms: S_6  and  C_23
    5  A    between atoms: C_15  and  C_21
                            x       y       z     vdW  Elec       q    Type
                         _______ _______ _______ _____ _____    ______ ____

>  <TORSDO>
F 5

$$$$
=
 OpenBabel11052422083D

 25 27  0  0  1  0  0  0  0  0999 V2000
  161.5270  207.9530  153.3820 C   0  0  1  0  0  3  0  0  0  0  0  0
  161.3380  209.3820  153.9210 C   0  0  1  0  0  3  0  0  0  0  0  0
  160.3070  207.2490  155.5210 C   0  0  0  0  0  2  0  0  0  0  0  0
  161.3880  208.1120  156.1640 C   0  0  0  0  0  2  0  0  0  0  0  0
  160.6180  210.5980  155.9390 C   0  0  1  0  0  0  0  0  0  0  0  0
  161.4010  211.7340  156.1420 O   0  0  0  0  0  1  0  0  0  0  0  0
  159.9530  209.9370  153.6410 C   0  0  0  0  0  2  0  0  0  0  0  0
  160.6640  206.8880  154.0760 C   0  0  0  0  0  2  0  0  0  0  0  0
  159.9180  210.2750  157.2610 C   0  0  0  0  0  1  0  0  0  0  0  0
  159.6530  210.8940  154.7770 C   0  0  1  0  0  3  0  0  0  0  0  0
  161.5400  209.4700  155.4410 C   0  0  2  0  0  3  0  0  0  0  0  0
  161.5070  207.8640  151.8820 C   0  0  0  0  0  0  0  0  0  0  0  0
  161.4590  207.5740  149.0920 C   0  0  0  0  0  3  0  0  0  0  0  0
  162.1000  208.8410  151.0570 C   0  0  0  0  0  0  0  0  0  0  0  0
  162.0690  208.6920  149.6660 C   0  0  0  0  0  3  0  0  0  0  0  0
  160.8770  206.6010  149.9070 C   0  0  0  0  0  3  0  0  0  0  0  0
  162.6970  209.9370  151.5860 F   0  0  0  0  0  0  0  0  0  0  0  0
  160.9040  206.7450  151.2960 C   0  0  0  0  0  3  0  0  0  0  0  0
  157.8590  211.0080  155.1560 S   0  0  0  0  0  0  0  0  0  0  0  0
  157.8340  212.8170  155.3780 C   0  0  0  0  0  2  0  0  0  0  0  0
  157.1750  213.4920  154.1880 C   0  0  1  0  0  3  0  0  0  0  0  0
  157.4310  212.7580  153.0460 F   0  0  0  0  0  0  0  0  0  0  0  0
  155.7010  213.5930  154.3950 C   0  0  0  0  0  0  0  0  0  0  0  0
  154.8380  213.5810  153.3060 O   0  0  0  0  0  0  0  0  0  0  0  0
  155.2370  213.6740  155.5620 O   0  0  0  0  0  1  0  0  0  0  0  0
  1 12  1  6  0  0  0
  1  2  1  0  0  0  0
  1  8  1  0  0  0  0
  2  7  1  1  0  0  0
  2 11  1  0  0  0  0
  3  4  1  0  0  0  0
  5  6  1  0  0  0  0
  5  9  1  1  0  0  0
  7 10  1  0  0  0  0
  8  3  1  0  0  0  0
 10 19  1  1  0  0  0
 10  5  1  0  0  0  0
 11  5  1  0  0  0  0
 11  4  1  1  0  0  0
 13 15  2  0  0  0  0
 13 16  1  0  0  0  0
 14 17  1  0  0  0  0
 14 12  2  0  0  0  0
 15 14  1  0  0  0  0
 16 18  2  0  0  0  0
 18 12  1  0  0  0  0
 19 20  1  0  0  0  0
 21 22  1  6  0  0  0
 21 23  1  0  0  0  0
 21 20  1  0  0  0  0
 23 25  1  0  0  0  0
 24 23  2  0  0  0  0
M  END
>  <MODEL>
2

>  <REMARK>
 VINA RESULT:      -6.4      5.954      9.029
  Name = 
  5 active torsions:
  status: ('A' for Active; 'I' for Inactive)
    1  A    between atoms: C_1  and  C_5
    2  A    between atoms: C_2  and  C_21
    3  A    between atoms: S_6  and  C_15
    4  A    between atoms: S_6  and  C_23
    5  A    between atoms: C_15  and  C_21
                            x       y       z     vdW  Elec       q    Type
                         _______ _______ _______ _____ _____    ______ ____

>  <TORSDO>
F 5

$$$$
=
 OpenBabel11052422083D

 25 27  0  0  1  0  0  0  0  0999 V2000
  161.2130  207.0570  154.0940 C   0  0  1  0  0  3  0  0  0  0  0  0
  161.5770  208.5330  154.3340 C   0  0  1  0  0  3  0  0  0  0  0  0
  159.7220  207.3480  156.1570 C   0  0  0  0  0  2  0  0  0  0  0  0
  161.0260  207.8590  156.7610 C   0  0  0  0  0  2  0  0  0  0  0  0
  161.3060  210.3390  155.9880 C   0  0  1  0  0  0  0  0  0  0  0  0
  162.4630  211.1130  156.0740 O   0  0  0  0  0  1  0  0  0  0  0  0
  160.5350  209.4920  153.7860 C   0  0  0  0  0  2  0  0  0  0  0  0
  159.9710  206.5730  154.8590 C   0  0  0  0  0  2  0  0  0  0  0  0
  160.4790  210.5990  157.2480 C   0  0  0  0  0  1  0  0  0  0  0  0
  160.5870  210.7140  154.6800 C   0  0  1  0  0  3  0  0  0  0  0  0
  161.7310  208.8680  155.8250 C   0  0  2  0  0  3  0  0  0  0  0  0
  161.2240  206.6570  152.6470 C   0  0  0  0  0  0  0  0  0  0  0  0
  161.1960  206.0180  149.9150 C   0  0  0  0  0  3  0  0  0  0  0  0
  161.2060  205.3090  152.2330 C   0  0  0  0  0  0  0  0  0  0  0  0
  161.1950  204.9980  150.8690 C   0  0  0  0  0  3  0  0  0  0  0  0
  161.2070  207.3540  150.3220 C   0  0  0  0  0  3  0  0  0  0  0  0
  161.2070  204.2980  153.1360 F   0  0  0  0  0  0  0  0  0  0  0  0
  161.2190  207.6710  151.6820 C   0  0  0  0  0  3  0  0  0  0  0  0
  158.9670  211.5730  154.8030 S   0  0  0  0  0  0  0  0  0  0  0  0
  158.6060  211.5390  153.0170 C   0  0  0  0  0  2  0  0  0  0  0  0
  159.4510  212.5640  152.2830 C   0  0  1  0  0  3  0  0  0  0  0  0
  160.4310  211.9160  151.5570 F   0  0  0  0  0  0  0  0  0  0  0  0
  158.6030  213.3750  151.3600 C   0  0  0  0  0  0  0  0  0  0  0  0
  159.0750  213.7260  150.1010 O   0  0  0  0  0  0  0  0  0  0  0  0
  157.4500  213.7290  151.7190 O   0  0  0  0  0  1  0  0  0  0  0  0
  1 12  1  6  0  0  0
  1  2  1  0  0  0  0
  1  8  1  0  0  0  0
  2  7  1  1  0  0  0
  2 11  1  0  0  0  0
  3  4  1  0  0  0  0
  5  6  1  0  0  0  0
  5  9  1  1  0  0  0
  7 10  1  0  0  0  0
  8  3  1  0  0  0  0
 10 19  1  1  0  0  0
 10  5  1  0  0  0  0
 11  5  1  0  0  0  0
 11  4  1  1  0  0  0
 13 16  2  0  0  0  0
 13 15  1  0  0  0  0
 14 12  1  0  0  0  0
 14 17  1  0  0  0  0
 15 14  2  0  0  0  0
 16 18  1  0  0  0  0
 18 12  2  0  0  0  0
 20 19  1  0  0  0  0
 21 22  1  6  0  0  0
 21 20  1  0  0  0  0
 23 25  1  0  0  0  0
 23 21  1  0  0  0  0
 24 23  2  0  0  0  0
M  END
>  <MODEL>
3

>  <REMARK>
 VINA RESULT:      -6.3      5.182      8.027
  Name = 
  5 active torsions:
  status: ('A' for Active; 'I' for Inactive)
    1  A    between atoms: C_1  and  C_5
    2  A    between atoms: C_2  and  C_21
    3  A    between atoms: S_6  and  C_15
    4  A    between atoms: S_6  and  C_23
    5  A    between atoms: C_15  and  C_21
                            x       y       z     vdW  Elec       q    Type
                         _______ _______ _______ _____ _____    ______ ____

>  <TORSDO>
F 5

$$$$
=
 OpenBabel11052422083D

 25 27  0  0  1  0  0  0  0  0999 V2000
  161.2120  207.3100  154.0500 C   0  0  1  0  0  3  0  0  0  0  0  0
  161.2630  208.8310  154.2710 C   0  0  1  0  0  3  0  0  0  0  0  0
  159.8320  207.2910  156.2080 C   0  0  0  0  0  2  0  0  0  0  0  0
  161.0320  208.0790  156.7260 C   0  0  0  0  0  2  0  0  0  0  0  0
  160.7160  210.5530  155.9470 C   0  0  1  0  0  0  0  0  0  0  0  0
  161.6810  211.5590  155.9610 O   0  0  0  0  0  1  0  0  0  0  0  0
  160.0050  209.5370  153.7980 C   0  0  0  0  0  2  0  0  0  0  0  0
  160.1570  206.5750  154.8930 C   0  0  0  0  0  2  0  0  0  0  0  0
  159.9380  210.6400  157.2610 C   0  0  0  0  0  1  0  0  0  0  0  0
  159.8490  210.7500  154.6920 C   0  0  1  0  0  3  0  0  0  0  0  0
  161.4380  209.2070  155.7500 C   0  0  2  0  0  3  0  0  0  0  0  0
  161.2150  206.9070  152.6030 C   0  0  0  0  0  0  0  0  0  0  0  0
  161.1680  206.2630  149.8720 C   0  0  0  0  0  3  0  0  0  0  0  0
  161.2090  205.5580  152.1910 C   0  0  0  0  0  0  0  0  0  0  0  0
  161.1880  205.2450  150.8280 C   0  0  0  0  0  3  0  0  0  0  0  0
  161.1680  207.6000  150.2760 C   0  0  0  0  0  3  0  0  0  0  0  0
  161.2290  204.5490  153.0960 F   0  0  0  0  0  0  0  0  0  0  0  0
  161.1890  207.9190  151.6360 C   0  0  0  0  0  3  0  0  0  0  0  0
  158.0930  211.2400  154.9260 S   0  0  0  0  0  0  0  0  0  0  0  0
  158.3880  213.0350  154.8160 C   0  0  0  0  0  2  0  0  0  0  0  0
  157.4380  213.6700  153.8170 C   0  0  1  0  0  3  0  0  0  0  0  0
  157.4650  212.9520  152.6370 F   0  0  0  0  0  0  0  0  0  0  0  0
  156.0470  213.6870  154.3570 C   0  0  0  0  0  0  0  0  0  0  0  0
  155.8220  213.9430  155.7050 O   0  0  0  0  0  1  0  0  0  0  0  0
  155.0730  213.4850  153.5870 O   0  0  0  0  0  0  0  0  0  0  0  0
  1 12  1  6  0  0  0
  1  2  1  0  0  0  0
  1  8  1  0  0  0  0
  2  7  1  1  0  0  0
  2 11  1  0  0  0  0
  3  4  1  0  0  0  0
  5  6  1  0  0  0  0
  5  9  1  1  0  0  0
  7 10  1  0  0  0  0
  8  3  1  0  0  0  0
 10 19  1  1  0  0  0
 10  5  1  0  0  0  0
 11  5  1  0  0  0  0
 11  4  1  1  0  0  0
 13 16  2  0  0  0  0
 13 15  1  0  0  0  0
 14 12  1  0  0  0  0
 14 17  1  0  0  0  0
 15 14  2  0  0  0  0
 16 18  1  0  0  0  0
 18 12  2  0  0  0  0
 20 19  1  0  0  0  0
 21 22  1  6  0  0  0
 21 23  1  0  0  0  0
 21 20  1  0  0  0  0
 23 24  1  0  0  0  0
 25 23  2  0  0  0  0
M  END
>  <MODEL>
4

>  <REMARK>
 VINA RESULT:      -6.2      5.837      8.939
  Name = 
  5 active torsions:
  status: ('A' for Active; 'I' for Inactive)
    1  A    between atoms: C_1  and  C_5
    2  A    between atoms: C_2  and  C_21
    3  A    between atoms: S_6  and  C_15
    4  A    between atoms: S_6  and  C_23
    5  A    between atoms: C_15  and  C_21
                            x       y       z     vdW  Elec       q    Type
                         _______ _______ _______ _____ _____    ______ ____

>  <TORSDO>
F 5

$$$$
=
 OpenBabel11052422083D

 25 27  0  0  1  0  0  0  0  0999 V2000
  161.2610  207.5410  150.9220 C   0  0  1  0  0  3  0  0  0  0  0  0
  160.3980  208.1830  152.0230 C   0  0  1  0  0  3  0  0  0  0  0  0
  162.8470  209.5030  151.3680 C   0  0  0  0  0  2  0  0  0  0  0  0
  161.5680  210.3060  151.1460 C   0  0  0  0  0  2  0  0  0  0  0  0
  160.2200  210.2300  153.3830 C   0  0  1  0  0  0  0  0  0  0  0  0
  158.8860  210.5930  153.5630 O   0  0  0  0  0  1  0  0  0  0  0  0
  160.8760  207.8360  153.4220 C   0  0  0  0  0  2  0  0  0  0  0  0
  162.7040  208.0680  150.8530 C   0  0  0  0  0  2  0  0  0  0  0  0
  161.0800  211.4560  153.6920 C   0  0  0  0  0  1  0  0  0  0  0  0
  160.5050  209.0200  154.2910 C   0  0  1  0  0  3  0  0  0  0  0  0
  160.3800  209.7160  151.9400 C   0  0  2  0  0  3  0  0  0  0  0  0
  161.1620  206.0430  150.8700 C   0  0  0  0  0  0  0  0  0  0  0  0
  161.0570  203.2400  150.8640 C   0  0  0  0  0  3  0  0  0  0  0  0
  160.8000  205.3490  149.6970 C   0  0  0  0  0  0  0  0  0  0  0  0
  160.7470  203.9510  149.7030 C   0  0  0  0  0  3  0  0  0  0  0  0
  161.4220  203.9250  152.0260 C   0  0  0  0  0  3  0  0  0  0  0  0
  160.4930  206.0120  148.5560 F   0  0  0  0  0  0  0  0  0  0  0  0
  161.4770  205.3200  152.0260 C   0  0  0  0  0  3  0  0  0  0  0  0
  161.6580  209.2560  155.7020 S   0  0  0  0  0  0  0  0  0  0  0  0
  160.3790  209.7470  156.9040 C   0  0  0  0  0  2  0  0  0  0  0  0
  160.5190  211.2160  157.2610 C   0  0  1  0  0  3  0  0  0  0  0  0
  161.6950  211.7070  156.7280 F   0  0  0  0  0  0  0  0  0  0  0  0
  159.3650  211.9950  156.7230 C   0  0  0  0  0  0  0  0  0  0  0  0
  159.5690  213.2460  156.1540 O   0  0  0  0  0  0  0  0  0  0  0  0
  158.2050  211.5100  156.7720 O   0  0  0  0  0  1  0  0  0  0  0  0
  1 12  1  1  0  0  0
  1  2  1  0  0  0  0
  2  7  1  1  0  0  0
  4  3  1  0  0  0  0
  5  6  1  0  0  0  0
  5  9  1  1  0  0  0
  5 10  1  0  0  0  0
  7 10  1  0  0  0  0
  8  1  1  0  0  0  0
  8  3  1  0  0  0  0
 10 19  1  1  0  0  0
 11  4  1  1  0  0  0
 11  2  1  0  0  0  0
 11  5  1  0  0  0  0
 12 18  1  0  0  0  0
 13 16  1  0  0  0  0
 14 15  1  0  0  0  0
 14 12  2  0  0  0  0
 15 13  2  0  0  0  0
 16 18  2  0  0  0  0
 17 14  1  0  0  0  0
 19 20  1  0  0  0  0
 20 21  1  0  0  0  0
 21 22  1  6  0  0  0
 23 25  1  0  0  0  0
 23 21  1  0  0  0  0
 24 23  2  0  0  0  0
M  END
>  <MODEL>
5

>  <REMARK>
 VINA RESULT:      -5.7      5.045      8.702
  Name = 
  5 active torsions:
  status: ('A' for Active; 'I' for Inactive)
    1  A    between atoms: C_1  and  C_5
    2  A    between atoms: C_2  and  C_21
    3  A    between atoms: S_6  and  C_15
    4  A    between atoms: S_6  and  C_23
    5  A    between atoms: C_15  and  C_21
                            x       y       z     vdW  Elec       q    Type
                         _______ _______ _______ _____ _____    ______ ____

>  <TORSDO>
F 5

$$$$
=
 OpenBabel11052422083D

 25 27  0  0  1  0  0  0  0  0999 V2000
  161.4710  206.2280  149.0370 C   0  0  1  0  0  3  0  0  0  0  0  0
  162.2910  205.2730  148.1520 C   0  0  1  0  0  3  0  0  0  0  0  0
  160.0040  206.5000  146.9550 C   0  0  0  0  0  2  0  0  0  0  0  0
  161.3510  206.8140  146.3110 C   0  0  0  0  0  2  0  0  0  0  0  0
  162.5120  204.5270  145.8140 C   0  0  1  0  0  0  0  0  0  0  0  0
  163.8510  204.3280  145.4790 O   0  0  0  0  0  1  0  0  0  0  0  0
  161.6820  203.8850  148.0640 C   0  0  0  0  0  2  0  0  0  0  0  0
  160.0810  206.5780  148.4830 C   0  0  0  0  0  2  0  0  0  0  0  0
  161.7220  204.6540  144.5110 C   0  0  0  0  0  1  0  0  0  0  0  0
  162.0700  203.3490  146.7010 C   0  0  1  0  0  3  0  0  0  0  0  0
  162.4280  205.7780  146.7080 C   0  0  2  0  0  3  0  0  0  0  0  0
  161.4650  205.8520  150.4910 C   0  0  0  0  0  0  0  0  0  0  0  0
  161.3530  205.0790  153.1860 C   0  0  0  0  0  3  0  0  0  0  0  0
  162.0140  206.6800  151.4910 C   0  0  0  0  0  0  0  0  0  0  0  0
  161.9580  206.2870  152.8320 C   0  0  0  0  0  3  0  0  0  0  0  0
  160.8020  204.2580  152.1990 C   0  0  0  0  0  3  0  0  0  0  0  0
  162.6090  207.8580  151.1770 F   0  0  0  0  0  0  0  0  0  0  0  0
  160.8560  204.6460  150.8580 C   0  0  0  0  0  3  0  0  0  0  0  0
  160.8310  202.1760  146.0190 S   0  0  0  0  0  0  0  0  0  0  0  0
  159.9650  201.8880  147.5970 C   0  0  0  0  0  2  0  0  0  0  0  0
  160.6060  200.7400  148.3550 C   0  0  1  0  0  3  0  0  0  0  0  0
  161.9240  200.6090  147.9610 F   0  0  0  0  0  0  0  0  0  0  0  0
  160.5490  200.9890  149.8250 C   0  0  0  0  0  0  0  0  0  0  0  0
  159.3320  200.9530  150.4950 O   0  0  0  0  0  1  0  0  0  0  0  0
  161.6090  201.2170  150.4630 O   0  0  0  0  0  0  0  0  0  0  0  0
  1 12  1  1  0  0  0
  2  7  1  6  0  0  0
  2  1  1  0  0  0  0
  3  8  1  0  0  0  0
  4  3  1  0  0  0  0
  5  9  1  6  0  0  0
  5 10  1  0  0  0  0
  5 11  1  0  0  0  0
  6  5  1  0  0  0  0
  8  1  1  0  0  0  0
 10 19  1  6  0  0  0
 10  7  1  0  0  0  0
 11  4  1  6  0  0  0
 11  2  1  0  0  0  0
 12 18  2  0  0  0  0
 12 14  1  0  0  0  0
 14 15  2  0  0  0  0
 15 13  1  0  0  0  0
 16 13  2  0  0  0  0
 17 14  1  0  0  0  0
 18 16  1  0  0  0  0
 19 20  1  0  0  0  0
 20 21  1  0  0  0  0
 21 22  1  6  0  0  0
 21 23  1  0  0  0  0
 23 25  2  0  0  0  0
 23 24  1  0  0  0  0
M  END
>  <MODEL>
6

>  <REMARK>
 VINA RESULT:      -5.5      2.322      4.750
  Name = 
  5 active torsions:
  status: ('A' for Active; 'I' for Inactive)
    1  A    between atoms: C_1  and  C_5
    2  A    between atoms: C_2  and  C_21
    3  A    between atoms: S_6  and  C_15
    4  A    between atoms: S_6  and  C_23
    5  A    between atoms: C_15  and  C_21
                            x       y       z     vdW  Elec       q    Type
                         _______ _______ _______ _____ _____    ______ ____

>  <TORSDO>
F 5

$$$$
=
 OpenBabel11052422083D

 25 27  0  0  1  0  0  0  0  0999 V2000
  161.3780  205.7370  149.0960 C   0  0  1  0  0  3  0  0  0  0  0  0
  162.1320  204.8820  148.0620 C   0  0  1  0  0  3  0  0  0  0  0  0
  160.0980  206.6230  147.0620 C   0  0  0  0  0  2  0  0  0  0  0  0
  161.5130  206.8800  146.5540 C   0  0  0  0  0  2  0  0  0  0  0  0
  162.4170  204.6090  145.6300 C   0  0  1  0  0  0  0  0  0  0  0  0
  163.7410  204.3070  145.3140 O   0  0  0  0  0  1  0  0  0  0  0  0
  161.3650  203.6370  147.6570 C   0  0  0  0  0  2  0  0  0  0  0  0
  160.0810  206.3760  148.5740 C   0  0  0  0  0  2  0  0  0  0  0  0
  161.7370  205.1060  144.3530 C   0  0  0  0  0  1  0  0  0  0  0  0
  161.7750  203.3440  146.2270 C   0  0  1  0  0  3  0  0  0  0  0  0
  162.4260  205.6500  146.7640 C   0  0  2  0  0  3  0  0  0  0  0  0
  161.2280  205.0740  150.4360 C   0  0  0  0  0  0  0  0  0  0  0  0
  160.8840  203.7470  152.8830 C   0  0  0  0  0  3  0  0  0  0  0  0
  161.2650  205.7960  151.6460 C   0  0  0  0  0  0  0  0  0  0  0  0
  161.0960  205.1270  152.8630 C   0  0  0  0  0  3  0  0  0  0  0  0
  160.8410  203.0290  151.6850 C   0  0  0  0  0  3  0  0  0  0  0  0
  161.4700  207.1360  151.6570 F   0  0  0  0  0  0  0  0  0  0  0  0
  161.0090  203.6920  150.4680 C   0  0  0  0  0  3  0  0  0  0  0  0
  160.4500  202.5130  145.2640 S   0  0  0  0  0  0  0  0  0  0  0  0
  160.1710  201.1660  146.4600 C   0  0  0  0  0  2  0  0  0  0  0  0
  161.3850  200.2580  146.5330 C   0  0  1  0  0  3  0  0  0  0  0  0
  161.5590  199.8270  147.8340 F   0  0  0  0  0  0  0  0  0  0  0  0
  161.2080  199.0780  145.6370 C   0  0  0  0  0  0  0  0  0  0  0  0
  160.0430  198.9300  144.8940 O   0  0  0  0  0  0  0  0  0  0  0  0
  162.1250  198.2210  145.5430 O   0  0  0  0  0  1  0  0  0  0  0  0
  1 12  1  1  0  0  0
  2  7  1  6  0  0  0
  2  1  1  0  0  0  0
  3  8  1  0  0  0  0
  4  3  1  0  0  0  0
  5  9  1  6  0  0  0
  5 10  1  0  0  0  0
  5 11  1  0  0  0  0
  6  5  1  0  0  0  0
  8  1  1  0  0  0  0
 10 19  1  6  0  0  0
 10  7  1  0  0  0  0
 11  4  1  6  0  0  0
 11  2  1  0  0  0  0
 12 18  2  0  0  0  0
 12 14  1  0  0  0  0
 14 17  1  0  0  0  0
 14 15  2  0  0  0  0
 15 13  1  0  0  0  0
 16 13  2  0  0  0  0
 18 16  1  0  0  0  0
 19 20  1  0  0  0  0
 20 21  1  0  0  0  0
 21 22  1  1  0  0  0
 23 21  1  0  0  0  0
 24 23  2  0  0  0  0
 25 23  1  0  0  0  0
M  END
>  <MODEL>
7

>  <REMARK>
 VINA RESULT:      -5.5      2.686      5.029
  Name = 
  5 active torsions:
  status: ('A' for Active; 'I' for Inactive)
    1  A    between atoms: C_1  and  C_5
    2  A    between atoms: C_2  and  C_21
    3  A    between atoms: S_6  and  C_15
    4  A    between atoms: S_6  and  C_23
    5  A    between atoms: C_15  and  C_21
                            x       y       z     vdW  Elec       q    Type
                         _______ _______ _______ _____ _____    ______ ____

>  <TORSDO>
F 5

$$$$
=
 OpenBabel11052422083D

 25 27  0  0  1  0  0  0  0  0999 V2000
  161.3070  205.0950  151.7220 C   0  0  1  0  0  3  0  0  0  0  0  0
  160.5180  204.4510  150.5680 C   0  0  1  0  0  3  0  0  0  0  0  0
  162.7130  202.9560  151.6240 C   0  0  0  0  0  2  0  0  0  0  0  0
  161.3380  202.3050  151.7370 C   0  0  0  0  0  2  0  0  0  0  0  0
  160.2840  202.3250  149.3460 C   0  0  1  0  0  0  0  0  0  0  0  0
  158.9500  202.0800  149.0220 O   0  0  0  0  0  1  0  0  0  0  0  0
  161.1950  204.6300  149.2210 C   0  0  0  0  0  2  0  0  0  0  0  0
  162.6650  204.4370  152.0130 C   0  0  0  0  0  2  0  0  0  0  0  0
  161.0380  200.9980  149.2370 C   0  0  0  0  0  1  0  0  0  0  0  0
  160.8050  203.4190  148.3980 C   0  0  1  0  0  3  0  0  0  0  0  0
  160.3240  202.9390  150.7570 C   0  0  2  0  0  3  0  0  0  0  0  0
  161.3650  206.5950  151.6540 C   0  0  0  0  0  0  0  0  0  0  0  0
  161.3720  209.3990  151.6010 C   0  0  0  0  0  3  0  0  0  0  0  0
  161.9680  207.2830  150.5820 C   0  0  0  0  0  0  0  0  0  0  0  0
  161.9710  208.6810  150.5630 C   0  0  0  0  0  3  0  0  0  0  0  0
  160.7680  208.7210  152.6620 C   0  0  0  0  0  3  0  0  0  0  0  0
  162.5580  206.6120  149.5620 F   0  0  0  0  0  0  0  0  0  0  0  0
  160.7630  207.3250  152.6860 C   0  0  0  0  0  3  0  0  0  0  0  0
  162.0870  202.9540  147.1670 S   0  0  0  0  0  0  0  0  0  0  0  0
  162.6280  204.6580  146.8130 C   0  0  0  0  0  2  0  0  0  0  0  0
  161.9560  205.1800  145.5560 C   0  0  1  0  0  3  0  0  0  0  0  0
  161.3920  204.1250  144.8650 F   0  0  0  0  0  0  0  0  0  0  0  0
  160.8950  206.1700  145.9050 C   0  0  0  0  0  0  0  0  0  0  0  0
  161.1040  207.0920  146.9230 O   0  0  0  0  0  1  0  0  0  0  0  0
  159.8130  206.1790  145.2640 O   0  0  0  0  0  0  0  0  0  0  0  0
  1 12  1  6  0  0  0
  1  8  1  0  0  0  0
  2  7  1  6  0  0  0
  2 11  1  0  0  0  0
  2  1  1  0  0  0  0
  3  4  1  0  0  0  0
  3  8  1  0  0  0  0
  5  9  1  6  0  0  0
  5 11  1  0  0  0  0
  6  5  1  0  0  0  0
 10 19  1  1  0  0  0
 10  7  1  0  0  0  0
 10  5  1  0  0  0  0
 11  4  1  1  0  0  0
 12 18  1  0  0  0  0
 13 16  1  0  0  0  0
 14 12  2  0  0  0  0
 15 14  1  0  0  0  0
 15 13  2  0  0  0  0
 16 18  2  0  0  0  0
 17 14  1  0  0  0  0
 20 19  1  0  0  0  0
 21 22  1  1  0  0  0
 21 23  1  0  0  0  0
 21 20  1  0  0  0  0
 23 24  1  0  0  0  0
 25 23  2  0  0  0  0
M  END
>  <MODEL>
8

>  <REMARK>
 VINA RESULT:      -5.4      1.164      1.516
  Name = 
  5 active torsions:
  status: ('A' for Active; 'I' for Inactive)
    1  A    between atoms: C_1  and  C_5
    2  A    between atoms: C_2  and  C_21
    3  A    between atoms: S_6  and  C_15
    4  A    between atoms: S_6  and  C_23
    5  A    between atoms: C_15  and  C_21
                            x       y       z     vdW  Elec       q    Type
                         _______ _______ _______ _____ _____    ______ ____

>  <TORSDO>
F 5

$$$$
=
 OpenBabel11052422083D

 25 27  0  0  1  0  0  0  0  0999 V2000
  161.3870  203.7240  146.3790 C   0  0  1  0  0  3  0  0  0  0  0  0
  160.6730  204.2840  147.6220 C   0  0  1  0  0  3  0  0  0  0  0  0
  163.3260  205.2240  147.1220 C   0  0  0  0  0  2  0  0  0  0  0  0
  162.2250  206.2810  147.1200 C   0  0  0  0  0  2  0  0  0  0  0  0
  160.9060  206.0160  149.3590 C   0  0  1  0  0  0  0  0  0  0  0  0
  159.6690  206.5800  149.6680 O   0  0  0  0  0  1  0  0  0  0  0  0
  161.0860  203.5830  148.9030 C   0  0  0  0  0  2  0  0  0  0  0  0
  162.9040  203.9730  146.3460 C   0  0  0  0  0  2  0  0  0  0  0  0
  161.9900  206.9710  149.8600 C   0  0  0  0  0  1  0  0  0  0  0  0
  160.9580  204.6180  150.0020 C   0  0  1  0  0  3  0  0  0  0  0  0
  160.9520  205.7790  147.8380 C   0  0  2  0  0  3  0  0  0  0  0  0
  161.0000  202.3130  146.0410 C   0  0  0  0  0  0  0  0  0  0  0  0
  160.3800  199.6390  145.4620 C   0  0  0  0  0  3  0  0  0  0  0  0
  160.1320  202.0000  144.9750 C   0  0  0  0  0  0  0  0  0  0  0  0
  159.8250  200.6640  144.6940 C   0  0  0  0  0  3  0  0  0  0  0  0
  161.2450  199.9450  146.5160 C   0  0  0  0  0  3  0  0  0  0  0  0
  159.5770  202.9740  144.2130 F   0  0  0  0  0  0  0  0  0  0  0  0
  161.5550  201.2760  146.8010 C   0  0  0  0  0  3  0  0  0  0  0  0
  162.1470  204.3470  151.3760 S   0  0  0  0  0  0  0  0  0  0  0  0
  161.0350  204.9290  152.6980 C   0  0  0  0  0  2  0  0  0  0  0  0
  161.7350  205.9550  153.5700 C   0  0  1  0  0  3  0  0  0  0  0  0
  162.8530  206.4300  152.9130 F   0  0  0  0  0  0  0  0  0  0  0  0
  160.8180  207.0910  153.8790 C   0  0  0  0  0  0  0  0  0  0  0  0
  160.1490  207.1420  155.0960 O   0  0  0  0  0  1  0  0  0  0  0  0
  160.6620  208.0140  153.0390 O   0  0  0  0  0  0  0  0  0  0  0  0
  1 12  1  1  0  0  0
  1  2  1  0  0  0  0
  2 11  1  0  0  0  0
  2  7  1  1  0  0  0
  4  3  1  0  0  0  0
  5  6  1  0  0  0  0
  5  9  1  1  0  0  0
  5 10  1  0  0  0  0
  7 10  1  0  0  0  0
  8  1  1  0  0  0  0
  8  3  1  0  0  0  0
 10 19  1  1  0  0  0
 11  4  1  1  0  0  0
 11  5  1  0  0  0  0
 12 18  1  0  0  0  0
 13 16  1  0  0  0  0
 14 12  2  0  0  0  0
 15 14  1  0  0  0  0
 15 13  2  0  0  0  0
 16 18  2  0  0  0  0
 17 14  1  0  0  0  0
 19 20  1  0  0  0  0
 20 21  1  0  0  0  0
 21 22  1  6  0  0  0
 21 23  1  0  0  0  0
 23 24  1  0  0  0  0
 25 23  2  0  0  0  0
M  END
>  <MODEL>
9

>  <REMARK>
 VINA RESULT:      -5.3      3.050      7.243
  Name = 
  5 active torsions:
  status: ('A' for Active; 'I' for Inactive)
    1  A    between atoms: C_1  and  C_5
    2  A    between atoms: C_2  and  C_21
    3  A    between atoms: S_6  and  C_15
    4  A    between atoms: S_6  and  C_23
    5  A    between atoms: C_15  and  C_21
                            x       y       z     vdW  Elec       q    Type
                         _______ _______ _______ _____ _____    ______ ____

>  <TORSDO>
F 5

$$$$
