=
 OpenBabel11052423003D

 28 31  0  0  1  0  0  0  0  0999 V2000
  158.3320  211.6020  155.7790 C   0  0  2  0  0  3  0  0  0  0  0  0
  160.5950  206.9470  153.7470 C   0  0  0  0  0  3  0  0  0  0  0  0
  163.0700  210.5680  157.0590 C   0  0  0  0  0  1  0  0  0  0  0  0
  161.6580  208.7010  152.4450 C   0  0  0  0  0  0  0  0  0  0  0  0
  161.2260  209.0800  154.9140 C   0  0  2  0  0  3  0  0  0  0  0  0
  160.9820  206.6320  151.3790 C   0  0  0  0  0  0  0  0  0  0  0  0
  161.1780  208.2180  153.6800 C   0  0  0  0  0  0  0  0  0  0  0  0
  162.0410  210.9140  153.5420 C   0  0  0  0  0  2  0  0  0  0  0  0
  161.5670  207.8980  151.3040 C   0  0  0  0  0  3  0  0  0  0  0  0
  160.8310  211.5010  156.4360 C   0  0  1  0  0  3  0  0  0  0  0  0
  159.8090  209.5430  155.3080 C   0  0  2  0  0  3  0  0  0  0  0  0
  162.3630  210.0210  152.3480 C   0  0  0  0  0  2  0  0  0  0  0  0
  159.4000  213.3490  157.2610 C   0  0  0  0  0  2  0  0  0  0  0  0
  162.2280  211.1130  155.9200 C   0  0  2  0  0  3  0  0  0  0  0  0
  160.7770  212.9930  156.7290 C   0  0  0  0  0  2  0  0  0  0  0  0
  160.8850  205.8230  150.2120 N   0  0  0  0  0  1  0  0  0  0  0  0
  160.4980  206.1550  152.6000 C   0  0  0  0  0  3  0  0  0  0  0  0
  162.2300  210.1670  154.7880 N   0  0  1  0  0  0  0  0  0  0  0  0
  158.3650  213.0790  156.1800 C   0  0  0  0  0  2  0  0  0  0  0  0
  159.7420  211.0710  155.4470 C   0  0  1  0  0  3  0  0  0  0  0  0
  157.2580  211.4570  154.3500 S   0  0  0  0  0  0  0  0  0  0  0  0
  156.4470  210.1980  154.4730 O   0  0  0  0  0  0  0  0  0  0  0  0
  156.3280  212.6390  154.3100 O   0  0  0  0  0  0  0  0  0  0  0  0
  158.7180  212.7710  152.4840 C   0  0  0  0  0  1  0  0  0  0  0  0
  158.1830  211.3960  152.8290 C   0  0  0  0  0  2  0  0  0  0  0  0
  159.4290  208.8250  156.6040 C   0  0  0  0  0  2  0  0  0  0  0  0
  160.6160  208.0950  157.1970 C   0  0  0  0  0  2  0  0  0  0  0  0
  160.3160  206.6120  157.2610 C   0  0  0  0  0  1  0  0  0  0  0  0
  1 21  1  6  0  0  0
  1 19  1  0  0  0  0
  4  7  2  0  0  0  0
  5  7  1  6  0  0  0
  5 11  1  0  0  0  0
  6 17  1  0  0  0  0
  7  2  1  0  0  0  0
  9  6  2  0  0  0  0
  9  4  1  0  0  0  0
 10 15  1  6  0  0  0
 11 20  1  0  0  0  0
 11 26  1  1  0  0  0
 12  4  1  0  0  0  0
 12  8  1  0  0  0  0
 14 10  1  0  0  0  0
 14  3  1  1  0  0  0
 15 13  1  0  0  0  0
 16  6  1  0  0  0  0
 17  2  2  0  0  0  0
 18  8  1  6  0  0  0
 18  5  1  0  0  0  0
 18 14  1  0  0  0  0
 19 13  1  0  0  0  0
 20  1  1  0  0  0  0
 20 10  1  0  0  0  0
 21 22  2  0  0  0  0
 23 21  2  0  0  0  0
 24 25  1  0  0  0  0
 25 21  1  0  0  0  0
 26 27  1  0  0  0  0
 27 28  1  0  0  0  0
M  END
>  <MODEL>
1

>  <REMARK>
 VINA RESULT:      -2.7      0.000      0.000
  Name = 
  4 active torsions:
  status: ('A' for Active; 'I' for Inactive)
    1  A    between atoms: C_1  and  S_2
    2  A    between atoms: S_2  and  C_11
    3  A    between atoms: C_6  and  C_28
    4  A    between atoms: C_17  and  C_28
                            x       y       z     vdW  Elec       q    Type
                         _______ _______ _______ _____ _____    ______ ____

>  <TORSDO>
F 4

$$$$
=
 OpenBabel11052423003D

 28 31  0  0  1  0  0  0  0  0999 V2000
  157.5210  212.0050  138.8190 C   0  0  2  0  0  3  0  0  0  0  0  0
  161.5630  208.6110  140.5690 C   0  0  0  0  0  3  0  0  0  0  0  0
  162.1070  213.9530  139.3960 C   0  0  0  0  0  1  0  0  0  0  0  0
  162.0690  208.9170  138.2120 C   0  0  0  0  0  0  0  0  0  0  0  0
  161.2190  210.8870  139.5630 C   0  0  2  0  0  3  0  0  0  0  0  0
  162.3340  206.7390  139.2430 C   0  0  0  0  0  0  0  0  0  0  0  0
  161.6450  209.4470  139.4480 C   0  0  0  0  0  0  0  0  0  0  0  0
  161.4760  211.1020  137.1550 C   0  0  0  0  0  2  0  0  0  0  0  0
  162.4210  207.5670  138.1210 C   0  0  0  0  0  3  0  0  0  0  0  0
  159.7800  213.2630  138.7780 C   0  0  1  0  0  3  0  0  0  0  0  0
  159.6940  210.9880  139.7600 C   0  0  2  0  0  3  0  0  0  0  0  0
  162.2500  209.7960  137.0110 C   0  0  0  0  0  2  0  0  0  0  0  0
  157.6820  214.4530  138.2070 C   0  0  0  0  0  2  0  0  0  0  0  0
  161.2760  213.1040  138.4530 C   0  0  2  0  0  3  0  0  0  0  0  0
  159.1500  214.2920  137.8520 C   0  0  0  0  0  2  0  0  0  0  0  0
  162.6880  205.3650  139.1410 N   0  0  0  0  0  1  0  0  0  0  0  0
  161.9070  207.2610  140.4670 C   0  0  0  0  0  3  0  0  0  0  0  0
  161.7650  211.7130  138.4550 N   0  0  1  0  0  0  0  0  0  0  0  0
  156.9620  213.1380  137.9530 C   0  0  0  0  0  2  0  0  0  0  0  0
  159.0580  211.9130  138.7130 C   0  0  1  0  0  3  0  0  0  0  0  0
  156.7640  210.4790  138.2610 S   0  0  0  0  0  0  0  0  0  0  0  0
  157.6600  209.8330  137.2410 O   0  0  0  0  0  0  0  0  0  0  0  0
  156.6040  209.5500  139.4330 O   0  0  0  0  0  0  0  0  0  0  0  0
  154.1240  210.9850  138.5990 C   0  0  0  0  0  1  0  0  0  0  0  0
  155.1670  210.7620  137.5230 C   0  0  0  0  0  2  0  0  0  0  0  0
  159.4410  211.4680  141.1900 C   0  0  0  0  0  2  0  0  0  0  0  0
  160.7390  211.7990  141.8960 C   0  0  0  0  0  2  0  0  0  0  0  0
  160.4390  212.2900  143.2970 C   0  0  0  0  0  1  0  0  0  0  0  0
  1 21  1  6  0  0  0
  4  7  1  0  0  0  0
  5  7  1  6  0  0  0
  5 11  1  0  0  0  0
  6 17  2  0  0  0  0
  7  2  2  0  0  0  0
  9  4  2  0  0  0  0
  9  6  1  0  0  0  0
 10 15  1  6  0  0  0
 11 26  1  1  0  0  0
 12  8  1  0  0  0  0
 12  4  1  0  0  0  0
 14 18  1  0  0  0  0
 14 10  1  0  0  0  0
 14  3  1  1  0  0  0
 15 13  1  0  0  0  0
 16  6  1  0  0  0  0
 17  2  1  0  0  0  0
 18  8  1  6  0  0  0
 18  5  1  0  0  0  0
 19 13  1  0  0  0  0
 19  1  1  0  0  0  0
 20 10  1  0  0  0  0
 20  1  1  0  0  0  0
 20 11  1  0  0  0  0
 21 23  2  0  0  0  0
 22 21  2  0  0  0  0
 25 21  1  0  0  0  0
 25 24  1  0  0  0  0
 26 27  1  0  0  0  0
 27 28  1  0  0  0  0
M  END
>  <MODEL>
2

>  <REMARK>
 VINA RESULT:      -2.4     13.365     15.804
  Name = 
  4 active torsions:
  status: ('A' for Active; 'I' for Inactive)
    1  A    between atoms: C_1  and  S_2
    2  A    between atoms: S_2  and  C_11
    3  A    between atoms: C_6  and  C_28
    4  A    between atoms: C_17  and  C_28
                            x       y       z     vdW  Elec       q    Type
                         _______ _______ _______ _____ _____    ______ ____

>  <TORSDO>
F 4

$$$$
=
 OpenBabel11052423003D

 28 31  0  0  1  0  0  0  0  0999 V2000
  156.2730  213.3090  154.4070 C   0  0  2  0  0  3  0  0  0  0  0  0
  161.3430  211.6310  155.9580 C   0  0  0  0  0  3  0  0  0  0  0  0
  160.0820  214.2070  151.2690 C   0  0  0  0  0  1  0  0  0  0  0  0
  160.7200  210.0230  154.2450 C   0  0  0  0  0  0  0  0  0  0  0  0
  160.0880  212.4600  153.9460 C   0  0  2  0  0  3  0  0  0  0  0  0
  161.8940  209.2910  156.2360 C   0  0  0  0  0  0  0  0  0  0  0  0
  160.7480  211.3510  154.7210 C   0  0  0  0  0  0  0  0  0  0  0  0
  159.2460  210.8000  152.3820 C   0  0  0  0  0  2  0  0  0  0  0  0
  161.3040  209.0030  155.0020 C   0  0  0  0  0  3  0  0  0  0  0  0
  157.9430  213.7110  152.4740 C   0  0  1  0  0  3  0  0  0  0  0  0
  158.8110  212.9400  154.6650 C   0  0  2  0  0  3  0  0  0  0  0  0
  160.1670  209.6960  152.8900 C   0  0  0  0  0  2  0  0  0  0  0  0
  155.5870  214.4500  152.2580 C   0  0  0  0  0  2  0  0  0  0  0  0
  159.1530  213.1040  151.7410 C   0  0  2  0  0  3  0  0  0  0  0  0
  156.7600  213.8260  151.5240 C   0  0  0  0  0  2  0  0  0  0  0  0
  162.4810  208.2460  157.0040 N   0  0  0  0  0  1  0  0  0  0  0  0
  161.9150  210.6040  156.7120 C   0  0  0  0  0  3  0  0  0  0  0  0
  159.9060  212.1010  152.5160 N   0  0  1  0  0  0  0  0  0  0  0  0
  155.1550  213.5230  153.3830 C   0  0  0  0  0  2  0  0  0  0  0  0
  157.5970  212.8990  153.7260 C   0  0  1  0  0  3  0  0  0  0  0  0
  155.7290  212.0270  155.5370 S   0  0  0  0  0  0  0  0  0  0  0  0
  154.8020  211.0940  154.8070 O   0  0  0  0  0  0  0  0  0  0  0  0
  156.9260  211.2530  156.0180 O   0  0  0  0  0  0  0  0  0  0  0  0
  155.0950  214.2000  157.0250 C   0  0  0  0  0  1  0  0  0  0  0  0
  154.8710  212.7030  156.9440 C   0  0  0  0  0  2  0  0  0  0  0  0
  159.0820  214.3450  155.2040 C   0  0  0  0  0  2  0  0  0  0  0  0
  159.2060  214.3410  156.7130 C   0  0  0  0  0  2  0  0  0  0  0  0
  158.6530  213.0410  157.2610 C   0  0  0  0  0  1  0  0  0  0  0  0
  1 21  1  1  0  0  0
  2 17  1  0  0  0  0
  4  7  1  0  0  0  0
  4  9  2  0  0  0  0
  5 11  1  0  0  0  0
  5  7  1  1  0  0  0
  6 17  2  0  0  0  0
  6 16  1  0  0  0  0
  7  2  2  0  0  0  0
  8 12  1  0  0  0  0
  9  6  1  0  0  0  0
 10 15  1  6  0  0  0
 10 20  1  0  0  0  0
 11 26  1  6  0  0  0
 12  4  1  0  0  0  0
 13 19  1  0  0  0  0
 14  3  1  1  0  0  0
 14 10  1  0  0  0  0
 14 18  1  0  0  0  0
 15 13  1  0  0  0  0
 18  8  1  1  0  0  0
 18  5  1  0  0  0  0
 19  1  1  0  0  0  0
 20  1  1  0  0  0  0
 20 11  1  0  0  0  0
 21 23  2  0  0  0  0
 21 25  1  0  0  0  0
 22 21  2  0  0  0  0
 25 24  1  0  0  0  0
 26 27  1  0  0  0  0
 27 28  1  0  0  0  0
M  END
>  <MODEL>
3

>  <REMARK>
 VINA RESULT:      -2.2      2.377      4.906
  Name = 
  4 active torsions:
  status: ('A' for Active; 'I' for Inactive)
    1  A    between atoms: C_1  and  S_2
    2  A    between atoms: S_2  and  C_11
    3  A    between atoms: C_6  and  C_28
    4  A    between atoms: C_17  and  C_28
                            x       y       z     vdW  Elec       q    Type
                         _______ _______ _______ _____ _____    ______ ____

>  <TORSDO>
F 4

$$$$
=
 OpenBabel11052423003D

 28 31  0  0  1  0  0  0  0  0999 V2000
  161.8980  211.9270  155.9330 C   0  0  2  0  0  3  0  0  0  0  0  0
  161.0410  208.0930  151.9970 C   0  0  0  0  0  3  0  0  0  0  0  0
  157.1510  210.9000  154.6800 C   0  0  0  0  0  1  0  0  0  0  0  0
  160.4220  206.9410  154.0440 C   0  0  0  0  0  0  0  0  0  0  0  0
  159.8140  209.3870  153.7660 C   0  0  2  0  0  3  0  0  0  0  0  0
  161.6460  205.7710  152.3100 C   0  0  0  0  0  0  0  0  0  0  0  0
  160.4200  208.1080  153.2520 C   0  0  0  0  0  0  0  0  0  0  0  0
  159.4430  208.2930  155.9050 C   0  0  0  0  0  2  0  0  0  0  0  0
  161.0250  205.7770  153.5620 C   0  0  0  0  0  3  0  0  0  0  0  0
  159.3610  211.4760  155.7060 C   0  0  1  0  0  3  0  0  0  0  0  0
  160.9150  210.4180  154.0890 C   0  0  2  0  0  3  0  0  0  0  0  0
  159.6960  206.8930  155.3560 C   0  0  0  0  0  2  0  0  0  0  0  0
  160.1810  213.2290  157.2550 C   0  0  0  0  0  2  0  0  0  0  0  0
  158.3190  210.3650  155.4860 C   0  0  2  0  0  3  0  0  0  0  0  0
  159.1610  212.1190  157.0700 C   0  0  0  0  0  2  0  0  0  0  0  0
  162.2640  204.5840  151.8280 N   0  0  0  0  0  1  0  0  0  0  0  0
  161.6510  206.9280  151.5270 C   0  0  0  0  0  3  0  0  0  0  0  0
  158.8470  209.1360  154.8650 N   0  0  1  0  0  0  0  0  0  0  0  0
  161.5770  212.6260  157.2570 C   0  0  0  0  0  2  0  0  0  0  0  0
  160.7840  210.9370  155.5280 C   0  0  1  0  0  3  0  0  0  0  0  0
  163.4540  211.0620  156.1450 S   0  0  0  0  0  0  0  0  0  0  0  0
  163.1810  209.6920  156.7000 O   0  0  0  0  0  0  0  0  0  0  0  0
  164.1290  210.9260  154.8080 O   0  0  0  0  0  0  0  0  0  0  0  0
  165.8440  212.2700  156.5600 C   0  0  0  0  0  1  0  0  0  0  0  0
  164.5440  211.9240  157.2600 C   0  0  0  0  0  2  0  0  0  0  0  0
  160.8180  211.5400  153.0550 C   0  0  0  0  0  2  0  0  0  0  0  0
  159.5860  211.3840  152.1880 C   0  0  0  0  0  2  0  0  0  0  0  0
  158.8250  212.6930  152.1550 C   0  0  0  0  0  1  0  0  0  0  0  0
  1 21  1  1  0  0  0
  1 19  1  0  0  0  0
  2  7  1  0  0  0  0
  4 12  1  0  0  0  0
  5  7  1  1  0  0  0
  5 11  1  0  0  0  0
  5 18  1  0  0  0  0
  6  9  2  0  0  0  0
  7  4  2  0  0  0  0
  9  4  1  0  0  0  0
 10 15  1  1  0  0  0
 11 26  1  6  0  0  0
 11 20  1  0  0  0  0
 12  8  1  0  0  0  0
 13 19  1  0  0  0  0
 14  3  1  6  0  0  0
 14 10  1  0  0  0  0
 15 13  1  0  0  0  0
 16  6  1  0  0  0  0
 17  2  2  0  0  0  0
 17  6  1  0  0  0  0
 18 14  1  0  0  0  0
 18  8  1  1  0  0  0
 20 10  1  0  0  0  0
 20  1  1  0  0  0  0
 21 22  2  0  0  0  0
 21 25  1  0  0  0  0
 23 21  2  0  0  0  0
 24 25  1  0  0  0  0
 27 26  1  0  0  0  0
 28 27  1  0  0  0  0
M  END
>  <MODEL>
4

>  <REMARK>
 VINA RESULT:      -1.0      2.764      4.613
  Name = 
  4 active torsions:
  status: ('A' for Active; 'I' for Inactive)
    1  A    between atoms: C_1  and  S_2
    2  A    between atoms: S_2  and  C_11
    3  A    between atoms: C_6  and  C_28
    4  A    between atoms: C_17  and  C_28
                            x       y       z     vdW  Elec       q    Type
                         _______ _______ _______ _____ _____    ______ ____

>  <TORSDO>
F 4

$$$$
=
 OpenBabel11052423003D

 28 31  0  0  1  0  0  0  0  0999 V2000
  161.3460  207.9770  153.9230 C   0  0  2  0  0  3  0  0  0  0  0  0
  160.4540  213.2060  152.2560 C   0  0  0  0  0  3  0  0  0  0  0  0
  159.4180  211.1850  157.2610 C   0  0  0  0  0  1  0  0  0  0  0  0
  158.2190  212.2570  152.3430 C   0  0  0  0  0  0  0  0  0  0  0  0
  159.9020  211.6310  154.1330 C   0  0  2  0  0  3  0  0  0  0  0  0
  158.8400  213.7500  150.5370 C   0  0  0  0  0  0  0  0  0  0  0  0
  159.5090  212.3950  152.8970 C   0  0  0  0  0  0  0  0  0  0  0  0
  157.7560  210.4920  154.0500 C   0  0  0  0  0  2  0  0  0  0  0  0
  157.8900  212.9460  151.1720 C   0  0  0  0  0  3  0  0  0  0  0  0
  160.1370  209.2840  155.7980 C   0  0  1  0  0  3  0  0  0  0  0  0
  160.9040  210.5120  153.7840 C   0  0  2  0  0  3  0  0  0  0  0  0
  157.1550  211.4660  153.0430 C   0  0  0  0  0  2  0  0  0  0  0  0
  160.8560  206.9430  156.1780 C   0  0  0  0  0  2  0  0  0  0  0  0
  159.0420  210.3330  156.0630 C   0  0  2  0  0  3  0  0  0  0  0  0
  159.7520  207.9550  156.4280 C   0  0  0  0  0  2  0  0  0  0  0  0
  158.5000  214.4430  149.3420 N   0  0  0  0  0  1  0  0  0  0  0  0
  160.1200  213.8820  151.0800 C   0  0  0  0  0  3  0  0  0  0  0  0
  158.7140  211.1910  154.9100 N   0  0  1  0  0  0  0  0  0  0  0  0
  160.9760  206.6990  154.6820 C   0  0  0  0  0  2  0  0  0  0  0  0
  160.4150  209.1500  154.2970 C   0  0  1  0  0  3  0  0  0  0  0  0
  161.2220  207.6160  152.1700 S   0  0  0  0  0  0  0  0  0  0  0  0
  160.0810  208.4040  151.5890 O   0  0  0  0  0  0  0  0  0  0  0  0
  162.5000  208.0260  151.4910 O   0  0  0  0  0  0  0  0  0  0  0  0
  160.7820  205.6290  150.3830 C   0  0  0  0  0  1  0  0  0  0  0  0
  160.9340  205.8840  151.8690 C   0  0  0  0  0  2  0  0  0  0  0  0
  162.2600  210.9020  154.3720 C   0  0  0  0  0  2  0  0  0  0  0  0
  162.1580  211.1700  155.8590 C   0  0  0  0  0  2  0  0  0  0  0  0
  163.4250  210.7010  156.5440 C   0  0  0  0  0  1  0  0  0  0  0  0
  1 21  1  6  0  0  0
  1 20  1  0  0  0  0
  1 19  1  0  0  0  0
  2  7  1  0  0  0  0
  4  7  2  0  0  0  0
  4 12  1  0  0  0  0
  5  7  1  6  0  0  0
  5 18  1  0  0  0  0
  6 17  1  0  0  0  0
  6  9  2  0  0  0  0
  9  4  1  0  0  0  0
 10 14  1  0  0  0  0
 10 15  1  6  0  0  0
 11  5  1  0  0  0  0
 11 20  1  0  0  0  0
 11 26  1  1  0  0  0
 12  8  1  0  0  0  0
 13 15  1  0  0  0  0
 14  3  1  1  0  0  0
 16  6  1  0  0  0  0
 17  2  2  0  0  0  0
 18  8  1  6  0  0  0
 18 14  1  0  0  0  0
 19 13  1  0  0  0  0
 20 10  1  0  0  0  0
 22 21  2  0  0  0  0
 23 21  2  0  0  0  0
 24 25  1  0  0  0  0
 25 21  1  0  0  0  0
 26 27  1  0  0  0  0
 27 28  1  0  0  0  0
M  END
>  <MODEL>
5

>  <REMARK>
 VINA RESULT:      -0.3      2.823      5.560
  Name = 
  4 active torsions:
  status: ('A' for Active; 'I' for Inactive)
    1  A    between atoms: C_1  and  S_2
    2  A    between atoms: S_2  and  C_11
    3  A    between atoms: C_6  and  C_28
    4  A    between atoms: C_17  and  C_28
                            x       y       z     vdW  Elec       q    Type
                         _______ _______ _______ _____ _____    ______ ____

>  <TORSDO>
F 4

$$$$
=
 OpenBabel11052423003D

 28 31  0  0  1  0  0  0  0  0999 V2000
  161.8900  208.3360  152.6520 C   0  0  2  0  0  3  0  0  0  0  0  0
  160.0840  212.0620  156.3640 C   0  0  0  0  0  3  0  0  0  0  0  0
  160.7790  206.6840  157.2560 C   0  0  0  0  0  1  0  0  0  0  0  0
  158.0710  210.8360  155.7760 C   0  0  0  0  0  0  0  0  0  0  0  0
  160.2610  209.5810  156.0110 C   0  0  2  0  0  3  0  0  0  0  0  0
  157.9870  213.2380  156.0890 C   0  0  0  0  0  0  0  0  0  0  0  0
  159.4500  210.8480  156.0700 C   0  0  0  0  0  0  0  0  0  0  0  0
  158.2980  208.4230  155.1660 C   0  0  0  0  0  2  0  0  0  0  0  0
  157.3460  212.0310  155.7990 C   0  0  0  0  0  3  0  0  0  0  0  0
  161.1900  207.1190  154.8240 C   0  0  1  0  0  3  0  0  0  0  0  0
  161.2060  209.5990  154.7920 C   0  0  2  0  0  3  0  0  0  0  0  0
  157.3390  209.5490  155.5390 C   0  0  0  0  0  2  0  0  0  0  0  0
  162.1920  205.8430  152.9510 C   0  0  0  0  0  2  0  0  0  0  0  0
  160.1370  207.1050  155.9470 C   0  0  2  0  0  3  0  0  0  0  0  0
  161.1290  205.8200  154.0350 C   0  0  0  0  0  2  0  0  0  0  0  0
  157.2450  214.4520  156.1040 N   0  0  0  0  0  1  0  0  0  0  0  0
  159.3550  213.2540  156.3740 C   0  0  0  0  0  3  0  0  0  0  0  0
  159.4050  208.3730  156.1250 N   0  0  1  0  0  0  0  0  0  0  0  0
  161.8780  206.9640  151.9720 C   0  0  0  0  0  2  0  0  0  0  0  0
  161.0150  208.3470  153.9240 C   0  0  1  0  0  3  0  0  0  0  0  0
  161.2780  209.5300  151.4630 S   0  0  0  0  0  0  0  0  0  0  0  0
  162.4250  210.3800  150.9900 O   0  0  0  0  0  0  0  0  0  0  0  0
  160.6900  208.8000  150.2870 O   0  0  0  0  0  0  0  0  0  0  0  0
  160.5790  211.9920  152.3520 C   0  0  0  0  0  1  0  0  0  0  0  0
  160.0320  210.5910  152.1700 C   0  0  0  0  0  2  0  0  0  0  0  0
  162.6360  209.7310  155.3150 C   0  0  0  0  0  2  0  0  0  0  0  0
  162.6640  209.8140  156.8270 C   0  0  0  0  0  2  0  0  0  0  0  0
  163.4490  211.0370  157.2510 C   0  0  0  0  0  1  0  0  0  0  0  0
  1 21  1  6  0  0  0
  1 20  1  0  0  0  0
  2 17  1  0  0  0  0
  4  9  2  0  0  0  0
  4  7  1  0  0  0  0
  5  7  1  6  0  0  0
  5 18  1  0  0  0  0
  6 16  1  0  0  0  0
  6 17  2  0  0  0  0
  7  2  2  0  0  0  0
  8 12  1  0  0  0  0
  9  6  1  0  0  0  0
 10 15  1  6  0  0  0
 10 14  1  0  0  0  0
 11 26  1  1  0  0  0
 11  5  1  0  0  0  0
 12  4  1  0  0  0  0
 13 15  1  0  0  0  0
 14 18  1  0  0  0  0
 14  3  1  1  0  0  0
 18  8  1  6  0  0  0
 19  1  1  0  0  0  0
 19 13  1  0  0  0  0
 20 11  1  0  0  0  0
 20 10  1  0  0  0  0
 21 25  1  0  0  0  0
 22 21  2  0  0  0  0
 23 21  2  0  0  0  0
 25 24  1  0  0  0  0
 26 27  1  0  0  0  0
 27 28  1  0  0  0  0
M  END
>  <MODEL>
6

>  <REMARK>
 VINA RESULT:      -0.2      2.724      5.892
  Name = 
  4 active torsions:
  status: ('A' for Active; 'I' for Inactive)
    1  A    between atoms: C_1  and  S_2
    2  A    between atoms: S_2  and  C_11
    3  A    between atoms: C_6  and  C_28
    4  A    between atoms: C_17  and  C_28
                            x       y       z     vdW  Elec       q    Type
                         _______ _______ _______ _____ _____    ______ ____

>  <TORSDO>
F 4

$$$$
=
 OpenBabel11052423003D

 28 31  0  0  1  0  0  0  0  0999 V2000
  161.4430  208.1010  154.4930 C   0  0  2  0  0  3  0  0  0  0  0  0
  160.4570  212.8700  151.8090 C   0  0  0  0  0  3  0  0  0  0  0  0
  160.4370  212.1620  157.2590 C   0  0  0  0  0  1  0  0  0  0  0  0
  158.2520  212.1890  152.5690 C   0  0  0  0  0  0  0  0  0  0  0  0
  160.2520  211.8290  154.0860 C   0  0  2  0  0  3  0  0  0  0  0  0
  158.5350  213.1610  150.3670 C   0  0  0  0  0  0  0  0  0  0  0  0
  159.6370  212.3240  152.8040 C   0  0  0  0  0  0  0  0  0  0  0  0
  158.0880  210.9160  154.7140 C   0  0  0  0  0  2  0  0  0  0  0  0
  157.7090  212.6200  151.3550 C   0  0  0  0  0  3  0  0  0  0  0  0
  160.7320  209.9150  156.1930 C   0  0  1  0  0  3  0  0  0  0  0  0
  161.1010  210.5680  153.8290 C   0  0  2  0  0  3  0  0  0  0  0  0
  157.3290  211.6870  153.6400 C   0  0  0  0  0  2  0  0  0  0  0  0
  161.4060  207.6650  156.9830 C   0  0  0  0  0  2  0  0  0  0  0  0
  159.7710  211.0980  156.4060 C   0  0  2  0  0  3  0  0  0  0  0  0
  160.4310  208.8100  157.1930 C   0  0  0  0  0  2  0  0  0  0  0  0
  157.9770  213.5910  149.1310 N   0  0  0  0  0  1  0  0  0  0  0  0
  159.9080  213.2880  150.5940 C   0  0  0  0  0  3  0  0  0  0  0  0
  159.2420  211.6970  155.1670 N   0  0  1  0  0  0  0  0  0  0  0  0
  161.1880  207.0730  155.5990 C   0  0  0  0  0  2  0  0  0  0  0  0
  160.6720  209.4130  154.7460 C   0  0  1  0  0  3  0  0  0  0  0  0
  160.9260  207.3620  152.9430 S   0  0  0  0  0  0  0  0  0  0  0  0
  160.1010  206.1390  153.2360 O   0  0  0  0  0  0  0  0  0  0  0  0
  160.0860  208.3500  152.1810 O   0  0  0  0  0  0  0  0  0  0  0  0
  161.9340  206.9000  150.4710 C   0  0  0  0  0  1  0  0  0  0  0  0
  162.3170  206.8860  151.9380 C   0  0  0  0  0  2  0  0  0  0  0  0
  162.5690  210.9480  154.0210 C   0  0  0  0  0  2  0  0  0  0  0  0
  163.4380  210.3540  152.9330 C   0  0  0  0  0  2  0  0  0  0  0  0
  162.6690  210.3310  151.6290 C   0  0  0  0  0  1  0  0  0  0  0  0
  1 21  1  6  0  0  0
  1 20  1  0  0  0  0
  1 19  1  0  0  0  0
  2  7  1  0  0  0  0
  4  7  2  0  0  0  0
  4 12  1  0  0  0  0
  5  7  1  6  0  0  0
  5 18  1  0  0  0  0
  6 17  1  0  0  0  0
  6  9  2  0  0  0  0
  9  4  1  0  0  0  0
 10 14  1  0  0  0  0
 10 15  1  1  0  0  0
 11 26  1  1  0  0  0
 11  5  1  0  0  0  0
 11 20  1  0  0  0  0
 12  8  1  0  0  0  0
 13 15  1  0  0  0  0
 14  3  1  6  0  0  0
 16  6  1  0  0  0  0
 17  2  2  0  0  0  0
 18  8  1  6  0  0  0
 18 14  1  0  0  0  0
 19 13  1  0  0  0  0
 20 10  1  0  0  0  0
 21 22  2  0  0  0  0
 23 21  2  0  0  0  0
 24 25  1  0  0  0  0
 25 21  1  0  0  0  0
 27 26  1  0  0  0  0
 28 27  1  0  0  0  0
M  END
>  <MODEL>
7

>  <REMARK>
 VINA RESULT:      -0.0      2.749      5.354
  Name = 
  4 active torsions:
  status: ('A' for Active; 'I' for Inactive)
    1  A    between atoms: C_1  and  S_2
    2  A    between atoms: S_2  and  C_11
    3  A    between atoms: C_6  and  C_28
    4  A    between atoms: C_17  and  C_28
                            x       y       z     vdW  Elec       q    Type
                         _______ _______ _______ _____ _____    ______ ____

>  <TORSDO>
F 4

$$$$
