=
 OpenBabel11052423153D

 27 29  0  0  1  0  0  0  0  0999 V2000
  159.9580  206.1300  149.1100 C   0  0  0  0  0  1  0  0  0  0  0  0
  161.1980  205.3150  148.7020 C   0  0  2  0  0  0  0  0  0  0  0  0
  162.6510  205.2960  145.1440 C   0  0  0  0  0  3  0  0  0  0  0  0
  161.5910  205.8190  144.4030 C   0  0  0  0  0  3  0  0  0  0  0  0
  161.3240  205.4590  147.1870 C   0  0  0  0  0  0  0  0  0  0  0  0
  163.5940  204.6410  147.2160 F   0  0  0  0  0  0  0  0  0  0  0  0
  160.4050  206.1800  145.0430 C   0  0  0  0  0  3  0  0  0  0  0  0
  160.2770  206.0090  146.4220 C   0  0  0  0  0  3  0  0  0  0  0  0
  162.5280  205.1220  146.5270 C   0  0  0  0  0  0  0  0  0  0  0  0
  160.8850  201.1400  149.8570 C   0  0  0  0  0  3  0  0  0  0  0  0
  161.0490  203.8410  149.0910 C   0  0  0  0  0  0  0  0  0  0  0  0
  160.9520  203.4860  150.4460 C   0  0  0  0  0  3  0  0  0  0  0  0
  160.8640  202.1440  150.8270 C   0  0  0  0  0  3  0  0  0  0  0  0
  160.9990  201.4760  148.5050 C   0  0  0  0  0  3  0  0  0  0  0  0
  161.0870  202.8180  148.1250 C   0  0  0  0  0  3  0  0  0  0  0  0
  162.3720  205.8600  149.2910 O   0  0  0  0  0  0  0  0  0  0  0  0
  162.1340  207.1730  149.7460 C   0  0  0  0  0  2  0  0  0  0  0  0
  161.6860  205.8850  153.2660 C   0  0  0  0  0  3  0  0  0  0  0  0
  160.9820  206.9500  155.2710 F   0  0  0  0  0  0  0  0  0  0  0  0
  161.0970  208.2340  153.2580 C   0  0  0  0  0  0  0  0  0  0  0  0
  160.6620  209.3630  153.9460 O   0  0  0  0  0  1  0  0  0  0  0  0
  161.3820  208.3050  151.8830 C   0  0  0  0  0  0  0  0  0  0  0  0
  161.2510  207.0240  153.9450 C   0  0  0  0  0  0  0  0  0  0  0  0
  161.8050  207.1460  151.2010 C   0  0  0  0  0  0  0  0  0  0  0  0
  161.9640  205.9460  151.9000 C   0  0  0  0  0  3  0  0  0  0  0  0
  162.3990  210.3130  151.1510 O   0  0  0  0  0  1  0  0  0  0  0  0
  161.2000  209.6010  151.1540 C   0  0  0  0  0  2  0  0  0  0  0  0
  2 11  1  0  0  0  0
  2  1  1  1  0  0  0
  2 16  1  0  0  0  0
  3  9  1  0  0  0  0
  4  7  1  0  0  0  0
  4  3  2  0  0  0  0
  5  2  1  0  0  0  0
  7  8  2  0  0  0  0
  8  5  1  0  0  0  0
  9  5  2  0  0  0  0
  9  6  1  0  0  0  0
 10 13  1  0  0  0  0
 11 12  1  0  0  0  0
 12 13  2  0  0  0  0
 14 10  2  0  0  0  0
 15 14  1  0  0  0  0
 15 11  2  0  0  0  0
 16 17  1  0  0  0  0
 17 24  1  0  0  0  0
 18 23  1  0  0  0  0
 20 23  2  0  0  0  0
 20 21  1  0  0  0  0
 22 20  1  0  0  0  0
 23 19  1  0  0  0  0
 24 22  2  0  0  0  0
 24 25  1  0  0  0  0
 25 18  2  0  0  0  0
 26 27  1  0  0  0  0
 27 22  1  0  0  0  0
M  END
>  <MODEL>
1

>  <REMARK>
 VINA RESULT:      -8.7      0.000      0.000
  Name = 
  6 active torsions:
  status: ('A' for Active; 'I' for Inactive)
    1  A    between atoms: O_2  and  C_6
    2  A    between atoms: O_2  and  C_15
    3  A    between atoms: C_6  and  C_17
    4  A    between atoms: C_9  and  C_15
    5  A    between atoms: C_14  and  C_19
    6  A    between atoms: C_15  and  C_18
                            x       y       z     vdW  Elec       q    Type
                         _______ _______ _______ _____ _____    ______ ____

>  <TORSDO>
F 6

$$$$
=
 OpenBabel11052423153D

 27 29  0  0  1  0  0  0  0  0999 V2000
  162.2970  210.0060  153.1000 C   0  0  0  0  0  1  0  0  0  0  0  0
  160.8870  209.4640  153.3960 C   0  0  2  0  0  0  0  0  0  0  0  0
  159.1610  212.7090  152.2780 C   0  0  0  0  0  3  0  0  0  0  0  0
  158.2910  212.9480  153.3420 C   0  0  0  0  0  3  0  0  0  0  0  0
  159.9510  210.6690  153.3610 C   0  0  0  0  0  0  0  0  0  0  0  0
  160.8480  211.4070  151.2460 F   0  0  0  0  0  0  0  0  0  0  0  0
  158.2550  212.0670  154.4240 C   0  0  0  0  0  3  0  0  0  0  0  0
  159.0830  210.9430  154.4350 C   0  0  0  0  0  3  0  0  0  0  0  0
  159.9930  211.5850  152.2840 C   0  0  0  0  0  0  0  0  0  0  0  0
  160.8390  207.4830  157.2610 C   0  0  0  0  0  3  0  0  0  0  0  0
  160.8300  208.7780  154.7640 C   0  0  0  0  0  0  0  0  0  0  0  0
  161.6220  209.2610  155.8190 C   0  0  0  0  0  3  0  0  0  0  0  0
  161.6220  208.6220  157.0610 C   0  0  0  0  0  3  0  0  0  0  0  0
  160.0600  206.9790  156.2160 C   0  0  0  0  0  3  0  0  0  0  0  0
  160.0600  207.6190  154.9740 C   0  0  0  0  0  3  0  0  0  0  0  0
  160.4750  208.5610  152.3780 O   0  0  0  0  0  0  0  0  0  0  0  0
  161.5820  208.1330  151.6160 C   0  0  0  0  0  2  0  0  0  0  0  0
  161.2580  204.3980  152.0540 C   0  0  0  0  0  3  0  0  0  0  0  0
  160.9520  202.6340  150.4890 F   0  0  0  0  0  0  0  0  0  0  0  0
  161.1030  204.8800  149.6850 C   0  0  0  0  0  0  0  0  0  0  0  0
  160.9480  204.4290  148.3780 O   0  0  0  0  0  1  0  0  0  0  0  0
  161.2560  206.2530  149.9500 C   0  0  0  0  0  0  0  0  0  0  0  0
  161.1030  203.9580  150.7380 C   0  0  0  0  0  0  0  0  0  0  0  0
  161.4290  206.6870  151.2800 C   0  0  0  0  0  0  0  0  0  0  0  0
  161.4190  205.7570  152.3240 C   0  0  0  0  0  3  0  0  0  0  0  0
  162.5560  207.3170  148.2830 O   0  0  0  0  0  1  0  0  0  0  0  0
  161.2700  207.2310  148.8160 C   0  0  0  0  0  2  0  0  0  0  0  0
  2  1  1  6  0  0  0
  2 11  1  0  0  0  0
  3  9  2  0  0  0  0
  3  4  1  0  0  0  0
  4  7  2  0  0  0  0
  5  2  1  0  0  0  0
  5  8  2  0  0  0  0
  6  9  1  0  0  0  0
  7  8  1  0  0  0  0
  9  5  1  0  0  0  0
 11 15  2  0  0  0  0
 11 12  1  0  0  0  0
 12 13  2  0  0  0  0
 13 10  1  0  0  0  0
 14 10  2  0  0  0  0
 15 14  1  0  0  0  0
 16  2  1  0  0  0  0
 17 16  1  0  0  0  0
 18 25  1  0  0  0  0
 19 23  1  0  0  0  0
 20 22  2  0  0  0  0
 20 23  1  0  0  0  0
 21 20  1  0  0  0  0
 22 24  1  0  0  0  0
 23 18  2  0  0  0  0
 24 17  1  0  0  0  0
 24 25  2  0  0  0  0
 26 27  1  0  0  0  0
 27 22  1  0  0  0  0
M  END
>  <MODEL>
2

>  <REMARK>
 VINA RESULT:      -8.4      2.841      7.290
  Name = 
  6 active torsions:
  status: ('A' for Active; 'I' for Inactive)
    1  A    between atoms: O_2  and  C_6
    2  A    between atoms: O_2  and  C_15
    3  A    between atoms: C_6  and  C_17
    4  A    between atoms: C_9  and  C_15
    5  A    between atoms: C_14  and  C_19
    6  A    between atoms: C_15  and  C_18
                            x       y       z     vdW  Elec       q    Type
                         _______ _______ _______ _____ _____    ______ ____

>  <TORSDO>
F 6

$$$$
=
 OpenBabel11052423153D

 27 29  0  0  1  0  0  0  0  0999 V2000
  159.9480  206.1280  148.9390 C   0  0  0  0  0  1  0  0  0  0  0  0
  161.2380  205.2940  148.8390 C   0  0  2  0  0  0  0  0  0  0  0  0
  161.1970  205.9030  145.0450 C   0  0  0  0  0  3  0  0  0  0  0  0
  162.4260  205.3670  144.6590 C   0  0  0  0  0  3  0  0  0  0  0  0
  161.6700  205.3510  147.3750 C   0  0  0  0  0  0  0  0  0  0  0  0
  159.5950  206.3940  146.7190 F   0  0  0  0  0  0  0  0  0  0  0  0
  163.2730  204.8070  145.6150 C   0  0  0  0  0  3  0  0  0  0  0  0
  162.8940  204.7930  146.9590 C   0  0  0  0  0  3  0  0  0  0  0  0
  160.8130  205.8920  146.3900 C   0  0  0  0  0  0  0  0  0  0  0  0
  160.6810  201.1770  150.1050 C   0  0  0  0  0  3  0  0  0  0  0  0
  161.0010  203.8450  149.2730 C   0  0  0  0  0  0  0  0  0  0  0  0
  161.0740  203.5060  150.6340 C   0  0  0  0  0  3  0  0  0  0  0  0
  160.9080  202.1810  151.0490 C   0  0  0  0  0  3  0  0  0  0  0  0
  160.6230  201.4960  148.7460 C   0  0  0  0  0  3  0  0  0  0  0  0
  160.7890  202.8200  148.3320 C   0  0  0  0  0  3  0  0  0  0  0  0
  162.2720  205.8770  149.6220 O   0  0  0  0  0  0  0  0  0  0  0  0
  161.9150  207.1790  150.0260 C   0  0  0  0  0  2  0  0  0  0  0  0
  161.3350  205.9240  153.5390 C   0  0  0  0  0  3  0  0  0  0  0  0
  160.7920  207.0510  155.5600 F   0  0  0  0  0  0  0  0  0  0  0  0
  161.0540  208.3300  153.5580 C   0  0  0  0  0  0  0  0  0  0  0  0
  160.7750  209.4980  154.2600 O   0  0  0  0  0  1  0  0  0  0  0  0
  161.3340  208.3780  152.1810 C   0  0  0  0  0  0  0  0  0  0  0  0
  161.0570  207.1030  154.2320 C   0  0  0  0  0  0  0  0  0  0  0  0
  161.5980  207.1800  151.4840 C   0  0  0  0  0  0  0  0  0  0  0  0
  161.6060  205.9630  152.1710 C   0  0  0  0  0  3  0  0  0  0  0  0
  162.5820  210.2740  151.5090 O   0  0  0  0  0  1  0  0  0  0  0  0
  161.3140  209.6930  151.4640 C   0  0  0  0  0  2  0  0  0  0  0  0
  2  1  1  1  0  0  0
  2 11  1  0  0  0  0
  2 16  1  0  0  0  0
  3  9  1  0  0  0  0
  4  3  2  0  0  0  0
  4  7  1  0  0  0  0
  5  2  1  0  0  0  0
  7  8  2  0  0  0  0
  8  5  1  0  0  0  0
  9  6  1  0  0  0  0
  9  5  2  0  0  0  0
 10 13  1  0  0  0  0
 11 12  1  0  0  0  0
 12 13  2  0  0  0  0
 14 10  2  0  0  0  0
 15 14  1  0  0  0  0
 15 11  2  0  0  0  0
 16 17  1  0  0  0  0
 17 24  1  0  0  0  0
 18 23  1  0  0  0  0
 20 23  2  0  0  0  0
 20 21  1  0  0  0  0
 22 20  1  0  0  0  0
 23 19  1  0  0  0  0
 24 25  1  0  0  0  0
 24 22  2  0  0  0  0
 25 18  2  0  0  0  0
 27 26  1  0  0  0  0
 27 22  1  0  0  0  0
M  END
>  <MODEL>
3

>  <REMARK>
 VINA RESULT:      -8.3      0.946      1.331
  Name = 
  6 active torsions:
  status: ('A' for Active; 'I' for Inactive)
    1  A    between atoms: O_2  and  C_6
    2  A    between atoms: O_2  and  C_15
    3  A    between atoms: C_6  and  C_17
    4  A    between atoms: C_9  and  C_15
    5  A    between atoms: C_14  and  C_19
    6  A    between atoms: C_15  and  C_18
                            x       y       z     vdW  Elec       q    Type
                         _______ _______ _______ _____ _____    ______ ____

>  <TORSDO>
F 6

$$$$
=
 OpenBabel11052423153D

 27 29  0  0  1  0  0  0  0  0999 V2000
  159.8870  206.3430  149.0800 C   0  0  0  0  0  1  0  0  0  0  0  0
  161.1760  205.5780  148.7310 C   0  0  2  0  0  0  0  0  0  0  0  0
  162.5570  205.2170  145.1630 C   0  0  0  0  0  3  0  0  0  0  0  0
  161.4810  205.6630  144.3960 C   0  0  0  0  0  3  0  0  0  0  0  0
  161.2710  205.5750  147.2070 C   0  0  0  0  0  0  0  0  0  0  0  0
  163.5450  204.7690  147.2690 F   0  0  0  0  0  0  0  0  0  0  0  0
  160.3060  206.0820  145.0220 C   0  0  0  0  0  3  0  0  0  0  0  0
  160.2060  206.0450  146.4140 C   0  0  0  0  0  3  0  0  0  0  0  0
  162.4630  205.1780  146.5580 C   0  0  0  0  0  0  0  0  0  0  0  0
  160.9510  201.5030  150.2170 C   0  0  0  0  0  3  0  0  0  0  0  0
  161.1370  204.1450  149.2700 C   0  0  0  0  0  0  0  0  0  0  0  0
  161.0670  203.0660  148.3730 C   0  0  0  0  0  3  0  0  0  0  0  0
  160.9810  201.7530  148.8430 C   0  0  0  0  0  3  0  0  0  0  0  0
  161.0020  202.5670  151.1210 C   0  0  0  0  0  3  0  0  0  0  0  0
  161.0870  203.8800  150.6510 C   0  0  0  0  0  3  0  0  0  0  0  0
  162.3150  206.2610  149.2380 O   0  0  0  0  0  0  0  0  0  0  0  0
  162.2990  206.2750  150.6470 C   0  0  0  0  0  2  0  0  0  0  0  0
  161.9620  210.0330  150.7460 C   0  0  0  0  0  3  0  0  0  0  0  0
  160.9600  211.4980  152.3270 F   0  0  0  0  0  0  0  0  0  0  0  0
  160.9090  209.1440  152.7380 C   0  0  0  0  0  0  0  0  0  0  0  0
  160.2230  209.3610  153.9280 O   0  0  0  0  0  1  0  0  0  0  0  0
  161.2330  207.8380  152.3310 C   0  0  0  0  0  0  0  0  0  0  0  0
  161.2730  210.2370  151.9430 C   0  0  0  0  0  0  0  0  0  0  0  0
  161.9440  207.6410  151.1290 C   0  0  0  0  0  0  0  0  0  0  0  0
  162.2950  208.7400  150.3400 C   0  0  0  0  0  3  0  0  0  0  0  0
  161.9600  206.2490  153.9270 O   0  0  0  0  0  1  0  0  0  0  0  0
  160.8520  206.6760  153.1950 C   0  0  0  0  0  2  0  0  0  0  0  0
  2  1  1  1  0  0  0
  2 16  1  0  0  0  0
  2 11  1  0  0  0  0
  3  9  1  0  0  0  0
  4  7  1  0  0  0  0
  4  3  2  0  0  0  0
  5  2  1  0  0  0  0
  7  8  2  0  0  0  0
  8  5  1  0  0  0  0
  9  5  2  0  0  0  0
  9  6  1  0  0  0  0
 10 14  1  0  0  0  0
 11 15  1  0  0  0  0
 12 13  1  0  0  0  0
 12 11  2  0  0  0  0
 13 10  2  0  0  0  0
 15 14  2  0  0  0  0
 16 17  1  0  0  0  0
 17 24  1  0  0  0  0
 18 23  1  0  0  0  0
 20 21  1  0  0  0  0
 22 20  1  0  0  0  0
 22 27  1  0  0  0  0
 23 19  1  0  0  0  0
 23 20  2  0  0  0  0
 24 22  2  0  0  0  0
 25 18  2  0  0  0  0
 25 24  1  0  0  0  0
 27 26  1  0  0  0  0
M  END
>  <MODEL>
4

>  <REMARK>
 VINA RESULT:      -8.0      1.399      2.306
  Name = 
  6 active torsions:
  status: ('A' for Active; 'I' for Inactive)
    1  A    between atoms: O_2  and  C_6
    2  A    between atoms: O_2  and  C_15
    3  A    between atoms: C_6  and  C_17
    4  A    between atoms: C_9  and  C_15
    5  A    between atoms: C_14  and  C_19
    6  A    between atoms: C_15  and  C_18
                            x       y       z     vdW  Elec       q    Type
                         _______ _______ _______ _____ _____    ______ ____

>  <TORSDO>
F 6

$$$$
=
 OpenBabel11052423153D

 27 29  0  0  1  0  0  0  0  0999 V2000
  162.3880  210.2450  153.3790 C   0  0  0  0  0  1  0  0  0  0  0  0
  160.9610  209.7050  153.5790 C   0  0  2  0  0  0  0  0  0  0  0  0
  159.3370  212.9620  154.8130 C   0  0  0  0  0  3  0  0  0  0  0  0
  158.3070  213.1330  153.8880 C   0  0  0  0  0  3  0  0  0  0  0  0
  160.0500  210.9270  153.6670 C   0  0  0  0  0  0  0  0  0  0  0  0
  161.1700  211.7180  155.6540 F   0  0  0  0  0  0  0  0  0  0  0  0
  158.1300  212.2020  152.8640 C   0  0  0  0  0  3  0  0  0  0  0  0
  158.9880  211.1070  152.7600 C   0  0  0  0  0  3  0  0  0  0  0  0
  160.2010  211.8660  154.7140 C   0  0  0  0  0  0  0  0  0  0  0  0
  160.5770  207.3930  157.2360 C   0  0  0  0  0  3  0  0  0  0  0  0
  160.8570  208.8640  154.8550 C   0  0  0  0  0  0  0  0  0  0  0  0
  159.6950  208.1120  155.1000 C   0  0  0  0  0  3  0  0  0  0  0  0
  159.5590  207.3760  156.2800 C   0  0  0  0  0  3  0  0  0  0  0  0
  161.7300  208.1510  157.0150 C   0  0  0  0  0  3  0  0  0  0  0  0
  161.8660  208.8870  155.8350 C   0  0  0  0  0  3  0  0  0  0  0  0
  160.5540  208.9380  152.4530 O   0  0  0  0  0  0  0  0  0  0  0  0
  161.6640  208.6120  151.6480 C   0  0  0  0  0  2  0  0  0  0  0  0
  160.6900  206.2350  148.8810 C   0  0  0  0  0  3  0  0  0  0  0  0
  160.6680  203.8610  148.7590 F   0  0  0  0  0  0  0  0  0  0  0  0
  161.3840  204.9080  150.7850 C   0  0  0  0  0  0  0  0  0  0  0  0
  161.6010  203.6610  151.3610 O   0  0  0  0  0  1  0  0  0  0  0  0
  161.6380  206.0820  151.5160 C   0  0  0  0  0  0  0  0  0  0  0  0
  160.9120  204.9890  149.4700 C   0  0  0  0  0  0  0  0  0  0  0  0
  161.3960  207.3370  150.9200 C   0  0  0  0  0  0  0  0  0  0  0  0
  160.9320  207.4050  149.6030 C   0  0  0  0  0  3  0  0  0  0  0  0
  161.1170  205.4850  153.7450 O   0  0  0  0  0  1  0  0  0  0  0  0
  162.1290  205.9860  152.9270 C   0  0  0  0  0  2  0  0  0  0  0  0
  2  1  1  6  0  0  0
  2  5  1  0  0  0  0
  2 11  1  0  0  0  0
  4  3  2  0  0  0  0
  5  9  2  0  0  0  0
  7  4  1  0  0  0  0
  8  7  2  0  0  0  0
  8  5  1  0  0  0  0
  9  3  1  0  0  0  0
  9  6  1  0  0  0  0
 11 12  2  0  0  0  0
 11 15  1  0  0  0  0
 12 13  1  0  0  0  0
 13 10  2  0  0  0  0
 14 10  1  0  0  0  0
 15 14  2  0  0  0  0
 16  2  1  0  0  0  0
 17 16  1  0  0  0  0
 18 23  2  0  0  0  0
 18 25  1  0  0  0  0
 19 23  1  0  0  0  0
 20 21  1  0  0  0  0
 20 22  2  0  0  0  0
 22 27  1  0  0  0  0
 23 20  1  0  0  0  0
 24 22  1  0  0  0  0
 24 17  1  0  0  0  0
 25 24  2  0  0  0  0
 27 26  1  0  0  0  0
M  END
>  <MODEL>
5

>  <REMARK>
 VINA RESULT:      -7.7      2.932      7.713
  Name = 
  6 active torsions:
  status: ('A' for Active; 'I' for Inactive)
    1  A    between atoms: O_2  and  C_6
    2  A    between atoms: O_2  and  C_15
    3  A    between atoms: C_6  and  C_17
    4  A    between atoms: C_9  and  C_15
    5  A    between atoms: C_14  and  C_19
    6  A    between atoms: C_15  and  C_18
                            x       y       z     vdW  Elec       q    Type
                         _______ _______ _______ _____ _____    ______ ____

>  <TORSDO>
F 6

$$$$
=
 OpenBabel11052423153D

 27 29  0  0  1  0  0  0  0  0999 V2000
  159.8580  206.1660  149.1010 C   0  0  0  0  0  1  0  0  0  0  0  0
  161.1600  205.4330  148.7320 C   0  0  2  0  0  0  0  0  0  0  0  0
  162.5570  205.1900  145.1610 C   0  0  0  0  0  3  0  0  0  0  0  0
  161.4930  205.6840  144.4060 C   0  0  0  0  0  3  0  0  0  0  0  0
  161.2640  205.4890  147.2100 C   0  0  0  0  0  0  0  0  0  0  0  0
  163.5240  204.6420  147.2530 F   0  0  0  0  0  0  0  0  0  0  0  0
  160.3220  206.0980  145.0420 C   0  0  0  0  0  3  0  0  0  0  0  0
  160.2120  206.0080  146.4300 C   0  0  0  0  0  3  0  0  0  0  0  0
  162.4530  205.0970  146.5530 C   0  0  0  0  0  0  0  0  0  0  0  0
  160.9840  201.3050  150.0690 C   0  0  0  0  0  3  0  0  0  0  0  0
  161.1380  203.9800  149.2170 C   0  0  0  0  0  0  0  0  0  0  0  0
  161.0250  202.9370  148.2830 C   0  0  0  0  0  3  0  0  0  0  0  0
  160.9550  201.6070  148.7060 C   0  0  0  0  0  3  0  0  0  0  0  0
  161.0780  202.3330  151.0100 C   0  0  0  0  0  3  0  0  0  0  0  0
  161.1490  203.6620  150.5870 C   0  0  0  0  0  3  0  0  0  0  0  0
  162.2860  206.1130  149.2720 O   0  0  0  0  0  0  0  0  0  0  0  0
  161.9410  206.7730  150.4690 C   0  0  0  0  0  2  0  0  0  0  0  0
  162.2470  210.1050  148.7210 C   0  0  0  0  0  3  0  0  0  0  0  0
  161.6950  212.3150  149.4040 F   0  0  0  0  0  0  0  0  0  0  0  0
  161.3030  210.5050  150.9160 C   0  0  0  0  0  0  0  0  0  0  0  0
  160.8070  211.3960  151.8620 O   0  0  0  0  0  1  0  0  0  0  0  0
  161.3550  209.1280  151.1940 C   0  0  0  0  0  0  0  0  0  0  0  0
  161.7470  210.9890  149.6790 C   0  0  0  0  0  0  0  0  0  0  0  0
  161.8770  208.2440  150.2270 C   0  0  0  0  0  0  0  0  0  0  0  0
  162.3100  208.7380  148.9940 C   0  0  0  0  0  3  0  0  0  0  0  0
  161.8360  208.9310  153.5030 O   0  0  0  0  0  1  0  0  0  0  0  0
  160.8910  208.6220  152.5250 C   0  0  0  0  0  2  0  0  0  0  0  0
  2  1  1  1  0  0  0
  2 11  1  0  0  0  0
  2 16  1  0  0  0  0
  3  9  1  0  0  0  0
  4  7  1  0  0  0  0
  4  3  2  0  0  0  0
  5  2  1  0  0  0  0
  7  8  2  0  0  0  0
  8  5  1  0  0  0  0
  9  5  2  0  0  0  0
  9  6  1  0  0  0  0
 10 14  1  0  0  0  0
 11 15  1  0  0  0  0
 12 13  1  0  0  0  0
 12 11  2  0  0  0  0
 13 10  2  0  0  0  0
 15 14  2  0  0  0  0
 16 17  1  0  0  0  0
 18 25  2  0  0  0  0
 18 23  1  0  0  0  0
 19 23  1  0  0  0  0
 20 22  1  0  0  0  0
 20 21  1  0  0  0  0
 22 27  1  0  0  0  0
 23 20  2  0  0  0  0
 24 17  1  0  0  0  0
 24 22  2  0  0  0  0
 25 24  1  0  0  0  0
 27 26  1  0  0  0  0
M  END
>  <MODEL>
6

>  <REMARK>
 VINA RESULT:      -7.7      1.821      2.794
  Name = 
  6 active torsions:
  status: ('A' for Active; 'I' for Inactive)
    1  A    between atoms: O_2  and  C_6
    2  A    between atoms: O_2  and  C_15
    3  A    between atoms: C_6  and  C_17
    4  A    between atoms: C_9  and  C_15
    5  A    between atoms: C_14  and  C_19
    6  A    between atoms: C_15  and  C_18
                            x       y       z     vdW  Elec       q    Type
                         _______ _______ _______ _____ _____    ______ ____

>  <TORSDO>
F 6

$$$$
=
 OpenBabel11052423153D

 27 29  0  0  1  0  0  0  0  0999 V2000
  162.2990  209.9780  152.9000 C   0  0  0  0  0  1  0  0  0  0  0  0
  160.9050  209.4500  153.2830 C   0  0  2  0  0  0  0  0  0  0  0  0
  159.1840  212.6690  152.0840 C   0  0  0  0  0  3  0  0  0  0  0  0
  158.2840  212.9120  153.1220 C   0  0  0  0  0  3  0  0  0  0  0  0
  159.9600  210.6470  153.2100 C   0  0  0  0  0  0  0  0  0  0  0  0
  160.9080  211.3690  151.1110 F   0  0  0  0  0  0  0  0  0  0  0  0
  158.2260  212.0430  154.2110 C   0  0  0  0  0  3  0  0  0  0  0  0
  159.0610  210.9260  154.2580 C   0  0  0  0  0  3  0  0  0  0  0  0
  160.0240  211.5510  152.1250 C   0  0  0  0  0  0  0  0  0  0  0  0
  161.0170  207.7090  157.2610 C   0  0  0  0  0  3  0  0  0  0  0  0
  160.9040  208.8500  154.6930 C   0  0  0  0  0  0  0  0  0  0  0  0
  161.7670  209.3720  155.6710 C   0  0  0  0  0  3  0  0  0  0  0  0
  161.8180  208.8100  156.9490 C   0  0  0  0  0  3  0  0  0  0  0  0
  160.1670  207.1680  156.2930 C   0  0  0  0  0  3  0  0  0  0  0  0
  160.1160  207.7300  155.0150 C   0  0  0  0  0  3  0  0  0  0  0  0
  160.4590  208.4830  152.3400 O   0  0  0  0  0  0  0  0  0  0  0  0
  161.4710  207.5350  152.0860 C   0  0  0  0  0  2  0  0  0  0  0  0
  161.6730  207.7250  148.3210 C   0  0  0  0  0  3  0  0  0  0  0  0
  161.3680  206.0850  146.6270 F   0  0  0  0  0  0  0  0  0  0  0  0
  161.1190  205.4430  148.9170 C   0  0  0  0  0  0  0  0  0  0  0  0
  160.8340  204.1390  148.5270 O   0  0  0  0  0  1  0  0  0  0  0  0
  161.1440  205.7890  150.2790 C   0  0  0  0  0  0  0  0  0  0  0  0
  161.3860  206.4130  147.9420 C   0  0  0  0  0  0  0  0  0  0  0  0
  161.4190  207.1210  150.6530 C   0  0  0  0  0  0  0  0  0  0  0  0
  161.6920  208.0770  149.6710 C   0  0  0  0  0  3  0  0  0  0  0  0
  161.9880  203.9930  151.5700 O   0  0  0  0  0  1  0  0  0  0  0  0
  160.8430  204.7490  151.3140 C   0  0  0  0  0  2  0  0  0  0  0  0
  2  1  1  6  0  0  0
  2 11  1  0  0  0  0
  3  9  2  0  0  0  0
  3  4  1  0  0  0  0
  4  7  2  0  0  0  0
  5  2  1  0  0  0  0
  5  8  2  0  0  0  0
  6  9  1  0  0  0  0
  7  8  1  0  0  0  0
  9  5  1  0  0  0  0
 11 15  2  0  0  0  0
 11 12  1  0  0  0  0
 12 13  2  0  0  0  0
 13 10  1  0  0  0  0
 14 10  2  0  0  0  0
 15 14  1  0  0  0  0
 16  2  1  0  0  0  0
 17 16  1  0  0  0  0
 18 25  1  0  0  0  0
 19 23  1  0  0  0  0
 20 22  2  0  0  0  0
 21 20  1  0  0  0  0
 22 24  1  0  0  0  0
 22 27  1  0  0  0  0
 23 18  2  0  0  0  0
 23 20  1  0  0  0  0
 24 17  1  0  0  0  0
 25 24  2  0  0  0  0
 27 26  1  0  0  0  0
M  END
>  <MODEL>
7

>  <REMARK>
 VINA RESULT:      -7.6      2.789      7.564
  Name = 
  6 active torsions:
  status: ('A' for Active; 'I' for Inactive)
    1  A    between atoms: O_2  and  C_6
    2  A    between atoms: O_2  and  C_15
    3  A    between atoms: C_6  and  C_17
    4  A    between atoms: C_9  and  C_15
    5  A    between atoms: C_14  and  C_19
    6  A    between atoms: C_15  and  C_18
                            x       y       z     vdW  Elec       q    Type
                         _______ _______ _______ _____ _____    ______ ____

>  <TORSDO>
F 6

$$$$
=
 OpenBabel11052423153D

 27 29  0  0  1  0  0  0  0  0999 V2000
  162.9740  205.9650  149.5960 C   0  0  0  0  0  1  0  0  0  0  0  0
  161.5490  205.6560  149.1030 C   0  0  2  0  0  0  0  0  0  0  0  0
  161.2420  202.5400  151.3310 C   0  0  0  0  0  3  0  0  0  0  0  0
  160.7340  201.6000  150.4340 C   0  0  0  0  0  3  0  0  0  0  0  0
  161.2300  204.2410  149.5790 C   0  0  0  0  0  0  0  0  0  0  0  0
  162.0220  204.7260  151.8070 F   0  0  0  0  0  0  0  0  0  0  0  0
  160.4880  201.9630  149.1100 C   0  0  0  0  0  3  0  0  0  0  0  0
  160.7410  203.2680  148.6860 C   0  0  0  0  0  3  0  0  0  0  0  0
  161.4970  203.8500  150.9120 C   0  0  0  0  0  0  0  0  0  0  0  0
  161.2020  205.8140  144.7760 C   0  0  0  0  0  3  0  0  0  0  0  0
  161.4560  205.7420  147.5760 C   0  0  0  0  0  0  0  0  0  0  0  0
  160.2710  206.1990  146.9760 C   0  0  0  0  0  3  0  0  0  0  0  0
  160.1470  206.2410  145.5850 C   0  0  0  0  0  3  0  0  0  0  0  0
  162.3810  205.3400  145.3580 C   0  0  0  0  0  3  0  0  0  0  0  0
  162.5040  205.2980  146.7500 C   0  0  0  0  0  3  0  0  0  0  0  0
  160.6100  206.5400  149.7010 O   0  0  0  0  0  0  0  0  0  0  0  0
  161.2030  207.7920  149.9610 C   0  0  0  0  0  2  0  0  0  0  0  0
  160.7230  207.2670  153.6690 C   0  0  0  0  0  3  0  0  0  0  0  0
  161.0190  208.7150  155.5310 F   0  0  0  0  0  0  0  0  0  0  0  0
  161.4630  209.5490  153.3350 C   0  0  0  0  0  0  0  0  0  0  0  0
  161.8050  210.7880  153.8680 O   0  0  0  0  0  1  0  0  0  0  0  0
  161.5160  209.3330  151.9470 C   0  0  0  0  0  0  0  0  0  0  0  0
  161.0680  208.5140  154.1920 C   0  0  0  0  0  0  0  0  0  0  0  0
  161.1500  208.0750  151.4250 C   0  0  0  0  0  0  0  0  0  0  0  0
  160.7650  207.0480  152.2910 C   0  0  0  0  0  3  0  0  0  0  0  0
  160.9060  211.3990  150.9670 O   0  0  0  0  0  1  0  0  0  0  0  0
  161.9260  210.4500  151.0370 C   0  0  0  0  0  2  0  0  0  0  0  0
  2  5  1  0  0  0  0
  2  1  1  1  0  0  0
  2 16  1  0  0  0  0
  4  3  2  0  0  0  0
  5  9  2  0  0  0  0
  7  4  1  0  0  0  0
  8  7  2  0  0  0  0
  8  5  1  0  0  0  0
  9  3  1  0  0  0  0
  9  6  1  0  0  0  0
 10 14  2  0  0  0  0
 10 13  1  0  0  0  0
 11  2  1  0  0  0  0
 12 11  1  0  0  0  0
 13 12  2  0  0  0  0
 14 15  1  0  0  0  0
 15 11  2  0  0  0  0
 16 17  1  0  0  0  0
 17 24  1  0  0  0  0
 18 23  1  0  0  0  0
 20 21  1  0  0  0  0
 20 23  2  0  0  0  0
 22 20  1  0  0  0  0
 23 19  1  0  0  0  0
 24 22  2  0  0  0  0
 24 25  1  0  0  0  0
 25 18  2  0  0  0  0
 26 27  1  0  0  0  0
 27 22  1  0  0  0  0
M  END
>  <MODEL>
8

>  <REMARK>
 VINA RESULT:      -7.5      1.445      3.831
  Name = 
  6 active torsions:
  status: ('A' for Active; 'I' for Inactive)
    1  A    between atoms: O_2  and  C_6
    2  A    between atoms: O_2  and  C_15
    3  A    between atoms: C_6  and  C_17
    4  A    between atoms: C_9  and  C_15
    5  A    between atoms: C_14  and  C_19
    6  A    between atoms: C_15  and  C_18
                            x       y       z     vdW  Elec       q    Type
                         _______ _______ _______ _____ _____    ______ ____

>  <TORSDO>
F 6

$$$$
=
 OpenBabel11052423153D

 27 29  0  0  1  0  0  0  0  0999 V2000
  163.0480  206.7160  151.0980 C   0  0  0  0  0  1  0  0  0  0  0  0
  161.6660  207.3890  151.1750 C   0  0  2  0  0  0  0  0  0  0  0  0
  162.1110  210.0070  148.3980 C   0  0  0  0  0  3  0  0  0  0  0  0
  162.1510  211.1930  149.1310 C   0  0  0  0  0  3  0  0  0  0  0  0
  161.8010  208.7270  150.4540 C   0  0  0  0  0  0  0  0  0  0  0  0
  161.9450  207.6460  148.3010 F   0  0  0  0  0  0  0  0  0  0  0  0
  162.0360  211.1570  150.5200 C   0  0  0  0  0  3  0  0  0  0  0  0
  161.8700  209.9350  151.1750 C   0  0  0  0  0  3  0  0  0  0  0  0
  161.9450  208.7800  149.0480 C   0  0  0  0  0  0  0  0  0  0  0  0
  160.3320  207.9210  155.2730 C   0  0  0  0  0  3  0  0  0  0  0  0
  161.2290  207.6020  152.6270 C   0  0  0  0  0  0  0  0  0  0  0  0
  161.2430  206.5200  153.5240 C   0  0  0  0  0  3  0  0  0  0  0  0
  160.8040  206.6810  154.8400 C   0  0  0  0  0  3  0  0  0  0  0  0
  160.2950  209.0020  154.3880 C   0  0  0  0  0  3  0  0  0  0  0  0
  160.7350  208.8420  153.0720 C   0  0  0  0  0  3  0  0  0  0  0  0
  160.6950  206.6150  150.4800 O   0  0  0  0  0  0  0  0  0  0  0  0
  160.8180  205.2510  150.8120 C   0  0  0  0  0  2  0  0  0  0  0  0
  161.3300  204.3910  147.1720 C   0  0  0  0  0  3  0  0  0  0  0  0
  161.3990  202.3100  146.0250 F   0  0  0  0  0  0  0  0  0  0  0  0
  161.0340  202.3160  148.3870 C   0  0  0  0  0  0  0  0  0  0  0  0
  160.9610  200.9270  148.3850 O   0  0  0  0  0  1  0  0  0  0  0  0
  160.8900  203.0350  149.5870 C   0  0  0  0  0  0  0  0  0  0  0  0
  161.2560  202.9970  147.1840 C   0  0  0  0  0  0  0  0  0  0  0  0
  160.9500  204.4430  149.5640 C   0  0  0  0  0  0  0  0  0  0  0  0
  161.1800  205.1110  148.3570 C   0  0  0  0  0  3  0  0  0  0  0  0
  161.8300  202.1770  151.5820 O   0  0  0  0  0  1  0  0  0  0  0  0
  160.6390  202.2990  150.8670 C   0  0  0  0  0  2  0  0  0  0  0  0
  2  1  1  6  0  0  0
  2 11  1  0  0  0  0
  3  9  2  0  0  0  0
  3  4  1  0  0  0  0
  4  7  2  0  0  0  0
  5  2  1  0  0  0  0
  5  8  2  0  0  0  0
  6  9  1  0  0  0  0
  7  8  1  0  0  0  0
  9  5  1  0  0  0  0
 11 15  2  0  0  0  0
 11 12  1  0  0  0  0
 12 13  2  0  0  0  0
 13 10  1  0  0  0  0
 14 10  2  0  0  0  0
 15 14  1  0  0  0  0
 16 17  1  0  0  0  0
 16  2  1  0  0  0  0
 18 23  2  0  0  0  0
 18 25  1  0  0  0  0
 19 23  1  0  0  0  0
 20 22  2  0  0  0  0
 21 20  1  0  0  0  0
 22 27  1  0  0  0  0
 23 20  1  0  0  0  0
 24 22  1  0  0  0  0
 24 17  1  0  0  0  0
 25 24  2  0  0  0  0
 27 26  1  0  0  0  0
M  END
>  <MODEL>
9

>  <REMARK>
 VINA RESULT:      -7.3      2.375      6.473
  Name = 
  6 active torsions:
  status: ('A' for Active; 'I' for Inactive)
    1  A    between atoms: O_2  and  C_6
    2  A    between atoms: O_2  and  C_15
    3  A    between atoms: C_6  and  C_17
    4  A    between atoms: C_9  and  C_15
    5  A    between atoms: C_14  and  C_19
    6  A    between atoms: C_15  and  C_18
                            x       y       z     vdW  Elec       q    Type
                         _______ _______ _______ _____ _____    ______ ____

>  <TORSDO>
F 6

$$$$
