=
 OpenBabel11052422373D

 31 36  0  0  1  0  0  0  0  0999 V2000
  160.2430  209.2410  157.1130 C   0  0  2  0  0  3  0  0  0  0  0  0
  159.8350  211.3740  153.9600 N   0  0  0  0  0  0  0  0  0  0  0  0
  158.4680  211.9110  154.0160 C   0  0  1  0  0  3  0  0  0  0  0  0
  157.3380  213.6250  155.3060 C   0  0  0  0  0  0  0  0  0  0  0  0
  160.4670  210.8260  155.1700 C   0  0  1  0  0  3  0  0  0  0  0  0
  161.6600  209.6150  157.2570 N   0  0  0  0  0  2  0  0  0  0  0  0
  158.2270  212.6730  155.2460 N   0  0  0  0  0  0  0  0  0  0  0  0
  161.7800  210.4470  152.6190 C   0  0  2  0  0  3  0  0  0  0  0  0
  160.0650  207.7410  157.2600 C   0  0  0  0  0  1  0  0  0  0  0  0
  158.8040  212.6240  151.6950 N   0  0  0  0  0  0  0  0  0  0  0  0
  157.0770  214.3040  156.6010 C   0  0  0  0  0  1  0  0  0  0  0  0
  161.8710  209.5330  153.6840 O   0  0  0  0  0  0  0  0  0  0  0  0
  160.4640  211.1800  152.6770 C   0  0  0  0  0  0  0  0  0  0  0  0
  159.6130  209.7270  155.7990 C   0  0  0  0  0  2  0  0  0  0  0  0
  156.6680  214.0830  154.1150 N   0  0  0  0  0  0  0  0  0  0  0  0
  161.8840  210.2800  154.8770 C   0  0  2  0  0  3  0  0  0  0  0  0
  162.3920  209.3780  156.0100 C   0  0  0  0  0  2  0  0  0  0  0  0
  159.9700  211.7960  151.5970 C   0  0  0  0  0  3  0  0  0  0  0  0
  158.1360  212.7380  152.8030 C   0  0  0  0  0  0  0  0  0  0  0  0
  157.0370  213.6980  152.9300 C   0  0  0  0  0  3  0  0  0  0  0  0
  161.9160  209.7290  151.3590 N   0  0  0  0  0  2  0  0  0  0  0  0
  161.5040  205.7930  148.0040 C   0  0  0  0  0  0  0  0  0  0  0  0
  161.9330  208.1680  148.7250 C   0  0  0  0  0  2  0  0  0  0  0  0
  160.9610  206.1540  151.6480 N   0  0  0  0  0  0  0  0  0  0  0  0
  161.1650  207.4300  152.3370 C   0  0  0  0  0  2  0  0  0  0  0  0
  161.9580  205.0200  147.1770 O   0  0  0  0  0  0  0  0  0  0  0  0
  161.5360  208.3600  151.2220 C   0  0  0  0  0  0  0  0  0  0  0  0
  161.3340  207.2510  147.6490 C   0  0  0  0  0  2  0  0  0  0  0  0
  161.1740  206.3340  150.3870 C   0  0  0  0  0  0  0  0  0  0  0  0
  161.5130  207.7010  150.0830 C   0  0  0  0  0  0  0  0  0  0  0  0
  161.0470  205.2690  149.3430 C   0  0  0  0  0  2  0  0  0  0  0  0
  1  6  1  0  0  0  0
  1  9  1  6  0  0  0
  2  3  1  0  0  0  0
  2  5  1  0  0  0  0
  3 19  1  6  0  0  0
  3  7  1  0  0  0  0
  4 11  1  0  0  0  0
  5 14  1  6  0  0  0
  7  4  2  0  0  0  0
  8 21  1  6  0  0  0
  8 13  1  0  0  0  0
  8 12  1  0  0  0  0
 10 19  2  0  0  0  0
 12 16  1  0  0  0  0
 13  2  1  0  0  0  0
 14  1  1  0  0  0  0
 15  4  1  0  0  0  0
 16  5  1  0  0  0  0
 16 17  1  1  0  0  0
 17  6  1  0  0  0  0
 18 10  1  0  0  0  0
 18 13  2  0  0  0  0
 19 20  1  0  0  0  0
 20 15  2  0  0  0  0
 22 31  1  0  0  0  0
 23 30  1  0  0  0  0
 24 25  1  0  0  0  0
 26 22  2  0  0  0  0
 27 21  1  0  0  0  0
 27 25  1  0  0  0  0
 28 22  1  0  0  0  0
 28 23  1  0  0  0  0
 29 24  2  0  0  0  0
 30 29  1  0  0  0  0
 30 27  2  0  0  0  0
 31 29  1  0  0  0  0
M  END
>  <MODEL>
1

>  <REMARK>
 VINA RESULT:      -7.4      0.000      0.000
  Name = 
  2 active torsions:
  status: ('A' for Active; 'I' for Inactive)
    1  A    between atoms: C_9  and  N_23
    2  A    between atoms: C_15  and  N_23
                            x       y       z     vdW  Elec       q    Type
                         _______ _______ _______ _____ _____    ______ ____

>  <TORSDO>
F 2

$$$$
=
 OpenBabel11052422373D

 31 36  0  0  1  0  0  0  0  0999 V2000
  161.4300  201.8230  150.8870 C   0  0  2  0  0  3  0  0  0  0  0  0
  161.3490  205.0290  148.7960 N   0  0  0  0  0  0  0  0  0  0  0  0
  161.8670  204.6560  147.4720 C   0  0  1  0  0  3  0  0  0  0  0  0
  161.0150  203.4120  145.5740 C   0  0  0  0  0  0  0  0  0  0  0  0
  160.8860  203.9920  149.7320 C   0  0  1  0  0  3  0  0  0  0  0  0
  160.1990  202.1890  151.6070 N   0  0  0  0  0  2  0  0  0  0  0  0
  161.0910  203.5680  146.8660 N   0  0  0  0  0  0  0  0  0  0  0  0
  161.1550  206.7120  150.6870 C   0  0  2  0  0  3  0  0  0  0  0  0
  162.5030  201.3620  151.8550 C   0  0  0  0  0  1  0  0  0  0  0  0
  161.9650  207.0560  146.9880 N   0  0  0  0  0  0  0  0  0  0  0  0
  160.2850  202.2420  145.0190 C   0  0  0  0  0  1  0  0  0  0  0  0
  161.3430  205.5790  151.4990 O   0  0  0  0  0  0  0  0  0  0  0  0
  161.5070  206.3860  149.2570 C   0  0  0  0  0  0  0  0  0  0  0  0
  161.9690  202.9460  149.9880 C   0  0  0  0  0  2  0  0  0  0  0  0
  161.5560  204.4020  144.6780 N   0  0  0  0  0  0  0  0  0  0  0  0
  160.4230  204.6030  151.0760 C   0  0  2  0  0  3  0  0  0  0  0  0
  160.3070  203.5360  152.1740 C   0  0  0  0  0  2  0  0  0  0  0  0
  161.7890  207.3560  148.3790 C   0  0  0  0  0  3  0  0  0  0  0  0
  161.9470  205.8370  146.5420 C   0  0  0  0  0  0  0  0  0  0  0  0
  161.9800  205.5540  145.1060 C   0  0  0  0  0  3  0  0  0  0  0  0
  161.9810  207.8030  151.1860 N   0  0  0  0  0  2  0  0  0  0  0  0
  160.3590  208.7290  156.0270 C   0  0  0  0  0  0  0  0  0  0  0  0
  161.1620  207.3230  154.0970 C   0  0  0  0  0  2  0  0  0  0  0  0
  160.8430  210.8250  153.0150 N   0  0  0  0  0  0  0  0  0  0  0  0
  161.3290  210.2650  151.7530 C   0  0  0  0  0  3  0  0  0  0  0  0
  160.5090  208.7440  157.2370 O   0  0  0  0  0  0  0  0  0  0  0  0
  161.4650  208.8050  152.0630 C   0  0  0  0  0  0  0  0  0  0  0  0
  160.2230  207.4070  155.3080 C   0  0  0  0  0  2  0  0  0  0  0  0
  160.7250  209.8640  153.8690 C   0  0  2  0  0  3  0  0  0  0  0  0
  161.0830  208.5880  153.3030 C   0  0  0  0  0  0  0  0  0  0  0  0
  160.2350  210.0300  155.2730 C   0  0  0  0  0  2  0  0  0  0  0  0
  1  6  1  0  0  0  0
  1  9  1  1  0  0  0
  2 13  1  0  0  0  0
  2  5  1  0  0  0  0
  3 19  1  6  0  0  0
  3  2  1  0  0  0  0
  4  7  2  0  0  0  0
  5 14  1  1  0  0  0
  5 16  1  0  0  0  0
  6 17  1  0  0  0  0
  7  3  1  0  0  0  0
  8 21  1  1  0  0  0
  8 12  1  0  0  0  0
 10 18  1  0  0  0  0
 11  4  1  0  0  0  0
 13  8  1  0  0  0  0
 14  1  1  0  0  0  0
 15 20  2  0  0  0  0
 15  4  1  0  0  0  0
 16 12  1  0  0  0  0
 16 17  1  1  0  0  0
 18 13  2  0  0  0  0
 19 10  2  0  0  0  0
 20 19  1  0  0  0  0
 21 27  1  0  0  0  0
 22 26  2  0  0  0  0
 23 28  1  0  0  0  0
 24 29  1  0  0  0  0
 25 27  1  0  0  0  0
 25 24  2  0  0  0  0
 27 30  2  0  0  0  0
 28 22  1  0  0  0  0
 29 31  1  6  0  0  0
 30 29  1  0  0  0  0
 30 23  1  0  0  0  0
 31 22  1  0  0  0  0
M  END
>  <MODEL>
2

>  <REMARK>
 VINA RESULT:      -7.1      3.107      8.814
  Name = 
  2 active torsions:
  status: ('A' for Active; 'I' for Inactive)
    1  A    between atoms: C_9  and  N_23
    2  A    between atoms: C_15  and  N_23
                            x       y       z     vdW  Elec       q    Type
                         _______ _______ _______ _____ _____    ______ ____

>  <TORSDO>
F 2

$$$$
=
 OpenBabel11052422373D

 31 36  0  0  1  0  0  0  0  0999 V2000
  161.3350  206.2650  151.5530 C   0  0  2  0  0  3  0  0  0  0  0  0
  160.9090  209.8610  152.7960 N   0  0  0  0  0  0  0  0  0  0  0  0
  160.0830  209.7690  154.0080 C   0  0  1  0  0  3  0  0  0  0  0  0
  160.4430  209.0370  156.2900 C   0  0  0  0  0  0  0  0  0  0  0  0
  161.5850  208.6660  152.2660 C   0  0  1  0  0  3  0  0  0  0  0  0
  162.7060  206.5250  151.0810 N   0  0  0  0  0  2  0  0  0  0  0  0
  160.6850  208.8920  155.0180 N   0  0  0  0  0  0  0  0  0  0  0  0
  161.5630  211.0800  150.6670 C   0  0  2  0  0  3  0  0  0  0  0  0
  160.5300  205.5380  150.4920 C   0  0  0  0  0  1  0  0  0  0  0  0
  159.8750  212.2080  153.8810 N   0  0  0  0  0  0  0  0  0  0  0  0
  161.0130  208.0660  157.2610 C   0  0  0  0  0  1  0  0  0  0  0  0
  161.5770  209.7840  150.1200 O   0  0  0  0  0  0  0  0  0  0  0  0
  160.8710  211.0670  152.0070 C   0  0  0  0  0  0  0  0  0  0  0  0
  160.5950  207.5310  152.0100 C   0  0  0  0  0  2  0  0  0  0  0  0
  159.7020  210.1730  156.7760 N   0  0  0  0  0  0  0  0  0  0  0  0
  162.3630  208.9810  150.9660 C   0  0  2  0  0  3  0  0  0  0  0  0
  162.7420  207.7010  150.2080 C   0  0  0  0  0  2  0  0  0  0  0  0
  160.3860  212.1940  152.5420 C   0  0  0  0  0  3  0  0  0  0  0  0
  159.7810  211.1240  154.5900 C   0  0  0  0  0  0  0  0  0  0  0  0
  159.3980  211.1730  156.0020 C   0  0  0  0  0  3  0  0  0  0  0  0
  160.8860  211.9820  149.7450 N   0  0  0  0  0  2  0  0  0  0  0  0
  159.7500  213.5000  144.9160 C   0  0  0  0  0  0  0  0  0  0  0  0
  159.2580  212.7050  147.2550 C   0  0  0  0  0  2  0  0  0  0  0  0
  162.8990  212.9490  146.7810 N   0  0  0  0  0  0  0  0  0  0  0  0
  162.9040  212.5070  148.1760 C   0  0  0  0  0  2  0  0  0  0  0  0
  159.2360  214.2570  144.1090 O   0  0  0  0  0  0  0  0  0  0  0  0
  161.4470  212.3330  148.4800 C   0  0  0  0  0  0  0  0  0  0  0  0
  158.8740  212.6150  145.7720 C   0  0  0  0  0  2  0  0  0  0  0  0
  161.6740  213.0090  146.3770 C   0  0  0  0  0  0  0  0  0  0  0  0
  160.7440  212.6110  147.4030 C   0  0  0  0  0  0  0  0  0  0  0  0
  161.2530  213.4030  144.9950 C   0  0  0  0  0  2  0  0  0  0  0  0
  1  9  1  6  0  0  0
  1 14  1  0  0  0  0
  2  3  1  0  0  0  0
  3 19  1  1  0  0  0
  3  7  1  0  0  0  0
  4 15  1  0  0  0  0
  4 11  1  0  0  0  0
  5 14  1  6  0  0  0
  5  2  1  0  0  0  0
  6  1  1  0  0  0  0
  7  4  2  0  0  0  0
  8 21  1  6  0  0  0
  8 13  1  0  0  0  0
 10 19  2  0  0  0  0
 12  8  1  0  0  0  0
 12 16  1  0  0  0  0
 13 18  2  0  0  0  0
 13  2  1  0  0  0  0
 16 17  1  6  0  0  0
 16  5  1  0  0  0  0
 17  6  1  0  0  0  0
 18 10  1  0  0  0  0
 19 20  1  0  0  0  0
 20 15  2  0  0  0  0
 22 31  1  0  0  0  0
 22 28  1  0  0  0  0
 23 30  1  0  0  0  0
 24 25  1  0  0  0  0
 25 27  1  0  0  0  0
 26 22  2  0  0  0  0
 27 21  1  0  0  0  0
 28 23  1  0  0  0  0
 29 24  2  0  0  0  0
 29 30  1  0  0  0  0
 30 27  2  0  0  0  0
 31 29  1  0  0  0  0
M  END
>  <MODEL>
3

>  <REMARK>
 VINA RESULT:      -6.6      3.677      5.698
  Name = 
  2 active torsions:
  status: ('A' for Active; 'I' for Inactive)
    1  A    between atoms: C_9  and  N_23
    2  A    between atoms: C_15  and  N_23
                            x       y       z     vdW  Elec       q    Type
                         _______ _______ _______ _____ _____    ______ ____

>  <TORSDO>
F 2

$$$$
=
 OpenBabel11052422373D

 31 36  0  0  1  0  0  0  0  0999 V2000
  161.1110  205.4790  145.5820 C   0  0  2  0  0  3  0  0  0  0  0  0
  161.1420  204.3080  149.2270 N   0  0  0  0  0  0  0  0  0  0  0  0
  160.5500  202.9630  149.2200 C   0  0  1  0  0  3  0  0  0  0  0  0
  161.2780  200.7600  148.5200 C   0  0  0  0  0  0  0  0  0  0  0  0
  161.6340  204.9090  147.9780 C   0  0  1  0  0  3  0  0  0  0  0  0
  162.3840  206.2010  145.7390 N   0  0  0  0  0  2  0  0  0  0  0  0
  161.2720  202.0490  148.3290 N   0  0  0  0  0  0  0  0  0  0  0  0
  161.4660  206.5620  150.3490 C   0  0  2  0  0  3  0  0  0  0  0  0
  160.0810  206.3490  144.8860 C   0  0  0  0  0  1  0  0  0  0  0  0
  160.4710  203.1370  151.6630 N   0  0  0  0  0  0  0  0  0  0  0  0
  161.9560  199.8760  147.5360 C   0  0  0  0  0  1  0  0  0  0  0  0
  161.3000  207.0560  149.0420 O   0  0  0  0  0  0  0  0  0  0  0  0
  161.0340  205.1190  150.4150 C   0  0  0  0  0  0  0  0  0  0  0  0
  160.5470  204.9400  146.9060 C   0  0  0  0  0  2  0  0  0  0  0  0
  160.7100  200.1880  149.7140 N   0  0  0  0  0  0  0  0  0  0  0  0
  162.1780  206.3390  148.2090 C   0  0  2  0  0  3  0  0  0  0  0  0
  162.3320  207.1080  146.8890 C   0  0  0  0  0  2  0  0  0  0  0  0
  160.7260  204.5450  151.5830 C   0  0  0  0  0  3  0  0  0  0  0  0
  160.4440  202.3840  150.6060 C   0  0  0  0  0  0  0  0  0  0  0  0
  160.3310  200.9280  150.7130 C   0  0  0  0  0  3  0  0  0  0  0  0
  160.6880  207.3770  151.2720 N   0  0  0  0  0  2  0  0  0  0  0  0
  161.5820  209.3480  155.9870 C   0  0  0  0  0  0  0  0  0  0  0  0
  160.6360  207.7200  154.3140 C   0  0  0  0  0  2  0  0  0  0  0  0
  162.4640  210.3780  152.5430 N   0  0  0  0  0  0  0  0  0  0  0  0
  162.0600  209.5940  151.3750 C   0  0  0  0  0  3  0  0  0  0  0  0
  162.0400  209.2950  157.1170 O   0  0  0  0  0  0  0  0  0  0  0  0
  161.2590  208.4800  151.9770 C   0  0  0  0  0  0  0  0  0  0  0  0
  160.3960  208.4880  155.6220 C   0  0  0  0  0  2  0  0  0  0  0  0
  161.9810  209.8140  153.5990 C   0  0  2  0  0  3  0  0  0  0  0  0
  161.2060  208.6400  153.2820 C   0  0  0  0  0  0  0  0  0  0  0  0
  162.1580  210.3270  154.9940 C   0  0  0  0  0  2  0  0  0  0  0  0
  1  9  1  1  0  0  0
  1  6  1  0  0  0  0
  1 14  1  0  0  0  0
  2 13  1  0  0  0  0
  3  7  1  6  0  0  0
  3  2  1  0  0  0  0
  3 19  1  0  0  0  0
  4 15  1  0  0  0  0
  5 14  1  6  0  0  0
  5 16  1  0  0  0  0
  5  2  1  0  0  0  0
  6 17  1  0  0  0  0
  7  4  2  0  0  0  0
  8 13  1  0  0  0  0
  8 21  1  1  0  0  0
 11  4  1  0  0  0  0
 12  8  1  0  0  0  0
 13 18  2  0  0  0  0
 15 20  2  0  0  0  0
 16 17  1  6  0  0  0
 16 12  1  0  0  0  0
 18 10  1  0  0  0  0
 19 20  1  0  0  0  0
 19 10  2  0  0  0  0
 21 27  1  0  0  0  0
 22 26  2  0  0  0  0
 23 28  1  0  0  0  0
 24 29  1  0  0  0  0
 25 27  1  0  0  0  0
 25 24  2  0  0  0  0
 27 30  2  0  0  0  0
 28 22  1  0  0  0  0
 29 31  1  6  0  0  0
 30 29  1  0  0  0  0
 30 23  1  0  0  0  0
 31 22  1  0  0  0  0
M  END
>  <MODEL>
4

>  <REMARK>
 VINA RESULT:      -6.3      3.381      9.608
  Name = 
  2 active torsions:
  status: ('A' for Active; 'I' for Inactive)
    1  A    between atoms: C_9  and  N_23
    2  A    between atoms: C_15  and  N_23
                            x       y       z     vdW  Elec       q    Type
                         _______ _______ _______ _____ _____    ______ ____

>  <TORSDO>
F 2

$$$$
=
 OpenBabel11052422373D

 31 36  0  0  1  0  0  0  0  0999 V2000
  161.4250  202.0190  151.0520 C   0  0  2  0  0  3  0  0  0  0  0  0
  161.3890  204.9310  148.5660 N   0  0  0  0  0  0  0  0  0  0  0  0
  161.8240  204.3650  147.2820 C   0  0  1  0  0  3  0  0  0  0  0  0
  160.8260  202.9330  145.5990 C   0  0  0  0  0  0  0  0  0  0  0  0
  160.9250  204.0480  149.6470 C   0  0  1  0  0  3  0  0  0  0  0  0
  160.2480  202.5370  151.7690 N   0  0  0  0  0  2  0  0  0  0  0  0
  160.9720  203.2500  146.8560 N   0  0  0  0  0  0  0  0  0  0  0  0
  161.3630  206.8500  150.2270 C   0  0  2  0  0  3  0  0  0  0  0  0
  162.5220  201.6320  152.0260 C   0  0  0  0  0  1  0  0  0  0  0  0
  162.0080  206.6750  146.4850 N   0  0  0  0  0  0  0  0  0  0  0  0
  160.0170  201.7410  145.2320 C   0  0  0  0  0  1  0  0  0  0  0  0
  161.5390  205.8230  151.1720 O   0  0  0  0  0  0  0  0  0  0  0  0
  161.6310  206.3260  148.8390 C   0  0  0  0  0  0  0  0  0  0  0  0
  161.9700  202.9890  149.9930 C   0  0  0  0  0  2  0  0  0  0  0  0
  161.3670  203.7710  144.5600 N   0  0  0  0  0  0  0  0  0  0  0  0
  160.5560  204.8480  150.9190 C   0  0  2  0  0  3  0  0  0  0  0  0
  160.4440  203.9390  152.1500 C   0  0  0  0  0  2  0  0  0  0  0  0
  161.9130  207.1590  147.8310 C   0  0  0  0  0  3  0  0  0  0  0  0
  161.9130  205.4110  146.2030 C   0  0  0  0  0  0  0  0  0  0  0  0
  161.8630  204.9450  144.8160 C   0  0  0  0  0  3  0  0  0  0  0  0
  162.2610  207.9520  150.5450 N   0  0  0  0  0  2  0  0  0  0  0  0
  161.1920  212.8150  149.0870 C   0  0  0  0  0  0  0  0  0  0  0  0
  162.0670  210.4690  148.8130 C   0  0  0  0  0  2  0  0  0  0  0  0
  160.7910  210.9110  152.2350 N   0  0  0  0  0  0  0  0  0  0  0  0
  161.1960  209.5090  152.3480 C   0  0  0  0  0  2  0  0  0  0  0  0
  160.6250  213.6380  148.3880 O   0  0  0  0  0  0  0  0  0  0  0  0
  161.7790  209.2170  150.9980 C   0  0  0  0  0  0  0  0  0  0  0  0
  162.2820  211.9550  148.4910 C   0  0  0  0  0  2  0  0  0  0  0  0
  161.0910  211.3280  151.0510 C   0  0  0  0  0  0  0  0  0  0  0  0
  161.7280  210.3050  150.2600 C   0  0  0  0  0  0  0  0  0  0  0  0
  160.8510  212.7190  150.5530 C   0  0  0  0  0  2  0  0  0  0  0  0
  1  6  1  0  0  0  0
  1  9  1  1  0  0  0
  2 13  1  0  0  0  0
  2  5  1  0  0  0  0
  3 19  1  6  0  0  0
  3  2  1  0  0  0  0
  4  7  2  0  0  0  0
  5 14  1  1  0  0  0
  5 16  1  0  0  0  0
  6 17  1  0  0  0  0
  7  3  1  0  0  0  0
  8 21  1  1  0  0  0
  8 12  1  0  0  0  0
 10 18  1  0  0  0  0
 11  4  1  0  0  0  0
 13  8  1  0  0  0  0
 14  1  1  0  0  0  0
 15 20  2  0  0  0  0
 15  4  1  0  0  0  0
 16 12  1  0  0  0  0
 16 17  1  1  0  0  0
 18 13  2  0  0  0  0
 19 10  2  0  0  0  0
 20 19  1  0  0  0  0
 21 27  1  0  0  0  0
 22 31  1  0  0  0  0
 23 30  1  0  0  0  0
 24 25  1  0  0  0  0
 26 22  2  0  0  0  0
 27 25  1  0  0  0  0
 28 23  1  0  0  0  0
 28 22  1  0  0  0  0
 29 24  2  0  0  0  0
 30 27  2  0  0  0  0
 30 29  1  0  0  0  0
 31 29  1  0  0  0  0
M  END
>  <MODEL>
5

>  <REMARK>
 VINA RESULT:      -6.2      3.546      8.681
  Name = 
  2 active torsions:
  status: ('A' for Active; 'I' for Inactive)
    1  A    between atoms: C_9  and  N_23
    2  A    between atoms: C_15  and  N_23
                            x       y       z     vdW  Elec       q    Type
                         _______ _______ _______ _____ _____    ______ ____

>  <TORSDO>
F 2

$$$$
=
 OpenBabel11052422373D

 31 36  0  0  1  0  0  0  0  0999 V2000
  160.4140  208.1840  156.9920 C   0  0  2  0  0  3  0  0  0  0  0  0
  160.2550  210.5340  153.9730 N   0  0  0  0  0  0  0  0  0  0  0  0
  159.3910  211.6500  154.3810 C   0  0  1  0  0  3  0  0  0  0  0  0
  159.6250  213.5690  155.8450 C   0  0  0  0  0  0  0  0  0  0  0  0
  160.8430  209.6420  154.9850 C   0  0  1  0  0  3  0  0  0  0  0  0
  161.8130  207.8230  156.7150 N   0  0  0  0  0  2  0  0  0  0  0  0
  159.8890  212.3180  155.5880 N   0  0  0  0  0  0  0  0  0  0  0  0
  161.0670  208.9190  152.1910 C   0  0  2  0  0  3  0  0  0  0  0  0
  159.5800  206.9460  157.2610 C   0  0  0  0  0  1  0  0  0  0  0  0
  159.3910  212.3270  152.0260 N   0  0  0  0  0  0  0  0  0  0  0  0
  160.0850  214.1680  157.1250 C   0  0  0  0  0  1  0  0  0  0  0  0
  160.9880  207.9790  153.2340 O   0  0  0  0  0  0  0  0  0  0  0  0
  160.3400  210.1820  152.5770 C   0  0  0  0  0  0  0  0  0  0  0  0
  159.7700  209.0310  155.8840 C   0  0  0  0  0  2  0  0  0  0  0  0
  158.9680  214.3990  154.8670 N   0  0  0  0  0  0  0  0  0  0  0  0
  161.6810  208.5160  154.3350 C   0  0  2  0  0  3  0  0  0  0  0  0
  161.9720  207.3810  155.3260 C   0  0  0  0  0  2  0  0  0  0  0  0
  159.9360  211.0560  151.6480 C   0  0  0  0  0  3  0  0  0  0  0  0
  159.1870  212.6440  153.2680 C   0  0  0  0  0  0  0  0  0  0  0  0
  158.7700  213.9950  153.6480 C   0  0  0  0  0  3  0  0  0  0  0  0
  160.4940  208.3420  150.9820 N   0  0  0  0  0  2  0  0  0  0  0  0
  161.5850  204.5670  147.5940 C   0  0  0  0  0  0  0  0  0  0  0  0
  160.5010  205.6000  149.6200 C   0  0  0  0  0  2  0  0  0  0  0  0
  162.6830  208.0790  147.9970 N   0  0  0  0  0  0  0  0  0  0  0  0
  162.1860  208.9250  149.0830 C   0  0  0  0  0  2  0  0  0  0  0  0
  161.2760  203.7540  146.7400 O   0  0  0  0  0  0  0  0  0  0  0  0
  161.2960  207.9960  149.8530 C   0  0  0  0  0  0  0  0  0  0  0  0
  161.1560  204.3460  149.0260 C   0  0  0  0  0  2  0  0  0  0  0  0
  162.1730  206.9010  148.1320 C   0  0  0  0  0  0  0  0  0  0  0  0
  161.3210  206.8070  149.2900 C   0  0  0  0  0  0  0  0  0  0  0  0
  162.4550  205.7430  147.2250 C   0  0  0  0  0  2  0  0  0  0  0  0
  1  9  1  6  0  0  0
  2  3  1  0  0  0  0
  2  5  1  0  0  0  0
  3 19  1  6  0  0  0
  3  7  1  0  0  0  0
  4 11  1  0  0  0  0
  5 14  1  6  0  0  0
  6  1  1  0  0  0  0
  7  4  2  0  0  0  0
  8 21  1  6  0  0  0
  8 13  1  0  0  0  0
  8 12  1  0  0  0  0
 10 19  2  0  0  0  0
 12 16  1  0  0  0  0
 13  2  1  0  0  0  0
 14  1  1  0  0  0  0
 15  4  1  0  0  0  0
 16  5  1  0  0  0  0
 16 17  1  1  0  0  0
 17  6  1  0  0  0  0
 18 10  1  0  0  0  0
 18 13  2  0  0  0  0
 19 20  1  0  0  0  0
 20 15  2  0  0  0  0
 22 28  1  0  0  0  0
 24 29  2  0  0  0  0
 24 25  1  0  0  0  0
 25 27  1  0  0  0  0
 26 22  2  0  0  0  0
 27 21  1  0  0  0  0
 28 23  1  0  0  0  0
 29 30  1  0  0  0  0
 30 23  1  0  0  0  0
 30 27  2  0  0  0  0
 31 22  1  0  0  0  0
 31 29  1  0  0  0  0
M  END
>  <MODEL>
6

>  <REMARK>
 VINA RESULT:      -6.1      1.591      2.074
  Name = 
  2 active torsions:
  status: ('A' for Active; 'I' for Inactive)
    1  A    between atoms: C_9  and  N_23
    2  A    between atoms: C_15  and  N_23
                            x       y       z     vdW  Elec       q    Type
                         _______ _______ _______ _____ _____    ______ ____

>  <TORSDO>
F 2

$$$$
=
 OpenBabel11052422373D

 31 36  0  0  1  0  0  0  0  0999 V2000
  161.8470  210.4420  148.2130 C   0  0  2  0  0  3  0  0  0  0  0  0
  161.5690  207.1020  150.0620 N   0  0  0  0  0  0  0  0  0  0  0  0
  161.1560  206.1180  149.0510 C   0  0  1  0  0  3  0  0  0  0  0  0
  162.2380  204.9880  147.1990 C   0  0  0  0  0  0  0  0  0  0  0  0
  162.1340  208.3960  149.6520 C   0  0  1  0  0  3  0  0  0  0  0  0
  162.9900  210.8730  149.0350 N   0  0  0  0  0  2  0  0  0  0  0  0
  162.0940  206.0620  147.9240 N   0  0  0  0  0  0  0  0  0  0  0  0
  161.4640  207.9890  152.4380 C   0  0  2  0  0  3  0  0  0  0  0  0
  160.8110  211.5460  148.1110 C   0  0  0  0  0  1  0  0  0  0  0  0
  160.7520  204.5800  150.9150 N   0  0  0  0  0  0  0  0  0  0  0  0
  163.1400  205.0170  146.0180 C   0  0  0  0  0  1  0  0  0  0  0  0
  161.4020  209.2400  151.7970 O   0  0  0  0  0  0  0  0  0  0  0  0
  161.2120  206.8850  151.4420 C   0  0  0  0  0  0  0  0  0  0  0  0
  161.1940  209.1420  148.7060 C   0  0  0  0  0  2  0  0  0  0  0  0
  161.6020  203.7520  147.5770 N   0  0  0  0  0  0  0  0  0  0  0  0
  162.4600  209.2890  150.8720 C   0  0  2  0  0  3  0  0  0  0  0  0
  162.6800  210.7520  150.4630 C   0  0  0  0  0  2  0  0  0  0  0  0
  160.8350  205.6670  151.8460 C   0  0  0  0  0  3  0  0  0  0  0  0
  160.9520  204.7490  149.6440 C   0  0  0  0  0  0  0  0  0  0  0  0
  161.0100  203.6100  148.7260 C   0  0  0  0  0  3  0  0  0  0  0  0
  160.4800  207.9510  153.5110 N   0  0  0  0  0  2  0  0  0  0  0  0
  159.6770  212.2410  156.3160 C   0  0  0  0  0  0  0  0  0  0  0  0
  159.6250  210.7950  154.2540 C   0  0  0  0  0  2  0  0  0  0  0  0
  161.2370  208.9560  157.0030 N   0  0  0  0  0  0  0  0  0  0  0  0
  161.3190  207.9100  155.9820 C   0  0  0  0  0  3  0  0  0  0  0  0
  158.9590  213.0850  156.8270 O   0  0  0  0  0  0  0  0  0  0  0  0
  160.7150  208.5670  154.7780 C   0  0  0  0  0  0  0  0  0  0  0  0
  159.8380  212.2090  154.8140 C   0  0  0  0  0  2  0  0  0  0  0  0
  160.6940  210.0010  156.4740 C   0  0  2  0  0  3  0  0  0  0  0  0
  160.3750  209.8010  155.0820 C   0  0  0  0  0  0  0  0  0  0  0  0
  160.4530  211.2910  157.1940 C   0  0  0  0  0  2  0  0  0  0  0  0
  1  9  1  1  0  0  0
  1 14  1  0  0  0  0
  1  6  1  0  0  0  0
  2 13  1  0  0  0  0
  3  7  1  6  0  0  0
  3 19  1  0  0  0  0
  3  2  1  0  0  0  0
  4 15  1  0  0  0  0
  4  7  2  0  0  0  0
  5 14  1  6  0  0  0
  5  2  1  0  0  0  0
  5 16  1  0  0  0  0
  6 17  1  0  0  0  0
  8 21  1  1  0  0  0
 10 18  1  0  0  0  0
 11  4  1  0  0  0  0
 12  8  1  0  0  0  0
 13 18  2  0  0  0  0
 13  8  1  0  0  0  0
 15 20  2  0  0  0  0
 16 17  1  6  0  0  0
 16 12  1  0  0  0  0
 19 10  2  0  0  0  0
 20 19  1  0  0  0  0
 21 27  1  0  0  0  0
 22 26  2  0  0  0  0
 22 31  1  0  0  0  0
 23 28  1  0  0  0  0
 23 30  1  0  0  0  0
 25 24  2  0  0  0  0
 27 30  2  0  0  0  0
 27 25  1  0  0  0  0
 28 22  1  0  0  0  0
 29 24  1  0  0  0  0
 29 31  1  6  0  0  0
 30 29  1  0  0  0  0
M  END
>  <MODEL>
7

>  <REMARK>
 VINA RESULT:      -6.0      2.871      8.410
  Name = 
  2 active torsions:
  status: ('A' for Active; 'I' for Inactive)
    1  A    between atoms: C_9  and  N_23
    2  A    between atoms: C_15  and  N_23
                            x       y       z     vdW  Elec       q    Type
                         _______ _______ _______ _____ _____    ______ ____

>  <TORSDO>
F 2

$$$$
=
 OpenBabel11052422373D

 31 36  0  0  1  0  0  0  0  0999 V2000
  159.7730  208.3100  156.2750 C   0  0  2  0  0  3  0  0  0  0  0  0
  160.4070  210.7290  153.3760 N   0  0  0  0  0  0  0  0  0  0  0  0
  159.3670  211.7620  153.4830 C   0  0  1  0  0  3  0  0  0  0  0  0
  158.9520  213.6480  154.9490 C   0  0  0  0  0  0  0  0  0  0  0  0
  160.7070  209.8560  154.5210 C   0  0  1  0  0  3  0  0  0  0  0  0
  161.2130  208.0670  156.4680 N   0  0  0  0  0  2  0  0  0  0  0  0
  159.3890  212.4300  154.7890 N   0  0  0  0  0  0  0  0  0  0  0  0
  161.8850  209.2360  151.9500 C   0  0  2  0  0  3  0  0  0  0  0  0
  159.0050  207.0020  156.2540 C   0  0  0  0  0  1  0  0  0  0  0  0
  160.0740  212.5060  151.2580 N   0  0  0  0  0  0  0  0  0  0  0  0
  158.9200  214.2430  156.3100 C   0  0  0  0  0  1  0  0  0  0  0  0
  161.5510  208.2620  152.9090 O   0  0  0  0  0  0  0  0  0  0  0  0
  160.9690  210.4270  152.0830 C   0  0  0  0  0  0  0  0  0  0  0  0
  159.4550  209.1360  155.0200 C   0  0  0  0  0  2  0  0  0  0  0  0
  158.5800  214.4530  153.8130 N   0  0  0  0  0  0  0  0  0  0  0  0
  161.8020  208.8190  154.1770 C   0  0  2  0  0  3  0  0  0  0  0  0
  161.8500  207.6800  155.2050 C   0  0  0  0  0  2  0  0  0  0  0  0
  160.8160  211.2930  151.0750 C   0  0  0  0  0  3  0  0  0  0  0  0
  159.4530  212.7690  152.3670 C   0  0  0  0  0  0  0  0  0  0  0  0
  158.8240  214.0710  152.5940 C   0  0  0  0  0  3  0  0  0  0  0  0
  161.7850  208.6530  150.6200 N   0  0  0  0  0  2  0  0  0  0  0  0
  161.6390  204.8550  147.0880 C   0  0  0  0  0  0  0  0  0  0  0  0
  161.9160  207.2170  147.9190 C   0  0  0  0  0  2  0  0  0  0  0  0
  161.0500  205.0170  150.7390 N   0  0  0  0  0  0  0  0  0  0  0  0
  161.1700  206.2700  151.4860 C   0  0  0  0  0  2  0  0  0  0  0  0
  162.1450  204.1500  146.2310 O   0  0  0  0  0  0  0  0  0  0  0  0
  161.4910  207.2710  150.4170 C   0  0  0  0  0  0  0  0  0  0  0  0
  161.3820  206.3150  146.7970 C   0  0  0  0  0  2  0  0  0  0  0  0
  161.2600  205.2670  149.4890 C   0  0  0  0  0  0  0  0  0  0  0  0
  161.5160  206.6650  149.2500 C   0  0  0  0  0  0  0  0  0  0  0  0
  161.2060  204.2440  148.3980 C   0  0  0  0  0  2  0  0  0  0  0  0
  1  9  1  6  0  0  0
  1  6  1  0  0  0  0
  2  3  1  0  0  0  0
  2  5  1  0  0  0  0
  3 19  1  6  0  0  0
  3  7  1  0  0  0  0
  4 11  1  0  0  0  0
  5 14  1  6  0  0  0
  7  4  2  0  0  0  0
  8 21  1  6  0  0  0
  8 13  1  0  0  0  0
  8 12  1  0  0  0  0
 10 19  2  0  0  0  0
 12 16  1  0  0  0  0
 13  2  1  0  0  0  0
 14  1  1  0  0  0  0
 15  4  1  0  0  0  0
 16  5  1  0  0  0  0
 16 17  1  1  0  0  0
 17  6  1  0  0  0  0
 18 10  1  0  0  0  0
 18 13  2  0  0  0  0
 19 20  1  0  0  0  0
 20 15  2  0  0  0  0
 22 31  1  0  0  0  0
 23 30  1  0  0  0  0
 24 25  1  0  0  0  0
 26 22  2  0  0  0  0
 27 21  1  0  0  0  0
 27 25  1  0  0  0  0
 28 22  1  0  0  0  0
 28 23  1  0  0  0  0
 29 24  2  0  0  0  0
 30 29  1  0  0  0  0
 30 27  2  0  0  0  0
 31 29  1  0  0  0  0
M  END
>  <MODEL>
8

>  <REMARK>
 VINA RESULT:      -6.0      1.347      1.441
  Name = 
  2 active torsions:
  status: ('A' for Active; 'I' for Inactive)
    1  A    between atoms: C_9  and  N_23
    2  A    between atoms: C_15  and  N_23
                            x       y       z     vdW  Elec       q    Type
                         _______ _______ _______ _____ _____    ______ ____

>  <TORSDO>
F 2

$$$$
=
 OpenBabel11052422373D

 31 36  0  0  1  0  0  0  0  0999 V2000
  161.1740  207.9660  155.9780 C   0  0  2  0  0  3  0  0  0  0  0  0
  161.1220  207.9610  152.1500 N   0  0  0  0  0  0  0  0  0  0  0  0
  161.7290  206.6850  151.7440 C   0  0  1  0  0  3  0  0  0  0  0  0
  161.0300  204.3640  151.7440 C   0  0  0  0  0  0  0  0  0  0  0  0
  160.6350  208.1470  153.5260 C   0  0  1  0  0  3  0  0  0  0  0  0
  159.8910  208.6860  156.0560 N   0  0  0  0  0  2  0  0  0  0  0  0
  161.0240  205.5340  152.3190 N   0  0  0  0  0  0  0  0  0  0  0  0
  160.7650  210.4450  151.7700 C   0  0  2  0  0  3  0  0  0  0  0  0
  162.2000  208.5950  156.9010 C   0  0  0  0  0  1  0  0  0  0  0  0
  161.7840  207.5960  149.4700 N   0  0  0  0  0  0  0  0  0  0  0  0
  160.3700  203.2140  152.4150 C   0  0  0  0  0  1  0  0  0  0  0  0
  160.9380  210.5200  153.1650 O   0  0  0  0  0  0  0  0  0  0  0  0
  161.2120  209.0960  151.2660 C   0  0  0  0  0  0  0  0  0  0  0  0
  161.7320  207.8630  154.5510 C   0  0  0  0  0  2  0  0  0  0  0  0
  161.5940  204.1910  150.4290 N   0  0  0  0  0  0  0  0  0  0  0  0
  160.0750  209.5720  153.7440 C   0  0  2  0  0  3  0  0  0  0  0  0
  159.9250  209.9000  155.2360 C   0  0  0  0  0  2  0  0  0  0  0  0
  161.5160  208.9100  149.9770 C   0  0  0  0  0  3  0  0  0  0  0  0
  161.8290  206.5570  150.2480 C   0  0  0  0  0  0  0  0  0  0  0  0
  161.9560  205.2050  149.7010 C   0  0  0  0  0  3  0  0  0  0  0  0
  161.5270  211.5120  151.1360 N   0  0  0  0  0  2  0  0  0  0  0  0
  161.4540  213.4870  146.3380 C   0  0  0  0  0  0  0  0  0  0  0  0
  162.2940  212.0350  148.2180 C   0  0  0  0  0  2  0  0  0  0  0  0
  159.4720  214.0740  149.4080 N   0  0  0  0  0  0  0  0  0  0  0  0
  159.7320  213.3420  150.6490 C   0  0  0  0  0  2  0  0  0  0  0  0
  161.3370  213.3920  145.1280 O   0  0  0  0  0  0  0  0  0  0  0  0
  160.9100  212.4870  150.2940 C   0  0  0  0  0  0  0  0  0  0  0  0
  162.6750  212.9130  147.0170 C   0  0  0  0  0  2  0  0  0  0  0  0
  160.3390  213.7040  148.5270 C   0  0  0  0  0  0  0  0  0  0  0  0
  161.2650  212.7320  149.0510 C   0  0  0  0  0  0  0  0  0  0  0  0
  160.4160  214.2410  147.1320 C   0  0  0  0  0  2  0  0  0  0  0  0
  1  6  1  0  0  0  0
  1  9  1  1  0  0  0
  2  5  1  0  0  0  0
  3 19  1  6  0  0  0
  3  2  1  0  0  0  0
  3  7  1  0  0  0  0
  4  7  2  0  0  0  0
  4 11  1  0  0  0  0
  5 16  1  0  0  0  0
  5 14  1  1  0  0  0
  8 21  1  6  0  0  0
  8 12  1  0  0  0  0
 10 18  1  0  0  0  0
 10 19  2  0  0  0  0
 12 16  1  0  0  0  0
 13  8  1  0  0  0  0
 13  2  1  0  0  0  0
 14  1  1  0  0  0  0
 15  4  1  0  0  0  0
 16 17  1  1  0  0  0
 17  6  1  0  0  0  0
 18 13  2  0  0  0  0
 20 19  1  0  0  0  0
 20 15  2  0  0  0  0
 22 28  1  0  0  0  0
 22 31  1  0  0  0  0
 23 30  1  0  0  0  0
 24 25  1  0  0  0  0
 26 22  2  0  0  0  0
 27 25  1  0  0  0  0
 27 21  1  0  0  0  0
 28 23  1  0  0  0  0
 29 30  1  0  0  0  0
 29 24  2  0  0  0  0
 30 27  2  0  0  0  0
 31 29  1  0  0  0  0
M  END
>  <MODEL>
9

>  <REMARK>
 VINA RESULT:      -6.0      3.014      6.448
  Name = 
  2 active torsions:
  status: ('A' for Active; 'I' for Inactive)
    1  A    between atoms: C_9  and  N_23
    2  A    between atoms: C_15  and  N_23
                            x       y       z     vdW  Elec       q    Type
                         _______ _______ _______ _____ _____    ______ ____

>  <TORSDO>
F 2

$$$$
