=
 OpenBabel11062410443D

 32 37  0  0  1  0  0  0  0  0999 V2000
  161.0760  207.5920  149.2970 C   0  0  1  0  0  3  0  0  0  0  0  0
  161.7810  206.2240  153.7830 C   0  0  0  0  0  2  0  0  0  0  0  0
  162.9580  206.0810  152.8270 C   0  0  0  0  0  2  0  0  0  0  0  0
  161.2450  205.9650  147.3580 C   0  0  2  0  0  3  0  0  0  0  0  0
  161.2300  204.5150  146.9770 C   0  0  0  0  0  0  0  0  0  0  0  0
  162.1480  209.8330  149.2050 C   0  0  0  0  0  0  0  0  0  0  0  0
  161.2060  209.0900  151.3160 C   0  0  0  0  0  3  0  0  0  0  0  0
  161.1060  202.2090  147.2520 C   0  0  0  0  0  0  0  0  0  0  0  0
  160.6200  206.9680  153.1140 C   0  0  0  0  0  2  0  0  0  0  0  0
  161.0650  207.7650  150.7680 N   0  0  0  0  0  0  0  0  0  0  0  0
  160.4840  206.6980  151.5980 C   0  0  1  0  0  3  0  0  0  0  0  0
  160.8680  205.0920  149.7290 C   0  0  2  0  0  3  0  0  0  0  0  0
  161.0240  202.2580  145.8620 C   0  0  0  0  0  3  0  0  0  0  0  0
  161.7160  210.0800  150.5880 C   0  0  0  0  0  3  0  0  0  0  0  0
  161.0820  203.8880  145.4280 S   0  0  0  0  0  0  0  0  0  0  0  0
  162.5780  205.2290  151.6110 C   0  0  0  0  0  2  0  0  0  0  0  0
  161.0890  205.3430  151.2180 C   0  0  1  0  0  3  0  0  0  0  0  0
  161.3290  203.6810  149.3470 C   0  0  0  0  0  2  0  0  0  0  0  0
  161.9030  208.6600  148.6220 C   0  0  0  0  0  3  0  0  0  0  0  0
  162.1980  206.6310  146.5840 O   0  0  0  0  0  1  0  0  0  0  0  0
  161.0860  200.9200  148.0000 C   0  0  0  0  0  1  0  0  0  0  0  0
  161.5410  206.1840  148.8620 C   0  0  2  0  0  3  0  0  0  0  0  0
  161.1980  203.4630  147.8730 C   0  0  0  0  0  0  0  0  0  0  0  0
  162.9350  210.8680  148.4810 C   0  0  0  0  0  2  0  0  0  0  0  0
  162.2400  212.2140  148.5750 C   0  0  0  0  0  2  0  0  0  0  0  0
  161.4700  212.4800  147.2980 C   0  0  2  0  0  3  0  0  0  0  0  0
  161.1290  213.8440  147.2400 O   0  0  0  0  0  0  0  0  0  0  0  0
  160.1100  212.9560  147.6260 C   0  0  1  0  0  3  0  0  0  0  0  0
  159.1810  212.7200  146.4490 C   0  0  0  0  0  2  0  0  0  0  0  0
  157.8200  212.5380  146.9210 N   0  0  0  0  0  0  0  0  0  0  0  0
  157.4710  212.9760  148.1770 O   0  0  0  0  0  0  0  0  0  0  0  0
  156.9340  212.1590  146.1300 O   0  0  0  0  0  0  0  0  0  0  0  0
  1 19  1  6  0  0  0
  1 10  1  0  0  0  0
  3  2  1  0  0  0  0
  4 20  1  6  0  0  0
  4 22  1  0  0  0  0
  5  4  1  0  0  0  0
  5 23  2  0  0  0  0
  6 14  1  0  0  0  0
  8 23  1  0  0  0  0
  8 21  1  0  0  0  0
  9  2  1  0  0  0  0
 10  7  1  0  0  0  0
 10 11  1  0  0  0  0
 11  9  1  1  0  0  0
 12 18  1  6  0  0  0
 12 17  1  0  0  0  0
 13  8  2  0  0  0  0
 14  7  2  0  0  0  0
 15 13  1  0  0  0  0
 15  5  1  0  0  0  0
 16  3  1  0  0  0  0
 17 11  1  0  0  0  0
 17 16  1  6  0  0  0
 19  6  2  0  0  0  0
 22  1  1  0  0  0  0
 22 12  1  0  0  0  0
 23 18  1  0  0  0  0
 24 25  1  0  0  0  0
 24  6  1  0  0  0  0
 26 28  1  0  0  0  0
 26 25  1  0  0  0  0
 27 26  1  0  0  0  0
 27 28  1  0  0  0  0
 29 30  1  0  0  0  0
 29 28  1  0  0  0  0
 30 31  2  0  0  0  0
 32 30  2  0  0  0  0
M  END
>  <MODEL>
1

>  <REMARK>
 VINA RESULT:      -7.8      0.000      0.000
  Name = 
  5 active torsions:
  status: ('A' for Active; 'I' for Inactive)
    1  A    between atoms: N_1  and  C_10
    2  A    between atoms: C_2  and  C_19
    3  A    between atoms: C_8  and  C_23
    4  A    between atoms: C_10  and  C_24
    5  A    between atoms: C_19  and  C_23
                            x       y       z     vdW  Elec       q    Type
                         _______ _______ _______ _____ _____    ______ ____

>  <TORSDO>
F 5

$$$$
=
 OpenBabel11062410443D

 32 37  0  0  1  0  0  0  0  0999 V2000
  161.0810  207.5910  149.3300 C   0  0  1  0  0  3  0  0  0  0  0  0
  161.7690  206.1800  153.8060 C   0  0  0  0  0  2  0  0  0  0  0  0
  162.9490  206.0440  152.8520 C   0  0  0  0  0  2  0  0  0  0  0  0
  161.2560  205.9830  147.3760 C   0  0  2  0  0  3  0  0  0  0  0  0
  161.2400  204.5370  146.9810 C   0  0  0  0  0  0  0  0  0  0  0  0
  162.1560  209.8320  149.2630 C   0  0  0  0  0  0  0  0  0  0  0  0
  161.2050  209.0700  151.3640 C   0  0  0  0  0  3  0  0  0  0  0  0
  161.1130  202.2280  147.2340 C   0  0  0  0  0  0  0  0  0  0  0  0
  160.6110  206.9320  153.1390 C   0  0  0  0  0  2  0  0  0  0  0  0
  161.0650  207.7500  150.8020 N   0  0  0  0  0  0  0  0  0  0  0  0
  160.4800  206.6760  151.6200 C   0  0  1  0  0  3  0  0  0  0  0  0
  160.8690  205.0880  149.7370 C   0  0  2  0  0  3  0  0  0  0  0  0
  161.0350  202.2910  145.8440 C   0  0  0  0  0  3  0  0  0  0  0  0
  161.7200  210.0660  150.6470 C   0  0  0  0  0  3  0  0  0  0  0  0
  161.0970  203.9250  145.4260 S   0  0  0  0  0  0  0  0  0  0  0  0
  162.5730  205.2050  151.6270 C   0  0  0  0  0  2  0  0  0  0  0  0
  161.0840  205.3240  151.2290 C   0  0  1  0  0  3  0  0  0  0  0  0
  161.3290  203.6800  149.3430 C   0  0  0  0  0  2  0  0  0  0  0  0
  161.9120  208.6640  148.6680 C   0  0  0  0  0  3  0  0  0  0  0  0
  162.2130  206.6550  146.6120 O   0  0  0  0  0  1  0  0  0  0  0  0
  161.0890  200.9320  147.9690 C   0  0  0  0  0  1  0  0  0  0  0  0
  161.5470  206.1870  148.8830 C   0  0  2  0  0  3  0  0  0  0  0  0
  161.2040  203.4760  147.8670 C   0  0  0  0  0  0  0  0  0  0  0  0
  162.9470  210.8730  148.5520 C   0  0  0  0  0  2  0  0  0  0  0  0
  162.0800  212.0870  148.2710 C   0  0  0  0  0  2  0  0  0  0  0  0
  162.6800  212.8880  147.1340 C   0  0  2  0  0  3  0  0  0  0  0  0
  161.9610  214.0890  146.9860 O   0  0  0  0  0  0  0  0  0  0  0  0
  161.6740  213.0650  146.0650 C   0  0  1  0  0  3  0  0  0  0  0  0
  162.3650  213.3700  144.7500 C   0  0  0  0  0  2  0  0  0  0  0  0
  161.6950  212.6740  143.6660 N   0  0  0  0  0  0  0  0  0  0  0  0
  162.4150  212.2790  142.5630 O   0  0  0  0  0  0  0  0  0  0  0  0
  160.5240  212.2740  143.8150 O   0  0  0  0  0  0  0  0  0  0  0  0
  1 19  1  6  0  0  0
  1 10  1  0  0  0  0
  3  2  1  0  0  0  0
  4 20  1  6  0  0  0
  4 22  1  0  0  0  0
  5  4  1  0  0  0  0
  5 23  2  0  0  0  0
  6 14  1  0  0  0  0
  8 23  1  0  0  0  0
  8 21  1  0  0  0  0
  9  2  1  0  0  0  0
 10  7  1  0  0  0  0
 10 11  1  0  0  0  0
 11  9  1  1  0  0  0
 12 18  1  6  0  0  0
 12 17  1  0  0  0  0
 13  8  2  0  0  0  0
 14  7  2  0  0  0  0
 15 13  1  0  0  0  0
 15  5  1  0  0  0  0
 16  3  1  0  0  0  0
 17 11  1  0  0  0  0
 17 16  1  6  0  0  0
 19  6  2  0  0  0  0
 22  1  1  0  0  0  0
 22 12  1  0  0  0  0
 23 18  1  0  0  0  0
 24  6  1  0  0  0  0
 25 24  1  0  0  0  0
 26 25  1  0  0  0  0
 27 26  1  0  0  0  0
 28 27  1  0  0  0  0
 28 26  1  0  0  0  0
 29 28  1  0  0  0  0
 30 32  2  0  0  0  0
 30 29  1  0  0  0  0
 31 30  2  0  0  0  0
M  END
>  <MODEL>
2

>  <REMARK>
 VINA RESULT:      -7.8      1.586      1.947
  Name = 
  5 active torsions:
  status: ('A' for Active; 'I' for Inactive)
    1  A    between atoms: N_1  and  C_10
    2  A    between atoms: C_2  and  C_19
    3  A    between atoms: C_8  and  C_23
    4  A    between atoms: C_10  and  C_24
    5  A    between atoms: C_19  and  C_23
                            x       y       z     vdW  Elec       q    Type
                         _______ _______ _______ _____ _____    ______ ____

>  <TORSDO>
F 5

$$$$
=
 OpenBabel11062410443D

 32 37  0  0  1  0  0  0  0  0999 V2000
  161.1980  209.3200  153.5440 C   0  0  1  0  0  3  0  0  0  0  0  0
  157.9630  211.5800  156.1730 C   0  0  0  0  0  2  0  0  0  0  0  0
  157.4580  210.8620  154.9290 C   0  0  0  0  0  2  0  0  0  0  0  0
  161.6650  209.9750  151.1380 C   0  0  2  0  0  3  0  0  0  0  0  0
  161.5200  211.0670  150.1210 C   0  0  0  0  0  0  0  0  0  0  0  0
  160.9160  206.9400  154.2070 C   0  0  0  0  0  0  0  0  0  0  0  0
  160.4130  208.6620  155.8430 C   0  0  0  0  0  3  0  0  0  0  0  0
  160.9140  213.1310  149.2370 C   0  0  0  0  0  0  0  0  0  0  0  0
  159.4430  211.2700  156.4210 C   0  0  0  0  0  2  0  0  0  0  0  0
  160.4880  209.6530  154.7990 N   0  0  0  0  0  0  0  0  0  0  0  0
  160.2740  211.0700  155.1330 C   0  0  1  0  0  3  0  0  0  0  0  0
  160.5330  211.6330  152.7170 C   0  0  2  0  0  3  0  0  0  0  0  0
  161.7130  212.6810  148.1870 C   0  0  0  0  0  3  0  0  0  0  0  0
  160.6140  207.3730  155.5780 C   0  0  0  0  0  3  0  0  0  0  0  0
  162.2890  211.1590  148.6330 S   0  0  0  0  0  0  0  0  0  0  0  0
  158.1900  211.3510  153.6760 C   0  0  0  0  0  2  0  0  0  0  0  0
  159.6430  211.8030  153.9450 C   0  0  1  0  0  3  0  0  0  0  0  0
  160.0070  212.4770  151.5510 C   0  0  0  0  0  2  0  0  0  0  0  0
  161.1320  207.8410  153.2470 C   0  0  0  0  0  3  0  0  0  0  0  0
  161.4470  208.7420  150.5180 O   0  0  0  0  0  1  0  0  0  0  0  0
  160.2270  214.4530  149.1960 C   0  0  0  0  0  1  0  0  0  0  0  0
  160.6970  210.1420  152.3340 C   0  0  2  0  0  3  0  0  0  0  0  0
  160.8240  212.2450  150.3200 C   0  0  0  0  0  0  0  0  0  0  0  0
  160.8990  205.4910  153.8690 C   0  0  0  0  0  2  0  0  0  0  0  0
  161.2130  205.2940  152.3970 C   0  0  0  0  0  2  0  0  0  0  0  0
  160.8260  203.8900  151.9780 C   0  0  2  0  0  3  0  0  0  0  0  0
  161.9860  203.1830  151.6100 O   0  0  0  0  0  0  0  0  0  0  0  0
  161.1880  203.6760  150.5610 C   0  0  1  0  0  3  0  0  0  0  0  0
  160.3660  202.5390  149.9840 C   0  0  0  0  0  2  0  0  0  0  0  0
  160.9530  202.0890  148.7340 N   0  0  0  0  0  0  0  0  0  0  0  0
  161.4770  203.0090  147.8580 O   0  0  0  0  0  0  0  0  0  0  0  0
  161.1470  200.8720  148.5420 O   0  0  0  0  0  0  0  0  0  0  0  0
  1 19  1  6  0  0  0
  1 10  1  0  0  0  0
  2  9  1  0  0  0  0
  3  2  1  0  0  0  0
  4 20  1  6  0  0  0
  4 22  1  0  0  0  0
  5 23  2  0  0  0  0
  5  4  1  0  0  0  0
  6 14  1  0  0  0  0
  8 23  1  0  0  0  0
 10 11  1  0  0  0  0
 10  7  1  0  0  0  0
 11  9  1  1  0  0  0
 12 18  1  6  0  0  0
 12 17  1  0  0  0  0
 13 15  1  0  0  0  0
 13  8  2  0  0  0  0
 14  7  2  0  0  0  0
 15  5  1  0  0  0  0
 16  3  1  0  0  0  0
 17 16  1  6  0  0  0
 17 11  1  0  0  0  0
 19  6  2  0  0  0  0
 21  8  1  0  0  0  0
 22 12  1  0  0  0  0
 22  1  1  0  0  0  0
 23 18  1  0  0  0  0
 24  6  1  0  0  0  0
 25 24  1  0  0  0  0
 26 25  1  0  0  0  0
 27 26  1  0  0  0  0
 28 27  1  0  0  0  0
 28 26  1  0  0  0  0
 29 28  1  0  0  0  0
 30 29  1  0  0  0  0
 31 30  2  0  0  0  0
 32 30  2  0  0  0  0
M  END
>  <MODEL>
3

>  <REMARK>
 VINA RESULT:      -7.6      3.765      8.350
  Name = 
  5 active torsions:
  status: ('A' for Active; 'I' for Inactive)
    1  A    between atoms: N_1  and  C_10
    2  A    between atoms: C_2  and  C_19
    3  A    between atoms: C_8  and  C_23
    4  A    between atoms: C_10  and  C_24
    5  A    between atoms: C_19  and  C_23
                            x       y       z     vdW  Elec       q    Type
                         _______ _______ _______ _____ _____    ______ ____

>  <TORSDO>
F 5

$$$$
=
 OpenBabel11062410443D

 32 37  0  0  1  0  0  0  0  0999 V2000
  161.7430  208.3110  152.2450 C   0  0  1  0  0  3  0  0  0  0  0  0
  159.4870  210.2670  155.9300 C   0  0  0  0  0  2  0  0  0  0  0  0
  158.6500  209.9600  154.6950 C   0  0  0  0  0  2  0  0  0  0  0  0
  161.8990  209.4770  149.9970 C   0  0  2  0  0  3  0  0  0  0  0  0
  161.7840  210.7980  149.2970 C   0  0  0  0  0  0  0  0  0  0  0  0
  161.1450  205.9050  152.4170 C   0  0  0  0  0  0  0  0  0  0  0  0
  161.2610  207.2140  154.4590 C   0  0  0  0  0  3  0  0  0  0  0  0
  161.4260  213.0810  149.0340 C   0  0  0  0  0  0  0  0  0  0  0  0
  160.9050  209.7030  155.7840 C   0  0  0  0  0  2  0  0  0  0  0  0
  161.3360  208.4150  153.6640 N   0  0  0  0  0  0  0  0  0  0  0  0
  161.4480  209.7190  154.3370 C   0  0  1  0  0  3  0  0  0  0  0  0
  161.3850  210.8270  152.1030 C   0  0  2  0  0  3  0  0  0  0  0  0
  161.9340  212.8020  147.7660 C   0  0  0  0  0  3  0  0  0  0  0  0
  161.1710  206.0180  153.8820 C   0  0  0  0  0  3  0  0  0  0  0  0
  162.2870  211.1520  147.7360 S   0  0  0  0  0  0  0  0  0  0  0  0
  159.2320  210.6410  153.4530 C   0  0  0  0  0  2  0  0  0  0  0  0
  160.7680  210.8060  153.4990 C   0  0  1  0  0  3  0  0  0  0  0  0
  160.8300  212.0010  151.2880 C   0  0  0  0  0  2  0  0  0  0  0  0
  161.3540  206.9780  151.6540 C   0  0  0  0  0  3  0  0  0  0  0  0
  161.3530  208.4810  149.1840 O   0  0  0  0  0  1  0  0  0  0  0  0
  161.0000  214.4530  149.4290 C   0  0  0  0  0  1  0  0  0  0  0  0
  161.2010  209.4710  151.3790 C   0  0  2  0  0  3  0  0  0  0  0  0
  161.3630  211.9730  149.8910 C   0  0  0  0  0  0  0  0  0  0  0  0
  160.8020  204.6030  151.7830 C   0  0  0  0  0  2  0  0  0  0  0  0
  160.4990  204.8030  150.3100 C   0  0  0  0  0  2  0  0  0  0  0  0
  161.2450  203.7700  149.4910 C   0  0  2  0  0  3  0  0  0  0  0  0
  162.0100  204.4250  148.5080 O   0  0  0  0  0  0  0  0  0  0  0  0
  160.8050  203.8380  148.0820 C   0  0  1  0  0  3  0  0  0  0  0  0
  161.1100  202.5280  147.3810 C   0  0  0  0  0  2  0  0  0  0  0  0
  161.1460  202.7320  145.9440 N   0  0  0  0  0  0  0  0  0  0  0  0
  160.3880  201.9310  145.1230 O   0  0  0  0  0  0  0  0  0  0  0  0
  161.7120  203.7390  145.4740 O   0  0  0  0  0  0  0  0  0  0  0  0
  1 19  1  6  0  0  0
  1 10  1  0  0  0  0
  3  2  1  0  0  0  0
  4 20  1  6  0  0  0
  4 22  1  0  0  0  0
  5 23  2  0  0  0  0
  5  4  1  0  0  0  0
  6 14  1  0  0  0  0
  8 21  1  0  0  0  0
  8 23  1  0  0  0  0
  9  2  1  0  0  0  0
 10 11  1  0  0  0  0
 10  7  1  0  0  0  0
 11  9  1  1  0  0  0
 12 18  1  6  0  0  0
 12 17  1  0  0  0  0
 13  8  2  0  0  0  0
 14  7  2  0  0  0  0
 15 13  1  0  0  0  0
 15  5  1  0  0  0  0
 16  3  1  0  0  0  0
 17 16  1  6  0  0  0
 17 11  1  0  0  0  0
 19  6  2  0  0  0  0
 22 12  1  0  0  0  0
 22  1  1  0  0  0  0
 23 18  1  0  0  0  0
 24  6  1  0  0  0  0
 25 24  1  0  0  0  0
 26 25  1  0  0  0  0
 27 26  1  0  0  0  0
 28 27  1  0  0  0  0
 28 26  1  0  0  0  0
 29 28  1  0  0  0  0
 30 29  1  0  0  0  0
 31 30  2  0  0  0  0
 32 30  2  0  0  0  0
M  END
>  <MODEL>
4

>  <REMARK>
 VINA RESULT:      -6.0      3.151      7.621
  Name = 
  5 active torsions:
  status: ('A' for Active; 'I' for Inactive)
    1  A    between atoms: N_1  and  C_10
    2  A    between atoms: C_2  and  C_19
    3  A    between atoms: C_8  and  C_23
    4  A    between atoms: C_10  and  C_24
    5  A    between atoms: C_19  and  C_23
                            x       y       z     vdW  Elec       q    Type
                         _______ _______ _______ _____ _____    ______ ____

>  <TORSDO>
F 5

$$$$
=
 OpenBabel11062410443D

 32 37  0  0  1  0  0  0  0  0999 V2000
  161.9430  210.1920  151.0600 C   0  0  1  0  0  3  0  0  0  0  0  0
  161.5800  205.9080  149.0570 C   0  0  0  0  0  2  0  0  0  0  0  0
  160.2820  206.5790  149.4850 C   0  0  0  0  0  2  0  0  0  0  0  0
  161.1910  210.6250  153.4440 C   0  0  2  0  0  3  0  0  0  0  0  0
  160.8620  209.9770  154.7560 C   0  0  0  0  0  0  0  0  0  0  0  0
  161.3440  211.7430  149.2110 C   0  0  0  0  0  0  0  0  0  0  0  0
  162.3890  209.6240  148.6480 C   0  0  0  0  0  3  0  0  0  0  0  0
  160.5530  208.2740  156.3080 C   0  0  0  0  0  0  0  0  0  0  0  0
  162.7680  206.8650  149.2120 C   0  0  0  0  0  2  0  0  0  0  0  0
  162.1840  209.1820  150.0050 N   0  0  0  0  0  0  0  0  0  0  0  0
  162.6440  207.8420  150.4040 C   0  0  1  0  0  3  0  0  0  0  0  0
  161.6970  208.2410  152.6770 C   0  0  2  0  0  3  0  0  0  0  0  0
  160.4570  209.3630  157.1720 C   0  0  0  0  0  3  0  0  0  0  0  0
  161.9970  210.8340  148.2580 C   0  0  0  0  0  3  0  0  0  0  0  0
  160.6730  210.7490  156.2330 S   0  0  0  0  0  0  0  0  0  0  0  0
  160.3160  206.9450  150.9730 C   0  0  0  0  0  2  0  0  0  0  0  0
  161.7320  207.2740  151.4970 C   0  0  1  0  0  3  0  0  0  0  0  0
  160.9140  207.6340  153.8450 C   0  0  0  0  0  2  0  0  0  0  0  0
  161.2660  211.4210  150.5030 C   0  0  0  0  0  3  0  0  0  0  0  0
  160.2980  211.6730  153.2150 O   0  0  0  0  0  1  0  0  0  0  0  0
  160.4110  206.8700  156.7880 C   0  0  0  0  0  1  0  0  0  0  0  0
  161.1480  209.6280  152.2600 C   0  0  2  0  0  3  0  0  0  0  0  0
  160.8000  208.6130  154.9700 C   0  0  0  0  0  0  0  0  0  0  0  0
  160.6930  212.9870  148.7190 C   0  0  0  0  0  2  0  0  0  0  0  0
  160.0050  212.7270  147.3920 C   0  0  0  0  0  2  0  0  0  0  0  0
  160.4580  213.7540  146.3740 C   0  0  2  0  0  3  0  0  0  0  0  0
  159.4150  213.9880  145.4590 O   0  0  0  0  0  0  0  0  0  0  0  0
  160.4570  213.1510  145.0240 C   0  0  1  0  0  3  0  0  0  0  0  0
  161.3770  213.9360  144.1070 C   0  0  0  0  0  2  0  0  0  0  0  0
  162.4910  213.1020  143.6920 N   0  0  0  0  0  0  0  0  0  0  0  0
  162.3230  212.2050  142.6630 O   0  0  0  0  0  0  0  0  0  0  0  0
  163.6340  213.3270  144.1360 O   0  0  0  0  0  0  0  0  0  0  0  0
  1 19  1  6  0  0  0
  1 22  1  0  0  0  0
  2  9  1  0  0  0  0
  2  3  1  0  0  0  0
  3 16  1  0  0  0  0
  4 20  1  6  0  0  0
  4  5  1  0  0  0  0
  5 23  2  0  0  0  0
  5 15  1  0  0  0  0
  6 19  2  0  0  0  0
  7 10  1  0  0  0  0
  8 21  1  0  0  0  0
  8 13  2  0  0  0  0
 10 11  1  0  0  0  0
 10  1  1  0  0  0  0
 11  9  1  6  0  0  0
 11 17  1  0  0  0  0
 12 18  1  1  0  0  0
 14  7  2  0  0  0  0
 14  6  1  0  0  0  0
 15 13  1  0  0  0  0
 17 16  1  6  0  0  0
 17 12  1  0  0  0  0
 18 23  1  0  0  0  0
 22 12  1  0  0  0  0
 22  4  1  0  0  0  0
 23  8  1  0  0  0  0
 24  6  1  0  0  0  0
 25 24  1  0  0  0  0
 26 25  1  0  0  0  0
 27 26  1  0  0  0  0
 28 27  1  0  0  0  0
 28 26  1  0  0  0  0
 29 28  1  0  0  0  0
 30 29  1  0  0  0  0
 30 32  2  0  0  0  0
 31 30  2  0  0  0  0
M  END
>  <MODEL>
5

>  <REMARK>
 VINA RESULT:      -5.8      3.510      6.278
  Name = 
  5 active torsions:
  status: ('A' for Active; 'I' for Inactive)
    1  A    between atoms: N_1  and  C_10
    2  A    between atoms: C_2  and  C_19
    3  A    between atoms: C_8  and  C_23
    4  A    between atoms: C_10  and  C_24
    5  A    between atoms: C_19  and  C_23
                            x       y       z     vdW  Elec       q    Type
                         _______ _______ _______ _____ _____    ______ ____

>  <TORSDO>
F 5

$$$$
=
 OpenBabel11062410443D

 32 37  0  0  1  0  0  0  0  0999 V2000
  160.9360  207.7980  150.0880 C   0  0  1  0  0  3  0  0  0  0  0  0
  161.5720  207.0900  154.7350 C   0  0  0  0  0  2  0  0  0  0  0  0
  162.7640  206.8150  153.8280 C   0  0  0  0  0  2  0  0  0  0  0  0
  161.1380  205.9100  148.4050 C   0  0  2  0  0  3  0  0  0  0  0  0
  161.1300  204.4200  148.2370 C   0  0  0  0  0  0  0  0  0  0  0  0
  162.0070  210.0060  149.6920 C   0  0  0  0  0  0  0  0  0  0  0  0
  161.0330  209.5700  151.8730 C   0  0  0  0  0  3  0  0  0  0  0  0
  161.0040  202.1770  148.8380 C   0  0  0  0  0  0  0  0  0  0  0  0
  160.4210  207.7270  153.9470 C   0  0  0  0  0  2  0  0  0  0  0  0
  160.9020  208.1800  151.5180 N   0  0  0  0  0  0  0  0  0  0  0  0
  160.3080  207.2410  152.4840 C   0  0  1  0  0  3  0  0  0  0  0  0
  160.7240  205.3850  150.8710 C   0  0  2  0  0  3  0  0  0  0  0  0
  160.9440  202.0260  147.4540 C   0  0  0  0  0  3  0  0  0  0  0  0
  161.5540  210.4470  151.0180 C   0  0  0  0  0  3  0  0  0  0  0  0
  161.0070  203.5760  146.7910 S   0  0  0  0  0  0  0  0  0  0  0  0
  162.4040  205.7970  152.7410 C   0  0  0  0  0  2  0  0  0  0  0  0
  160.9210  205.8470  152.3120 C   0  0  1  0  0  3  0  0  0  0  0  0
  161.1920  203.9350  150.7030 C   0  0  0  0  0  2  0  0  0  0  0  0
  161.7730  208.7600  149.2790 C   0  0  0  0  0  3  0  0  0  0  0  0
  162.1030  206.4600  147.5590 O   0  0  0  0  0  1  0  0  0  0  0  0
  160.9740  201.0090  149.7630 C   0  0  0  0  0  1  0  0  0  0  0  0
  161.4100  206.3430  149.8670 C   0  0  2  0  0  3  0  0  0  0  0  0
  161.0850  203.5070  149.2740 C   0  0  0  0  0  0  0  0  0  0  0  0
  162.8050  210.9280  148.8390 C   0  0  0  0  0  2  0  0  0  0  0  0
  162.0760  212.2490  148.6740 C   0  0  0  0  0  2  0  0  0  0  0  0
  162.0900  212.6600  147.2160 C   0  0  2  0  0  3  0  0  0  0  0  0
  162.4220  214.0240  147.1240 O   0  0  0  0  0  0  0  0  0  0  0  0
  161.0630  213.6960  146.9800 C   0  0  1  0  0  3  0  0  0  0  0  0
  160.6940  213.7330  145.5090 C   0  0  0  0  0  2  0  0  0  0  0  0
  159.3520  214.2620  145.3480 N   0  0  0  0  0  0  0  0  0  0  0  0
  158.8420  214.4530  144.0860 O   0  0  0  0  0  0  0  0  0  0  0  0
  158.6030  214.3660  146.3390 O   0  0  0  0  0  0  0  0  0  0  0  0
  1 19  1  6  0  0  0
  1 10  1  0  0  0  0
  3  2  1  0  0  0  0
  4 20  1  6  0  0  0
  4 22  1  0  0  0  0
  5  4  1  0  0  0  0
  5 23  2  0  0  0  0
  6 14  1  0  0  0  0
  8 23  1  0  0  0  0
  8 21  1  0  0  0  0
  9  2  1  0  0  0  0
 10  7  1  0  0  0  0
 10 11  1  0  0  0  0
 11  9  1  1  0  0  0
 12 18  1  1  0  0  0
 12 17  1  0  0  0  0
 13  8  2  0  0  0  0
 14  7  2  0  0  0  0
 15 13  1  0  0  0  0
 15  5  1  0  0  0  0
 16  3  1  0  0  0  0
 17 11  1  0  0  0  0
 17 16  1  6  0  0  0
 19  6  2  0  0  0  0
 22  1  1  0  0  0  0
 22 12  1  0  0  0  0
 23 18  1  0  0  0  0
 24  6  1  0  0  0  0
 25 24  1  0  0  0  0
 26 25  1  0  0  0  0
 27 26  1  0  0  0  0
 28 27  1  0  0  0  0
 28 26  1  0  0  0  0
 29 28  1  0  0  0  0
 30 29  1  0  0  0  0
 30 32  2  0  0  0  0
 31 30  2  0  0  0  0
M  END
>  <MODEL>
6

>  <REMARK>
 VINA RESULT:      -5.4      1.356      1.550
  Name = 
  5 active torsions:
  status: ('A' for Active; 'I' for Inactive)
    1  A    between atoms: N_1  and  C_10
    2  A    between atoms: C_2  and  C_19
    3  A    between atoms: C_8  and  C_23
    4  A    between atoms: C_10  and  C_24
    5  A    between atoms: C_19  and  C_23
                            x       y       z     vdW  Elec       q    Type
                         _______ _______ _______ _____ _____    ______ ____

>  <TORSDO>
F 5

$$$$
=
 OpenBabel11062410443D

 32 37  0  0  1  0  0  0  0  0999 V2000
  161.9400  205.0890  147.6360 C   0  0  1  0  0  3  0  0  0  0  0  0
  160.2320  200.9410  149.1750 C   0  0  0  0  0  2  0  0  0  0  0  0
  159.2340  202.0810  149.0180 C   0  0  0  0  0  2  0  0  0  0  0  0
  161.8270  207.1930  149.0500 C   0  0  2  0  0  3  0  0  0  0  0  0
  161.6520  207.7180  150.4430 C   0  0  0  0  0  0  0  0  0  0  0  0
  161.3130  205.1110  145.2300 C   0  0  0  0  0  0  0  0  0  0  0  0
  161.7260  202.9690  146.2960 C   0  0  0  0  0  3  0  0  0  0  0  0
  161.3170  207.6730  152.7450 C   0  0  0  0  0  0  0  0  0  0  0  0
  161.6050  201.3370  148.6190 C   0  0  0  0  0  2  0  0  0  0  0  0
  161.7240  203.6260  147.5790 N   0  0  0  0  0  0  0  0  0  0  0  0
  161.9540  202.8320  148.7970 C   0  0  1  0  0  3  0  0  0  0  0  0
  161.6250  204.8980  150.1540 C   0  0  2  0  0  3  0  0  0  0  0  0
  161.6480  209.0200  152.6080 C   0  0  0  0  0  3  0  0  0  0  0  0
  161.5330  203.6590  145.1750 C   0  0  0  0  0  3  0  0  0  0  0  0
  161.9550  209.2820  150.9690 S   0  0  0  0  0  0  0  0  0  0  0  0
  159.6630  203.3050  149.8330 C   0  0  0  0  0  2  0  0  0  0  0  0
  161.1950  203.4440  149.9790 C   0  0  1  0  0  3  0  0  0  0  0  0
  160.9960  205.4950  151.4180 C   0  0  0  0  0  2  0  0  0  0  0  0
  161.4450  205.7700  146.3820 C   0  0  0  0  0  3  0  0  0  0  0  0
  161.1560  208.0320  148.1580 O   0  0  0  0  0  1  0  0  0  0  0  0
  160.9780  207.0720  154.0650 C   0  0  0  0  0  1  0  0  0  0  0  0
  161.3160  205.7400  148.8920 C   0  0  2  0  0  3  0  0  0  0  0  0
  161.3410  206.9440  151.5460 C   0  0  0  0  0  0  0  0  0  0  0  0
  160.8600  205.8360  144.0130 C   0  0  0  0  0  2  0  0  0  0  0  0
  162.0440  206.1360  143.1120 C   0  0  0  0  0  2  0  0  0  0  0  0
  161.5820  206.2030  141.6700 C   0  0  2  0  0  3  0  0  0  0  0  0
  162.6600  205.8800  140.8250 O   0  0  0  0  0  0  0  0  0  0  0  0
  162.3450  207.2450  140.9510 C   0  0  1  0  0  3  0  0  0  0  0  0
  161.5750  207.6940  139.7230 C   0  0  0  0  0  2  0  0  0  0  0  0
  161.7760  209.1160  139.5060 N   0  0  0  0  0  0  0  0  0  0  0  0
  161.9770  209.5880  138.2300 O   0  0  0  0  0  0  0  0  0  0  0  0
  161.5820  209.9190  140.4390 O   0  0  0  0  0  0  0  0  0  0  0  0
  1 19  1  6  0  0  0
  1 22  1  0  0  0  0
  3  2  1  0  0  0  0
  3 16  1  0  0  0  0
  4 20  1  6  0  0  0
  4  5  1  0  0  0  0
  5 15  1  0  0  0  0
  5 23  2  0  0  0  0
  6 19  2  0  0  0  0
  7 10  1  0  0  0  0
  8 21  1  0  0  0  0
  9  2  1  0  0  0  0
 10  1  1  0  0  0  0
 10 11  1  0  0  0  0
 11  9  1  6  0  0  0
 11 17  1  0  0  0  0
 12 18  1  1  0  0  0
 13  8  2  0  0  0  0
 14  6  1  0  0  0  0
 14  7  2  0  0  0  0
 15 13  1  0  0  0  0
 17 16  1  6  0  0  0
 17 12  1  0  0  0  0
 18 23  1  0  0  0  0
 22  4  1  0  0  0  0
 22 12  1  0  0  0  0
 23  8  1  0  0  0  0
 24  6  1  0  0  0  0
 25 24  1  0  0  0  0
 26 25  1  0  0  0  0
 27 28  1  0  0  0  0
 27 26  1  0  0  0  0
 28 26  1  0  0  0  0
 29 28  1  0  0  0  0
 30 29  1  0  0  0  0
 30 32  2  0  0  0  0
 31 30  2  0  0  0  0
M  END
>  <MODEL>
7

>  <REMARK>
 VINA RESULT:      -5.2      4.088      6.839
  Name = 
  5 active torsions:
  status: ('A' for Active; 'I' for Inactive)
    1  A    between atoms: N_1  and  C_10
    2  A    between atoms: C_2  and  C_19
    3  A    between atoms: C_8  and  C_23
    4  A    between atoms: C_10  and  C_24
    5  A    between atoms: C_19  and  C_23
                            x       y       z     vdW  Elec       q    Type
                         _______ _______ _______ _____ _____    ______ ____

>  <TORSDO>
F 5

$$$$
=
 OpenBabel11062410443D

 32 37  0  0  1  0  0  0  0  0999 V2000
  160.4590  205.4580  151.1340 C   0  0  1  0  0  3  0  0  0  0  0  0
  162.6460  208.1340  147.8860 C   0  0  0  0  0  2  0  0  0  0  0  0
  163.5220  207.5040  148.9610 C   0  0  0  0  0  2  0  0  0  0  0  0
  160.4790  206.0590  153.5990 C   0  0  2  0  0  3  0  0  0  0  0  0
  160.7030  207.1680  154.5820 C   0  0  0  0  0  0  0  0  0  0  0  0
  160.9080  203.1380  150.3630 C   0  0  0  0  0  0  0  0  0  0  0  0
  160.7710  204.9010  148.6990 C   0  0  0  0  0  3  0  0  0  0  0  0
  161.2040  209.3040  155.3550 C   0  0  0  0  0  0  0  0  0  0  0  0
  161.2060  207.6150  147.9790 C   0  0  0  0  0  2  0  0  0  0  0  0
  160.8040  205.8790  149.7570 N   0  0  0  0  0  0  0  0  0  0  0  0
  160.7350  207.3100  149.4200 C   0  0  1  0  0  3  0  0  0  0  0  0
  160.9690  207.8490  151.8440 C   0  0  2  0  0  3  0  0  0  0  0  0
  160.7420  208.7530  156.5490 C   0  0  0  0  0  3  0  0  0  0  0  0
  160.8190  203.5990  148.9700 C   0  0  0  0  0  3  0  0  0  0  0  0
  160.2960  207.1610  156.2100 S   0  0  0  0  0  0  0  0  0  0  0  0
  163.0400  207.8940  150.3620 C   0  0  0  0  0  2  0  0  0  0  0  0
  161.5160  208.1340  150.4480 C   0  0  1  0  0  3  0  0  0  0  0  0
  161.6290  208.7670  152.8780 C   0  0  0  0  0  2  0  0  0  0  0  0
  160.7990  204.0060  151.3690 C   0  0  0  0  0  3  0  0  0  0  0  0
  161.0040  204.8740  154.1190 O   0  0  0  0  0  1  0  0  0  0  0  0
  161.6900  210.7100  155.2690 C   0  0  0  0  0  1  0  0  0  0  0  0
  161.1080  206.3520  152.2150 C   0  0  2  0  0  3  0  0  0  0  0  0
  161.1620  208.4310  154.2580 C   0  0  0  0  0  0  0  0  0  0  0  0
  161.2050  201.7080  150.6500 C   0  0  0  0  0  2  0  0  0  0  0  0
  161.9560  201.0870  149.4870 C   0  0  0  0  0  2  0  0  0  0  0  0
  160.9850  200.7560  148.3720 C   0  0  2  0  0  3  0  0  0  0  0  0
  161.5810  199.8230  147.5030 O   0  0  0  0  0  0  0  0  0  0  0  0
  161.5620  201.1620  147.0730 C   0  0  1  0  0  3  0  0  0  0  0  0
  160.4560  201.3410  146.0500 C   0  0  0  0  0  2  0  0  0  0  0  0
  160.6690  202.5670  145.3010 N   0  0  0  0  0  0  0  0  0  0  0  0
  159.7020  203.0090  144.4300 O   0  0  0  0  0  0  0  0  0  0  0  0
  161.6310  203.3080  145.5830 O   0  0  0  0  0  0  0  0  0  0  0  0
  1 19  1  1  0  0  0
  1 22  1  0  0  0  0
  2  9  1  0  0  0  0
  2  3  1  0  0  0  0
  3 16  1  0  0  0  0
  4 20  1  1  0  0  0
  4  5  1  0  0  0  0
  5 15  1  0  0  0  0
  6 24  1  0  0  0  0
  6 19  2  0  0  0  0
  7 14  2  0  0  0  0
  7 10  1  0  0  0  0
  8 13  2  0  0  0  0
 10  1  1  0  0  0  0
 11  9  1  6  0  0  0
 11 10  1  0  0  0  0
 11 17  1  0  0  0  0
 12 22  1  0  0  0  0
 12 18  1  1  0  0  0
 14  6  1  0  0  0  0
 15 13  1  0  0  0  0
 17 16  1  1  0  0  0
 17 12  1  0  0  0  0
 18 23  1  0  0  0  0
 21  8  1  0  0  0  0
 22  4  1  0  0  0  0
 23  5  2  0  0  0  0
 23  8  1  0  0  0  0
 25 24  1  0  0  0  0
 26 25  1  0  0  0  0
 27 26  1  0  0  0  0
 28 27  1  0  0  0  0
 28 26  1  0  0  0  0
 29 28  1  0  0  0  0
 30 32  2  0  0  0  0
 30 29  1  0  0  0  0
 31 30  2  0  0  0  0
M  END
>  <MODEL>
8

>  <REMARK>
 VINA RESULT:      -5.1      4.588      8.411
  Name = 
  5 active torsions:
  status: ('A' for Active; 'I' for Inactive)
    1  A    between atoms: N_1  and  C_10
    2  A    between atoms: C_2  and  C_19
    3  A    between atoms: C_8  and  C_23
    4  A    between atoms: C_10  and  C_24
    5  A    between atoms: C_19  and  C_23
                            x       y       z     vdW  Elec       q    Type
                         _______ _______ _______ _____ _____    ______ ____

>  <TORSDO>
F 5

$$$$
=
 OpenBabel11062410443D

 32 37  0  0  1  0  0  0  0  0999 V2000
  162.0410  210.1060  150.9160 C   0  0  1  0  0  3  0  0  0  0  0  0
  161.5540  205.9560  148.6720 C   0  0  0  0  0  2  0  0  0  0  0  0
  160.2740  206.6530  149.1150 C   0  0  0  0  0  2  0  0  0  0  0  0
  161.2620  210.4360  153.3070 C   0  0  2  0  0  3  0  0  0  0  0  0
  160.8840  209.7310  154.5750 C   0  0  0  0  0  0  0  0  0  0  0  0
  161.5370  211.7780  149.1470 C   0  0  0  0  0  0  0  0  0  0  0  0
  162.5110  209.6550  148.4840 C   0  0  0  0  0  3  0  0  0  0  0  0
  160.4800  207.9570  156.0250 C   0  0  0  0  0  0  0  0  0  0  0  0
  162.7740  206.8560  148.9000 C   0  0  0  0  0  2  0  0  0  0  0  0
  162.2640  209.1470  149.8100 N   0  0  0  0  0  0  0  0  0  0  0  0
  162.6650  207.7700  150.1420 C   0  0  1  0  0  3  0  0  0  0  0  0
  161.6910  208.0800  152.4170 C   0  0  2  0  0  3  0  0  0  0  0  0
  160.4100  209.0010  156.9470 C   0  0  0  0  0  3  0  0  0  0  0  0
  162.1730  210.8990  148.1550 C   0  0  0  0  0  3  0  0  0  0  0  0
  160.6950  210.4270  156.0900 S   0  0  0  0  0  0  0  0  0  0  0  0
  160.2940  206.9350  150.6200 C   0  0  0  0  0  2  0  0  0  0  0  0
  161.7110  207.1790  151.1860 C   0  0  1  0  0  3  0  0  0  0  0  0
  160.8630  207.4410  153.5370 C   0  0  0  0  0  2  0  0  0  0  0  0
  161.4230  211.3900  150.4170 C   0  0  0  0  0  3  0  0  0  0  0  0
  160.4130  211.5300  153.1230 O   0  0  0  0  0  1  0  0  0  0  0  0
  160.2760  206.5360  156.4240 C   0  0  0  0  0  1  0  0  0  0  0  0
  161.2040  209.5080  152.0690 C   0  0  2  0  0  3  0  0  0  0  0  0
  160.7650  208.3600  154.7120 C   0  0  0  0  0  0  0  0  0  0  0  0
  160.9430  213.0720  148.7140 C   0  0  0  0  0  2  0  0  0  0  0  0
  160.9100  213.1510  147.1990 C   0  0  0  0  0  2  0  0  0  0  0  0
  159.7160  212.3790  146.6750 C   0  0  2  0  0  3  0  0  0  0  0  0
  159.8590  212.1960  145.2870 O   0  0  0  0  0  0  0  0  0  0  0  0
  158.9750  213.2090  145.7010 C   0  0  1  0  0  3  0  0  0  0  0  0
  157.5490  212.7080  145.5750 C   0  0  0  0  0  2  0  0  0  0  0  0
  156.6360  213.6560  146.1880 N   0  0  0  0  0  0  0  0  0  0  0  0
  155.6500  214.2400  145.4290 O   0  0  0  0  0  0  0  0  0  0  0  0
  156.6270  213.7980  147.4270 O   0  0  0  0  0  0  0  0  0  0  0  0
  1 19  1  6  0  0  0
  1 22  1  0  0  0  0
  2  9  1  0  0  0  0
  2  3  1  0  0  0  0
  3 16  1  0  0  0  0
  4 20  1  6  0  0  0
  4  5  1  0  0  0  0
  5 23  2  0  0  0  0
  5 15  1  0  0  0  0
  6 19  2  0  0  0  0
  7 10  1  0  0  0  0
  8 21  1  0  0  0  0
  8 13  2  0  0  0  0
 10 11  1  0  0  0  0
 10  1  1  0  0  0  0
 11  9  1  6  0  0  0
 11 17  1  0  0  0  0
 12 18  1  1  0  0  0
 14  7  2  0  0  0  0
 14  6  1  0  0  0  0
 15 13  1  0  0  0  0
 17 16  1  6  0  0  0
 17 12  1  0  0  0  0
 18 23  1  0  0  0  0
 22 12  1  0  0  0  0
 22  4  1  0  0  0  0
 23  8  1  0  0  0  0
 24  6  1  0  0  0  0
 25 24  1  0  0  0  0
 26 25  1  0  0  0  0
 27 28  1  0  0  0  0
 27 26  1  0  0  0  0
 28 26  1  0  0  0  0
 29 28  1  0  0  0  0
 29 30  1  0  0  0  0
 30 32  2  0  0  0  0
 31 30  2  0  0  0  0
M  END
>  <MODEL>
9

>  <REMARK>
 VINA RESULT:      -5.1      3.205      5.812
  Name = 
  5 active torsions:
  status: ('A' for Active; 'I' for Inactive)
    1  A    between atoms: N_1  and  C_10
    2  A    between atoms: C_2  and  C_19
    3  A    between atoms: C_8  and  C_23
    4  A    between atoms: C_10  and  C_24
    5  A    between atoms: C_19  and  C_23
                            x       y       z     vdW  Elec       q    Type
                         _______ _______ _______ _____ _____    ______ ____

>  <TORSDO>
F 5

$$$$
