=
 OpenBabel11062408333D

 32 34  0  0  1  0  0  0  0  0999 V2000
  161.2270  205.1970  149.8520 C   0  0  2  0  0  3  0  0  0  0  0  0
  160.7670  203.7920  149.4590 C   0  0  2  0  0  3  0  0  0  0  0  0
  161.1490  202.7560  150.5580 C   0  0  0  0  0  2  0  0  0  0  0  0
  161.2520  200.0970  146.8260 C   0  0  0  0  0  0  0  0  0  0  0  0
  161.2210  203.3880  148.0320 C   0  0  0  0  0  2  0  0  0  0  0  0
  161.3750  199.8300  148.1860 O   0  0  0  0  0  0  0  0  0  0  0  0
  161.4760  201.0940  148.8020 C   0  0  2  0  0  3  0  0  0  0  0  0
  160.8450  201.2970  150.1590 C   0  0  0  0  0  2  0  0  0  0  0  0
  160.9940  201.3360  146.5480 N   0  0  0  0  0  0  0  0  0  0  0  0
  161.4490  199.0650  145.7740 C   0  0  0  0  0  1  0  0  0  0  0  0
  160.7490  201.9690  147.8300 C   0  0  2  0  0  3  0  0  0  0  0  0
  160.6840  205.5540  151.2330 C   0  0  0  0  0  2  0  0  0  0  0  0
  161.7950  205.7980  152.2470 C   0  0  1  0  0  3  0  0  0  0  0  0
  163.0930  205.9500  151.4700 C   0  0  0  0  0  1  0  0  0  0  0  0
  161.4970  207.0510  153.0900 C   0  0  2  0  0  3  0  0  0  0  0  0
  160.5850  206.7620  154.2770 C   0  0  0  0  0  1  0  0  0  0  0  0
  160.9360  208.2180  152.2660 C   0  0  0  0  0  2  0  0  0  0  0  0
  161.4430  209.5200  152.7030 N   0  0  0  0  0  0  0  0  0  0  0  0
  160.3200  210.4460  152.6170 C   0  0  1  0  0  3  0  0  0  0  0  0
  159.5380  210.4360  153.9160 C   0  0  0  0  0  2  0  0  0  0  0  0
  160.5050  211.5620  153.6300 C   0  0  2  0  0  3  0  0  0  0  0  0
  159.7950  212.6830  153.2050 O   0  0  0  0  0  1  0  0  0  0  0  0
  162.3530  209.9350  151.7850 O   0  0  0  0  0  0  0  0  0  0  0  0
  161.8750  209.4560  150.5600 C   0  0  0  0  0  2  0  0  0  0  0  0
  161.6140  210.0550  148.2790 F   0  0  0  0  0  0  0  0  0  0  0  0
  162.2480  210.4210  149.4520 C   0  0  0  0  0  2  0  0  0  0  0  0
  160.8180  206.2320  148.8070 C   0  0  0  0  0  2  0  0  0  0  0  0
  162.0470  206.7680  148.0940 C   0  0  0  0  0  2  0  0  0  0  0  0
  161.9190  206.5890  146.5930 C   0  0  1  0  0  3  0  0  0  0  0  0
  162.7010  205.3640  146.1520 C   0  0  0  0  0  1  0  0  0  0  0  0
  160.3260  206.0150  144.9110 O   0  0  0  0  0  1  0  0  0  0  0  0
  160.4530  206.4150  146.2410 C   0  0  0  0  0  2  0  0  0  0  0  0
  1 27  1  6  0  0  0
  1 12  1  0  0  0  0
  2  1  1  1  0  0  0
  2  3  1  0  0  0  0
  4  6  1  0  0  0  0
  5  2  1  0  0  0  0
  6  7  1  0  0  0  0
  7  8  1  1  0  0  0
  8  3  1  0  0  0  0
  9  4  2  0  0  0  0
  9 11  1  0  0  0  0
 10  4  1  0  0  0  0
 11  5  1  6  0  0  0
 11  7  1  0  0  0  0
 12 13  1  0  0  0  0
 13 14  1  6  0  0  0
 13 15  1  0  0  0  0
 15 16  1  1  0  0  0
 17 18  1  0  0  0  0
 17 15  1  0  0  0  0
 19 18  1  1  0  0  0
 19 21  1  0  0  0  0
 19 20  1  0  0  0  0
 21 22  1  6  0  0  0
 21 20  1  0  0  0  0
 23 18  1  0  0  0  0
 24 23  1  0  0  0  0
 25 26  1  0  0  0  0
 26 24  1  0  0  0  0
 28 27  1  0  0  0  0
 29 30  1  1  0  0  0
 29 28  1  0  0  0  0
 31 32  1  0  0  0  0
 32 29  1  0  0  0  0
M  END
>  <MODEL>
1

>  <REMARK>
 VINA RESULT:      -7.4      0.000      0.000
  Name = 
  14 active torsions:
  status: ('A' for Active; 'I' for Inactive)
    1  A    between atoms: C_1  and  C_4
    2  A    between atoms: C_1  and  C_5
    3  A    between atoms: C_2  and  C_5
    4  A    between atoms: C_3  and  N_20
    5  A    between atoms: C_4  and  C_24
    6  A    between atoms: C_5  and  C_14
    7  A    between atoms: C_13  and  C_29
    8  A    between atoms: C_13  and  C_30
    9  A    between atoms: C_14  and  C_30
   10  A    between atoms: O_15  and  N_20
   11  A    between atoms: O_15  and  C_26
   12  A    between atoms: C_16  and  N_20
   13  A    between atoms: C_16  and  C_24
   14  A    between atoms: C_19  and  C_26
                            x       y       z     vdW  Elec       q    Type
                         _______ _______ _______ _____ _____    ______ ____

>  <TORSDO>
F 14

$$$$
=
 OpenBabel11062408333D

 32 34  0  0  1  0  0  0  0  0999 V2000
  161.0880  205.0570  149.7800 C   0  0  2  0  0  3  0  0  0  0  0  0
  160.6750  203.6410  149.3750 C   0  0  2  0  0  3  0  0  0  0  0  0
  161.1050  202.6070  150.4590 C   0  0  0  0  0  2  0  0  0  0  0  0
  161.2680  199.9940  146.6960 C   0  0  0  0  0  0  0  0  0  0  0  0
  161.1310  203.2680  147.9390 C   0  0  0  0  0  2  0  0  0  0  0  0
  161.4120  199.7170  148.0520 O   0  0  0  0  0  0  0  0  0  0  0  0
  161.4740  200.9770  148.6820 C   0  0  2  0  0  3  0  0  0  0  0  0
  160.8490  201.1420  150.0460 C   0  0  0  0  0  2  0  0  0  0  0  0
  160.9630  201.2260  146.4350 N   0  0  0  0  0  0  0  0  0  0  0  0
  161.4920  198.9820  145.6320 C   0  0  0  0  0  1  0  0  0  0  0  0
  160.7070  201.8360  147.7260 C   0  0  2  0  0  3  0  0  0  0  0  0
  160.4540  205.4210  151.1190 C   0  0  0  0  0  2  0  0  0  0  0  0
  161.4050  206.2000  152.0180 C   0  0  1  0  0  3  0  0  0  0  0  0
  162.8190  205.9200  151.5340 C   0  0  0  0  0  1  0  0  0  0  0  0
  161.0850  207.7050  151.9750 C   0  0  2  0  0  3  0  0  0  0  0  0
  162.1980  208.5290  151.3410 C   0  0  0  0  0  1  0  0  0  0  0  0
  160.7140  208.2850  153.3470 C   0  0  0  0  0  2  0  0  0  0  0  0
  160.8410  209.7420  153.4030 N   0  0  0  0  0  0  0  0  0  0  0  0
  160.7020  210.1120  154.8060 C   0  0  1  0  0  3  0  0  0  0  0  0
  161.5000  209.1620  155.6770 C   0  0  0  0  0  2  0  0  0  0  0  0
  162.0540  210.5320  155.3580 C   0  0  2  0  0  3  0  0  0  0  0  0
  161.8570  211.3740  156.4490 O   0  0  0  0  0  1  0  0  0  0  0  0
  159.7700  210.2720  152.7590 O   0  0  0  0  0  0  0  0  0  0  0  0
  160.1650  211.5670  152.4060 C   0  0  0  0  0  2  0  0  0  0  0  0
  158.1230  212.0950  153.4950 F   0  0  0  0  0  0  0  0  0  0  0  0
  158.9770  212.5060  152.4880 C   0  0  0  0  0  2  0  0  0  0  0  0
  160.7310  206.0740  148.6980 C   0  0  0  0  0  2  0  0  0  0  0  0
  161.9960  206.6370  148.0730 C   0  0  0  0  0  2  0  0  0  0  0  0
  161.9430  206.5300  146.5620 C   0  0  1  0  0  3  0  0  0  0  0  0
  162.7880  205.3570  146.0980 C   0  0  0  0  0  1  0  0  0  0  0  0
  160.4570  205.8210  144.8330 O   0  0  0  0  0  1  0  0  0  0  0  0
  160.5020  206.3240  146.1330 C   0  0  0  0  0  2  0  0  0  0  0  0
  1 27  1  6  0  0  0
  1 12  1  0  0  0  0
  2  1  1  1  0  0  0
  2  3  1  0  0  0  0
  4  6  1  0  0  0  0
  5  2  1  0  0  0  0
  6  7  1  0  0  0  0
  7  8  1  1  0  0  0
  8  3  1  0  0  0  0
  9  4  2  0  0  0  0
  9 11  1  0  0  0  0
 10  4  1  0  0  0  0
 11  5  1  6  0  0  0
 11  7  1  0  0  0  0
 12 13  1  0  0  0  0
 13 14  1  6  0  0  0
 15 16  1  1  0  0  0
 15 13  1  0  0  0  0
 15 17  1  0  0  0  0
 17 18  1  0  0  0  0
 19 18  1  6  0  0  0
 19 21  1  0  0  0  0
 19 20  1  0  0  0  0
 21 20  1  0  0  0  0
 21 22  1  1  0  0  0
 23 18  1  0  0  0  0
 24 26  1  0  0  0  0
 24 23  1  0  0  0  0
 26 25  1  0  0  0  0
 28 27  1  0  0  0  0
 29 30  1  1  0  0  0
 29 28  1  0  0  0  0
 31 32  1  0  0  0  0
 32 29  1  0  0  0  0
M  END
>  <MODEL>
2

>  <REMARK>
 VINA RESULT:      -7.2      1.717      2.109
  Name = 
  14 active torsions:
  status: ('A' for Active; 'I' for Inactive)
    1  A    between atoms: C_1  and  C_4
    2  A    between atoms: C_1  and  C_5
    3  A    between atoms: C_2  and  C_5
    4  A    between atoms: C_3  and  N_20
    5  A    between atoms: C_4  and  C_24
    6  A    between atoms: C_5  and  C_14
    7  A    between atoms: C_13  and  C_29
    8  A    between atoms: C_13  and  C_30
    9  A    between atoms: C_14  and  C_30
   10  A    between atoms: O_15  and  N_20
   11  A    between atoms: O_15  and  C_26
   12  A    between atoms: C_16  and  N_20
   13  A    between atoms: C_16  and  C_24
   14  A    between atoms: C_19  and  C_26
                            x       y       z     vdW  Elec       q    Type
                         _______ _______ _______ _____ _____    ______ ____

>  <TORSDO>
F 14

$$$$
=
 OpenBabel11062408333D

 32 34  0  0  1  0  0  0  0  0999 V2000
  160.8620  207.2880  152.4320 C   0  0  2  0  0  3  0  0  0  0  0  0
  161.3870  206.4170  151.2900 C   0  0  2  0  0  3  0  0  0  0  0  0
  161.1460  207.1040  149.9130 C   0  0  0  0  0  2  0  0  0  0  0  0
  160.9750  202.6900  148.6880 C   0  0  0  0  0  0  0  0  0  0  0  0
  160.8680  204.9560  151.3600 C   0  0  0  0  0  2  0  0  0  0  0  0
  160.9590  203.8780  147.9640 O   0  0  0  0  0  0  0  0  0  0  0  0
  160.8150  204.8960  148.9290 C   0  0  2  0  0  3  0  0  0  0  0  0
  161.5190  206.2130  148.7080 C   0  0  0  0  0  2  0  0  0  0  0  0
  161.1330  202.8470  149.9650 N   0  0  0  0  0  0  0  0  0  0  0  0
  160.7780  201.3550  148.0650 C   0  0  0  0  0  1  0  0  0  0  0  0
  161.4190  204.2590  150.1410 C   0  0  2  0  0  3  0  0  0  0  0  0
  160.6480  208.7160  151.9400 C   0  0  0  0  0  2  0  0  0  0  0  0
  161.6500  209.6930  152.5430 C   0  0  1  0  0  3  0  0  0  0  0  0
  162.5480  210.1760  151.4150 C   0  0  0  0  0  1  0  0  0  0  0  0
  160.9240  210.8660  153.2250 C   0  0  2  0  0  3  0  0  0  0  0  0
  161.3540  211.0680  154.6720 C   0  0  0  0  0  1  0  0  0  0  0  0
  159.3950  210.7660  153.1360 C   0  0  0  0  0  2  0  0  0  0  0  0
  158.7240  212.0400  153.4010 N   0  0  0  0  0  0  0  0  0  0  0  0
  157.5000  211.7170  154.1240 C   0  0  1  0  0  3  0  0  0  0  0  0
  157.8350  211.0000  155.4180 C   0  0  0  0  0  2  0  0  0  0  0  0
  157.4770  212.4680  155.4440 C   0  0  2  0  0  3  0  0  0  0  0  0
  156.1550  212.6130  155.8600 O   0  0  0  0  0  1  0  0  0  0  0  0
  158.3370  212.5550  152.2050 O   0  0  0  0  0  0  0  0  0  0  0  0
  159.0650  213.7430  152.0710 C   0  0  0  0  0  2  0  0  0  0  0  0
  160.4950  212.7030  150.4890 F   0  0  0  0  0  0  0  0  0  0  0  0
  159.6900  213.8090  150.6920 C   0  0  0  0  0  2  0  0  0  0  0  0
  161.7960  207.2470  153.6400 C   0  0  0  0  0  2  0  0  0  0  0  0
  161.0850  206.6250  154.8290 C   0  0  0  0  0  2  0  0  0  0  0  0
  160.4700  207.6960  155.7080 C   0  0  1  0  0  3  0  0  0  0  0  0
  159.0170  207.3560  155.9960 C   0  0  0  0  0  1  0  0  0  0  0  0
  162.3250  208.6440  156.8730 O   0  0  0  0  0  1  0  0  0  0  0  0
  161.2460  207.7700  157.0100 C   0  0  0  0  0  2  0  0  0  0  0  0
  1 12  1  6  0  0  0
  1 27  1  0  0  0  0
  2  5  1  0  0  0  0
  2  1  1  1  0  0  0
  3  2  1  0  0  0  0
  4  9  2  0  0  0  0
  6  4  1  0  0  0  0
  6  7  1  0  0  0  0
  7  8  1  6  0  0  0
  7 11  1  0  0  0  0
  8  3  1  0  0  0  0
  9 11  1  0  0  0  0
 10  4  1  0  0  0  0
 11  5  1  1  0  0  0
 12 13  1  0  0  0  0
 13 14  1  6  0  0  0
 13 15  1  0  0  0  0
 15 16  1  1  0  0  0
 17 15  1  0  0  0  0
 17 18  1  0  0  0  0
 19 18  1  6  0  0  0
 19 20  1  0  0  0  0
 19 21  1  0  0  0  0
 20 21  1  0  0  0  0
 21 22  1  1  0  0  0
 23 18  1  0  0  0  0
 24 23  1  0  0  0  0
 25 26  1  0  0  0  0
 26 24  1  0  0  0  0
 27 28  1  0  0  0  0
 28 29  1  0  0  0  0
 29 30  1  1  0  0  0
 29 32  1  0  0  0  0
 31 32  1  0  0  0  0
M  END
>  <MODEL>
3

>  <REMARK>
 VINA RESULT:      -6.5      2.422      5.424
  Name = 
  14 active torsions:
  status: ('A' for Active; 'I' for Inactive)
    1  A    between atoms: C_1  and  C_4
    2  A    between atoms: C_1  and  C_5
    3  A    between atoms: C_2  and  C_5
    4  A    between atoms: C_3  and  N_20
    5  A    between atoms: C_4  and  C_24
    6  A    between atoms: C_5  and  C_14
    7  A    between atoms: C_13  and  C_29
    8  A    between atoms: C_13  and  C_30
    9  A    between atoms: C_14  and  C_30
   10  A    between atoms: O_15  and  N_20
   11  A    between atoms: O_15  and  C_26
   12  A    between atoms: C_16  and  N_20
   13  A    between atoms: C_16  and  C_24
   14  A    between atoms: C_19  and  C_26
                            x       y       z     vdW  Elec       q    Type
                         _______ _______ _______ _____ _____    ______ ____

>  <TORSDO>
F 14

$$$$
=
 OpenBabel11062408333D

 32 34  0  0  1  0  0  0  0  0999 V2000
  161.3980  208.3310  152.2060 C   0  0  2  0  0  3  0  0  0  0  0  0
  161.6970  209.7260  151.6550 C   0  0  2  0  0  3  0  0  0  0  0  0
  160.6240  210.7520  152.1280 C   0  0  0  0  0  2  0  0  0  0  0  0
  161.8360  212.6000  148.1120 C   0  0  0  0  0  0  0  0  0  0  0  0
  161.9330  209.7290  150.1210 C   0  0  0  0  0  2  0  0  0  0  0  0
  161.0100  213.0310  149.1450 O   0  0  0  0  0  0  0  0  0  0  0  0
  160.8750  211.9170  150.0000 C   0  0  2  0  0  3  0  0  0  0  0  0
  160.7840  212.1480  151.4890 C   0  0  0  0  0  2  0  0  0  0  0  0
  162.4420  211.4780  148.3480 N   0  0  0  0  0  0  0  0  0  0  0  0
  161.9780  213.3310  146.8260 C   0  0  0  0  0  1  0  0  0  0  0  0
  162.1460  211.1720  149.7350 C   0  0  2  0  0  3  0  0  0  0  0  0
  160.8470  207.4410  151.0960 C   0  0  0  0  0  2  0  0  0  0  0  0
  161.7100  206.2070  150.8630 C   0  0  1  0  0  3  0  0  0  0  0  0
  162.7770  206.1870  151.9450 C   0  0  0  0  0  1  0  0  0  0  0  0
  160.8520  204.9290  150.8970 C   0  0  2  0  0  3  0  0  0  0  0  0
  161.4720  203.8210  151.7390 C   0  0  0  0  0  1  0  0  0  0  0  0
  160.5010  204.3970  149.5000 C   0  0  0  0  0  2  0  0  0  0  0  0
  161.6300  204.4510  148.5690 N   0  0  0  0  0  0  0  0  0  0  0  0
  161.1050  204.9850  147.3190 C   0  0  1  0  0  3  0  0  0  0  0  0
  161.0120  206.4950  147.3960 C   0  0  0  0  0  2  0  0  0  0  0  0
  162.1600  205.8510  146.6540 C   0  0  2  0  0  3  0  0  0  0  0  0
  161.9090  205.9010  145.2840 O   0  0  0  0  0  1  0  0  0  0  0  0
  162.0090  203.1730  148.3120 O   0  0  0  0  0  0  0  0  0  0  0  0
  160.8210  202.4340  148.3220 C   0  0  0  0  0  2  0  0  0  0  0  0
  160.6600  200.9320  150.1520 F   0  0  0  0  0  0  0  0  0  0  0  0
  161.0910  201.0360  148.8420 C   0  0  0  0  0  2  0  0  0  0  0  0
  160.4440  208.3940  153.3970 C   0  0  0  0  0  2  0  0  0  0  0  0
  160.8900  207.4230  154.4750 C   0  0  0  0  0  2  0  0  0  0  0  0
  161.4420  208.1680  155.6750 C   0  0  1  0  0  3  0  0  0  0  0  0
  161.1340  209.6500  155.5490 C   0  0  0  0  0  1  0  0  0  0  0  0
  159.6460  206.9030  156.6100 O   0  0  0  0  0  1  0  0  0  0  0  0
  160.8010  207.6160  156.9350 C   0  0  0  0  0  2  0  0  0  0  0  0
  1 12  1  6  0  0  0
  1 27  1  0  0  0  0
  2  3  1  0  0  0  0
  2  1  1  6  0  0  0
  4  9  2  0  0  0  0
  4  6  1  0  0  0  0
  5  2  1  0  0  0  0
  6  7  1  0  0  0  0
  7  8  1  1  0  0  0
  8  3  1  0  0  0  0
  9 11  1  0  0  0  0
 10  4  1  0  0  0  0
 11  7  1  0  0  0  0
 11  5  1  6  0  0  0
 13 15  1  0  0  0  0
 13 12  1  0  0  0  0
 13 14  1  1  0  0  0
 15 16  1  1  0  0  0
 17 15  1  0  0  0  0
 18 17  1  0  0  0  0
 19 20  1  0  0  0  0
 19 18  1  1  0  0  0
 21 22  1  6  0  0  0
 21 19  1  0  0  0  0
 21 20  1  0  0  0  0
 23 24  1  0  0  0  0
 23 18  1  0  0  0  0
 24 26  1  0  0  0  0
 26 25  1  0  0  0  0
 27 28  1  0  0  0  0
 28 29  1  0  0  0  0
 29 30  1  6  0  0  0
 29 32  1  0  0  0  0
 31 32  1  0  0  0  0
M  END
>  <MODEL>
4

>  <REMARK>
 VINA RESULT:      -6.4      2.880      8.595
  Name = 
  14 active torsions:
  status: ('A' for Active; 'I' for Inactive)
    1  A    between atoms: C_1  and  C_4
    2  A    between atoms: C_1  and  C_5
    3  A    between atoms: C_2  and  C_5
    4  A    between atoms: C_3  and  N_20
    5  A    between atoms: C_4  and  C_24
    6  A    between atoms: C_5  and  C_14
    7  A    between atoms: C_13  and  C_29
    8  A    between atoms: C_13  and  C_30
    9  A    between atoms: C_14  and  C_30
   10  A    between atoms: O_15  and  N_20
   11  A    between atoms: O_15  and  C_26
   12  A    between atoms: C_16  and  N_20
   13  A    between atoms: C_16  and  C_24
   14  A    between atoms: C_19  and  C_26
                            x       y       z     vdW  Elec       q    Type
                         _______ _______ _______ _____ _____    ______ ____

>  <TORSDO>
F 14

$$$$
=
 OpenBabel11062408333D

 32 34  0  0  1  0  0  0  0  0999 V2000
  161.4960  208.2140  152.8990 C   0  0  2  0  0  3  0  0  0  0  0  0
  160.6750  209.3730  152.3320 C   0  0  2  0  0  3  0  0  0  0  0  0
  161.5930  210.3930  151.5940 C   0  0  0  0  0  2  0  0  0  0  0  0
  158.2380  213.1690  153.0280 C   0  0  0  0  0  0  0  0  0  0  0  0
  159.7390  210.0210  153.3860 C   0  0  0  0  0  2  0  0  0  0  0  0
  159.3430  213.3610  152.2040 O   0  0  0  0  0  0  0  0  0  0  0  0
  160.1080  212.1820  152.3310 C   0  0  2  0  0  3  0  0  0  0  0  0
  160.8490  211.6610  151.1230 C   0  0  0  0  0  2  0  0  0  0  0  0
  158.0790  211.9460  153.4280 N   0  0  0  0  0  0  0  0  0  0  0  0
  157.3440  214.2740  153.4590 C   0  0  0  0  0  1  0  0  0  0  0  0
  159.0610  211.1740  152.6890 C   0  0  2  0  0  3  0  0  0  0  0  0
  161.9910  207.3230  151.7640 C   0  0  0  0  0  2  0  0  0  0  0  0
  160.8600  206.8680  150.8490 C   0  0  1  0  0  3  0  0  0  0  0  0
  161.0980  207.4970  149.4860 C   0  0  0  0  0  1  0  0  0  0  0  0
  160.8160  205.3320  150.7600 C   0  0  2  0  0  3  0  0  0  0  0  0
  161.2530  204.6520  152.0510 C   0  0  0  0  0  1  0  0  0  0  0  0
  161.6110  204.7720  149.5720 C   0  0  0  0  0  2  0  0  0  0  0  0
  160.8120  203.8930  148.7150 N   0  0  0  0  0  0  0  0  0  0  0  0
  161.4880  202.6020  148.7080 C   0  0  1  0  0  3  0  0  0  0  0  0
  160.9120  201.7070  149.7880 C   0  0  0  0  0  2  0  0  0  0  0  0
  160.4950  201.5110  148.3490 C   0  0  2  0  0  3  0  0  0  0  0  0
  161.1870  200.4270  147.8120 O   0  0  0  0  0  1  0  0  0  0  0  0
  160.8900  204.3740  147.4480 O   0  0  0  0  0  0  0  0  0  0  0  0
  162.2430  204.2740  147.1060 C   0  0  0  0  0  2  0  0  0  0  0  0
  162.2550  206.5670  146.4970 F   0  0  0  0  0  0  0  0  0  0  0  0
  162.5820  205.3010  146.0450 C   0  0  0  0  0  2  0  0  0  0  0  0
  160.6980  207.4160  153.9290 C   0  0  0  0  0  2  0  0  0  0  0  0
  161.4890  207.2920  155.2190 C   0  0  0  0  0  2  0  0  0  0  0  0
  160.7850  208.0120  156.3530 C   0  0  1  0  0  3  0  0  0  0  0  0
  160.0980  207.0040  157.2570 C   0  0  0  0  0  1  0  0  0  0  0  0
  162.5050  209.6660  156.3040 O   0  0  0  0  0  1  0  0  0  0  0  0
  161.8100  208.7990  157.1480 C   0  0  0  0  0  2  0  0  0  0  0  0
  1 12  1  6  0  0  0
  1 27  1  0  0  0  0
  2  1  1  1  0  0  0
  2  5  1  0  0  0  0
  3  2  1  0  0  0  0
  4  9  2  0  0  0  0
  4 10  1  0  0  0  0
  6  7  1  0  0  0  0
  6  4  1  0  0  0  0
  7  8  1  6  0  0  0
  7 11  1  0  0  0  0
  8  3  1  0  0  0  0
 11  5  1  1  0  0  0
 11  9  1  0  0  0  0
 13 14  1  6  0  0  0
 13 12  1  0  0  0  0
 15 13  1  0  0  0  0
 15 16  1  1  0  0  0
 17 15  1  0  0  0  0
 18 17  1  0  0  0  0
 19 18  1  1  0  0  0
 19 20  1  0  0  0  0
 21 22  1  6  0  0  0
 21 19  1  0  0  0  0
 21 20  1  0  0  0  0
 23 18  1  0  0  0  0
 24 23  1  0  0  0  0
 26 25  1  0  0  0  0
 26 24  1  0  0  0  0
 27 28  1  0  0  0  0
 28 29  1  0  0  0  0
 29 32  1  0  0  0  0
 29 30  1  1  0  0  0
 31 32  1  0  0  0  0
M  END
>  <MODEL>
5

>  <REMARK>
 VINA RESULT:      -6.2      2.234      9.295
  Name = 
  14 active torsions:
  status: ('A' for Active; 'I' for Inactive)
    1  A    between atoms: C_1  and  C_4
    2  A    between atoms: C_1  and  C_5
    3  A    between atoms: C_2  and  C_5
    4  A    between atoms: C_3  and  N_20
    5  A    between atoms: C_4  and  C_24
    6  A    between atoms: C_5  and  C_14
    7  A    between atoms: C_13  and  C_29
    8  A    between atoms: C_13  and  C_30
    9  A    between atoms: C_14  and  C_30
   10  A    between atoms: O_15  and  N_20
   11  A    between atoms: O_15  and  C_26
   12  A    between atoms: C_16  and  N_20
   13  A    between atoms: C_16  and  C_24
   14  A    between atoms: C_19  and  C_26
                            x       y       z     vdW  Elec       q    Type
                         _______ _______ _______ _____ _____    ______ ____

>  <TORSDO>
F 14

$$$$
=
 OpenBabel11062408333D

 32 34  0  0  1  0  0  0  0  0999 V2000
  161.5980  208.9720  150.6670 C   0  0  2  0  0  3  0  0  0  0  0  0
  161.6280  209.0080  152.1960 C   0  0  2  0  0  3  0  0  0  0  0  0
  160.9580  207.7350  152.7940 C   0  0  0  0  0  2  0  0  0  0  0  0
  160.0870  210.7760  156.1110 C   0  0  0  0  0  0  0  0  0  0  0  0
  161.0760  210.3370  152.7770 C   0  0  0  0  0  2  0  0  0  0  0  0
  159.8910  209.4030  156.0060 O   0  0  0  0  0  0  0  0  0  0  0  0
  160.1620  209.0930  154.6570 C   0  0  2  0  0  3  0  0  0  0  0  0
  160.8230  207.7760  154.3310 C   0  0  0  0  0  2  0  0  0  0  0  0
  160.6970  211.3050  155.0970 N   0  0  0  0  0  0  0  0  0  0  0  0
  159.5990  211.5810  157.2610 C   0  0  0  0  0  1  0  0  0  0  0  0
  161.1150  210.1830  154.2780 C   0  0  2  0  0  3  0  0  0  0  0  0
  161.9280  207.5670  150.1740 C   0  0  0  0  0  2  0  0  0  0  0  0
  160.8730  207.0260  149.2170 C   0  0  1  0  0  3  0  0  0  0  0  0
  161.2620  207.4680  147.8150 C   0  0  0  0  0  1  0  0  0  0  0  0
  160.7820  205.4930  149.3170 C   0  0  2  0  0  3  0  0  0  0  0  0
  160.7920  204.9920  150.7560 C   0  0  0  0  0  1  0  0  0  0  0  0
  161.8570  204.7670  148.4970 C   0  0  0  0  0  2  0  0  0  0  0  0
  161.3010  203.7520  147.5990 N   0  0  0  0  0  0  0  0  0  0  0  0
  161.5550  202.4630  148.2300 C   0  0  1  0  0  3  0  0  0  0  0  0
  160.2730  201.9150  148.8260 C   0  0  0  0  0  2  0  0  0  0  0  0
  160.7760  201.3800  147.5050 C   0  0  2  0  0  3  0  0  0  0  0  0
  161.4040  200.1540  147.7120 O   0  0  0  0  0  1  0  0  0  0  0  0
  162.0340  203.7700  146.4560 O   0  0  0  0  0  0  0  0  0  0  0  0
  161.1050  203.9910  145.4340 C   0  0  0  0  0  2  0  0  0  0  0  0
  162.5660  205.8420  145.1660 F   0  0  0  0  0  0  0  0  0  0  0  0
  161.3020  205.3770  144.8530 C   0  0  0  0  0  2  0  0  0  0  0  0
  162.5410  210.0110  150.0650 C   0  0  0  0  0  2  0  0  0  0  0  0
  161.9030  210.6510  148.8440 C   0  0  0  0  0  2  0  0  0  0  0  0
  162.2210  212.1320  148.7850 C   0  0  1  0  0  3  0  0  0  0  0  0
  163.0900  212.4250  147.5750 C   0  0  0  0  0  1  0  0  0  0  0  0
  161.0690  214.1640  149.2770 O   0  0  0  0  0  1  0  0  0  0  0  0
  160.9220  212.9100  148.6840 C   0  0  0  0  0  2  0  0  0  0  0  0
  1 27  1  6  0  0  0
  2  1  1  6  0  0  0
  2  5  1  0  0  0  0
  2  3  1  0  0  0  0
  3  8  1  0  0  0  0
  4 10  1  0  0  0  0
  6  4  1  0  0  0  0
  7  8  1  1  0  0  0
  7  6  1  0  0  0  0
  9  4  2  0  0  0  0
 11  5  1  6  0  0  0
 11  7  1  0  0  0  0
 11  9  1  0  0  0  0
 12  1  1  0  0  0  0
 13 14  1  6  0  0  0
 13 15  1  0  0  0  0
 13 12  1  0  0  0  0
 15 16  1  1  0  0  0
 17 15  1  0  0  0  0
 18 17  1  0  0  0  0
 19 18  1  6  0  0  0
 19 20  1  0  0  0  0
 21 22  1  1  0  0  0
 21 19  1  0  0  0  0
 21 20  1  0  0  0  0
 23 18  1  0  0  0  0
 24 23  1  0  0  0  0
 26 25  1  0  0  0  0
 26 24  1  0  0  0  0
 28 27  1  0  0  0  0
 29 30  1  6  0  0  0
 29 28  1  0  0  0  0
 32 29  1  0  0  0  0
 32 31  1  0  0  0  0
M  END
>  <MODEL>
6

>  <REMARK>
 VINA RESULT:      -6.2      2.251      8.601
  Name = 
  14 active torsions:
  status: ('A' for Active; 'I' for Inactive)
    1  A    between atoms: C_1  and  C_4
    2  A    between atoms: C_1  and  C_5
    3  A    between atoms: C_2  and  C_5
    4  A    between atoms: C_3  and  N_20
    5  A    between atoms: C_4  and  C_24
    6  A    between atoms: C_5  and  C_14
    7  A    between atoms: C_13  and  C_29
    8  A    between atoms: C_13  and  C_30
    9  A    between atoms: C_14  and  C_30
   10  A    between atoms: O_15  and  N_20
   11  A    between atoms: O_15  and  C_26
   12  A    between atoms: C_16  and  N_20
   13  A    between atoms: C_16  and  C_24
   14  A    between atoms: C_19  and  C_26
                            x       y       z     vdW  Elec       q    Type
                         _______ _______ _______ _____ _____    ______ ____

>  <TORSDO>
F 14

$$$$
=
 OpenBabel11062408333D

 32 34  0  0  1  0  0  0  0  0999 V2000
  161.6520  205.7860  149.5150 C   0  0  2  0  0  3  0  0  0  0  0  0
  161.0200  204.4220  149.2300 C   0  0  2  0  0  3  0  0  0  0  0  0
  161.0780  203.5100  150.4910 C   0  0  0  0  0  2  0  0  0  0  0  0
  161.2210  200.3570  147.1670 C   0  0  0  0  0  0  0  0  0  0  0  0
  161.5820  203.7550  147.9470 C   0  0  0  0  0  2  0  0  0  0  0  0
  161.1190  200.2730  148.5530 O   0  0  0  0  0  0  0  0  0  0  0  0
  161.3490  201.5830  149.0200 C   0  0  2  0  0  3  0  0  0  0  0  0
  160.5890  202.0690  150.2300 C   0  0  0  0  0  2  0  0  0  0  0  0
  161.2110  201.5680  146.7060 N   0  0  0  0  0  0  0  0  0  0  0  0
  161.3780  199.1670  146.2910 C   0  0  0  0  0  1  0  0  0  0  0  0
  160.9100  202.4070  147.8500 C   0  0  2  0  0  3  0  0  0  0  0  0
  161.0240  206.4000  150.7620 C   0  0  0  0  0  2  0  0  0  0  0  0
  162.0200  207.2270  151.5650 C   0  0  1  0  0  3  0  0  0  0  0  0
  162.2800  208.5060  150.7850 C   0  0  0  0  0  1  0  0  0  0  0  0
  161.4690  207.5300  152.9700 C   0  0  2  0  0  3  0  0  0  0  0  0
  160.8570  206.3070  153.6420 C   0  0  0  0  0  1  0  0  0  0  0  0
  160.4740  208.6980  152.9920 C   0  0  0  0  0  2  0  0  0  0  0  0
  160.6280  209.5560  154.1690 N   0  0  0  0  0  0  0  0  0  0  0  0
  160.4220  210.9240  153.7090 C   0  0  1  0  0  3  0  0  0  0  0  0
  159.2630  210.9760  152.7340 C   0  0  0  0  0  2  0  0  0  0  0  0
  159.0590  211.4140  154.1660 C   0  0  2  0  0  3  0  0  0  0  0  0
  159.0750  212.8050  154.2290 O   0  0  0  0  0  1  0  0  0  0  0  0
  161.9230  209.4760  154.5680 O   0  0  0  0  0  0  0  0  0  0  0  0
  161.8890  209.6880  155.9510 C   0  0  0  0  0  2  0  0  0  0  0  0
  160.2130  208.2850  156.8740 F   0  0  0  0  0  0  0  0  0  0  0  0
  161.5750  208.3870  156.6610 C   0  0  0  0  0  2  0  0  0  0  0  0
  161.5320  206.7190  148.3120 C   0  0  0  0  0  2  0  0  0  0  0  0
  160.4670  206.2080  147.3580 C   0  0  0  0  0  2  0  0  0  0  0  0
  160.9240  206.3440  145.9190 C   0  0  1  0  0  3  0  0  0  0  0  0
  162.3480  205.8340  145.7790 C   0  0  0  0  0  1  0  0  0  0  0  0
  160.6770  204.4260  144.5200 O   0  0  0  0  0  1  0  0  0  0  0  0
  160.0000  205.5340  145.0300 C   0  0  0  0  0  2  0  0  0  0  0  0
  1 27  1  6  0  0  0
  1 12  1  0  0  0  0
  2  1  1  1  0  0  0
  2  3  1  0  0  0  0
  4  6  1  0  0  0  0
  5  2  1  0  0  0  0
  6  7  1  0  0  0  0
  7  8  1  1  0  0  0
  8  3  1  0  0  0  0
  9  4  2  0  0  0  0
  9 11  1  0  0  0  0
 10  4  1  0  0  0  0
 11  5  1  6  0  0  0
 11  7  1  0  0  0  0
 12 13  1  0  0  0  0
 13 14  1  6  0  0  0
 13 15  1  0  0  0  0
 15 17  1  0  0  0  0
 15 16  1  6  0  0  0
 17 18  1  0  0  0  0
 18 23  1  0  0  0  0
 19 21  1  0  0  0  0
 19 18  1  1  0  0  0
 20 19  1  0  0  0  0
 20 21  1  0  0  0  0
 21 22  1  6  0  0  0
 23 24  1  0  0  0  0
 24 26  1  0  0  0  0
 26 25  1  0  0  0  0
 28 27  1  0  0  0  0
 29 30  1  1  0  0  0
 29 28  1  0  0  0  0
 31 32  1  0  0  0  0
 32 29  1  0  0  0  0
M  END
>  <MODEL>
7

>  <REMARK>
 VINA RESULT:      -6.2      2.036      2.572
  Name = 
  14 active torsions:
  status: ('A' for Active; 'I' for Inactive)
    1  A    between atoms: C_1  and  C_4
    2  A    between atoms: C_1  and  C_5
    3  A    between atoms: C_2  and  C_5
    4  A    between atoms: C_3  and  N_20
    5  A    between atoms: C_4  and  C_24
    6  A    between atoms: C_5  and  C_14
    7  A    between atoms: C_13  and  C_29
    8  A    between atoms: C_13  and  C_30
    9  A    between atoms: C_14  and  C_30
   10  A    between atoms: O_15  and  N_20
   11  A    between atoms: O_15  and  C_26
   12  A    between atoms: C_16  and  N_20
   13  A    between atoms: C_16  and  C_24
   14  A    between atoms: C_19  and  C_26
                            x       y       z     vdW  Elec       q    Type
                         _______ _______ _______ _____ _____    ______ ____

>  <TORSDO>
F 14

$$$$
=
 OpenBabel11062408333D

 32 34  0  0  1  0  0  0  0  0999 V2000
  161.6030  208.9360  150.6550 C   0  0  2  0  0  3  0  0  0  0  0  0
  161.7230  209.0150  152.1780 C   0  0  2  0  0  3  0  0  0  0  0  0
  160.9840  207.8230  152.8550 C   0  0  0  0  0  2  0  0  0  0  0  0
  160.5650  211.0270  156.1070 C   0  0  0  0  0  0  0  0  0  0  0  0
  161.3210  210.4040  152.7410 C   0  0  0  0  0  2  0  0  0  0  0  0
  160.2470  209.6730  156.0610 O   0  0  0  0  0  0  0  0  0  0  0  0
  160.4140  209.3000  154.7110 C   0  0  2  0  0  3  0  0  0  0  0  0
  160.9420  207.9210  154.3950 C   0  0  0  0  0  2  0  0  0  0  0  0
  161.1580  211.4700  155.0430 N   0  0  0  0  0  0  0  0  0  0  0  0
  160.2130  211.9050  157.2530 C   0  0  0  0  0  1  0  0  0  0  0  0
  161.4320  210.2920  154.2420 C   0  0  2  0  0  3  0  0  0  0  0  0
  162.0410  207.5570  150.1700 C   0  0  0  0  0  2  0  0  0  0  0  0
  160.9800  206.8800  149.3120 C   0  0  1  0  0  3  0  0  0  0  0  0
  161.2560  207.2580  147.8660 C   0  0  0  0  0  1  0  0  0  0  0  0
  161.0120  205.3540  149.5100 C   0  0  2  0  0  3  0  0  0  0  0  0
  161.1160  204.9490  150.9740 C   0  0  0  0  0  1  0  0  0  0  0  0
  162.1090  204.6600  148.6900 C   0  0  0  0  0  2  0  0  0  0  0  0
  161.5940  203.5770  147.8500 N   0  0  0  0  0  0  0  0  0  0  0  0
  161.0950  204.2040  146.6330 C   0  0  1  0  0  3  0  0  0  0  0  0
  162.2380  204.4510  145.6680 C   0  0  0  0  0  2  0  0  0  0  0  0
  161.3160  203.2730  145.4540 C   0  0  2  0  0  3  0  0  0  0  0  0
  160.3980  203.5820  144.4530 O   0  0  0  0  0  1  0  0  0  0  0  0
  160.5140  203.0480  148.4800 O   0  0  0  0  0  0  0  0  0  0  0  0
  160.7800  201.6770  148.5640 C   0  0  0  0  0  2  0  0  0  0  0  0
  161.4590  201.7120  150.8380 F   0  0  0  0  0  0  0  0  0  0  0  0
  160.5150  201.1890  149.9740 C   0  0  0  0  0  2  0  0  0  0  0  0
  162.3980  210.0470  149.9730 C   0  0  0  0  0  2  0  0  0  0  0  0
  161.6990  210.4810  148.6970 C   0  0  0  0  0  2  0  0  0  0  0  0
  161.7770  211.9860  148.5270 C   0  0  1  0  0  3  0  0  0  0  0  0
  163.1550  212.3770  148.0200 C   0  0  0  0  0  1  0  0  0  0  0  0
  160.8720  213.7800  147.2380 O   0  0  0  0  0  1  0  0  0  0  0  0
  160.7210  212.4240  147.5290 C   0  0  0  0  0  2  0  0  0  0  0  0
  1 27  1  6  0  0  0
  2  1  1  6  0  0  0
  2  5  1  0  0  0  0
  2  3  1  0  0  0  0
  3  8  1  0  0  0  0
  4 10  1  0  0  0  0
  6  4  1  0  0  0  0
  7  8  1  1  0  0  0
  7  6  1  0  0  0  0
  9  4  2  0  0  0  0
 11  5  1  6  0  0  0
 11  7  1  0  0  0  0
 11  9  1  0  0  0  0
 12  1  1  0  0  0  0
 13 14  1  6  0  0  0
 13 15  1  0  0  0  0
 13 12  1  0  0  0  0
 15 16  1  1  0  0  0
 17 15  1  0  0  0  0
 18 23  1  0  0  0  0
 18 17  1  0  0  0  0
 19 18  1  1  0  0  0
 20 19  1  0  0  0  0
 21 22  1  6  0  0  0
 21 20  1  0  0  0  0
 21 19  1  0  0  0  0
 23 24  1  0  0  0  0
 24 26  1  0  0  0  0
 26 25  1  0  0  0  0
 28 27  1  0  0  0  0
 29 30  1  6  0  0  0
 29 28  1  0  0  0  0
 31 32  1  0  0  0  0
 32 29  1  0  0  0  0
M  END
>  <MODEL>
8

>  <REMARK>
 VINA RESULT:      -6.1      2.717      8.690
  Name = 
  14 active torsions:
  status: ('A' for Active; 'I' for Inactive)
    1  A    between atoms: C_1  and  C_4
    2  A    between atoms: C_1  and  C_5
    3  A    between atoms: C_2  and  C_5
    4  A    between atoms: C_3  and  N_20
    5  A    between atoms: C_4  and  C_24
    6  A    between atoms: C_5  and  C_14
    7  A    between atoms: C_13  and  C_29
    8  A    between atoms: C_13  and  C_30
    9  A    between atoms: C_14  and  C_30
   10  A    between atoms: O_15  and  N_20
   11  A    between atoms: O_15  and  C_26
   12  A    between atoms: C_16  and  N_20
   13  A    between atoms: C_16  and  C_24
   14  A    between atoms: C_19  and  C_26
                            x       y       z     vdW  Elec       q    Type
                         _______ _______ _______ _____ _____    ______ ____

>  <TORSDO>
F 14

$$$$
=
 OpenBabel11062408333D

 32 34  0  0  1  0  0  0  0  0999 V2000
  161.5440  207.9060  152.1860 C   0  0  2  0  0  3  0  0  0  0  0  0
  160.9450  206.5380  151.8510 C   0  0  2  0  0  3  0  0  0  0  0  0
  161.2800  205.4990  152.9630 C   0  0  0  0  0  2  0  0  0  0  0  0
  160.9910  202.7520  149.3050 C   0  0  0  0  0  0  0  0  0  0  0  0
  161.3020  206.0600  150.4190 C   0  0  0  0  0  2  0  0  0  0  0  0
  161.1460  202.5080  150.6660 O   0  0  0  0  0  0  0  0  0  0  0  0
  161.3850  203.7730  151.2430 C   0  0  2  0  0  3  0  0  0  0  0  0
  160.8310  204.0640  152.6170 C   0  0  0  0  0  2  0  0  0  0  0  0
  160.8320  204.0020  149.0030 N   0  0  0  0  0  0  0  0  0  0  0  0
  161.0520  201.6810  148.2760 C   0  0  0  0  0  1  0  0  0  0  0  0
  160.6980  204.6850  150.2760 C   0  0  2  0  0  3  0  0  0  0  0  0
  160.4270  208.9130  152.4450 C   0  0  0  0  0  2  0  0  0  0  0  0
  160.3750  209.3600  153.9000 C   0  0  1  0  0  3  0  0  0  0  0  0
  160.8260  208.1850  154.7520 C   0  0  0  0  0  1  0  0  0  0  0  0
  161.2700  210.5920  154.1230 C   0  0  2  0  0  3  0  0  0  0  0  0
  162.3570  210.3540  155.1640 C   0  0  0  0  0  1  0  0  0  0  0  0
  160.4790  211.8620  154.4660 C   0  0  0  0  0  2  0  0  0  0  0  0
  159.1070  211.8330  153.9570 N   0  0  0  0  0  0  0  0  0  0  0  0
  159.0060  212.9190  152.9890 C   0  0  1  0  0  3  0  0  0  0  0  0
  160.0230  212.7240  151.8810 C   0  0  0  0  0  2  0  0  0  0  0  0
  158.5750  212.3620  151.6440 C   0  0  2  0  0  3  0  0  0  0  0  0
  157.9610  213.3740  150.9090 O   0  0  0  0  0  1  0  0  0  0  0  0
  158.2810  212.1580  154.9840 O   0  0  0  0  0  0  0  0  0  0  0  0
  157.0080  211.7550  154.5670 C   0  0  0  0  0  2  0  0  0  0  0  0
  155.1100  210.8280  155.6480 F   0  0  0  0  0  0  0  0  0  0  0  0
  156.4770  210.6850  155.5000 C   0  0  0  0  0  2  0  0  0  0  0  0
  162.4870  208.3880  151.0870 C   0  0  0  0  0  2  0  0  0  0  0  0
  162.1270  209.8040  150.6730 C   0  0  0  0  0  2  0  0  0  0  0  0
  162.3740  210.0100  149.1910 C   0  0  1  0  0  3  0  0  0  0  0  0
  161.9350  208.7780  148.4180 C   0  0  0  0  0  1  0  0  0  0  0  0
  162.4200  212.3300  148.6290 O   0  0  0  0  0  1  0  0  0  0  0  0
  161.5830  211.2180  148.7240 C   0  0  0  0  0  2  0  0  0  0  0  0
  1 27  1  6  0  0  0
  1 12  1  0  0  0  0
  2  1  1  1  0  0  0
  2  3  1  0  0  0  0
  4  6  1  0  0  0  0
  5  2  1  0  0  0  0
  6  7  1  0  0  0  0
  7  8  1  1  0  0  0
  8  3  1  0  0  0  0
  9  4  2  0  0  0  0
  9 11  1  0  0  0  0
 10  4  1  0  0  0  0
 11  5  1  6  0  0  0
 11  7  1  0  0  0  0
 12 13  1  0  0  0  0
 13 15  1  0  0  0  0
 13 14  1  1  0  0  0
 15 17  1  0  0  0  0
 15 16  1  1  0  0  0
 18 17  1  0  0  0  0
 18 23  1  0  0  0  0
 19 18  1  1  0  0  0
 20 19  1  0  0  0  0
 21 22  1  6  0  0  0
 21 20  1  0  0  0  0
 21 19  1  0  0  0  0
 24 23  1  0  0  0  0
 24 26  1  0  0  0  0
 26 25  1  0  0  0  0
 28 27  1  0  0  0  0
 29 30  1  6  0  0  0
 29 28  1  0  0  0  0
 31 32  1  0  0  0  0
 32 29  1  0  0  0  0
M  END
>  <MODEL>
9

>  <REMARK>
 VINA RESULT:      -6.0      3.023      4.644
  Name = 
  14 active torsions:
  status: ('A' for Active; 'I' for Inactive)
    1  A    between atoms: C_1  and  C_4
    2  A    between atoms: C_1  and  C_5
    3  A    between atoms: C_2  and  C_5
    4  A    between atoms: C_3  and  N_20
    5  A    between atoms: C_4  and  C_24
    6  A    between atoms: C_5  and  C_14
    7  A    between atoms: C_13  and  C_29
    8  A    between atoms: C_13  and  C_30
    9  A    between atoms: C_14  and  C_30
   10  A    between atoms: O_15  and  N_20
   11  A    between atoms: O_15  and  C_26
   12  A    between atoms: C_16  and  N_20
   13  A    between atoms: C_16  and  C_24
   14  A    between atoms: C_19  and  C_26
                            x       y       z     vdW  Elec       q    Type
                         _______ _______ _______ _____ _____    ______ ____

>  <TORSDO>
F 14

$$$$
