=
 OpenBabel11062410373D

 32 36  0  0  1  0  0  0  0  0999 V2000
  160.9790  202.3530  148.0530 C   0  0  0  0  0  0  0  0  0  0  0  0
  160.7080  206.4780  151.0200 C   0  0  1  0  0  3  0  0  0  0  0  0
  161.9090  210.3870  148.3980 C   0  0  0  0  0  3  0  0  0  0  0  0
  162.1260  211.1300  149.5620 C   0  0  0  0  0  3  0  0  0  0  0  0
  160.9390  206.6340  153.6400 C   0  0  2  0  0  3  0  0  0  0  0  0
  160.9870  207.6740  154.7690 C   0  0  2  0  0  3  0  0  0  0  0  0
  160.8320  204.1710  150.1890 C   0  0  0  0  0  0  0  0  0  0  0  0
  161.1760  206.1130  148.5950 C   0  0  0  0  0  2  0  0  0  0  0  0
  161.1100  203.7280  147.8160 C   0  0  0  0  0  3  0  0  0  0  0  0
  161.7380  209.0010  148.4700 C   0  0  0  0  0  3  0  0  0  0  0  0
  161.6390  206.8530  149.8520 C   0  0  1  0  0  3  0  0  0  0  0  0
  161.7730  208.3530  149.7130 C   0  0  0  0  0  0  0  0  0  0  0  0
  162.0690  208.3580  152.1880 C   0  0  1  0  0  3  0  0  0  0  0  0
  160.7800  201.8960  149.3640 C   0  0  0  0  0  3  0  0  0  0  0  0
  161.0490  204.6380  148.8740 C   0  0  0  0  0  0  0  0  0  0  0  0
  159.7560  207.5970  155.5370 N   0  0  0  0  0  1  0  0  0  0  0  0
  160.7070  202.8000  150.4270 C   0  0  0  0  0  3  0  0  0  0  0  0
  162.1770  210.4900  150.8030 C   0  0  0  0  0  3  0  0  0  0  0  0
  162.0020  209.1030  150.8830 C   0  0  0  0  0  0  0  0  0  0  0  0
  162.2680  209.1940  153.3240 O   0  0  0  0  0  0  0  0  0  0  0  0
  160.7650  205.0720  151.2590 O   0  0  0  0  0  0  0  0  0  0  0  0
  162.0560  205.8020  153.7330 O   0  0  0  0  0  1  0  0  0  0  0  0
  160.9140  207.3390  152.2880 C   0  0  1  0  0  3  0  0  0  0  0  0
  161.1910  209.1130  154.2390 C   0  0  2  0  0  3  0  0  0  0  0  0
  160.7800  201.7800  145.7590 O   0  0  0  0  0  0  0  0  0  0  0  0
  161.4200  200.0370  147.1740 N   0  0  0  0  0  2  0  0  0  0  0  0
  161.0480  201.3960  146.9330 C   0  0  0  0  0  0  0  0  0  0  0  0
  161.4950  199.0890  146.1440 C   0  0  0  0  0  0  0  0  0  0  0  0
  161.5570  198.3080  145.2920 N   0  0  0  0  0  0  0  0  0  0  0  0
  161.4170  210.0710  155.3620 C   0  0  0  0  0  0  0  0  0  0  0  0
  160.6720  211.0760  155.4860 O   0  0  0  0  0  0  0  0  0  0  0  0
  162.4660  209.8470  156.3000 N   0  0  0  0  0  1  0  0  0  0  0  0
  1 14  1  0  0  0  0
  2 21  1  1  0  0  0
  2 23  1  0  0  0  0
  3 10  2  0  0  0  0
  3  4  1  0  0  0  0
  4 18  2  0  0  0  0
  5 22  1  6  0  0  0
  5  6  1  0  0  0  0
  6 16  1  6  0  0  0
  7 17  1  0  0  0  0
  7 21  1  0  0  0  0
  8 15  1  0  0  0  0
  9  1  2  0  0  0  0
  9 15  1  0  0  0  0
 10 12  1  0  0  0  0
 11  8  1  6  0  0  0
 11  2  1  0  0  0  0
 12 11  1  0  0  0  0
 12 19  2  0  0  0  0
 13 19  1  6  0  0  0
 13 23  1  0  0  0  0
 13 20  1  0  0  0  0
 14 17  2  0  0  0  0
 15  7  2  0  0  0  0
 18 19  1  0  0  0  0
 20 24  1  0  0  0  0
 23  5  1  0  0  0  0
 24  6  1  0  0  0  0
 24 30  1  0  0  0  0
 25 27  2  0  0  0  0
 27 26  1  0  0  0  0
 27  1  1  0  0  0  0
 28 26  1  0  0  0  0
 29 28  3  0  0  0  0
 30 31  2  0  0  0  0
 30 32  1  0  0  0  0
M  END
>  <MODEL>
1

>  <REMARK>
 VINA RESULT:     -10.0      0.000      0.000
  Name = 
  3 active torsions:
  status: ('A' for Active; 'I' for Inactive)
    1  A    between atoms: C_1  and  N_20
    2  A    between atoms: C_2  and  C_24
    3  A    between atoms: C_11  and  C_32
                            x       y       z     vdW  Elec       q    Type
                         _______ _______ _______ _____ _____    ______ ____

>  <TORSDO>
F 3

$$$$
=
 OpenBabel11062410373D

 32 36  0  0  1  0  0  0  0  0999 V2000
  161.3410  210.1170  153.5240 C   0  0  0  0  0  0  0  0  0  0  0  0
  160.6710  206.5500  149.9580 C   0  0  1  0  0  3  0  0  0  0  0  0
  160.6090  202.1840  152.0880 C   0  0  0  0  0  3  0  0  0  0  0  0
  160.8410  201.5570  150.8600 C   0  0  0  0  0  3  0  0  0  0  0  0
  161.2630  206.6600  147.3930 C   0  0  2  0  0  3  0  0  0  0  0  0
  161.2650  205.7800  146.1340 C   0  0  2  0  0  3  0  0  0  0  0  0
  161.1460  208.6510  151.1360 C   0  0  0  0  0  0  0  0  0  0  0  0
  160.8270  206.5040  152.4490 C   0  0  0  0  0  2  0  0  0  0  0  0
  161.1430  208.7300  153.5650 C   0  0  0  0  0  3  0  0  0  0  0  0
  160.7450  203.5710  152.2050 C   0  0  0  0  0  3  0  0  0  0  0  0
  161.3120  205.8340  151.1610 C   0  0  1  0  0  3  0  0  0  0  0  0
  161.1060  204.3380  151.0870 C   0  0  0  0  0  0  0  0  0  0  0  0
  161.7700  204.5620  148.6950 C   0  0  1  0  0  3  0  0  0  0  0  0
  161.4460  210.7620  152.2830 C   0  0  0  0  0  3  0  0  0  0  0  0
  161.0570  207.9910  152.3820 C   0  0  0  0  0  0  0  0  0  0  0  0
  160.2090  206.2280  145.2410 N   0  0  0  0  0  1  0  0  0  0  0  0
  161.3490  210.0320  151.0950 C   0  0  0  0  0  3  0  0  0  0  0  0
  161.2150  202.3120  149.7450 C   0  0  0  0  0  3  0  0  0  0  0  0
  161.3490  203.7020  149.8550 C   0  0  0  0  0  0  0  0  0  0  0  0
  161.9610  203.8450  147.4800 O   0  0  0  0  0  0  0  0  0  0  0  0
  161.0570  207.9240  149.9430 O   0  0  0  0  0  0  0  0  0  0  0  0
  162.5300  207.2200  147.5650 O   0  0  0  0  0  1  0  0  0  0  0  0
  160.8840  205.8230  148.6100 C   0  0  1  0  0  3  0  0  0  0  0  0
  161.0780  204.2800  146.4620 C   0  0  2  0  0  3  0  0  0  0  0  0
  162.4160  210.7120  155.5540 O   0  0  0  0  0  0  0  0  0  0  0  0
  160.4240  211.8440  155.1070 N   0  0  0  0  0  2  0  0  0  0  0  0
  161.4370  210.8910  154.7760 C   0  0  0  0  0  0  0  0  0  0  0  0
  160.4680  212.6000  156.2870 C   0  0  0  0  0  0  0  0  0  0  0  0
  160.5050  213.2250  157.2610 N   0  0  0  0  0  0  0  0  0  0  0  0
  161.2690  203.4380  145.2440 C   0  0  0  0  0  0  0  0  0  0  0  0
  162.2610  203.6340  144.4970 O   0  0  0  0  0  0  0  0  0  0  0  0
  160.3380  202.4060  144.9270 N   0  0  0  0  0  1  0  0  0  0  0  0
  1  9  1  0  0  0  0
  1 27  1  0  0  0  0
  2 21  1  6  0  0  0
  2 11  1  0  0  0  0
  3 10  1  0  0  0  0
  4  3  2  0  0  0  0
  5 22  1  1  0  0  0
  5 23  1  0  0  0  0
  6 16  1  6  0  0  0
  6 24  1  0  0  0  0
  6  5  1  0  0  0  0
  7 15  1  0  0  0  0
 11  8  1  1  0  0  0
 12 11  1  0  0  0  0
 12 10  2  0  0  0  0
 13 20  1  6  0  0  0
 13 19  1  0  0  0  0
 14  1  2  0  0  0  0
 15  8  1  0  0  0  0
 15  9  2  0  0  0  0
 17  7  2  0  0  0  0
 17 14  1  0  0  0  0
 18 19  2  0  0  0  0
 18  4  1  0  0  0  0
 19 12  1  0  0  0  0
 21  7  1  0  0  0  0
 23 13  1  0  0  0  0
 23  2  1  0  0  0  0
 24 20  1  0  0  0  0
 26 28  1  0  0  0  0
 27 26  1  0  0  0  0
 27 25  2  0  0  0  0
 28 29  3  0  0  0  0
 30 24  1  0  0  0  0
 31 30  2  0  0  0  0
 32 30  1  0  0  0  0
M  END
>  <MODEL>
2

>  <REMARK>
 VINA RESULT:      -9.0      2.364      9.452
  Name = 
  3 active torsions:
  status: ('A' for Active; 'I' for Inactive)
    1  A    between atoms: C_1  and  N_20
    2  A    between atoms: C_2  and  C_24
    3  A    between atoms: C_11  and  C_32
                            x       y       z     vdW  Elec       q    Type
                         _______ _______ _______ _____ _____    ______ ____

>  <TORSDO>
F 3

$$$$
