=
 OpenBabel11062409423D

 34 38  0  0  1  0  0  0  0  0999 V2000
  160.8630  210.3930  154.4060 C   0  0  2  0  0  3  0  0  0  0  0  0
  158.0170  211.8600  156.7000 C   0  0  0  0  0  2  0  0  0  0  0  0
  160.6270  211.8330  157.0680 C   0  0  0  0  0  2  0  0  0  0  0  0
  163.3210  210.7070  154.9410 N   0  0  0  0  0  2  0  0  0  0  0  0
  164.0240  210.9010  156.2040 C   0  0  0  0  0  2  0  0  0  0  0  0
  161.6910  210.8870  156.6720 N   0  0  1  0  0  0  0  0  0  0  0  0
  161.9430  211.0890  155.2480 C   0  0  2  0  0  3  0  0  0  0  0  0
  162.9720  211.2330  157.2590 C   0  0  0  0  0  2  0  0  0  0  0  0
  156.9590  211.9440  155.5900 C   0  0  0  0  0  2  0  0  0  0  0  0
  157.5570  212.5480  154.2930 C   0  0  1  0  0  3  0  0  0  0  0  0
  159.6520  212.6050  152.9030 C   0  0  0  0  0  1  0  0  0  0  0  0
  159.4240  211.7910  156.1010 C   0  0  1  0  0  3  0  0  0  0  0  0
  158.7200  211.6990  153.7050 C   0  0  1  0  0  3  0  0  0  0  0  0
  159.4690  210.9290  154.8200 C   0  0  1  0  0  3  0  0  0  0  0  0
  156.4950  212.9390  153.2590 C   0  0  1  0  0  3  0  0  0  0  0  0
  155.2340  213.4940  153.9060 C   0  0  0  0  0  1  0  0  0  0  0  0
  157.0090  213.8750  152.3470 O   0  0  0  0  0  1  0  0  0  0  0  0
  160.8680  208.8470  154.3300 C   0  0  1  0  0  3  0  0  0  0  0  0
  160.3370  208.2460  155.6220 C   0  0  0  0  0  1  0  0  0  0  0  0
  160.0800  208.0980  152.8420 S   0  0  0  0  0  0  0  0  0  0  0  0
  161.2280  207.4540  148.9120 C   0  0  0  0  0  2  0  0  0  0  0  0
  161.6140  207.6570  151.8850 C   0  0  1  0  0  3  0  0  0  0  0  0
  161.0800  203.8180  149.9570 C   0  0  0  0  0  0  0  0  0  0  0  0
  161.0450  204.9870  149.1910 C   0  0  0  0  0  3  0  0  0  0  0  0
  161.2490  206.2440  149.7920 C   0  0  0  0  0  0  0  0  0  0  0  0
  162.6870  209.7400  151.4000 O   0  0  0  0  0  0  0  0  0  0  0  0
  161.5000  205.1520  151.9420 C   0  0  0  0  0  3  0  0  0  0  0  0
  161.4500  206.3320  151.1890 C   0  0  0  0  0  0  0  0  0  0  0  0
  161.3370  203.9040  151.3300 C   0  0  0  0  0  3  0  0  0  0  0  0
  162.1210  208.7120  150.9370 C   0  0  0  0  0  0  0  0  0  0  0  0
  161.9690  208.5680  149.5160 N   0  0  0  0  0  2  0  0  0  0  0  0
  160.8200  202.5170  149.3220 C   0  0  0  0  0  0  0  0  0  0  0  0
  161.0820  202.3360  147.9620 O   0  0  0  0  0  0  0  0  0  0  0  0
  160.3380  201.5760  150.0080 O   0  0  0  0  0  1  0  0  0  0  0  0
  1 18  1  1  0  0  0
  1 14  1  0  0  0  0
  1  7  1  0  0  0  0
  4  5  1  0  0  0  0
  5  8  1  0  0  0  0
  6  3  1  1  0  0  0
  6  8  1  0  0  0  0
  7  4  1  6  0  0  0
  7  6  1  0  0  0  0
  9  2  1  0  0  0  0
 10 15  1  6  0  0  0
 10  9  1  0  0  0  0
 12  2  1  1  0  0  0
 12  3  1  0  0  0  0
 13 11  1  1  0  0  0
 13 10  1  0  0  0  0
 13 14  1  0  0  0  0
 14 12  1  0  0  0  0
 15 16  1  0  0  0  0
 17 15  1  0  0  0  0
 18 19  1  0  0  0  0
 20 18  1  0  0  0  0
 21 31  1  0  0  0  0
 21 25  1  0  0  0  0
 22 20  1  0  0  0  0
 23 29  1  0  0  0  0
 24 25  1  0  0  0  0
 24 23  2  0  0  0  0
 25 28  2  0  0  0  0
 28 22  1  0  0  0  0
 28 27  1  0  0  0  0
 29 27  2  0  0  0  0
 30 26  2  0  0  0  0
 30 22  1  0  0  0  0
 31 30  1  0  0  0  0
 32 23  1  0  0  0  0
 32 34  1  0  0  0  0
 33 32  2  0  0  0  0
M  END
>  <MODEL>
1

>  <REMARK>
 VINA RESULT:      -6.9      0.000      0.000
  Name = 
  5 active torsions:
  status: ('A' for Active; 'I' for Inactive)
    1  A    between atoms: C_1  and  C_8
    2  A    between atoms: C_3  and  C_25
    3  A    between atoms: C_6  and  S_17
    4  A    between atoms: C_7  and  C_11
    5  A    between atoms: C_8  and  S_17
                            x       y       z     vdW  Elec       q    Type
                         _______ _______ _______ _____ _____    ______ ____

>  <TORSDO>
F 5

$$$$
=
 OpenBabel11062409423D

 34 38  0  0  1  0  0  0  0  0999 V2000
  162.1880  210.5300  149.7720 C   0  0  2  0  0  3  0  0  0  0  0  0
  159.4980  213.1490  148.5790 C   0  0  0  0  0  2  0  0  0  0  0  0
  160.1700  212.4210  151.0220 C   0  0  0  0  0  2  0  0  0  0  0  0
  162.7520  210.1970  152.2210 N   0  0  0  0  0  2  0  0  0  0  0  0
  161.9670  210.3950  153.4350 C   0  0  0  0  0  2  0  0  0  0  0  0
  160.6560  211.1500  151.5980 N   0  0  1  0  0  0  0  0  0  0  0  0
  162.0620  211.0150  151.2240 C   0  0  2  0  0  3  0  0  0  0  0  0
  160.7310  211.2020  153.0460 C   0  0  0  0  0  2  0  0  0  0  0  0
  160.0910  213.3430  147.1760 C   0  0  0  0  0  2  0  0  0  0  0  0
  161.6320  213.5060  147.2380 C   0  0  1  0  0  3  0  0  0  0  0  0
  163.6730  212.6980  148.4650 C   0  0  0  0  0  1  0  0  0  0  0  0
  160.5450  212.5650  149.5310 C   0  0  1  0  0  3  0  0  0  0  0  0
  162.3530  212.2630  147.8330 C   0  0  1  0  0  3  0  0  0  0  0  0
  161.4420  211.5160  148.8370 C   0  0  1  0  0  3  0  0  0  0  0  0
  162.2440  214.0030  145.9240 C   0  0  1  0  0  3  0  0  0  0  0  0
  163.0850  212.9360  145.2360 C   0  0  0  0  0  1  0  0  0  0  0  0
  161.2450  214.4530  145.0470 O   0  0  0  0  0  1  0  0  0  0  0  0
  161.8160  209.0630  149.4470 C   0  0  1  0  0  3  0  0  0  0  0  0
  161.9900  208.7830  147.9630 C   0  0  0  0  0  1  0  0  0  0  0  0
  162.6030  207.7680  150.4950 S   0  0  0  0  0  0  0  0  0  0  0  0
  161.6270  204.2050  152.3740 C   0  0  0  0  0  2  0  0  0  0  0  0
  161.0840  206.8040  150.9660 C   0  0  1  0  0  3  0  0  0  0  0  0
  161.0160  203.0430  148.8230 C   0  0  0  0  0  0  0  0  0  0  0  0
  161.3230  203.0560  150.1870 C   0  0  0  0  0  3  0  0  0  0  0  0
  161.3180  204.2630  150.9110 C   0  0  0  0  0  0  0  0  0  0  0  0
  160.4560  207.6120  153.1290 O   0  0  0  0  0  0  0  0  0  0  0  0
  160.7200  205.4510  148.8840 C   0  0  0  0  0  3  0  0  0  0  0  0
  161.0430  205.4810  150.2470 C   0  0  0  0  0  0  0  0  0  0  0  0
  160.6870  204.2410  148.1820 C   0  0  0  0  0  3  0  0  0  0  0  0
  160.8490  206.6290  152.4430 C   0  0  0  0  0  0  0  0  0  0  0  0
  161.0690  205.3620  153.0850 N   0  0  0  0  0  2  0  0  0  0  0  0
  161.0700  201.7800  148.0720 C   0  0  0  0  0  0  0  0  0  0  0  0
  160.6640  201.7410  146.7360 O   0  0  0  0  0  0  0  0  0  0  0  0
  161.4610  200.7290  148.6490 O   0  0  0  0  0  1  0  0  0  0  0  0
  1 18  1  1  0  0  0
  1  7  1  0  0  0  0
  4  5  1  0  0  0  0
  6  3  1  6  0  0  0
  6  8  1  0  0  0  0
  7  6  1  0  0  0  0
  7  4  1  1  0  0  0
  8  5  1  0  0  0  0
  9 10  1  0  0  0  0
  9  2  1  0  0  0  0
 10 15  1  6  0  0  0
 10 13  1  0  0  0  0
 12  2  1  6  0  0  0
 12  3  1  0  0  0  0
 13 11  1  1  0  0  0
 13 14  1  0  0  0  0
 14 12  1  0  0  0  0
 14  1  1  0  0  0  0
 16 15  1  0  0  0  0
 17 15  1  0  0  0  0
 18 20  1  0  0  0  0
 19 18  1  0  0  0  0
 20 22  1  0  0  0  0
 21 31  1  0  0  0  0
 22 30  1  0  0  0  0
 23 24  1  0  0  0  0
 24 25  2  0  0  0  0
 25 21  1  0  0  0  0
 27 28  2  0  0  0  0
 28 25  1  0  0  0  0
 28 22  1  0  0  0  0
 29 23  2  0  0  0  0
 29 27  1  0  0  0  0
 30 31  1  0  0  0  0
 30 26  2  0  0  0  0
 32 34  1  0  0  0  0
 32 23  1  0  0  0  0
 33 32  2  0  0  0  0
M  END
>  <MODEL>
2

>  <REMARK>
 VINA RESULT:      -6.0      3.573      5.534
  Name = 
  5 active torsions:
  status: ('A' for Active; 'I' for Inactive)
    1  A    between atoms: C_1  and  C_8
    2  A    between atoms: C_3  and  C_25
    3  A    between atoms: C_6  and  S_17
    4  A    between atoms: C_7  and  C_11
    5  A    between atoms: C_8  and  S_17
                            x       y       z     vdW  Elec       q    Type
                         _______ _______ _______ _____ _____    ______ ____

>  <TORSDO>
F 5

$$$$
=
 OpenBabel11062409423D

 34 38  0  0  1  0  0  0  0  0999 V2000
  160.2480  211.4030  153.8500 C   0  0  2  0  0  3  0  0  0  0  0  0
  156.6500  210.8790  155.3660 C   0  0  0  0  0  2  0  0  0  0  0  0
  159.0090  210.3140  156.3990 C   0  0  0  0  0  2  0  0  0  0  0  0
  162.3530  210.9440  155.1860 N   0  0  0  0  0  2  0  0  0  0  0  0
  162.6230  210.0320  156.2920 C   0  0  0  0  0  2  0  0  0  0  0  0
  160.2980  209.9040  155.8040 N   0  0  1  0  0  0  0  0  0  0  0  0
  160.8990  211.0940  155.2070 C   0  0  2  0  0  3  0  0  0  0  0  0
  161.2740  209.5460  156.8160 C   0  0  0  0  0  2  0  0  0  0  0  0
  155.9510  211.8880  154.4430 C   0  0  0  0  0  2  0  0  0  0  0  0
  156.7670  213.2020  154.3320 C   0  0  1  0  0  3  0  0  0  0  0  0
  159.1190  214.0850  154.2390 C   0  0  0  0  0  1  0  0  0  0  0  0
  158.1560  211.1480  155.4190 C   0  0  1  0  0  3  0  0  0  0  0  0
  158.1850  212.9900  153.7290 C   0  0  1  0  0  3  0  0  0  0  0  0
  158.7190  211.5710  154.0430 C   0  0  1  0  0  3  0  0  0  0  0  0
  155.9850  214.3490  153.6820 C   0  0  1  0  0  3  0  0  0  0  0  0
  156.0830  214.3280  152.1620 C   0  0  0  0  0  1  0  0  0  0  0  0
  154.6360  214.3160  154.0680 O   0  0  0  0  0  1  0  0  0  0  0  0
  160.5610  210.4740  152.6530 C   0  0  1  0  0  3  0  0  0  0  0  0
  160.8770  211.2920  151.4100 C   0  0  0  0  0  1  0  0  0  0  0  0
  161.8060  209.1490  152.9470 S   0  0  0  0  0  0  0  0  0  0  0  0
  162.1950  205.0500  152.4730 C   0  0  0  0  0  2  0  0  0  0  0  0
  160.7210  207.6600  152.6930 C   0  0  1  0  0  3  0  0  0  0  0  0
  161.5580  205.8830  148.8350 C   0  0  0  0  0  0  0  0  0  0  0  0
  162.0030  205.2500  149.9980 C   0  0  0  0  0  3  0  0  0  0  0  0
  161.7140  205.7910  151.2650 C   0  0  0  0  0  0  0  0  0  0  0  0
  160.1350  206.9110  154.8890 O   0  0  0  0  0  0  0  0  0  0  0  0
  160.5470  207.6250  150.1900 C   0  0  0  0  0  3  0  0  0  0  0  0
  161.0030  207.0110  151.3630 C   0  0  0  0  0  0  0  0  0  0  0  0
  160.8050  207.0570  148.9370 C   0  0  0  0  0  3  0  0  0  0  0  0
  160.7260  206.6460  153.8070 C   0  0  0  0  0  0  0  0  0  0  0  0
  161.3960  205.3840  153.6590 N   0  0  0  0  0  2  0  0  0  0  0  0
  161.9060  205.3280  147.5180 C   0  0  0  0  0  0  0  0  0  0  0  0
  161.8590  203.9490  147.3040 O   0  0  0  0  0  1  0  0  0  0  0  0
  162.2710  206.1030  146.5930 O   0  0  0  0  0  0  0  0  0  0  0  0
  1 18  1  6  0  0  0
  1 14  1  0  0  0  0
  1  7  1  0  0  0  0
  4  5  1  0  0  0  0
  5  8  1  0  0  0  0
  6  3  1  1  0  0  0
  6  8  1  0  0  0  0
  7  4  1  6  0  0  0
  7  6  1  0  0  0  0
  9  2  1  0  0  0  0
 10 15  1  6  0  0  0
 10  9  1  0  0  0  0
 12  2  1  6  0  0  0
 12  3  1  0  0  0  0
 13 14  1  0  0  0  0
 13 11  1  1  0  0  0
 13 10  1  0  0  0  0
 14 12  1  0  0  0  0
 15 17  1  0  0  0  0
 16 15  1  0  0  0  0
 18 20  1  0  0  0  0
 19 18  1  0  0  0  0
 21 31  1  0  0  0  0
 22 20  1  0  0  0  0
 22 30  1  0  0  0  0
 23 29  2  0  0  0  0
 23 24  1  0  0  0  0
 24 25  2  0  0  0  0
 25 28  1  0  0  0  0
 25 21  1  0  0  0  0
 27 28  2  0  0  0  0
 28 22  1  0  0  0  0
 29 27  1  0  0  0  0
 30 26  2  0  0  0  0
 31 30  1  0  0  0  0
 32 23  1  0  0  0  0
 33 32  1  0  0  0  0
 34 32  2  0  0  0  0
M  END
>  <MODEL>
3

>  <REMARK>
 VINA RESULT:      -5.7      2.086      2.821
  Name = 
  5 active torsions:
  status: ('A' for Active; 'I' for Inactive)
    1  A    between atoms: C_1  and  C_8
    2  A    between atoms: C_3  and  C_25
    3  A    between atoms: C_6  and  S_17
    4  A    between atoms: C_7  and  C_11
    5  A    between atoms: C_8  and  S_17
                            x       y       z     vdW  Elec       q    Type
                         _______ _______ _______ _____ _____    ______ ____

>  <TORSDO>
F 5

$$$$
=
 OpenBabel11062409423D

 34 38  0  0  1  0  0  0  0  0999 V2000
  158.9970  211.4200  153.5940 C   0  0  2  0  0  3  0  0  0  0  0  0
  158.2300  214.4230  156.0250 C   0  0  0  0  0  2  0  0  0  0  0  0
  158.9540  214.4530  153.4910 C   0  0  0  0  0  2  0  0  0  0  0  0
  159.4750  211.7690  151.1290 N   0  0  0  0  0  2  0  0  0  0  0  0
  160.0410  212.8990  150.3990 C   0  0  0  0  0  2  0  0  0  0  0  0
  159.7990  213.5580  152.6730 N   0  0  1  0  0  0  0  0  0  0  0  0
  159.0100  212.3630  152.3820 C   0  0  2  0  0  3  0  0  0  0  0  0
  160.0360  214.0960  151.3460 C   0  0  0  0  0  2  0  0  0  0  0  0
  157.4240  213.5940  157.0360 C   0  0  0  0  0  2  0  0  0  0  0  0
  156.4200  212.6580  156.3160 C   0  0  1  0  0  3  0  0  0  0  0  0
  156.1460  211.2280  154.2660 C   0  0  0  0  0  1  0  0  0  0  0  0
  158.2940  213.7100  154.6720 C   0  0  1  0  0  3  0  0  0  0  0  0
  157.1110  211.6260  155.3800 C   0  0  1  0  0  3  0  0  0  0  0  0
  158.4460  212.1800  154.8280 C   0  0  1  0  0  3  0  0  0  0  0  0
  155.3840  212.0360  157.2610 C   0  0  1  0  0  3  0  0  0  0  0  0
  154.0600  212.7870  157.2430 C   0  0  0  0  0  1  0  0  0  0  0  0
  155.1650  210.6870  156.9410 O   0  0  0  0  0  1  0  0  0  0  0  0
  160.2920  210.6490  153.9450 C   0  0  1  0  0  3  0  0  0  0  0  0
  160.9290  211.2180  155.2040 C   0  0  0  0  0  1  0  0  0  0  0  0
  160.1630  208.8120  154.0030 S   0  0  0  0  0  0  0  0  0  0  0  0
  161.1960  208.1840  150.0380 C   0  0  0  0  0  2  0  0  0  0  0  0
  161.6680  208.3780  153.0000 C   0  0  1  0  0  3  0  0  0  0  0  0
  161.0840  204.5440  151.0750 C   0  0  0  0  0  0  0  0  0  0  0  0
  161.0250  205.7160  150.3140 C   0  0  0  0  0  3  0  0  0  0  0  0
  161.2450  206.9710  150.9120 C   0  0  0  0  0  0  0  0  0  0  0  0
  162.7240  210.4640  152.4900 O   0  0  0  0  0  0  0  0  0  0  0  0
  161.5600  205.8720  153.0500 C   0  0  0  0  0  3  0  0  0  0  0  0
  161.4860  207.0540  152.3040 C   0  0  0  0  0  0  0  0  0  0  0  0
  161.3810  204.6260  152.4390 C   0  0  0  0  0  3  0  0  0  0  0  0
  162.1460  209.4360  152.0410 C   0  0  0  0  0  0  0  0  0  0  0  0
  161.9530  209.2970  150.6240 N   0  0  0  0  0  2  0  0  0  0  0  0
  160.8080  203.2450  150.4430 C   0  0  0  0  0  0  0  0  0  0  0  0
  160.4630  203.1820  149.0910 O   0  0  0  0  0  0  0  0  0  0  0  0
  160.8620  202.1930  151.1350 O   0  0  0  0  0  1  0  0  0  0  0  0
  1 18  1  1  0  0  0
  1 14  1  0  0  0  0
  2  9  1  0  0  0  0
  5  4  1  0  0  0  0
  5  8  1  0  0  0  0
  6  8  1  6  0  0  0
  6  3  1  0  0  0  0
  7  4  1  6  0  0  0
  7  6  1  0  0  0  0
  7  1  1  0  0  0  0
 10  9  1  0  0  0  0
 10 15  1  1  0  0  0
 12  3  1  6  0  0  0
 12 14  1  0  0  0  0
 12  2  1  0  0  0  0
 13 11  1  6  0  0  0
 13 10  1  0  0  0  0
 14 13  1  0  0  0  0
 16 15  1  0  0  0  0
 17 15  1  0  0  0  0
 18 20  1  0  0  0  0
 18 19  1  0  0  0  0
 21 31  1  0  0  0  0
 21 25  1  0  0  0  0
 22 20  1  0  0  0  0
 23 29  1  0  0  0  0
 24 25  1  0  0  0  0
 24 23  2  0  0  0  0
 25 28  2  0  0  0  0
 28 22  1  0  0  0  0
 28 27  1  0  0  0  0
 29 27  2  0  0  0  0
 30 26  2  0  0  0  0
 30 22  1  0  0  0  0
 31 30  1  0  0  0  0
 32 23  1  0  0  0  0
 32 34  1  0  0  0  0
 33 32  2  0  0  0  0
M  END
>  <MODEL>
4

>  <REMARK>
 VINA RESULT:      -5.0      2.164      3.269
  Name = 
  5 active torsions:
  status: ('A' for Active; 'I' for Inactive)
    1  A    between atoms: C_1  and  C_8
    2  A    between atoms: C_3  and  C_25
    3  A    between atoms: C_6  and  S_17
    4  A    between atoms: C_7  and  C_11
    5  A    between atoms: C_8  and  S_17
                            x       y       z     vdW  Elec       q    Type
                         _______ _______ _______ _____ _____    ______ ____

>  <TORSDO>
F 5

$$$$
=
 OpenBabel11062409423D

 34 38  0  0  1  0  0  0  0  0999 V2000
  159.7220  211.5920  153.5320 C   0  0  2  0  0  3  0  0  0  0  0  0
  157.5090  214.3950  155.1920 C   0  0  0  0  0  2  0  0  0  0  0  0
  158.5850  214.3070  152.7880 C   0  0  0  0  0  2  0  0  0  0  0  0
  160.4450  211.7070  151.1040 N   0  0  0  0  0  2  0  0  0  0  0  0
  160.6700  212.8380  150.2090 C   0  0  0  0  0  2  0  0  0  0  0  0
  159.8240  213.6990  152.2600 N   0  0  1  0  0  0  0  0  0  0  0  0
  159.5910  212.2610  152.1550 C   0  0  2  0  0  3  0  0  0  0  0  0
  160.0660  214.0690  150.8780 C   0  0  0  0  0  2  0  0  0  0  0  0
  156.9060  213.4880  156.2750 C   0  0  0  0  0  2  0  0  0  0  0  0
  156.4520  212.1310  155.6770 C   0  0  1  0  0  3  0  0  0  0  0  0
  157.0720  210.4040  153.9580 C   0  0  0  0  0  1  0  0  0  0  0  0
  158.0570  213.5610  154.0320 C   0  0  1  0  0  3  0  0  0  0  0  0
  157.6220  211.3200  155.0490 C   0  0  1  0  0  3  0  0  0  0  0  0
  158.7320  212.2590  154.5200 C   0  0  1  0  0  3  0  0  0  0  0  0
  155.5750  211.3100  156.6300 C   0  0  1  0  0  3  0  0  0  0  0  0
  154.4680  212.1430  157.2610 C   0  0  0  0  0  1  0  0  0  0  0  0
  155.0150  210.2070  155.9660 O   0  0  0  0  0  1  0  0  0  0  0  0
  161.1310  211.4590  154.1570 C   0  0  1  0  0  3  0  0  0  0  0  0
  161.0690  211.6590  155.6630 C   0  0  0  0  0  1  0  0  0  0  0  0
  162.0930  209.9570  153.6960 S   0  0  0  0  0  0  0  0  0  0  0  0
  161.4600  205.8640  153.8490 C   0  0  0  0  0  2  0  0  0  0  0  0
  160.6890  208.7490  153.5170 C   0  0  1  0  0  3  0  0  0  0  0  0
  161.3790  206.2090  150.0800 C   0  0  0  0  0  0  0  0  0  0  0  0
  161.5440  205.6890  151.3670 C   0  0  0  0  0  3  0  0  0  0  0  0
  161.2930  206.4870  152.4990 C   0  0  0  0  0  0  0  0  0  0  0  0
  159.7410  208.5380  155.7030 O   0  0  0  0  0  0  0  0  0  0  0  0
  160.7330  208.3420  151.0410 C   0  0  0  0  0  3  0  0  0  0  0  0
  160.9110  207.8400  152.3360 C   0  0  0  0  0  0  0  0  0  0  0  0
  160.9450  207.5290  149.9220 C   0  0  0  0  0  3  0  0  0  0  0  0
  160.3380  207.9630  154.7520 C   0  0  0  0  0  0  0  0  0  0  0  0
  160.6730  206.5710  154.8670 N   0  0  0  0  0  2  0  0  0  0  0  0
  161.6880  205.3750  148.9080 C   0  0  0  0  0  0  0  0  0  0  0  0
  162.2570  205.9500  147.7690 O   0  0  0  0  0  0  0  0  0  0  0  0
  161.4140  204.1440  148.9300 O   0  0  0  0  0  1  0  0  0  0  0  0
  1 18  1  1  0  0  0
  1 14  1  0  0  0  0
  2  9  1  0  0  0  0
  5  8  1  0  0  0  0
  5  4  1  0  0  0  0
  6  8  1  6  0  0  0
  6  3  1  0  0  0  0
  7  4  1  6  0  0  0
  7  6  1  0  0  0  0
  7  1  1  0  0  0  0
 10  9  1  0  0  0  0
 10 15  1  1  0  0  0
 12  3  1  1  0  0  0
 12 14  1  0  0  0  0
 12  2  1  0  0  0  0
 13 11  1  6  0  0  0
 13 10  1  0  0  0  0
 14 13  1  0  0  0  0
 15 16  1  0  0  0  0
 17 15  1  0  0  0  0
 18 19  1  0  0  0  0
 20 18  1  0  0  0  0
 21 31  1  0  0  0  0
 22 20  1  0  0  0  0
 22 30  1  0  0  0  0
 23 24  1  0  0  0  0
 24 25  2  0  0  0  0
 25 21  1  0  0  0  0
 27 28  2  0  0  0  0
 28 25  1  0  0  0  0
 28 22  1  0  0  0  0
 29 23  2  0  0  0  0
 29 27  1  0  0  0  0
 30 31  1  0  0  0  0
 30 26  2  0  0  0  0
 32 34  1  0  0  0  0
 32 23  1  0  0  0  0
 33 32  2  0  0  0  0
M  END
>  <MODEL>
5

>  <REMARK>
 VINA RESULT:      -4.7      2.517      3.968
  Name = 
  5 active torsions:
  status: ('A' for Active; 'I' for Inactive)
    1  A    between atoms: C_1  and  C_8
    2  A    between atoms: C_3  and  C_25
    3  A    between atoms: C_6  and  S_17
    4  A    between atoms: C_7  and  C_11
    5  A    between atoms: C_8  and  S_17
                            x       y       z     vdW  Elec       q    Type
                         _______ _______ _______ _____ _____    ______ ____

>  <TORSDO>
F 5

$$$$
=
 OpenBabel11062409423D

 34 38  0  0  1  0  0  0  0  0999 V2000
  160.5090  211.0340  154.0630 C   0  0  2  0  0  3  0  0  0  0  0  0
  156.9240  210.8150  155.6790 C   0  0  0  0  0  2  0  0  0  0  0  0
  159.2850  210.3620  156.7580 C   0  0  0  0  0  2  0  0  0  0  0  0
  162.6240  210.7360  155.4290 N   0  0  0  0  0  2  0  0  0  0  0  0
  162.8920  209.9930  156.6560 C   0  0  0  0  0  2  0  0  0  0  0  0
  160.5580  209.8420  156.2170 N   0  0  1  0  0  0  0  0  0  0  0  0
  161.1730  210.9170  155.4430 C   0  0  2  0  0  3  0  0  0  0  0  0
  161.5410  209.6180  157.2600 C   0  0  0  0  0  2  0  0  0  0  0  0
  156.2310  211.6900  154.6230 C   0  0  0  0  0  2  0  0  0  0  0  0
  157.0700  212.9560  154.3090 C   0  0  1  0  0  3  0  0  0  0  0  0
  159.4370  213.7670  154.0600 C   0  0  0  0  0  1  0  0  0  0  0  0
  158.4350  211.0590  155.6740 C   0  0  1  0  0  3  0  0  0  0  0  0
  158.4750  212.6270  153.7290 C   0  0  1  0  0  3  0  0  0  0  0  0
  158.9870  211.2610  154.2450 C   0  0  1  0  0  3  0  0  0  0  0  0
  156.3010  214.0100  153.5030 C   0  0  1  0  0  3  0  0  0  0  0  0
  156.7480  214.0660  152.0490 C   0  0  0  0  0  1  0  0  0  0  0  0
  154.9190  213.7720  153.5630 O   0  0  0  0  0  1  0  0  0  0  0  0
  160.7880  209.9320  153.0140 C   0  0  1  0  0  3  0  0  0  0  0  0
  160.0610  208.6470  153.3810 C   0  0  0  0  0  1  0  0  0  0  0  0
  160.5290  210.3940  151.2490 S   0  0  0  0  0  0  0  0  0  0  0  0
  161.2160  207.6720  148.2010 C   0  0  0  0  0  2  0  0  0  0  0  0
  161.9560  209.4750  150.4880 C   0  0  1  0  0  3  0  0  0  0  0  0
  161.4290  205.2180  151.0760 C   0  0  0  0  0  0  0  0  0  0  0  0
  161.2250  205.7710  149.8080 C   0  0  0  0  0  3  0  0  0  0  0  0
  161.4230  207.1470  149.5860 C   0  0  0  0  0  0  0  0  0  0  0  0
  162.8270  210.9270  148.7980 O   0  0  0  0  0  0  0  0  0  0  0  0
  162.0080  207.4170  151.9240 C   0  0  0  0  0  3  0  0  0  0  0  0
  161.7900  207.9880  150.6640 C   0  0  0  0  0  0  0  0  0  0  0  0
  161.8490  206.0420  152.1250 C   0  0  0  0  0  3  0  0  0  0  0  0
  162.2740  209.8230  149.0590 C   0  0  0  0  0  0  0  0  0  0  0  0
  161.9550  208.9220  147.9860 N   0  0  0  0  0  2  0  0  0  0  0  0
  161.1750  203.7870  151.3000 C   0  0  0  0  0  0  0  0  0  0  0  0
  160.7410  203.3400  152.5500 O   0  0  0  0  0  1  0  0  0  0  0  0
  161.3750  202.9650  150.3650 O   0  0  0  0  0  0  0  0  0  0  0  0
  1 18  1  6  0  0  0
  1 14  1  0  0  0  0
  1  7  1  0  0  0  0
  4  5  1  0  0  0  0
  5  8  1  0  0  0  0
  6  3  1  1  0  0  0
  6  8  1  0  0  0  0
  7  4  1  6  0  0  0
  7  6  1  0  0  0  0
  9  2  1  0  0  0  0
 10 15  1  6  0  0  0
 10  9  1  0  0  0  0
 12  2  1  6  0  0  0
 12  3  1  0  0  0  0
 13 11  1  1  0  0  0
 13 14  1  0  0  0  0
 13 10  1  0  0  0  0
 14 12  1  0  0  0  0
 15 17  1  0  0  0  0
 16 15  1  0  0  0  0
 18 19  1  0  0  0  0
 20 18  1  0  0  0  0
 21 25  1  0  0  0  0
 22 28  1  0  0  0  0
 22 20  1  0  0  0  0
 23 32  1  0  0  0  0
 23 29  1  0  0  0  0
 24 23  2  0  0  0  0
 25 24  1  0  0  0  0
 25 28  2  0  0  0  0
 26 30  2  0  0  0  0
 27 29  2  0  0  0  0
 28 27  1  0  0  0  0
 30 22  1  0  0  0  0
 31 21  1  0  0  0  0
 31 30  1  0  0  0  0
 32 33  1  0  0  0  0
 34 32  2  0  0  0  0
M  END
>  <MODEL>
6

>  <REMARK>
 VINA RESULT:      -4.4      1.511      1.939
  Name = 
  5 active torsions:
  status: ('A' for Active; 'I' for Inactive)
    1  A    between atoms: C_1  and  C_8
    2  A    between atoms: C_3  and  C_25
    3  A    between atoms: C_6  and  S_17
    4  A    between atoms: C_7  and  C_11
    5  A    between atoms: C_8  and  S_17
                            x       y       z     vdW  Elec       q    Type
                         _______ _______ _______ _____ _____    ______ ____

>  <TORSDO>
F 5

$$$$
=
 OpenBabel11062409423D

 34 38  0  0  1  0  0  0  0  0999 V2000
  159.5980  212.6100  153.3250 C   0  0  2  0  0  3  0  0  0  0  0  0
  156.5360  213.3490  150.9610 C   0  0  0  0  0  2  0  0  0  0  0  0
  156.8850  213.9610  153.5010 C   0  0  0  0  0  2  0  0  0  0  0  0
  159.7250  213.5160  155.6900 N   0  0  0  0  0  2  0  0  0  0  0  0
  158.6870  213.8810  156.6480 C   0  0  0  0  0  2  0  0  0  0  0  0
  157.6110  213.3010  154.6060 N   0  0  1  0  0  0  0  0  0  0  0  0
  159.0360  213.5520  154.4010 C   0  0  2  0  0  3  0  0  0  0  0  0
  157.3690  213.9510  155.8800 C   0  0  0  0  0  2  0  0  0  0  0  0
  157.3140  213.1680  149.6490 C   0  0  0  0  0  2  0  0  0  0  0  0
  158.6830  213.8940  149.7060 C   0  0  1  0  0  3  0  0  0  0  0  0
  160.5780  214.4530  151.2610 C   0  0  0  0  0  1  0  0  0  0  0  0
  157.4940  213.6230  152.1230 C   0  0  1  0  0  3  0  0  0  0  0  0
  159.6140  213.3510  150.8280 C   0  0  1  0  0  3  0  0  0  0  0  0
  158.7920  212.7920  152.0140 C   0  0  1  0  0  3  0  0  0  0  0  0
  159.3670  214.0100  148.3390 C   0  0  1  0  0  3  0  0  0  0  0  0
  160.4310  212.9420  148.1310 C   0  0  0  0  0  1  0  0  0  0  0  0
  158.4230  213.9440  147.3020 O   0  0  0  0  0  1  0  0  0  0  0  0
  159.7710  211.1120  153.6720 C   0  0  1  0  0  3  0  0  0  0  0  0
  159.0160  210.7680  154.9470 C   0  0  0  0  0  1  0  0  0  0  0  0
  159.4260  209.9120  152.3180 S   0  0  0  0  0  0  0  0  0  0  0  0
  161.5810  208.0930  149.2800 C   0  0  0  0  0  2  0  0  0  0  0  0
  161.1630  209.3340  151.9850 C   0  0  1  0  0  3  0  0  0  0  0  0
  161.1990  205.0340  151.4790 C   0  0  0  0  0  0  0  0  0  0  0  0
  161.3560  205.8630  150.3640 C   0  0  0  0  0  3  0  0  0  0  0  0
  161.3810  207.2630  150.5090 C   0  0  0  0  0  0  0  0  0  0  0  0
  162.3050  211.2270  151.0690 O   0  0  0  0  0  0  0  0  0  0  0  0
  161.0640  206.9990  152.8980 C   0  0  0  0  0  3  0  0  0  0  0  0
  161.2030  207.8410  151.7880 C   0  0  0  0  0  0  0  0  0  0  0  0
  161.0820  205.6080  152.7490 C   0  0  0  0  0  3  0  0  0  0  0  0
  161.8920  210.0500  150.8790 C   0  0  0  0  0  0  0  0  0  0  0  0
  162.1240  209.4160  149.6100 N   0  0  0  0  0  2  0  0  0  0  0  0
  161.1310  203.5760  151.3050 C   0  0  0  0  0  0  0  0  0  0  0  0
  160.8230  202.7540  152.3910 O   0  0  0  0  0  1  0  0  0  0  0  0
  161.3750  203.0720  150.1740 O   0  0  0  0  0  0  0  0  0  0  0  0
  1 18  1  1  0  0  0
  1  7  1  0  0  0  0
  4  5  1  0  0  0  0
  6  3  1  6  0  0  0
  6  8  1  0  0  0  0
  7  6  1  0  0  0  0
  7  4  1  1  0  0  0
  8  5  1  0  0  0  0
  9 10  1  0  0  0  0
  9  2  1  0  0  0  0
 10 15  1  6  0  0  0
 10 13  1  0  0  0  0
 12  2  1  6  0  0  0
 12  3  1  0  0  0  0
 13 11  1  1  0  0  0
 13 14  1  0  0  0  0
 14 12  1  0  0  0  0
 14  1  1  0  0  0  0
 16 15  1  0  0  0  0
 17 15  1  0  0  0  0
 18 19  1  0  0  0  0
 20 18  1  0  0  0  0
 21 31  1  0  0  0  0
 21 25  1  0  0  0  0
 22 20  1  0  0  0  0
 23 29  1  0  0  0  0
 24 25  1  0  0  0  0
 24 23  2  0  0  0  0
 25 28  2  0  0  0  0
 28 22  1  0  0  0  0
 28 27  1  0  0  0  0
 29 27  2  0  0  0  0
 30 26  2  0  0  0  0
 30 22  1  0  0  0  0
 31 30  1  0  0  0  0
 32 23  1  0  0  0  0
 32 33  1  0  0  0  0
 34 32  2  0  0  0  0
M  END
>  <MODEL>
7

>  <REMARK>
 VINA RESULT:      -4.2      2.448      3.950
  Name = 
  5 active torsions:
  status: ('A' for Active; 'I' for Inactive)
    1  A    between atoms: C_1  and  C_8
    2  A    between atoms: C_3  and  C_25
    3  A    between atoms: C_6  and  S_17
    4  A    between atoms: C_7  and  C_11
    5  A    between atoms: C_8  and  S_17
                            x       y       z     vdW  Elec       q    Type
                         _______ _______ _______ _____ _____    ______ ____

>  <TORSDO>
F 5

$$$$
