=
 OpenBabel11052423143D

 27 30  0  0  1  0  0  0  0  0999 V2000
  161.1410  205.7010  149.7330 C   0  0  2  0  0  3  0  0  0  0  0  0
  161.1320  206.6440  150.9060 C   0  0  0  0  0  0  0  0  0  0  0  0
  161.6930  208.7290  149.5580 C   0  0  0  0  0  1  0  0  0  0  0  0
  160.9950  208.4830  155.2320 C   0  0  0  0  0  3  0  0  0  0  0  0
  161.2760  209.8120  154.9390 C   0  0  0  0  0  3  0  0  0  0  0  0
  160.9210  206.2800  152.2250 C   0  0  0  0  0  3  0  0  0  0  0  0
  161.5700  209.8850  152.4300 C   0  0  0  0  0  0  0  0  0  0  0  0
  161.8470  210.7650  151.4350 F   0  0  0  0  0  0  0  0  0  0  0  0
  161.3540  208.5420  152.1040 C   0  0  0  0  0  0  0  0  0  0  0  0
  161.5260  210.4210  153.7130 C   0  0  0  0  0  3  0  0  0  0  0  0
  161.0440  207.4230  152.9910 C   0  0  0  0  0  0  0  0  0  0  0  0
  161.3990  207.9990  150.8280 C   0  0  0  0  0  0  0  0  0  0  0  0
  160.8910  207.4070  154.3650 C   0  0  0  0  0  3  0  0  0  0  0  0
  160.8300  201.4160  150.4520 C   0  0  0  0  0  3  0  0  0  0  0  0
  160.7730  204.2470  150.0670 C   0  0  2  0  0  3  0  0  0  0  0  0
  161.5800  203.6700  151.2350 C   0  0  0  0  0  2  0  0  0  0  0  0
  161.3610  202.1890  151.4110 C   0  0  0  0  0  3  0  0  0  0  0  0
  160.3090  201.9790  149.1550 C   0  0  0  0  0  2  0  0  0  0  0  0
  160.9060  203.3490  148.8410 C   0  0  0  0  0  2  0  0  0  0  0  0
  162.2970  205.9260  148.7420 C   0  0  0  0  0  2  0  0  0  0  0  0
  160.5210  205.2570  144.5830 C   0  0  0  0  0  3  0  0  0  0  0  0
  161.2060  203.9830  144.9480 C   0  0  0  0  0  2  0  0  0  0  0  0
  161.9450  205.7130  147.3030 C   0  0  0  0  0  0  0  0  0  0  0  0
  160.3290  206.2550  145.4440 C   0  0  0  0  0  3  0  0  0  0  0  0
  162.6060  204.2200  145.4060 C   0  0  0  0  0  3  0  0  0  0  0  0
  162.9090  204.9570  146.4740 C   0  0  0  0  0  3  0  0  0  0  0  0
  160.8320  206.2950  146.8310 C   0  0  0  0  0  3  0  0  0  0  0  0
  1 20  1  1  0  0  0
  1  2  1  0  0  0  0
  2  6  1  0  0  0  0
  3 12  1  0  0  0  0
  5  4  1  0  0  0  0
  6 11  2  0  0  0  0
  7 10  1  0  0  0  0
  8  7  1  0  0  0  0
  9  7  2  0  0  0  0
  9 11  1  0  0  0  0
 10  5  2  0  0  0  0
 11 13  1  0  0  0  0
 12  2  2  0  0  0  0
 12  9  1  0  0  0  0
 13  4  2  0  0  0  0
 14 17  2  0  0  0  0
 15  1  1  6  0  0  0
 15 16  1  0  0  0  0
 16 17  1  0  0  0  0
 18 14  1  0  0  0  0
 19 18  1  0  0  0  0
 19 15  1  0  0  0  0
 21 22  1  0  0  0  0
 21 24  2  0  0  0  0
 22 25  1  0  0  0  0
 23 20  1  0  0  0  0
 24 27  1  0  0  0  0
 25 26  2  0  0  0  0
 26 23  1  0  0  0  0
 27 23  2  0  0  0  0
M  END
>  <MODEL>
1

>  <REMARK>
 VINA RESULT:     -10.9      0.000      0.000
  Name = 
  4 active torsions:
  status: ('A' for Active; 'I' for Inactive)
    1  A    between atoms: C_1  and  C_15
    2  A    between atoms: C_1  and  C_18
    3  A    between atoms: C_2  and  C_15
    4  A    between atoms: C_9  and  C_15
                            x       y       z     vdW  Elec       q    Type
                         _______ _______ _______ _____ _____    ______ ____

>  <TORSDO>
F 4

$$$$
=
 OpenBabel11052423143D

 27 30  0  0  1  0  0  0  0  0999 V2000
  160.9750  206.8460  151.3320 C   0  0  2  0  0  3  0  0  0  0  0  0
  160.9780  205.5840  150.5140 C   0  0  0  0  0  0  0  0  0  0  0  0
  160.6650  204.0040  152.4850 C   0  0  0  0  0  1  0  0  0  0  0  0
  161.3220  202.4610  147.0140 C   0  0  0  0  0  3  0  0  0  0  0  0
  161.1750  201.2790  147.7290 C   0  0  0  0  0  3  0  0  0  0  0  0
  161.1660  205.5170  149.1440 C   0  0  0  0  0  3  0  0  0  0  0  0
  160.8800  201.9970  150.1340 C   0  0  0  0  0  0  0  0  0  0  0  0
  160.6910  201.4650  151.3680 F   0  0  0  0  0  0  0  0  0  0  0  0
  160.9550  203.3870  150.0010 C   0  0  0  0  0  0  0  0  0  0  0  0
  160.9810  201.0800  149.0930 C   0  0  0  0  0  3  0  0  0  0  0  0
  161.1520  204.1820  148.7910 C   0  0  0  0  0  0  0  0  0  0  0  0
  160.8580  204.3080  151.0350 C   0  0  0  0  0  0  0  0  0  0  0  0
  161.3140  203.7660  147.4830 C   0  0  0  0  0  3  0  0  0  0  0  0
  162.2660  210.2650  148.9610 C   0  0  0  0  0  3  0  0  0  0  0  0
  161.1700  208.1410  150.5280 C   0  0  2  0  0  3  0  0  0  0  0  0
  161.4710  207.8950  149.0460 C   0  0  0  0  0  2  0  0  0  0  0  0
  161.8680  209.1550  148.3210 C   0  0  0  0  0  3  0  0  0  0  0  0
  162.2500  210.3810  150.4640 C   0  0  0  0  0  2  0  0  0  0  0  0
  162.2550  209.0160  151.1470 C   0  0  0  0  0  2  0  0  0  0  0  0
  161.7110  206.7360  152.6800 C   0  0  0  0  0  2  0  0  0  0  0  0
  160.2090  209.3980  156.0800 C   0  0  0  0  0  3  0  0  0  0  0  0
  160.7890  208.1880  156.7300 C   0  0  0  0  0  2  0  0  0  0  0  0
  161.0460  207.4400  153.8210 C   0  0  0  0  0  0  0  0  0  0  0  0
  160.3420  209.6640  154.7810 C   0  0  0  0  0  3  0  0  0  0  0  0
  160.2480  206.9300  156.1380 C   0  0  0  0  0  3  0  0  0  0  0  0
  160.4070  206.5990  154.8560 C   0  0  0  0  0  3  0  0  0  0  0  0
  160.9880  208.7800  153.7910 C   0  0  0  0  0  3  0  0  0  0  0  0
  1 20  1  1  0  0  0
  2 12  1  0  0  0  0
  2  1  1  0  0  0  0
  4 13  1  0  0  0  0
  4  5  2  0  0  0  0
  5 10  1  0  0  0  0
  6  2  2  0  0  0  0
  7  8  1  0  0  0  0
  9  7  1  0  0  0  0
  9 12  2  0  0  0  0
 10  7  2  0  0  0  0
 11  6  1  0  0  0  0
 11  9  1  0  0  0  0
 12  3  1  0  0  0  0
 13 11  2  0  0  0  0
 14 18  1  0  0  0  0
 15 19  1  0  0  0  0
 15  1  1  1  0  0  0
 16 15  1  0  0  0  0
 17 14  2  0  0  0  0
 17 16  1  0  0  0  0
 18 19  1  0  0  0  0
 20 23  1  0  0  0  0
 21 22  1  0  0  0  0
 23 26  1  0  0  0  0
 24 21  2  0  0  0  0
 25 22  1  0  0  0  0
 26 25  2  0  0  0  0
 27 23  2  0  0  0  0
 27 24  1  0  0  0  0
M  END
>  <MODEL>
2

>  <REMARK>
 VINA RESULT:      -9.2      2.438      7.932
  Name = 
  4 active torsions:
  status: ('A' for Active; 'I' for Inactive)
    1  A    between atoms: C_1  and  C_15
    2  A    between atoms: C_1  and  C_18
    3  A    between atoms: C_2  and  C_15
    4  A    between atoms: C_9  and  C_15
                            x       y       z     vdW  Elec       q    Type
                         _______ _______ _______ _____ _____    ______ ____

>  <TORSDO>
F 4

$$$$
=
 OpenBabel11052423143D

 27 30  0  0  1  0  0  0  0  0999 V2000
  160.8330  209.6890  153.3040 C   0  0  2  0  0  3  0  0  0  0  0  0
  161.0590  208.6800  152.2120 C   0  0  0  0  0  0  0  0  0  0  0  0
  162.0530  210.3270  150.5460 C   0  0  0  0  0  1  0  0  0  0  0  0
  161.0960  204.7640  149.6060 C   0  0  0  0  0  3  0  0  0  0  0  0
  161.6540  205.2600  148.4340 C   0  0  0  0  0  3  0  0  0  0  0  0
  160.7110  207.3410  152.2730 C   0  0  0  0  0  3  0  0  0  0  0  0
  162.0700  207.7110  148.8860 C   0  0  0  0  0  0  0  0  0  0  0  0
  162.5620  208.8180  148.2750 F   0  0  0  0  0  0  0  0  0  0  0  0
  161.6040  207.8150  150.2000 C   0  0  0  0  0  0  0  0  0  0  0  0
  162.0790  206.5480  148.1230 C   0  0  0  0  0  3  0  0  0  0  0  0
  161.0370  206.7750  151.0560 C   0  0  0  0  0  0  0  0  0  0  0  0
  161.5890  208.9720  150.9680 C   0  0  0  0  0  0  0  0  0  0  0  0
  160.8160  205.4370  150.7850 C   0  0  0  0  0  3  0  0  0  0  0  0
  162.6940  209.4640  157.2350 C   0  0  0  0  0  3  0  0  0  0  0  0
  161.7030  209.4970  154.5550 C   0  0  2  0  0  3  0  0  0  0  0  0
  161.1140  208.4970  155.5560 C   0  0  0  0  0  2  0  0  0  0  0  0
  161.8640  208.4790  156.8630 C   0  0  0  0  0  3  0  0  0  0  0  0
  163.0310  210.6230  156.3320 C   0  0  0  0  0  2  0  0  0  0  0  0
  161.9800  210.8290  155.2450 C   0  0  0  0  0  2  0  0  0  0  0  0
  159.3580  210.0740  153.5220 C   0  0  0  0  0  2  0  0  0  0  0  0
  157.6100  214.1540  152.4260 C   0  0  0  0  0  3  0  0  0  0  0  0
  158.3230  213.6710  151.2080 C   0  0  0  0  0  2  0  0  0  0  0  0
  159.0160  211.4870  153.1680 C   0  0  0  0  0  0  0  0  0  0  0  0
  157.3930  213.3910  153.4960 C   0  0  0  0  0  3  0  0  0  0  0  0
  159.7160  213.2360  151.5200 C   0  0  0  0  0  3  0  0  0  0  0  0
  159.9990  212.2410  152.3600 C   0  0  0  0  0  3  0  0  0  0  0  0
  157.8910  212.0130  153.6770 C   0  0  0  0  0  3  0  0  0  0  0  0
  1 20  1  1  0  0  0
  2  6  1  0  0  0  0
  2  1  1  0  0  0  0
  3 12  1  0  0  0  0
  4 13  2  0  0  0  0
  5  4  1  0  0  0  0
  7  9  2  0  0  0  0
  8  7  1  0  0  0  0
  9 12  1  0  0  0  0
  9 11  1  0  0  0  0
 10  5  2  0  0  0  0
 10  7  1  0  0  0  0
 11  6  2  0  0  0  0
 12  2  2  0  0  0  0
 13 11  1  0  0  0  0
 15  1  1  6  0  0  0
 15 19  1  0  0  0  0
 15 16  1  0  0  0  0
 16 17  1  0  0  0  0
 17 14  2  0  0  0  0
 18 14  1  0  0  0  0
 19 18  1  0  0  0  0
 21 24  2  0  0  0  0
 22 25  1  0  0  0  0
 22 21  1  0  0  0  0
 23 20  1  0  0  0  0
 23 27  2  0  0  0  0
 24 27  1  0  0  0  0
 25 26  2  0  0  0  0
 26 23  1  0  0  0  0
M  END
>  <MODEL>
3

>  <REMARK>
 VINA RESULT:      -8.9      2.581      7.722
  Name = 
  4 active torsions:
  status: ('A' for Active; 'I' for Inactive)
    1  A    between atoms: C_1  and  C_15
    2  A    between atoms: C_1  and  C_18
    3  A    between atoms: C_2  and  C_15
    4  A    between atoms: C_9  and  C_15
                            x       y       z     vdW  Elec       q    Type
                         _______ _______ _______ _____ _____    ______ ____

>  <TORSDO>
F 4

$$$$
=
 OpenBabel11052423143D

 27 30  0  0  1  0  0  0  0  0999 V2000
  161.2780  205.2410  149.6040 C   0  0  2  0  0  3  0  0  0  0  0  0
  161.2850  206.3560  150.6140 C   0  0  0  0  0  0  0  0  0  0  0  0
  161.1190  204.8460  152.6570 C   0  0  0  0  0  1  0  0  0  0  0  0
  161.2120  210.5680  152.7050 C   0  0  0  0  0  3  0  0  0  0  0  0
  161.1260  210.1750  154.0360 C   0  0  0  0  0  3  0  0  0  0  0  0
  161.3160  207.7070  150.3160 C   0  0  0  0  0  3  0  0  0  0  0  0
  161.0950  207.6490  153.9770 C   0  0  0  0  0  0  0  0  0  0  0  0
  161.0290  206.5850  154.8160 F   0  0  0  0  0  0  0  0  0  0  0  0
  161.1770  207.4200  152.6000 C   0  0  0  0  0  0  0  0  0  0  0  0
  161.0750  208.8990  154.5880 C   0  0  0  0  0  3  0  0  0  0  0  0
  161.2580  208.3940  151.5130 C   0  0  0  0  0  0  0  0  0  0  0  0
  161.1940  206.1770  151.9830 C   0  0  0  0  0  0  0  0  0  0  0  0
  161.2700  209.7750  151.5700 C   0  0  0  0  0  3  0  0  0  0  0  0
  161.9110  205.7900  145.3290 C   0  0  0  0  0  3  0  0  0  0  0  0
  161.6410  205.6620  148.1710 C   0  0  2  0  0  3  0  0  0  0  0  0
  160.4210  206.0400  147.3230 C   0  0  0  0  0  2  0  0  0  0  0  0
  160.7700  206.2430  145.8700 C   0  0  0  0  0  3  0  0  0  0  0  0
  162.9900  205.1330  146.1490 C   0  0  0  0  0  2  0  0  0  0  0  0
  162.4550  204.5810  147.4680 C   0  0  0  0  0  2  0  0  0  0  0  0
  160.1270  204.2330  149.7720 C   0  0  0  0  0  2  0  0  0  0  0  0
  161.6380  200.0610  148.6710 C   0  0  0  0  0  3  0  0  0  0  0  0
  161.7890  200.8910  147.4420 C   0  0  0  0  0  2  0  0  0  0  0  0
  160.4200  202.8520  149.2780 C   0  0  0  0  0  0  0  0  0  0  0  0
  161.3240  200.5700  149.8620 C   0  0  0  0  0  3  0  0  0  0  0  0
  160.5280  201.6140  147.1050 C   0  0  0  0  0  3  0  0  0  0  0  0
  159.9600  202.5070  147.9150 C   0  0  0  0  0  3  0  0  0  0  0  0
  160.9940  201.9840  150.1250 C   0  0  0  0  0  3  0  0  0  0  0  0
  1 20  1  6  0  0  0
  1  2  1  0  0  0  0
  2 12  1  0  0  0  0
  4  5  2  0  0  0  0
  5 10  1  0  0  0  0
  6  2  2  0  0  0  0
  6 11  1  0  0  0  0
  7 10  2  0  0  0  0
  7  8  1  0  0  0  0
  9  7  1  0  0  0  0
 11 13  2  0  0  0  0
 11  9  1  0  0  0  0
 12  9  2  0  0  0  0
 12  3  1  0  0  0  0
 13  4  1  0  0  0  0
 14 17  2  0  0  0  0
 14 18  1  0  0  0  0
 15  1  1  1  0  0  0
 16 15  1  0  0  0  0
 17 16  1  0  0  0  0
 18 19  1  0  0  0  0
 19 15  1  0  0  0  0
 21 24  2  0  0  0  0
 22 21  1  0  0  0  0
 23 20  1  0  0  0  0
 23 27  2  0  0  0  0
 24 27  1  0  0  0  0
 25 22  1  0  0  0  0
 25 26  2  0  0  0  0
 26 23  1  0  0  0  0
M  END
>  <MODEL>
4

>  <REMARK>
 VINA RESULT:      -8.9      1.529      4.120
  Name = 
  4 active torsions:
  status: ('A' for Active; 'I' for Inactive)
    1  A    between atoms: C_1  and  C_15
    2  A    between atoms: C_1  and  C_18
    3  A    between atoms: C_2  and  C_15
    4  A    between atoms: C_9  and  C_15
                            x       y       z     vdW  Elec       q    Type
                         _______ _______ _______ _____ _____    ______ ____

>  <TORSDO>
F 4

$$$$
=
 OpenBabel11052423143D

 27 30  0  0  1  0  0  0  0  0999 V2000
  160.9970  208.1520  152.6960 C   0  0  2  0  0  3  0  0  0  0  0  0
  161.0760  209.4170  151.8860 C   0  0  0  0  0  0  0  0  0  0  0  0
  159.3170  210.6830  153.2210 C   0  0  0  0  0  1  0  0  0  0  0  0
  162.0770  212.6320  148.6030 C   0  0  0  0  0  3  0  0  0  0  0  0
  161.2280  213.6580  149.0020 C   0  0  0  0  0  3  0  0  0  0  0  0
  161.8750  209.6060  150.7710 C   0  0  0  0  0  3  0  0  0  0  0  0
  160.0340  212.7670  151.0430 C   0  0  0  0  0  0  0  0  0  0  0  0
  159.1020  213.1410  151.9560 F   0  0  0  0  0  0  0  0  0  0  0  0
  160.6070  211.4960  151.1450 C   0  0  0  0  0  0  0  0  0  0  0  0
  160.3370  213.7130  150.0690 C   0  0  0  0  0  3  0  0  0  0  0  0
  161.6180  210.8760  150.2920 C   0  0  0  0  0  0  0  0  0  0  0  0
  160.3080  210.5450  152.1120 C   0  0  0  0  0  0  0  0  0  0  0  0
  162.2570  211.3830  149.1760 C   0  0  0  0  0  3  0  0  0  0  0  0
  160.9900  208.2630  157.0510 C   0  0  0  0  0  3  0  0  0  0  0  0
  160.7760  208.3590  154.2030 C   0  0  2  0  0  3  0  0  0  0  0  0
  161.9310  209.0960  154.8890 C   0  0  0  0  0  2  0  0  0  0  0  0
  161.8000  209.1040  156.3900 C   0  0  0  0  0  3  0  0  0  0  0  0
  160.0620  207.3090  156.3420 C   0  0  0  0  0  2  0  0  0  0  0  0
  160.5060  207.0340  154.9080 C   0  0  0  0  0  2  0  0  0  0  0  0
  161.9950  207.0590  152.2730 C   0  0  0  0  0  2  0  0  0  0  0  0
  160.7370  203.2000  150.1690 C   0  0  0  0  0  3  0  0  0  0  0  0
  161.2470  204.1050  149.0990 C   0  0  0  0  0  2  0  0  0  0  0  0
  161.4000  205.9270  151.4950 C   0  0  0  0  0  0  0  0  0  0  0  0
  160.8630  203.4630  151.4690 C   0  0  0  0  0  3  0  0  0  0  0  0
  160.6130  205.4540  149.1670 C   0  0  0  0  0  3  0  0  0  0  0  0
  160.7260  206.2610  150.2220 C   0  0  0  0  0  3  0  0  0  0  0  0
  161.4300  204.7010  152.0380 C   0  0  0  0  0  3  0  0  0  0  0  0
  1 20  1  1  0  0  0
  2 12  1  0  0  0  0
  2  1  1  0  0  0  0
  4  5  2  0  0  0  0
  4 13  1  0  0  0  0
  5 10  1  0  0  0  0
  6  2  2  0  0  0  0
  7  9  1  0  0  0  0
  7  8  1  0  0  0  0
  9 12  2  0  0  0  0
 10  7  2  0  0  0  0
 11  6  1  0  0  0  0
 11  9  1  0  0  0  0
 12  3  1  0  0  0  0
 13 11  2  0  0  0  0
 15  1  1  6  0  0  0
 15 16  1  0  0  0  0
 15 19  1  0  0  0  0
 16 17  1  0  0  0  0
 17 14  2  0  0  0  0
 18 14  1  0  0  0  0
 19 18  1  0  0  0  0
 21 24  2  0  0  0  0
 22 25  1  0  0  0  0
 22 21  1  0  0  0  0
 23 27  2  0  0  0  0
 23 20  1  0  0  0  0
 24 27  1  0  0  0  0
 25 26  2  0  0  0  0
 26 23  1  0  0  0  0
M  END
>  <MODEL>
5

>  <REMARK>
 VINA RESULT:      -8.8      2.256      5.702
  Name = 
  4 active torsions:
  status: ('A' for Active; 'I' for Inactive)
    1  A    between atoms: C_1  and  C_15
    2  A    between atoms: C_1  and  C_18
    3  A    between atoms: C_2  and  C_15
    4  A    between atoms: C_9  and  C_15
                            x       y       z     vdW  Elec       q    Type
                         _______ _______ _______ _____ _____    ______ ____

>  <TORSDO>
F 4

$$$$
=
 OpenBabel11052423143D

 27 30  0  0  1  0  0  0  0  0999 V2000
  161.2030  205.6330  149.6820 C   0  0  2  0  0  3  0  0  0  0  0  0
  161.1890  206.6620  150.7800 C   0  0  0  0  0  0  0  0  0  0  0  0
  160.8300  205.0030  152.6770 C   0  0  0  0  0  1  0  0  0  0  0  0
  161.1490  210.6920  153.2030 C   0  0  0  0  0  3  0  0  0  0  0  0
  160.9600  210.2000  154.4890 C   0  0  0  0  0  3  0  0  0  0  0  0
  161.2940  208.0300  150.5970 C   0  0  0  0  0  3  0  0  0  0  0  0
  160.8320  207.6900  154.2200 C   0  0  0  0  0  0  0  0  0  0  0  0
  160.6680  206.5660  154.9620 F   0  0  0  0  0  0  0  0  0  0  0  0
  160.9950  207.5680  152.8370 C   0  0  0  0  0  0  0  0  0  0  0  0
  160.8230  208.8870  154.9290 C   0  0  0  0  0  3  0  0  0  0  0  0
  161.1850  208.6210  151.8410 C   0  0  0  0  0  0  0  0  0  0  0  0
  161.0020  206.3790  152.1210 C   0  0  0  0  0  0  0  0  0  0  0  0
  161.2490  209.9910  152.0120 C   0  0  0  0  0  3  0  0  0  0  0  0
  160.8620  201.3700  150.5110 C   0  0  0  0  0  3  0  0  0  0  0  0
  160.8660  204.2020  150.1310 C   0  0  2  0  0  3  0  0  0  0  0  0
  161.9560  203.5650  150.9990 C   0  0  0  0  0  2  0  0  0  0  0  0
  161.7100  202.1000  151.2510 C   0  0  0  0  0  3  0  0  0  0  0  0
  160.0030  201.9760  149.4320 C   0  0  0  0  0  2  0  0  0  0  0  0
  160.5580  203.3070  148.9340 C   0  0  0  0  0  2  0  0  0  0  0  0
  162.3450  205.8010  148.6640 C   0  0  0  0  0  2  0  0  0  0  0  0
  160.4560  205.1670  144.5480 C   0  0  0  0  0  3  0  0  0  0  0  0
  161.0340  203.8500  144.9440 C   0  0  0  0  0  2  0  0  0  0  0  0
  161.9550  205.5780  147.2360 C   0  0  0  0  0  0  0  0  0  0  0  0
  160.3640  206.2030  145.3810 C   0  0  0  0  0  3  0  0  0  0  0  0
  162.4560  203.9780  145.3780 C   0  0  0  0  0  3  0  0  0  0  0  0
  162.8370  204.7170  146.4190 C   0  0  0  0  0  3  0  0  0  0  0  0
  160.8900  206.2400  146.7590 C   0  0  0  0  0  3  0  0  0  0  0  0
  1 20  1  1  0  0  0
  1  2  1  0  0  0  0
  2 12  1  0  0  0  0
  4  5  2  0  0  0  0
  5 10  1  0  0  0  0
  6  2  2  0  0  0  0
  6 11  1  0  0  0  0
  7 10  2  0  0  0  0
  7  8  1  0  0  0  0
  9  7  1  0  0  0  0
 11 13  2  0  0  0  0
 11  9  1  0  0  0  0
 12  3  1  0  0  0  0
 12  9  2  0  0  0  0
 13  4  1  0  0  0  0
 14 17  2  0  0  0  0
 15  1  1  6  0  0  0
 15 16  1  0  0  0  0
 16 17  1  0  0  0  0
 18 14  1  0  0  0  0
 19 18  1  0  0  0  0
 19 15  1  0  0  0  0
 21 22  1  0  0  0  0
 21 24  2  0  0  0  0
 22 25  1  0  0  0  0
 23 20  1  0  0  0  0
 24 27  1  0  0  0  0
 25 26  2  0  0  0  0
 26 23  1  0  0  0  0
 27 23  2  0  0  0  0
M  END
>  <MODEL>
6

>  <REMARK>
 VINA RESULT:      -8.8      1.157      1.983
  Name = 
  4 active torsions:
  status: ('A' for Active; 'I' for Inactive)
    1  A    between atoms: C_1  and  C_15
    2  A    between atoms: C_1  and  C_18
    3  A    between atoms: C_2  and  C_15
    4  A    between atoms: C_9  and  C_15
                            x       y       z     vdW  Elec       q    Type
                         _______ _______ _______ _____ _____    ______ ____

>  <TORSDO>
F 4

$$$$
=
 OpenBabel11052423143D

 27 30  0  0  1  0  0  0  0  0999 V2000
  160.9570  206.8390  152.6500 C   0  0  2  0  0  3  0  0  0  0  0  0
  161.0170  205.6550  151.7240 C   0  0  0  0  0  0  0  0  0  0  0  0
  160.9570  207.0150  149.5730 C   0  0  0  0  0  1  0  0  0  0  0  0
  161.0570  201.3050  149.9380 C   0  0  0  0  0  3  0  0  0  0  0  0
  161.0400  201.6010  148.5800 C   0  0  0  0  0  3  0  0  0  0  0  0
  161.0350  204.3280  152.1190 C   0  0  0  0  0  3  0  0  0  0  0  0
  161.0040  204.1240  148.4560 C   0  0  0  0  0  0  0  0  0  0  0  0
  160.9810  205.1260  147.5420 F   0  0  0  0  0  0  0  0  0  0  0  0
  161.0150  204.4510  149.8160 C   0  0  0  0  0  0  0  0  0  0  0  0
  161.0180  202.8340  147.9360 C   0  0  0  0  0  3  0  0  0  0  0  0
  161.0390  203.5580  150.9720 C   0  0  0  0  0  0  0  0  0  0  0  0
  160.9980  205.7350  150.3430 C   0  0  0  0  0  0  0  0  0  0  0  0
  161.0560  202.1760  151.0150 C   0  0  0  0  0  3  0  0  0  0  0  0
  161.3610  210.9730  151.3390 C   0  0  0  0  0  3  0  0  0  0  0  0
  160.9790  208.2090  151.9540 C   0  0  2  0  0  3  0  0  0  0  0  0
  162.3950  208.7190  151.6650 C   0  0  0  0  0  2  0  0  0  0  0  0
  162.4060  210.1460  151.1800 C   0  0  0  0  0  3  0  0  0  0  0  0
  160.0480  210.5160  151.9200 C   0  0  0  0  0  2  0  0  0  0  0  0
  160.1990  209.2470  152.7560 C   0  0  0  0  0  2  0  0  0  0  0  0
  161.7900  206.6880  153.9350 C   0  0  0  0  0  2  0  0  0  0  0  0
  159.7400  209.0660  157.2590 C   0  0  0  0  0  3  0  0  0  0  0  0
  160.2140  210.0720  156.2650 C   0  0  0  0  0  2  0  0  0  0  0  0
  161.3430  207.5390  155.0820 C   0  0  0  0  0  0  0  0  0  0  0  0
  159.7600  207.7530  157.0350 C   0  0  0  0  0  3  0  0  0  0  0  0
  161.6540  209.8760  155.9240 C   0  0  0  0  0  3  0  0  0  0  0  0
  162.1260  208.7620  155.3640 C   0  0  0  0  0  3  0  0  0  0  0  0
  160.3250  207.1000  155.8380 C   0  0  0  0  0  3  0  0  0  0  0  0
  1 20  1  1  0  0  0
  2  6  1  0  0  0  0
  2  1  1  0  0  0  0
  3 12  1  0  0  0  0
  4 13  2  0  0  0  0
  5  4  1  0  0  0  0
  7  9  2  0  0  0  0
  8  7  1  0  0  0  0
  9 12  1  0  0  0  0
  9 11  1  0  0  0  0
 10  7  1  0  0  0  0
 10  5  2  0  0  0  0
 11 13  1  0  0  0  0
 11  6  2  0  0  0  0
 12  2  2  0  0  0  0
 14 18  1  0  0  0  0
 15  1  1  1  0  0  0
 15 19  1  0  0  0  0
 16 15  1  0  0  0  0
 17 14  2  0  0  0  0
 17 16  1  0  0  0  0
 18 19  1  0  0  0  0
 20 23  1  0  0  0  0
 22 21  1  0  0  0  0
 23 26  1  0  0  0  0
 23 27  2  0  0  0  0
 24 21  2  0  0  0  0
 25 22  1  0  0  0  0
 26 25  2  0  0  0  0
 27 24  1  0  0  0  0
M  END
>  <MODEL>
7

>  <REMARK>
 VINA RESULT:      -8.4      2.304      7.944
  Name = 
  4 active torsions:
  status: ('A' for Active; 'I' for Inactive)
    1  A    between atoms: C_1  and  C_15
    2  A    between atoms: C_1  and  C_18
    3  A    between atoms: C_2  and  C_15
    4  A    between atoms: C_9  and  C_15
                            x       y       z     vdW  Elec       q    Type
                         _______ _______ _______ _____ _____    ______ ____

>  <TORSDO>
F 4

$$$$
=
 OpenBabel11052423143D

 27 30  0  0  1  0  0  0  0  0999 V2000
  161.2370  209.0720  153.2470 C   0  0  2  0  0  3  0  0  0  0  0  0
  161.2710  207.9270  152.2710 C   0  0  0  0  0  0  0  0  0  0  0  0
  161.9560  209.3300  150.2610 C   0  0  0  0  0  1  0  0  0  0  0  0
  160.8620  203.7130  150.2240 C   0  0  0  0  0  3  0  0  0  0  0  0
  161.2060  204.0440  148.9190 C   0  0  0  0  0  3  0  0  0  0  0  0
  160.9420  206.6140  152.5640 C   0  0  0  0  0  3  0  0  0  0  0  0
  161.6890  206.5230  148.9730 C   0  0  0  0  0  0  0  0  0  0  0  0
  162.0640  207.5340  148.1490 F   0  0  0  0  0  0  0  0  0  0  0  0
  161.4600  206.8030  150.3240 C   0  0  0  0  0  0  0  0  0  0  0  0
  161.5670  205.2730  148.3760 C   0  0  0  0  0  3  0  0  0  0  0  0
  161.0520  205.8920  151.3920 C   0  0  0  0  0  0  0  0  0  0  0  0
  161.5750  208.0480  150.9270 C   0  0  0  0  0  0  0  0  0  0  0  0
  160.7910  204.5360  151.3370 C   0  0  0  0  0  3  0  0  0  0  0  0
  160.6610  207.4710  157.2570 C   0  0  0  0  0  3  0  0  0  0  0  0
  160.8280  208.6920  154.6780 C   0  0  2  0  0  3  0  0  0  0  0  0
  161.9080  209.0000  155.7200 C   0  0  0  0  0  2  0  0  0  0  0  0
  161.5810  208.4310  157.0770 C   0  0  0  0  0  3  0  0  0  0  0  0
  159.8010  206.9540  156.1330 C   0  0  0  0  0  2  0  0  0  0  0  0
  160.4200  207.2240  154.7640 C   0  0  0  0  0  2  0  0  0  0  0  0
  160.6660  210.3820  152.6750 C   0  0  0  0  0  2  0  0  0  0  0  0
  158.5980  212.5800  156.1100 C   0  0  0  0  0  3  0  0  0  0  0  0
  157.6880  211.4610  155.7300 C   0  0  0  0  0  2  0  0  0  0  0  0
  159.8330  211.1770  153.6300 C   0  0  0  0  0  0  0  0  0  0  0  0
  159.8380  212.7040  155.6390 C   0  0  0  0  0  3  0  0  0  0  0  0
  157.4250  211.4380  154.2610 C   0  0  0  0  0  3  0  0  0  0  0  0
  158.3840  211.2720  153.3500 C   0  0  0  0  0  3  0  0  0  0  0  0
  160.4570  211.8300  154.6220 C   0  0  0  0  0  3  0  0  0  0  0  0
  1 20  1  6  0  0  0
  2  6  1  0  0  0  0
  2  1  1  0  0  0  0
  3 12  1  0  0  0  0
  4 13  2  0  0  0  0
  5  4  1  0  0  0  0
  7  9  2  0  0  0  0
  8  7  1  0  0  0  0
  9 12  1  0  0  0  0
  9 11  1  0  0  0  0
 10  5  2  0  0  0  0
 10  7  1  0  0  0  0
 11  6  2  0  0  0  0
 12  2  2  0  0  0  0
 13 11  1  0  0  0  0
 15  1  1  6  0  0  0
 15 19  1  0  0  0  0
 15 16  1  0  0  0  0
 16 17  1  0  0  0  0
 17 14  2  0  0  0  0
 18 14  1  0  0  0  0
 19 18  1  0  0  0  0
 20 23  1  0  0  0  0
 22 21  1  0  0  0  0
 23 27  2  0  0  0  0
 24 21  2  0  0  0  0
 25 22  1  0  0  0  0
 26 23  1  0  0  0  0
 26 25  2  0  0  0  0
 27 24  1  0  0  0  0
M  END
>  <MODEL>
8

>  <REMARK>
 VINA RESULT:      -8.3      2.160      7.772
  Name = 
  4 active torsions:
  status: ('A' for Active; 'I' for Inactive)
    1  A    between atoms: C_1  and  C_15
    2  A    between atoms: C_1  and  C_18
    3  A    between atoms: C_2  and  C_15
    4  A    between atoms: C_9  and  C_15
                            x       y       z     vdW  Elec       q    Type
                         _______ _______ _______ _____ _____    ______ ____

>  <TORSDO>
F 4

$$$$
=
 OpenBabel11052423143D

 27 30  0  0  1  0  0  0  0  0999 V2000
  161.2440  205.1880  149.5780 C   0  0  2  0  0  3  0  0  0  0  0  0
  161.2730  206.2770  150.6160 C   0  0  0  0  0  0  0  0  0  0  0  0
  162.2040  208.0730  149.0700 C   0  0  0  0  0  1  0  0  0  0  0  0
  161.0640  208.6970  154.6430 C   0  0  0  0  0  3  0  0  0  0  0  0
  161.5390  209.9290  154.2100 C   0  0  0  0  0  3  0  0  0  0  0  0
  160.9200  206.1270  151.9460 C   0  0  0  0  0  3  0  0  0  0  0  0
  162.0240  209.6190  151.7490 C   0  0  0  0  0  0  0  0  0  0  0  0
  162.4870  210.3140  150.6800 F   0  0  0  0  0  0  0  0  0  0  0  0
  161.6560  208.2810  151.5780 C   0  0  0  0  0  0  0  0  0  0  0  0
  161.9570  210.3280  152.9450 C   0  0  0  0  0  3  0  0  0  0  0  0
  161.1360  207.3410  152.5690 C   0  0  0  0  0  0  0  0  0  0  0  0
  161.7230  207.5660  150.3910 C   0  0  0  0  0  0  0  0  0  0  0  0
  160.8810  207.5320  153.9140 C   0  0  0  0  0  3  0  0  0  0  0  0
  161.8350  205.8180  145.3090 C   0  0  0  0  0  3  0  0  0  0  0  0
  161.5800  205.6440  148.1500 C   0  0  2  0  0  3  0  0  0  0  0  0
  160.3400  205.9650  147.3080 C   0  0  0  0  0  2  0  0  0  0  0  0
  160.6730  206.2030  145.8580 C   0  0  0  0  0  3  0  0  0  0  0  0
  162.9510  205.2090  146.1200 C   0  0  0  0  0  2  0  0  0  0  0  0
  162.4490  204.6150  147.4330 C   0  0  0  0  0  2  0  0  0  0  0  0
  160.0930  204.1790  149.7440 C   0  0  0  0  0  2  0  0  0  0  0  0
  161.5810  200.0220  148.5590 C   0  0  0  0  0  3  0  0  0  0  0  0
  161.7280  200.8730  147.3440 C   0  0  0  0  0  2  0  0  0  0  0  0
  160.3780  202.8050  149.2230 C   0  0  0  0  0  0  0  0  0  0  0  0
  161.2770  200.5100  149.7610 C   0  0  0  0  0  3  0  0  0  0  0  0
  160.4670  201.6070  147.0280 C   0  0  0  0  0  3  0  0  0  0  0  0
  159.9080  202.4870  147.8580 C   0  0  0  0  0  3  0  0  0  0  0  0
  160.9540  201.9210  150.0520 C   0  0  0  0  0  3  0  0  0  0  0  0
  1 20  1  6  0  0  0
  1  2  1  0  0  0  0
  2  6  1  0  0  0  0
  3 12  1  0  0  0  0
  5  4  1  0  0  0  0
  6 11  2  0  0  0  0
  7 10  1  0  0  0  0
  8  7  1  0  0  0  0
  9  7  2  0  0  0  0
  9 11  1  0  0  0  0
 10  5  2  0  0  0  0
 11 13  1  0  0  0  0
 12  2  2  0  0  0  0
 12  9  1  0  0  0  0
 13  4  2  0  0  0  0
 14 17  2  0  0  0  0
 14 18  1  0  0  0  0
 15  1  1  1  0  0  0
 16 15  1  0  0  0  0
 17 16  1  0  0  0  0
 18 19  1  0  0  0  0
 19 15  1  0  0  0  0
 21 24  2  0  0  0  0
 22 21  1  0  0  0  0
 23 20  1  0  0  0  0
 23 27  2  0  0  0  0
 24 27  1  0  0  0  0
 25 22  1  0  0  0  0
 25 26  2  0  0  0  0
 26 23  1  0  0  0  0
M  END
>  <MODEL>
9

>  <REMARK>
 VINA RESULT:      -8.1      1.127      3.644
  Name = 
  4 active torsions:
  status: ('A' for Active; 'I' for Inactive)
    1  A    between atoms: C_1  and  C_15
    2  A    between atoms: C_1  and  C_18
    3  A    between atoms: C_2  and  C_15
    4  A    between atoms: C_9  and  C_15
                            x       y       z     vdW  Elec       q    Type
                         _______ _______ _______ _____ _____    ______ ____

>  <TORSDO>
F 4

$$$$
