=
 OpenBabel11052421543D

 30 33  0  0  0  0  0  0  0  0999 V2000
  160.6300  208.9740  153.7000 N   0  0  0  0  0  0  0  0  0  0  0  0
  160.8510  206.5740  153.7600 C   0  0  0  0  0  0  0  0  0  0  0  0
  162.0680  209.2930  149.9050 N   0  0  0  0  0  0  0  0  0  0  0  0
  160.7550  210.1770  153.0650 C   0  0  0  0  0  0  0  0  0  0  0  0
  159.5430  212.1520  155.7840 O   0  0  0  0  0  0  0  0  0  0  0  0
  160.4400  211.5320  155.1530 C   0  0  0  0  0  0  0  0  0  0  0  0
  161.9920  210.6390  149.8030 C   0  0  0  0  0  0  0  0  0  0  0  0
  160.3330  211.3860  153.7230 N   0  0  0  0  0  0  0  0  0  0  0  0
  161.2150  205.3870  153.1140 C   0  0  0  0  0  3  0  0  0  0  0  0
  160.3300  206.5060  155.1550 C   0  0  0  0  0  1  0  0  0  0  0  0
  161.6010  209.0630  151.1480 C   0  0  0  0  0  0  0  0  0  0  0  0
  161.7100  205.4130  151.8060 C   0  0  0  0  0  3  0  0  0  0  0  0
  160.9830  207.8020  153.0890 C   0  0  0  0  0  0  0  0  0  0  0  0
  161.2460  210.1860  151.7930 N   0  0  0  0  0  0  0  0  0  0  0  0
  162.4010  211.3950  148.5910 C   0  0  0  0  0  1  0  0  0  0  0  0
  161.4910  211.2110  150.9610 C   0  0  0  0  0  3  0  0  0  0  0  0
  161.8460  206.6290  151.1290 C   0  0  0  0  0  3  0  0  0  0  0  0
  161.4860  207.8200  151.7650 C   0  0  0  0  0  0  0  0  0  0  0  0
  161.5660  209.9900  156.8390 C   0  0  0  0  0  3  0  0  0  0  0  0
  162.8180  211.4430  155.7450 O   0  0  0  0  0  0  0  0  0  0  0  0
  161.5940  211.0060  155.9040 C   0  0  0  0  0  0  0  0  0  0  0  0
  162.8790  209.8450  157.2500 C   0  0  0  0  0  3  0  0  0  0  0  0
  163.6190  210.7740  156.5380 C   0  0  0  0  0  3  0  0  0  0  0  0
  159.5770  212.3860  152.9690 C   0  0  0  0  0  2  0  0  0  0  0  0
  158.0800  212.0900  153.0020 C   0  0  0  0  0  2  0  0  0  0  0  0
  157.2860  213.2690  153.5450 C   0  0  0  0  0  2  0  0  0  0  0  0
  156.0150  212.8100  154.0850 N   0  0  0  0  0  2  0  0  0  0  0  0
  155.4390  210.5570  154.7280 O   0  0  0  0  0  0  0  0  0  0  0  0
  155.9590  211.7910  155.0450 N   0  0  0  0  0  0  0  0  0  0  0  0
  156.3410  212.0180  156.2100 O   0  0  0  0  0  0  0  0  0  0  0  0
  2 10  1  0  0  0  0
  3 11  2  0  0  0  0
  4  1  2  0  0  0  0
  4  8  1  0  0  0  0
  6  5  2  0  0  0  0
  6 21  1  0  0  0  0
  7  3  1  0  0  0  0
  7 16  2  0  0  0  0
  8  6  1  0  0  0  0
  9  2  1  0  0  0  0
 11 18  1  0  0  0  0
 11 14  1  0  0  0  0
 12  9  2  0  0  0  0
 13  1  1  0  0  0  0
 13  2  2  0  0  0  0
 14  4  1  0  0  0  0
 15  7  1  0  0  0  0
 16 14  1  0  0  0  0
 17 18  2  0  0  0  0
 17 12  1  0  0  0  0
 18 13  1  0  0  0  0
 19 22  1  0  0  0  0
 20 21  1  0  0  0  0
 20 23  1  0  0  0  0
 21 19  2  0  0  0  0
 23 22  2  0  0  0  0
 24 25  1  0  0  0  0
 24  8  1  0  0  0  0
 25 26  1  0  0  0  0
 26 27  1  0  0  0  0
 27 29  1  0  0  0  0
 28 29  2  0  0  0  0
 29 30  2  0  0  0  0
M  END
>  <MODEL>
1

>  <REMARK>
 VINA RESULT:      -6.0      0.000      0.000
  Name = 
  6 active torsions:
  status: ('A' for Active; 'I' for Inactive)
    1  A    between atoms: N_7  and  N_15
    2  A    between atoms: N_7  and  C_16
    3  A    between atoms: C_8  and  C_12
    4  A    between atoms: N_13  and  C_27
    5  A    between atoms: C_16  and  C_30
    6  A    between atoms: C_27  and  C_30
                            x       y       z     vdW  Elec       q    Type
                         _______ _______ _______ _____ _____    ______ ____

>  <TORSDO>
F 6

$$$$
=
 OpenBabel11052421543D

 30 33  0  0  0  0  0  0  0  0999 V2000
  160.6000  208.9350  153.6290 N   0  0  0  0  0  0  0  0  0  0  0  0
  160.8200  206.5350  153.6830 C   0  0  0  0  0  0  0  0  0  0  0  0
  162.1360  209.2730  149.8740 N   0  0  0  0  0  0  0  0  0  0  0  0
  160.7410  210.1410  153.0030 C   0  0  0  0  0  0  0  0  0  0  0  0
  159.4580  212.1020  155.7000 O   0  0  0  0  0  0  0  0  0  0  0  0
  160.3710  211.4860  155.0890 C   0  0  0  0  0  0  0  0  0  0  0  0
  162.0620  210.6200  149.7770 C   0  0  0  0  0  0  0  0  0  0  0  0
  160.3020  211.3470  153.6560 N   0  0  0  0  0  0  0  0  0  0  0  0
  161.2020  205.3520  153.0400 C   0  0  0  0  0  3  0  0  0  0  0  0
  160.2630  206.4600  155.0640 C   0  0  0  0  0  1  0  0  0  0  0  0
  161.6370  209.0370  151.1030 C   0  0  0  0  0  0  0  0  0  0  0  0
  161.7300  205.3840  151.7460 C   0  0  0  0  0  3  0  0  0  0  0  0
  160.9690  207.7660  153.0220 C   0  0  0  0  0  0  0  0  0  0  0  0
  161.2640  210.1560  151.7450 N   0  0  0  0  0  0  0  0  0  0  0  0
  162.5020  211.3820  148.5800 C   0  0  0  0  0  1  0  0  0  0  0  0
  161.5310  211.1860  150.9240 C   0  0  0  0  0  3  0  0  0  0  0  0
  161.8830  206.6030  151.0790 C   0  0  0  0  0  3  0  0  0  0  0  0
  161.5060  207.7910  151.7110 C   0  0  0  0  0  0  0  0  0  0  0  0
  161.4450  209.9700  156.8310 C   0  0  0  0  0  3  0  0  0  0  0  0
  162.7410  211.3600  155.7080 O   0  0  0  0  0  0  0  0  0  0  0  0
  161.5060  210.9560  155.8670 C   0  0  0  0  0  0  0  0  0  0  0  0
  162.7500  209.8070  157.2600 C   0  0  0  0  0  3  0  0  0  0  0  0
  163.5180  210.6970  156.5280 C   0  0  0  0  0  3  0  0  0  0  0  0
  159.5650  212.3500  152.8880 C   0  0  0  0  0  2  0  0  0  0  0  0
  158.0590  212.1130  152.9650 C   0  0  0  0  0  2  0  0  0  0  0  0
  157.2830  213.4210  152.9740 C   0  0  0  0  0  2  0  0  0  0  0  0
  157.6570  214.2340  151.8270 N   0  0  0  0  0  2  0  0  0  0  0  0
  158.0930  213.4700  149.5800 O   0  0  0  0  0  0  0  0  0  0  0  0
  157.2100  213.9190  150.5370 N   0  0  0  0  0  0  0  0  0  0  0  0
  156.0130  214.0900  150.2390 O   0  0  0  0  0  0  0  0  0  0  0  0
  2 10  1  0  0  0  0
  3 11  2  0  0  0  0
  4  1  2  0  0  0  0
  4  8  1  0  0  0  0
  6  5  2  0  0  0  0
  6 21  1  0  0  0  0
  7  3  1  0  0  0  0
  7 16  2  0  0  0  0
  8  6  1  0  0  0  0
  9  2  1  0  0  0  0
 11 18  1  0  0  0  0
 11 14  1  0  0  0  0
 12  9  2  0  0  0  0
 13  1  1  0  0  0  0
 13  2  2  0  0  0  0
 14  4  1  0  0  0  0
 15  7  1  0  0  0  0
 16 14  1  0  0  0  0
 17 18  2  0  0  0  0
 17 12  1  0  0  0  0
 18 13  1  0  0  0  0
 19 22  1  0  0  0  0
 20 21  1  0  0  0  0
 20 23  1  0  0  0  0
 21 19  2  0  0  0  0
 23 22  2  0  0  0  0
 24 25  1  0  0  0  0
 24  8  1  0  0  0  0
 25 26  1  0  0  0  0
 27 26  1  0  0  0  0
 28 29  2  0  0  0  0
 29 27  1  0  0  0  0
 30 29  2  0  0  0  0
M  END
>  <MODEL>
2

>  <REMARK>
 VINA RESULT:      -5.8      1.831      1.991
  Name = 
  6 active torsions:
  status: ('A' for Active; 'I' for Inactive)
    1  A    between atoms: N_7  and  N_15
    2  A    between atoms: N_7  and  C_16
    3  A    between atoms: C_8  and  C_12
    4  A    between atoms: N_13  and  C_27
    5  A    between atoms: C_16  and  C_30
    6  A    between atoms: C_27  and  C_30
                            x       y       z     vdW  Elec       q    Type
                         _______ _______ _______ _____ _____    ______ ____

>  <TORSDO>
F 6

$$$$
=
 OpenBabel11052421543D

 30 33  0  0  0  0  0  0  0  0999 V2000
  159.8630  211.5740  151.2830 N   0  0  0  0  0  0  0  0  0  0  0  0
  158.0050  213.0740  151.6130 C   0  0  0  0  0  0  0  0  0  0  0  0
  160.9780  211.6440  155.1970 N   0  0  0  0  0  0  0  0  0  0  0  0
  160.9340  210.8660  151.7500 C   0  0  0  0  0  0  0  0  0  0  0  0
  161.8530  209.4680  148.5930 O   0  0  0  0  0  0  0  0  0  0  0  0
  161.8530  210.3750  149.4680 C   0  0  0  0  0  0  0  0  0  0  0  0
  162.0480  210.8240  155.0880 C   0  0  0  0  0  0  0  0  0  0  0  0
  161.6880  210.0260  150.8560 N   0  0  0  0  0  0  0  0  0  0  0  0
  157.2370  213.8580  152.4810 C   0  0  0  0  0  3  0  0  0  0  0  0
  157.6400  213.0270  150.1680 C   0  0  0  0  0  1  0  0  0  0  0  0
  160.5120  211.6920  153.9340 C   0  0  0  0  0  0  0  0  0  0  0  0
  157.5520  213.9270  153.8420 C   0  0  0  0  0  3  0  0  0  0  0  0
  159.1010  212.3490  152.1120 C   0  0  0  0  0  0  0  0  0  0  0  0
  161.2320  210.9500  153.0780 N   0  0  0  0  0  0  0  0  0  0  0  0
  162.9170  210.4500  156.2340 C   0  0  0  0  0  1  0  0  0  0  0  0
  162.2260  210.3880  153.7850 C   0  0  0  0  0  3  0  0  0  0  0  0
  158.6400  213.2110  154.3500 C   0  0  0  0  0  3  0  0  0  0  0  0
  159.4140  212.4250  153.4920 C   0  0  0  0  0  0  0  0  0  0  0  0
  163.1330  212.2480  148.3090 C   0  0  0  0  0  3  0  0  0  0  0  0
  161.2130  212.7350  149.2840 O   0  0  0  0  0  0  0  0  0  0  0  0
  162.0610  211.7690  149.0360 C   0  0  0  0  0  0  0  0  0  0  0  0
  162.8760  213.5960  148.1370 C   0  0  0  0  0  3  0  0  0  0  0  0
  161.6670  213.8490  148.7630 C   0  0  0  0  0  3  0  0  0  0  0  0
  162.0950  208.6920  151.2980 C   0  0  0  0  0  2  0  0  0  0  0  0
  160.9020  207.7440  151.3760 C   0  0  0  0  0  2  0  0  0  0  0  0
  161.3340  206.2880  151.2990 C   0  0  0  0  0  2  0  0  0  0  0  0
  160.4720  205.5570  150.3820 N   0  0  0  0  0  2  0  0  0  0  0  0
  160.3860  206.3910  148.1190 O   0  0  0  0  0  0  0  0  0  0  0  0
  160.7930  205.4360  149.0240 N   0  0  0  0  0  0  0  0  0  0  0  0
  161.4130  204.4320  148.6230 O   0  0  0  0  0  0  0  0  0  0  0  0
  1  4  2  0  0  0  0
  1 13  1  0  0  0  0
  2 13  2  0  0  0  0
  2  9  1  0  0  0  0
  4 14  1  0  0  0  0
  5  6  2  0  0  0  0
  6  8  1  0  0  0  0
  7  3  1  0  0  0  0
  7 15  1  0  0  0  0
  8 24  1  0  0  0  0
  8  4  1  0  0  0  0
  9 12  2  0  0  0  0
 10  2  1  0  0  0  0
 11  3  2  0  0  0  0
 12 17  1  0  0  0  0
 13 18  1  0  0  0  0
 14 16  1  0  0  0  0
 14 11  1  0  0  0  0
 16  7  2  0  0  0  0
 18 11  1  0  0  0  0
 18 17  2  0  0  0  0
 19 21  2  0  0  0  0
 21 20  1  0  0  0  0
 21  6  1  0  0  0  0
 22 19  1  0  0  0  0
 22 23  2  0  0  0  0
 23 20  1  0  0  0  0
 24 25  1  0  0  0  0
 26 25  1  0  0  0  0
 27 26  1  0  0  0  0
 28 29  2  0  0  0  0
 29 27  1  0  0  0  0
 30 29  2  0  0  0  0
M  END
>  <MODEL>
3

>  <REMARK>
 VINA RESULT:      -5.1      3.521      7.271
  Name = 
  6 active torsions:
  status: ('A' for Active; 'I' for Inactive)
    1  A    between atoms: N_7  and  N_15
    2  A    between atoms: N_7  and  C_16
    3  A    between atoms: C_8  and  C_12
    4  A    between atoms: N_13  and  C_27
    5  A    between atoms: C_16  and  C_30
    6  A    between atoms: C_27  and  C_30
                            x       y       z     vdW  Elec       q    Type
                         _______ _______ _______ _____ _____    ______ ____

>  <TORSDO>
F 6

$$$$
=
 OpenBabel11052421543D

 30 33  0  0  0  0  0  0  0  0999 V2000
  160.5860  208.7830  153.2250 N   0  0  0  0  0  0  0  0  0  0  0  0
  161.4510  206.5790  152.7660 C   0  0  0  0  0  0  0  0  0  0  0  0
  161.9710  210.3590  149.7370 N   0  0  0  0  0  0  0  0  0  0  0  0
  160.3940  210.0920  152.8890 C   0  0  0  0  0  0  0  0  0  0  0  0
  158.6270  210.9780  155.8650 O   0  0  0  0  0  0  0  0  0  0  0  0
  159.6730  210.7810  155.1910 C   0  0  0  0  0  0  0  0  0  0  0  0
  161.5330  211.6240  149.9330 C   0  0  0  0  0  0  0  0  0  0  0  0
  159.6440  210.9580  153.7610 N   0  0  0  0  0  0  0  0  0  0  0  0
  162.1390  205.7170  151.9060 C   0  0  0  0  0  3  0  0  0  0  0  0
  160.9350  206.0480  154.0610 C   0  0  0  0  0  1  0  0  0  0  0  0
  161.5560  209.7270  150.8520 C   0  0  0  0  0  0  0  0  0  0  0  0
  162.6380  206.1820  150.6840 C   0  0  0  0  0  3  0  0  0  0  0  0
  161.2590  207.9230  152.4010 C   0  0  0  0  0  0  0  0  0  0  0  0
  160.8930  210.5310  151.6990 N   0  0  0  0  0  0  0  0  0  0  0  0
  161.7500  212.7270  148.9610 C   0  0  0  0  0  1  0  0  0  0  0  0
  160.8690  211.7540  151.1410 C   0  0  0  0  0  3  0  0  0  0  0  0
  162.4540  207.5160  150.3110 C   0  0  0  0  0  3  0  0  0  0  0  0
  161.7680  208.3860  151.1640 C   0  0  0  0  0  0  0  0  0  0  0  0
  162.0520  211.1750  156.0120 C   0  0  0  0  0  3  0  0  0  0  0  0
  161.0560  209.2810  156.5520 O   0  0  0  0  0  0  0  0  0  0  0  0
  160.9090  210.4080  155.9030 C   0  0  0  0  0  0  0  0  0  0  0  0
  162.9210  210.4180  156.7770 C   0  0  0  0  0  3  0  0  0  0  0  0
  162.2510  209.2470  157.0880 C   0  0  0  0  0  3  0  0  0  0  0  0
  158.6610  211.8780  153.1870 C   0  0  0  0  0  2  0  0  0  0  0  0
  158.8770  213.3040  153.6880 C   0  0  0  0  0  2  0  0  0  0  0  0
  157.5800  214.0980  153.6990 C   0  0  0  0  0  2  0  0  0  0  0  0
  156.5500  213.3660  154.4200 N   0  0  0  0  0  2  0  0  0  0  0  0
  157.0510  213.7740  156.7450 O   0  0  0  0  0  0  0  0  0  0  0  0
  156.1490  213.7540  155.7060 N   0  0  0  0  0  0  0  0  0  0  0  0
  154.9550  214.0380  155.9200 O   0  0  0  0  0  0  0  0  0  0  0  0
  2 10  1  0  0  0  0
  3  7  1  0  0  0  0
  3 11  2  0  0  0  0
  4  1  2  0  0  0  0
  4  8  1  0  0  0  0
  6  5  2  0  0  0  0
  6 21  1  0  0  0  0
  7 16  2  0  0  0  0
  8  6  1  0  0  0  0
  9  2  2  0  0  0  0
 11 18  1  0  0  0  0
 11 14  1  0  0  0  0
 12  9  1  0  0  0  0
 13  2  1  0  0  0  0
 13  1  1  0  0  0  0
 14  4  1  0  0  0  0
 15  7  1  0  0  0  0
 16 14  1  0  0  0  0
 17 12  2  0  0  0  0
 17 18  1  0  0  0  0
 18 13  2  0  0  0  0
 19 22  1  0  0  0  0
 20 23  1  0  0  0  0
 21 19  2  0  0  0  0
 21 20  1  0  0  0  0
 22 23  2  0  0  0  0
 24 25  1  0  0  0  0
 24  8  1  0  0  0  0
 25 26  1  0  0  0  0
 26 27  1  0  0  0  0
 27 29  1  0  0  0  0
 29 30  2  0  0  0  0
 29 28  2  0  0  0  0
M  END
>  <MODEL>
4

>  <REMARK>
 VINA RESULT:      -4.8      1.282      1.542
  Name = 
  6 active torsions:
  status: ('A' for Active; 'I' for Inactive)
    1  A    between atoms: N_7  and  N_15
    2  A    between atoms: N_7  and  C_16
    3  A    between atoms: C_8  and  C_12
    4  A    between atoms: N_13  and  C_27
    5  A    between atoms: C_16  and  C_30
    6  A    between atoms: C_27  and  C_30
                            x       y       z     vdW  Elec       q    Type
                         _______ _______ _______ _____ _____    ______ ____

>  <TORSDO>
F 6

$$$$
=
 OpenBabel11052421543D

 30 33  0  0  0  0  0  0  0  0999 V2000
  160.8040  211.9090  151.6180 N   0  0  0  0  0  0  0  0  0  0  0  0
  160.4830  211.2750  153.9220 C   0  0  0  0  0  0  0  0  0  0  0  0
  157.0530  213.4410  151.2240 N   0  0  0  0  0  0  0  0  0  0  0  0
  160.3570  212.4570  150.4490 C   0  0  0  0  0  0  0  0  0  0  0  0
  163.3680  211.8890  148.6090 O   0  0  0  0  0  0  0  0  0  0  0  0
  162.2480  211.5450  149.0740 C   0  0  0  0  0  0  0  0  0  0  0  0
  157.1510  213.8070  149.9260 C   0  0  0  0  0  0  0  0  0  0  0  0
  161.2380  212.5450  149.3130 N   0  0  0  0  0  0  0  0  0  0  0  0
  159.6520  211.2240  155.0460 C   0  0  0  0  0  3  0  0  0  0  0  0
  161.8610  210.7150  154.0160 C   0  0  0  0  0  1  0  0  0  0  0  0
  158.2670  212.9130  151.4750 C   0  0  0  0  0  0  0  0  0  0  0  0
  158.3520  211.7380  154.9930 C   0  0  0  0  0  3  0  0  0  0  0  0
  160.0080  211.8460  152.7290 C   0  0  0  0  0  0  0  0  0  0  0  0
  159.0860  212.9460  150.4110 N   0  0  0  0  0  0  0  0  0  0  0  0
  156.0460  214.4510  149.1690 C   0  0  0  0  0  1  0  0  0  0  0  0
  158.3970  213.5060  149.4030 C   0  0  0  0  0  3  0  0  0  0  0  0
  157.8690  212.3080  153.8120 C   0  0  0  0  0  3  0  0  0  0  0  0
  158.6900  212.3630  152.6820 C   0  0  0  0  0  0  0  0  0  0  0  0
  162.0030  209.4860  150.5530 C   0  0  0  0  0  3  0  0  0  0  0  0
  161.7140  209.2550  148.3760 O   0  0  0  0  0  0  0  0  0  0  0  0
  161.9990  210.1140  149.3230 C   0  0  0  0  0  0  0  0  0  0  0  0
  161.7050  208.1630  150.2810 C   0  0  0  0  0  3  0  0  0  0  0  0
  161.5330  208.0720  148.9110 C   0  0  0  0  0  3  0  0  0  0  0  0
  161.2660  213.7750  148.5210 C   0  0  0  0  0  2  0  0  0  0  0  0
  160.9360  213.5010  147.0570 C   0  0  0  0  0  2  0  0  0  0  0  0
  162.0310  214.0040  146.1290 C   0  0  0  0  0  2  0  0  0  0  0  0
  161.5290  214.1050  144.7680 N   0  0  0  0  0  2  0  0  0  0  0  0
  163.0120  212.8830  143.3100 O   0  0  0  0  0  0  0  0  0  0  0  0
  161.7550  213.0870  143.8320 N   0  0  0  0  0  0  0  0  0  0  0  0
  160.8020  212.3910  143.4350 O   0  0  0  0  0  0  0  0  0  0  0  0
  1 13  1  0  0  0  0
  2 10  1  0  0  0  0
  2  9  1  0  0  0  0
  3 11  2  0  0  0  0
  4  1  2  0  0  0  0
  5  6  2  0  0  0  0
  6  8  1  0  0  0  0
  6 21  1  0  0  0  0
  7  3  1  0  0  0  0
  8  4  1  0  0  0  0
 11 18  1  0  0  0  0
 12  9  2  0  0  0  0
 13  2  2  0  0  0  0
 14  4  1  0  0  0  0
 14 11  1  0  0  0  0
 15  7  1  0  0  0  0
 16  7  2  0  0  0  0
 16 14  1  0  0  0  0
 17 12  1  0  0  0  0
 18 13  1  0  0  0  0
 18 17  2  0  0  0  0
 20 23  1  0  0  0  0
 20 21  1  0  0  0  0
 21 19  2  0  0  0  0
 22 19  1  0  0  0  0
 23 22  2  0  0  0  0
 24  8  1  0  0  0  0
 25 24  1  0  0  0  0
 26 25  1  0  0  0  0
 27 26  1  0  0  0  0
 28 29  2  0  0  0  0
 29 27  1  0  0  0  0
 30 29  2  0  0  0  0
M  END
>  <MODEL>
5

>  <REMARK>
 VINA RESULT:      -4.2      4.718      7.432
  Name = 
  6 active torsions:
  status: ('A' for Active; 'I' for Inactive)
    1  A    between atoms: N_7  and  N_15
    2  A    between atoms: N_7  and  C_16
    3  A    between atoms: C_8  and  C_12
    4  A    between atoms: N_13  and  C_27
    5  A    between atoms: C_16  and  C_30
    6  A    between atoms: C_27  and  C_30
                            x       y       z     vdW  Elec       q    Type
                         _______ _______ _______ _____ _____    ______ ____

>  <TORSDO>
F 6

$$$$
=
 OpenBabel11052421543D

 30 33  0  0  0  0  0  0  0  0999 V2000
  159.8150  211.5170  151.5880 N   0  0  0  0  0  0  0  0  0  0  0  0
  158.0080  213.0920  151.8440 C   0  0  0  0  0  0  0  0  0  0  0  0
  161.0360  211.8600  155.4560 N   0  0  0  0  0  0  0  0  0  0  0  0
  160.8780  210.8170  152.0830 C   0  0  0  0  0  0  0  0  0  0  0  0
  161.6740  209.1500  149.0240 O   0  0  0  0  0  0  0  0  0  0  0  0
  161.7220  210.1230  149.8250 C   0  0  0  0  0  0  0  0  0  0  0  0
  162.0800  211.0030  155.3850 C   0  0  0  0  0  0  0  0  0  0  0  0
  161.5850  209.8880  151.2400 N   0  0  0  0  0  0  0  0  0  0  0  0
  157.2860  213.9640  152.6660 C   0  0  0  0  0  3  0  0  0  0  0  0
  157.6040  212.9430  150.4170 C   0  0  0  0  0  1  0  0  0  0  0  0
  160.5380  211.8230  154.2050 C   0  0  0  0  0  0  0  0  0  0  0  0
  157.6380  214.1300  154.0100 C   0  0  0  0  0  3  0  0  0  0  0  0
  159.0970  212.3770  152.3720 C   0  0  0  0  0  0  0  0  0  0  0  0
  161.2130  210.9950  153.3920 N   0  0  0  0  0  0  0  0  0  0  0  0
  162.9680  210.6940  156.5360 C   0  0  0  0  0  1  0  0  0  0  0  0
  162.2110  210.4620  154.1170 C   0  0  0  0  0  3  0  0  0  0  0  0
  158.7190  213.4240  154.5450 C   0  0  0  0  0  3  0  0  0  0  0  0
  159.4480  212.5510  153.7330 C   0  0  0  0  0  0  0  0  0  0  0  0
  163.0510  211.8760  148.5410 C   0  0  0  0  0  3  0  0  0  0  0  0
  161.1130  212.4640  149.4210 O   0  0  0  0  0  0  0  0  0  0  0  0
  161.9570  211.4720  149.2800 C   0  0  0  0  0  0  0  0  0  0  0  0
  162.8140  213.2060  148.2470 C   0  0  0  0  0  3  0  0  0  0  0  0
  161.5930  213.5240  148.8180 C   0  0  0  0  0  3  0  0  0  0  0  0
  161.9670  208.5810  151.7760 C   0  0  0  0  0  2  0  0  0  0  0  0
  160.7650  207.8500  152.3670 C   0  0  0  0  0  2  0  0  0  0  0  0
  161.1860  206.8310  153.4150 C   0  0  0  0  0  2  0  0  0  0  0  0
  161.2490  207.4590  154.7270 N   0  0  0  0  0  2  0  0  0  0  0  0
  159.4810  206.6020  156.1280 O   0  0  0  0  0  0  0  0  0  0  0  0
  160.0930  207.6590  155.4930 N   0  0  0  0  0  0  0  0  0  0  0  0
  159.5870  208.7960  155.5610 O   0  0  0  0  0  0  0  0  0  0  0  0
  1  4  2  0  0  0  0
  1 13  1  0  0  0  0
  2 13  2  0  0  0  0
  2  9  1  0  0  0  0
  4 14  1  0  0  0  0
  5  6  2  0  0  0  0
  6  8  1  0  0  0  0
  7  3  1  0  0  0  0
  7 15  1  0  0  0  0
  8 24  1  0  0  0  0
  8  4  1  0  0  0  0
  9 12  2  0  0  0  0
 10  2  1  0  0  0  0
 11  3  2  0  0  0  0
 12 17  1  0  0  0  0
 13 18  1  0  0  0  0
 14 16  1  0  0  0  0
 14 11  1  0  0  0  0
 16  7  2  0  0  0  0
 18 11  1  0  0  0  0
 18 17  2  0  0  0  0
 19 21  2  0  0  0  0
 21 20  1  0  0  0  0
 21  6  1  0  0  0  0
 22 19  1  0  0  0  0
 22 23  2  0  0  0  0
 23 20  1  0  0  0  0
 24 25  1  0  0  0  0
 25 26  1  0  0  0  0
 26 27  1  0  0  0  0
 27 29  1  0  0  0  0
 29 30  2  0  0  0  0
 29 28  2  0  0  0  0
M  END
>  <MODEL>
6

>  <REMARK>
 VINA RESULT:      -4.1      2.520      6.562
  Name = 
  6 active torsions:
  status: ('A' for Active; 'I' for Inactive)
    1  A    between atoms: N_7  and  N_15
    2  A    between atoms: N_7  and  C_16
    3  A    between atoms: C_8  and  C_12
    4  A    between atoms: N_13  and  C_27
    5  A    between atoms: C_16  and  C_30
    6  A    between atoms: C_27  and  C_30
                            x       y       z     vdW  Elec       q    Type
                         _______ _______ _______ _____ _____    ______ ____

>  <TORSDO>
F 6

$$$$
=
 OpenBabel11052421543D

 30 33  0  0  0  0  0  0  0  0999 V2000
  161.7410  208.3610  151.8490 N   0  0  0  0  0  0  0  0  0  0  0  0
  161.4930  206.9130  153.7610 C   0  0  0  0  0  0  0  0  0  0  0  0
  159.4310  211.3140  153.4330 N   0  0  0  0  0  0  0  0  0  0  0  0
  161.4900  209.5280  151.1850 C   0  0  0  0  0  0  0  0  0  0  0  0
  163.3670  208.6930  148.2610 O   0  0  0  0  0  0  0  0  0  0  0  0
  162.3310  208.6790  148.9780 C   0  0  0  0  0  0  0  0  0  0  0  0
  159.5070  212.1720  152.3910 C   0  0  0  0  0  0  0  0  0  0  0  0
  162.0840  209.7640  149.8940 N   0  0  0  0  0  0  0  0  0  0  0  0
  160.9590  206.6910  155.0350 C   0  0  0  0  0  3  0  0  0  0  0  0
  162.3370  205.8540  153.1360 C   0  0  0  0  0  1  0  0  0  0  0  0
  160.1810  210.2760  153.0170 C   0  0  0  0  0  0  0  0  0  0  0  0
  160.1620  207.6620  155.6500 C   0  0  0  0  0  3  0  0  0  0  0  0
  161.2270  208.1210  153.0940 C   0  0  0  0  0  0  0  0  0  0  0  0
  160.7060  210.4600  151.7950 N   0  0  0  0  0  0  0  0  0  0  0  0
  158.8310  213.4950  152.3650 C   0  0  0  0  0  1  0  0  0  0  0  0
  160.2860  211.6620  151.3650 C   0  0  0  0  0  3  0  0  0  0  0  0
  159.8900  208.8670  154.9960 C   0  0  0  0  0  3  0  0  0  0  0  0
  160.4180  209.0990  153.7230 C   0  0  0  0  0  0  0  0  0  0  0  0
  160.9280  207.0330  147.6330 C   0  0  0  0  0  3  0  0  0  0  0  0
  160.8710  206.9050  149.8360 O   0  0  0  0  0  0  0  0  0  0  0  0
  161.3830  207.5600  148.8250 C   0  0  0  0  0  0  0  0  0  0  0  0
  160.0810  206.0020  147.9970 C   0  0  0  0  0  3  0  0  0  0  0  0
  160.0810  205.9640  149.3810 C   0  0  0  0  0  3  0  0  0  0  0  0
  162.6540  211.0780  149.5970 C   0  0  0  0  0  2  0  0  0  0  0  0
  162.0520  211.6710  148.3260 C   0  0  0  0  0  2  0  0  0  0  0  0
  163.0320  212.5920  147.6160 C   0  0  0  0  0  2  0  0  0  0  0  0
  162.3180  213.4880  146.7190 N   0  0  0  0  0  2  0  0  0  0  0  0
  163.2450  213.1880  144.5120 O   0  0  0  0  0  0  0  0  0  0  0  0
  162.1620  213.1830  145.3600 N   0  0  0  0  0  0  0  0  0  0  0  0
  161.0250  212.9500  144.9070 O   0  0  0  0  0  0  0  0  0  0  0  0
  1 13  1  0  0  0  0
  2  9  1  0  0  0  0
  4 14  1  0  0  0  0
  4  1  2  0  0  0  0
  5  6  2  0  0  0  0
  6  8  1  0  0  0  0
  7  3  1  0  0  0  0
  8  4  1  0  0  0  0
  9 12  2  0  0  0  0
 10  2  1  0  0  0  0
 11  3  2  0  0  0  0
 11 18  1  0  0  0  0
 13 18  1  0  0  0  0
 13  2  2  0  0  0  0
 14 11  1  0  0  0  0
 15  7  1  0  0  0  0
 16 14  1  0  0  0  0
 16  7  2  0  0  0  0
 17 12  1  0  0  0  0
 18 17  2  0  0  0  0
 19 22  1  0  0  0  0
 19 21  2  0  0  0  0
 21  6  1  0  0  0  0
 21 20  1  0  0  0  0
 22 23  2  0  0  0  0
 23 20  1  0  0  0  0
 24  8  1  0  0  0  0
 25 24  1  0  0  0  0
 26 25  1  0  0  0  0
 27 26  1  0  0  0  0
 28 29  2  0  0  0  0
 29 27  1  0  0  0  0
 30 29  2  0  0  0  0
M  END
>  <MODEL>
7

>  <REMARK>
 VINA RESULT:      -3.9      4.111      6.832
  Name = 
  6 active torsions:
  status: ('A' for Active; 'I' for Inactive)
    1  A    between atoms: N_7  and  N_15
    2  A    between atoms: N_7  and  C_16
    3  A    between atoms: C_8  and  C_12
    4  A    between atoms: N_13  and  C_27
    5  A    between atoms: C_16  and  C_30
    6  A    between atoms: C_27  and  C_30
                            x       y       z     vdW  Elec       q    Type
                         _______ _______ _______ _____ _____    ______ ____

>  <TORSDO>
F 6

$$$$
=
 OpenBabel11052421543D

 30 33  0  0  0  0  0  0  0  0999 V2000
  160.8790  212.0890  151.9580 N   0  0  0  0  0  0  0  0  0  0  0  0
  160.8910  213.1380  149.7870 C   0  0  0  0  0  0  0  0  0  0  0  0
  161.9540  208.4390  150.5120 N   0  0  0  0  0  0  0  0  0  0  0  0
  161.0430  211.0020  152.7690 C   0  0  0  0  0  0  0  0  0  0  0  0
  160.2120  212.6860  155.8090 O   0  0  0  0  0  0  0  0  0  0  0  0
  159.9280  212.0660  154.7490 C   0  0  0  0  0  0  0  0  0  0  0  0
  161.9490  207.7770  151.6920 C   0  0  0  0  0  0  0  0  0  0  0  0
  160.8770  211.1340  154.1930 N   0  0  0  0  0  0  0  0  0  0  0  0
  161.0950  213.0330  148.4070 C   0  0  0  0  0  3  0  0  0  0  0  0
  160.4850  214.4530  150.3600 C   0  0  0  0  0  1  0  0  0  0  0  0
  161.6100  209.6900  150.8740 C   0  0  0  0  0  0  0  0  0  0  0  0
  161.4740  211.8140  147.8350 C   0  0  0  0  0  3  0  0  0  0  0  0
  161.0690  212.0090  150.6060 C   0  0  0  0  0  0  0  0  0  0  0  0
  161.4060  209.8200  152.1950 N   0  0  0  0  0  0  0  0  0  0  0  0
  162.2710  206.3320  151.8240 C   0  0  0  0  0  1  0  0  0  0  0  0
  161.6080  208.6110  152.7440 C   0  0  0  0  0  3  0  0  0  0  0  0
  161.6540  210.6850  148.6400 C   0  0  0  0  0  3  0  0  0  0  0  0
  161.4520  210.7780  150.0200 C   0  0  0  0  0  0  0  0  0  0  0  0
  157.4510  211.5900  154.3960 C   0  0  0  0  0  3  0  0  0  0  0  0
  158.3770  213.2370  153.2530 O   0  0  0  0  0  0  0  0  0  0  0  0
  158.6090  212.2940  154.1320 C   0  0  0  0  0  0  0  0  0  0  0  0
  156.4860  212.1750  153.5960 C   0  0  0  0  0  3  0  0  0  0  0  0
  157.1150  213.1960  152.9040 C   0  0  0  0  0  3  0  0  0  0  0  0
  161.8350  210.4880  155.0900 C   0  0  0  0  0  2  0  0  0  0  0  0
  161.1290  209.7990  156.2550 C   0  0  0  0  0  2  0  0  0  0  0  0
  162.0110  208.7410  156.9010 C   0  0  0  0  0  2  0  0  0  0  0  0
  161.2410  207.5330  157.1520 N   0  0  0  0  0  2  0  0  0  0  0  0
  160.8470  206.5900  154.9660 O   0  0  0  0  0  0  0  0  0  0  0  0
  160.3690  207.0120  156.1860 N   0  0  0  0  0  0  0  0  0  0  0  0
  159.1450  206.9750  156.4160 O   0  0  0  0  0  0  0  0  0  0  0  0
  1  4  2  0  0  0  0
  2 10  1  0  0  0  0
  2 13  1  0  0  0  0
  3 11  2  0  0  0  0
  3  7  1  0  0  0  0
  4  8  1  0  0  0  0
  6  5  2  0  0  0  0
  7 15  1  0  0  0  0
  7 16  2  0  0  0  0
  8  6  1  0  0  0  0
  8 24  1  0  0  0  0
  9  2  2  0  0  0  0
 11 14  1  0  0  0  0
 12  9  1  0  0  0  0
 12 17  2  0  0  0  0
 13  1  1  0  0  0  0
 14 16  1  0  0  0  0
 14  4  1  0  0  0  0
 17 18  1  0  0  0  0
 18 13  2  0  0  0  0
 18 11  1  0  0  0  0
 20 21  1  0  0  0  0
 21 19  2  0  0  0  0
 21  6  1  0  0  0  0
 22 19  1  0  0  0  0
 23 20  1  0  0  0  0
 23 22  2  0  0  0  0
 24 25  1  0  0  0  0
 25 26  1  0  0  0  0
 26 27  1  0  0  0  0
 28 29  2  0  0  0  0
 29 30  2  0  0  0  0
 29 27  1  0  0  0  0
M  END
>  <MODEL>
8

>  <REMARK>
 VINA RESULT:      -3.4      2.162      5.430
  Name = 
  6 active torsions:
  status: ('A' for Active; 'I' for Inactive)
    1  A    between atoms: N_7  and  N_15
    2  A    between atoms: N_7  and  C_16
    3  A    between atoms: C_8  and  C_12
    4  A    between atoms: N_13  and  C_27
    5  A    between atoms: C_16  and  C_30
    6  A    between atoms: C_27  and  C_30
                            x       y       z     vdW  Elec       q    Type
                         _______ _______ _______ _____ _____    ______ ____

>  <TORSDO>
F 6

$$$$
