=
 OpenBabel11052422403D

 31 35  0  0  1  0  0  0  0  0999 V2000
  160.5370  201.0300  149.3220 C   0  0  2  0  0  3  0  0  0  0  0  0
  161.1730  204.7780  148.7470 C   0  0  0  0  0  0  0  0  0  0  0  0
  160.9710  204.9410  147.2470 C   0  0  2  0  0  3  0  0  0  0  0  0
  161.2800  203.4580  145.1750 C   0  0  0  0  0  2  0  0  0  0  0  0
  160.9620  203.5400  149.3950 C   0  0  0  0  0  0  0  0  0  0  0  0
  160.2160  201.1300  150.8100 C   0  0  0  0  0  2  0  0  0  0  0  0
  161.8730  203.9550  146.5020 C   0  0  0  0  0  2  0  0  0  0  0  0
  161.8520  205.7330  150.8740 C   0  0  0  0  0  0  0  0  0  0  0  0
  161.9380  200.4890  149.0810 C   0  0  0  0  0  1  0  0  0  0  0  0
  160.9360  207.3930  147.6890 N   0  0  0  0  0  2  0  0  0  0  0  0
  160.3790  204.4170  144.5350 N   0  0  0  0  0  2  0  0  0  0  0  0
  161.6820  204.5230  151.4630 N   0  0  0  0  0  0  0  0  0  0  0  0
  161.5680  205.8870  149.5110 C   0  0  0  0  0  0  0  0  0  0  0  0
  160.3460  202.3830  148.6420 C   0  0  0  0  0  2  0  0  0  0  0  0
  161.0790  205.6730  144.3090 C   0  0  0  0  0  2  0  0  0  0  0  0
  161.2270  203.4400  150.7800 C   0  0  0  0  0  0  0  0  0  0  0  0
  161.1340  202.1290  151.5090 C   0  0  0  0  0  2  0  0  0  0  0  0
  161.6310  207.1680  148.8870 N   0  0  0  0  0  2  0  0  0  0  0  0
  161.3280  206.3600  146.7350 C   0  0  2  0  0  3  0  0  0  0  0  0
  160.6770  206.6690  145.3880 C   0  0  0  0  0  2  0  0  0  0  0  0
  162.2820  206.8960  151.7100 C   0  0  0  0  0  2  0  0  0  0  0  0
  160.9230  206.0600  153.4630 O   0  0  0  0  0  0  0  0  0  0  0  0
  161.3460  207.0840  152.8630 C   0  0  0  0  0  0  0  0  0  0  0  0
  160.1070  211.0550  153.9600 C   0  0  0  0  0  0  0  0  0  0  0  0
  160.5160  209.3540  152.2930 C   0  0  0  0  0  3  0  0  0  0  0  0
  161.3000  207.9710  155.7650 C   0  0  0  0  0  1  0  0  0  0  0  0
  159.5990  212.6750  154.3800 Cl  0  0  0  0  0  0  0  0  0  0  0  0
  160.1100  210.6480  152.6260 C   0  0  0  0  0  3  0  0  0  0  0  0
  160.9150  208.8690  154.6370 C   0  0  0  0  0  0  0  0  0  0  0  0
  160.9230  208.4450  153.2830 C   0  0  0  0  0  0  0  0  0  0  0  0
  160.5060  210.1670  154.9590 C   0  0  0  0  0  3  0  0  0  0  0  0
  1  9  1  1  0  0  0
  1  6  1  0  0  0  0
  2  5  2  0  0  0  0
  2 13  1  0  0  0  0
  3  7  1  6  0  0  0
  3  2  1  0  0  0  0
  4  7  1  0  0  0  0
  5 16  1  0  0  0  0
  6 17  1  0  0  0  0
  8 12  1  0  0  0  0
  8 21  1  0  0  0  0
 10 18  1  0  0  0  0
 11  4  1  0  0  0  0
 13  8  2  0  0  0  0
 14  1  1  0  0  0  0
 14  5  1  0  0  0  0
 15 11  1  0  0  0  0
 15 20  1  0  0  0  0
 16 12  2  0  0  0  0
 16 17  1  0  0  0  0
 18 13  1  0  0  0  0
 19 20  1  6  0  0  0
 19  3  1  0  0  0  0
 19 10  1  0  0  0  0
 21 23  1  0  0  0  0
 23 30  1  0  0  0  0
 23 22  2  0  0  0  0
 24 27  1  0  0  0  0
 24 31  1  0  0  0  0
 25 28  1  0  0  0  0
 25 30  2  0  0  0  0
 28 24  2  0  0  0  0
 29 31  2  0  0  0  0
 29 26  1  0  0  0  0
 30 29  1  0  0  0  0
M  END
>  <MODEL>
1

>  <REMARK>
 VINA RESULT:      -9.4      0.000      0.000
  Name = 
  3 active torsions:
  status: ('A' for Active; 'I' for Inactive)
    1  A    between atoms: C_9  and  C_22
    2  A    between atoms: C_9  and  C_23
    3  A    between atoms: C_15  and  C_23
                            x       y       z     vdW  Elec       q    Type
                         _______ _______ _______ _____ _____    ______ ____

>  <TORSDO>
F 3

$$$$
=
 OpenBabel11052422403D

 31 35  0  0  1  0  0  0  0  0999 V2000
  160.5120  210.4380  155.1000 C   0  0  2  0  0  3  0  0  0  0  0  0
  161.3770  210.2800  151.3570 C   0  0  0  0  0  0  0  0  0  0  0  0
  161.1110  211.7010  150.8760 C   0  0  2  0  0  3  0  0  0  0  0  0
  159.5240  213.6040  151.5440 C   0  0  0  0  0  2  0  0  0  0  0  0
  161.2460  209.9190  152.7170 C   0  0  0  0  0  0  0  0  0  0  0  0
  161.3250  209.2180  155.5220 C   0  0  0  0  0  2  0  0  0  0  0  0
  159.6830  212.1050  151.2490 C   0  0  0  0  0  2  0  0  0  0  0  0
  161.9260  207.9730  150.8360 C   0  0  0  0  0  0  0  0  0  0  0  0
  159.0240  210.1310  155.0350 C   0  0  0  0  0  1  0  0  0  0  0  0
  162.3310  211.0470  148.8040 N   0  0  0  0  0  2  0  0  0  0  0  0
  160.4740  214.4510  150.8220 N   0  0  0  0  0  2  0  0  0  0  0  0
  161.7540  207.6450  152.1410 N   0  0  0  0  0  0  0  0  0  0  0  0
  161.7720  209.3050  150.4290 C   0  0  0  0  0  0  0  0  0  0  0  0
  161.0190  210.9830  153.7670 C   0  0  0  0  0  2  0  0  0  0  0  0
  160.3430  214.2260  149.3890 C   0  0  0  0  0  2  0  0  0  0  0  0
  161.4460  208.5700  153.0880 C   0  0  0  0  0  0  0  0  0  0  0  0
  161.2130  208.0950  154.4940 C   0  0  0  0  0  2  0  0  0  0  0  0
  162.0540  209.7010  149.0880 N   0  0  0  0  0  2  0  0  0  0  0  0
  161.2420  211.8580  149.3390 C   0  0  2  0  0  3  0  0  0  0  0  0
  161.4670  213.3110  148.9250 C   0  0  0  0  0  2  0  0  0  0  0  0
  162.3410  206.9120  149.8670 C   0  0  0  0  0  2  0  0  0  0  0  0
  160.1030  206.9140  149.0850 O   0  0  0  0  0  0  0  0  0  0  0  0
  161.1380  206.2270  149.2980 C   0  0  0  0  0  0  0  0  0  0  0  0
  161.2410  202.0420  148.3090 C   0  0  0  0  0  0  0  0  0  0  0  0
  161.5160  204.3630  147.7000 C   0  0  0  0  0  3  0  0  0  0  0  0
  160.4920  204.1050  151.3690 C   0  0  0  0  0  1  0  0  0  0  0  0
  161.2910  200.3460  147.8810 Cl  0  0  0  0  0  0  0  0  0  0  0  0
  161.5560  203.0110  147.3560 C   0  0  0  0  0  3  0  0  0  0  0  0
  160.8480  203.7780  149.9590 C   0  0  0  0  0  0  0  0  0  0  0  0
  161.1640  204.7720  148.9970 C   0  0  0  0  0  0  0  0  0  0  0  0
  160.8910  202.4260  149.6030 C   0  0  0  0  0  3  0  0  0  0  0  0
  1  9  1  6  0  0  0
  1  6  1  0  0  0  0
  2  5  1  0  0  0  0
  3  7  1  6  0  0  0
  3  2  1  0  0  0  0
  5 16  2  0  0  0  0
  5 14  1  0  0  0  0
  7  4  1  0  0  0  0
  8 12  2  0  0  0  0
 10 18  1  0  0  0  0
 10 19  1  0  0  0  0
 11  4  1  0  0  0  0
 12 16  1  0  0  0  0
 13  8  1  0  0  0  0
 13  2  2  0  0  0  0
 14  1  1  0  0  0  0
 15 11  1  0  0  0  0
 16 17  1  0  0  0  0
 17  6  1  0  0  0  0
 18 13  1  0  0  0  0
 19 20  1  1  0  0  0
 19  3  1  0  0  0  0
 20 15  1  0  0  0  0
 21  8  1  0  0  0  0
 22 23  2  0  0  0  0
 23 21  1  0  0  0  0
 24 31  1  0  0  0  0
 25 30  2  0  0  0  0
 27 24  1  0  0  0  0
 28 25  1  0  0  0  0
 28 24  2  0  0  0  0
 29 26  1  0  0  0  0
 30 23  1  0  0  0  0
 30 29  1  0  0  0  0
 31 29  2  0  0  0  0
M  END
>  <MODEL>
2

>  <REMARK>
 VINA RESULT:      -8.8      3.645      8.002
  Name = 
  3 active torsions:
  status: ('A' for Active; 'I' for Inactive)
    1  A    between atoms: C_9  and  C_22
    2  A    between atoms: C_9  and  C_23
    3  A    between atoms: C_15  and  C_23
                            x       y       z     vdW  Elec       q    Type
                         _______ _______ _______ _____ _____    ______ ____

>  <TORSDO>
F 3

$$$$
=
 OpenBabel11052422403D

 31 35  0  0  1  0  0  0  0  0999 V2000
  160.1400  208.4710  155.9780 C   0  0  2  0  0  3  0  0  0  0  0  0
  160.8710  209.8420  152.4610 C   0  0  0  0  0  0  0  0  0  0  0  0
  160.2460  211.2300  152.4900 C   0  0  2  0  0  3  0  0  0  0  0  0
  158.2660  212.3340  153.6950 C   0  0  0  0  0  2  0  0  0  0  0  0
  160.8860  209.0100  153.6040 C   0  0  0  0  0  0  0  0  0  0  0  0
  161.2440  207.4170  155.9920 C   0  0  0  0  0  2  0  0  0  0  0  0
  158.7780  211.1180  152.9070 C   0  0  0  0  0  2  0  0  0  0  0  0
  161.9520  208.0700  151.2020 C   0  0  0  0  0  0  0  0  0  0  0  0
  158.7710  207.8520  155.7360 C   0  0  0  0  0  1  0  0  0  0  0  0
  161.5080  211.6580  150.3850 N   0  0  0  0  0  2  0  0  0  0  0  0
  158.9500  213.5840  153.3610 N   0  0  0  0  0  2  0  0  0  0  0  0
  161.9160  207.2760  152.3020 N   0  0  0  0  0  0  0  0  0  0  0  0
  161.4590  209.3790  151.2740 C   0  0  0  0  0  0  0  0  0  0  0  0
  160.4460  209.5510  154.9440 C   0  0  0  0  0  2  0  0  0  0  0  0
  158.8230  213.8460  151.9350 C   0  0  0  0  0  2  0  0  0  0  0  0
  161.4260  207.7090  153.4930 C   0  0  0  0  0  0  0  0  0  0  0  0
  161.3720  206.7320  154.6340 C   0  0  0  0  0  2  0  0  0  0  0  0
  161.5820  210.2740  150.1700 N   0  0  0  0  0  2  0  0  0  0  0  0
  160.2740  211.9400  151.1120 C   0  0  2  0  0  3  0  0  0  0  0  0
  160.1190  213.4540  151.2390 C   0  0  0  0  0  2  0  0  0  0  0  0
  162.5770  207.5480  149.9470 C   0  0  0  0  0  2  0  0  0  0  0  0
  160.8820  207.6050  148.2910 O   0  0  0  0  0  0  0  0  0  0  0  0
  161.5460  206.8880  149.0860 C   0  0  0  0  0  0  0  0  0  0  0  0
  160.8290  202.6620  149.4590 C   0  0  0  0  0  0  0  0  0  0  0  0
  160.8230  204.8950  150.3810 C   0  0  0  0  0  3  0  0  0  0  0  0
  162.0430  204.9980  146.7640 C   0  0  0  0  0  1  0  0  0  0  0  0
  160.5300  200.9480  149.6360 Cl  0  0  0  0  0  0  0  0  0  0  0  0
  160.5830  203.5280  150.5240 C   0  0  0  0  0  3  0  0  0  0  0  0
  161.5550  204.5340  148.0950 C   0  0  0  0  0  0  0  0  0  0  0  0
  161.3090  205.4230  149.1730 C   0  0  0  0  0  0  0  0  0  0  0  0
  161.3110  203.1660  148.2500 C   0  0  0  0  0  3  0  0  0  0  0  0
  1  9  1  6  0  0  0
  1  6  1  0  0  0  0
  2  3  1  0  0  0  0
  2  5  1  0  0  0  0
  3  7  1  6  0  0  0
  5 14  1  0  0  0  0
  7  4  1  0  0  0  0
  8 13  1  0  0  0  0
  8 12  2  0  0  0  0
 10 19  1  0  0  0  0
 11  4  1  0  0  0  0
 12 16  1  0  0  0  0
 13  2  2  0  0  0  0
 14  1  1  0  0  0  0
 15 11  1  0  0  0  0
 16  5  2  0  0  0  0
 16 17  1  0  0  0  0
 17  6  1  0  0  0  0
 18 10  1  0  0  0  0
 18 13  1  0  0  0  0
 19 20  1  1  0  0  0
 19  3  1  0  0  0  0
 20 15  1  0  0  0  0
 21  8  1  0  0  0  0
 22 23  2  0  0  0  0
 23 30  1  0  0  0  0
 23 21  1  0  0  0  0
 24 27  1  0  0  0  0
 24 28  1  0  0  0  0
 25 28  2  0  0  0  0
 26 29  1  0  0  0  0
 29 31  1  0  0  0  0
 29 30  2  0  0  0  0
 30 25  1  0  0  0  0
 31 24  2  0  0  0  0
M  END
>  <MODEL>
3

>  <REMARK>
 VINA RESULT:      -8.6      3.422      8.001
  Name = 
  3 active torsions:
  status: ('A' for Active; 'I' for Inactive)
    1  A    between atoms: C_9  and  C_22
    2  A    between atoms: C_9  and  C_23
    3  A    between atoms: C_15  and  C_23
                            x       y       z     vdW  Elec       q    Type
                         _______ _______ _______ _____ _____    ______ ____

>  <TORSDO>
F 3

$$$$
=
 OpenBabel11052422403D

 31 35  0  0  1  0  0  0  0  0999 V2000
  160.8580  203.0930  151.6090 C   0  0  2  0  0  3  0  0  0  0  0  0
  161.1980  205.9670  149.0770 C   0  0  0  0  0  0  0  0  0  0  0  0
  161.0640  205.2650  147.7320 C   0  0  2  0  0  3  0  0  0  0  0  0
  161.6120  202.9340  146.8080 C   0  0  0  0  0  2  0  0  0  0  0  0
  161.0600  205.2660  150.2970 C   0  0  0  0  0  0  0  0  0  0  0  0
  160.4490  203.9540  152.8010 C   0  0  0  0  0  2  0  0  0  0  0  0
  162.0870  204.1310  147.6460 C   0  0  0  0  0  2  0  0  0  0  0  0
  161.6750  207.9880  150.3340 C   0  0  0  0  0  0  0  0  0  0  0  0
  162.3120  202.6550  151.7000 C   0  0  0  0  0  1  0  0  0  0  0  0
  160.7920  207.5440  146.7610 N   0  0  0  0  0  2  0  0  0  0  0  0
  160.6670  203.2930  145.7500 N   0  0  0  0  0  2  0  0  0  0  0  0
  161.5780  207.2840  151.4890 N   0  0  0  0  0  0  0  0  0  0  0  0
  161.4530  207.3460  149.1090 C   0  0  0  0  0  0  0  0  0  0  0  0
  160.5870  203.8310  150.3000 C   0  0  0  0  0  2  0  0  0  0  0  0
  161.2670  204.2870  144.8720 C   0  0  0  0  0  2  0  0  0  0  0  0
  161.2570  205.9640  151.5100 C   0  0  0  0  0  0  0  0  0  0  0  0
  161.2380  205.2600  152.8380 C   0  0  0  0  0  2  0  0  0  0  0  0
  161.4380  208.0790  147.8850 N   0  0  0  0  0  2  0  0  0  0  0  0
  161.3240  206.2050  146.5260 C   0  0  2  0  0  3  0  0  0  0  0  0
  160.7220  205.6620  145.2310 C   0  0  0  0  0  2  0  0  0  0  0  0
  161.9570  209.4560  150.3970 C   0  0  0  0  0  2  0  0  0  0  0  0
  163.0650  209.8250  152.4590 O   0  0  0  0  0  0  0  0  0  0  0  0
  161.9840  209.9220  151.8180 C   0  0  0  0  0  0  0  0  0  0  0  0
  158.4470  211.6190  153.5830 C   0  0  0  0  0  0  0  0  0  0  0  0
  160.1110  211.5530  151.8330 C   0  0  0  0  0  3  0  0  0  0  0  0
  160.8310  208.8190  154.4000 C   0  0  0  0  0  1  0  0  0  0  0  0
  157.0080  212.3260  154.2800 Cl  0  0  0  0  0  0  0  0  0  0  0  0
  158.9630  212.1190  152.3880 C   0  0  0  0  0  3  0  0  0  0  0  0
  160.2310  209.9750  153.6740 C   0  0  0  0  0  0  0  0  0  0  0  0
  160.7640  210.4780  152.4590 C   0  0  0  0  0  0  0  0  0  0  0  0
  159.0790  210.5500  154.2200 C   0  0  0  0  0  3  0  0  0  0  0  0
  1  9  1  1  0  0  0
  1  6  1  0  0  0  0
  2 13  2  0  0  0  0
  2  5  1  0  0  0  0
  3  7  1  1  0  0  0
  3  2  1  0  0  0  0
  4  7  1  0  0  0  0
  5 14  1  0  0  0  0
  5 16  2  0  0  0  0
  6 17  1  0  0  0  0
  8 21  1  0  0  0  0
  8 12  2  0  0  0  0
 10 18  1  0  0  0  0
 11  4  1  0  0  0  0
 12 16  1  0  0  0  0
 13  8  1  0  0  0  0
 14  1  1  0  0  0  0
 15 20  1  0  0  0  0
 15 11  1  0  0  0  0
 16 17  1  0  0  0  0
 18 13  1  0  0  0  0
 19 20  1  6  0  0  0
 19 10  1  0  0  0  0
 19  3  1  0  0  0  0
 21 23  1  0  0  0  0
 23 22  2  0  0  0  0
 23 30  1  0  0  0  0
 24 31  1  0  0  0  0
 24 27  1  0  0  0  0
 25 28  1  0  0  0  0
 25 30  2  0  0  0  0
 28 24  2  0  0  0  0
 29 31  2  0  0  0  0
 29 26  1  0  0  0  0
 30 29  1  0  0  0  0
M  END
>  <MODEL>
4

>  <REMARK>
 VINA RESULT:      -8.5      1.736      2.276
  Name = 
  3 active torsions:
  status: ('A' for Active; 'I' for Inactive)
    1  A    between atoms: C_9  and  C_22
    2  A    between atoms: C_9  and  C_23
    3  A    between atoms: C_15  and  C_23
                            x       y       z     vdW  Elec       q    Type
                         _______ _______ _______ _____ _____    ______ ____

>  <TORSDO>
F 3

$$$$
=
 OpenBabel11052422403D

 31 35  0  0  1  0  0  0  0  0999 V2000
  160.4080  209.2360  154.4360 C   0  0  2  0  0  3  0  0  0  0  0  0
  161.2430  208.1140  150.8550 C   0  0  0  0  0  0  0  0  0  0  0  0
  161.0810  206.6010  150.9160 C   0  0  2  0  0  3  0  0  0  0  0  0
  161.3590  204.7900  152.7130 C   0  0  0  0  0  2  0  0  0  0  0  0
  160.9570  208.9370  151.9680 C   0  0  0  0  0  0  0  0  0  0  0  0
  160.0600  210.6820  154.0940 C   0  0  0  0  0  2  0  0  0  0  0  0
  161.9480  206.0410  152.0460 C   0  0  0  0  0  2  0  0  0  0  0  0
  161.9250  210.0880  149.6170 C   0  0  0  0  0  0  0  0  0  0  0  0
  161.7840  209.1200  155.0720 C   0  0  0  0  0  1  0  0  0  0  0  0
  161.1600  206.6620  148.4260 N   0  0  0  0  0  2  0  0  0  0  0  0
  160.5210  203.9850  151.8230 N   0  0  0  0  0  2  0  0  0  0  0  0
  161.6810  210.8500  150.7130 N   0  0  0  0  0  0  0  0  0  0  0  0
  161.6780  208.7100  149.6620 C   0  0  0  0  0  0  0  0  0  0  0  0
  160.2990  208.3520  153.1960 C   0  0  0  0  0  2  0  0  0  0  0  0
  161.2880  203.5900  150.6500 C   0  0  0  0  0  2  0  0  0  0  0  0
  161.1870  210.3270  151.8650 C   0  0  0  0  0  0  0  0  0  0  0  0
  161.0130  211.2460  153.0420 C   0  0  0  0  0  2  0  0  0  0  0  0
  161.8180  207.8990  148.4960 N   0  0  0  0  0  2  0  0  0  0  0  0
  161.5200  205.8880  149.6100 C   0  0  2  0  0  3  0  0  0  0  0  0
  160.9140  204.4920  149.4830 C   0  0  0  0  0  2  0  0  0  0  0  0
  162.3950  210.7490  148.3600 C   0  0  0  0  0  2  0  0  0  0  0  0
  162.7530  213.0540  148.7760 O   0  0  0  0  0  0  0  0  0  0  0  0
  161.9620  212.1810  148.3300 C   0  0  0  0  0  0  0  0  0  0  0  0
  158.1380  213.2310  146.6630 C   0  0  0  0  0  0  0  0  0  0  0  0
  160.3160  212.2050  146.4700 C   0  0  0  0  0  3  0  0  0  0  0  0
  159.8830  213.6620  149.9720 C   0  0  0  0  0  1  0  0  0  0  0  0
  156.5900  213.6460  145.9610 Cl  0  0  0  0  0  0  0  0  0  0  0  0
  159.0820  212.5360  145.9080 C   0  0  0  0  0  3  0  0  0  0  0  0
  159.6610  213.2660  148.5520 C   0  0  0  0  0  0  0  0  0  0  0  0
  160.6290  212.5600  147.7920 C   0  0  0  0  0  0  0  0  0  0  0  0
  158.4280  213.5920  147.9790 C   0  0  0  0  0  3  0  0  0  0  0  0
  1  9  1  6  0  0  0
  2  3  1  0  0  0  0
  2  5  1  0  0  0  0
  3  7  1  1  0  0  0
  5 14  1  0  0  0  0
  6  1  1  0  0  0  0
  7  4  1  0  0  0  0
  8 13  1  0  0  0  0
  8 12  2  0  0  0  0
 10 18  1  0  0  0  0
 10 19  1  0  0  0  0
 11  4  1  0  0  0  0
 12 16  1  0  0  0  0
 13  2  2  0  0  0  0
 14  1  1  0  0  0  0
 15 11  1  0  0  0  0
 16  5  2  0  0  0  0
 16 17  1  0  0  0  0
 17  6  1  0  0  0  0
 18 13  1  0  0  0  0
 19 20  1  6  0  0  0
 19  3  1  0  0  0  0
 20 15  1  0  0  0  0
 21  8  1  0  0  0  0
 23 21  1  0  0  0  0
 23 22  2  0  0  0  0
 24 31  1  0  0  0  0
 25 30  2  0  0  0  0
 27 24  1  0  0  0  0
 28 25  1  0  0  0  0
 28 24  2  0  0  0  0
 29 26  1  0  0  0  0
 30 23  1  0  0  0  0
 30 29  1  0  0  0  0
 31 29  2  0  0  0  0
M  END
>  <MODEL>
5

>  <REMARK>
 VINA RESULT:      -8.3      3.892      6.901
  Name = 
  3 active torsions:
  status: ('A' for Active; 'I' for Inactive)
    1  A    between atoms: C_9  and  C_22
    2  A    between atoms: C_9  and  C_23
    3  A    between atoms: C_15  and  C_23
                            x       y       z     vdW  Elec       q    Type
                         _______ _______ _______ _____ _____    ______ ____

>  <TORSDO>
F 3

$$$$
=
 OpenBabel11052422403D

 31 35  0  0  1  0  0  0  0  0999 V2000
  159.7610  209.8120  156.1360 C   0  0  2  0  0  3  0  0  0  0  0  0
  161.0310  209.5070  152.5190 C   0  0  0  0  0  0  0  0  0  0  0  0
  160.7790  210.8940  151.9420 C   0  0  2  0  0  3  0  0  0  0  0  0
  159.0770  212.7730  152.3400 C   0  0  0  0  0  2  0  0  0  0  0  0
  160.7630  209.2060  153.8750 C   0  0  0  0  0  0  0  0  0  0  0  0
  160.5570  208.6410  156.7040 C   0  0  0  0  0  2  0  0  0  0  0  0
  159.3090  211.2680  152.1400 C   0  0  0  0  0  2  0  0  0  0  0  0
  161.6980  207.1970  152.1770 C   0  0  0  0  0  0  0  0  0  0  0  0
  158.2970  209.4530  155.9280 C   0  0  0  0  0  1  0  0  0  0  0  0
  162.2350  210.1840  150.0480 N   0  0  0  0  0  2  0  0  0  0  0  0
  160.0760  213.6160  151.6820 N   0  0  0  0  0  2  0  0  0  0  0  0
  161.3940  206.9260  153.4720 N   0  0  0  0  0  0  0  0  0  0  0  0
  161.5510  208.5020  151.6900 C   0  0  0  0  0  0  0  0  0  0  0  0
  160.3940  210.3100  154.8390 C   0  0  0  0  0  2  0  0  0  0  0  0
  160.1070  213.3200  150.2570 C   0  0  0  0  0  2  0  0  0  0  0  0
  160.9590  207.8840  154.3320 C   0  0  0  0  0  0  0  0  0  0  0  0
  160.5890  207.4670  155.7270 C   0  0  0  0  0  2  0  0  0  0  0  0
  161.9660  208.8450  150.3680 N   0  0  0  0  0  2  0  0  0  0  0  0
  161.0720  210.9830  150.4220 C   0  0  2  0  0  3  0  0  0  0  0  0
  161.3000  212.4210  149.9620 C   0  0  0  0  0  2  0  0  0  0  0  0
  162.2440  206.1060  151.3130 C   0  0  0  0  0  2  0  0  0  0  0  0
  160.1510  204.9970  151.2350 O   0  0  0  0  0  0  0  0  0  0  0  0
  161.1370  205.4210  150.5750 C   0  0  0  0  0  0  0  0  0  0  0  0
  161.3270  205.0260  146.2960 C   0  0  0  0  0  0  0  0  0  0  0  0
  161.2670  206.3870  148.2900 C   0  0  0  0  0  3  0  0  0  0  0  0
  161.1720  202.6920  149.2480 C   0  0  0  0  0  1  0  0  0  0  0  0
  161.4050  204.8920  144.5540 Cl  0  0  0  0  0  0  0  0  0  0  0  0
  161.3290  206.2830  146.9000 C   0  0  0  0  0  3  0  0  0  0  0  0
  161.2050  203.9680  148.4770 C   0  0  0  0  0  0  0  0  0  0  0  0
  161.2040  205.2420  149.1020 C   0  0  0  0  0  0  0  0  0  0  0  0
  161.2670  203.8750  147.0830 C   0  0  0  0  0  3  0  0  0  0  0  0
  1  9  1  6  0  0  0
  1  6  1  0  0  0  0
  2  5  1  0  0  0  0
  3  7  1  6  0  0  0
  3  2  1  0  0  0  0
  5 16  2  0  0  0  0
  5 14  1  0  0  0  0
  7  4  1  0  0  0  0
  8 12  2  0  0  0  0
 10 18  1  0  0  0  0
 10 19  1  0  0  0  0
 11  4  1  0  0  0  0
 12 16  1  0  0  0  0
 13  8  1  0  0  0  0
 13  2  2  0  0  0  0
 14  1  1  0  0  0  0
 15 11  1  0  0  0  0
 16 17  1  0  0  0  0
 17  6  1  0  0  0  0
 18 13  1  0  0  0  0
 19 20  1  1  0  0  0
 19  3  1  0  0  0  0
 20 15  1  0  0  0  0
 21  8  1  0  0  0  0
 23 22  2  0  0  0  0
 23 21  1  0  0  0  0
 24 28  2  0  0  0  0
 24 31  1  0  0  0  0
 25 30  2  0  0  0  0
 27 24  1  0  0  0  0
 28 25  1  0  0  0  0
 29 30  1  0  0  0  0
 29 26  1  0  0  0  0
 30 23  1  0  0  0  0
 31 29  2  0  0  0  0
M  END
>  <MODEL>
6

>  <REMARK>
 VINA RESULT:      -8.0      3.139      7.821
  Name = 
  3 active torsions:
  status: ('A' for Active; 'I' for Inactive)
    1  A    between atoms: C_9  and  C_22
    2  A    between atoms: C_9  and  C_23
    3  A    between atoms: C_15  and  C_23
                            x       y       z     vdW  Elec       q    Type
                         _______ _______ _______ _____ _____    ______ ____

>  <TORSDO>
F 3

$$$$
=
 OpenBabel11052422403D

 31 35  0  0  1  0  0  0  0  0999 V2000
  161.5410  206.2040  146.0120 C   0  0  2  0  0  3  0  0  0  0  0  0
  161.2000  203.6630  148.8770 C   0  0  0  0  0  0  0  0  0  0  0  0
  161.2850  202.3200  148.1650 C   0  0  2  0  0  3  0  0  0  0  0  0
  160.6640  201.4250  145.8410 C   0  0  0  0  0  2  0  0  0  0  0  0
  161.3540  204.8840  148.1810 C   0  0  0  0  0  0  0  0  0  0  0  0
  161.9980  207.3810  146.8700 C   0  0  0  0  0  2  0  0  0  0  0  0
  160.2360  202.2670  147.0530 C   0  0  0  0  0  2  0  0  0  0  0  0
  160.7980  204.9190  150.9160 C   0  0  0  0  0  0  0  0  0  0  0  0
  160.0810  206.3350  145.6060 C   0  0  0  0  0  1  0  0  0  0  0  0
  161.5810  201.3280  150.4320 N   0  0  0  0  0  2  0  0  0  0  0  0
  161.5890  200.3410  146.1730 N   0  0  0  0  0  2  0  0  0  0  0  0
  160.9090  206.0760  150.2160 N   0  0  0  0  0  0  0  0  0  0  0  0
  160.9750  203.6930  150.2620 C   0  0  0  0  0  0  0  0  0  0  0  0
  161.7950  204.8850  146.7350 C   0  0  0  0  0  2  0  0  0  0  0  0
  160.9890  199.4720  147.1750 C   0  0  0  0  0  2  0  0  0  0  0  0
  161.2020  206.0970  148.8900 C   0  0  0  0  0  0  0  0  0  0  0  0
  161.2390  207.4290  148.1940 C   0  0  0  0  0  2  0  0  0  0  0  0
  160.9750  202.4650  150.9870 N   0  0  0  0  0  2  0  0  0  0  0  0
  161.0150  201.1150  149.1030 C   0  0  2  0  0  3  0  0  0  0  0  0
  161.5730  199.8090  148.5400 C   0  0  0  0  0  2  0  0  0  0  0  0
  160.5500  204.9800  152.3900 C   0  0  0  0  0  2  0  0  0  0  0  0
  162.7290  205.7550  152.9090 O   0  0  0  0  0  0  0  0  0  0  0  0
  161.4900  205.9470  153.0380 C   0  0  0  0  0  0  0  0  0  0  0  0
  159.9590  209.2100  155.3860 C   0  0  0  0  0  0  0  0  0  0  0  0
  160.4690  206.8650  155.1070 C   0  0  0  0  0  3  0  0  0  0  0  0
  161.4990  208.7900  151.9750 C   0  0  0  0  0  1  0  0  0  0  0  0
  159.3310  210.5190  156.3610 Cl  0  0  0  0  0  0  0  0  0  0  0  0
  159.9670  207.9080  155.8870 C   0  0  0  0  0  3  0  0  0  0  0  0
  160.9610  208.4290  153.3180 C   0  0  0  0  0  0  0  0  0  0  0  0
  160.9730  207.1010  153.8170 C   0  0  0  0  0  0  0  0  0  0  0  0
  160.4550  209.4670  154.1080 C   0  0  0  0  0  3  0  0  0  0  0  0
  1  9  1  1  0  0  0
  1 14  1  0  0  0  0
  1  6  1  0  0  0  0
  2 13  1  0  0  0  0
  3  7  1  6  0  0  0
  3  2  1  0  0  0  0
  3 19  1  0  0  0  0
  4 11  1  0  0  0  0
  4  7  1  0  0  0  0
  5  2  2  0  0  0  0
  5 16  1  0  0  0  0
  6 17  1  0  0  0  0
  8 21  1  0  0  0  0
 10 18  1  0  0  0  0
 11 15  1  0  0  0  0
 12  8  1  0  0  0  0
 13  8  2  0  0  0  0
 13 18  1  0  0  0  0
 14  5  1  0  0  0  0
 15 20  1  0  0  0  0
 16 12  2  0  0  0  0
 17 16  1  0  0  0  0
 19 20  1  6  0  0  0
 19 10  1  0  0  0  0
 21 23  1  0  0  0  0
 22 23  2  0  0  0  0
 23 30  1  0  0  0  0
 24 28  1  0  0  0  0
 24 27  1  0  0  0  0
 25 28  2  0  0  0  0
 26 29  1  0  0  0  0
 29 30  2  0  0  0  0
 29 31  1  0  0  0  0
 30 25  1  0  0  0  0
 31 24  2  0  0  0  0
M  END
>  <MODEL>
7

>  <REMARK>
 VINA RESULT:      -7.6      1.733      4.221
  Name = 
  3 active torsions:
  status: ('A' for Active; 'I' for Inactive)
    1  A    between atoms: C_9  and  C_22
    2  A    between atoms: C_9  and  C_23
    3  A    between atoms: C_15  and  C_23
                            x       y       z     vdW  Elec       q    Type
                         _______ _______ _______ _____ _____    ______ ____

>  <TORSDO>
F 3

$$$$
=
 OpenBabel11052422403D

 31 35  0  0  1  0  0  0  0  0999 V2000
  161.6820  210.9580  149.8370 C   0  0  2  0  0  3  0  0  0  0  0  0
  161.3130  208.2360  152.5280 C   0  0  0  0  0  0  0  0  0  0  0  0
  160.8490  209.0150  153.7510 C   0  0  2  0  0  3  0  0  0  0  0  0
  161.1780  211.3950  154.6540 C   0  0  0  0  0  2  0  0  0  0  0  0
  161.5050  208.8640  151.2760 C   0  0  0  0  0  0  0  0  0  0  0  0
  161.5800  210.0300  148.6300 C   0  0  0  0  0  2  0  0  0  0  0  0
  161.8330  210.1510  154.0350 C   0  0  0  0  0  2  0  0  0  0  0  0
  162.0660  206.1440  151.5510 C   0  0  0  0  0  0  0  0  0  0  0  0
  163.1170  211.3890  150.0990 C   0  0  0  0  0  1  0  0  0  0  0  0
  160.3010  206.7960  154.7450 N   0  0  0  0  0  2  0  0  0  0  0  0
  159.9870  211.0990  155.4510 N   0  0  0  0  0  2  0  0  0  0  0  0
  162.2810  206.7810  150.3720 N   0  0  0  0  0  0  0  0  0  0  0  0
  161.5470  206.8570  152.6390 C   0  0  0  0  0  0  0  0  0  0  0  0
  161.0720  210.2980  151.0710 C   0  0  0  0  0  2  0  0  0  0  0  0
  160.3250  210.1560  156.5080 C   0  0  0  0  0  2  0  0  0  0  0  0
  161.9970  208.0980  150.1960 C   0  0  0  0  0  0  0  0  0  0  0  0
  162.3310  208.7230  148.8710 C   0  0  0  0  0  2  0  0  0  0  0  0
  161.2060  206.1960  153.8570 N   0  0  0  0  0  2  0  0  0  0  0  0
  160.7750  208.1460  155.0340 C   0  0  2  0  0  3  0  0  0  0  0  0
  159.8690  208.7630  156.0980 C   0  0  0  0  0  2  0  0  0  0  0  0
  162.3310  204.6750  151.6450 C   0  0  0  0  0  2  0  0  0  0  0  0
  160.2420  203.5950  151.9370 O   0  0  0  0  0  0  0  0  0  0  0  0
  161.1590  203.9000  151.1290 C   0  0  0  0  0  0  0  0  0  0  0  0
  160.9530  202.8530  146.9620 C   0  0  0  0  0  0  0  0  0  0  0  0
  161.2070  204.4930  148.7180 C   0  0  0  0  0  3  0  0  0  0  0  0
  160.7820  201.0210  150.2480 C   0  0  0  0  0  1  0  0  0  0  0  0
  160.8730  202.4540  145.2610 Cl  0  0  0  0  0  0  0  0  0  0  0  0
  161.1430  204.1770  147.3600 C   0  0  0  0  0  3  0  0  0  0  0  0
  160.8930  202.1540  149.2850 C   0  0  0  0  0  0  0  0  0  0  0  0
  161.0850  203.4970  149.7010 C   0  0  0  0  0  0  0  0  0  0  0  0
  160.8310  201.8490  147.9220 C   0  0  0  0  0  3  0  0  0  0  0  0
  1  9  1  1  0  0  0
  1 14  1  0  0  0  0
  2 13  1  0  0  0  0
  2  3  1  0  0  0  0
  3  7  1  1  0  0  0
  3 19  1  0  0  0  0
  4 11  1  0  0  0  0
  5  2  2  0  0  0  0
  6 17  1  0  0  0  0
  6  1  1  0  0  0  0
  7  4  1  0  0  0  0
  8 21  1  0  0  0  0
  8 13  2  0  0  0  0
 10 19  1  0  0  0  0
 11 15  1  0  0  0  0
 12  8  1  0  0  0  0
 13 18  1  0  0  0  0
 14  5  1  0  0  0  0
 16 12  2  0  0  0  0
 16  5  1  0  0  0  0
 17 16  1  0  0  0  0
 18 10  1  0  0  0  0
 19 20  1  1  0  0  0
 20 15  1  0  0  0  0
 23 21  1  0  0  0  0
 23 22  2  0  0  0  0
 24 28  2  0  0  0  0
 24 31  1  0  0  0  0
 25 30  2  0  0  0  0
 27 24  1  0  0  0  0
 28 25  1  0  0  0  0
 29 30  1  0  0  0  0
 29 26  1  0  0  0  0
 30 23  1  0  0  0  0
 31 29  2  0  0  0  0
M  END
>  <MODEL>
8

>  <REMARK>
 VINA RESULT:      -7.6      3.443      8.397
  Name = 
  3 active torsions:
  status: ('A' for Active; 'I' for Inactive)
    1  A    between atoms: C_9  and  C_22
    2  A    between atoms: C_9  and  C_23
    3  A    between atoms: C_15  and  C_23
                            x       y       z     vdW  Elec       q    Type
                         _______ _______ _______ _____ _____    ______ ____

>  <TORSDO>
F 3

$$$$
=
 OpenBabel11052422403D

 31 35  0  0  1  0  0  0  0  0999 V2000
  160.5900  202.7620  151.4880 C   0  0  2  0  0  3  0  0  0  0  0  0
  161.4170  205.7740  149.2460 C   0  0  0  0  0  0  0  0  0  0  0  0
  161.1800  205.2390  147.8400 C   0  0  2  0  0  3  0  0  0  0  0  0
  161.3450  202.9520  146.6880 C   0  0  0  0  0  2  0  0  0  0  0  0
  161.1570  204.9900  150.3930 C   0  0  0  0  0  0  0  0  0  0  0  0
  160.3190  203.5570  152.7620 C   0  0  0  0  0  2  0  0  0  0  0  0
  162.0040  203.9660  147.6350 C   0  0  0  0  0  2  0  0  0  0  0  0
  162.2110  207.5570  150.6910 C   0  0  0  0  0  0  0  0  0  0  0  0
  161.9510  202.0840  151.5240 C   0  0  0  0  0  1  0  0  0  0  0  0
  161.2950  207.6160  147.0990 N   0  0  0  0  0  2  0  0  0  0  0  0
  160.4800  203.5630  145.6780 N   0  0  0  0  0  2  0  0  0  0  0  0
  161.9900  206.7690  151.7730 N   0  0  0  0  0  0  0  0  0  0  0  0
  161.8960  207.0830  149.4110 C   0  0  0  0  0  0  0  0  0  0  0  0
  160.4550  203.6580  150.2600 C   0  0  0  0  0  2  0  0  0  0  0  0
  161.2430  204.5260  144.8970 C   0  0  0  0  0  2  0  0  0  0  0  0
  161.4560  205.5240  151.6670 C   0  0  0  0  0  0  0  0  0  0  0  0
  161.3120  204.7060  152.9200 C   0  0  0  0  0  2  0  0  0  0  0  0
  162.0110  207.9250  148.2650 N   0  0  0  0  0  2  0  0  0  0  0  0
  161.6010  206.2370  146.7300 C   0  0  2  0  0  3  0  0  0  0  0  0
  160.9280  205.9300  145.3930 C   0  0  0  0  0  2  0  0  0  0  0  0
  162.7290  208.9460  150.8950 C   0  0  0  0  0  2  0  0  0  0  0  0
  160.7850  209.7290  152.0010 O   0  0  0  0  0  0  0  0  0  0  0  0
  161.5940  209.9080  151.0520 C   0  0  0  0  0  0  0  0  0  0  0  0
  161.1830  213.1360  148.2390 C   0  0  0  0  0  0  0  0  0  0  0  0
  162.0930  210.9910  148.8730 C   0  0  0  0  0  3  0  0  0  0  0  0
  159.8460  212.3130  151.6620 C   0  0  0  0  0  1  0  0  0  0  0  0
  161.0330  214.4360  147.0780 Cl  0  0  0  0  0  0  0  0  0  0  0  0
  161.9750  212.0260  147.9450 C   0  0  0  0  0  3  0  0  0  0  0  0
  160.6200  212.1750  150.3950 C   0  0  0  0  0  0  0  0  0  0  0  0
  161.4240  211.0420  150.1070 C   0  0  0  0  0  0  0  0  0  0  0  0
  160.5090  213.2080  149.4580 C   0  0  0  0  0  3  0  0  0  0  0  0
  1  9  1  1  0  0  0
  1  6  1  0  0  0  0
  2 13  2  0  0  0  0
  2  5  1  0  0  0  0
  3  7  1  6  0  0  0
  3  2  1  0  0  0  0
  4  7  1  0  0  0  0
  5 16  2  0  0  0  0
  6 17  1  0  0  0  0
  8 21  1  0  0  0  0
  8 12  2  0  0  0  0
 10 18  1  0  0  0  0
 11  4  1  0  0  0  0
 13  8  1  0  0  0  0
 14  5  1  0  0  0  0
 14  1  1  0  0  0  0
 15 20  1  0  0  0  0
 15 11  1  0  0  0  0
 16 12  1  0  0  0  0
 16 17  1  0  0  0  0
 18 13  1  0  0  0  0
 19 20  1  6  0  0  0
 19 10  1  0  0  0  0
 19  3  1  0  0  0  0
 21 23  1  0  0  0  0
 23 22  2  0  0  0  0
 24 31  1  0  0  0  0
 25 30  2  0  0  0  0
 27 24  1  0  0  0  0
 28 24  2  0  0  0  0
 28 25  1  0  0  0  0
 29 26  1  0  0  0  0
 30 29  1  0  0  0  0
 30 23  1  0  0  0  0
 31 29  2  0  0  0  0
M  END
>  <MODEL>
9

>  <REMARK>
 VINA RESULT:      -7.5      2.667      3.433
  Name = 
  3 active torsions:
  status: ('A' for Active; 'I' for Inactive)
    1  A    between atoms: C_9  and  C_22
    2  A    between atoms: C_9  and  C_23
    3  A    between atoms: C_15  and  C_23
                            x       y       z     vdW  Elec       q    Type
                         _______ _______ _______ _____ _____    ______ ____

>  <TORSDO>
F 3

$$$$
