=
 OpenBabel11052422273D

 31 34  0  0  1  0  0  0  0  0999 V2000
  161.9480  209.1080  150.5040 C   0  0  1  0  0  3  0  0  0  0  0  0
  161.4880  207.9490  149.7310 N   0  0  0  0  0  0  0  0  0  0  0  0
  161.4560  206.6280  150.3040 C   0  0  0  0  0  0  0  0  0  0  0  0
  161.8280  205.1850  152.3460 C   0  0  0  0  0  3  0  0  0  0  0  0
  161.6900  206.4610  151.6190 C   0  0  0  0  0  3  0  0  0  0  0  0
  161.8320  205.8250  147.9010 C   0  0  0  0  0  2  0  0  0  0  0  0
  161.2520  204.0350  152.0010 C   0  0  0  0  0  3  0  0  0  0  0  0
  161.1770  208.0850  148.4100 O   0  0  0  0  0  0  0  0  0  0  0  0
  160.2970  203.9130  150.8640 C   0  0  0  0  0  2  0  0  0  0  0  0
  162.1300  207.3210  147.7120 C   0  0  0  0  0  2  0  0  0  0  0  0
  161.4170  205.5170  149.3160 C   0  0  0  0  0  0  0  0  0  0  0  0
  160.9230  204.3030  149.5670 C   0  0  0  0  0  3  0  0  0  0  0  0
  161.5770  212.3280  149.0220 N   0  0  0  0  0  0  0  0  0  0  0  0
  162.4260  211.7500  148.1580 C   0  0  0  0  0  3  0  0  0  0  0  0
  161.0670  213.6840  148.9420 C   0  0  0  0  0  1  0  0  0  0  0  0
  161.2800  211.4770  149.9830 N   0  0  0  0  0  0  0  0  0  0  0  0
  161.9680  210.3610  149.6800 C   0  0  0  0  0  0  0  0  0  0  0  0
  162.6970  210.4880  148.5510 N   0  0  0  0  0  0  0  0  0  0  0  0
  161.7180  209.6940  152.8180 C   0  0  0  0  0  3  0  0  0  0  0  0
  161.1890  209.2680  151.7260 N   0  0  0  0  0  0  0  0  0  0  0  0
  160.9030  209.8270  154.0700 C   0  0  1  0  0  3  0  0  0  0  0  0
  161.1260  207.9120  155.1560 C   0  0  0  0  0  1  0  0  0  0  0  0
  161.5760  209.2320  155.1390 O   0  0  0  0  0  0  0  0  0  0  0  0
  160.6230  211.2920  154.3910 C   0  0  0  0  0  2  0  0  0  0  0  0
  158.8130  213.0370  152.3540 C   0  0  2  0  0  3  0  0  0  0  0  0
  158.2790  213.9510  153.4440 C   0  0  2  0  0  3  0  0  0  0  0  0
  158.1000  213.2230  151.0260 C   0  0  0  0  0  1  0  0  0  0  0  0
  158.6710  211.6220  152.8550 C   0  0  0  0  0  2  0  0  0  0  0  0
  158.8350  213.2550  155.0280 S   0  0  0  0  0  0  0  0  0  0  0  0
  159.1350  211.6080  154.3020 C   0  0  2  0  0  3  0  0  0  0  0  0
  156.8810  213.9820  153.4330 O   0  0  0  0  0  1  0  0  0  0  0  0
  1 20  1  1  0  0  0
  2  3  1  0  0  0  0
  2  1  1  0  0  0  0
  3  5  2  0  0  0  0
  5  4  1  0  0  0  0
  6 11  1  0  0  0  0
  7  4  2  0  0  0  0
  8  2  1  0  0  0  0
  9  7  1  0  0  0  0
 10  6  1  0  0  0  0
 10  8  1  0  0  0  0
 11 12  2  0  0  0  0
 11  3  1  0  0  0  0
 12  9  1  0  0  0  0
 13 16  1  0  0  0  0
 14 18  2  0  0  0  0
 14 13  1  0  0  0  0
 15 13  1  0  0  0  0
 17 16  2  0  0  0  0
 17  1  1  0  0  0  0
 18 17  1  0  0  0  0
 20 19  2  0  0  0  0
 21 19  1  6  0  0  0
 21 24  1  0  0  0  0
 21 23  1  0  0  0  0
 23 22  1  0  0  0  0
 25 27  1  6  0  0  0
 25 28  1  0  0  0  0
 25 26  1  0  0  0  0
 26 31  1  1  0  0  0
 26 29  1  0  0  0  0
 28 30  1  0  0  0  0
 30 24  1  6  0  0  0
 30 29  1  0  0  0  0
M  END
>  <MODEL>
1

>  <REMARK>
 VINA RESULT:      -7.2      0.000      0.000
  Name = 
  7 active torsions:
  status: ('A' for Active; 'I' for Inactive)
    1  A    between atoms: C_3  and  C_9
    2  A    between atoms: C_3  and  C_22
    3  A    between atoms: N_4  and  C_12
    4  A    between atoms: C_9  and  C_15
    5  A    between atoms: C_9  and  O_23
    6  A    between atoms: C_12  and  N_20
    7  A    between atoms: C_12  and  C_27
                            x       y       z     vdW  Elec       q    Type
                         _______ _______ _______ _____ _____    ______ ____

>  <TORSDO>
F 7

$$$$
=
 OpenBabel11052422273D

 31 34  0  0  1  0  0  0  0  0999 V2000
  162.2570  206.0060  148.1040 C   0  0  1  0  0  3  0  0  0  0  0  0
  161.8820  204.8490  148.9240 N   0  0  0  0  0  0  0  0  0  0  0  0
  161.4770  203.6040  148.3250 C   0  0  0  0  0  0  0  0  0  0  0  0
  161.1140  202.2820  146.2000 C   0  0  0  0  0  3  0  0  0  0  0  0
  161.5960  203.4270  146.9960 C   0  0  0  0  0  3  0  0  0  0  0  0
  160.0790  203.3020  150.4500 C   0  0  0  0  0  2  0  0  0  0  0  0
  160.9680  201.0380  146.6510 C   0  0  0  0  0  3  0  0  0  0  0  0
  161.8120  204.9640  150.2810 O   0  0  0  0  0  0  0  0  0  0  0  0
  161.3740  200.6160  148.0210 C   0  0  0  0  0  2  0  0  0  0  0  0
  160.4560  204.7830  150.6090 C   0  0  0  0  0  2  0  0  0  0  0  0
  160.7060  202.6990  149.2210 C   0  0  0  0  0  0  0  0  0  0  0  0
  160.6410  201.3740  149.0760 C   0  0  0  0  0  3  0  0  0  0  0  0
  161.2550  205.8290  144.6870 N   0  0  0  0  0  0  0  0  0  0  0  0
  160.0810  206.0930  145.2810 C   0  0  0  0  0  3  0  0  0  0  0  0
  161.4690  205.6270  143.2670 C   0  0  0  0  0  1  0  0  0  0  0  0
  162.2030  205.7590  145.6000 N   0  0  0  0  0  0  0  0  0  0  0  0
  161.5760  205.9920  146.7680 C   0  0  0  0  0  0  0  0  0  0  0  0
  160.2520  206.2040  146.6140 N   0  0  0  0  0  0  0  0  0  0  0  0
  162.4030  208.3900  148.3310 C   0  0  0  0  0  3  0  0  0  0  0  0
  162.0470  207.2510  148.8120 N   0  0  0  0  0  0  0  0  0  0  0  0
  162.1880  209.6550  149.1040 C   0  0  1  0  0  3  0  0  0  0  0  0
  162.3310  211.8140  148.6360 C   0  0  0  0  0  1  0  0  0  0  0  0
  161.6700  210.6430  148.2640 O   0  0  0  0  0  0  0  0  0  0  0  0
  161.2370  209.4290  150.2770 C   0  0  0  0  0  2  0  0  0  0  0  0
  160.8310  207.8080  153.0480 C   0  0  2  0  0  3  0  0  0  0  0  0
  160.7120  209.0670  153.8900 C   0  0  2  0  0  3  0  0  0  0  0  0
  160.9450  206.5460  153.8860 C   0  0  0  0  0  1  0  0  0  0  0  0
  162.0380  207.9830  152.1600 C   0  0  0  0  0  2  0  0  0  0  0  0
  161.1170  210.4650  152.8000 S   0  0  0  0  0  0  0  0  0  0  0  0
  161.9860  209.3960  151.6030 C   0  0  2  0  0  3  0  0  0  0  0  0
  161.6200  209.0490  154.9520 O   0  0  0  0  0  1  0  0  0  0  0  0
  1 20  1  1  0  0  0
  1  2  1  0  0  0  0
  2  8  1  0  0  0  0
  3  2  1  0  0  0  0
  3 11  1  0  0  0  0
  4  7  2  0  0  0  0
  4  5  1  0  0  0  0
  5  3  2  0  0  0  0
  6 10  1  0  0  0  0
  7  9  1  0  0  0  0
  8 10  1  0  0  0  0
  9 12  1  0  0  0  0
 11  6  1  0  0  0  0
 12 11  2  0  0  0  0
 13 14  1  0  0  0  0
 13 16  1  0  0  0  0
 14 18  2  0  0  0  0
 15 13  1  0  0  0  0
 16 17  2  0  0  0  0
 17  1  1  0  0  0  0
 18 17  1  0  0  0  0
 19 20  2  0  0  0  0
 21 19  1  6  0  0  0
 21 24  1  0  0  0  0
 23 22  1  0  0  0  0
 23 21  1  0  0  0  0
 25 27  1  1  0  0  0
 25 26  1  0  0  0  0
 26 31  1  1  0  0  0
 28 25  1  0  0  0  0
 29 26  1  0  0  0  0
 30 24  1  6  0  0  0
 30 28  1  0  0  0  0
 30 29  1  0  0  0  0
M  END
>  <MODEL>
2

>  <REMARK>
 VINA RESULT:      -7.1      3.018      5.616
  Name = 
  7 active torsions:
  status: ('A' for Active; 'I' for Inactive)
    1  A    between atoms: C_3  and  C_9
    2  A    between atoms: C_3  and  C_22
    3  A    between atoms: N_4  and  C_12
    4  A    between atoms: C_9  and  C_15
    5  A    between atoms: C_9  and  O_23
    6  A    between atoms: C_12  and  N_20
    7  A    between atoms: C_12  and  C_27
                            x       y       z     vdW  Elec       q    Type
                         _______ _______ _______ _____ _____    ______ ____

>  <TORSDO>
F 7

$$$$
=
 OpenBabel11052422273D

 31 34  0  0  1  0  0  0  0  0999 V2000
  160.7390  210.5930  153.1330 C   0  0  1  0  0  3  0  0  0  0  0  0
  159.4700  211.3220  153.2360 N   0  0  0  0  0  0  0  0  0  0  0  0
  159.1530  212.4070  152.3430 C   0  0  0  0  0  0  0  0  0  0  0  0
  159.8520  213.7980  150.3520 C   0  0  0  0  0  3  0  0  0  0  0  0
  159.9460  212.6600  151.2860 C   0  0  0  0  0  3  0  0  0  0  0  0
  157.7700  213.3100  154.3010 C   0  0  0  0  0  2  0  0  0  0  0  0
  158.7340  214.4520  150.0450 C   0  0  0  0  0  3  0  0  0  0  0  0
  158.6040  211.0530  154.2550 O   0  0  0  0  0  0  0  0  0  0  0  0
  157.3910  214.0470  150.5450 C   0  0  0  0  0  2  0  0  0  0  0  0
  158.5620  212.2200  155.0390 C   0  0  0  0  0  2  0  0  0  0  0  0
  158.0910  213.3280  152.8290 C   0  0  0  0  0  0  0  0  0  0  0  0
  157.3210  214.0740  152.0350 C   0  0  0  0  0  3  0  0  0  0  0  0
  161.4660  208.8960  156.1830 N   0  0  0  0  0  0  0  0  0  0  0  0
  162.2470  209.9800  156.3050 C   0  0  0  0  0  3  0  0  0  0  0  0
  161.3540  207.8100  157.1380 C   0  0  0  0  0  1  0  0  0  0  0  0
  160.8130  208.9520  155.0390 N   0  0  0  0  0  0  0  0  0  0  0  0
  161.2150  210.1020  154.4680 C   0  0  0  0  0  0  0  0  0  0  0  0
  162.1100  210.7740  155.2230 N   0  0  0  0  0  0  0  0  0  0  0  0
  161.6380  209.2440  151.3650 C   0  0  0  0  0  3  0  0  0  0  0  0
  160.6630  209.5290  152.1540 N   0  0  0  0  0  0  0  0  0  0  0  0
  161.5140  208.1490  150.3500 C   0  0  1  0  0  3  0  0  0  0  0  0
  161.9980  209.5350  148.6940 C   0  0  0  0  0  1  0  0  0  0  0  0
  162.4240  208.3590  149.3120 O   0  0  0  0  0  0  0  0  0  0  0  0
  161.7630  206.7820  150.9820 C   0  0  0  0  0  2  0  0  0  0  0  0
  161.5770  203.5520  150.9910 C   0  0  2  0  0  3  0  0  0  0  0  0
  161.2810  203.4590  149.5040 C   0  0  2  0  0  3  0  0  0  0  0  0
  161.4000  202.2260  151.7110 C   0  0  0  0  0  1  0  0  0  0  0  0
  160.6610  204.6070  151.5590 C   0  0  0  0  0  2  0  0  0  0  0  0
  161.0190  205.1590  148.9160 S   0  0  0  0  0  0  0  0  0  0  0  0
  160.6790  205.7830  150.5970 C   0  0  2  0  0  3  0  0  0  0  0  0
  160.1190  202.7190  149.2680 O   0  0  0  0  0  1  0  0  0  0  0  0
  1 20  1  6  0  0  0
  1  2  1  0  0  0  0
  1 17  1  0  0  0  0
  2  8  1  0  0  0  0
  3 11  1  0  0  0  0
  3  2  1  0  0  0  0
  4  5  1  0  0  0  0
  5  3  2  0  0  0  0
  6 10  1  0  0  0  0
  7  4  2  0  0  0  0
  7  9  1  0  0  0  0
  8 10  1  0  0  0  0
  9 12  1  0  0  0  0
 11  6  1  0  0  0  0
 12 11  2  0  0  0  0
 13 14  1  0  0  0  0
 13 15  1  0  0  0  0
 16 13  1  0  0  0  0
 17 16  2  0  0  0  0
 17 18  1  0  0  0  0
 18 14  2  0  0  0  0
 19 20  2  0  0  0  0
 21 24  1  1  0  0  0
 21 19  1  0  0  0  0
 22 23  1  0  0  0  0
 23 21  1  0  0  0  0
 25 28  1  0  0  0  0
 25 27  1  1  0  0  0
 26 31  1  1  0  0  0
 26 25  1  0  0  0  0
 29 26  1  0  0  0  0
 29 30  1  0  0  0  0
 30 24  1  1  0  0  0
 30 28  1  0  0  0  0
M  END
>  <MODEL>
3

>  <REMARK>
 VINA RESULT:      -7.1      2.845      8.210
  Name = 
  7 active torsions:
  status: ('A' for Active; 'I' for Inactive)
    1  A    between atoms: C_3  and  C_9
    2  A    between atoms: C_3  and  C_22
    3  A    between atoms: N_4  and  C_12
    4  A    between atoms: C_9  and  C_15
    5  A    between atoms: C_9  and  O_23
    6  A    between atoms: C_12  and  N_20
    7  A    between atoms: C_12  and  C_27
                            x       y       z     vdW  Elec       q    Type
                         _______ _______ _______ _____ _____    ______ ____

>  <TORSDO>
F 7

$$$$
=
 OpenBabel11052422273D

 31 34  0  0  1  0  0  0  0  0999 V2000
  161.9750  208.1870  149.3250 C   0  0  1  0  0  3  0  0  0  0  0  0
  161.3820  207.5900  150.5270 N   0  0  0  0  0  0  0  0  0  0  0  0
  161.4670  208.2410  151.8080 C   0  0  0  0  0  0  0  0  0  0  0  0
  162.2290  210.2610  153.1240 C   0  0  0  0  0  3  0  0  0  0  0  0
  161.9480  209.4940  151.8950 C   0  0  0  0  0  3  0  0  0  0  0  0
  161.3830  205.8650  152.7630 C   0  0  0  0  0  2  0  0  0  0  0  0
  161.6040  210.1040  154.2890 C   0  0  0  0  0  3  0  0  0  0  0  0
  160.8240  206.3460  150.4720 O   0  0  0  0  0  0  0  0  0  0  0  0
  160.4510  209.1800  154.4760 C   0  0  0  0  0  2  0  0  0  0  0  0
  161.6320  205.5300  151.2840 C   0  0  0  0  0  2  0  0  0  0  0  0
  161.2470  207.3490  152.9790 C   0  0  0  0  0  0  0  0  0  0  0  0
  160.8170  207.7660  154.1720 C   0  0  0  0  0  3  0  0  0  0  0  0
  162.3720  205.7970  146.7110 N   0  0  0  0  0  0  0  0  0  0  0  0
  161.1570  206.2850  146.4220 C   0  0  0  0  0  3  0  0  0  0  0  0
  163.0700  204.7540  145.9820 C   0  0  0  0  0  1  0  0  0  0  0  0
  162.8450  206.3990  147.7840 N   0  0  0  0  0  0  0  0  0  0  0  0
  161.8850  207.2720  148.1400 C   0  0  0  0  0  0  0  0  0  0  0  0
  160.8150  207.2330  147.3190 N   0  0  0  0  0  0  0  0  0  0  0  0
  162.1440  210.4960  148.6960 C   0  0  0  0  0  3  0  0  0  0  0  0
  161.4180  209.4950  149.0500 N   0  0  0  0  0  0  0  0  0  0  0  0
  161.5330  211.8400  148.4410 C   0  0  1  0  0  3  0  0  0  0  0  0
  163.5220  212.2860  147.5800 C   0  0  0  0  0  1  0  0  0  0  0  0
  162.5300  212.8160  148.4060 O   0  0  0  0  0  0  0  0  0  0  0  0
  160.7580  211.8510  147.1250 C   0  0  0  0  0  2  0  0  0  0  0  0
  157.7690  212.8090  147.9090 C   0  0  2  0  0  3  0  0  0  0  0  0
  157.3860  213.1440  146.4770 C   0  0  2  0  0  3  0  0  0  0  0  0
  156.7420  213.2880  148.9210 C   0  0  0  0  0  1  0  0  0  0  0  0
  159.1170  213.4350  148.1630 C   0  0  0  0  0  2  0  0  0  0  0  0
  158.9020  212.9980  145.4840 S   0  0  0  0  0  0  0  0  0  0  0  0
  159.9820  213.1500  146.9460 C   0  0  2  0  0  3  0  0  0  0  0  0
  156.9080  214.4530  146.3770 O   0  0  0  0  0  1  0  0  0  0  0  0
  1 20  1  6  0  0  0
  1  2  1  0  0  0  0
  2  3  1  0  0  0  0
  3  5  2  0  0  0  0
  3 11  1  0  0  0  0
  4  7  2  0  0  0  0
  5  4  1  0  0  0  0
  6 11  1  0  0  0  0
  7  9  1  0  0  0  0
  8  2  1  0  0  0  0
  8 10  1  0  0  0  0
 10  6  1  0  0  0  0
 11 12  2  0  0  0  0
 12  9  1  0  0  0  0
 13 16  1  0  0  0  0
 14 13  1  0  0  0  0
 14 18  2  0  0  0  0
 15 13  1  0  0  0  0
 16 17  2  0  0  0  0
 17  1  1  0  0  0  0
 18 17  1  0  0  0  0
 19 20  2  0  0  0  0
 21 24  1  6  0  0  0
 21 19  1  0  0  0  0
 22 23  1  0  0  0  0
 23 21  1  0  0  0  0
 25 28  1  0  0  0  0
 25 27  1  1  0  0  0
 26 31  1  1  0  0  0
 26 25  1  0  0  0  0
 29 26  1  0  0  0  0
 29 30  1  0  0  0  0
 30 24  1  1  0  0  0
 30 28  1  0  0  0  0
M  END
>  <MODEL>
4

>  <REMARK>
 VINA RESULT:      -7.0      3.114      5.728
  Name = 
  7 active torsions:
  status: ('A' for Active; 'I' for Inactive)
    1  A    between atoms: C_3  and  C_9
    2  A    between atoms: C_3  and  C_22
    3  A    between atoms: N_4  and  C_12
    4  A    between atoms: C_9  and  C_15
    5  A    between atoms: C_9  and  O_23
    6  A    between atoms: C_12  and  N_20
    7  A    between atoms: C_12  and  C_27
                            x       y       z     vdW  Elec       q    Type
                         _______ _______ _______ _____ _____    ______ ____

>  <TORSDO>
F 7

$$$$
=
 OpenBabel11052422273D

 31 34  0  0  1  0  0  0  0  0999 V2000
  161.4310  209.8210  151.9660 C   0  0  1  0  0  3  0  0  0  0  0  0
  160.5710  210.9450  151.5790 N   0  0  0  0  0  0  0  0  0  0  0  0
  160.8820  211.7710  150.4410 C   0  0  0  0  0  0  0  0  0  0  0  0
  162.4200  212.2060  148.4830 C   0  0  0  0  0  3  0  0  0  0  0  0
  161.8800  211.4220  149.6100 C   0  0  0  0  0  3  0  0  0  0  0  0
  159.6680  213.6160  151.7390 C   0  0  0  0  0  2  0  0  0  0  0  0
  161.7360  213.0940  147.7650 C   0  0  0  0  0  3  0  0  0  0  0  0
  159.5070  211.2960  152.3580 O   0  0  0  0  0  0  0  0  0  0  0  0
  160.2790  213.3430  147.9520 C   0  0  0  0  0  2  0  0  0  0  0  0
  159.8070  212.5750  152.8610 C   0  0  0  0  0  2  0  0  0  0  0  0
  160.2190  213.1040  150.4350 C   0  0  0  0  0  0  0  0  0  0  0  0
  159.9690  213.8140  149.3330 C   0  0  0  0  0  3  0  0  0  0  0  0
  161.0030  208.6730  155.3130 N   0  0  0  0  0  0  0  0  0  0  0  0
  161.7240  209.7860  155.5190 C   0  0  0  0  0  3  0  0  0  0  0  0
  160.5360  207.7560  156.3350 C   0  0  0  0  0  1  0  0  0  0  0  0
  160.7910  208.5190  154.0210 N   0  0  0  0  0  0  0  0  0  0  0  0
  161.3990  209.5720  153.4440 C   0  0  0  0  0  0  0  0  0  0  0  0
  161.9940  210.3860  154.3410 N   0  0  0  0  0  0  0  0  0  0  0  0
  162.0370  207.8450  150.7490 C   0  0  0  0  0  3  0  0  0  0  0  0
  161.1250  208.6290  151.2030 N   0  0  0  0  0  0  0  0  0  0  0  0
  161.6810  206.6310  149.9450 C   0  0  1  0  0  3  0  0  0  0  0  0
  161.5160  204.9640  151.3920 C   0  0  0  0  0  1  0  0  0  0  0  0
  160.7500  205.8570  150.6410 O   0  0  0  0  0  0  0  0  0  0  0  0
  161.1080  207.0210  148.5850 C   0  0  0  0  0  2  0  0  0  0  0  0
  162.7150  205.2950  146.3700 C   0  0  2  0  0  3  0  0  0  0  0  0
  161.6720  205.5150  145.2870 C   0  0  2  0  0  3  0  0  0  0  0  0
  163.7590  204.2620  145.9820 C   0  0  0  0  0  1  0  0  0  0  0  0
  161.9760  204.8790  147.6170 C   0  0  0  0  0  2  0  0  0  0  0  0
  160.2570  206.3320  146.0830 S   0  0  0  0  0  0  0  0  0  0  0  0
  160.7690  205.7930  147.7500 C   0  0  2  0  0  3  0  0  0  0  0  0
  161.2440  204.2990  144.7480 O   0  0  0  0  0  1  0  0  0  0  0  0
  1 20  1  6  0  0  0
  1 17  1  0  0  0  0
  2  1  1  0  0  0  0
  2  8  1  0  0  0  0
  3  2  1  0  0  0  0
  4  5  1  0  0  0  0
  5  3  2  0  0  0  0
  6 10  1  0  0  0  0
  7  9  1  0  0  0  0
  7  4  2  0  0  0  0
  8 10  1  0  0  0  0
  9 12  1  0  0  0  0
 11  3  1  0  0  0  0
 11  6  1  0  0  0  0
 12 11  2  0  0  0  0
 13 14  1  0  0  0  0
 13 15  1  0  0  0  0
 16 13  1  0  0  0  0
 17 16  2  0  0  0  0
 17 18  1  0  0  0  0
 18 14  2  0  0  0  0
 19 20  2  0  0  0  0
 21 24  1  6  0  0  0
 21 23  1  0  0  0  0
 21 19  1  0  0  0  0
 23 22  1  0  0  0  0
 25 27  1  6  0  0  0
 25 28  1  0  0  0  0
 26 31  1  1  0  0  0
 26 29  1  0  0  0  0
 26 25  1  0  0  0  0
 28 30  1  0  0  0  0
 29 30  1  0  0  0  0
 30 24  1  1  0  0  0
M  END
>  <MODEL>
5

>  <REMARK>
 VINA RESULT:      -6.9      2.922      7.938
  Name = 
  7 active torsions:
  status: ('A' for Active; 'I' for Inactive)
    1  A    between atoms: C_3  and  C_9
    2  A    between atoms: C_3  and  C_22
    3  A    between atoms: N_4  and  C_12
    4  A    between atoms: C_9  and  C_15
    5  A    between atoms: C_9  and  O_23
    6  A    between atoms: C_12  and  N_20
    7  A    between atoms: C_12  and  C_27
                            x       y       z     vdW  Elec       q    Type
                         _______ _______ _______ _____ _____    ______ ____

>  <TORSDO>
F 7

$$$$
=
 OpenBabel11052422273D

 31 34  0  0  1  0  0  0  0  0999 V2000
  161.7840  206.0950  148.0930 C   0  0  1  0  0  3  0  0  0  0  0  0
  161.2050  205.0100  148.8930 N   0  0  0  0  0  0  0  0  0  0  0  0
  161.3540  204.9710  150.3250 C   0  0  0  0  0  0  0  0  0  0  0  0
  162.2330  206.1070  152.4050 C   0  0  0  0  0  3  0  0  0  0  0  0
  161.8860  206.0230  150.9740 C   0  0  0  0  0  3  0  0  0  0  0  0
  161.2060  202.4300  150.0410 C   0  0  0  0  0  2  0  0  0  0  0  0
  161.6380  205.4280  153.3840 C   0  0  0  0  0  3  0  0  0  0  0  0
  160.5980  203.9540  148.2800 O   0  0  0  0  0  0  0  0  0  0  0  0
  160.4560  204.5490  153.1610 C   0  0  0  0  0  2  0  0  0  0  0  0
  161.3970  202.8330  148.5700 C   0  0  0  0  0  2  0  0  0  0  0  0
  161.1350  203.6350  150.9410 C   0  0  0  0  0  0  0  0  0  0  0  0
  160.7570  203.4430  152.2070 C   0  0  0  0  0  3  0  0  0  0  0  0
  161.2950  205.7770  144.5770 N   0  0  0  0  0  0  0  0  0  0  0  0
  160.0820  206.2030  144.9620 C   0  0  0  0  0  3  0  0  0  0  0  0
  161.6960  205.4540  143.2210 C   0  0  0  0  0  1  0  0  0  0  0  0
  162.0800  205.6760  145.6300 N   0  0  0  0  0  0  0  0  0  0  0  0
  161.3140  206.0560  146.6700 C   0  0  0  0  0  0  0  0  0  0  0  0
  160.0610  206.3910  146.2980 N   0  0  0  0  0  0  0  0  0  0  0  0
  162.4000  208.3560  148.6040 C   0  0  0  0  0  3  0  0  0  0  0  0
  161.5610  207.3870  148.7080 N   0  0  0  0  0  0  0  0  0  0  0  0
  162.1440  209.6730  149.2730 C   0  0  1  0  0  3  0  0  0  0  0  0
  162.3460  211.7260  148.4730 C   0  0  0  0  0  1  0  0  0  0  0  0
  161.5790  210.5660  148.3600 O   0  0  0  0  0  0  0  0  0  0  0  0
  161.2150  209.5090  150.4730 C   0  0  0  0  0  2  0  0  0  0  0  0
  160.7020  209.3460  153.6630 C   0  0  2  0  0  3  0  0  0  0  0  0
  160.1370  210.7530  153.7510 C   0  0  2  0  0  3  0  0  0  0  0  0
  160.9560  208.7250  155.0260 C   0  0  0  0  0  1  0  0  0  0  0  0
  161.9750  209.4310  152.8590 C   0  0  0  0  0  2  0  0  0  0  0  0
  160.3920  211.5220  152.1240 S   0  0  0  0  0  0  0  0  0  0  0  0
  161.6930  210.3280  151.6650 C   0  0  2  0  0  3  0  0  0  0  0  0
  160.8120  211.5070  154.7150 O   0  0  0  0  0  1  0  0  0  0  0  0
  1 20  1  1  0  0  0
  1  2  1  0  0  0  0
  2  3  1  0  0  0  0
  3 11  1  0  0  0  0
  3  5  2  0  0  0  0
  4  7  2  0  0  0  0
  5  4  1  0  0  0  0
  6 11  1  0  0  0  0
  8 10  1  0  0  0  0
  8  2  1  0  0  0  0
  9  7  1  0  0  0  0
 10  6  1  0  0  0  0
 11 12  2  0  0  0  0
 12  9  1  0  0  0  0
 13 14  1  0  0  0  0
 13 16  1  0  0  0  0
 14 18  2  0  0  0  0
 15 13  1  0  0  0  0
 16 17  2  0  0  0  0
 17  1  1  0  0  0  0
 18 17  1  0  0  0  0
 19 20  2  0  0  0  0
 21 19  1  6  0  0  0
 21 24  1  0  0  0  0
 23 22  1  0  0  0  0
 23 21  1  0  0  0  0
 25 26  1  0  0  0  0
 25 27  1  1  0  0  0
 26 31  1  1  0  0  0
 28 25  1  0  0  0  0
 29 26  1  0  0  0  0
 30 24  1  6  0  0  0
 30 29  1  0  0  0  0
 30 28  1  0  0  0  0
M  END
>  <MODEL>
6

>  <REMARK>
 VINA RESULT:      -6.7      2.425      4.944
  Name = 
  7 active torsions:
  status: ('A' for Active; 'I' for Inactive)
    1  A    between atoms: C_3  and  C_9
    2  A    between atoms: C_3  and  C_22
    3  A    between atoms: N_4  and  C_12
    4  A    between atoms: C_9  and  C_15
    5  A    between atoms: C_9  and  O_23
    6  A    between atoms: C_12  and  N_20
    7  A    between atoms: C_12  and  C_27
                            x       y       z     vdW  Elec       q    Type
                         _______ _______ _______ _____ _____    ______ ____

>  <TORSDO>
F 7

$$$$
=
 OpenBabel11052422273D

 31 34  0  0  1  0  0  0  0  0999 V2000
  160.6630  206.1720  150.2430 C   0  0  1  0  0  3  0  0  0  0  0  0
  161.2250  205.0690  149.4550 N   0  0  0  0  0  0  0  0  0  0  0  0
  161.2070  205.0890  148.0150 C   0  0  0  0  0  0  0  0  0  0  0  0
  160.6190  206.3610  145.9120 C   0  0  0  0  0  3  0  0  0  0  0  0
  160.8240  206.2020  147.3640 C   0  0  0  0  0  3  0  0  0  0  0  0
  161.1250  202.5360  148.2090 C   0  0  0  0  0  2  0  0  0  0  0  0
  161.2460  205.6670  144.9640 C   0  0  0  0  0  3  0  0  0  0  0  0
  161.6870  203.9460  150.0780 O   0  0  0  0  0  0  0  0  0  0  0  0
  162.3280  204.6860  145.2570 C   0  0  0  0  0  2  0  0  0  0  0  0
  160.8310  202.9060  149.6720 C   0  0  0  0  0  2  0  0  0  0  0  0
  161.3750  203.7600  147.3680 C   0  0  0  0  0  0  0  0  0  0  0  0
  161.8530  203.5780  146.1350 C   0  0  0  0  0  3  0  0  0  0  0  0
  160.8980  206.3090  153.7970 N   0  0  0  0  0  0  0  0  0  0  0  0
  161.2060  205.0220  153.5740 C   0  0  0  0  0  3  0  0  0  0  0  0
  160.8140  206.9550  155.0930 C   0  0  0  0  0  1  0  0  0  0  0  0
  160.6590  206.9090  152.6480 N   0  0  0  0  0  0  0  0  0  0  0  0
  160.8350  205.9540  151.7160 C   0  0  0  0  0  0  0  0  0  0  0  0
  161.1750  204.7620  152.2500 N   0  0  0  0  0  0  0  0  0  0  0  0
  161.8250  208.2390  150.6050 C   0  0  0  0  0  3  0  0  0  0  0  0
  161.1850  207.4520  149.8140 N   0  0  0  0  0  0  0  0  0  0  0  0
  162.3310  209.5670  150.1280 C   0  0  1  0  0  3  0  0  0  0  0  0
  161.9700  211.1550  148.6310 C   0  0  0  0  0  1  0  0  0  0  0  0
  161.9520  209.7710  148.8000 O   0  0  0  0  0  0  0  0  0  0  0  0
  161.7950  210.7030  150.9950 C   0  0  0  0  0  2  0  0  0  0  0  0
  160.0320  212.1010  153.3210 C   0  0  2  0  0  3  0  0  0  0  0  0
  160.8300  211.4730  154.4500 C   0  0  2  0  0  3  0  0  0  0  0  0
  158.7720  212.7970  153.8050 C   0  0  0  0  0  1  0  0  0  0  0  0
  159.7040  210.9990  152.3450 C   0  0  0  0  0  2  0  0  0  0  0  0
  161.9610  210.2710  153.6870 S   0  0  0  0  0  0  0  0  0  0  0  0
  160.9670  210.1730  152.1590 C   0  0  2  0  0  3  0  0  0  0  0  0
  159.9930  210.7970  155.3420 O   0  0  0  0  0  1  0  0  0  0  0  0
  1 20  1  6  0  0  0
  1 17  1  0  0  0  0
  2  8  1  0  0  0  0
  2  1  1  0  0  0  0
  3  2  1  0  0  0  0
  4  5  1  0  0  0  0
  5  3  2  0  0  0  0
  6 10  1  0  0  0  0
  7  9  1  0  0  0  0
  7  4  2  0  0  0  0
  9 12  1  0  0  0  0
 10  8  1  0  0  0  0
 11  3  1  0  0  0  0
 11  6  1  0  0  0  0
 12 11  2  0  0  0  0
 13 15  1  0  0  0  0
 14 13  1  0  0  0  0
 16 13  1  0  0  0  0
 17 18  1  0  0  0  0
 17 16  2  0  0  0  0
 18 14  2  0  0  0  0
 20 19  2  0  0  0  0
 21 19  1  1  0  0  0
 21 24  1  0  0  0  0
 22 23  1  0  0  0  0
 23 21  1  0  0  0  0
 25 27  1  1  0  0  0
 25 26  1  0  0  0  0
 26 31  1  1  0  0  0
 28 25  1  0  0  0  0
 29 26  1  0  0  0  0
 30 24  1  6  0  0  0
 30 28  1  0  0  0  0
 30 29  1  0  0  0  0
M  END
>  <MODEL>
7

>  <REMARK>
 VINA RESULT:      -6.7      2.284      5.066
  Name = 
  7 active torsions:
  status: ('A' for Active; 'I' for Inactive)
    1  A    between atoms: C_3  and  C_9
    2  A    between atoms: C_3  and  C_22
    3  A    between atoms: N_4  and  C_12
    4  A    between atoms: C_9  and  C_15
    5  A    between atoms: C_9  and  O_23
    6  A    between atoms: C_12  and  N_20
    7  A    between atoms: C_12  and  C_27
                            x       y       z     vdW  Elec       q    Type
                         _______ _______ _______ _____ _____    ______ ____

>  <TORSDO>
F 7

$$$$
=
 OpenBabel11052422273D

 31 34  0  0  1  0  0  0  0  0999 V2000
  162.0780  207.9010  149.5000 C   0  0  1  0  0  3  0  0  0  0  0  0
  161.4450  207.2860  150.6720 N   0  0  0  0  0  0  0  0  0  0  0  0
  161.4470  207.9400  151.9550 C   0  0  0  0  0  0  0  0  0  0  0  0
  162.0810  209.9840  153.3020 C   0  0  0  0  0  3  0  0  0  0  0  0
  161.8850  209.2080  152.0630 C   0  0  0  0  0  3  0  0  0  0  0  0
  161.3880  205.5640  152.9100 C   0  0  0  0  0  2  0  0  0  0  0  0
  161.4040  209.8090  154.4360 C   0  0  0  0  0  3  0  0  0  0  0  0
  160.9290  206.0260  150.5920 O   0  0  0  0  0  0  0  0  0  0  0  0
  160.2720  208.8500  154.5670 C   0  0  0  0  0  2  0  0  0  0  0  0
  161.7190  205.2350  151.4450 C   0  0  0  0  0  2  0  0  0  0  0  0
  161.1970  207.0430  153.1160 C   0  0  0  0  0  0  0  0  0  0  0  0
  160.6950  207.4470  154.2840 C   0  0  0  0  0  3  0  0  0  0  0  0
  161.0260  206.2890  146.4990 N   0  0  0  0  0  0  0  0  0  0  0  0
  162.2140  205.6980  146.7000 C   0  0  0  0  0  3  0  0  0  0  0  0
  160.1240  206.0400  145.3910 C   0  0  0  0  0  1  0  0  0  0  0  0
  160.8000  207.1590  147.4630 N   0  0  0  0  0  0  0  0  0  0  0  0
  161.8810  207.0800  148.2610 C   0  0  0  0  0  0  0  0  0  0  0  0
  162.7880  206.1820  147.8200 N   0  0  0  0  0  0  0  0  0  0  0  0
  162.3310  210.1270  148.6430 C   0  0  0  0  0  3  0  0  0  0  0  0
  161.6500  209.2720  149.3210 N   0  0  0  0  0  0  0  0  0  0  0  0
  161.8660  211.5440  148.4980 C   0  0  1  0  0  3  0  0  0  0  0  0
  160.5650  212.4780  150.0260 C   0  0  0  0  0  1  0  0  0  0  0  0
  161.8990  212.1830  149.7390 O   0  0  0  0  0  0  0  0  0  0  0  0
  162.7340  212.3100  147.5030 C   0  0  0  0  0  2  0  0  0  0  0  0
  160.4180  212.3710  145.2450 C   0  0  2  0  0  3  0  0  0  0  0  0
  161.2220  213.2390  144.2930 C   0  0  2  0  0  3  0  0  0  0  0  0
  158.9730  212.1990  144.8100 C   0  0  0  0  0  1  0  0  0  0  0  0
  160.5030  213.0140  146.6070 C   0  0  0  0  0  2  0  0  0  0  0  0
  162.7070  213.7700  145.1970 S   0  0  0  0  0  0  0  0  0  0  0  0
  161.9510  213.4240  146.8210 C   0  0  2  0  0  3  0  0  0  0  0  0
  160.4980  214.3720  143.9120 O   0  0  0  0  0  1  0  0  0  0  0  0
  1 20  1  6  0  0  0
  1  2  1  0  0  0  0
  2  3  1  0  0  0  0
  3  5  2  0  0  0  0
  3 11  1  0  0  0  0
  4  7  2  0  0  0  0
  5  4  1  0  0  0  0
  6 11  1  0  0  0  0
  7  9  1  0  0  0  0
  8  2  1  0  0  0  0
  8 10  1  0  0  0  0
 10  6  1  0  0  0  0
 11 12  2  0  0  0  0
 12  9  1  0  0  0  0
 13 14  1  0  0  0  0
 13 16  1  0  0  0  0
 14 18  2  0  0  0  0
 15 13  1  0  0  0  0
 16 17  2  0  0  0  0
 17  1  1  0  0  0  0
 18 17  1  0  0  0  0
 19 20  2  0  0  0  0
 21 24  1  6  0  0  0
 21 19  1  0  0  0  0
 21 23  1  0  0  0  0
 23 22  1  0  0  0  0
 25 27  1  6  0  0  0
 25 28  1  0  0  0  0
 26 31  1  1  0  0  0
 26 29  1  0  0  0  0
 26 25  1  0  0  0  0
 28 30  1  0  0  0  0
 29 30  1  0  0  0  0
 30 24  1  6  0  0  0
M  END
>  <MODEL>
8

>  <REMARK>
 VINA RESULT:      -6.6      3.252      6.069
  Name = 
  7 active torsions:
  status: ('A' for Active; 'I' for Inactive)
    1  A    between atoms: C_3  and  C_9
    2  A    between atoms: C_3  and  C_22
    3  A    between atoms: N_4  and  C_12
    4  A    between atoms: C_9  and  C_15
    5  A    between atoms: C_9  and  O_23
    6  A    between atoms: C_12  and  N_20
    7  A    between atoms: C_12  and  C_27
                            x       y       z     vdW  Elec       q    Type
                         _______ _______ _______ _____ _____    ______ ____

>  <TORSDO>
F 7

$$$$
=
 OpenBabel11052422273D

 31 34  0  0  1  0  0  0  0  0999 V2000
  161.2210  210.1150  151.9520 C   0  0  1  0  0  3  0  0  0  0  0  0
  160.2720  211.2170  151.7550 N   0  0  0  0  0  0  0  0  0  0  0  0
  160.4700  212.2040  150.7260 C   0  0  0  0  0  0  0  0  0  0  0  0
  161.8750  212.9990  148.7800 C   0  0  0  0  0  3  0  0  0  0  0  0
  161.4460  212.0380  149.8140 C   0  0  0  0  0  3  0  0  0  0  0  0
  159.2070  213.7730  152.3090 C   0  0  0  0  0  2  0  0  0  0  0  0
  161.0990  213.9220  148.2170 C   0  0  0  0  0  3  0  0  0  0  0  0
  159.2290  211.3860  152.6180 O   0  0  0  0  0  0  0  0  0  0  0  0
  159.6410  214.0400  148.4970 C   0  0  0  0  0  2  0  0  0  0  0  0
  159.4710  212.6070  153.2740 C   0  0  0  0  0  2  0  0  0  0  0  0
  159.7220  213.4750  150.9250 C   0  0  0  0  0  0  0  0  0  0  0  0
  159.3710  214.3040  149.9400 C   0  0  0  0  0  3  0  0  0  0  0  0
  161.1740  208.6260  155.1900 N   0  0  0  0  0  0  0  0  0  0  0  0
  161.8320  209.7670  155.4470 C   0  0  0  0  0  3  0  0  0  0  0  0
  160.8650  207.5830  156.1490 C   0  0  0  0  0  1  0  0  0  0  0  0
  160.8590  208.5790  153.9110 N   0  0  0  0  0  0  0  0  0  0  0  0
  161.3390  209.7260  153.3950 C   0  0  0  0  0  0  0  0  0  0  0  0
  161.9540  210.4950  154.3180 N   0  0  0  0  0  0  0  0  0  0  0  0
  161.6780  208.6070  150.1440 C   0  0  0  0  0  3  0  0  0  0  0  0
  160.9090  208.9850  151.1030 N   0  0  0  0  0  0  0  0  0  0  0  0
  161.3100  207.4440  149.2740 C   0  0  1  0  0  3  0  0  0  0  0  0
  162.1080  206.9490  147.2700 C   0  0  0  0  0  1  0  0  0  0  0  0
  162.4470  206.9590  148.6230 O   0  0  0  0  0  0  0  0  0  0  0  0
  160.6710  206.3240  150.0920 C   0  0  0  0  0  2  0  0  0  0  0  0
  160.3110  203.1120  150.2290 C   0  0  2  0  0  3  0  0  0  0  0  0
  160.9140  202.9980  151.6190 C   0  0  2  0  0  3  0  0  0  0  0  0
  160.1010  201.7620  149.5650 C   0  0  0  0  0  1  0  0  0  0  0  0
  161.2390  203.9790  149.4160 C   0  0  0  0  0  2  0  0  0  0  0  0
  161.5790  204.6370  152.0370 S   0  0  0  0  0  0  0  0  0  0  0  0
  161.6330  205.1590  150.2900 C   0  0  2  0  0  3  0  0  0  0  0  0
  161.9600  202.0700  151.6390 O   0  0  0  0  0  1  0  0  0  0  0  0
  1 20  1  6  0  0  0
  1 17  1  0  0  0  0
  2  1  1  0  0  0  0
  2  8  1  0  0  0  0
  3 11  1  0  0  0  0
  3  2  1  0  0  0  0
  4  5  1  0  0  0  0
  5  3  2  0  0  0  0
  6 10  1  0  0  0  0
  7  9  1  0  0  0  0
  7  4  2  0  0  0  0
  8 10  1  0  0  0  0
  9 12  1  0  0  0  0
 11  6  1  0  0  0  0
 12 11  2  0  0  0  0
 13 14  1  0  0  0  0
 13 15  1  0  0  0  0
 16 13  1  0  0  0  0
 17 16  2  0  0  0  0
 17 18  1  0  0  0  0
 18 14  2  0  0  0  0
 19 20  2  0  0  0  0
 21 24  1  1  0  0  0
 21 19  1  0  0  0  0
 22 23  1  0  0  0  0
 23 21  1  0  0  0  0
 25 27  1  6  0  0  0
 25 26  1  0  0  0  0
 26 31  1  6  0  0  0
 26 29  1  0  0  0  0
 28 25  1  0  0  0  0
 28 30  1  0  0  0  0
 30 24  1  1  0  0  0
 30 29  1  0  0  0  0
M  END
>  <MODEL>
9

>  <REMARK>
 VINA RESULT:      -6.4      2.699      7.992
  Name = 
  7 active torsions:
  status: ('A' for Active; 'I' for Inactive)
    1  A    between atoms: C_3  and  C_9
    2  A    between atoms: C_3  and  C_22
    3  A    between atoms: N_4  and  C_12
    4  A    between atoms: C_9  and  C_15
    5  A    between atoms: C_9  and  O_23
    6  A    between atoms: C_12  and  N_20
    7  A    between atoms: C_12  and  C_27
                            x       y       z     vdW  Elec       q    Type
                         _______ _______ _______ _____ _____    ______ ____

>  <TORSDO>
F 7

$$$$
