=
 OpenBabel11052423143D

 27 29  0  0  1  0  0  0  0  0999 V2000
  161.5780  205.8460  148.9750 C   0  0  2  0  0  3  0  0  0  0  0  0
  161.2270  205.2520  144.6790 C   0  0  0  0  0  2  0  0  0  0  0  0
  161.5530  205.8160  147.4670 C   0  0  0  0  0  0  0  0  0  0  0  0
  162.6950  205.1830  146.6950 C   0  0  0  0  0  2  0  0  0  0  0  0
  162.6410  205.4720  145.1960 C   0  0  0  0  0  2  0  0  0  0  0  0
  160.3010  206.2620  145.3450 C   0  0  0  0  0  2  0  0  0  0  0  0
  160.4360  206.2320  146.8440 C   0  0  0  0  0  3  0  0  0  0  0  0
  160.4660  204.9870  149.5900 C   0  0  0  0  0  2  0  0  0  0  0  0
  161.1480  201.3630  150.5450 C   0  0  0  0  0  3  0  0  0  0  0  0
  161.2180  200.7620  149.2860 C   0  0  0  0  0  3  0  0  0  0  0  0
  160.7400  203.5150  149.4980 C   0  0  0  0  0  0  0  0  0  0  0  0
  160.8520  203.3180  151.9180 O   0  0  0  0  0  1  0  0  0  0  0  0
  161.0520  201.5340  148.1320 C   0  0  0  0  0  3  0  0  0  0  0  0
  160.8150  202.9060  148.2400 C   0  0  0  0  0  3  0  0  0  0  0  0
  160.9110  202.7370  150.6560 C   0  0  0  0  0  0  0  0  0  0  0  0
  161.5310  207.2050  149.4940 N   0  0  0  0  0  2  0  0  0  0  0  0
  162.5570  207.3050  150.5180 C   0  0  0  0  0  2  0  0  0  0  0  0
  160.8190  206.9530  153.8440 C   0  0  0  0  0  3  0  0  0  0  0  0
  160.1860  208.5330  155.6430 C   0  0  0  0  0  1  0  0  0  0  0  0
  161.3370  209.3080  153.5250 C   0  0  0  0  0  0  0  0  0  0  0  0
  161.3960  210.9370  154.2070 Cl  0  0  0  0  0  0  0  0  0  0  0  0
  161.8960  209.0070  152.2550 C   0  0  0  0  0  0  0  0  0  0  0  0
  160.7900  208.2690  154.3060 C   0  0  0  0  0  0  0  0  0  0  0  0
  161.9300  207.6680  151.8200 C   0  0  0  0  0  0  0  0  0  0  0  0
  161.3920  206.6540  152.6120 C   0  0  0  0  0  3  0  0  0  0  0  0
  161.6760  210.7930  150.5240 C   0  0  0  0  0  1  0  0  0  0  0  0
  162.4410  209.9810  151.4030 O   0  0  0  0  0  0  0  0  0  0  0  0
  1 16  1  0  0  0  0
  1  8  1  1  0  0  0
  2  5  1  0  0  0  0
  2  6  1  0  0  0  0
  3  1  1  0  0  0  0
  4  3  1  0  0  0  0
  5  4  1  0  0  0  0
  6  7  1  0  0  0  0
  7  3  2  0  0  0  0
  9 15  1  0  0  0  0
 10  9  2  0  0  0  0
 11  8  1  0  0  0  0
 11 15  2  0  0  0  0
 13 14  2  0  0  0  0
 13 10  1  0  0  0  0
 14 11  1  0  0  0  0
 15 12  1  0  0  0  0
 16 17  1  0  0  0  0
 17 24  1  0  0  0  0
 18 23  1  0  0  0  0
 20 21  1  0  0  0  0
 20 23  2  0  0  0  0
 22 20  1  0  0  0  0
 23 19  1  0  0  0  0
 24 22  2  0  0  0  0
 24 25  1  0  0  0  0
 25 18  2  0  0  0  0
 26 27  1  0  0  0  0
 27 22  1  0  0  0  0
M  END
>  <MODEL>
1

>  <REMARK>
 VINA RESULT:      -9.1      0.000      0.000
  Name = 
  7 active torsions:
  status: ('A' for Active; 'I' for Inactive)
    1  A    between atoms: C_1  and  C_15
    2  A    between atoms: C_1  and  C_18
    3  A    between atoms: N_2  and  C_6
    4  A    between atoms: N_2  and  C_15
    5  A    between atoms: C_6  and  C_17
    6  A    between atoms: C_9  and  C_15
    7  A    between atoms: C_14  and  O_19
                            x       y       z     vdW  Elec       q    Type
                         _______ _______ _______ _____ _____    ______ ____

>  <TORSDO>
F 7

$$$$
=
 OpenBabel11052423143D

 27 29  0  0  1  0  0  0  0  0999 V2000
  160.7850  204.8880  149.3200 C   0  0  2  0  0  3  0  0  0  0  0  0
  161.5050  200.6240  148.8490 C   0  0  0  0  0  2  0  0  0  0  0  0
  160.8380  203.3950  149.1190 C   0  0  0  0  0  0  0  0  0  0  0  0
  161.0790  202.8160  147.7380 C   0  0  0  0  0  2  0  0  0  0  0  0
  160.8380  201.3090  147.6670 C   0  0  0  0  0  2  0  0  0  0  0  0
  160.8390  201.1040  150.1320 C   0  0  0  0  0  2  0  0  0  0  0  0
  160.8080  202.6080  150.2090 C   0  0  0  0  0  3  0  0  0  0  0  0
  161.8970  205.6160  148.5540 C   0  0  0  0  0  2  0  0  0  0  0  0
  162.3640  205.2470  144.7920 C   0  0  0  0  0  3  0  0  0  0  0  0
  161.1530  205.7580  144.3200 C   0  0  0  0  0  3  0  0  0  0  0  0
  161.6560  205.6700  147.0750 C   0  0  0  0  0  0  0  0  0  0  0  0
  163.8350  204.6970  146.6160 O   0  0  0  0  0  1  0  0  0  0  0  0
  160.1930  206.2270  145.2210 C   0  0  0  0  0  3  0  0  0  0  0  0
  160.4450  206.1830  146.5940 C   0  0  0  0  0  3  0  0  0  0  0  0
  162.6200  205.2020  146.1660 C   0  0  0  0  0  0  0  0  0  0  0  0
  160.8050  205.2500  150.7300 N   0  0  0  0  0  2  0  0  0  0  0  0
  161.4420  206.5520  150.8260 C   0  0  0  0  0  2  0  0  0  0  0  0
  160.9210  206.7880  154.5510 C   0  0  0  0  0  3  0  0  0  0  0  0
  160.5800  208.6590  156.1370 C   0  0  0  0  0  1  0  0  0  0  0  0
  160.8470  209.0460  153.6490 C   0  0  0  0  0  0  0  0  0  0  0  0
  160.7960  210.7850  153.9590 Cl  0  0  0  0  0  0  0  0  0  0  0  0
  161.0330  208.5230  152.3420 C   0  0  0  0  0  0  0  0  0  0  0  0
  160.7800  208.1620  154.7460 C   0  0  0  0  0  0  0  0  0  0  0  0
  161.1900  207.1340  152.1740 C   0  0  0  0  0  0  0  0  0  0  0  0
  161.1320  206.2780  153.2740 C   0  0  0  0  0  3  0  0  0  0  0  0
  162.2270  210.0740  150.7920 C   0  0  0  0  0  1  0  0  0  0  0  0
  161.0880  209.3270  151.1920 O   0  0  0  0  0  0  0  0  0  0  0  0
  1  8  1  6  0  0  0
  1 16  1  0  0  0  0
  2  6  1  0  0  0  0
  3  1  1  0  0  0  0
  3  7  2  0  0  0  0
  4  3  1  0  0  0  0
  5  4  1  0  0  0  0
  5  2  1  0  0  0  0
  6  7  1  0  0  0  0
  9 15  1  0  0  0  0
 10  9  2  0  0  0  0
 10 13  1  0  0  0  0
 11  8  1  0  0  0  0
 13 14  2  0  0  0  0
 14 11  1  0  0  0  0
 15 12  1  0  0  0  0
 15 11  2  0  0  0  0
 16 17  1  0  0  0  0
 17 24  1  0  0  0  0
 18 23  1  0  0  0  0
 20 21  1  0  0  0  0
 20 23  2  0  0  0  0
 22 20  1  0  0  0  0
 23 19  1  0  0  0  0
 24 22  2  0  0  0  0
 24 25  1  0  0  0  0
 25 18  2  0  0  0  0
 26 27  1  0  0  0  0
 27 22  1  0  0  0  0
M  END
>  <MODEL>
2

>  <REMARK>
 VINA RESULT:      -8.7      1.457      3.861
  Name = 
  7 active torsions:
  status: ('A' for Active; 'I' for Inactive)
    1  A    between atoms: C_1  and  C_15
    2  A    between atoms: C_1  and  C_18
    3  A    between atoms: N_2  and  C_6
    4  A    between atoms: N_2  and  C_15
    5  A    between atoms: C_6  and  C_17
    6  A    between atoms: C_9  and  C_15
    7  A    between atoms: C_14  and  O_19
                            x       y       z     vdW  Elec       q    Type
                         _______ _______ _______ _____ _____    ______ ____

>  <TORSDO>
F 7

$$$$
=
 OpenBabel11052423143D

 27 29  0  0  1  0  0  0  0  0999 V2000
  161.9040  205.9930  148.9280 C   0  0  2  0  0  3  0  0  0  0  0  0
  161.1010  205.1350  144.7390 C   0  0  0  0  0  2  0  0  0  0  0  0
  161.7290  205.8640  147.4360 C   0  0  0  0  0  0  0  0  0  0  0  0
  162.7560  205.1180  146.6060 C   0  0  0  0  0  2  0  0  0  0  0  0
  162.5680  205.3100  145.1020 C   0  0  0  0  0  2  0  0  0  0  0  0
  160.2960  206.2370  145.4160 C   0  0  0  0  0  2  0  0  0  0  0  0
  160.5770  206.3000  146.8940 C   0  0  0  0  0  3  0  0  0  0  0  0
  160.7290  205.3870  149.7040 C   0  0  0  0  0  2  0  0  0  0  0  0
  161.1880  201.9880  151.3620 C   0  0  0  0  0  3  0  0  0  0  0  0
  161.0700  201.1350  150.2620 C   0  0  0  0  0  3  0  0  0  0  0  0
  160.8610  203.9070  149.9110 C   0  0  0  0  0  0  0  0  0  0  0  0
  161.2130  204.2060  152.2970 O   0  0  0  0  0  1  0  0  0  0  0  0
  160.8500  201.6640  148.9870 C   0  0  0  0  0  3  0  0  0  0  0  0
  160.7470  203.0460  148.8130 C   0  0  0  0  0  3  0  0  0  0  0  0
  161.0850  203.3730  151.1920 C   0  0  0  0  0  0  0  0  0  0  0  0
  162.1360  207.3730  149.3320 N   0  0  0  0  0  2  0  0  0  0  0  0
  162.3060  207.3690  150.7750 C   0  0  0  0  0  2  0  0  0  0  0  0
  161.3990  211.0080  151.1560 C   0  0  0  0  0  3  0  0  0  0  0  0
  160.0830  212.3010  152.8070 C   0  0  0  0  0  1  0  0  0  0  0  0
  160.4370  209.8040  153.0380 C   0  0  0  0  0  0  0  0  0  0  0  0
  159.3770  209.8300  154.4520 Cl  0  0  0  0  0  0  0  0  0  0  0  0
  161.0060  208.5980  152.5500 C   0  0  0  0  0  0  0  0  0  0  0  0
  160.6530  211.0070  152.3350 C   0  0  0  0  0  0  0  0  0  0  0  0
  161.7390  208.6230  151.3490 C   0  0  0  0  0  0  0  0  0  0  0  0
  161.9330  209.8210  150.6620 C   0  0  0  0  0  3  0  0  0  0  0  0
  161.2030  207.1260  154.5570 C   0  0  0  0  0  1  0  0  0  0  0  0
  160.8610  207.3610  153.1990 O   0  0  0  0  0  0  0  0  0  0  0  0
  1 16  1  0  0  0  0
  1  8  1  1  0  0  0
  2  5  1  0  0  0  0
  2  6  1  0  0  0  0
  3  1  1  0  0  0  0
  4  3  1  0  0  0  0
  5  4  1  0  0  0  0
  6  7  1  0  0  0  0
  7  3  2  0  0  0  0
  8 11  1  0  0  0  0
 10  9  2  0  0  0  0
 11 15  2  0  0  0  0
 13 10  1  0  0  0  0
 14 13  2  0  0  0  0
 14 11  1  0  0  0  0
 15  9  1  0  0  0  0
 15 12  1  0  0  0  0
 16 17  1  0  0  0  0
 17 24  1  0  0  0  0
 18 23  1  0  0  0  0
 20 21  1  0  0  0  0
 22 20  1  0  0  0  0
 22 27  1  0  0  0  0
 23 19  1  0  0  0  0
 23 20  2  0  0  0  0
 24 22  2  0  0  0  0
 25 18  2  0  0  0  0
 25 24  1  0  0  0  0
 27 26  1  0  0  0  0
M  END
>  <MODEL>
3

>  <REMARK>
 VINA RESULT:      -8.6      1.269      2.192
  Name = 
  7 active torsions:
  status: ('A' for Active; 'I' for Inactive)
    1  A    between atoms: C_1  and  C_15
    2  A    between atoms: C_1  and  C_18
    3  A    between atoms: N_2  and  C_6
    4  A    between atoms: N_2  and  C_15
    5  A    between atoms: C_6  and  C_17
    6  A    between atoms: C_9  and  C_15
    7  A    between atoms: C_14  and  O_19
                            x       y       z     vdW  Elec       q    Type
                         _______ _______ _______ _____ _____    ______ ____

>  <TORSDO>
F 7

$$$$
=
 OpenBabel11052423143D

 27 29  0  0  1  0  0  0  0  0999 V2000
  161.6070  206.2000  149.5620 C   0  0  2  0  0  3  0  0  0  0  0  0
  161.2120  201.9980  150.6180 C   0  0  0  0  0  2  0  0  0  0  0  0
  161.2720  204.7790  149.9400 C   0  0  0  0  0  0  0  0  0  0  0  0
  160.9570  203.7560  148.8670 C   0  0  0  0  0  2  0  0  0  0  0  0
  160.3860  202.4540  149.4250 C   0  0  0  0  0  2  0  0  0  0  0  0
  161.0820  203.0350  151.7270 C   0  0  0  0  0  2  0  0  0  0  0  0
  161.4020  204.4200  151.2300 C   0  0  0  0  0  3  0  0  0  0  0  0
  162.5920  206.2710  148.3890 C   0  0  0  0  0  2  0  0  0  0  0  0
  161.9660  204.8850  144.8970 C   0  0  0  0  0  3  0  0  0  0  0  0
  160.7100  205.4280  144.6140 C   0  0  0  0  0  3  0  0  0  0  0  0
  161.9530  205.9780  147.0650 C   0  0  0  0  0  0  0  0  0  0  0  0
  163.8440  204.6140  146.3790 O   0  0  0  0  0  1  0  0  0  0  0  0
  160.0750  206.2470  145.5520 C   0  0  0  0  0  3  0  0  0  0  0  0
  160.6950  206.5210  146.7730 C   0  0  0  0  0  3  0  0  0  0  0  0
  162.5910  205.1580  146.1190 C   0  0  0  0  0  0  0  0  0  0  0  0
  162.0990  206.9660  150.7000 N   0  0  0  0  0  2  0  0  0  0  0  0
  161.0650  207.9270  151.0440 C   0  0  0  0  0  2  0  0  0  0  0  0
  160.8030  207.0450  154.6990 C   0  0  0  0  0  3  0  0  0  0  0  0
  160.8990  208.3440  156.8050 C   0  0  0  0  0  1  0  0  0  0  0  0
  161.0940  209.4550  154.5380 C   0  0  0  0  0  0  0  0  0  0  0  0
  161.3800  210.9900  155.3640 Cl  0  0  0  0  0  0  0  0  0  0  0  0
  161.1090  209.3520  153.1220 C   0  0  0  0  0  0  0  0  0  0  0  0
  160.9280  208.2900  155.3150 C   0  0  0  0  0  0  0  0  0  0  0  0
  160.9990  208.0820  152.5250 C   0  0  0  0  0  0  0  0  0  0  0  0
  160.8460  206.9410  153.3120 C   0  0  0  0  0  3  0  0  0  0  0  0
  160.2700  211.4820  152.1260 C   0  0  0  0  0  1  0  0  0  0  0  0
  161.2450  210.4600  152.2710 O   0  0  0  0  0  0  0  0  0  0  0  0
  1  8  1  6  0  0  0
  1  3  1  0  0  0  0
  1 16  1  0  0  0  0
  2  6  1  0  0  0  0
  3  7  2  0  0  0  0
  4  5  1  0  0  0  0
  4  3  1  0  0  0  0
  5  2  1  0  0  0  0
  7  6  1  0  0  0  0
  9 15  1  0  0  0  0
 10  9  2  0  0  0  0
 10 13  1  0  0  0  0
 11  8  1  0  0  0  0
 13 14  2  0  0  0  0
 14 11  1  0  0  0  0
 15 12  1  0  0  0  0
 15 11  2  0  0  0  0
 16 17  1  0  0  0  0
 17 24  1  0  0  0  0
 18 23  1  0  0  0  0
 20 23  2  0  0  0  0
 20 21  1  0  0  0  0
 22 20  1  0  0  0  0
 23 19  1  0  0  0  0
 24 22  2  0  0  0  0
 24 25  1  0  0  0  0
 25 18  2  0  0  0  0
 26 27  1  0  0  0  0
 27 22  1  0  0  0  0
M  END
>  <MODEL>
4

>  <REMARK>
 VINA RESULT:      -8.4      1.647      3.936
  Name = 
  7 active torsions:
  status: ('A' for Active; 'I' for Inactive)
    1  A    between atoms: C_1  and  C_15
    2  A    between atoms: C_1  and  C_18
    3  A    between atoms: N_2  and  C_6
    4  A    between atoms: N_2  and  C_15
    5  A    between atoms: C_6  and  C_17
    6  A    between atoms: C_9  and  C_15
    7  A    between atoms: C_14  and  O_19
                            x       y       z     vdW  Elec       q    Type
                         _______ _______ _______ _____ _____    ______ ____

>  <TORSDO>
F 7

$$$$
=
 OpenBabel11052423143D

 27 29  0  0  1  0  0  0  0  0999 V2000
  161.5740  205.8780  148.8890 C   0  0  2  0  0  3  0  0  0  0  0  0
  161.2730  205.1040  144.6190 C   0  0  0  0  0  2  0  0  0  0  0  0
  161.5760  205.7790  147.3850 C   0  0  0  0  0  0  0  0  0  0  0  0
  162.6970  205.0530  146.6660 C   0  0  0  0  0  2  0  0  0  0  0  0
  162.6860  205.2750  145.1550 C   0  0  0  0  0  2  0  0  0  0  0  0
  160.3880  206.1900  145.2180 C   0  0  0  0  0  2  0  0  0  0  0  0
  160.4940  206.2230  146.7200 C   0  0  0  0  0  3  0  0  0  0  0  0
  160.3920  205.1310  149.5180 C   0  0  0  0  0  2  0  0  0  0  0  0
  161.2000  201.4200  149.8080 C   0  0  0  0  0  3  0  0  0  0  0  0
  161.5180  201.3200  151.1650 C   0  0  0  0  0  3  0  0  0  0  0  0
  160.7720  203.7940  150.0810 C   0  0  0  0  0  0  0  0  0  0  0  0
  160.5060  202.7310  147.9120 O   0  0  0  0  0  1  0  0  0  0  0  0
  161.4610  202.4520  151.9820 C   0  0  0  0  0  3  0  0  0  0  0  0
  161.0890  203.6850  151.4410 C   0  0  0  0  0  3  0  0  0  0  0  0
  160.8260  202.6530  149.2630 C   0  0  0  0  0  0  0  0  0  0  0  0
  161.6160  207.2600  149.3450 N   0  0  0  0  0  2  0  0  0  0  0  0
  162.6110  207.3290  150.4020 C   0  0  0  0  0  2  0  0  0  0  0  0
  160.8730  207.0530  153.7350 C   0  0  0  0  0  3  0  0  0  0  0  0
  160.1380  208.6850  155.4460 C   0  0  0  0  0  1  0  0  0  0  0  0
  161.2590  209.4140  153.2950 C   0  0  0  0  0  0  0  0  0  0  0  0
  161.2200  211.0770  153.8900 Cl  0  0  0  0  0  0  0  0  0  0  0  0
  161.8430  209.0790  152.0450 C   0  0  0  0  0  0  0  0  0  0  0  0
  160.7650  208.3870  154.1270 C   0  0  0  0  0  0  0  0  0  0  0  0
  161.9550  207.7240  151.6810 C   0  0  0  0  0  0  0  0  0  0  0  0
  161.4710  206.7220  152.5230 C   0  0  0  0  0  3  0  0  0  0  0  0
  161.5390  211.0270  150.5130 C   0  0  0  0  0  1  0  0  0  0  0  0
  162.3370  210.0360  151.1450 O   0  0  0  0  0  0  0  0  0  0  0  0
  1 16  1  0  0  0  0
  1  8  1  6  0  0  0
  2  5  1  0  0  0  0
  2  6  1  0  0  0  0
  3  1  1  0  0  0  0
  4  3  1  0  0  0  0
  5  4  1  0  0  0  0
  6  7  1  0  0  0  0
  7  3  2  0  0  0  0
  8 11  1  0  0  0  0
  9 10  1  0  0  0  0
 10 13  2  0  0  0  0
 11 14  2  0  0  0  0
 12 15  1  0  0  0  0
 14 13  1  0  0  0  0
 15  9  2  0  0  0  0
 15 11  1  0  0  0  0
 16 17  1  0  0  0  0
 17 24  1  0  0  0  0
 18 23  1  0  0  0  0
 20 21  1  0  0  0  0
 20 23  2  0  0  0  0
 22 20  1  0  0  0  0
 23 19  1  0  0  0  0
 24 22  2  0  0  0  0
 24 25  1  0  0  0  0
 25 18  2  0  0  0  0
 26 27  1  0  0  0  0
 27 22  1  0  0  0  0
M  END
>  <MODEL>
5

>  <REMARK>
 VINA RESULT:      -8.3      0.946      1.374
  Name = 
  7 active torsions:
  status: ('A' for Active; 'I' for Inactive)
    1  A    between atoms: C_1  and  C_15
    2  A    between atoms: C_1  and  C_18
    3  A    between atoms: N_2  and  C_6
    4  A    between atoms: N_2  and  C_15
    5  A    between atoms: C_6  and  C_17
    6  A    between atoms: C_9  and  C_15
    7  A    between atoms: C_14  and  O_19
                            x       y       z     vdW  Elec       q    Type
                         _______ _______ _______ _____ _____    ______ ____

>  <TORSDO>
F 7

$$$$
=
 OpenBabel11052423143D

 27 29  0  0  1  0  0  0  0  0999 V2000
  160.7440  205.5040  149.2960 C   0  0  2  0  0  3  0  0  0  0  0  0
  160.5240  201.2410  150.1360 C   0  0  0  0  0  2  0  0  0  0  0  0
  160.8690  204.0330  149.6040 C   0  0  0  0  0  0  0  0  0  0  0  0
  160.8310  203.5450  151.0400 C   0  0  0  0  0  2  0  0  0  0  0  0
  161.2330  202.0790  151.1880 C   0  0  0  0  0  2  0  0  0  0  0  0
  161.0020  201.6800  148.7570 C   0  0  0  0  0  2  0  0  0  0  0  0
  160.8680  203.1680  148.5740 C   0  0  0  0  0  3  0  0  0  0  0  0
  161.9060  206.0160  148.4360 C   0  0  0  0  0  2  0  0  0  0  0  0
  162.3920  204.9860  144.8020 C   0  0  0  0  0  3  0  0  0  0  0  0
  161.2060  205.4530  144.2290 C   0  0  0  0  0  3  0  0  0  0  0  0
  161.6800  205.8230  146.9660 C   0  0  0  0  0  0  0  0  0  0  0  0
  163.8220  204.7030  146.7170 O   0  0  0  0  0  1  0  0  0  0  0  0
  160.2580  206.1070  145.0210 C   0  0  0  0  0  3  0  0  0  0  0  0
  160.4950  206.2910  146.3850 C   0  0  0  0  0  3  0  0  0  0  0  0
  162.6330  205.1690  146.1670 C   0  0  0  0  0  0  0  0  0  0  0  0
  160.6020  206.3040  150.5050 N   0  0  0  0  0  2  0  0  0  0  0  0
  161.7960  207.1240  150.6140 C   0  0  0  0  0  2  0  0  0  0  0  0
  161.0960  210.5470  152.0280 C   0  0  0  0  0  3  0  0  0  0  0  0
  160.7770  211.4450  154.3130 C   0  0  0  0  0  1  0  0  0  0  0  0
  161.2810  208.9990  153.8950 C   0  0  0  0  0  0  0  0  0  0  0  0
  161.1010  208.7110  155.6290 Cl  0  0  0  0  0  0  0  0  0  0  0  0
  161.5570  207.9440  152.9850 C   0  0  0  0  0  0  0  0  0  0  0  0
  161.0640  210.3020  153.4010 C   0  0  0  0  0  0  0  0  0  0  0  0
  161.5650  208.2140  151.6040 C   0  0  0  0  0  0  0  0  0  0  0  0
  161.3380  209.5080  151.1340 C   0  0  0  0  0  3  0  0  0  0  0  0
  160.8320  205.7620  153.9570 C   0  0  0  0  0  1  0  0  0  0  0  0
  161.8080  206.6240  153.3910 O   0  0  0  0  0  0  0  0  0  0  0  0
  1  8  1  1  0  0  0
  1  3  1  0  0  0  0
  1 16  1  0  0  0  0
  2  5  1  0  0  0  0
  3  4  1  0  0  0  0
  4  5  1  0  0  0  0
  6  2  1  0  0  0  0
  7  6  1  0  0  0  0
  7  3  2  0  0  0  0
  9 15  1  0  0  0  0
 10  9  2  0  0  0  0
 10 13  1  0  0  0  0
 11  8  1  0  0  0  0
 13 14  2  0  0  0  0
 14 11  1  0  0  0  0
 15 12  1  0  0  0  0
 15 11  2  0  0  0  0
 16 17  1  0  0  0  0
 17 24  1  0  0  0  0
 18 23  1  0  0  0  0
 20 21  1  0  0  0  0
 22 27  1  0  0  0  0
 22 20  1  0  0  0  0
 23 20  2  0  0  0  0
 23 19  1  0  0  0  0
 24 22  2  0  0  0  0
 25 24  1  0  0  0  0
 25 18  2  0  0  0  0
 27 26  1  0  0  0  0
M  END
>  <MODEL>
6

>  <REMARK>
 VINA RESULT:      -7.9      1.748      4.344
  Name = 
  7 active torsions:
  status: ('A' for Active; 'I' for Inactive)
    1  A    between atoms: C_1  and  C_15
    2  A    between atoms: C_1  and  C_18
    3  A    between atoms: N_2  and  C_6
    4  A    between atoms: N_2  and  C_15
    5  A    between atoms: C_6  and  C_17
    6  A    between atoms: C_9  and  C_15
    7  A    between atoms: C_14  and  O_19
                            x       y       z     vdW  Elec       q    Type
                         _______ _______ _______ _____ _____    ______ ____

>  <TORSDO>
F 7

$$$$
=
 OpenBabel11052423143D

 27 29  0  0  1  0  0  0  0  0999 V2000
  161.8770  206.7990  148.4840 C   0  0  2  0  0  3  0  0  0  0  0  0
  161.7020  205.2640  144.4170 C   0  0  0  0  0  2  0  0  0  0  0  0
  161.6990  206.1220  147.1490 C   0  0  0  0  0  0  0  0  0  0  0  0
  160.5410  206.5010  146.2470 C   0  0  0  0  0  2  0  0  0  0  0  0
  160.3560  205.5440  145.0700 C   0  0  0  0  0  2  0  0  0  0  0  0
  162.5920  204.5430  145.4220 C   0  0  0  0  0  2  0  0  0  0  0  0
  162.6670  205.2870  146.7290 C   0  0  0  0  0  3  0  0  0  0  0  0
  160.6850  206.5620  149.4190 C   0  0  0  0  0  2  0  0  0  0  0  0
  161.1550  204.2600  152.4160 C   0  0  0  0  0  3  0  0  0  0  0  0
  161.0710  203.0050  151.8060 C   0  0  0  0  0  3  0  0  0  0  0  0
  160.8320  205.3310  150.2610 C   0  0  0  0  0  0  0  0  0  0  0  0
  161.1310  206.6620  152.2720 O   0  0  0  0  0  1  0  0  0  0  0  0
  160.8710  202.9100  150.4260 C   0  0  0  0  0  3  0  0  0  0  0  0
  160.7520  204.0700  149.6570 C   0  0  0  0  0  3  0  0  0  0  0  0
  161.0370  205.4230  151.6490 C   0  0  0  0  0  0  0  0  0  0  0  0
  162.1490  208.2230  148.3410 N   0  0  0  0  0  2  0  0  0  0  0  0
  162.2110  208.7800  149.6820 C   0  0  0  0  0  2  0  0  0  0  0  0
  161.7090  212.2880  148.3990 C   0  0  0  0  0  3  0  0  0  0  0  0
  160.6860  214.3430  149.3290 C   0  0  0  0  0  1  0  0  0  0  0  0
  160.8090  212.1900  150.6570 C   0  0  0  0  0  0  0  0  0  0  0  0
  159.8920  212.9830  151.9430 Cl  0  0  0  0  0  0  0  0  0  0  0  0
  161.2080  210.8300  150.7500 C   0  0  0  0  0  0  0  0  0  0  0  0
  161.0780  212.9120  149.4760 C   0  0  0  0  0  0  0  0  0  0  0  0
  161.8260  210.2200  149.6430 C   0  0  0  0  0  0  0  0  0  0  0  0
  162.0740  210.9480  148.4800 C   0  0  0  0  0  3  0  0  0  0  0  0
  161.7540  210.1650  153.0940 C   0  0  0  0  0  1  0  0  0  0  0  0
  161.0020  210.0440  151.8950 O   0  0  0  0  0  0  0  0  0  0  0  0
  1  8  1  1  0  0  0
  2  5  1  0  0  0  0
  2  6  1  0  0  0  0
  3  1  1  0  0  0  0
  4  3  1  0  0  0  0
  5  4  1  0  0  0  0
  6  7  1  0  0  0  0
  7  3  2  0  0  0  0
  8 11  1  0  0  0  0
 10  9  1  0  0  0  0
 11 15  1  0  0  0  0
 13 10  2  0  0  0  0
 14 11  2  0  0  0  0
 14 13  1  0  0  0  0
 15 12  1  0  0  0  0
 15  9  2  0  0  0  0
 16  1  1  0  0  0  0
 16 17  1  0  0  0  0
 18 25  2  0  0  0  0
 18 23  1  0  0  0  0
 19 23  1  0  0  0  0
 20 22  1  0  0  0  0
 20 21  1  0  0  0  0
 22 27  1  0  0  0  0
 23 20  2  0  0  0  0
 24 17  1  0  0  0  0
 24 22  2  0  0  0  0
 25 24  1  0  0  0  0
 27 26  1  0  0  0  0
M  END
>  <MODEL>
7

>  <REMARK>
 VINA RESULT:      -7.9      1.842      3.662
  Name = 
  7 active torsions:
  status: ('A' for Active; 'I' for Inactive)
    1  A    between atoms: C_1  and  C_15
    2  A    between atoms: C_1  and  C_18
    3  A    between atoms: N_2  and  C_6
    4  A    between atoms: N_2  and  C_15
    5  A    between atoms: C_6  and  C_17
    6  A    between atoms: C_9  and  C_15
    7  A    between atoms: C_14  and  O_19
                            x       y       z     vdW  Elec       q    Type
                         _______ _______ _______ _____ _____    ______ ____

>  <TORSDO>
F 7

$$$$
=
 OpenBabel11052423143D

 27 29  0  0  1  0  0  0  0  0999 V2000
  161.3860  210.1390  153.1190 C   0  0  2  0  0  3  0  0  0  0  0  0
  162.3210  209.1720  157.2560 C   0  0  0  0  0  2  0  0  0  0  0  0
  161.5460  209.9100  154.6010 C   0  0  0  0  0  0  0  0  0  0  0  0
  160.8860  208.7190  155.2680 C   0  0  0  0  0  2  0  0  0  0  0  0
  160.9250  208.7850  156.7940 C   0  0  0  0  0  2  0  0  0  0  0  0
  162.6290  210.5790  156.7580 C   0  0  0  0  0  2  0  0  0  0  0  0
  162.3990  210.7030  155.2750 C   0  0  0  0  0  3  0  0  0  0  0  0
  159.9130  210.2250  152.7010 C   0  0  0  0  0  2  0  0  0  0  0  0
  158.6770  213.8220  152.9070 C   0  0  0  0  0  3  0  0  0  0  0  0
  157.9340  213.7830  154.0900 C   0  0  0  0  0  3  0  0  0  0  0  0
  159.2380  211.4760  153.1800 C   0  0  0  0  0  0  0  0  0  0  0  0
  160.0700  212.7330  151.2740 O   0  0  0  0  0  1  0  0  0  0  0  0
  157.8430  212.5950  154.8200 C   0  0  0  0  0  3  0  0  0  0  0  0
  158.4940  211.4450  154.3660 C   0  0  0  0  0  3  0  0  0  0  0  0
  159.3300  212.6730  152.4490 C   0  0  0  0  0  0  0  0  0  0  0  0
  162.0900  209.1350  152.3330 N   0  0  0  0  0  2  0  0  0  0  0  0
  161.1380  208.6020  151.3740 C   0  0  0  0  0  2  0  0  0  0  0  0
  161.2190  205.0740  152.6970 C   0  0  0  0  0  3  0  0  0  0  0  0
  161.2030  202.8310  151.6490 C   0  0  0  0  0  1  0  0  0  0  0  0
  161.1760  204.9530  150.2680 C   0  0  0  0  0  0  0  0  0  0  0  0
  161.0260  203.9540  148.8180 Cl  0  0  0  0  0  0  0  0  0  0  0  0
  161.1860  206.3710  150.2030 C   0  0  0  0  0  0  0  0  0  0  0  0
  161.2060  204.3160  151.5260 C   0  0  0  0  0  0  0  0  0  0  0  0
  161.1820  207.1130  151.4000 C   0  0  0  0  0  0  0  0  0  0  0  0
  161.2010  206.4640  152.6340 C   0  0  0  0  0  3  0  0  0  0  0  0
  162.3350  207.3120  148.1960 C   0  0  0  0  0  1  0  0  0  0  0  0
  161.1830  207.0860  148.9950 O   0  0  0  0  0  0  0  0  0  0  0  0
  1  8  1  6  0  0  0
  1  3  1  0  0  0  0
  3  4  1  0  0  0  0
  3  7  2  0  0  0  0
  4  5  1  0  0  0  0
  5  2  1  0  0  0  0
  6  2  1  0  0  0  0
  7  6  1  0  0  0  0
  8 11  1  0  0  0  0
  9 10  1  0  0  0  0
 10 13  2  0  0  0  0
 11 14  2  0  0  0  0
 12 15  1  0  0  0  0
 14 13  1  0  0  0  0
 15  9  2  0  0  0  0
 15 11  1  0  0  0  0
 16  1  1  0  0  0  0
 17 24  1  0  0  0  0
 17 16  1  0  0  0  0
 20 23  1  0  0  0  0
 21 20  1  0  0  0  0
 22 20  2  0  0  0  0
 22 24  1  0  0  0  0
 23 19  1  0  0  0  0
 23 18  2  0  0  0  0
 24 25  2  0  0  0  0
 25 18  1  0  0  0  0
 26 27  1  0  0  0  0
 27 22  1  0  0  0  0
M  END
>  <MODEL>
8

>  <REMARK>
 VINA RESULT:      -7.7      3.231      8.580
  Name = 
  7 active torsions:
  status: ('A' for Active; 'I' for Inactive)
    1  A    between atoms: C_1  and  C_15
    2  A    between atoms: C_1  and  C_18
    3  A    between atoms: N_2  and  C_6
    4  A    between atoms: N_2  and  C_15
    5  A    between atoms: C_6  and  C_17
    6  A    between atoms: C_9  and  C_15
    7  A    between atoms: C_14  and  O_19
                            x       y       z     vdW  Elec       q    Type
                         _______ _______ _______ _____ _____    ______ ____

>  <TORSDO>
F 7

$$$$
=
 OpenBabel11052423143D

 27 29  0  0  1  0  0  0  0  0999 V2000
  161.6700  209.3040  150.7440 C   0  0  2  0  0  3  0  0  0  0  0  0
  161.1300  212.8890  148.3400 C   0  0  0  0  0  2  0  0  0  0  0  0
  161.6550  210.6100  149.9920 C   0  0  0  0  0  0  0  0  0  0  0  0
  162.3300  210.7230  148.6390 C   0  0  0  0  0  2  0  0  0  0  0  0
  162.4520  212.1640  148.1450 C   0  0  0  0  0  2  0  0  0  0  0  0
  160.8320  212.9700  149.8320 C   0  0  0  0  0  2  0  0  0  0  0  0
  160.9120  211.6170  150.4870 C   0  0  0  0  0  3  0  0  0  0  0  0
  162.3810  209.4210  152.0980 C   0  0  0  0  0  2  0  0  0  0  0  0
  160.2500  209.1550  155.2430 C   0  0  0  0  0  3  0  0  0  0  0  0
  160.0640  207.7720  155.3250 C   0  0  0  0  0  3  0  0  0  0  0  0
  161.5810  208.8590  153.2340 C   0  0  0  0  0  0  0  0  0  0  0  0
  161.1880  211.0790  154.1420 O   0  0  0  0  0  1  0  0  0  0  0  0
  160.6350  206.9320  154.3660 C   0  0  0  0  0  3  0  0  0  0  0  0
  161.3920  207.4740  153.3240 C   0  0  0  0  0  3  0  0  0  0  0  0
  161.0080  209.7020  154.2020 C   0  0  0  0  0  0  0  0  0  0  0  0
  162.2410  208.2240  149.9500 N   0  0  0  0  0  2  0  0  0  0  0  0
  161.1740  207.7030  149.1130 C   0  0  0  0  0  2  0  0  0  0  0  0
  160.8000  204.2770  150.6390 C   0  0  0  0  0  3  0  0  0  0  0  0
  160.8330  201.9690  149.7440 C   0  0  0  0  0  1  0  0  0  0  0  0
  161.1850  203.9870  148.2550 C   0  0  0  0  0  0  0  0  0  0  0  0
  161.2370  202.8970  146.8650 Cl  0  0  0  0  0  0  0  0  0  0  0  0
  161.2940  205.3950  148.1070 C   0  0  0  0  0  0  0  0  0  0  0  0
  160.9500  203.4400  149.5340 C   0  0  0  0  0  0  0  0  0  0  0  0
  161.1220  206.2190  149.2360 C   0  0  0  0  0  0  0  0  0  0  0  0
  160.8790  205.6590  150.4900 C   0  0  0  0  0  3  0  0  0  0  0  0
  160.5830  206.2030  145.8550 C   0  0  0  0  0  1  0  0  0  0  0  0
  161.5510  206.0220  146.8780 O   0  0  0  0  0  0  0  0  0  0  0  0
  1  8  1  1  0  0  0
  2  6  1  0  0  0  0
  3  7  2  0  0  0  0
  3  1  1  0  0  0  0
  4  3  1  0  0  0  0
  5  2  1  0  0  0  0
  5  4  1  0  0  0  0
  6  7  1  0  0  0  0
  8 11  1  0  0  0  0
  9 10  1  0  0  0  0
 11 14  2  0  0  0  0
 11 15  1  0  0  0  0
 12 15  1  0  0  0  0
 13 10  2  0  0  0  0
 14 13  1  0  0  0  0
 15  9  2  0  0  0  0
 16  1  1  0  0  0  0
 17 24  1  0  0  0  0
 17 16  1  0  0  0  0
 20 23  1  0  0  0  0
 21 20  1  0  0  0  0
 22 20  2  0  0  0  0
 22 24  1  0  0  0  0
 23 19  1  0  0  0  0
 23 18  2  0  0  0  0
 24 25  2  0  0  0  0
 25 18  1  0  0  0  0
 26 27  1  0  0  0  0
 27 22  1  0  0  0  0
M  END
>  <MODEL>
9

>  <REMARK>
 VINA RESULT:      -7.4      2.787      6.794
  Name = 
  7 active torsions:
  status: ('A' for Active; 'I' for Inactive)
    1  A    between atoms: C_1  and  C_15
    2  A    between atoms: C_1  and  C_18
    3  A    between atoms: N_2  and  C_6
    4  A    between atoms: N_2  and  C_15
    5  A    between atoms: C_6  and  C_17
    6  A    between atoms: C_9  and  C_15
    7  A    between atoms: C_14  and  O_19
                            x       y       z     vdW  Elec       q    Type
                         _______ _______ _______ _____ _____    ______ ____

>  <TORSDO>
F 7

$$$$
