=
 OpenBabel11052422163D

 25 28  0  0  1  0  0  0  0  0999 V2000
  161.3400  205.2140  149.1710 C   0  0  0  0  0  0  0  0  0  0  0  0
  160.9370  206.3050  150.1150 C   0  0  1  0  0  3  0  0  0  0  0  0
  162.2970  206.7200  147.5230 C   0  0  0  0  0  3  0  0  0  0  0  0
  161.0220  203.9340  149.1130 C   0  0  0  0  0  0  0  0  0  0  0  0
  160.5550  201.2730  148.4910 C   0  0  0  0  0  3  0  0  0  0  0  0
  162.1470  207.8210  148.5070 C   0  0  0  0  0  3  0  0  0  0  0  0
  161.4330  203.4250  147.8850 C   0  0  0  0  0  0  0  0  0  0  0  0
  161.2120  202.0890  147.5530 C   0  0  0  0  0  3  0  0  0  0  0  0
  161.5660  208.7050  150.7300 C   0  0  0  0  0  0  0  0  0  0  0  0
  161.7450  210.3950  150.2840 Cl  0  0  0  0  0  0  0  0  0  0  0  0
  161.2150  205.9820  151.5570 C   0  0  0  0  0  3  0  0  0  0  0  0
  160.1260  201.7980  149.7270 C   0  0  0  0  0  3  0  0  0  0  0  0
  161.9280  205.4940  147.8880 C   0  0  0  0  0  0  0  0  0  0  0  0
  161.9780  204.3070  147.1010 N   0  0  0  0  0  0  0  0  0  0  0  0
  161.4890  208.3750  152.0230 C   0  0  0  0  0  3  0  0  0  0  0  0
  160.3530  203.1470  150.0490 C   0  0  0  0  0  3  0  0  0  0  0  0
  161.4020  206.9610  152.4570 C   0  0  0  0  0  0  0  0  0  0  0  0
  161.5700  207.6340  149.7150 C   0  0  0  0  0  0  0  0  0  0  0  0
  161.5850  206.6520  153.8410 N   0  0  0  0  0  2  0  0  0  0  0  0
  160.6000  206.9230  154.8080 N   0  0  0  0  0  2  0  0  0  0  0  0
  161.1970  207.6700  155.9190 C   0  0  2  0  0  3  0  0  0  0  0  0
  160.5440  207.3540  157.1810 N   0  0  0  0  0  1  0  0  0  0  0  0
  161.2010  209.1460  155.6610 C   0  0  0  0  0  0  0  0  0  0  0  0
  162.2950  209.9070  156.0480 O   0  0  0  0  0  1  0  0  0  0  0  0
  160.2360  209.6960  155.0670 O   0  0  0  0  0  0  0  0  0  0  0  0
  1  2  1  0  0  0  0
  2 11  1  1  0  0  0
  3 13  2  0  0  0  0
  3  6  1  0  0  0  0
  4  1  2  0  0  0  0
  4 16  1  0  0  0  0
  5 12  1  0  0  0  0
  6 18  2  0  0  0  0
  7  4  1  0  0  0  0
  8  7  1  0  0  0  0
  8  5  2  0  0  0  0
  9 15  2  0  0  0  0
 10  9  1  0  0  0  0
 11 17  2  0  0  0  0
 12 16  2  0  0  0  0
 13  1  1  0  0  0  0
 14  7  2  0  0  0  0
 14 13  1  0  0  0  0
 15 17  1  0  0  0  0
 17 19  1  0  0  0  0
 18  2  1  0  0  0  0
 18  9  1  0  0  0  0
 19 20  1  0  0  0  0
 20 21  1  0  0  0  0
 21 22  1  1  0  0  0
 23 21  1  0  0  0  0
 23 24  1  0  0  0  0
 25 23  2  0  0  0  0
M  END
>  <MODEL>
1

>  <REMARK>
 VINA RESULT:      -9.4      0.000      0.000
  Name = 
  4 active torsions:
  status: ('A' for Active; 'I' for Inactive)
    1  A    between atoms: C_2  and  C_21
    2  A    between atoms: N_6  and  N_15
    3  A    between atoms: N_6  and  C_23
    4  A    between atoms: N_15  and  C_21
                            x       y       z     vdW  Elec       q    Type
                         _______ _______ _______ _____ _____    ______ ____

>  <TORSDO>
F 4

$$$$
=
 OpenBabel11052422163D

 25 28  0  0  1  0  0  0  0  0999 V2000
  161.4030  206.1050  150.5720 C   0  0  0  0  0  0  0  0  0  0  0  0
  160.8660  205.0480  149.6560 C   0  0  0  0  0  0  0  0  0  0  0  0
  161.1950  204.7540  152.5790 C   0  0  0  0  0  3  0  0  0  0  0  0
  161.6240  207.3950  150.3990 C   0  0  0  0  0  0  0  0  0  0  0  0
  162.1150  210.1180  150.5750 C   0  0  0  0  0  3  0  0  0  0  0  0
  160.8860  203.5900  151.7120 C   0  0  0  0  0  3  0  0  0  0  0  0
  161.8570  207.9800  151.6400 C   0  0  0  0  0  0  0  0  0  0  0  0
  162.1110  209.3460  151.7510 C   0  0  0  0  0  3  0  0  0  0  0  0
  160.6190  202.5080  149.5170 C   0  0  0  0  0  0  0  0  0  0  0  0
  159.9780  201.0020  150.1560 Cl  0  0  0  0  0  0  0  0  0  0  0  0
  161.6270  204.9320  148.3640 C   0  0  0  0  0  2  0  0  0  0  0  0
  161.8600  209.5230  149.3230 C   0  0  0  0  0  3  0  0  0  0  0  0
  161.4620  205.9210  151.9980 C   0  0  0  0  0  0  0  0  0  0  0  0
  161.7700  207.1550  152.6400 N   0  0  0  0  0  0  0  0  0  0  0  0
  161.0320  202.5560  148.2450 C   0  0  0  0  0  3  0  0  0  0  0  0
  161.6050  208.1450  149.2240 C   0  0  0  0  0  3  0  0  0  0  0  0
  161.6400  203.7800  147.6750 C   0  0  0  0  0  0  0  0  0  0  0  0
  160.7800  203.7020  150.3680 C   0  0  0  0  0  0  0  0  0  0  0  0
  162.2960  203.6980  146.4070 N   0  0  0  0  0  2  0  0  0  0  0  0
  161.6400  203.2380  145.2510 N   0  0  0  0  0  2  0  0  0  0  0  0
  160.4210  204.0230  145.0340 C   0  0  2  0  0  3  0  0  0  0  0  0
  159.5120  203.3470  144.1200 N   0  0  0  0  0  1  0  0  0  0  0  0
  160.7280  205.4130  144.5690 C   0  0  0  0  0  0  0  0  0  0  0  0
  160.2480  206.4990  145.2880 O   0  0  0  0  0  1  0  0  0  0  0  0
  161.4460  205.6060  143.5520 O   0  0  0  0  0  0  0  0  0  0  0  0
  1 13  1  0  0  0  0
  2 18  1  0  0  0  0
  2  1  2  0  0  0  0
  4  1  1  0  0  0  0
  4  7  1  0  0  0  0
  5  8  1  0  0  0  0
  6  3  2  0  0  0  0
  7  8  2  0  0  0  0
  7 14  1  0  0  0  0
  9 10  1  0  0  0  0
  9 18  2  0  0  0  0
 11  2  1  0  0  0  0
 12  5  2  0  0  0  0
 13  3  1  0  0  0  0
 13 14  2  0  0  0  0
 15  9  1  0  0  0  0
 16 12  1  0  0  0  0
 16  4  2  0  0  0  0
 17 15  2  0  0  0  0
 17 11  1  0  0  0  0
 18  6  1  0  0  0  0
 19 17  1  0  0  0  0
 20 19  1  0  0  0  0
 21 22  1  6  0  0  0
 21 20  1  0  0  0  0
 23 21  1  0  0  0  0
 23 24  1  0  0  0  0
 25 23  2  0  0  0  0
M  END
>  <MODEL>
2

>  <REMARK>
 VINA RESULT:      -9.3      4.055      7.919
  Name = 
  4 active torsions:
  status: ('A' for Active; 'I' for Inactive)
    1  A    between atoms: C_2  and  C_21
    2  A    between atoms: N_6  and  N_15
    3  A    between atoms: N_6  and  C_23
    4  A    between atoms: N_15  and  C_21
                            x       y       z     vdW  Elec       q    Type
                         _______ _______ _______ _____ _____    ______ ____

>  <TORSDO>
F 4

$$$$
=
 OpenBabel11052422163D

 25 28  0  0  1  0  0  0  0  0999 V2000
  161.0400  206.4510  151.8870 C   0  0  0  0  0  0  0  0  0  0  0  0
  160.6640  205.7980  150.5930 C   0  0  0  0  0  0  0  0  0  0  0  0
  161.1370  204.3720  153.1400 C   0  0  0  0  0  3  0  0  0  0  0  0
  161.0270  207.7130  152.2770 C   0  0  0  0  0  0  0  0  0  0  0  0
  161.0440  210.1540  153.5910 C   0  0  0  0  0  3  0  0  0  0  0  0
  161.0050  203.6420  151.8540 C   0  0  0  0  0  3  0  0  0  0  0  0
  161.1980  207.7570  153.6570 C   0  0  0  0  0  0  0  0  0  0  0  0
  161.2140  208.9740  154.3380 C   0  0  0  0  0  3  0  0  0  0  0  0
  160.8570  203.5460  149.3990 C   0  0  0  0  0  0  0  0  0  0  0  0
  160.5080  201.8260  149.3250 Cl  0  0  0  0  0  0  0  0  0  0  0  0
  161.3890  206.3640  149.4040 C   0  0  0  0  0  2  0  0  0  0  0  0
  160.8540  210.1010  152.1950 C   0  0  0  0  0  3  0  0  0  0  0  0
  161.1780  205.7020  153.1090 C   0  0  0  0  0  0  0  0  0  0  0  0
  161.2890  206.5880  154.2180 N   0  0  0  0  0  0  0  0  0  0  0  0
  161.2110  204.1900  148.2810 C   0  0  0  0  0  3  0  0  0  0  0  0
  160.8380  208.8680  151.5210 C   0  0  0  0  0  3  0  0  0  0  0  0
  161.5780  205.6250  148.2980 C   0  0  0  0  0  0  0  0  0  0  0  0
  160.8360  204.2850  150.6760 C   0  0  0  0  0  0  0  0  0  0  0  0
  162.1950  206.1930  147.1400 N   0  0  0  0  0  2  0  0  0  0  0  0
  162.5610  205.4150  146.0270 N   0  0  0  0  0  2  0  0  0  0  0  0
  161.4830  205.4420  145.0350 C   0  0  2  0  0  3  0  0  0  0  0  0
  160.4600  206.4140  145.3910 N   0  0  0  0  0  1  0  0  0  0  0  0
  160.8920  204.0830  144.8170 C   0  0  0  0  0  0  0  0  0  0  0  0
  161.5080  202.9700  145.3700 O   0  0  0  0  0  1  0  0  0  0  0  0
  159.8220  203.9450  144.1660 O   0  0  0  0  0  0  0  0  0  0  0  0
  1  4  1  0  0  0  0
  1 13  1  0  0  0  0
  2 18  1  0  0  0  0
  2  1  2  0  0  0  0
  4  7  1  0  0  0  0
  5  8  1  0  0  0  0
  6  3  2  0  0  0  0
  7 14  1  0  0  0  0
  7  8  2  0  0  0  0
  9 18  2  0  0  0  0
 10  9  1  0  0  0  0
 11  2  1  0  0  0  0
 12  5  2  0  0  0  0
 13  3  1  0  0  0  0
 13 14  2  0  0  0  0
 15 17  2  0  0  0  0
 15  9  1  0  0  0  0
 16 12  1  0  0  0  0
 16  4  2  0  0  0  0
 17 11  1  0  0  0  0
 18  6  1  0  0  0  0
 19 17  1  0  0  0  0
 20 19  1  0  0  0  0
 21 22  1  1  0  0  0
 21 20  1  0  0  0  0
 23 21  1  0  0  0  0
 23 24  1  0  0  0  0
 25 23  2  0  0  0  0
M  END
>  <MODEL>
3

>  <REMARK>
 VINA RESULT:      -9.2      4.166      7.927
  Name = 
  4 active torsions:
  status: ('A' for Active; 'I' for Inactive)
    1  A    between atoms: C_2  and  C_21
    2  A    between atoms: N_6  and  N_15
    3  A    between atoms: N_6  and  C_23
    4  A    between atoms: N_15  and  C_21
                            x       y       z     vdW  Elec       q    Type
                         _______ _______ _______ _____ _____    ______ ____

>  <TORSDO>
F 4

$$$$
=
 OpenBabel11052422163D

 25 28  0  0  1  0  0  0  0  0999 V2000
  161.4880  205.2520  149.2020 C   0  0  0  0  0  0  0  0  0  0  0  0
  162.0130  206.3020  150.1310 C   0  0  1  0  0  3  0  0  0  0  0  0
  160.5530  203.8720  150.9690 C   0  0  0  0  0  3  0  0  0  0  0  0
  161.7120  205.0100  147.9230 C   0  0  0  0  0  0  0  0  0  0  0  0
  161.9610  204.0240  145.3440 C   0  0  0  0  0  3  0  0  0  0  0  0
  160.8290  204.9780  151.9190 C   0  0  0  0  0  3  0  0  0  0  0  0
  161.2050  203.7540  147.6080 C   0  0  0  0  0  0  0  0  0  0  0  0
  161.3150  203.2400  146.3170 C   0  0  0  0  0  3  0  0  0  0  0  0
  161.5840  207.2570  152.4630 C   0  0  0  0  0  0  0  0  0  0  0  0
  161.4990  207.0440  154.2050 Cl  0  0  0  0  0  0  0  0  0  0  0  0
  161.7880  207.7050  149.6380 C   0  0  0  0  0  3  0  0  0  0  0  0
  162.4890  205.2890  145.6740 C   0  0  0  0  0  3  0  0  0  0  0  0
  160.8540  204.0530  149.6850 C   0  0  0  0  0  0  0  0  0  0  0  0
  160.6820  203.1240  148.6180 N   0  0  0  0  0  0  0  0  0  0  0  0
  161.7050  208.4900  151.9610 C   0  0  0  0  0  3  0  0  0  0  0  0
  162.3730  205.7950  146.9800 C   0  0  0  0  0  3  0  0  0  0  0  0
  161.7160  208.7330  150.4990 C   0  0  0  0  0  0  0  0  0  0  0  0
  161.4540  206.1150  151.5380 C   0  0  0  0  0  0  0  0  0  0  0  0
  161.5830  210.0740  150.0210 N   0  0  0  0  0  2  0  0  0  0  0  0
  161.9570  210.4470  148.7180 N   0  0  0  0  0  2  0  0  0  0  0  0
  162.0200  211.9090  148.6260 C   0  0  2  0  0  3  0  0  0  0  0  0
  161.1810  212.5390  149.6350 N   0  0  0  0  0  1  0  0  0  0  0  0
  161.6810  212.3970  147.2520 C   0  0  0  0  0  0  0  0  0  0  0  0
  162.6510  213.0360  146.4920 O   0  0  0  0  0  0  0  0  0  0  0  0
  160.5350  212.2030  146.7660 O   0  0  0  0  0  1  0  0  0  0  0  0
  1 13  1  0  0  0  0
  1  2  1  0  0  0  0
  2 11  1  6  0  0  0
  2 18  1  0  0  0  0
  3  6  1  0  0  0  0
  4  1  2  0  0  0  0
  5 12  1  0  0  0  0
  5  8  2  0  0  0  0
  7  4  1  0  0  0  0
  7 14  2  0  0  0  0
  8  7  1  0  0  0  0
  9 10  1  0  0  0  0
 11 17  2  0  0  0  0
 12 16  2  0  0  0  0
 13  3  2  0  0  0  0
 14 13  1  0  0  0  0
 15  9  2  0  0  0  0
 16  4  1  0  0  0  0
 17 15  1  0  0  0  0
 18  6  2  0  0  0  0
 18  9  1  0  0  0  0
 19 17  1  0  0  0  0
 20 19  1  0  0  0  0
 21 20  1  0  0  0  0
 21 22  1  1  0  0  0
 23 21  1  0  0  0  0
 24 23  2  0  0  0  0
 25 23  1  0  0  0  0
M  END
>  <MODEL>
4

>  <REMARK>
 VINA RESULT:      -8.6      3.877      5.219
  Name = 
  4 active torsions:
  status: ('A' for Active; 'I' for Inactive)
    1  A    between atoms: C_2  and  C_21
    2  A    between atoms: N_6  and  N_15
    3  A    between atoms: N_6  and  C_23
    4  A    between atoms: N_15  and  C_21
                            x       y       z     vdW  Elec       q    Type
                         _______ _______ _______ _____ _____    ______ ____

>  <TORSDO>
F 4

$$$$
=
 OpenBabel11052422163D

 25 28  0  0  1  0  0  0  0  0999 V2000
  161.6240  206.0490  149.0510 C   0  0  0  0  0  0  0  0  0  0  0  0
  162.2220  207.3290  149.5490 C   0  0  1  0  0  3  0  0  0  0  0  0
  160.8310  205.3360  151.2330 C   0  0  0  0  0  3  0  0  0  0  0  0
  161.7460  205.4040  147.9060 C   0  0  0  0  0  0  0  0  0  0  0  0
  161.7900  203.6340  145.7720 C   0  0  0  0  0  3  0  0  0  0  0  0
  161.1820  206.6810  151.7520 C   0  0  0  0  0  3  0  0  0  0  0  0
  161.2150  204.1260  148.0520 C   0  0  0  0  0  0  0  0  0  0  0  0
  161.2220  203.2220  146.9910 C   0  0  0  0  0  3  0  0  0  0  0  0
  161.9790  208.9940  151.4740 C   0  0  0  0  0  0  0  0  0  0  0  0
  162.0320  209.3540  153.1920 Cl  0  0  0  0  0  0  0  0  0  0  0  0
  161.9590  208.5030  148.6490 C   0  0  0  0  0  3  0  0  0  0  0  0
  162.3440  204.9240  145.6350 C   0  0  0  0  0  3  0  0  0  0  0  0
  161.0300  205.0860  149.9410 C   0  0  0  0  0  0  0  0  0  0  0  0
  160.7730  203.8690  149.2470 N   0  0  0  0  0  0  0  0  0  0  0  0
  162.0610  209.9960  150.5930 C   0  0  0  0  0  3  0  0  0  0  0  0
  162.3310  205.8260  146.7130 C   0  0  0  0  0  3  0  0  0  0  0  0
  161.9560  209.7550  149.1340 C   0  0  0  0  0  0  0  0  0  0  0  0
  161.7760  207.6190  150.9790 C   0  0  0  0  0  0  0  0  0  0  0  0
  161.7870  210.8750  148.2610 N   0  0  0  0  0  2  0  0  0  0  0  0
  162.7060  211.9390  148.2180 N   0  0  0  0  0  2  0  0  0  0  0  0
  161.9830  213.2040  148.0560 C   0  0  2  0  0  3  0  0  0  0  0  0
  160.8090  213.2560  148.9160 N   0  0  0  0  0  1  0  0  0  0  0  0
  161.6230  213.4620  146.6260 C   0  0  0  0  0  0  0  0  0  0  0  0
  160.3420  213.8890  146.3070 O   0  0  0  0  0  1  0  0  0  0  0  0
  162.4820  213.3280  145.7130 O   0  0  0  0  0  0  0  0  0  0  0  0
  1  2  1  0  0  0  0
  1 13  1  0  0  0  0
  2 11  1  6  0  0  0
  2 18  1  0  0  0  0
  3  6  1  0  0  0  0
  4  7  1  0  0  0  0
  4  1  2  0  0  0  0
  5  8  2  0  0  0  0
  7 14  2  0  0  0  0
  8  7  1  0  0  0  0
  9 10  1  0  0  0  0
 11 17  2  0  0  0  0
 12  5  1  0  0  0  0
 12 16  2  0  0  0  0
 13  3  2  0  0  0  0
 14 13  1  0  0  0  0
 15  9  2  0  0  0  0
 16  4  1  0  0  0  0
 17 15  1  0  0  0  0
 18  9  1  0  0  0  0
 18  6  2  0  0  0  0
 19 17  1  0  0  0  0
 20 19  1  0  0  0  0
 21 20  1  0  0  0  0
 21 22  1  1  0  0  0
 23 21  1  0  0  0  0
 24 23  1  0  0  0  0
 25 23  2  0  0  0  0
M  END
>  <MODEL>
5

>  <REMARK>
 VINA RESULT:      -8.4      4.367      5.695
  Name = 
  4 active torsions:
  status: ('A' for Active; 'I' for Inactive)
    1  A    between atoms: C_2  and  C_21
    2  A    between atoms: N_6  and  N_15
    3  A    between atoms: N_6  and  C_23
    4  A    between atoms: N_15  and  C_21
                            x       y       z     vdW  Elec       q    Type
                         _______ _______ _______ _____ _____    ______ ____

>  <TORSDO>
F 4

$$$$
=
 OpenBabel11052422163D

 25 28  0  0  1  0  0  0  0  0999 V2000
  161.2810  205.7200  150.7150 C   0  0  0  0  0  0  0  0  0  0  0  0
  161.6340  206.7820  151.7100 C   0  0  1  0  0  3  0  0  0  0  0  0
  160.8300  204.0190  152.3900 C   0  0  0  0  0  3  0  0  0  0  0  0
  161.4470  205.6440  149.4070 C   0  0  0  0  0  0  0  0  0  0  0  0
  161.6950  204.9600  146.7320 C   0  0  0  0  0  3  0  0  0  0  0  0
  160.9300  205.0760  153.4270 C   0  0  0  0  0  3  0  0  0  0  0  0
  161.2090  204.3350  149.0000 C   0  0  0  0  0  0  0  0  0  0  0  0
  161.3230  203.9700  147.6590 C   0  0  0  0  0  3  0  0  0  0  0  0
  161.1970  207.4140  154.1490 C   0  0  0  0  0  0  0  0  0  0  0  0
  161.3080  207.0430  155.8620 Cl  0  0  0  0  0  0  0  0  0  0  0  0
  161.0590  208.1300  151.3750 C   0  0  0  0  0  3  0  0  0  0  0  0
  161.9510  206.2810  147.1530 C   0  0  0  0  0  3  0  0  0  0  0  0
  160.9750  204.3710  151.1140 C   0  0  0  0  0  0  0  0  0  0  0  0
  160.9270  203.5200  149.9730 N   0  0  0  0  0  0  0  0  0  0  0  0
  160.9960  208.6800  153.7650 C   0  0  0  0  0  3  0  0  0  0  0  0
  161.8340  206.6350  148.5080 C   0  0  0  0  0  3  0  0  0  0  0  0
  160.8310  209.0390  152.3370 C   0  0  0  0  0  0  0  0  0  0  0  0
  161.2500  206.3540  153.1230 C   0  0  0  0  0  0  0  0  0  0  0  0
  160.3620  210.3480  152.0050 N   0  0  0  0  0  2  0  0  0  0  0  0
  160.0620  211.3090  152.9880 N   0  0  0  0  0  2  0  0  0  0  0  0
  158.6460  211.6770  152.8960 C   0  0  2  0  0  3  0  0  0  0  0  0
  158.4840  213.0420  152.4170 N   0  0  0  0  0  1  0  0  0  0  0  0
  157.9290  211.4660  154.1940 C   0  0  0  0  0  0  0  0  0  0  0  0
  158.5460  210.7490  155.2090 O   0  0  0  0  0  1  0  0  0  0  0  0
  156.7880  211.9630  154.3860 O   0  0  0  0  0  0  0  0  0  0  0  0
  1 13  1  0  0  0  0
  1  2  1  0  0  0  0
  2 11  1  6  0  0  0
  2 18  1  0  0  0  0
  3  6  1  0  0  0  0
  4  1  2  0  0  0  0
  5 12  1  0  0  0  0
  5  8  2  0  0  0  0
  7  4  1  0  0  0  0
  7 14  2  0  0  0  0
  8  7  1  0  0  0  0
  9 10  1  0  0  0  0
 11 17  2  0  0  0  0
 12 16  2  0  0  0  0
 13  3  2  0  0  0  0
 14 13  1  0  0  0  0
 15  9  2  0  0  0  0
 16  4  1  0  0  0  0
 17 15  1  0  0  0  0
 18  6  2  0  0  0  0
 18  9  1  0  0  0  0
 19 17  1  0  0  0  0
 19 20  1  0  0  0  0
 21 22  1  1  0  0  0
 21 20  1  0  0  0  0
 21 23  1  0  0  0  0
 23 25  2  0  0  0  0
 23 24  1  0  0  0  0
M  END
>  <MODEL>
6

>  <REMARK>
 VINA RESULT:      -8.3      3.016      4.167
  Name = 
  4 active torsions:
  status: ('A' for Active; 'I' for Inactive)
    1  A    between atoms: C_2  and  C_21
    2  A    between atoms: N_6  and  N_15
    3  A    between atoms: N_6  and  C_23
    4  A    between atoms: N_15  and  C_21
                            x       y       z     vdW  Elec       q    Type
                         _______ _______ _______ _____ _____    ______ ____

>  <TORSDO>
F 4

$$$$
=
 OpenBabel11052422163D

 25 28  0  0  1  0  0  0  0  0999 V2000
  161.2700  205.9040  150.7210 C   0  0  0  0  0  0  0  0  0  0  0  0
  161.5730  206.9540  151.7450 C   0  0  1  0  0  3  0  0  0  0  0  0
  160.8780  204.1440  152.3480 C   0  0  0  0  0  3  0  0  0  0  0  0
  161.4470  205.8690  149.4130 C   0  0  0  0  0  0  0  0  0  0  0  0
  161.7390  205.2640  146.7230 C   0  0  0  0  0  3  0  0  0  0  0  0
  160.9280  205.1770  153.4130 C   0  0  0  0  0  3  0  0  0  0  0  0
  161.2650  204.5620  148.9710 C   0  0  0  0  0  0  0  0  0  0  0  0
  161.4020  204.2370  147.6220 C   0  0  0  0  0  3  0  0  0  0  0  0
  161.0970  207.5050  154.1960 C   0  0  0  0  0  0  0  0  0  0  0  0
  161.2120  207.0940  155.9000 Cl  0  0  0  0  0  0  0  0  0  0  0  0
  160.9470  208.2860  151.4410 C   0  0  0  0  0  3  0  0  0  0  0  0
  161.9400  206.5830  147.1800 C   0  0  0  0  0  3  0  0  0  0  0  0
  161.0160  204.5340  151.0830 C   0  0  0  0  0  0  0  0  0  0  0  0
  161.0100  203.7120  149.9200 N   0  0  0  0  0  0  0  0  0  0  0  0
  160.8470  208.7710  153.8430 C   0  0  0  0  0  3  0  0  0  0  0  0
  161.7990  206.8980  148.5420 C   0  0  0  0  0  3  0  0  0  0  0  0
  160.6760  209.1600  152.4240 C   0  0  0  0  0  0  0  0  0  0  0  0
  161.1980  206.4750  153.1440 C   0  0  0  0  0  0  0  0  0  0  0  0
  160.1570  210.4580  152.1220 N   0  0  0  0  0  2  0  0  0  0  0  0
  160.4710  211.5900  152.8960 N   0  0  0  0  0  2  0  0  0  0  0  0
  159.2560  212.3780  153.1230 C   0  0  2  0  0  3  0  0  0  0  0  0
  158.1270  211.5240  153.4620 N   0  0  0  0  0  1  0  0  0  0  0  0
  158.9400  213.2650  151.9590 C   0  0  0  0  0  0  0  0  0  0  0  0
  159.9680  213.7280  151.1500 O   0  0  0  0  0  0  0  0  0  0  0  0
  157.7470  213.5670  151.6870 O   0  0  0  0  0  1  0  0  0  0  0  0
  1 13  1  0  0  0  0
  1  2  1  0  0  0  0
  2 11  1  6  0  0  0
  2 18  1  0  0  0  0
  3  6  1  0  0  0  0
  4  1  2  0  0  0  0
  5 12  1  0  0  0  0
  5  8  2  0  0  0  0
  7  4  1  0  0  0  0
  7 14  2  0  0  0  0
  8  7  1  0  0  0  0
  9 10  1  0  0  0  0
 11 17  2  0  0  0  0
 12 16  2  0  0  0  0
 13  3  2  0  0  0  0
 14 13  1  0  0  0  0
 15  9  2  0  0  0  0
 16  4  1  0  0  0  0
 17 15  1  0  0  0  0
 18  6  2  0  0  0  0
 18  9  1  0  0  0  0
 19 17  1  0  0  0  0
 19 20  1  0  0  0  0
 20 21  1  0  0  0  0
 21 22  1  6  0  0  0
 23 21  1  0  0  0  0
 24 23  2  0  0  0  0
 25 23  1  0  0  0  0
M  END
>  <MODEL>
7

>  <REMARK>
 VINA RESULT:      -8.3      3.260      4.414
  Name = 
  4 active torsions:
  status: ('A' for Active; 'I' for Inactive)
    1  A    between atoms: C_2  and  C_21
    2  A    between atoms: N_6  and  N_15
    3  A    between atoms: N_6  and  C_23
    4  A    between atoms: N_15  and  C_21
                            x       y       z     vdW  Elec       q    Type
                         _______ _______ _______ _____ _____    ______ ____

>  <TORSDO>
F 4

$$$$
=
 OpenBabel11052422163D

 25 28  0  0  1  0  0  0  0  0999 V2000
  161.4710  206.7130  150.8030 C   0  0  0  0  0  0  0  0  0  0  0  0
  160.9800  205.7520  149.7640 C   0  0  0  0  0  0  0  0  0  0  0  0
  161.2420  205.1480  152.6470 C   0  0  0  0  0  3  0  0  0  0  0  0
  161.6680  208.0180  150.7770 C   0  0  0  0  0  0  0  0  0  0  0  0
  162.0970  210.7140  151.2590 C   0  0  0  0  0  3  0  0  0  0  0  0
  160.9800  204.0800  151.6500 C   0  0  0  0  0  3  0  0  0  0  0  0
  161.8580  208.4690  152.0790 C   0  0  0  0  0  0  0  0  0  0  0  0
  162.0800  209.8200  152.3430 C   0  0  0  0  0  3  0  0  0  0  0  0
  160.7910  203.2370  149.3450 C   0  0  0  0  0  0  0  0  0  0  0  0
  160.1670  201.6600  149.8000 Cl  0  0  0  0  0  0  0  0  0  0  0  0
  161.7740  205.7910  148.4880 C   0  0  0  0  0  2  0  0  0  0  0  0
  161.8850  210.2540  149.9430 C   0  0  0  0  0  3  0  0  0  0  0  0
  161.4980  206.3760  152.2020 C   0  0  0  0  0  0  0  0  0  0  0  0
  161.7650  207.5390  152.9810 N   0  0  0  0  0  0  0  0  0  0  0  0
  161.2330  203.4310  148.0980 C   0  0  0  0  0  3  0  0  0  0  0  0
  161.6620  208.8900  149.6890 C   0  0  0  0  0  3  0  0  0  0  0  0
  161.8290  204.7210  147.6790 C   0  0  0  0  0  0  0  0  0  0  0  0
  160.9040  204.3350  150.3240 C   0  0  0  0  0  0  0  0  0  0  0  0
  162.5180  204.7890  146.4280 N   0  0  0  0  0  2  0  0  0  0  0  0
  162.2670  203.8810  145.3830 N   0  0  0  0  0  2  0  0  0  0  0  0
  161.1290  204.3520  144.5880 C   0  0  2  0  0  3  0  0  0  0  0  0
  160.6680  205.6550  145.0450 N   0  0  0  0  0  1  0  0  0  0  0  0
  160.0130  203.3540  144.5660 C   0  0  0  0  0  0  0  0  0  0  0  0
  160.2410  202.0600  145.0130 O   0  0  0  0  0  1  0  0  0  0  0  0
  158.8610  203.6870  144.1790 O   0  0  0  0  0  0  0  0  0  0  0  0
  1 13  1  0  0  0  0
  2 18  1  0  0  0  0
  2  1  2  0  0  0  0
  4  1  1  0  0  0  0
  4  7  1  0  0  0  0
  5  8  1  0  0  0  0
  6  3  2  0  0  0  0
  7  8  2  0  0  0  0
  7 14  1  0  0  0  0
  9 10  1  0  0  0  0
  9 18  2  0  0  0  0
 11  2  1  0  0  0  0
 12  5  2  0  0  0  0
 13  3  1  0  0  0  0
 13 14  2  0  0  0  0
 15  9  1  0  0  0  0
 16 12  1  0  0  0  0
 16  4  2  0  0  0  0
 17 15  2  0  0  0  0
 17 11  1  0  0  0  0
 18  6  1  0  0  0  0
 19 17  1  0  0  0  0
 20 19  1  0  0  0  0
 21 22  1  1  0  0  0
 21 20  1  0  0  0  0
 23 21  1  0  0  0  0
 23 24  1  0  0  0  0
 25 23  2  0  0  0  0
M  END
>  <MODEL>
8

>  <REMARK>
 VINA RESULT:      -8.1      4.463      8.082
  Name = 
  4 active torsions:
  status: ('A' for Active; 'I' for Inactive)
    1  A    between atoms: C_2  and  C_21
    2  A    between atoms: N_6  and  N_15
    3  A    between atoms: N_6  and  C_23
    4  A    between atoms: N_15  and  C_21
                            x       y       z     vdW  Elec       q    Type
                         _______ _______ _______ _____ _____    ______ ____

>  <TORSDO>
F 4

$$$$
=
 OpenBabel11052422163D

 25 28  0  0  1  0  0  0  0  0999 V2000
  161.3780  207.3980  151.2770 C   0  0  0  0  0  0  0  0  0  0  0  0
  161.8090  206.2450  150.4230 C   0  0  0  0  0  0  0  0  0  0  0  0
  161.6410  209.0560  149.5220 C   0  0  0  0  0  3  0  0  0  0  0  0
  161.2090  207.5170  152.5820 C   0  0  0  0  0  0  0  0  0  0  0  0
  160.8590  208.2970  155.2190 C   0  0  0  0  0  3  0  0  0  0  0  0
  161.8430  207.9430  148.5610 C   0  0  0  0  0  3  0  0  0  0  0  0
  161.0780  208.8660  152.8950 C   0  0  1  0  0  3  0  0  0  0  0  0
  160.8970  209.2800  154.2140 C   0  0  0  0  0  3  0  0  0  0  0  0
  161.9260  205.5560  147.9640 C   0  0  0  0  0  0  0  0  0  0  0  0
  162.5320  205.8170  146.3370 Cl  0  0  0  0  0  0  0  0  0  0  0  0
  160.9680  205.0130  150.6120 C   0  0  0  0  0  3  0  0  0  0  0  0
  161.0110  206.9330  154.8970 C   0  0  0  0  0  3  0  0  0  0  0  0
  161.3960  208.7540  150.7950 C   0  0  0  0  0  0  0  0  0  0  0  0
  161.1850  209.6610  151.8730 N   0  0  0  0  0  0  0  0  0  0  0  0
  161.4410  204.3550  148.2970 C   0  0  0  0  0  3  0  0  0  0  0  0
  161.1940  206.5280  153.5640 C   0  0  0  0  0  3  0  0  0  0  0  0
  160.8590  204.0980  149.6350 C   0  0  0  0  0  0  0  0  0  0  0  0
  161.8740  206.6490  148.9540 C   0  0  0  0  0  0  0  0  0  0  0  0
  160.1260  202.8890  149.8480 N   0  0  0  0  0  2  0  0  0  0  0  0
  159.6710  202.0900  148.7840 N   0  0  0  0  0  2  0  0  0  0  0  0
  160.5110  200.8930  148.6770 C   0  0  2  0  0  3  0  0  0  0  0  0
  161.5800  200.9080  149.6660 N   0  0  0  0  0  1  0  0  0  0  0  0
  161.0510  200.7120  147.2920 C   0  0  0  0  0  0  0  0  0  0  0  0
  160.9080  201.7310  146.3610 O   0  0  0  0  0  0  0  0  0  0  0  0
  161.6630  199.6580  146.9740 O   0  0  0  0  0  1  0  0  0  0  0  0
  1  4  2  0  0  0  0
  2 11  1  0  0  0  0
  2  1  1  0  0  0  0
  3 13  1  0  0  0  0
  4  7  1  0  0  0  0
  4 16  1  0  0  0  0
  6 18  1  0  0  0  0
  6  3  2  0  0  0  0
  7  8  1  1  0  0  0
  8  5  2  0  0  0  0
  9 15  2  0  0  0  0
  9 18  1  0  0  0  0
 10  9  1  0  0  0  0
 12  5  1  0  0  0  0
 13  1  1  0  0  0  0
 13 14  2  0  0  0  0
 14  7  1  0  0  0  0
 15 17  1  0  0  0  0
 16 12  2  0  0  0  0
 17 19  1  0  0  0  0
 17 11  2  0  0  0  0
 18  2  2  0  0  0  0
 20 19  1  0  0  0  0
 21 20  1  0  0  0  0
 21 22  1  1  0  0  0
 23 21  1  0  0  0  0
 24 23  2  0  0  0  0
 25 23  1  0  0  0  0
M  END
>  <MODEL>
9

>  <REMARK>
 VINA RESULT:      -7.9      4.165      7.234
  Name = 
  4 active torsions:
  status: ('A' for Active; 'I' for Inactive)
    1  A    between atoms: C_2  and  C_21
    2  A    between atoms: N_6  and  N_15
    3  A    between atoms: N_6  and  C_23
    4  A    between atoms: N_15  and  C_21
                            x       y       z     vdW  Elec       q    Type
                         _______ _______ _______ _____ _____    ______ ____

>  <TORSDO>
F 4

$$$$
