=
 OpenBabel11062409043D

 37 44  0  0  1  0  0  0  0  0999 V2000
  158.8360  212.2100  151.1190 C   0  0  0  0  0  2  0  0  0  0  0  0
  160.5400  209.0730  154.5330 C   0  0  0  0  0  0  0  0  0  0  0  0
  159.7280  213.4060  150.8410 C   0  0  1  0  0  3  0  0  0  0  0  0
  162.3410  209.0740  151.7830 C   0  0  0  0  0  2  0  0  0  0  0  0
  159.0250  210.8560  155.2460 C   0  0  0  0  0  2  0  0  0  0  0  0
  160.1120  209.3170  153.1260 C   0  0  2  0  0  3  0  0  0  0  0  0
  158.3610  214.4500  149.2040 C   0  0  0  0  0  1  0  0  0  0  0  0
  160.0520  209.8040  155.4920 C   0  0  0  0  0  0  0  0  0  0  0  0
  160.9340  208.5330  152.0770 C   0  0  2  0  0  3  0  0  0  0  0  0
  160.6600  209.4820  156.7280 N   0  0  0  0  0  0  0  0  0  0  0  0
  160.1250  212.9350  149.4980 C   0  0  1  0  0  3  0  0  0  0  0  0
  159.1430  211.4810  153.8240 C   0  0  2  0  0  3  0  0  0  0  0  0
  161.1960  206.4660  154.9000 S   0  0  0  0  0  0  0  0  0  0  0  0
  159.7270  214.3240  149.6850 N   0  0  0  0  0  0  0  0  0  0  0  0
  161.5380  208.5850  156.5250 N   0  0  0  0  0  0  0  0  0  0  0  0
  161.4680  212.3760  149.9010 C   0  0  1  0  0  3  0  0  0  0  0  0
  162.3690  210.5630  151.4170 C   0  0  0  0  0  2  0  0  0  0  0  0
  161.6160  208.2200  155.1100 C   0  0  2  0  0  3  0  0  0  0  0  0
  160.0790  210.7800  152.8930 N   0  0  2  0  0  0  0  0  0  0  0  0
  160.8440  207.0070  152.2200 C   0  0  2  0  0  3  0  0  0  0  0  0
  161.1520  211.0210  150.6000 C   0  0  1  0  0  3  0  0  0  0  0  0
  159.8050  211.0240  151.4530 C   0  0  2  0  0  3  0  0  0  0  0  0
  161.8530  206.4210  153.2050 C   0  0  0  0  0  2  0  0  0  0  0  0
  160.8750  207.1060  149.7260 C   0  0  0  0  0  3  0  0  0  0  0  0
  160.9180  206.3280  150.8880 C   0  0  0  0  0  0  0  0  0  0  0  0
  161.0540  204.9350  150.7840 C   0  0  0  0  0  3  0  0  0  0  0  0
  161.2690  202.9850  149.4300 F   0  0  0  0  0  0  0  0  0  0  0  0
  161.0910  205.1120  148.3700 C   0  0  0  0  0  3  0  0  0  0  0  0
  161.1390  204.3290  149.5260 C   0  0  0  0  0  0  0  0  0  0  0  0
  160.9600  206.5000  148.4680 C   0  0  0  0  0  3  0  0  0  0  0  0
  162.3230  212.1370  148.6680 C   0  0  0  0  0  2  0  0  0  0  0  0
  161.5090  211.8370  147.5750 O   0  0  0  0  0  1  0  0  0  0  0  0
  159.5980  212.9260  153.9990 C   0  0  0  0  0  2  0  0  0  0  0  0
  157.4720  213.9220  153.7990 C   0  0  0  0  0  0  0  0  0  0  0  0
  158.5210  213.7560  154.6750 C   0  0  1  0  0  3  0  0  0  0  0  0
  157.4350  212.9710  154.9550 O   0  0  0  0  0  0  0  0  0  0  0  0
  156.9430  214.4530  152.7880 O   0  0  0  0  0  0  0  0  0  0  0  0
  1 22  1  0  0  0  0
  2  8  2  0  0  0  0
  3  1  1  6  0  0  0
  5  8  1  0  0  0  0
  6  2  1  1  0  0  0
  7 14  1  0  0  0  0
  8 10  1  0  0  0  0
  9  4  1  1  0  0  0
  9 20  1  0  0  0  0
  9  6  1  0  0  0  0
 11 14  1  6  0  0  0
 11 16  1  0  0  0  0
 11  3  1  0  0  0  0
 12 33  1  1  0  0  0
 12  5  1  0  0  0  0
 13 18  1  0  0  0  0
 14  3  1  0  0  0  0
 15 10  2  0  0  0  0
 16 31  1  6  0  0  0
 16 21  1  0  0  0  0
 17  4  1  0  0  0  0
 18  2  1  6  0  0  0
 18 15  1  0  0  0  0
 19  6  1  0  0  0  0
 19 12  1  0  0  0  0
 20 23  1  0  0  0  0
 21 17  1  0  0  0  0
 21 22  1  0  0  0  0
 22 19  1  0  0  0  0
 23 13  1  0  0  0  0
 24 25  1  0  0  0  0
 25 20  1  0  0  0  0
 26 25  2  0  0  0  0
 27 29  1  0  0  0  0
 28 30  1  0  0  0  0
 28 29  2  0  0  0  0
 29 26  1  0  0  0  0
 30 24  2  0  0  0  0
 32 31  1  0  0  0  0
 33 35  1  0  0  0  0
 34 35  1  0  0  0  0
 34 36  1  0  0  0  0
 35 36  1  0  0  0  0
 37 34  2  0  0  0  0
M  END
>  <MODEL>
1

>  <REMARK>
 VINA RESULT:      -5.4      0.000      0.000
  Name = 
  4 active torsions:
  status: ('A' for Active; 'I' for Inactive)
    1  A    between atoms: C_6  and  C_31
    2  A    between atoms: C_11  and  C_26
    3  A    between atoms: C_20  and  C_25
    4  A    between atoms: C_21  and  C_25
                            x       y       z     vdW  Elec       q    Type
                         _______ _______ _______ _____ _____    ______ ____

>  <TORSDO>
F 4

$$$$
=
 OpenBabel11062409043D

 37 44  0  0  1  0  0  0  0  0999 V2000
  159.2650  211.8780  151.2090 C   0  0  0  0  0  2  0  0  0  0  0  0
  160.7340  208.0690  153.9910 C   0  0  0  0  0  0  0  0  0  0  0  0
  160.2400  213.0380  151.1390 C   0  0  1  0  0  3  0  0  0  0  0  0
  162.5380  208.4360  151.2680 C   0  0  0  0  0  2  0  0  0  0  0  0
  159.3460  209.7990  155.0250 C   0  0  0  0  0  2  0  0  0  0  0  0
  160.3280  208.5900  152.6540 C   0  0  2  0  0  3  0  0  0  0  0  0
  158.9550  214.4520  149.7280 C   0  0  0  0  0  1  0  0  0  0  0  0
  160.2960  208.6500  155.0700 C   0  0  0  0  0  0  0  0  0  0  0  0
  161.0950  207.9510  151.4740 C   0  0  2  0  0  3  0  0  0  0  0  0
  160.8760  208.0710  156.2230 N   0  0  0  0  0  0  0  0  0  0  0  0
  160.6070  212.7880  149.7300 C   0  0  1  0  0  3  0  0  0  0  0  0
  159.5120  210.6570  153.7360 C   0  0  2  0  0  3  0  0  0  0  0  0
  161.2030  205.4000  153.8800 S   0  0  0  0  0  0  0  0  0  0  0  0
  160.3070  214.1460  150.1660 N   0  0  0  0  0  0  0  0  0  0  0  0
  161.6900  207.1650  155.8540 N   0  0  0  0  0  0  0  0  0  0  0  0
  161.9060  212.0740  150.0140 C   0  0  1  0  0  3  0  0  0  0  0  0
  162.6720  209.9610  151.1730 C   0  0  0  0  0  2  0  0  0  0  0  0
  161.7450  207.0540  154.3960 C   0  0  2  0  0  3  0  0  0  0  0  0
  160.3990  210.0710  152.6860 N   0  0  2  0  0  0  0  0  0  0  0  0
  160.8980  206.4340  151.3440 C   0  0  2  0  0  3  0  0  0  0  0  0
  161.4920  210.6420  150.4630 C   0  0  1  0  0  3  0  0  0  0  0  0
  160.1470  210.5860  151.3160 C   0  0  2  0  0  3  0  0  0  0  0  0
  161.8600  205.6130  152.1980 C   0  0  0  0  0  2  0  0  0  0  0  0
  161.1150  204.6460  149.6160 C   0  0  0  0  0  3  0  0  0  0  0  0
  160.9270  206.0010  149.9120 C   0  0  0  0  0  0  0  0  0  0  0  0
  160.7470  206.9180  148.8650 C   0  0  0  0  0  3  0  0  0  0  0  0
  160.5870  207.3710  146.5310 F   0  0  0  0  0  0  0  0  0  0  0  0
  160.9530  205.1280  147.2490 C   0  0  0  0  0  3  0  0  0  0  0  0
  160.7610  206.4820  147.5370 C   0  0  0  0  0  0  0  0  0  0  0  0
  161.1300  204.2090  148.2870 C   0  0  0  0  0  3  0  0  0  0  0  0
  162.7440  212.0000  148.7490 C   0  0  0  0  0  2  0  0  0  0  0  0
  161.9250  212.1160  147.6250 O   0  0  0  0  0  1  0  0  0  0  0  0
  160.0680  212.0130  154.1620 C   0  0  0  0  0  2  0  0  0  0  0  0
  160.0020  213.2160  156.1870 C   0  0  0  0  0  0  0  0  0  0  0  0
  160.4080  212.0190  155.6420 C   0  0  1  0  0  3  0  0  0  0  0  0
  159.2630  211.9290  156.3850 O   0  0  0  0  0  0  0  0  0  0  0  0
  160.1340  214.4530  156.3730 O   0  0  0  0  0  0  0  0  0  0  0  0
  1 22  1  0  0  0  0
  2 18  1  0  0  0  0
  2  8  2  0  0  0  0
  3  1  1  6  0  0  0
  5  8  1  0  0  0  0
  6 19  1  0  0  0  0
  6  2  1  1  0  0  0
  7 14  1  0  0  0  0
  8 10  1  0  0  0  0
  9  4  1  1  0  0  0
  9  6  1  0  0  0  0
 11 16  1  0  0  0  0
 11 14  1  6  0  0  0
 11  3  1  0  0  0  0
 12 33  1  1  0  0  0
 12  5  1  0  0  0  0
 14  3  1  0  0  0  0
 15 10  2  0  0  0  0
 16 31  1  6  0  0  0
 16 21  1  0  0  0  0
 17  4  1  0  0  0  0
 18 13  1  1  0  0  0
 18 15  1  0  0  0  0
 19 12  1  0  0  0  0
 20  9  1  0  0  0  0
 20 23  1  0  0  0  0
 21 17  1  0  0  0  0
 21 22  1  0  0  0  0
 22 19  1  0  0  0  0
 23 13  1  0  0  0  0
 24 25  1  0  0  0  0
 25 20  1  0  0  0  0
 26 25  2  0  0  0  0
 27 29  1  0  0  0  0
 28 29  2  0  0  0  0
 28 30  1  0  0  0  0
 29 26  1  0  0  0  0
 30 24  2  0  0  0  0
 32 31  1  0  0  0  0
 33 35  1  0  0  0  0
 34 37  2  0  0  0  0
 34 36  1  0  0  0  0
 35 34  1  0  0  0  0
 35 36  1  0  0  0  0
M  END
>  <MODEL>
2

>  <REMARK>
 VINA RESULT:      -3.6      1.628      1.894
  Name = 
  4 active torsions:
  status: ('A' for Active; 'I' for Inactive)
    1  A    between atoms: C_6  and  C_31
    2  A    between atoms: C_11  and  C_26
    3  A    between atoms: C_20  and  C_25
    4  A    between atoms: C_21  and  C_25
                            x       y       z     vdW  Elec       q    Type
                         _______ _______ _______ _____ _____    ______ ____

>  <TORSDO>
F 4

$$$$
