=
 OpenBabel11052422183D

 25 27  0  0  1  0  0  0  0  0999 V2000
  161.4650  207.4370  149.8880 C   0  0  0  0  0  0  0  0  0  0  0  0
  161.3100  206.2980  150.6530 C   0  0  0  0  0  0  0  0  0  0  0  0
  161.6190  208.4960  150.7150 N   0  0  0  0  0  2  0  0  0  0  0  0
  161.5680  208.0710  151.9730 N   0  0  0  0  0  0  0  0  0  0  0  0
  161.2640  205.8130  153.0480 C   0  0  0  0  0  0  0  0  0  0  0  0
  161.3330  206.2060  154.2400 O   0  0  0  0  0  0  0  0  0  0  0  0
  161.1150  204.8560  150.2870 C   0  0  0  0  0  2  0  0  0  0  0  0
  161.0670  204.4250  152.7410 N   0  0  0  0  0  0  0  0  0  0  0  0
  160.9830  203.9660  151.5170 C   0  0  0  0  0  0  0  0  0  0  0  0
  161.3810  206.7410  151.9350 C   0  0  0  0  0  0  0  0  0  0  0  0
  161.4740  207.5400  148.4190 C   0  0  0  0  0  0  0  0  0  0  0  0
  161.5550  208.6760  147.8790 O   0  0  0  0  0  0  0  0  0  0  0  0
  161.3900  206.3170  147.5620 C   0  0  2  0  0  3  0  0  0  0  0  0
  161.6640  204.7620  145.2030 C   0  0  0  0  0  3  0  0  0  0  0  0
  162.7830  205.8560  147.1130 C   0  0  0  0  0  2  0  0  0  0  0  0
  162.6740  204.7670  146.0800 C   0  0  0  0  0  3  0  0  0  0  0  0
  160.5940  205.7750  145.2920 C   0  0  0  0  0  3  0  0  0  0  0  0
  160.4800  206.5410  146.3820 C   0  0  0  0  0  3  0  0  0  0  0  0
  160.8040  202.5050  151.3090 C   0  0  0  0  0  2  0  0  0  0  0  0
  161.2490  202.1440  149.9730 N   0  0  0  0  0  2  0  0  0  0  0  0
  160.3790  201.5170  149.0280 C   0  0  0  0  0  0  0  0  0  0  0  0
  159.1850  201.2560  149.3410 O   0  0  0  0  0  0  0  0  0  0  0  0
  160.8810  201.1760  147.6900 C   0  0  0  0  0  0  0  0  0  0  0  0
  161.6820  200.0140  147.5010 N   0  0  0  0  0  1  0  0  0  0  0  0
  160.6010  201.9280  146.6770 N   0  0  0  0  0  2  0  0  0  0  0  0
  1  2  2  0  0  0  0
  1  3  1  0  0  0  0
  2 10  1  0  0  0  0
  3  4  1  0  0  0  0
  5  6  2  0  0  0  0
  7  2  1  0  0  0  0
  7  9  1  0  0  0  0
  8  5  1  0  0  0  0
  9  8  2  0  0  0  0
 10  4  2  0  0  0  0
 10  5  1  0  0  0  0
 11  1  1  0  0  0  0
 12 11  2  0  0  0  0
 13 11  1  6  0  0  0
 14 17  1  0  0  0  0
 14 16  2  0  0  0  0
 15 13  1  0  0  0  0
 16 15  1  0  0  0  0
 17 18  2  0  0  0  0
 18 13  1  0  0  0  0
 19  9  1  0  0  0  0
 20 19  1  0  0  0  0
 21 22  2  0  0  0  0
 21 20  1  0  0  0  0
 23 21  1  0  0  0  0
 24 23  1  0  0  0  0
 25 23  2  0  0  0  0
M  END
>  <MODEL>
1

>  <REMARK>
 VINA RESULT:      -8.1      0.000      0.000
  Name = 
  5 active torsions:
  status: ('A' for Active; 'I' for Inactive)
    1  A    between atoms: C_1  and  C_18
    2  A    between atoms: C_2  and  C_21
    3  A    between atoms: C_5  and  C_18
    4  A    between atoms: C_6  and  N_15
    5  A    between atoms: C_6  and  C_23
                            x       y       z     vdW  Elec       q    Type
                         _______ _______ _______ _____ _____    ______ ____

>  <TORSDO>
F 5

$$$$
=
 OpenBabel11052422183D

 25 27  0  0  1  0  0  0  0  0999 V2000
  161.1890  205.2030  152.3140 C   0  0  0  0  0  0  0  0  0  0  0  0
  161.4170  206.2360  151.4260 C   0  0  0  0  0  0  0  0  0  0  0  0
  161.3110  205.6810  153.5740 N   0  0  0  0  0  2  0  0  0  0  0  0
  161.6070  206.9750  153.5170 N   0  0  0  0  0  0  0  0  0  0  0  0
  161.9560  208.6100  151.6320 C   0  0  0  0  0  0  0  0  0  0  0  0
  162.1880  209.6160  152.3510 O   0  0  0  0  0  0  0  0  0  0  0  0
  161.4060  206.2980  149.9270 C   0  0  0  0  0  2  0  0  0  0  0  0
  161.9640  208.7110  150.2010 N   0  0  0  0  0  0  0  0  0  0  0  0
  161.7350  207.6930  149.4090 C   0  0  0  0  0  0  0  0  0  0  0  0
  161.6700  207.3100  152.2170 C   0  0  0  0  0  0  0  0  0  0  0  0
  160.8600  203.8020  152.0010 C   0  0  0  0  0  0  0  0  0  0  0  0
  160.1710  203.1310  152.8160 O   0  0  0  0  0  0  0  0  0  0  0  0
  161.3320  203.1680  150.7310 C   0  0  2  0  0  3  0  0  0  0  0  0
  161.1480  201.5850  148.3820 C   0  0  0  0  0  3  0  0  0  0  0  0
  160.5440  203.6890  149.5230 C   0  0  0  0  0  2  0  0  0  0  0  0
  160.8700  202.8900  148.2900 C   0  0  0  0  0  3  0  0  0  0  0  0
  161.2240  200.9290  149.7030 C   0  0  0  0  0  3  0  0  0  0  0  0
  161.2710  201.6650  150.8190 C   0  0  0  0  0  3  0  0  0  0  0  0
  161.7420  207.9100  147.9390 C   0  0  0  0  0  2  0  0  0  0  0  0
  162.2280  206.7140  147.2710 N   0  0  0  0  0  2  0  0  0  0  0  0
  161.4750  206.0600  146.2460 C   0  0  0  0  0  0  0  0  0  0  0  0
  160.3520  206.5150  145.8960 O   0  0  0  0  0  0  0  0  0  0  0  0
  162.0150  204.8550  145.6030 C   0  0  0  0  0  0  0  0  0  0  0  0
  161.1590  204.0010  144.8520 N   0  0  0  0  0  2  0  0  0  0  0  0
  163.2680  204.5610  145.7160 N   0  0  0  0  0  1  0  0  0  0  0  0
  1  3  1  0  0  0  0
  2 10  1  0  0  0  0
  2  1  2  0  0  0  0
  4  3  1  0  0  0  0
  5 10  1  0  0  0  0
  5  6  2  0  0  0  0
  7  2  1  0  0  0  0
  8  5  1  0  0  0  0
  9  7  1  0  0  0  0
  9  8  2  0  0  0  0
 10  4  2  0  0  0  0
 11  1  1  0  0  0  0
 11 12  2  0  0  0  0
 13 18  1  0  0  0  0
 13 11  1  1  0  0  0
 14 17  1  0  0  0  0
 15 13  1  0  0  0  0
 16 14  2  0  0  0  0
 16 15  1  0  0  0  0
 17 18  2  0  0  0  0
 19  9  1  0  0  0  0
 20 19  1  0  0  0  0
 21 20  1  0  0  0  0
 22 21  2  0  0  0  0
 23 25  1  0  0  0  0
 23 21  1  0  0  0  0
 24 23  2  0  0  0  0
M  END
>  <MODEL>
2

>  <REMARK>
 VINA RESULT:      -8.0      2.179      4.658
  Name = 
  5 active torsions:
  status: ('A' for Active; 'I' for Inactive)
    1  A    between atoms: C_1  and  C_18
    2  A    between atoms: C_2  and  C_21
    3  A    between atoms: C_5  and  C_18
    4  A    between atoms: C_6  and  N_15
    5  A    between atoms: C_6  and  C_23
                            x       y       z     vdW  Elec       q    Type
                         _______ _______ _______ _____ _____    ______ ____

>  <TORSDO>
F 5

$$$$
=
 OpenBabel11052422183D

 25 27  0  0  1  0  0  0  0  0999 V2000
  161.6920  206.5490  149.8680 C   0  0  0  0  0  0  0  0  0  0  0  0
  161.6140  207.8030  150.4420 C   0  0  0  0  0  0  0  0  0  0  0  0
  162.0340  206.6900  148.5670 N   0  0  0  0  0  0  0  0  0  0  0  0
  162.1770  207.9830  148.2960 N   0  0  0  0  0  0  0  0  0  0  0  0
  161.9510  210.0920  149.6560 C   0  0  0  0  0  0  0  0  0  0  0  0
  162.2400  210.8950  148.7320 O   0  0  0  0  0  0  0  0  0  0  0  0
  161.2910  208.2550  151.8350 C   0  0  0  0  0  3  0  0  0  0  0  0
  161.6400  210.5680  150.9740 N   0  0  0  0  0  0  0  0  0  0  0  0
  161.3280  209.7730  151.9680 C   0  0  0  0  0  0  0  0  0  0  0  0
  161.9230  208.6560  149.4310 C   0  0  0  0  0  0  0  0  0  0  0  0
  161.4570  205.2470  150.5140 C   0  0  0  0  0  0  0  0  0  0  0  0
  161.8290  205.0720  151.7050 O   0  0  0  0  0  0  0  0  0  0  0  0
  160.7860  204.1330  149.7750 C   0  0  2  0  0  3  0  0  0  0  0  0
  160.5900  201.6390  148.4350 C   0  0  0  0  0  3  0  0  0  0  0  0
  160.8180  202.8300  150.5850 C   0  0  0  0  0  2  0  0  0  0  0  0
  160.3430  201.6730  149.7480 C   0  0  0  0  0  3  0  0  0  0  0  0
  161.2570  202.7760  147.7710 C   0  0  0  0  0  3  0  0  0  0  0  0
  161.3900  203.9440  148.4080 C   0  0  0  0  0  3  0  0  0  0  0  0
  161.0460  210.3670  153.3000 C   0  0  0  0  0  2  0  0  0  0  0  0
  161.3170  209.3860  154.3390 N   0  0  0  0  0  2  0  0  0  0  0  0
  160.4160  209.1660  155.4260 C   0  0  0  0  0  0  0  0  0  0  0  0
  159.3480  209.8320  155.5100 O   0  0  0  0  0  0  0  0  0  0  0  0
  160.7390  208.1600  156.4470 C   0  0  0  0  0  0  0  0  0  0  0  0
  159.8520  207.0720  156.6850 N   0  0  0  0  0  2  0  0  0  0  0  0
  161.8280  208.2560  157.1360 N   0  0  0  0  0  1  0  0  0  0  0  0
  1  2  1  0  0  0  0
  1 11  1  0  0  0  0
  2  7  2  0  0  0  0
  3  1  2  0  0  0  0
  4  3  1  0  0  0  0
  4 10  2  0  0  0  0
  5  8  1  0  0  0  0
  6  5  2  0  0  0  0
  7  9  1  0  0  0  0
  8  9  2  0  0  0  0
  9 19  1  0  0  0  0
 10  5  1  0  0  0  0
 10  2  1  0  0  0  0
 11 12  2  0  0  0  0
 13 11  1  1  0  0  0
 13 15  1  0  0  0  0
 14 16  2  0  0  0  0
 16 15  1  0  0  0  0
 17 18  2  0  0  0  0
 17 14  1  0  0  0  0
 18 13  1  0  0  0  0
 19 20  1  0  0  0  0
 20 21  1  0  0  0  0
 21 22  2  0  0  0  0
 21 23  1  0  0  0  0
 23 24  2  0  0  0  0
 23 25  1  0  0  0  0
M  END
>  <MODEL>
3

>  <REMARK>
 VINA RESULT:      -7.8      3.146      6.693
  Name = 
  5 active torsions:
  status: ('A' for Active; 'I' for Inactive)
    1  A    between atoms: C_1  and  C_18
    2  A    between atoms: C_2  and  C_21
    3  A    between atoms: C_5  and  C_18
    4  A    between atoms: C_6  and  N_15
    5  A    between atoms: C_6  and  C_23
                            x       y       z     vdW  Elec       q    Type
                         _______ _______ _______ _____ _____    ______ ____

>  <TORSDO>
F 5

$$$$
=
 OpenBabel11052422183D

 25 27  0  0  1  0  0  0  0  0999 V2000
  161.5660  206.1530  149.8460 C   0  0  0  0  0  0  0  0  0  0  0  0
  161.3540  207.0640  150.8620 C   0  0  0  0  0  0  0  0  0  0  0  0
  161.5440  204.9070  150.3720 N   0  0  0  0  0  0  0  0  0  0  0  0
  161.3250  204.9950  151.6790 N   0  0  0  0  0  0  0  0  0  0  0  0
  160.9610  206.9150  153.2690 C   0  0  0  0  0  0  0  0  0  0  0  0
  160.8210  206.2220  154.3090 O   0  0  0  0  0  0  0  0  0  0  0  0
  161.2660  208.5620  150.8710 C   0  0  0  0  0  3  0  0  0  0  0  0
  160.8790  208.3470  153.3230 N   0  0  0  0  0  0  0  0  0  0  0  0
  161.0230  209.1130  152.2700 C   0  0  0  0  0  0  0  0  0  0  0  0
  161.2100  206.3000  151.9750 C   0  0  0  0  0  0  0  0  0  0  0  0
  161.7800  206.4320  148.4160 C   0  0  0  0  0  0  0  0  0  0  0  0
  162.4920  207.4160  148.0780 O   0  0  0  0  0  0  0  0  0  0  0  0
  161.1660  205.5650  147.3640 C   0  0  2  0  0  3  0  0  0  0  0  0
  160.8420  204.4310  144.7820 C   0  0  0  0  0  3  0  0  0  0  0  0
  162.1570  204.5030  146.8690 C   0  0  0  0  0  2  0  0  0  0  0  0
  161.6100  203.7850  145.6650 C   0  0  0  0  0  3  0  0  0  0  0  0
  160.4470  205.8330  145.0200 C   0  0  0  0  0  3  0  0  0  0  0  0
  160.6320  206.3900  146.2220 C   0  0  0  0  0  3  0  0  0  0  0  0
  160.8940  210.5850  152.4310 C   0  0  0  0  0  2  0  0  0  0  0  0
  159.8470  210.8810  153.3950 N   0  0  0  0  0  2  0  0  0  0  0  0
  158.7220  211.6980  153.0640 C   0  0  0  0  0  0  0  0  0  0  0  0
  158.6130  212.1910  151.9080 O   0  0  0  0  0  0  0  0  0  0  0  0
  157.6920  211.9630  154.0770 C   0  0  0  0  0  0  0  0  0  0  0  0
  156.7630  213.0270  153.8920 N   0  0  0  0  0  2  0  0  0  0  0  0
  157.6210  211.2350  155.1420 N   0  0  0  0  0  1  0  0  0  0  0  0
  1  3  2  0  0  0  0
  1  2  1  0  0  0  0
  2  7  2  0  0  0  0
  2 10  1  0  0  0  0
  3  4  1  0  0  0  0
  4 10  2  0  0  0  0
  5  8  1  0  0  0  0
  5  6  2  0  0  0  0
  7  9  1  0  0  0  0
  9 19  1  0  0  0  0
  9  8  2  0  0  0  0
 10  5  1  0  0  0  0
 11  1  1  0  0  0  0
 12 11  2  0  0  0  0
 13 11  1  1  0  0  0
 14 17  1  0  0  0  0
 14 16  2  0  0  0  0
 15 13  1  0  0  0  0
 16 15  1  0  0  0  0
 17 18  2  0  0  0  0
 18 13  1  0  0  0  0
 19 20  1  0  0  0  0
 21 20  1  0  0  0  0
 21 23  1  0  0  0  0
 22 21  2  0  0  0  0
 23 25  1  0  0  0  0
 24 23  2  0  0  0  0
M  END
>  <MODEL>
4

>  <REMARK>
 VINA RESULT:      -7.8      3.221      6.537
  Name = 
  5 active torsions:
  status: ('A' for Active; 'I' for Inactive)
    1  A    between atoms: C_1  and  C_18
    2  A    between atoms: C_2  and  C_21
    3  A    between atoms: C_5  and  C_18
    4  A    between atoms: C_6  and  N_15
    5  A    between atoms: C_6  and  C_23
                            x       y       z     vdW  Elec       q    Type
                         _______ _______ _______ _____ _____    ______ ____

>  <TORSDO>
F 5

$$$$
=
 OpenBabel11052422183D

 25 27  0  0  1  0  0  0  0  0999 V2000
  161.2830  207.2420  152.8130 C   0  0  0  0  0  0  0  0  0  0  0  0
  160.8310  208.4910  153.1920 C   0  0  0  0  0  0  0  0  0  0  0  0
  161.3060  206.4420  153.9030 N   0  0  0  0  0  2  0  0  0  0  0  0
  160.8860  207.1350  154.9560 N   0  0  0  0  0  0  0  0  0  0  0  0
  160.1000  209.5050  155.2910 C   0  0  0  0  0  0  0  0  0  0  0  0
  159.8750  209.4130  156.5260 O   0  0  0  0  0  0  0  0  0  0  0  0
  160.5950  209.7550  152.4190 C   0  0  0  0  0  2  0  0  0  0  0  0
  159.8690  210.7370  154.5920 N   0  0  0  0  0  0  0  0  0  0  0  0
  160.0920  210.8850  153.3100 C   0  0  0  0  0  0  0  0  0  0  0  0
  160.5990  208.3750  154.5250 C   0  0  0  0  0  0  0  0  0  0  0  0
  161.6800  206.7990  151.4660 C   0  0  0  0  0  0  0  0  0  0  0  0
  162.6120  207.4000  150.8670 O   0  0  0  0  0  0  0  0  0  0  0  0
  160.9940  205.6480  150.8020 C   0  0  2  0  0  3  0  0  0  0  0  0
  160.7830  203.2790  149.2520 C   0  0  0  0  0  3  0  0  0  0  0  0
  161.4550  204.3090  151.3930 C   0  0  0  0  0  2  0  0  0  0  0  0
  160.9310  203.1590  150.5760 C   0  0  0  0  0  3  0  0  0  0  0  0
  161.0500  204.5690  148.5860 C   0  0  0  0  0  3  0  0  0  0  0  0
  161.1900  205.6850  149.3090 C   0  0  0  0  0  3  0  0  0  0  0  0
  159.7950  212.1970  152.6760 C   0  0  0  0  0  2  0  0  0  0  0  0
  160.3120  212.2110  151.3180 N   0  0  0  0  0  2  0  0  0  0  0  0
  160.1310  213.3320  150.4490 C   0  0  0  0  0  0  0  0  0  0  0  0
  159.5040  214.3500  150.8510 O   0  0  0  0  0  0  0  0  0  0  0  0
  160.6770  213.2930  149.0860 C   0  0  0  0  0  0  0  0  0  0  0  0
  161.6740  212.3370  148.7420 N   0  0  0  0  0  1  0  0  0  0  0  0
  160.2570  214.1260  148.1910 N   0  0  0  0  0  2  0  0  0  0  0  0
  1  2  2  0  0  0  0
  1  3  1  0  0  0  0
  2 10  1  0  0  0  0
  3  4  1  0  0  0  0
  5  6  2  0  0  0  0
  7  2  1  0  0  0  0
  7  9  1  0  0  0  0
  8  5  1  0  0  0  0
  9  8  2  0  0  0  0
 10  4  2  0  0  0  0
 10  5  1  0  0  0  0
 11  1  1  0  0  0  0
 12 11  2  0  0  0  0
 13 15  1  0  0  0  0
 13 11  1  1  0  0  0
 14 16  2  0  0  0  0
 16 15  1  0  0  0  0
 17 14  1  0  0  0  0
 17 18  2  0  0  0  0
 18 13  1  0  0  0  0
 19  9  1  0  0  0  0
 20 19  1  0  0  0  0
 21 22  2  0  0  0  0
 21 20  1  0  0  0  0
 23 21  1  0  0  0  0
 24 23  1  0  0  0  0
 25 23  2  0  0  0  0
M  END
>  <MODEL>
5

>  <REMARK>
 VINA RESULT:      -7.7      3.843      7.240
  Name = 
  5 active torsions:
  status: ('A' for Active; 'I' for Inactive)
    1  A    between atoms: C_1  and  C_18
    2  A    between atoms: C_2  and  C_21
    3  A    between atoms: C_5  and  C_18
    4  A    between atoms: C_6  and  N_15
    5  A    between atoms: C_6  and  C_23
                            x       y       z     vdW  Elec       q    Type
                         _______ _______ _______ _____ _____    ______ ____

>  <TORSDO>
F 5

$$$$
=
 OpenBabel11052422183D

 25 27  0  0  1  0  0  0  0  0999 V2000
  161.0900  205.1060  150.7020 C   0  0  0  0  0  0  0  0  0  0  0  0
  161.0740  204.0180  149.8510 C   0  0  0  0  0  0  0  0  0  0  0  0
  160.9500  204.6630  151.9720 N   0  0  0  0  0  2  0  0  0  0  0  0
  160.8470  203.3390  151.9580 N   0  0  0  0  0  0  0  0  0  0  0  0
  160.8650  201.6000  150.1350 C   0  0  0  0  0  0  0  0  0  0  0  0
  160.7300  200.5980  150.8840 O   0  0  0  0  0  0  0  0  0  0  0  0
  161.1980  203.9010  148.3610 C   0  0  0  0  0  2  0  0  0  0  0  0
  160.9710  201.4450  148.7120 N   0  0  0  0  0  0  0  0  0  0  0  0
  161.1070  202.4550  147.8890 C   0  0  0  0  0  0  0  0  0  0  0  0
  160.9220  202.9490  150.6740 C   0  0  0  0  0  0  0  0  0  0  0  0
  161.2370  206.5260  150.3440 C   0  0  0  0  0  0  0  0  0  0  0  0
  160.8790  206.9160  149.2000 O   0  0  0  0  0  0  0  0  0  0  0  0
  161.8040  207.5100  151.3180 C   0  0  2  0  0  3  0  0  0  0  0  0
  161.9680  209.9430  152.7710 C   0  0  0  0  0  3  0  0  0  0  0  0
  160.8310  207.7710  152.4740 C   0  0  0  0  0  2  0  0  0  0  0  0
  161.3110  208.9170  153.3230 C   0  0  0  0  0  3  0  0  0  0  0  0
  162.3080  209.9230  151.3350 C   0  0  0  0  0  3  0  0  0  0  0  0
  162.1970  208.7920  150.6310 C   0  0  0  0  0  3  0  0  0  0  0  0
  161.2330  202.1830  146.4340 C   0  0  0  0  0  2  0  0  0  0  0  0
  160.7500  203.3280  145.6800 N   0  0  0  0  0  2  0  0  0  0  0  0
  161.6370  204.3200  145.1560 C   0  0  0  0  0  0  0  0  0  0  0  0
  162.8810  204.2200  145.3440 O   0  0  0  0  0  0  0  0  0  0  0  0
  161.0950  205.4560  144.4000 C   0  0  0  0  0  0  0  0  0  0  0  0
  161.5800  205.7420  143.0920 N   0  0  0  0  0  2  0  0  0  0  0  0
  160.1750  206.2040  144.9150 N   0  0  0  0  0  1  0  0  0  0  0  0
  1  3  1  0  0  0  0
  2 10  1  0  0  0  0
  2  1  2  0  0  0  0
  4  3  1  0  0  0  0
  5 10  1  0  0  0  0
  5  6  2  0  0  0  0
  7  2  1  0  0  0  0
  8  5  1  0  0  0  0
  9  7  1  0  0  0  0
  9  8  2  0  0  0  0
 10  4  2  0  0  0  0
 11  1  1  0  0  0  0
 12 11  2  0  0  0  0
 13 11  1  6  0  0  0
 13 15  1  0  0  0  0
 14 16  2  0  0  0  0
 15 16  1  0  0  0  0
 17 14  1  0  0  0  0
 18 13  1  0  0  0  0
 18 17  2  0  0  0  0
 19  9  1  0  0  0  0
 20 19  1  0  0  0  0
 21 22  2  0  0  0  0
 21 20  1  0  0  0  0
 23 25  1  0  0  0  0
 23 21  1  0  0  0  0
 24 23  2  0  0  0  0
M  END
>  <MODEL>
6

>  <REMARK>
 VINA RESULT:      -7.7      2.388      5.265
  Name = 
  5 active torsions:
  status: ('A' for Active; 'I' for Inactive)
    1  A    between atoms: C_1  and  C_18
    2  A    between atoms: C_2  and  C_21
    3  A    between atoms: C_5  and  C_18
    4  A    between atoms: C_6  and  N_15
    5  A    between atoms: C_6  and  C_23
                            x       y       z     vdW  Elec       q    Type
                         _______ _______ _______ _____ _____    ______ ____

>  <TORSDO>
F 5

$$$$
=
 OpenBabel11052422183D

 25 27  0  0  1  0  0  0  0  0999 V2000
  161.3350  207.3310  152.3890 C   0  0  0  0  0  0  0  0  0  0  0  0
  161.2860  206.3050  151.4650 C   0  0  0  0  0  0  0  0  0  0  0  0
  161.2870  206.7970  153.6310 N   0  0  0  0  0  2  0  0  0  0  0  0
  161.2090  205.4740  153.5280 N   0  0  0  0  0  0  0  0  0  0  0  0
  161.1430  203.8690  151.5870 C   0  0  0  0  0  0  0  0  0  0  0  0
  161.0760  202.8140  152.2700 O   0  0  0  0  0  0  0  0  0  0  0  0
  161.3150  206.2970  149.9650 C   0  0  0  0  0  2  0  0  0  0  0  0
  161.1600  203.8170  150.1530 N   0  0  0  0  0  0  0  0  0  0  0  0
  161.2230  204.8860  149.3980 C   0  0  0  0  0  0  0  0  0  0  0  0
  161.2080  205.1780  152.2180 C   0  0  0  0  0  0  0  0  0  0  0  0
  161.4310  208.7760  152.1250 C   0  0  0  0  0  0  0  0  0  0  0  0
  162.3300  209.2060  151.3540 O   0  0  0  0  0  0  0  0  0  0  0  0
  160.4760  209.7380  152.7600 C   0  0  2  0  0  3  0  0  0  0  0  0
  159.6680  212.0910  154.1250 C   0  0  0  0  0  3  0  0  0  0  0  0
  160.4650  211.0810  152.0180 C   0  0  0  0  0  2  0  0  0  0  0  0
  159.6760  212.1050  152.7880 C   0  0  0  0  0  3  0  0  0  0  0  0
  160.3620  211.0180  154.8640 C   0  0  0  0  0  3  0  0  0  0  0  0
  160.7820  209.9220  154.2240 C   0  0  0  0  0  3  0  0  0  0  0  0
  161.2600  204.7200  147.9220 C   0  0  0  0  0  2  0  0  0  0  0  0
  160.9790  203.3360  147.5790 N   0  0  0  0  0  2  0  0  0  0  0  0
  161.0430  202.8610  146.2320 C   0  0  0  0  0  0  0  0  0  0  0  0
  161.3480  203.6490  145.2950 O   0  0  0  0  0  0  0  0  0  0  0  0
  160.7510  201.4510  145.9420 C   0  0  0  0  0  0  0  0  0  0  0  0
  161.2060  200.4300  146.8240 N   0  0  0  0  0  1  0  0  0  0  0  0
  160.0810  201.1260  144.8860 N   0  0  0  0  0  2  0  0  0  0  0  0
  1  3  1  0  0  0  0
  2 10  1  0  0  0  0
  2  1  2  0  0  0  0
  4  3  1  0  0  0  0
  5 10  1  0  0  0  0
  5  6  2  0  0  0  0
  7  2  1  0  0  0  0
  8  5  1  0  0  0  0
  9  7  1  0  0  0  0
  9  8  2  0  0  0  0
 10  4  2  0  0  0  0
 11  1  1  0  0  0  0
 12 11  2  0  0  0  0
 13 11  1  6  0  0  0
 13 18  1  0  0  0  0
 14 17  1  0  0  0  0
 15 13  1  0  0  0  0
 15 16  1  0  0  0  0
 16 14  2  0  0  0  0
 18 17  2  0  0  0  0
 19  9  1  0  0  0  0
 20 19  1  0  0  0  0
 21 20  1  0  0  0  0
 22 21  2  0  0  0  0
 23 21  1  0  0  0  0
 23 24  1  0  0  0  0
 25 23  2  0  0  0  0
M  END
>  <MODEL>
7

>  <REMARK>
 VINA RESULT:      -7.6      3.042      5.280
  Name = 
  5 active torsions:
  status: ('A' for Active; 'I' for Inactive)
    1  A    between atoms: C_1  and  C_18
    2  A    between atoms: C_2  and  C_21
    3  A    between atoms: C_5  and  C_18
    4  A    between atoms: C_6  and  N_15
    5  A    between atoms: C_6  and  C_23
                            x       y       z     vdW  Elec       q    Type
                         _______ _______ _______ _____ _____    ______ ____

>  <TORSDO>
F 5

$$$$
=
 OpenBabel11052422183D

 25 27  0  0  1  0  0  0  0  0999 V2000
  161.3230  206.0350  150.8480 C   0  0  0  0  0  0  0  0  0  0  0  0
  161.3220  207.1270  151.6940 C   0  0  0  0  0  0  0  0  0  0  0  0
  161.5940  206.4620  149.5930 N   0  0  0  0  0  0  0  0  0  0  0  0
  161.7640  207.7790  149.6130 N   0  0  0  0  0  0  0  0  0  0  0  0
  161.6900  209.5270  151.4260 C   0  0  0  0  0  0  0  0  0  0  0  0
  161.9510  210.5140  150.6910 O   0  0  0  0  0  0  0  0  0  0  0  0
  161.0970  207.2560  153.1720 C   0  0  0  0  0  3  0  0  0  0  0  0
  161.4720  209.6970  152.8350 N   0  0  0  0  0  0  0  0  0  0  0  0
  161.1920  208.7030  153.6410 C   0  0  0  0  0  0  0  0  0  0  0  0
  161.6000  208.1810  150.8850 C   0  0  0  0  0  0  0  0  0  0  0  0
  161.0830  204.6250  151.1960 C   0  0  0  0  0  0  0  0  0  0  0  0
  161.2880  204.2360  152.3780 O   0  0  0  0  0  0  0  0  0  0  0  0
  160.6000  203.6510  150.1690 C   0  0  2  0  0  3  0  0  0  0  0  0
  160.8150  201.6220  148.1960 C   0  0  0  0  0  3  0  0  0  0  0  0
  160.8910  202.2060  150.5930 C   0  0  0  0  0  2  0  0  0  0  0  0
  160.6050  201.2530  149.4640 C   0  0  0  0  0  3  0  0  0  0  0  0
  161.2470  202.9980  147.8810 C   0  0  0  0  0  3  0  0  0  0  0  0
  161.1870  203.9530  148.8140 C   0  0  0  0  0  3  0  0  0  0  0  0
  161.0100  208.9830  155.0890 C   0  0  0  0  0  2  0  0  0  0  0  0
  159.6910  209.5520  155.3140 N   0  0  0  0  0  2  0  0  0  0  0  0
  159.5020  210.9420  155.5860 C   0  0  0  0  0  0  0  0  0  0  0  0
  160.4940  211.7190  155.6420 O   0  0  0  0  0  0  0  0  0  0  0  0
  158.1460  211.4640  155.8030 C   0  0  0  0  0  0  0  0  0  0  0  0
  157.2060  211.4810  154.7340 N   0  0  0  0  0  2  0  0  0  0  0  0
  157.7970  211.9130  156.9640 N   0  0  0  0  0  1  0  0  0  0  0  0
  1 11  1  0  0  0  0
  1  2  1  0  0  0  0
  2  7  2  0  0  0  0
  3  4  1  0  0  0  0
  3  1  2  0  0  0  0
  4 10  2  0  0  0  0
  5  8  1  0  0  0  0
  6  5  2  0  0  0  0
  7  9  1  0  0  0  0
  8  9  2  0  0  0  0
  9 19  1  0  0  0  0
 10  5  1  0  0  0  0
 10  2  1  0  0  0  0
 11 12  2  0  0  0  0
 13 15  1  0  0  0  0
 13 11  1  1  0  0  0
 14 16  2  0  0  0  0
 16 15  1  0  0  0  0
 17 14  1  0  0  0  0
 17 18  2  0  0  0  0
 18 13  1  0  0  0  0
 19 20  1  0  0  0  0
 20 21  1  0  0  0  0
 21 22  2  0  0  0  0
 21 23  1  0  0  0  0
 23 25  1  0  0  0  0
 24 23  2  0  0  0  0
M  END
>  <MODEL>
8

>  <REMARK>
 VINA RESULT:      -7.6      3.438      7.304
  Name = 
  5 active torsions:
  status: ('A' for Active; 'I' for Inactive)
    1  A    between atoms: C_1  and  C_18
    2  A    between atoms: C_2  and  C_21
    3  A    between atoms: C_5  and  C_18
    4  A    between atoms: C_6  and  N_15
    5  A    between atoms: C_6  and  C_23
                            x       y       z     vdW  Elec       q    Type
                         _______ _______ _______ _____ _____    ______ ____

>  <TORSDO>
F 5

$$$$
=
 OpenBabel11052422183D

 25 27  0  0  1  0  0  0  0  0999 V2000
  161.0090  208.3690  153.5630 C   0  0  0  0  0  0  0  0  0  0  0  0
  161.2020  207.7810  152.3280 C   0  0  0  0  0  0  0  0  0  0  0  0
  160.9330  207.3960  154.4990 N   0  0  0  0  0  2  0  0  0  0  0  0
  161.0710  206.2150  153.9040 N   0  0  0  0  0  0  0  0  0  0  0  0
  161.4300  205.4870  151.5190 C   0  0  0  0  0  0  0  0  0  0  0  0
  161.4670  204.2500  151.7460 O   0  0  0  0  0  0  0  0  0  0  0  0
  161.3660  208.3560  150.9520 C   0  0  0  0  0  2  0  0  0  0  0  0
  161.5820  205.9940  150.1860 N   0  0  0  0  0  0  0  0  0  0  0  0
  161.5460  207.2720  149.8960 C   0  0  0  0  0  0  0  0  0  0  0  0
  161.2340  206.4490  152.5910 C   0  0  0  0  0  0  0  0  0  0  0  0
  160.9020  209.8060  153.8690 C   0  0  0  0  0  0  0  0  0  0  0  0
  161.8330  210.3750  154.5000 O   0  0  0  0  0  0  0  0  0  0  0  0
  159.7050  210.5950  153.4420 C   0  0  2  0  0  3  0  0  0  0  0  0
  158.0780  212.9000  153.1290 C   0  0  0  0  0  3  0  0  0  0  0  0
  160.0820  211.6560  152.4000 C   0  0  0  0  0  2  0  0  0  0  0  0
  158.9250  212.5830  152.1430 C   0  0  0  0  0  3  0  0  0  0  0  0
  158.2160  212.2760  154.4600 C   0  0  0  0  0  3  0  0  0  0  0  0
  159.0100  211.2140  154.6270 C   0  0  0  0  0  3  0  0  0  0  0  0
  161.7400  207.6940  148.4850 C   0  0  0  0  0  2  0  0  0  0  0  0
  162.2980  206.5920  147.7180 N   0  0  0  0  0  2  0  0  0  0  0  0
  161.5580  205.9340  146.6870 C   0  0  0  0  0  0  0  0  0  0  0  0
  160.3810  206.3020  146.4180 O   0  0  0  0  0  0  0  0  0  0  0  0
  162.1720  204.8280  145.9420 C   0  0  0  0  0  0  0  0  0  0  0  0
  161.3540  203.8830  145.2600 N   0  0  0  0  0  2  0  0  0  0  0  0
  163.4580  204.7030  145.9010 N   0  0  0  0  0  1  0  0  0  0  0  0
  1 11  1  0  0  0  0
  1  3  1  0  0  0  0
  2 10  1  0  0  0  0
  2  1  2  0  0  0  0
  4  3  1  0  0  0  0
  5  6  2  0  0  0  0
  5 10  1  0  0  0  0
  7  2  1  0  0  0  0
  8  5  1  0  0  0  0
  9  8  2  0  0  0  0
  9  7  1  0  0  0  0
 10  4  2  0  0  0  0
 11 12  2  0  0  0  0
 13 11  1  1  0  0  0
 13 18  1  0  0  0  0
 14 17  1  0  0  0  0
 15 13  1  0  0  0  0
 16 15  1  0  0  0  0
 16 14  2  0  0  0  0
 17 18  2  0  0  0  0
 19  9  1  0  0  0  0
 20 19  1  0  0  0  0
 21 20  1  0  0  0  0
 22 21  2  0  0  0  0
 23 21  1  0  0  0  0
 24 23  2  0  0  0  0
 25 23  1  0  0  0  0
M  END
>  <MODEL>
9

>  <REMARK>
 VINA RESULT:      -7.6      3.637      6.179
  Name = 
  5 active torsions:
  status: ('A' for Active; 'I' for Inactive)
    1  A    between atoms: C_1  and  C_18
    2  A    between atoms: C_2  and  C_21
    3  A    between atoms: C_5  and  C_18
    4  A    between atoms: C_6  and  N_15
    5  A    between atoms: C_6  and  C_23
                            x       y       z     vdW  Elec       q    Type
                         _______ _______ _______ _____ _____    ______ ____

>  <TORSDO>
F 5

$$$$
