=
 OpenBabel11052422443D

 31 34  0  0  1  0  0  0  0  0999 V2000
  161.2850  206.7100  150.0600 C   0  0  0  0  0  0  0  0  0  0  0  0
  161.2550  205.7350  149.0180 C   0  0  0  0  0  0  0  0  0  0  0  0
  161.2810  205.1270  146.6420 C   0  0  0  0  0  3  0  0  0  0  0  0
  161.6710  208.0520  149.9300 C   0  0  0  0  0  0  0  0  0  0  0  0
  162.3450  210.1350  149.0500 C   0  0  2  0  0  3  0  0  0  0  0  0
  161.2800  206.0560  147.6860 C   0  0  0  0  0  3  0  0  0  0  0  0
  161.3190  207.1490  152.5210 C   0  0  0  0  0  0  0  0  0  0  0  0
  161.0290  203.9210  150.5780 C   0  0  0  0  0  3  0  0  0  0  0  0
  161.2490  203.7980  146.9270 C   0  0  0  0  0  3  0  0  0  0  0  0
  161.3970  208.5120  152.2410 C   0  0  0  0  0  3  0  0  0  0  0  0
  161.1540  206.2750  151.3630 C   0  0  0  0  0  0  0  0  0  0  0  0
  161.9600  208.8050  148.8080 O   0  0  0  0  0  0  0  0  0  0  0  0
  161.2140  201.9910  148.4030 O   0  0  0  0  0  1  0  0  0  0  0  0
  161.6070  208.9200  150.9380 C   0  0  0  0  0  0  0  0  0  0  0  0
  162.0160  210.1050  150.4580 O   0  0  0  0  0  0  0  0  0  0  0  0
  160.9780  204.8780  151.5710 C   0  0  0  0  0  3  0  0  0  0  0  0
  161.1180  204.3280  149.2680 C   0  0  0  0  0  0  0  0  0  0  0  0
  161.2010  203.3630  148.2430 C   0  0  0  0  0  0  0  0  0  0  0  0
  161.6820  211.2300  148.1820 C   0  0  0  0  0  3  0  0  0  0  0  0
  162.3380  212.3740  147.8700 C   0  0  0  0  0  2  0  0  0  0  0  0
  160.9620  206.6750  153.8210 O   0  0  0  0  0  0  0  0  0  0  0  0
  159.3800  207.0210  155.8010 C   0  0  0  0  0  1  0  0  0  0  0  0
  160.6400  207.3830  155.0610 C   0  0  1  0  0  3  0  0  0  0  0  0
  161.1680  208.1390  157.2610 O   0  0  0  0  0  1  0  0  0  0  0  0
  161.6590  208.1690  155.9370 C   0  0  2  0  0  3  0  0  0  0  0  0
  162.7180  210.6200  156.0350 C   0  0  0  0  0  1  0  0  0  0  0  0
  161.7080  209.6440  155.4850 C   0  0  2  0  0  3  0  0  0  0  0  0
  160.4370  210.2240  155.1300 O   0  0  0  0  0  0  0  0  0  0  0  0
  160.2440  211.4850  154.4960 C   0  0  0  0  0  0  0  0  0  0  0  0
  160.6070  211.7360  153.2940 O   0  0  0  0  0  0  0  0  0  0  0  0
  159.6230  212.5090  155.2860 N   0  0  0  0  0  1  0  0  0  0  0  0
  1 11  1  0  0  0  0
  2 17  1  0  0  0  0
  2  1  1  0  0  0  0
  3  9  2  0  0  0  0
  3  6  1  0  0  0  0
  4  1  2  0  0  0  0
  4 14  1  0  0  0  0
  5 19  1  6  0  0  0
  5 15  1  0  0  0  0
  6  2  2  0  0  0  0
  7 21  1  0  0  0  0
  8 16  2  0  0  0  0
  9 18  1  0  0  0  0
 10  7  1  0  0  0  0
 11 16  1  0  0  0  0
 11  7  2  0  0  0  0
 12  5  1  0  0  0  0
 12  4  1  0  0  0  0
 14 10  2  0  0  0  0
 15 14  1  0  0  0  0
 17  8  1  0  0  0  0
 18 13  1  0  0  0  0
 18 17  2  0  0  0  0
 20 19  2  0  0  0  0
 21 23  1  0  0  0  0
 23 22  1  1  0  0  0
 23 25  1  0  0  0  0
 25 24  1  1  0  0  0
 27 25  1  0  0  0  0
 27 26  1  1  0  0  0
 28 27  1  0  0  0  0
 29 28  1  0  0  0  0
 29 31  1  0  0  0  0
 30 29  2  0  0  0  0
M  END
>  <MODEL>
1

>  <REMARK>
 VINA RESULT:      -9.3      0.000      0.000
  Name = 
  7 active torsions:
  status: ('A' for Active; 'I' for Inactive)
    1  A    between atoms: C_1  and  O_24
    2  A    between atoms: C_2  and  C_13
    3  A    between atoms: C_9  and  C_22
    4  A    between atoms: C_9  and  O_23
    5  A    between atoms: C_15  and  O_23
    6  A    between atoms: C_19  and  C_22
    7  A    between atoms: C_19  and  O_24
                            x       y       z     vdW  Elec       q    Type
                         _______ _______ _______ _____ _____    ______ ____

>  <TORSDO>
F 7

$$$$
=
 OpenBabel11052422443D

 31 34  0  0  1  0  0  0  0  0999 V2000
  161.5190  207.1540  150.5600 C   0  0  0  0  0  0  0  0  0  0  0  0
  161.3150  205.7750  150.2550 C   0  0  0  0  0  0  0  0  0  0  0  0
  160.8730  203.4620  150.9440 C   0  0  0  0  0  3  0  0  0  0  0  0
  161.2130  207.7890  151.7730 C   0  0  0  0  0  0  0  0  0  0  0  0
  160.5590  208.2140  154.0000 C   0  0  2  0  0  3  0  0  0  0  0  0
  161.1040  204.8140  151.2100 C   0  0  0  0  0  3  0  0  0  0  0  0
  161.9020  209.4620  149.6820 C   0  0  0  0  0  0  0  0  0  0  0  0
  161.6540  206.1380  147.9030 C   0  0  0  0  0  3  0  0  0  0  0  0
  160.8550  203.0250  149.6560 C   0  0  0  0  0  3  0  0  0  0  0  0
  161.8790  209.9290  150.9950 C   0  0  0  0  0  3  0  0  0  0  0  0
  161.8210  208.0130  149.5240 C   0  0  0  0  0  0  0  0  0  0  0  0
  160.8060  207.2700  152.9880 O   0  0  0  0  0  0  0  0  0  0  0  0
  160.9930  203.3540  147.3500 O   0  0  0  0  0  1  0  0  0  0  0  0
  161.4960  209.0700  152.0060 C   0  0  0  0  0  0  0  0  0  0  0  0
  161.1020  209.3320  153.2630 O   0  0  0  0  0  0  0  0  0  0  0  0
  161.9280  207.4520  148.2210 C   0  0  0  0  0  3  0  0  0  0  0  0
  161.3890  205.2510  148.9200 C   0  0  0  0  0  0  0  0  0  0  0  0
  161.0780  203.9100  148.6120 C   0  0  0  0  0  0  0  0  0  0  0  0
  161.1540  207.9200  155.3970 C   0  0  0  0  0  3  0  0  0  0  0  0
  160.4020  207.3660  156.3800 C   0  0  0  0  0  2  0  0  0  0  0  0
  162.4240  210.2600  148.6180 O   0  0  0  0  0  0  0  0  0  0  0  0
  163.2420  212.5790  147.9100 C   0  0  0  0  0  1  0  0  0  0  0  0
  162.1120  211.6220  148.1780 C   0  0  1  0  0  3  0  0  0  0  0  0
  161.0720  212.5900  146.2620 O   0  0  0  0  0  1  0  0  0  0  0  0
  160.7640  212.0720  147.5400 C   0  0  2  0  0  3  0  0  0  0  0  0
  160.3240  213.3020  149.8700 C   0  0  0  0  0  1  0  0  0  0  0  0
  160.1470  213.2130  148.3750 C   0  0  2  0  0  3  0  0  0  0  0  0
  158.8960  213.7330  147.8830 O   0  0  0  0  0  0  0  0  0  0  0  0
  157.6570  213.0320  147.8460 C   0  0  0  0  0  0  0  0  0  0  0  0
  156.9100  212.8610  148.8710 O   0  0  0  0  0  0  0  0  0  0  0  0
  157.2690  212.4860  146.5760 N   0  0  0  0  0  1  0  0  0  0  0  0
  1  4  1  0  0  0  0
  2  1  1  0  0  0  0
  2  6  2  0  0  0  0
  3  6  1  0  0  0  0
  4 14  2  0  0  0  0
  4 12  1  0  0  0  0
  5 19  1  1  0  0  0
  7 10  2  0  0  0  0
  8 16  2  0  0  0  0
  8 17  1  0  0  0  0
  9  3  2  0  0  0  0
 10 14  1  0  0  0  0
 11  7  1  0  0  0  0
 11  1  2  0  0  0  0
 12  5  1  0  0  0  0
 13 18  1  0  0  0  0
 14 15  1  0  0  0  0
 15  5  1  0  0  0  0
 16 11  1  0  0  0  0
 17  2  1  0  0  0  0
 18 17  2  0  0  0  0
 18  9  1  0  0  0  0
 19 20  2  0  0  0  0
 21  7  1  0  0  0  0
 23 22  1  6  0  0  0
 23 21  1  0  0  0  0
 25 24  1  6  0  0  0
 25 23  1  0  0  0  0
 25 27  1  0  0  0  0
 27 26  1  1  0  0  0
 28 27  1  0  0  0  0
 29 28  1  0  0  0  0
 29 30  2  0  0  0  0
 31 29  1  0  0  0  0
M  END
>  <MODEL>
2

>  <REMARK>
 VINA RESULT:      -9.1      2.725      6.051
  Name = 
  7 active torsions:
  status: ('A' for Active; 'I' for Inactive)
    1  A    between atoms: C_1  and  O_24
    2  A    between atoms: C_2  and  C_13
    3  A    between atoms: C_9  and  C_22
    4  A    between atoms: C_9  and  O_23
    5  A    between atoms: C_15  and  O_23
    6  A    between atoms: C_19  and  C_22
    7  A    between atoms: C_19  and  O_24
                            x       y       z     vdW  Elec       q    Type
                         _______ _______ _______ _____ _____    ______ ____

>  <TORSDO>
F 7

$$$$
=
 OpenBabel11052422443D

 31 34  0  0  1  0  0  0  0  0999 V2000
  161.5230  207.3180  150.5710 C   0  0  0  0  0  0  0  0  0  0  0  0
  161.3520  205.9680  150.1410 C   0  0  0  0  0  0  0  0  0  0  0  0
  160.9800  203.5910  150.6170 C   0  0  0  0  0  3  0  0  0  0  0  0
  161.2160  207.8300  151.8410 C   0  0  0  0  0  0  0  0  0  0  0  0
  160.5780  208.0290  154.1040 C   0  0  2  0  0  3  0  0  0  0  0  0
  161.1790  204.9180  151.0050 C   0  0  0  0  0  3  0  0  0  0  0  0
  161.8340  209.7080  149.9070 C   0  0  0  0  0  0  0  0  0  0  0  0
  161.6510  206.5560  147.8290 C   0  0  0  0  0  3  0  0  0  0  0  0
  160.9580  203.2740  149.2950 C   0  0  0  0  0  3  0  0  0  0  0  0
  161.8150  210.0500  151.2570 C   0  0  0  0  0  3  0  0  0  0  0  0
  161.7890  208.2770  149.6160 C   0  0  0  0  0  0  0  0  0  0  0  0
  160.8380  207.1900  153.0060 O   0  0  0  0  0  0  0  0  0  0  0  0
  161.0580  203.8190  147.0270 O   0  0  0  0  0  1  0  0  0  0  0  0
  161.4680  209.0910  152.1880 C   0  0  0  0  0  0  0  0  0  0  0  0
  161.0820  209.2250  153.4680 O   0  0  0  0  0  0  0  0  0  0  0  0
  161.8950  207.8430  148.2650 C   0  0  0  0  0  3  0  0  0  0  0  0
  161.4240  205.5720  148.7620 C   0  0  0  0  0  0  0  0  0  0  0  0
  161.1440  204.2580  148.3350 C   0  0  0  0  0  0  0  0  0  0  0  0
  161.1990  207.6240  155.4610 C   0  0  0  0  0  3  0  0  0  0  0  0
  161.3700  208.5290  156.4550 C   0  0  0  0  0  2  0  0  0  0  0  0
  162.3210  210.6150  148.9160 O   0  0  0  0  0  0  0  0  0  0  0  0
  160.9940  212.7550  149.3710 C   0  0  0  0  0  1  0  0  0  0  0  0
  161.8100  211.9010  148.4370 C   0  0  1  0  0  3  0  0  0  0  0  0
  162.8720  213.9120  147.7190 O   0  0  0  0  0  1  0  0  0  0  0  0
  162.3690  212.6910  147.2170 C   0  0  2  0  0  3  0  0  0  0  0  0
  160.0070  212.1380  146.1000 C   0  0  0  0  0  1  0  0  0  0  0  0
  161.2230  213.0190  146.2380 C   0  0  2  0  0  3  0  0  0  0  0  0
  161.6160  213.7000  145.0300 O   0  0  0  0  0  0  0  0  0  0  0  0
  162.5400  213.2140  144.0610 C   0  0  0  0  0  0  0  0  0  0  0  0
  163.7860  213.5080  144.0620 O   0  0  0  0  0  0  0  0  0  0  0  0
  162.0030  212.3670  143.0350 N   0  0  0  0  0  1  0  0  0  0  0  0
  1  4  1  0  0  0  0
  2  1  1  0  0  0  0
  2  6  2  0  0  0  0
  3  6  1  0  0  0  0
  4 14  2  0  0  0  0
  4 12  1  0  0  0  0
  5 19  1  1  0  0  0
  7 10  2  0  0  0  0
  8 16  2  0  0  0  0
  8 17  1  0  0  0  0
  9  3  2  0  0  0  0
 10 14  1  0  0  0  0
 11  7  1  0  0  0  0
 11  1  2  0  0  0  0
 12  5  1  0  0  0  0
 13 18  1  0  0  0  0
 14 15  1  0  0  0  0
 15  5  1  0  0  0  0
 16 11  1  0  0  0  0
 17  2  1  0  0  0  0
 18 17  2  0  0  0  0
 18  9  1  0  0  0  0
 19 20  2  0  0  0  0
 21  7  1  0  0  0  0
 23 21  1  0  0  0  0
 23 22  1  1  0  0  0
 25 24  1  1  0  0  0
 25 23  1  0  0  0  0
 27 26  1  6  0  0  0
 27 25  1  0  0  0  0
 28 27  1  0  0  0  0
 29 30  2  0  0  0  0
 29 28  1  0  0  0  0
 31 29  1  0  0  0  0
M  END
>  <MODEL>
3

>  <REMARK>
 VINA RESULT:      -8.5      3.233      6.800
  Name = 
  7 active torsions:
  status: ('A' for Active; 'I' for Inactive)
    1  A    between atoms: C_1  and  O_24
    2  A    between atoms: C_2  and  C_13
    3  A    between atoms: C_9  and  C_22
    4  A    between atoms: C_9  and  O_23
    5  A    between atoms: C_15  and  O_23
    6  A    between atoms: C_19  and  C_22
    7  A    between atoms: C_19  and  O_24
                            x       y       z     vdW  Elec       q    Type
                         _______ _______ _______ _____ _____    ______ ____

>  <TORSDO>
F 7

$$$$
=
 OpenBabel11052422443D

 31 34  0  0  1  0  0  0  0  0999 V2000
  161.3100  207.4420  151.2940 C   0  0  0  0  0  0  0  0  0  0  0  0
  161.2030  206.1700  150.6550 C   0  0  0  0  0  0  0  0  0  0  0  0
  161.0380  204.7850  148.6370 C   0  0  0  0  0  3  0  0  0  0  0  0
  161.6720  208.6500  150.6810 C   0  0  0  0  0  0  0  0  0  0  0  0
  162.2530  210.2930  149.0890 C   0  0  2  0  0  3  0  0  0  0  0  0
  161.1150  206.0150  149.2950 C   0  0  0  0  0  3  0  0  0  0  0  0
  161.5450  208.6960  153.4430 C   0  0  0  0  0  0  0  0  0  0  0  0
  161.1240  205.0040  152.7550 C   0  0  0  0  0  3  0  0  0  0  0  0
  161.0410  203.6350  149.3610 C   0  0  0  0  0  3  0  0  0  0  0  0
  161.5870  209.8790  152.7090 C   0  0  0  0  0  3  0  0  0  0  0  0
  161.2920  207.4810  152.6730 C   0  0  0  0  0  0  0  0  0  0  0  0
  161.8610  208.9680  149.3490 O   0  0  0  0  0  0  0  0  0  0  0  0
  161.1450  202.4430  151.3650 O   0  0  0  0  0  1  0  0  0  0  0  0
  161.6850  209.8120  151.3320 C   0  0  0  0  0  0  0  0  0  0  0  0
  162.0420  210.7530  150.4430 O   0  0  0  0  0  0  0  0  0  0  0  0
  161.1460  206.2440  153.3600 C   0  0  0  0  0  3  0  0  0  0  0  0
  161.1000  204.9360  151.3820 C   0  0  0  0  0  0  0  0  0  0  0  0
  161.1070  203.6780  150.7460 C   0  0  0  0  0  0  0  0  0  0  0  0
  161.5100  211.0380  147.9560 C   0  0  0  0  0  3  0  0  0  0  0  0
  161.5780  212.3860  147.8360 C   0  0  0  0  0  2  0  0  0  0  0  0
  161.3020  208.7020  154.8510 O   0  0  0  0  0  0  0  0  0  0  0  0
  162.6570  210.4440  156.1460 C   0  0  0  0  0  1  0  0  0  0  0  0
  161.3400  209.7800  155.8420 C   0  0  1  0  0  3  0  0  0  0  0  0
  158.9650  209.9860  155.7720 O   0  0  0  0  0  1  0  0  0  0  0  0
  160.1120  210.6150  156.3080 C   0  0  2  0  0  3  0  0  0  0  0  0
  160.0060  213.2720  156.5600 C   0  0  0  0  0  1  0  0  0  0  0  0
  160.1910  212.0370  155.7140 C   0  0  2  0  0  3  0  0  0  0  0  0
  159.7410  212.1640  154.3510 O   0  0  0  0  0  0  0  0  0  0  0  0
  158.5710  212.8530  153.9190 C   0  0  0  0  0  0  0  0  0  0  0  0
  157.3820  212.4610  154.1810 O   0  0  0  0  0  0  0  0  0  0  0  0
  158.7800  214.0370  153.1340 N   0  0  0  0  0  1  0  0  0  0  0  0
  1 11  1  0  0  0  0
  2  1  2  0  0  0  0
  2 17  1  0  0  0  0
  3  6  2  0  0  0  0
  3  9  1  0  0  0  0
  4  1  1  0  0  0  0
  4 14  2  0  0  0  0
  5 19  1  6  0  0  0
  5 12  1  0  0  0  0
  5 15  1  0  0  0  0
  6  2  1  0  0  0  0
  7 21  1  0  0  0  0
  8 16  1  0  0  0  0
  9 18  2  0  0  0  0
 10  7  2  0  0  0  0
 11 16  2  0  0  0  0
 11  7  1  0  0  0  0
 12  4  1  0  0  0  0
 14 10  1  0  0  0  0
 15 14  1  0  0  0  0
 17  8  2  0  0  0  0
 18 13  1  0  0  0  0
 18 17  1  0  0  0  0
 20 19  2  0  0  0  0
 21 23  1  0  0  0  0
 23 22  1  6  0  0  0
 23 25  1  0  0  0  0
 25 24  1  6  0  0  0
 27 25  1  0  0  0  0
 27 26  1  1  0  0  0
 28 27  1  0  0  0  0
 29 30  2  0  0  0  0
 29 28  1  0  0  0  0
 31 29  1  0  0  0  0
M  END
>  <MODEL>
4

>  <REMARK>
 VINA RESULT:      -8.4      1.499      2.318
  Name = 
  7 active torsions:
  status: ('A' for Active; 'I' for Inactive)
    1  A    between atoms: C_1  and  O_24
    2  A    between atoms: C_2  and  C_13
    3  A    between atoms: C_9  and  C_22
    4  A    between atoms: C_9  and  O_23
    5  A    between atoms: C_15  and  O_23
    6  A    between atoms: C_19  and  C_22
    7  A    between atoms: C_19  and  O_24
                            x       y       z     vdW  Elec       q    Type
                         _______ _______ _______ _____ _____    ______ ____

>  <TORSDO>
F 7

$$$$
=
 OpenBabel11052422443D

 31 34  0  0  1  0  0  0  0  0999 V2000
  161.6000  208.8380  152.1280 C   0  0  0  0  0  0  0  0  0  0  0  0
  161.1850  209.5040  153.3200 C   0  0  0  0  0  0  0  0  0  0  0  0
  160.7390  211.5510  154.5960 C   0  0  0  0  0  3  0  0  0  0  0  0
  161.7190  209.4150  150.8550 C   0  0  0  0  0  0  0  0  0  0  0  0
  161.7770  210.9530  149.0660 C   0  0  2  0  0  3  0  0  0  0  0  0
  161.1660  210.8680  153.4540 C   0  0  0  0  0  3  0  0  0  0  0  0
  161.9350  206.6590  150.9500 C   0  0  0  0  0  0  0  0  0  0  0  0
  160.8650  207.4290  154.4920 C   0  0  0  0  0  3  0  0  0  0  0  0
  160.3090  210.8470  155.6770 C   0  0  0  0  0  3  0  0  0  0  0  0
  162.3350  207.3710  149.8210 C   0  0  0  0  0  3  0  0  0  0  0  0
  161.6720  207.4610  152.1420 C   0  0  0  0  0  0  0  0  0  0  0  0
  161.6300  210.7330  150.4470 O   0  0  0  0  0  0  0  0  0  0  0  0
  159.8080  208.8620  156.7980 O   0  0  0  0  0  1  0  0  0  0  0  0
  162.1790  208.7430  149.8000 C   0  0  0  0  0  0  0  0  0  0  0  0
  162.1900  209.6000  148.7670 O   0  0  0  0  0  0  0  0  0  0  0  0
  161.3450  206.8020  153.3600 C   0  0  0  0  0  3  0  0  0  0  0  0
  160.8210  208.8030  154.5200 C   0  0  0  0  0  0  0  0  0  0  0  0
  160.3060  209.4610  155.6560 C   0  0  0  0  0  0  0  0  0  0  0  0
  162.7180  212.1010  148.6330 C   0  0  0  0  0  3  0  0  0  0  0  0
  162.4300  212.8810  147.5620 C   0  0  0  0  0  2  0  0  0  0  0  0
  162.2030  205.2620  151.0830 O   0  0  0  0  0  0  0  0  0  0  0  0
  160.9130  203.2900  152.0810 C   0  0  0  0  0  1  0  0  0  0  0  0
  161.3560  204.0840  150.8820 C   0  0  1  0  0  3  0  0  0  0  0  0
  160.4720  202.3960  149.4480 O   0  0  0  0  0  1  0  0  0  0  0  0
  160.5040  203.7990  149.6100 C   0  0  2  0  0  3  0  0  0  0  0  0
  160.7080  205.6690  147.7130 C   0  0  0  0  0  1  0  0  0  0  0  0
  161.1960  204.4020  148.3710 C   0  0  2  0  0  3  0  0  0  0  0  0
  161.7990  203.4490  147.4730 O   0  0  0  0  0  0  0  0  0  0  0  0
  161.7090  203.4690  146.0520 C   0  0  0  0  0  0  0  0  0  0  0  0
  160.8870  202.7490  145.3840 O   0  0  0  0  0  0  0  0  0  0  0  0
  162.6190  204.3420  145.3660 N   0  0  0  0  0  1  0  0  0  0  0  0
  1 11  1  0  0  0  0
  1  2  2  0  0  0  0
  2  6  1  0  0  0  0
  2 17  1  0  0  0  0
  3  9  1  0  0  0  0
  4  1  1  0  0  0  0
  5 19  1  1  0  0  0
  5 12  1  0  0  0  0
  6  3  2  0  0  0  0
  7 21  1  0  0  0  0
  7 11  1  0  0  0  0
  8 17  2  0  0  0  0
 10  7  2  0  0  0  0
 11 16  2  0  0  0  0
 12  4  1  0  0  0  0
 14 10  1  0  0  0  0
 14  4  2  0  0  0  0
 15  5  1  0  0  0  0
 15 14  1  0  0  0  0
 16  8  1  0  0  0  0
 17 18  1  0  0  0  0
 18  9  2  0  0  0  0
 18 13  1  0  0  0  0
 20 19  2  0  0  0  0
 23 21  1  0  0  0  0
 23 22  1  1  0  0  0
 25 24  1  6  0  0  0
 25 23  1  0  0  0  0
 27 26  1  6  0  0  0
 27 25  1  0  0  0  0
 28 27  1  0  0  0  0
 29 28  1  0  0  0  0
 30 29  2  0  0  0  0
 31 29  1  0  0  0  0
M  END
>  <MODEL>
5

>  <REMARK>
 VINA RESULT:      -8.2      2.761      7.226
  Name = 
  7 active torsions:
  status: ('A' for Active; 'I' for Inactive)
    1  A    between atoms: C_1  and  O_24
    2  A    between atoms: C_2  and  C_13
    3  A    between atoms: C_9  and  C_22
    4  A    between atoms: C_9  and  O_23
    5  A    between atoms: C_15  and  O_23
    6  A    between atoms: C_19  and  C_22
    7  A    between atoms: C_19  and  O_24
                            x       y       z     vdW  Elec       q    Type
                         _______ _______ _______ _____ _____    ______ ____

>  <TORSDO>
F 7

$$$$
=
 OpenBabel11052422443D

 31 34  0  0  1  0  0  0  0  0999 V2000
  161.6920  208.7520  151.0480 C   0  0  0  0  0  0  0  0  0  0  0  0
  161.5570  208.9930  152.4480 C   0  0  0  0  0  0  0  0  0  0  0  0
  161.6210  210.4940  154.3870 C   0  0  0  0  0  3  0  0  0  0  0  0
  161.7210  209.7250  150.0380 C   0  0  0  0  0  0  0  0  0  0  0  0
  161.7690  211.7800  148.8790 C   0  0  2  0  0  3  0  0  0  0  0  0
  161.7720  210.2180  153.0260 C   0  0  0  0  0  3  0  0  0  0  0  0
  161.5130  207.1050  149.1760 C   0  0  0  0  0  0  0  0  0  0  0  0
  161.0830  206.6820  152.9070 C   0  0  0  0  0  3  0  0  0  0  0  0
  161.2420  209.5020  155.2360 C   0  0  0  0  0  3  0  0  0  0  0  0
  161.8580  208.1240  148.2920 C   0  0  0  0  0  3  0  0  0  0  0  0
  161.5490  207.4570  150.5930 C   0  0  0  0  0  0  0  0  0  0  0  0
  161.7840  211.1040  150.1110 O   0  0  0  0  0  0  0  0  0  0  0  0
  160.5970  207.3100  155.7100 O   0  0  0  0  0  1  0  0  0  0  0  0
  161.9180  209.4240  148.7550 C   0  0  0  0  0  0  0  0  0  0  0  0
  161.9190  210.5850  148.0790 O   0  0  0  0  0  0  0  0  0  0  0  0
  161.2950  206.4480  151.5640 C   0  0  0  0  0  3  0  0  0  0  0  0
  161.2590  207.9550  153.3950 C   0  0  0  0  0  0  0  0  0  0  0  0
  161.0180  208.2190  154.7590 C   0  0  0  0  0  0  0  0  0  0  0  0
  162.8090  212.9080  148.6830 C   0  0  0  0  0  3  0  0  0  0  0  0
  162.8600  213.6260  147.5340 C   0  0  0  0  0  2  0  0  0  0  0  0
  161.5740  205.7300  148.7890 O   0  0  0  0  0  0  0  0  0  0  0  0
  160.6580  205.8370  146.4030 C   0  0  0  0  0  1  0  0  0  0  0  0
  161.3380  205.0690  147.5040 C   0  0  1  0  0  3  0  0  0  0  0  0
  162.1950  203.9310  145.5920 O   0  0  0  0  0  1  0  0  0  0  0  0
  162.0890  203.8040  146.9950 C   0  0  2  0  0  3  0  0  0  0  0  0
  160.7130  201.6580  146.1960 C   0  0  0  0  0  1  0  0  0  0  0  0
  161.2510  202.5440  147.2930 C   0  0  2  0  0  3  0  0  0  0  0  0
  160.4270  202.6130  148.4730 O   0  0  0  0  0  0  0  0  0  0  0  0
  160.7720  202.1160  149.7620 C   0  0  0  0  0  0  0  0  0  0  0  0
  161.1560  200.9150  149.9780 O   0  0  0  0  0  0  0  0  0  0  0  0
  160.6510  203.0380  150.8560 N   0  0  0  0  0  1  0  0  0  0  0  0
  1  2  2  0  0  0  0
  2  6  1  0  0  0  0
  2 17  1  0  0  0  0
  3  9  1  0  0  0  0
  4 12  1  0  0  0  0
  4  1  1  0  0  0  0
  5 19  1  1  0  0  0
  5 12  1  0  0  0  0
  6  3  2  0  0  0  0
  7 11  1  0  0  0  0
  8 17  2  0  0  0  0
 10 14  1  0  0  0  0
 10  7  2  0  0  0  0
 11  1  1  0  0  0  0
 11 16  2  0  0  0  0
 14  4  2  0  0  0  0
 15 14  1  0  0  0  0
 15  5  1  0  0  0  0
 16  8  1  0  0  0  0
 17 18  1  0  0  0  0
 18  9  2  0  0  0  0
 18 13  1  0  0  0  0
 20 19  2  0  0  0  0
 21  7  1  0  0  0  0
 23 22  1  6  0  0  0
 23 21  1  0  0  0  0
 25 24  1  6  0  0  0
 25 27  1  0  0  0  0
 25 23  1  0  0  0  0
 27 26  1  6  0  0  0
 27 28  1  0  0  0  0
 28 29  1  0  0  0  0
 29 30  2  0  0  0  0
 29 31  1  0  0  0  0
M  END
>  <MODEL>
6

>  <REMARK>
 VINA RESULT:      -7.9      2.418      7.412
  Name = 
  7 active torsions:
  status: ('A' for Active; 'I' for Inactive)
    1  A    between atoms: C_1  and  O_24
    2  A    between atoms: C_2  and  C_13
    3  A    between atoms: C_9  and  C_22
    4  A    between atoms: C_9  and  O_23
    5  A    between atoms: C_15  and  O_23
    6  A    between atoms: C_19  and  C_22
    7  A    between atoms: C_19  and  O_24
                            x       y       z     vdW  Elec       q    Type
                         _______ _______ _______ _____ _____    ______ ____

>  <TORSDO>
F 7

$$$$
=
 OpenBabel11052422443D

 31 34  0  0  1  0  0  0  0  0999 V2000
  161.5000  206.9330  149.9570 C   0  0  0  0  0  0  0  0  0  0  0  0
  161.2750  206.1250  151.1120 C   0  0  0  0  0  0  0  0  0  0  0  0
  160.8280  203.9550  152.1650 C   0  0  0  0  0  3  0  0  0  0  0  0
  161.8290  206.4720  148.6740 C   0  0  0  0  0  0  0  0  0  0  0  0
  162.2780  205.0900  146.8140 C   0  0  2  0  0  3  0  0  0  0  0  0
  161.0240  204.7790  151.0530 C   0  0  0  0  0  3  0  0  0  0  0  0
  162.0260  209.2040  149.0560 C   0  0  0  0  0  0  0  0  0  0  0  0
  161.4000  208.0180  152.5890 C   0  0  0  0  0  3  0  0  0  0  0  0
  160.8760  204.4900  153.4130 C   0  0  0  0  0  3  0  0  0  0  0  0
  162.0230  208.6580  147.7740 C   0  0  0  0  0  3  0  0  0  0  0  0
  161.6430  208.2940  150.1320 C   0  0  0  0  0  0  0  0  0  0  0  0
  161.8730  205.1910  148.1570 O   0  0  0  0  0  0  0  0  0  0  0  0
  161.1710  206.2620  154.9030 O   0  0  0  0  0  1  0  0  0  0  0  0
  161.9580  207.2860  147.6280 C   0  0  0  0  0  0  0  0  0  0  0  0
  162.2420  206.5140  146.5670 O   0  0  0  0  0  0  0  0  0  0  0  0
  161.5360  208.7970  151.4580 C   0  0  0  0  0  3  0  0  0  0  0  0
  161.2140  206.6630  152.4420 C   0  0  0  0  0  0  0  0  0  0  0  0
  161.1030  205.8470  153.5870 C   0  0  0  0  0  0  0  0  0  0  0  0
  161.4340  204.1810  145.8910 C   0  0  0  0  0  3  0  0  0  0  0  0
  160.9370  204.6390  144.7150 C   0  0  0  0  0  2  0  0  0  0  0  0
  161.9490  210.6160  149.2650 O   0  0  0  0  0  0  0  0  0  0  0  0
  163.2840  212.2230  147.7880 C   0  0  0  0  0  1  0  0  0  0  0  0
  161.9640  211.7410  148.3280 C   0  0  1  0  0  3  0  0  0  0  0  0
  161.2580  212.6700  146.2480 O   0  0  0  0  0  1  0  0  0  0  0  0
  160.7460  212.2260  147.4870 C   0  0  2  0  0  3  0  0  0  0  0  0
  160.3100  213.7480  149.6380 C   0  0  0  0  0  1  0  0  0  0  0  0
  160.0790  213.4310  148.1810 C   0  0  2  0  0  3  0  0  0  0  0  0
  158.7740  213.7870  147.6850 O   0  0  0  0  0  0  0  0  0  0  0  0
  157.6120  212.9640  147.7270 C   0  0  0  0  0  0  0  0  0  0  0  0
  157.2080  212.2590  146.7380 O   0  0  0  0  0  0  0  0  0  0  0  0
  156.8700  212.9690  148.9560 N   0  0  0  0  0  1  0  0  0  0  0  0
  1 11  1  0  0  0  0
  1  2  2  0  0  0  0
  2 17  1  0  0  0  0
  3  9  1  0  0  0  0
  4  1  1  0  0  0  0
  5 19  1  6  0  0  0
  5 12  1  0  0  0  0
  6  2  1  0  0  0  0
  6  3  2  0  0  0  0
  7 21  1  0  0  0  0
  7 11  1  0  0  0  0
  9 18  2  0  0  0  0
 10  7  2  0  0  0  0
 11 16  2  0  0  0  0
 12  4  1  0  0  0  0
 14 10  1  0  0  0  0
 14  4  2  0  0  0  0
 15  5  1  0  0  0  0
 15 14  1  0  0  0  0
 16  8  1  0  0  0  0
 17  8  2  0  0  0  0
 17 18  1  0  0  0  0
 18 13  1  0  0  0  0
 20 19  2  0  0  0  0
 23 22  1  6  0  0  0
 23 21  1  0  0  0  0
 25 24  1  6  0  0  0
 25 27  1  0  0  0  0
 25 23  1  0  0  0  0
 27 26  1  1  0  0  0
 28 29  1  0  0  0  0
 28 27  1  0  0  0  0
 29 31  1  0  0  0  0
 30 29  2  0  0  0  0
M  END
>  <MODEL>
7

>  <REMARK>
 VINA RESULT:      -7.8      2.705      6.464
  Name = 
  7 active torsions:
  status: ('A' for Active; 'I' for Inactive)
    1  A    between atoms: C_1  and  O_24
    2  A    between atoms: C_2  and  C_13
    3  A    between atoms: C_9  and  C_22
    4  A    between atoms: C_9  and  O_23
    5  A    between atoms: C_15  and  O_23
    6  A    between atoms: C_19  and  C_22
    7  A    between atoms: C_19  and  O_24
                            x       y       z     vdW  Elec       q    Type
                         _______ _______ _______ _____ _____    ______ ____

>  <TORSDO>
F 7

$$$$
=
 OpenBabel11052422443D

 31 34  0  0  1  0  0  0  0  0999 V2000
  161.3760  208.3720  151.5280 C   0  0  0  0  0  0  0  0  0  0  0  0
  161.1560  208.0520  152.9010 C   0  0  0  0  0  0  0  0  0  0  0  0
  160.6010  206.4480  154.6720 C   0  0  0  0  0  3  0  0  0  0  0  0
  161.5930  207.4580  150.4870 C   0  0  0  0  0  0  0  0  0  0  0  0
  161.8220  205.4710  149.2340 C   0  0  2  0  0  3  0  0  0  0  0  0
  160.7960  206.8020  153.3340 C   0  0  0  0  0  3  0  0  0  0  0  0
  162.0280  210.1160  149.8590 C   0  0  0  0  0  0  0  0  0  0  0  0
  161.5170  210.3240  153.5980 C   0  0  0  0  0  3  0  0  0  0  0  0
  160.7630  207.3840  155.6450 C   0  0  0  0  0  3  0  0  0  0  0  0
  161.9070  209.1540  148.8580 C   0  0  0  0  0  3  0  0  0  0  0  0
  161.6370  209.6870  151.2000 C   0  0  0  0  0  0  0  0  0  0  0  0
  161.5050  206.0780  150.4610 O   0  0  0  0  0  0  0  0  0  0  0  0
  161.2840  209.5320  156.3920 O   0  0  0  0  0  1  0  0  0  0  0  0
  161.7250  207.8320  149.2150 C   0  0  0  0  0  0  0  0  0  0  0  0
  161.8840  206.7110  148.4940 O   0  0  0  0  0  0  0  0  0  0  0  0
  161.6470  210.6350  152.2600 C   0  0  0  0  0  3  0  0  0  0  0  0
  161.2160  209.0290  153.9510 C   0  0  0  0  0  0  0  0  0  0  0  0
  161.1070  208.6860  155.3140 C   0  0  0  0  0  0  0  0  0  0  0  0
  160.8560  204.3780  148.7200 C   0  0  0  0  0  3  0  0  0  0  0  0
  161.2040  203.0670  148.7360 C   0  0  0  0  0  2  0  0  0  0  0  0
  162.0740  211.5110  149.5500 O   0  0  0  0  0  0  0  0  0  0  0  0
  163.2900  212.4680  147.5130 C   0  0  0  0  0  1  0  0  0  0  0  0
  162.0150  212.2280  148.2750 C   0  0  1  0  0  3  0  0  0  0  0  0
  161.1770  212.5790  146.0700 O   0  0  0  0  0  1  0  0  0  0  0  0
  160.7380  212.3990  147.4010 C   0  0  2  0  0  3  0  0  0  0  0  0
  160.1760  214.3130  149.1770 C   0  0  0  0  0  1  0  0  0  0  0  0
  159.9820  213.6750  147.8240 C   0  0  2  0  0  3  0  0  0  0  0  0
  158.6590  213.8240  147.2710 O   0  0  0  0  0  0  0  0  0  0  0  0
  157.5530  212.9580  147.5070 C   0  0  0  0  0  0  0  0  0  0  0  0
  156.9960  212.8180  148.6500 O   0  0  0  0  0  0  0  0  0  0  0  0
  157.0800  212.2040  146.3810 N   0  0  0  0  0  1  0  0  0  0  0  0
  1  2  2  0  0  0  0
  2  6  1  0  0  0  0
  2 17  1  0  0  0  0
  3  9  1  0  0  0  0
  4  1  1  0  0  0  0
  5 19  1  6  0  0  0
  5 12  1  0  0  0  0
  6  3  2  0  0  0  0
  7 11  1  0  0  0  0
  8 17  2  0  0  0  0
 10 14  1  0  0  0  0
 10  7  2  0  0  0  0
 11  1  1  0  0  0  0
 11 16  2  0  0  0  0
 12  4  1  0  0  0  0
 14  4  2  0  0  0  0
 15 14  1  0  0  0  0
 15  5  1  0  0  0  0
 16  8  1  0  0  0  0
 17 18  1  0  0  0  0
 18  9  2  0  0  0  0
 18 13  1  0  0  0  0
 19 20  2  0  0  0  0
 21  7  1  0  0  0  0
 23 22  1  6  0  0  0
 23 21  1  0  0  0  0
 25 24  1  6  0  0  0
 25 27  1  0  0  0  0
 25 23  1  0  0  0  0
 27 26  1  1  0  0  0
 28 29  1  0  0  0  0
 28 27  1  0  0  0  0
 29 30  2  0  0  0  0
 31 29  1  0  0  0  0
M  END
>  <MODEL>
8

>  <REMARK>
 VINA RESULT:      -7.5      2.910      7.270
  Name = 
  7 active torsions:
  status: ('A' for Active; 'I' for Inactive)
    1  A    between atoms: C_1  and  O_24
    2  A    between atoms: C_2  and  C_13
    3  A    between atoms: C_9  and  C_22
    4  A    between atoms: C_9  and  O_23
    5  A    between atoms: C_15  and  O_23
    6  A    between atoms: C_19  and  C_22
    7  A    between atoms: C_19  and  O_24
                            x       y       z     vdW  Elec       q    Type
                         _______ _______ _______ _____ _____    ______ ____

>  <TORSDO>
F 7

$$$$
=
 OpenBabel11052422443D

 31 34  0  0  1  0  0  0  0  0999 V2000
  161.4570  208.5240  151.0400 C   0  0  0  0  0  0  0  0  0  0  0  0
  161.2480  208.0310  152.3620 C   0  0  0  0  0  0  0  0  0  0  0  0
  160.8070  206.1950  153.9280 C   0  0  0  0  0  3  0  0  0  0  0  0
  161.7620  207.7560  149.9060 C   0  0  0  0  0  0  0  0  0  0  0  0
  162.1700  205.9510  148.4420 C   0  0  2  0  0  3  0  0  0  0  0  0
  160.9880  206.7150  152.6440 C   0  0  0  0  0  3  0  0  0  0  0  0
  161.9810  210.4950  149.5940 C   0  0  0  0  0  0  0  0  0  0  0  0
  161.4090  210.2300  153.3200 C   0  0  0  0  0  3  0  0  0  0  0  0
  160.8790  207.0230  155.0040 C   0  0  0  0  0  3  0  0  0  0  0  0
  161.9530  209.6480  148.4880 C   0  0  0  0  0  3  0  0  0  0  0  0
  161.6120  209.8840  150.8690 C   0  0  0  0  0  0  0  0  0  0  0  0
  161.7890  206.3860  149.7230 O   0  0  0  0  0  0  0  0  0  0  0  0
  161.2100  209.1070  156.0010 O   0  0  0  0  0  1  0  0  0  0  0  0
  161.8770  208.2840  148.6890 C   0  0  0  0  0  0  0  0  0  0  0  0
  162.1380  207.2690  147.8480 O   0  0  0  0  0  0  0  0  0  0  0  0
  161.5300  210.7030  152.0290 C   0  0  0  0  0  3  0  0  0  0  0  0
  161.2130  208.8840  153.5180 C   0  0  0  0  0  0  0  0  0  0  0  0
  161.1170  208.3790  154.8310 C   0  0  0  0  0  0  0  0  0  0  0  0
  161.3060  204.8500  147.7860 C   0  0  0  0  0  3  0  0  0  0  0  0
  161.7610  204.1330  146.7290 C   0  0  0  0  0  2  0  0  0  0  0  0
  161.9150  211.9150  149.4460 O   0  0  0  0  0  0  0  0  0  0  0  0
  160.1650  213.6690  150.0830 C   0  0  0  0  0  1  0  0  0  0  0  0
  160.8220  212.8020  149.0430 C   0  0  1  0  0  3  0  0  0  0  0  0
  160.0470  212.1540  146.8830 O   0  0  0  0  0  1  0  0  0  0  0  0
  160.5410  213.2750  147.5860 C   0  0  2  0  0  3  0  0  0  0  0  0
  162.9390  214.4500  147.6660 C   0  0  0  0  0  1  0  0  0  0  0  0
  161.8600  213.7100  146.9150 C   0  0  2  0  0  3  0  0  0  0  0  0
  161.7630  214.0410  145.5150 O   0  0  0  0  0  0  0  0  0  0  0  0
  162.2180  213.2340  144.4330 C   0  0  0  0  0  0  0  0  0  0  0  0
  163.4540  213.0630  144.1490 O   0  0  0  0  0  0  0  0  0  0  0  0
  161.2040  212.6100  143.6310 N   0  0  0  0  0  1  0  0  0  0  0  0
  1  2  2  0  0  0  0
  2  6  1  0  0  0  0
  2 17  1  0  0  0  0
  3  9  1  0  0  0  0
  4  1  1  0  0  0  0
  5 19  1  6  0  0  0
  5 12  1  0  0  0  0
  6  3  2  0  0  0  0
  7 11  1  0  0  0  0
  8 17  2  0  0  0  0
 10 14  1  0  0  0  0
 10  7  2  0  0  0  0
 11  1  1  0  0  0  0
 11 16  2  0  0  0  0
 12  4  1  0  0  0  0
 14  4  2  0  0  0  0
 15  5  1  0  0  0  0
 15 14  1  0  0  0  0
 16  8  1  0  0  0  0
 17 18  1  0  0  0  0
 18  9  2  0  0  0  0
 18 13  1  0  0  0  0
 20 19  2  0  0  0  0
 21  7  1  0  0  0  0
 23 21  1  0  0  0  0
 23 22  1  1  0  0  0
 25 24  1  6  0  0  0
 25 23  1  0  0  0  0
 27 25  1  0  0  0  0
 27 26  1  1  0  0  0
 28 27  1  0  0  0  0
 29 28  1  0  0  0  0
 30 29  2  0  0  0  0
 31 29  1  0  0  0  0
M  END
>  <MODEL>
9

>  <REMARK>
 VINA RESULT:      -7.4      3.192      7.438
  Name = 
  7 active torsions:
  status: ('A' for Active; 'I' for Inactive)
    1  A    between atoms: C_1  and  O_24
    2  A    between atoms: C_2  and  C_13
    3  A    between atoms: C_9  and  C_22
    4  A    between atoms: C_9  and  O_23
    5  A    between atoms: C_15  and  O_23
    6  A    between atoms: C_19  and  C_22
    7  A    between atoms: C_19  and  O_24
                            x       y       z     vdW  Elec       q    Type
                         _______ _______ _______ _____ _____    ______ ____

>  <TORSDO>
F 7

$$$$
