=
 OpenBabel11062409113D

 37 41  0  0  1  0  0  0  0  0999 V2000
  162.5930  210.7050  155.7140 N   0  0  0  0  0  0  0  0  0  0  0  0
  160.6600  211.5210  151.5070 C   0  0  0  0  0  3  0  0  0  0  0  0
  160.1190  210.6720  155.7620 C   0  0  0  0  0  2  0  0  0  0  0  0
  161.9630  207.5160  150.8660 C   0  0  0  0  0  3  0  0  0  0  0  0
  160.2440  210.9160  152.8320 C   0  0  2  0  0  3  0  0  0  0  0  0
  161.9740  208.7290  151.5590 C   0  0  0  0  0  0  0  0  0  0  0  0
  159.4630  211.8840  153.7000 C   0  0  0  0  0  0  0  0  0  0  0  0
  162.5700  209.9440  150.9130 C   0  0  0  0  0  2  0  0  0  0  0  0
  161.4670  208.7950  152.8650 C   0  0  0  0  0  0  0  0  0  0  0  0
  160.8810  206.4420  152.7450 C   0  0  0  0  0  3  0  0  0  0  0  0
  161.5950  211.0680  150.6420 C   0  0  0  0  0  0  0  0  0  0  0  0
  160.8910  207.6540  153.4420 C   0  0  0  0  0  3  0  0  0  0  0  0
  159.7750  212.0250  155.1660 C   0  0  0  0  0  2  0  0  0  0  0  0
  161.3790  210.1420  153.5200 C   0  0  2  0  0  3  0  0  0  0  0  0
  161.4210  206.3640  151.4570 C   0  0  0  0  0  0  0  0  0  0  0  0
  162.3120  209.2590  155.7860 C   0  0  2  0  0  3  0  0  0  0  0  0
  161.3720  210.1420  155.0720 C   0  0  1  0  0  0  0  0  0  0  0  0
  158.4370  212.5570  153.1610 C   0  0  0  0  0  3  0  0  0  0  0  0
  161.4000  205.1370  150.7900 O   0  0  0  0  0  0  0  0  0  0  0  0
  161.5690  203.8950  151.4620 C   0  0  0  0  0  1  0  0  0  0  0  0
  161.9940  210.9390  148.3100 O   0  0  0  0  0  1  0  0  0  0  0  0
  161.7910  211.8240  149.3700 C   0  0  0  0  0  2  0  0  0  0  0  0
  163.7220  210.8430  154.8000 C   0  0  0  0  0  2  0  0  0  0  0  0
  164.5860  211.5940  156.8820 O   0  0  0  0  0  1  0  0  0  0  0  0
  164.8910  211.4760  155.5270 C   0  0  0  0  0  2  0  0  0  0  0  0
  161.8660  208.8960  157.1950 C   0  0  0  0  0  2  0  0  0  0  0  0
  161.4120  207.4510  157.2250 C   0  0  0  0  0  2  0  0  0  0  0  0
  159.3780  206.9760  155.9050 C   0  0  0  0  0  1  0  0  0  0  0  0
  159.9000  207.4000  157.2610 C   0  0  0  0  0  2  0  0  0  0  0  0
  157.5760  213.5060  153.9370 C   0  0  0  0  0  2  0  0  0  0  0  0
  156.4820  213.2940  156.1780 C   0  0  0  0  0  3  0  0  0  0  0  0
  156.7380  212.7550  154.9120 C   0  0  0  0  0  0  0  0  0  0  0  0
  156.2290  211.4960  154.5740 C   0  0  0  0  0  3  0  0  0  0  0  0
  154.9630  209.5650  155.1670 F   0  0  0  0  0  0  0  0  0  0  0  0
  155.1980  211.3240  156.7590 C   0  0  0  0  0  3  0  0  0  0  0  0
  155.4580  210.7820  155.4960 C   0  0  0  0  0  0  0  0  0  0  0  0
  155.7100  212.5800  157.0990 C   0  0  0  0  0  3  0  0  0  0  0  0
  1 16  1  0  0  0  0
  4 15  2  0  0  0  0
  4  6  1  0  0  0  0
  5  2  1  6  0  0  0
  5 14  1  0  0  0  0
  5  7  1  0  0  0  0
  6  9  2  0  0  0  0
  7 13  1  0  0  0  0
  8  6  1  0  0  0  0
  9 12  1  0  0  0  0
 10 12  2  0  0  0  0
 11  8  1  0  0  0  0
 11  2  2  0  0  0  0
 13  3  1  0  0  0  0
 14  9  1  6  0  0  0
 14 17  1  0  0  0  0
 15 10  1  0  0  0  0
 16 26  1  1  0  0  0
 17  1  1  0  0  0  0
 17  3  1  1  0  0  0
 17 16  1  0  0  0  0
 18  7  2  0  0  0  0
 18 30  1  0  0  0  0
 19 15  1  0  0  0  0
 19 20  1  0  0  0  0
 21 22  1  0  0  0  0
 22 11  1  0  0  0  0
 23 25  1  0  0  0  0
 23  1  1  0  0  0  0
 25 24  1  0  0  0  0
 26 27  1  0  0  0  0
 27 29  1  0  0  0  0
 28 29  1  0  0  0  0
 30 32  1  0  0  0  0
 31 37  1  0  0  0  0
 32 31  2  0  0  0  0
 33 32  1  0  0  0  0
 33 36  2  0  0  0  0
 34 36  1  0  0  0  0
 35 37  2  0  0  0  0
 36 35  1  0  0  0  0
M  END
>  <MODEL>
1

>  <REMARK>
 VINA RESULT:      -4.5      0.000      0.000
  Name = 
  9 active torsions:
  status: ('A' for Active; 'I' for Inactive)
    1  A    between atoms: N_1  and  C_5
    2  A    between atoms: O_3  and  C_32
    3  A    between atoms: C_5  and  C_23
    4  A    between atoms: C_6  and  C_31
    5  A    between atoms: C_17  and  C_26
    6  A    between atoms: C_17  and  C_33
    7  A    between atoms: C_24  and  C_28
    8  A    between atoms: C_26  and  C_34
    9  A    between atoms: C_31  and  C_37
                            x       y       z     vdW  Elec       q    Type
                         _______ _______ _______ _____ _____    ______ ____

>  <TORSDO>
F 9

$$$$
=
 OpenBabel11062409113D

 37 41  0  0  1  0  0  0  0  0999 V2000
  160.1750  208.1840  153.8770 N   0  0  0  0  0  0  0  0  0  0  0  0
  159.6100  212.6930  155.0830 C   0  0  0  0  0  3  0  0  0  0  0  0
  160.7230  209.7530  152.0440 C   0  0  0  0  0  2  0  0  0  0  0  0
  163.2270  211.8970  157.1890 C   0  0  0  0  0  3  0  0  0  0  0  0
  160.3410  211.9020  154.0190 C   0  0  2  0  0  3  0  0  0  0  0  0
  162.0670  211.4990  156.5190 C   0  0  0  0  0  0  0  0  0  0  0  0
  159.5920  211.8610  152.7000 C   0  0  0  0  0  0  0  0  0  0  0  0
  160.7300  211.7270  157.1580 C   0  0  0  0  0  2  0  0  0  0  0  0
  162.1610  210.8540  155.2770 C   0  0  0  0  0  0  0  0  0  0  0  0
  164.5770  211.0720  155.3570 C   0  0  0  0  0  3  0  0  0  0  0  0
  159.8230  212.6860  156.4190 C   0  0  0  0  0  0  0  0  0  0  0  0
  163.4190  210.6720  154.6850 C   0  0  0  0  0  3  0  0  0  0  0  0
  159.4480  210.5710  151.9370 C   0  0  0  0  0  2  0  0  0  0  0  0
  160.8890  210.5630  154.5360 C   0  0  2  0  0  3  0  0  0  0  0  0
  164.4890  211.6810  156.6130 C   0  0  0  0  0  0  0  0  0  0  0  0
  161.6490  208.1570  153.8880 C   0  0  2  0  0  3  0  0  0  0  0  0
  160.9530  209.4010  153.5100 C   0  0  1  0  0  0  0  0  0  0  0  0
  159.1260  213.0060  152.1820 C   0  0  0  0  0  3  0  0  0  0  0  0
  165.6670  212.0650  157.2610 O   0  0  0  0  0  0  0  0  0  0  0  0
  166.7060  212.7790  156.6040 C   0  0  0  0  0  1  0  0  0  0  0  0
  157.6420  213.2640  157.1420 O   0  0  0  0  0  1  0  0  0  0  0  0
  158.9920  213.5970  157.2610 C   0  0  0  0  0  2  0  0  0  0  0  0
  159.7680  208.1520  155.2780 C   0  0  0  0  0  2  0  0  0  0  0  0
  161.2930  208.1300  157.0990 O   0  0  0  0  0  1  0  0  0  0  0  0
  160.7660  207.3400  156.0790 C   0  0  0  0  0  2  0  0  0  0  0  0
  162.1530  207.3490  152.7010 C   0  0  0  0  0  2  0  0  0  0  0  0
  161.4370  206.0160  152.6570 C   0  0  0  0  0  2  0  0  0  0  0  0
  161.3860  204.0130  151.2110 C   0  0  0  0  0  1  0  0  0  0  0  0
  161.3730  205.5260  151.2270 C   0  0  0  0  0  2  0  0  0  0  0  0
  158.4080  213.0840  150.8700 C   0  0  0  0  0  2  0  0  0  0  0  0
  160.6000  214.0240  150.1110 C   0  0  0  0  0  3  0  0  0  0  0  0
  159.3610  213.4600  149.7880 C   0  0  0  0  0  0  0  0  0  0  0  0
  159.0050  213.2770  148.4470 C   0  0  0  0  0  3  0  0  0  0  0  0
  159.5480  213.4670  146.1330 F   0  0  0  0  0  0  0  0  0  0  0  0
  161.1320  214.2060  147.7540 C   0  0  0  0  0  3  0  0  0  0  0  0
  159.8910  213.6470  147.4310 C   0  0  0  0  0  0  0  0  0  0  0  0
  161.4860  214.3940  149.0950 C   0  0  0  0  0  3  0  0  0  0  0  0
  1 16  1  0  0  0  0
  1 23  1  0  0  0  0
  2 11  2  0  0  0  0
  5 14  1  0  0  0  0
  5  2  1  1  0  0  0
  6  8  1  0  0  0  0
  6  4  2  0  0  0  0
  7  5  1  0  0  0  0
  9  6  1  0  0  0  0
 10 15  2  0  0  0  0
 11  8  1  0  0  0  0
 11 22  1  0  0  0  0
 12  9  2  0  0  0  0
 12 10  1  0  0  0  0
 13  3  1  0  0  0  0
 13  7  1  0  0  0  0
 14  9  1  6  0  0  0
 15  4  1  0  0  0  0
 15 19  1  0  0  0  0
 16 26  1  6  0  0  0
 17  3  1  6  0  0  0
 17  1  1  0  0  0  0
 17 16  1  0  0  0  0
 17 14  1  0  0  0  0
 18  7  2  0  0  0  0
 20 19  1  0  0  0  0
 21 22  1  0  0  0  0
 23 25  1  0  0  0  0
 25 24  1  0  0  0  0
 27 26  1  0  0  0  0
 28 29  1  0  0  0  0
 29 27  1  0  0  0  0
 30 18  1  0  0  0  0
 32 31  1  0  0  0  0
 32 30  1  0  0  0  0
 33 32  2  0  0  0  0
 34 36  1  0  0  0  0
 35 37  1  0  0  0  0
 36 35  2  0  0  0  0
 36 33  1  0  0  0  0
 37 31  2  0  0  0  0
M  END
>  <MODEL>
2

>  <REMARK>
 VINA RESULT:      -2.0      3.316      6.547
  Name = 
  9 active torsions:
  status: ('A' for Active; 'I' for Inactive)
    1  A    between atoms: N_1  and  C_5
    2  A    between atoms: O_3  and  C_32
    3  A    between atoms: C_5  and  C_23
    4  A    between atoms: C_6  and  C_31
    5  A    between atoms: C_17  and  C_26
    6  A    between atoms: C_17  and  C_33
    7  A    between atoms: C_24  and  C_28
    8  A    between atoms: C_26  and  C_34
    9  A    between atoms: C_31  and  C_37
                            x       y       z     vdW  Elec       q    Type
                         _______ _______ _______ _____ _____    ______ ____

>  <TORSDO>
F 9

$$$$
=
 OpenBabel11062409113D

 37 41  0  0  1  0  0  0  0  0999 V2000
  159.5490  213.6680  152.9740 N   0  0  0  0  0  0  0  0  0  0  0  0
  160.1730  209.4460  154.9440 C   0  0  0  0  0  3  0  0  0  0  0  0
  159.0850  211.7970  151.4220 C   0  0  0  0  0  2  0  0  0  0  0  0
  156.4820  210.4960  156.7950 C   0  0  0  0  0  3  0  0  0  0  0  0
  159.4560  210.0260  153.7430 C   0  0  2  0  0  3  0  0  0  0  0  0
  157.6530  210.8030  156.0950 C   0  0  0  0  0  0  0  0  0  0  0  0
  160.2410  209.8610  152.4550 C   0  0  0  0  0  0  0  0  0  0  0  0
  158.9750  210.7210  156.7960 C   0  0  0  0  0  2  0  0  0  0  0  0
  157.5800  211.2250  154.7590 C   0  0  0  0  0  0  0  0  0  0  0  0
  155.1680  210.9630  154.8180 C   0  0  0  0  0  3  0  0  0  0  0  0
  159.9220  209.6730  156.2530 C   0  0  0  0  0  0  0  0  0  0  0  0
  156.3360  211.2720  154.1150 C   0  0  0  0  0  3  0  0  0  0  0  0
  160.3800  211.0060  151.4870 C   0  0  0  0  0  2  0  0  0  0  0  0
  158.8660  211.4190  154.0110 C   0  0  2  0  0  3  0  0  0  0  0  0
  155.2330  210.5780  156.1610 C   0  0  0  0  0  0  0  0  0  0  0  0
  158.0740  213.6590  152.9440 C   0  0  2  0  0  3  0  0  0  0  0  0
  158.8070  212.3870  152.8000 C   0  0  1  0  0  0  0  0  0  0  0  0
  160.7460  208.6570  152.1510 C   0  0  0  0  0  3  0  0  0  0  0  0
  154.0460  210.2810  156.8350 O   0  0  0  0  0  0  0  0  0  0  0  0
  153.5280  208.9600  156.9310 C   0  0  0  0  0  1  0  0  0  0  0  0
  161.7660  208.2300  156.6190 O   0  0  0  0  0  1  0  0  0  0  0  0
  160.7480  208.9400  157.2580 C   0  0  0  0  0  2  0  0  0  0  0  0
  159.9150  213.9480  154.3580 C   0  0  0  0  0  2  0  0  0  0  0  0
  158.9020  214.2750  156.4810 O   0  0  0  0  0  1  0  0  0  0  0  0
  158.7020  214.4520  155.1130 C   0  0  0  0  0  2  0  0  0  0  0  0
  157.5870  214.2410  151.6250 C   0  0  0  0  0  2  0  0  0  0  0  0
  156.2700  213.5970  151.2450 C   0  0  0  0  0  2  0  0  0  0  0  0
  155.9770  213.9980  148.8240 C   0  0  0  0  0  1  0  0  0  0  0  0
  155.5730  214.4530  150.2100 C   0  0  0  0  0  2  0  0  0  0  0  0
  161.5010  208.3750  150.8890 C   0  0  0  0  0  2  0  0  0  0  0  0
  161.4260  205.9400  151.4610 C   0  0  0  0  0  3  0  0  0  0  0  0
  161.3280  206.9480  150.4970 C   0  0  0  0  0  0  0  0  0  0  0  0
  161.0940  206.6140  149.1580 C   0  0  0  0  0  3  0  0  0  0  0  0
  160.7200  204.9510  147.4920 F   0  0  0  0  0  0  0  0  0  0  0  0
  161.0430  204.2660  149.7520 C   0  0  0  0  0  3  0  0  0  0  0  0
  160.9500  205.2740  148.7870 C   0  0  0  0  0  0  0  0  0  0  0  0
  161.2820  204.6000  151.0900 C   0  0  0  0  0  3  0  0  0  0  0  0
  1 23  1  0  0  0  0
  2 11  2  0  0  0  0
  3 13  1  0  0  0  0
  5 14  1  0  0  0  0
  5  2  1  1  0  0  0
  6  4  2  0  0  0  0
  6  8  1  0  0  0  0
  7  5  1  0  0  0  0
  9  6  1  0  0  0  0
 10 15  2  0  0  0  0
 11  8  1  0  0  0  0
 11 22  1  0  0  0  0
 12  9  2  0  0  0  0
 12 10  1  0  0  0  0
 13  7  1  0  0  0  0
 14  9  1  6  0  0  0
 15  4  1  0  0  0  0
 15 19  1  0  0  0  0
 16 26  1  6  0  0  0
 16  1  1  0  0  0  0
 17  3  1  6  0  0  0
 17 16  1  0  0  0  0
 17  1  1  0  0  0  0
 17 14  1  0  0  0  0
 18  7  2  0  0  0  0
 19 20  1  0  0  0  0
 21 22  1  0  0  0  0
 23 25  1  0  0  0  0
 25 24  1  0  0  0  0
 27 26  1  0  0  0  0
 28 29  1  0  0  0  0
 29 27  1  0  0  0  0
 30 18  1  0  0  0  0
 32 30  1  0  0  0  0
 32 31  2  0  0  0  0
 33 32  1  0  0  0  0
 34 36  1  0  0  0  0
 35 37  2  0  0  0  0
 36 33  2  0  0  0  0
 36 35  1  0  0  0  0
 37 31  1  0  0  0  0
M  END
>  <MODEL>
3

>  <REMARK>
 VINA RESULT:      -1.8      3.423      7.823
  Name = 
  9 active torsions:
  status: ('A' for Active; 'I' for Inactive)
    1  A    between atoms: N_1  and  C_5
    2  A    between atoms: O_3  and  C_32
    3  A    between atoms: C_5  and  C_23
    4  A    between atoms: C_6  and  C_31
    5  A    between atoms: C_17  and  C_26
    6  A    between atoms: C_17  and  C_33
    7  A    between atoms: C_24  and  C_28
    8  A    between atoms: C_26  and  C_34
    9  A    between atoms: C_31  and  C_37
                            x       y       z     vdW  Elec       q    Type
                         _______ _______ _______ _____ _____    ______ ____

>  <TORSDO>
F 9

$$$$
=
 OpenBabel11062409113D

 37 41  0  0  1  0  0  0  0  0999 V2000
  163.3290  210.2260  151.8020 N   0  0  0  0  0  0  0  0  0  0  0  0
  160.8850  207.4830  154.7360 C   0  0  0  0  0  3  0  0  0  0  0  0
  161.8640  208.6140  150.6270 C   0  0  0  0  0  2  0  0  0  0  0  0
  158.6690  211.0900  155.2090 C   0  0  0  0  0  3  0  0  0  0  0  0
  160.8140  207.9150  153.2860 C   0  0  2  0  0  3  0  0  0  0  0  0
  159.8000  210.3700  154.8150 C   0  0  0  0  0  0  0  0  0  0  0  0
  161.3870  206.8810  152.3360 C   0  0  0  0  0  0  0  0  0  0  0  0
  160.6900  209.7620  155.8570 C   0  0  0  0  0  2  0  0  0  0  0  0
  160.1190  210.2570  153.4530 C   0  0  0  0  0  0  0  0  0  0  0  0
  158.1310  211.5310  152.8920 C   0  0  0  0  0  3  0  0  0  0  0  0
  160.7520  208.2510  155.8410 C   0  0  0  0  0  0  0  0  0  0  0  0
  159.2610  210.8120  152.4930 C   0  0  0  0  0  3  0  0  0  0  0  0
  162.3120  207.2900  151.2210 C   0  0  0  0  0  2  0  0  0  0  0  0
  161.2650  209.3680  153.0700 C   0  0  2  0  0  3  0  0  0  0  0  0
  157.8310  211.6790  154.2490 C   0  0  0  0  0  0  0  0  0  0  0  0
  162.2180  211.0910  151.3650 C   0  0  2  0  0  3  0  0  0  0  0  0
  161.9440  209.6840  151.7110 C   0  0  1  0  0  0  0  0  0  0  0  0
  160.9980  205.6040  152.4540 C   0  0  0  0  0  3  0  0  0  0  0  0
  156.6960  212.4070  154.6140 O   0  0  0  0  0  0  0  0  0  0  0  0
  155.6940  211.8850  155.4780 C   0  0  0  0  0  1  0  0  0  0  0  0
  159.8320  206.5920  157.2610 O   0  0  0  0  0  1  0  0  0  0  0  0
  160.8190  207.5740  157.1700 C   0  0  0  0  0  2  0  0  0  0  0  0
  163.6880  210.6880  153.1380 C   0  0  0  0  0  2  0  0  0  0  0  0
  165.5100  211.4390  154.4650 O   0  0  0  0  0  1  0  0  0  0  0  0
  165.1620  211.0380  153.1770 C   0  0  0  0  0  2  0  0  0  0  0  0
  162.3290  211.3470  149.8690 C   0  0  0  0  0  2  0  0  0  0  0  0
  161.2390  212.3060  149.4390 C   0  0  0  0  0  2  0  0  0  0  0  0
  162.9480  212.6570  147.6890 C   0  0  0  0  0  1  0  0  0  0  0  0
  161.4670  212.7140  147.9990 C   0  0  0  0  0  2  0  0  0  0  0  0
  161.4710  204.5110  151.5450 C   0  0  0  0  0  2  0  0  0  0  0  0
  160.3180  205.9100  149.8200 C   0  0  0  0  0  3  0  0  0  0  0  0
  161.2150  204.8810  150.1250 C   0  0  0  0  0  0  0  0  0  0  0  0
  161.8520  204.1810  149.0940 C   0  0  0  0  0  3  0  0  0  0  0  0
  162.2150  203.8390  146.7630 F   0  0  0  0  0  0  0  0  0  0  0  0
  160.7040  205.5480  147.4560 C   0  0  0  0  0  3  0  0  0  0  0  0
  161.5970  204.5160  147.7610 C   0  0  0  0  0  0  0  0  0  0  0  0
  160.0640  206.2440  148.4860 C   0  0  0  0  0  3  0  0  0  0  0  0
  1 23  1  0  0  0  0
  2 11  2  0  0  0  0
  3 13  1  0  0  0  0
  5  2  1  1  0  0  0
  6  4  1  0  0  0  0
  6  8  1  0  0  0  0
  7 18  2  0  0  0  0
  7  5  1  0  0  0  0
  9  6  2  0  0  0  0
 10 15  1  0  0  0  0
 11  8  1  0  0  0  0
 11 22  1  0  0  0  0
 12 10  2  0  0  0  0
 12  9  1  0  0  0  0
 13  7  1  0  0  0  0
 14  5  1  0  0  0  0
 14  9  1  6  0  0  0
 15 19  1  0  0  0  0
 15  4  2  0  0  0  0
 16 26  1  6  0  0  0
 16 17  1  0  0  0  0
 16  1  1  0  0  0  0
 17  3  1  6  0  0  0
 17  1  1  0  0  0  0
 17 14  1  0  0  0  0
 19 20  1  0  0  0  0
 22 21  1  0  0  0  0
 23 25  1  0  0  0  0
 25 24  1  0  0  0  0
 27 26  1  0  0  0  0
 28 29  1  0  0  0  0
 29 27  1  0  0  0  0
 30 18  1  0  0  0  0
 31 32  1  0  0  0  0
 32 30  1  0  0  0  0
 33 32  2  0  0  0  0
 34 36  1  0  0  0  0
 35 36  2  0  0  0  0
 35 37  1  0  0  0  0
 36 33  1  0  0  0  0
 37 31  2  0  0  0  0
M  END
>  <MODEL>
4

>  <REMARK>
 VINA RESULT:      -1.8      3.230      7.816
  Name = 
  9 active torsions:
  status: ('A' for Active; 'I' for Inactive)
    1  A    between atoms: N_1  and  C_5
    2  A    between atoms: O_3  and  C_32
    3  A    between atoms: C_5  and  C_23
    4  A    between atoms: C_6  and  C_31
    5  A    between atoms: C_17  and  C_26
    6  A    between atoms: C_17  and  C_33
    7  A    between atoms: C_24  and  C_28
    8  A    between atoms: C_26  and  C_34
    9  A    between atoms: C_31  and  C_37
                            x       y       z     vdW  Elec       q    Type
                         _______ _______ _______ _____ _____    ______ ____

>  <TORSDO>
F 9

$$$$
