=
 OpenBabel11062408263D

 32 35  0  0  1  0  0  0  0  0999 V2000
  160.3430  209.4010  154.3290 C   0  0  2  0  0  3  0  0  0  0  0  0
  161.6060  208.7210  152.4550 C   0  0  2  0  0  3  0  0  0  0  0  0
  160.6490  207.0870  153.9770 O   0  0  0  0  0  0  0  0  0  0  0  0
  161.3030  208.3310  153.9050 C   0  0  2  0  0  3  0  0  0  0  0  0
  161.7510  206.1220  152.0770 C   0  0  2  0  0  3  0  0  0  0  0  0
  161.5970  206.1260  153.5960 C   0  0  0  0  0  2  0  0  0  0  0  0
  160.5470  209.4880  151.9270 O   0  0  0  0  0  0  0  0  0  0  0  0
  159.7010  209.8130  153.0070 C   0  0  2  0  0  3  0  0  0  0  0  0
  161.9110  207.5370  151.5710 C   0  0  0  0  0  0  0  0  0  0  0  0
  162.4680  207.7490  150.3790 C   0  0  0  0  0  2  0  0  0  0  0  0
  157.6510  212.9720  153.6590 C   0  0  0  0  0  0  0  0  0  0  0  0
  156.5500  213.3900  154.3970 O   0  0  0  0  0  1  0  0  0  0  0  0
  159.1950  211.2320  152.9440 C   0  0  0  0  0  0  0  0  0  0  0  0
  158.3350  213.8990  152.8700 C   0  0  0  0  0  3  0  0  0  0  0  0
  159.8740  212.1780  152.1630 C   0  0  0  0  0  3  0  0  0  0  0  0
  158.0770  211.6350  153.7040 C   0  0  0  0  0  0  0  0  0  0  0  0
  157.3420  210.6550  154.5610 C   0  0  0  0  0  1  0  0  0  0  0  0
  159.4510  213.5080  152.1170 C   0  0  0  0  0  0  0  0  0  0  0  0
  160.3680  214.2160  149.9320 C   0  0  0  0  0  1  0  0  0  0  0  0
  160.1560  214.4160  151.3230 O   0  0  0  0  0  0  0  0  0  0  0  0
  162.4780  210.5660  154.8680 N   0  0  0  0  0  2  0  0  0  0  0  0
  161.0370  210.5410  155.0970 C   0  0  2  0  0  3  0  0  0  0  0  0
  160.7720  210.4290  156.5270 N   0  0  0  0  0  0  0  0  0  0  0  0
  162.0230  210.7620  157.1860 C   0  0  0  0  0  2  0  0  0  0  0  0
  163.0370  211.0580  156.1090 C   0  0  0  0  0  2  0  0  0  0  0  0
  159.8210  211.4750  156.8730 C   0  0  0  0  0  2  0  0  0  0  0  0
  160.2440  212.7890  156.2440 C   0  0  0  0  0  2  0  0  0  0  0  0
  159.8520  213.9330  157.1540 C   0  0  0  0  0  2  0  0  0  0  0  0
  158.4920  214.2010  157.0030 O   0  0  0  0  0  1  0  0  0  0  0  0
  160.5380  205.4510  151.4460 C   0  0  0  0  0  2  0  0  0  0  0  0
  161.0370  204.1800  149.4190 C   0  0  0  0  0  2  0  0  0  0  0  0
  160.9350  204.1960  150.7440 C   0  0  0  0  0  3  0  0  0  0  0  0
  1 22  1  6  0  0  0
  2  9  1  6  0  0  0
  2  4  1  0  0  0  0
  4  3  1  6  0  0  0
  4  1  1  0  0  0  0
  5 30  1  6  0  0  0
  5  6  1  0  0  0  0
  6  3  1  0  0  0  0
  7  2  1  0  0  0  0
  7  8  1  0  0  0  0
  8 13  1  1  0  0  0
  8  1  1  0  0  0  0
  9  5  1  0  0  0  0
 10  9  2  0  0  0  0
 11 16  1  0  0  0  0
 11 12  1  0  0  0  0
 13 16  2  0  0  0  0
 14 11  2  0  0  0  0
 15 13  1  0  0  0  0
 16 17  1  0  0  0  0
 18 15  2  0  0  0  0
 18 14  1  0  0  0  0
 19 20  1  0  0  0  0
 20 18  1  0  0  0  0
 21 25  1  0  0  0  0
 22 21  1  1  0  0  0
 22 23  1  0  0  0  0
 23 26  1  0  0  0  0
 23 24  1  0  0  0  0
 25 24  1  0  0  0  0
 27 26  1  0  0  0  0
 27 28  1  0  0  0  0
 29 28  1  0  0  0  0
 31 32  2  0  0  0  0
 32 30  1  0  0  0  0
M  END
>  <MODEL>
1

>  <REMARK>
 VINA RESULT:      -5.7      0.000      0.000
  Name = 
  8 active torsions:
  status: ('A' for Active; 'I' for Inactive)
    1  A    between atoms: C_1  and  C_5
    2  A    between atoms: C_11  and  C_12
    3  A    between atoms: C_11  and  C_31
    4  A    between atoms: C_13  and  C_18
    5  A    between atoms: N_14  and  C_29
    6  A    between atoms: O_15  and  C_26
    7  A    between atoms: C_16  and  C_27
    8  A    between atoms: C_18  and  C_29
                            x       y       z     vdW  Elec       q    Type
                         _______ _______ _______ _____ _____    ______ ____

>  <TORSDO>
F 8

$$$$
=
 OpenBabel11062408263D

 32 35  0  0  1  0  0  0  0  0999 V2000
  160.4400  209.1180  154.2300 C   0  0  2  0  0  3  0  0  0  0  0  0
  161.6200  208.7330  152.2230 C   0  0  2  0  0  3  0  0  0  0  0  0
  160.8770  206.8830  153.6110 O   0  0  0  0  0  0  0  0  0  0  0  0
  161.4400  208.1720  153.6370 C   0  0  2  0  0  3  0  0  0  0  0  0
  161.9140  206.2060  151.5570 C   0  0  2  0  0  3  0  0  0  0  0  0
  161.8600  206.0400  153.0740 C   0  0  0  0  0  2  0  0  0  0  0  0
  160.4800  209.4710  151.8440 O   0  0  0  0  0  0  0  0  0  0  0  0
  159.6860  209.6180  153.0000 C   0  0  2  0  0  3  0  0  0  0  0  0
  161.9460  207.6730  151.1990 C   0  0  0  0  0  0  0  0  0  0  0  0
  162.4080  208.0490  150.0070 C   0  0  0  0  0  2  0  0  0  0  0  0
  159.0050  213.3450  152.4950 C   0  0  0  0  0  0  0  0  0  0  0  0
  159.5110  214.4310  151.7890 O   0  0  0  0  0  1  0  0  0  0  0  0
  159.0830  210.9950  153.1220 C   0  0  0  0  0  0  0  0  0  0  0  0
  157.8840  213.5220  153.3080 C   0  0  0  0  0  3  0  0  0  0  0  0
  157.9530  211.1890  153.9280 C   0  0  0  0  0  3  0  0  0  0  0  0
  159.6110  212.0820  152.3940 C   0  0  0  0  0  0  0  0  0  0  0  0
  160.8050  211.9040  151.5120 C   0  0  0  0  0  1  0  0  0  0  0  0
  157.3500  212.4450  154.0290 C   0  0  0  0  0  0  0  0  0  0  0  0
  156.2290  213.4010  156.0160 C   0  0  0  0  0  1  0  0  0  0  0  0
  156.2270  212.5930  154.8470 O   0  0  0  0  0  0  0  0  0  0  0  0
  162.5280  210.3570  154.7870 N   0  0  0  0  0  2  0  0  0  0  0  0
  161.1050  210.2200  155.0760 C   0  0  2  0  0  3  0  0  0  0  0  0
  160.9190  209.9540  156.4990 N   0  0  0  0  0  0  0  0  0  0  0  0
  162.1810  210.2990  157.1310 C   0  0  0  0  0  2  0  0  0  0  0  0
  163.1200  210.7610  156.0450 C   0  0  0  0  0  2  0  0  0  0  0  0
  159.9280  210.9000  156.9890 C   0  0  0  0  0  2  0  0  0  0  0  0
  160.5810  212.2420  157.2610 C   0  0  0  0  0  2  0  0  0  0  0  0
  159.5350  213.3330  157.1940 C   0  0  0  0  0  2  0  0  0  0  0  0
  159.8400  214.2060  156.1500 O   0  0  0  0  0  1  0  0  0  0  0  0
  160.7100  205.5170  150.9280 C   0  0  0  0  0  2  0  0  0  0  0  0
  160.9510  203.0850  150.8910 C   0  0  0  0  0  2  0  0  0  0  0  0
  161.1180  204.2450  150.2640 C   0  0  0  0  0  3  0  0  0  0  0  0
  1 22  1  6  0  0  0
  2  9  1  6  0  0  0
  2  4  1  0  0  0  0
  4  3  1  6  0  0  0
  4  1  1  0  0  0  0
  5 30  1  6  0  0  0
  5  6  1  0  0  0  0
  6  3  1  0  0  0  0
  7  2  1  0  0  0  0
  7  8  1  0  0  0  0
  8 13  1  1  0  0  0
  8  1  1  0  0  0  0
  9  5  1  0  0  0  0
 10  9  2  0  0  0  0
 11 14  1  0  0  0  0
 12 11  1  0  0  0  0
 13 15  2  0  0  0  0
 14 18  2  0  0  0  0
 15 18  1  0  0  0  0
 16 11  2  0  0  0  0
 16 13  1  0  0  0  0
 17 16  1  0  0  0  0
 18 20  1  0  0  0  0
 20 19  1  0  0  0  0
 21 25  1  0  0  0  0
 22 21  1  1  0  0  0
 22 23  1  0  0  0  0
 23 26  1  0  0  0  0
 23 24  1  0  0  0  0
 25 24  1  0  0  0  0
 26 27  1  0  0  0  0
 28 27  1  0  0  0  0
 29 28  1  0  0  0  0
 32 31  2  0  0  0  0
 32 30  1  0  0  0  0
M  END
>  <MODEL>
2

>  <REMARK>
 VINA RESULT:      -5.0      0.818      2.248
  Name = 
  8 active torsions:
  status: ('A' for Active; 'I' for Inactive)
    1  A    between atoms: C_1  and  C_5
    2  A    between atoms: C_11  and  C_12
    3  A    between atoms: C_11  and  C_31
    4  A    between atoms: C_13  and  C_18
    5  A    between atoms: N_14  and  C_29
    6  A    between atoms: O_15  and  C_26
    7  A    between atoms: C_16  and  C_27
    8  A    between atoms: C_18  and  C_29
                            x       y       z     vdW  Elec       q    Type
                         _______ _______ _______ _____ _____    ______ ____

>  <TORSDO>
F 8

$$$$
=
 OpenBabel11062408263D

 32 35  0  0  1  0  0  0  0  0999 V2000
  160.8270  211.4730  154.4100 C   0  0  2  0  0  3  0  0  0  0  0  0
  158.5560  211.1130  154.9390 C   0  0  2  0  0  3  0  0  0  0  0  0
  159.5780  213.2970  155.2380 O   0  0  0  0  0  0  0  0  0  0  0  0
  159.7830  211.9130  155.3900 C   0  0  2  0  0  3  0  0  0  0  0  0
  157.2260  213.2490  155.7050 C   0  0  2  0  0  3  0  0  0  0  0  0
  158.6150  213.6560  156.1910 C   0  0  0  0  0  2  0  0  0  0  0  0
  158.6770  210.7640  153.5780 O   0  0  0  0  0  0  0  0  0  0  0  0
  159.9950  211.0800  153.1920 C   0  0  2  0  0  3  0  0  0  0  0  0
  157.2510  211.8240  155.2030 C   0  0  0  0  0  0  0  0  0  0  0  0
  156.1140  211.1320  155.1310 C   0  0  0  0  0  2  0  0  0  0  0  0
  161.8360  209.4020  150.2930 C   0  0  0  0  0  0  0  0  0  0  0  0
  162.4580  209.7340  149.0960 O   0  0  0  0  0  1  0  0  0  0  0  0
  160.6080  210.0320  152.2970 C   0  0  0  0  0  0  0  0  0  0  0  0
  161.8100  208.0660  150.7010 C   0  0  0  0  0  3  0  0  0  0  0  0
  160.5990  208.6870  152.6950 C   0  0  0  0  0  3  0  0  0  0  0  0
  161.2370  210.3930  151.0880 C   0  0  0  0  0  0  0  0  0  0  0  0
  161.2800  211.8190  150.6440 C   0  0  0  0  0  1  0  0  0  0  0  0
  161.1920  207.7010  151.9050 C   0  0  0  0  0  0  0  0  0  0  0  0
  161.4410  205.9950  153.6790 C   0  0  0  0  0  1  0  0  0  0  0  0
  161.1570  206.3740  152.3390 O   0  0  0  0  0  0  0  0  0  0  0  0
  160.9850  209.1200  155.2130 N   0  0  0  0  0  2  0  0  0  0  0  0
  161.7250  210.3540  154.9720 C   0  0  2  0  0  3  0  0  0  0  0  0
  162.3680  210.7880  156.2080 N   0  0  0  0  0  0  0  0  0  0  0  0
  162.3330  209.6370  157.0930 C   0  0  0  0  0  2  0  0  0  0  0  0
  161.6400  208.5190  156.3550 C   0  0  0  0  0  2  0  0  0  0  0  0
  163.7670  211.0420  155.8990 C   0  0  0  0  0  2  0  0  0  0  0  0
  164.5260  211.3740  157.1700 C   0  0  0  0  0  2  0  0  0  0  0  0
  165.5820  212.4160  156.8690 C   0  0  0  0  0  2  0  0  0  0  0  0
  166.0680  212.2230  155.5760 O   0  0  0  0  0  1  0  0  0  0  0  0
  156.7720  214.2050  154.6090 C   0  0  0  0  0  2  0  0  0  0  0  0
  154.5030  214.0720  153.7090 C   0  0  0  0  0  2  0  0  0  0  0  0
  155.3030  214.4510  154.7000 C   0  0  0  0  0  3  0  0  0  0  0  0
  1 22  1  1  0  0  0
  1  4  1  0  0  0  0
  2  7  1  6  0  0  0
  2  9  1  0  0  0  0
  2  4  1  0  0  0  0
  3  6  1  0  0  0  0
  4  3  1  6  0  0  0
  5 30  1  6  0  0  0
  5  6  1  0  0  0  0
  8 13  1  1  0  0  0
  8  7  1  0  0  0  0
  8  1  1  0  0  0  0
  9  5  1  0  0  0  0
 10  9  2  0  0  0  0
 11 14  2  0  0  0  0
 11 16  1  0  0  0  0
 12 11  1  0  0  0  0
 13 15  1  0  0  0  0
 14 18  1  0  0  0  0
 16 13  2  0  0  0  0
 17 16  1  0  0  0  0
 18 20  1  0  0  0  0
 18 15  2  0  0  0  0
 20 19  1  0  0  0  0
 21 25  1  0  0  0  0
 22 21  1  1  0  0  0
 22 23  1  0  0  0  0
 23 24  1  0  0  0  0
 25 24  1  0  0  0  0
 26 23  1  0  0  0  0
 26 27  1  0  0  0  0
 28 27  1  0  0  0  0
 29 28  1  0  0  0  0
 30 32  1  0  0  0  0
 31 32  2  0  0  0  0
M  END
>  <MODEL>
3

>  <REMARK>
 VINA RESULT:      -3.3      2.244      6.536
  Name = 
  8 active torsions:
  status: ('A' for Active; 'I' for Inactive)
    1  A    between atoms: C_1  and  C_5
    2  A    between atoms: C_11  and  C_12
    3  A    between atoms: C_11  and  C_31
    4  A    between atoms: C_13  and  C_18
    5  A    between atoms: N_14  and  C_29
    6  A    between atoms: O_15  and  C_26
    7  A    between atoms: C_16  and  C_27
    8  A    between atoms: C_18  and  C_29
                            x       y       z     vdW  Elec       q    Type
                         _______ _______ _______ _____ _____    ______ ____

>  <TORSDO>
F 8

$$$$
=
 OpenBabel11062408263D

 32 35  0  0  1  0  0  0  0  0999 V2000
  159.5830  210.8720  152.9790 C   0  0  2  0  0  3  0  0  0  0  0  0
  161.2540  210.9410  154.6440 C   0  0  2  0  0  3  0  0  0  0  0  0
  159.0260  210.1100  155.1430 O   0  0  0  0  0  0  0  0  0  0  0  0
  159.7430  211.1040  154.4520 C   0  0  2  0  0  3  0  0  0  0  0  0
  160.5680  209.9250  156.9710 C   0  0  2  0  0  3  0  0  0  0  0  0
  159.1890  210.3900  156.5070 C   0  0  0  0  0  2  0  0  0  0  0  0
  161.7920  210.1400  153.6160 O   0  0  0  0  0  0  0  0  0  0  0  0
  160.7750  209.9760  152.6540 C   0  0  2  0  0  3  0  0  0  0  0  0
  161.6260  210.4010  156.0040 C   0  0  0  0  0  0  0  0  0  0  0  0
  162.8940  210.4840  156.4050 C   0  0  0  0  0  2  0  0  0  0  0  0
  161.9820  209.0180  149.1560 C   0  0  0  0  0  0  0  0  0  0  0  0
  162.2380  207.8850  148.3940 O   0  0  0  0  0  1  0  0  0  0  0  0
  161.2900  210.0680  151.2390 C   0  0  0  0  0  0  0  0  0  0  0  0
  162.1670  210.2790  148.5850 C   0  0  0  0  0  3  0  0  0  0  0  0
  161.4740  211.3260  150.6480 C   0  0  0  0  0  3  0  0  0  0  0  0
  161.5410  208.9040  150.4840 C   0  0  0  0  0  0  0  0  0  0  0  0
  161.3380  207.5480  151.0790 C   0  0  0  0  0  1  0  0  0  0  0  0
  161.9130  211.4410  149.3280 C   0  0  0  0  0  0  0  0  0  0  0  0
  162.6410  212.9270  147.4890 C   0  0  0  0  0  1  0  0  0  0  0  0
  162.0860  212.7150  148.7800 O   0  0  0  0  0  0  0  0  0  0  0  0
  160.0370  213.3220  152.9440 N   0  0  0  0  0  2  0  0  0  0  0  0
  159.5240  212.1880  152.1810 C   0  0  2  0  0  3  0  0  0  0  0  0
  158.1560  212.4660  151.7560 N   0  0  0  0  0  0  0  0  0  0  0  0
  157.9730  213.8960  151.9310 C   0  0  0  0  0  2  0  0  0  0  0  0
  159.2610  214.4530  152.4840 C   0  0  0  0  0  2  0  0  0  0  0  0
  158.0870  212.2020  150.3260 C   0  0  0  0  0  2  0  0  0  0  0  0
  157.3130  213.3070  149.6320 C   0  0  0  0  0  2  0  0  0  0  0  0
  157.4960  213.1850  148.1350 C   0  0  0  0  0  2  0  0  0  0  0  0
  158.8570  213.1870  147.8310 O   0  0  0  0  0  1  0  0  0  0  0  0
  160.5780  208.4060  157.0880 C   0  0  0  0  0  2  0  0  0  0  0  0
  160.5390  207.0840  155.0330 C   0  0  0  0  0  2  0  0  0  0  0  0
  161.2490  207.7920  155.9050 C   0  0  0  0  0  3  0  0  0  0  0  0
  1 22  1  6  0  0  0
  1  4  1  0  0  0  0
  2  7  1  6  0  0  0
  2  9  1  0  0  0  0
  3  6  1  0  0  0  0
  4  2  1  0  0  0  0
  4  3  1  1  0  0  0
  5 30  1  6  0  0  0
  6  5  1  0  0  0  0
  8 13  1  6  0  0  0
  8  1  1  0  0  0  0
  8  7  1  0  0  0  0
  9 10  2  0  0  0  0
  9  5  1  0  0  0  0
 11 16  1  0  0  0  0
 12 11  1  0  0  0  0
 14 11  2  0  0  0  0
 14 18  1  0  0  0  0
 15 13  1  0  0  0  0
 16 17  1  0  0  0  0
 16 13  2  0  0  0  0
 18 15  2  0  0  0  0
 19 20  1  0  0  0  0
 20 18  1  0  0  0  0
 22 21  1  1  0  0  0
 23 24  1  0  0  0  0
 23 22  1  0  0  0  0
 24 25  1  0  0  0  0
 25 21  1  0  0  0  0
 26 23  1  0  0  0  0
 27 26  1  0  0  0  0
 28 27  1  0  0  0  0
 29 28  1  0  0  0  0
 31 32  2  0  0  0  0
 32 30  1  0  0  0  0
M  END
>  <MODEL>
4

>  <REMARK>
 VINA RESULT:      -3.0      2.617      5.764
  Name = 
  8 active torsions:
  status: ('A' for Active; 'I' for Inactive)
    1  A    between atoms: C_1  and  C_5
    2  A    between atoms: C_11  and  C_12
    3  A    between atoms: C_11  and  C_31
    4  A    between atoms: C_13  and  C_18
    5  A    between atoms: N_14  and  C_29
    6  A    between atoms: O_15  and  C_26
    7  A    between atoms: C_16  and  C_27
    8  A    between atoms: C_18  and  C_29
                            x       y       z     vdW  Elec       q    Type
                         _______ _______ _______ _____ _____    ______ ____

>  <TORSDO>
F 8

$$$$
