=
 OpenBabel11062407583D

 34 39  0  0  1  0  0  0  0  0999 V2000
  160.2760  212.6110  150.5260 C   0  0  0  0  0  0  0  0  0  0  0  0
  161.9530  210.9630  149.8560 C   0  0  0  0  0  0  0  0  0  0  0  0
  160.5660  210.5250  151.8450 N   0  0  0  0  0  0  0  0  0  0  0  0
  160.7570  207.9040  154.4310 C   0  0  0  0  0  3  0  0  0  0  0  0
  161.6410  212.9690  148.4660 C   0  0  0  0  0  3  0  0  0  0  0  0
  162.3130  211.8440  148.7300 C   0  0  0  0  0  3  0  0  0  0  0  0
  161.0230  208.0650  151.4950 C   0  0  0  0  0  2  0  0  0  0  0  0
  160.9640  211.3090  150.7040 C   0  0  0  0  0  0  0  0  0  0  0  0
  161.9040  205.7420  151.7210 C   0  0  0  0  0  3  0  0  0  0  0  0
  161.3050  206.8560  153.7960 C   0  0  0  0  0  3  0  0  0  0  0  0
  160.4420  213.4040  149.2630 C   0  0  0  0  0  2  0  0  0  0  0  0
  159.7940  211.1440  152.8730 C   0  0  0  0  0  0  0  0  0  0  0  0
  159.4720  213.0660  151.4970 C   0  0  0  0  0  3  0  0  0  0  0  0
  162.6890  209.7990  150.0320 O   0  0  0  0  0  1  0  0  0  0  0  0
  160.2160  209.0060  153.5790 C   0  0  1  0  0  3  0  0  0  0  0  0
  159.7050  210.3360  154.1250 C   0  0  1  0  0  3  0  0  0  0  0  0
  161.4360  206.8430  152.3090 C   0  0  0  0  0  0  0  0  0  0  0  0
  161.1180  209.2960  152.3910 C   0  0  2  0  0  3  0  0  0  0  0  0
  159.2770  212.3260  152.7170 N   0  0  0  0  0  0  0  0  0  0  0  0
  162.1670  211.9680  157.2610 C   0  0  0  0  0  3  0  0  0  0  0  0
  162.7580  211.1970  156.2570 C   0  0  0  0  0  0  0  0  0  0  0  0
  160.5870  210.8990  155.2070 C   0  0  0  0  0  0  0  0  0  0  0  0
  160.7900  212.2050  157.2410 C   0  0  0  0  0  3  0  0  0  0  0  0
  161.9720  210.6630  155.2320 C   0  0  0  0  0  3  0  0  0  0  0  0
  160.0020  211.6700  156.2170 C   0  0  0  0  0  3  0  0  0  0  0  0
  164.0930  210.9680  156.2760 F   0  0  0  0  0  0  0  0  0  0  0  0
  162.0690  205.6000  150.2390 C   0  0  0  0  0  2  0  0  0  0  0  0
  160.4310  202.8240  149.6930 O   0  0  0  0  0  0  0  0  0  0  0  0
  160.7670  205.1620  149.5730 C   0  0  2  0  0  3  0  0  0  0  0  0
  160.8730  203.7570  149.0440 C   0  0  0  0  0  0  0  0  0  0  0  0
  161.1280  204.5020  146.6920 C   0  0  0  0  0  2  0  0  0  0  0  0
  161.2720  205.9310  147.2080 C   0  0  0  0  0  2  0  0  0  0  0  0
  160.3930  206.1300  148.4470 C   0  0  0  0  0  2  0  0  0  0  0  0
  161.5870  203.5010  147.7500 C   0  0  0  0  0  2  0  0  0  0  0  0
  1  8  1  0  0  0  0
  1 13  2  0  0  0  0
  2 14  1  0  0  0  0
  2  8  2  0  0  0  0
  3 18  1  0  0  0  0
  3 12  1  0  0  0  0
  5  6  2  0  0  0  0
  5 11  1  0  0  0  0
  6  2  1  0  0  0  0
  7 17  1  0  0  0  0
  8  3  1  0  0  0  0
  9 17  2  0  0  0  0
 10  4  2  0  0  0  0
 11  1  1  0  0  0  0
 12 16  1  0  0  0  0
 13 19  1  0  0  0  0
 15 16  1  0  0  0  0
 15  4  1  1  0  0  0
 16 22  1  1  0  0  0
 17 10  1  0  0  0  0
 18  7  1  6  0  0  0
 18 15  1  0  0  0  0
 19 12  2  0  0  0  0
 21 26  1  0  0  0  0
 21 20  2  0  0  0  0
 22 24  2  0  0  0  0
 22 25  1  0  0  0  0
 23 20  1  0  0  0  0
 24 21  1  0  0  0  0
 25 23  2  0  0  0  0
 27  9  1  0  0  0  0
 29 27  1  6  0  0  0
 30 29  1  0  0  0  0
 30 28  2  0  0  0  0
 31 32  1  0  0  0  0
 31 34  1  0  0  0  0
 32 33  1  0  0  0  0
 33 29  1  0  0  0  0
 34 30  1  0  0  0  0
M  END
>  <MODEL>
1

>  <REMARK>
 VINA RESULT:      -8.3      0.000      0.000
  Name = 
  3 active torsions:
  status: ('A' for Active; 'I' for Inactive)
    1  A    between atoms: C_3  and  C_13
    2  A    between atoms: C_3  and  C_17
    3  A    between atoms: C_12  and  C_28
                            x       y       z     vdW  Elec       q    Type
                         _______ _______ _______ _____ _____    ______ ____

>  <TORSDO>
F 3

$$$$
=
 OpenBabel11062407583D

 34 39  0  0  1  0  0  0  0  0999 V2000
  161.2910  209.1250  155.9200 C   0  0  0  0  0  0  0  0  0  0  0  0
  160.4620  207.1550  154.7330 C   0  0  0  0  0  0  0  0  0  0  0  0
  161.4300  209.0160  153.4410 N   0  0  0  0  0  0  0  0  0  0  0  0
  161.5550  209.6710  149.8150 C   0  0  0  0  0  3  0  0  0  0  0  0
  160.3850  207.1770  157.1920 C   0  0  0  0  0  3  0  0  0  0  0  0
  160.0890  206.5750  156.0360 C   0  0  0  0  0  3  0  0  0  0  0  0
  161.9170  207.3510  151.6040 C   0  0  0  0  0  2  0  0  0  0  0  0
  161.0590  208.3610  154.6700 C   0  0  1  0  0  3  0  0  0  0  0  0
  161.8400  206.0470  149.4790 C   0  0  0  0  0  3  0  0  0  0  0  0
  161.5480  208.4490  149.2600 C   0  0  0  0  0  3  0  0  0  0  0  0
  161.1570  208.4670  157.2610 C   0  0  0  0  0  3  0  0  0  0  0  0
  161.6980  210.4170  153.4580 C   0  0  0  0  0  0  0  0  0  0  0  0
  161.6560  210.4120  155.8430 C   0  0  0  0  0  3  0  0  0  0  0  0
  160.1390  206.4410  153.5870 O   0  0  0  0  0  1  0  0  0  0  0  0
  161.8710  209.7520  151.2730 C   0  0  1  0  0  3  0  0  0  0  0  0
  161.7700  211.0310  152.1000 C   0  0  1  0  0  3  0  0  0  0  0  0
  161.7670  207.2290  150.0910 C   0  0  0  0  0  0  0  0  0  0  0  0
  161.2150  208.6280  152.0570 C   0  0  2  0  0  3  0  0  0  0  0  0
  161.8090  211.0750  154.5740 N   0  0  0  0  0  0  0  0  0  0  0  0
  158.1920  213.2850  151.2760 C   0  0  0  0  0  3  0  0  0  0  0  0
  159.3330  213.5030  150.5000 C   0  0  0  0  0  0  0  0  0  0  0  0
  160.5310  211.8280  151.7900 C   0  0  0  0  0  0  0  0  0  0  0  0
  158.2170  212.3430  152.3070 C   0  0  0  0  0  3  0  0  0  0  0  0
  160.5000  212.7770  150.7550 C   0  0  0  0  0  3  0  0  0  0  0  0
  159.3850  211.6170  152.5640 C   0  0  0  0  0  3  0  0  0  0  0  0
  159.3090  214.4160  149.5000 F   0  0  0  0  0  0  0  0  0  0  0  0
  162.0700  204.7530  150.1980 C   0  0  0  0  0  2  0  0  0  0  0  0
  160.4730  203.2090  152.5970 O   0  0  0  0  0  0  0  0  0  0  0  0
  160.7670  203.9780  150.3790 C   0  0  2  0  0  3  0  0  0  0  0  0
  160.8910  202.9580  151.4790 C   0  0  0  0  0  0  0  0  0  0  0  0
  161.1040  201.0590  149.8990 C   0  0  0  0  0  2  0  0  0  0  0  0
  161.2290  202.0740  148.7660 C   0  0  0  0  0  2  0  0  0  0  0  0
  160.3630  203.3010  149.0660 C   0  0  0  0  0  2  0  0  0  0  0  0
  161.5930  201.6590  151.2150 C   0  0  0  0  0  2  0  0  0  0  0  0
  1 11  1  0  0  0  0
  2  6  2  0  0  0  0
  3 12  1  0  0  0  0
  3  8  1  0  0  0  0
  5 11  2  0  0  0  0
  6  5  1  0  0  0  0
  8  2  1  6  0  0  0
  8  1  1  0  0  0  0
  9 17  2  0  0  0  0
  9 27  1  0  0  0  0
 10  4  2  0  0  0  0
 10 17  1  0  0  0  0
 12 19  2  0  0  0  0
 13  1  2  0  0  0  0
 14  2  1  0  0  0  0
 15  4  1  6  0  0  0
 15 18  1  0  0  0  0
 15 16  1  0  0  0  0
 16 22  1  6  0  0  0
 16 12  1  0  0  0  0
 17  7  1  0  0  0  0
 18  7  1  1  0  0  0
 18  3  1  0  0  0  0
 19 13  1  0  0  0  0
 20 23  1  0  0  0  0
 21 24  1  0  0  0  0
 21 20  2  0  0  0  0
 22 25  1  0  0  0  0
 23 25  2  0  0  0  0
 24 22  2  0  0  0  0
 26 21  1  0  0  0  0
 29 27  1  6  0  0  0
 29 30  1  0  0  0  0
 30 28  2  0  0  0  0
 31 34  1  0  0  0  0
 32 33  1  0  0  0  0
 32 31  1  0  0  0  0
 33 29  1  0  0  0  0
 34 30  1  0  0  0  0
M  END
>  <MODEL>
2

>  <REMARK>
 VINA RESULT:      -6.8      2.527      5.154
  Name = 
  3 active torsions:
  status: ('A' for Active; 'I' for Inactive)
    1  A    between atoms: C_3  and  C_13
    2  A    between atoms: C_3  and  C_17
    3  A    between atoms: C_12  and  C_28
                            x       y       z     vdW  Elec       q    Type
                         _______ _______ _______ _____ _____    ______ ____

>  <TORSDO>
F 3

$$$$
=
 OpenBabel11062407583D

 34 39  0  0  1  0  0  0  0  0999 V2000
  161.6870  209.0850  155.7090 C   0  0  0  0  0  0  0  0  0  0  0  0
  160.3160  207.2660  154.8220 C   0  0  0  0  0  0  0  0  0  0  0  0
  161.5720  208.6950  153.2570 N   0  0  0  0  0  0  0  0  0  0  0  0
  161.5190  208.9300  149.5780 C   0  0  0  0  0  3  0  0  0  0  0  0
  160.4690  207.5550  157.2610 C   0  0  0  0  0  3  0  0  0  0  0  0
  159.9370  206.9290  156.2070 C   0  0  0  0  0  3  0  0  0  0  0  0
  161.4870  206.7840  151.6060 C   0  0  0  0  0  2  0  0  0  0  0  0
  161.1710  208.2780  154.5770 C   0  0  1  0  0  3  0  0  0  0  0  0
  160.9160  205.3300  149.6620 C   0  0  0  0  0  3  0  0  0  0  0  0
  161.1750  207.6960  149.1760 C   0  0  0  0  0  3  0  0  0  0  0  0
  161.5250  208.6180  157.1250 C   0  0  0  0  0  3  0  0  0  0  0  0
  162.1610  209.9840  153.0890 C   0  0  0  0  0  0  0  0  0  0  0  0
  162.3350  210.2310  155.4550 C   0  0  0  0  0  3  0  0  0  0  0  0
  159.7330  206.5390  153.7930 O   0  0  0  0  0  1  0  0  0  0  0  0
  161.9750  209.0790  150.9930 C   0  0  1  0  0  3  0  0  0  0  0  0
  162.2510  210.4210  151.6650 C   0  0  1  0  0  3  0  0  0  0  0  0
  161.1770  206.5500  150.1320 C   0  0  0  0  0  0  0  0  0  0  0  0
  161.1480  208.2320  151.9460 C   0  0  2  0  0  3  0  0  0  0  0  0
  162.5240  210.7040  154.1080 N   0  0  0  0  0  0  0  0  0  0  0  0
  159.3040  213.4010  150.6680 C   0  0  0  0  0  3  0  0  0  0  0  0
  159.1620  212.6630  151.8460 C   0  0  0  0  0  0  0  0  0  0  0  0
  161.2110  211.4590  151.3410 C   0  0  0  0  0  0  0  0  0  0  0  0
  160.3960  213.1700  149.8270 C   0  0  0  0  0  3  0  0  0  0  0  0
  160.1110  211.6950  152.1830 C   0  0  0  0  0  3  0  0  0  0  0  0
  161.3460  212.2010  150.1630 C   0  0  0  0  0  3  0  0  0  0  0  0
  158.1030  212.8870  152.6610 F   0  0  0  0  0  0  0  0  0  0  0  0
  160.9000  204.0980  150.5150 C   0  0  0  0  0  2  0  0  0  0  0  0
  162.3170  203.4410  147.6440 O   0  0  0  0  0  0  0  0  0  0  0  0
  161.7100  202.9710  149.8810 C   0  0  2  0  0  3  0  0  0  0  0  0
  161.5030  202.9250  148.3900 C   0  0  0  0  0  0  0  0  0  0  0  0
  159.9890  200.9650  148.5100 C   0  0  0  0  0  2  0  0  0  0  0  0
  159.9750  201.1260  150.0280 C   0  0  0  0  0  2  0  0  0  0  0  0
  161.3380  201.6260  150.5130 C   0  0  0  0  0  2  0  0  0  0  0  0
  160.2570  202.3060  147.8300 C   0  0  0  0  0  2  0  0  0  0  0  0
  1 11  1  0  0  0  0
  2  6  2  0  0  0  0
  3  8  1  0  0  0  0
  6  5  1  0  0  0  0
  8  2  1  6  0  0  0
  8  1  1  0  0  0  0
  9 17  2  0  0  0  0
  9 27  1  0  0  0  0
 10  4  2  0  0  0  0
 10 17  1  0  0  0  0
 11  5  2  0  0  0  0
 12  3  1  0  0  0  0
 12 19  2  0  0  0  0
 13  1  2  0  0  0  0
 14  2  1  0  0  0  0
 15  4  1  6  0  0  0
 15 16  1  0  0  0  0
 15 18  1  0  0  0  0
 16 22  1  6  0  0  0
 16 12  1  0  0  0  0
 17  7  1  0  0  0  0
 18  7  1  1  0  0  0
 18  3  1  0  0  0  0
 19 13  1  0  0  0  0
 20 21  1  0  0  0  0
 21 24  2  0  0  0  0
 21 26  1  0  0  0  0
 22 24  1  0  0  0  0
 23 25  1  0  0  0  0
 23 20  2  0  0  0  0
 25 22  2  0  0  0  0
 28 30  2  0  0  0  0
 29 33  1  0  0  0  0
 29 27  1  1  0  0  0
 30 29  1  0  0  0  0
 31 32  1  0  0  0  0
 32 33  1  0  0  0  0
 34 30  1  0  0  0  0
 34 31  1  0  0  0  0
M  END
>  <MODEL>
3

>  <REMARK>
 VINA RESULT:      -5.9      2.360      5.218
  Name = 
  3 active torsions:
  status: ('A' for Active; 'I' for Inactive)
    1  A    between atoms: C_3  and  C_13
    2  A    between atoms: C_3  and  C_17
    3  A    between atoms: C_12  and  C_28
                            x       y       z     vdW  Elec       q    Type
                         _______ _______ _______ _____ _____    ______ ____

>  <TORSDO>
F 3

$$$$
=
 OpenBabel11062407583D

 34 39  0  0  1  0  0  0  0  0999 V2000
  160.9980  208.2090  154.7370 C   0  0  0  0  0  0  0  0  0  0  0  0
  160.6620  208.8360  152.3980 C   0  0  0  0  0  0  0  0  0  0  0  0
  160.0990  210.4540  154.1680 N   0  0  0  0  0  0  0  0  0  0  0  0
  158.3750  213.7110  154.0450 C   0  0  0  0  0  3  0  0  0  0  0  0
  161.6400  206.6360  152.9070 C   0  0  0  0  0  3  0  0  0  0  0  0
  161.1650  207.5060  152.0090 C   0  0  0  0  0  3  0  0  0  0  0  0
  160.4080  212.2830  152.4510 C   0  0  0  0  0  2  0  0  0  0  0  0
  160.6030  209.1890  153.6970 C   0  0  1  0  0  3  0  0  0  0  0  0
  159.9920  214.1000  150.7950 C   0  0  0  0  0  3  0  0  0  0  0  0
  158.6490  214.1810  152.8180 C   0  0  0  0  0  3  0  0  0  0  0  0
  161.7420  206.9580  154.3730 C   0  0  0  0  0  3  0  0  0  0  0  0
  159.7270  210.5830  155.5390 C   0  0  0  0  0  0  0  0  0  0  0  0
  160.7130  208.4650  156.0210 C   0  0  0  0  0  3  0  0  0  0  0  0
  160.2180  209.6820  151.3920 O   0  0  0  0  0  1  0  0  0  0  0  0
  159.2150  212.5790  154.5410 C   0  0  1  0  0  3  0  0  0  0  0  0
  158.9460  211.8190  155.8360 C   0  0  1  0  0  3  0  0  0  0  0  0
  159.6950  213.5400  151.9670 C   0  0  0  0  0  0  0  0  0  0  0  0
  159.5010  211.5650  153.4460 C   0  0  2  0  0  3  0  0  0  0  0  0
  160.0140  209.6620  156.4110 N   0  0  0  0  0  0  0  0  0  0  0  0
  154.7630  210.9990  156.4640 C   0  0  0  0  0  3  0  0  0  0  0  0
  155.4500  210.3220  155.4540 C   0  0  0  0  0  0  0  0  0  0  0  0
  157.4860  211.5120  156.0390 C   0  0  0  0  0  0  0  0  0  0  0  0
  155.4330  211.9320  157.2610 C   0  0  0  0  0  3  0  0  0  0  0  0
  156.8080  210.5760  155.2400 C   0  0  0  0  0  3  0  0  0  0  0  0
  156.7910  212.1880  157.0470 C   0  0  0  0  0  3  0  0  0  0  0  0
  154.8010  209.4180  154.6810 F   0  0  0  0  0  0  0  0  0  0  0  0
  161.0290  213.5620  149.8580 C   0  0  0  0  0  2  0  0  0  0  0  0
  161.8570  210.9110  148.1340 O   0  0  0  0  0  0  0  0  0  0  0  0
  160.4070  212.6570  148.7980 C   0  0  2  0  0  3  0  0  0  0  0  0
  161.4630  212.0440  147.9180 C   0  0  0  0  0  0  0  0  0  0  0  0
  160.9920  213.5790  146.0280 C   0  0  0  0  0  2  0  0  0  0  0  0
  160.0910  214.3810  146.9630 C   0  0  0  0  0  2  0  0  0  0  0  0
  159.3980  213.4420  147.9530 C   0  0  0  0  0  2  0  0  0  0  0  0
  162.0810  212.8580  146.8190 C   0  0  0  0  0  2  0  0  0  0  0  0
  1 13  2  0  0  0  0
  3 12  1  0  0  0  0
  5 11  2  0  0  0  0
  6  2  2  0  0  0  0
  6  5  1  0  0  0  0
  8  2  1  1  0  0  0
  8  3  1  0  0  0  0
  8  1  1  0  0  0  0
  9 17  2  0  0  0  0
 10  4  2  0  0  0  0
 11  1  1  0  0  0  0
 12 16  1  0  0  0  0
 12 19  2  0  0  0  0
 13 19  1  0  0  0  0
 14  2  1  0  0  0  0
 15  4  1  6  0  0  0
 15 16  1  0  0  0  0
 16 22  1  6  0  0  0
 17  7  1  0  0  0  0
 17 10  1  0  0  0  0
 18  7  1  6  0  0  0
 18  3  1  0  0  0  0
 18 15  1  0  0  0  0
 20 23  1  0  0  0  0
 21 20  2  0  0  0  0
 22 25  1  0  0  0  0
 24 21  1  0  0  0  0
 24 22  2  0  0  0  0
 25 23  2  0  0  0  0
 26 21  1  0  0  0  0
 27  9  1  0  0  0  0
 29 27  1  1  0  0  0
 30 28  2  0  0  0  0
 30 29  1  0  0  0  0
 31 34  1  0  0  0  0
 31 32  1  0  0  0  0
 32 33  1  0  0  0  0
 33 29  1  0  0  0  0
 34 30  1  0  0  0  0
M  END
>  <MODEL>
4

>  <REMARK>
 VINA RESULT:      -5.8      3.297      6.467
  Name = 
  3 active torsions:
  status: ('A' for Active; 'I' for Inactive)
    1  A    between atoms: C_3  and  C_13
    2  A    between atoms: C_3  and  C_17
    3  A    between atoms: C_12  and  C_28
                            x       y       z     vdW  Elec       q    Type
                         _______ _______ _______ _____ _____    ______ ____

>  <TORSDO>
F 3

$$$$
