=
 OpenBabel11062408403D

 55 60  0  0  1  0  0  0  0  0999 V2000
  160.6700  213.1920  150.5380 C   0  0  0  0  0  2  0  0  0  0  0  0
  159.8200  208.7350  151.3940 O   0  0  0  0  0  1  0  0  0  0  0  0
  161.9010  209.3440  154.4220 C   0  0  0  0  0  2  0  0  0  0  0  0
  159.8430  209.9030  156.3850 C   0  0  0  0  0  3  0  0  0  0  0  0
  158.7720  210.0830  157.2590 C   0  0  0  0  0  3  0  0  0  0  0  0
  159.4890  212.1290  155.4720 C   0  0  0  0  0  0  0  0  0  0  0  0
  158.4320  212.3010  156.3750 C   0  0  0  0  0  3  0  0  0  0  0  0
  162.2670  211.7840  154.2510 C   0  0  0  0  0  1  0  0  0  0  0  0
  158.0720  211.2860  157.2610 C   0  0  0  0  0  3  0  0  0  0  0  0
  162.2520  213.2920  148.6060 C   0  0  0  0  0  3  0  0  0  0  0  0
  160.2350  210.9170  155.4910 C   0  0  0  0  0  0  0  0  0  0  0  0
  162.1520  210.5130  148.2740 C   0  0  0  0  0  0  0  0  0  0  0  0
  159.3560  212.4960  150.8650 C   0  0  0  0  0  2  0  0  0  0  0  0
  161.3610  211.1380  149.2420 C   0  0  0  0  0  3  0  0  0  0  0  0
  158.9720  213.2790  153.2310 C   0  0  1  0  0  3  0  0  0  0  0  0
  162.2000  209.2040  151.3540 C   0  0  0  0  0  2  0  0  0  0  0  0
  159.7890  213.2670  154.5370 C   0  0  0  0  0  2  0  0  0  0  0  0
  160.8850  209.2590  152.1320 C   0  0  2  0  0  3  0  0  0  0  0  0
  160.9880  208.5660  153.4790 C   0  0  0  0  0  2  0  0  0  0  0  0
  163.0380  212.6730  147.6270 C   0  0  0  0  0  3  0  0  0  0  0  0
  162.3030  207.9960  150.4210 C   0  0  1  0  0  3  0  0  0  0  0  0
  161.4020  212.5280  149.4130 C   0  0  0  0  0  0  0  0  0  0  0  0
  161.3930  210.6950  154.6570 N   0  0  0  0  0  0  0  0  0  0  0  0
  159.3220  212.0930  152.3320 C   0  0  0  0  0  2  0  0  0  0  0  0
  163.0480  208.3370  149.1310 C   0  0  0  0  0  2  0  0  0  0  0  0
  162.1240  209.0250  148.1260 C   0  0  0  0  0  2  0  0  0  0  0  0
  162.9910  211.2850  147.4650 C   0  0  0  0  0  3  0  0  0  0  0  0
  155.5690  210.8300  155.1500 C   0  0  0  0  0  0  0  0  0  0  0  0
  157.1080  214.2170  154.7100 C   0  0  0  0  0  2  0  0  0  0  0  0
  155.2030  210.6650  156.5140 N   0  0  0  0  0  1  0  0  0  0  0  0
  156.1900  212.0420  154.7080 N   0  0  0  0  0  0  0  0  0  0  0  0
  156.9290  214.3990  152.2290 C   0  0  0  0  0  1  0  0  0  0  0  0
  156.6840  212.2320  153.3580 C   0  0  0  0  0  2  0  0  0  0  0  0
  155.3430  209.8990  154.3350 O   0  0  0  0  0  0  0  0  0  0  0  0
  156.4680  213.1550  155.5870 C   0  0  0  0  0  2  0  0  0  0  0  0
  157.4490  213.5470  153.3760 C   0  0  1  0  0  0  0  0  0  0  0  0
  162.8790  206.8320  151.0990 N   0  0  0  0  0  2  0  0  0  0  0  0
  161.8300  205.9090  151.5260 C   0  0  0  0  0  2  0  0  0  0  0  0
  158.8700  202.3000  148.8240 C   0  0  0  0  0  1  0  0  0  0  0  0
  162.5400  203.1220  148.2870 C   0  0  0  0  0  2  0  0  0  0  0  0
  161.2830  202.3560  147.9430 C   0  0  2  0  0  0  0  0  0  0  0  0
  160.4060  203.9880  150.8500 C   0  0  0  0  0  2  0  0  0  0  0  0
  160.5570  204.7790  148.0590 C   0  0  1  0  0  3  0  0  0  0  0  0
  161.4910  203.7680  147.3820 C   0  0  1  0  0  3  0  0  0  0  0  0
  161.5360  204.9150  150.4190 C   0  0  1  0  0  3  0  0  0  0  0  0
  160.1950  201.6300  151.6050 C   0  0  0  0  0  1  0  0  0  0  0  0
  161.2130  205.6620  149.1230 C   0  0  0  0  0  2  0  0  0  0  0  0
  160.3420  202.0590  149.1410 C   0  0  1  0  0  3  0  0  0  0  0  0
  160.7770  202.5390  150.5410 C   0  0  1  0  0  3  0  0  0  0  0  0
  161.5670  201.2220  146.9670 C   0  0  0  0  0  2  0  0  0  0  0  0
  160.3780  200.3190  145.0400 N   0  0  0  0  0  1  0  0  0  0  0  0
  161.0050  201.5100  145.5850 C   0  0  0  0  0  2  0  0  0  0  0  0
  159.9110  205.6460  146.9940 C   0  0  0  0  0  2  0  0  0  0  0  0
  160.5320  205.6260  144.8770 C   0  0  0  0  0  1  0  0  0  0  0  0
  160.8840  206.1400  146.1240 O   0  0  0  0  0  0  0  0  0  0  0  0
  1 13  1  0  0  0  0
  3 23  1  0  0  0  0
  4  5  1  0  0  0  0
  5  9  2  0  0  0  0
  6 11  1  0  0  0  0
  6  7  2  0  0  0  0
  7  9  1  0  0  0  0
  8 23  1  0  0  0  0
 10 22  1  0  0  0  0
 11  4  2  0  0  0  0
 12 14  1  0  0  0  0
 13 24  1  0  0  0  0
 14 22  2  0  0  0  0
 15 24  1  1  0  0  0
 15 36  1  0  0  0  0
 15 17  1  0  0  0  0
 16 18  1  0  0  0  0
 17  6  1  0  0  0  0
 18  2  1  6  0  0  0
 18 19  1  0  0  0  0
 19  3  1  0  0  0  0
 20 10  2  0  0  0  0
 21 37  1  1  0  0  0
 21 16  1  0  0  0  0
 22  1  1  0  0  0  0
 23 11  1  0  0  0  0
 25 21  1  0  0  0  0
 26 12  1  0  0  0  0
 26 25  1  0  0  0  0
 27 20  1  0  0  0  0
 27 12  2  0  0  0  0
 28 30  1  0  0  0  0
 29 35  1  0  0  0  0
 31 28  1  0  0  0  0
 31 35  1  0  0  0  0
 33 36  1  0  0  0  0
 33 31  1  0  0  0  0
 34 28  2  0  0  0  0
 36 32  1  6  0  0  0
 36 29  1  0  0  0  0
 37 38  1  0  0  0  0
 41 50  1  6  0  0  0
 41 40  1  0  0  0  0
 41 48  1  0  0  0  0
 43 53  1  6  0  0  0
 43 47  1  0  0  0  0
 44 41  1  0  0  0  0
 44 43  1  0  0  0  0
 44 40  1  1  0  0  0
 45 42  1  0  0  0  0
 45 38  1  1  0  0  0
 47 45  1  0  0  0  0
 48 39  1  6  0  0  0
 48 49  1  0  0  0  0
 49 42  1  0  0  0  0
 49 46  1  1  0  0  0
 51 52  1  0  0  0  0
 52 50  1  0  0  0  0
 54 55  1  0  0  0  0
 55 53  1  0  0  0  0
M  END
>  <MODEL>
1

>  <REMARK>
 VINA RESULT:       3.6      0.000      0.000
  Name = 
  8 active torsions:
  status: ('A' for Active; 'I' for Inactive)
    1  A    between atoms: C_6  and  C_25
    2  A    between atoms: C_8  and  C_20
    3  A    between atoms: C_8  and  N_22
    4  A    between atoms: C_12  and  C_30
    5  A    between atoms: N_22  and  C_43
    6  A    between atoms: C_25  and  C_38
    7  A    between atoms: C_30  and  O_50
    8  A    between atoms: C_33  and  C_52
                            x       y       z     vdW  Elec       q    Type
                         _______ _______ _______ _____ _____    ______ ____

>  <TORSDO>
F 8

$$$$
=
 OpenBabel11062408403D

 55 60  0  0  1  0  0  0  0  0999 V2000
  160.9520  208.2300  147.1190 C   0  0  0  0  0  2  0  0  0  0  0  0
  163.7450  207.6220  150.7450 O   0  0  0  0  0  1  0  0  0  0  0  0
  160.7500  206.0070  152.2600 C   0  0  0  0  0  2  0  0  0  0  0  0
  161.2730  203.2230  151.6480 C   0  0  0  0  0  3  0  0  0  0  0  0
  161.6610  201.9140  151.3660 C   0  0  0  0  0  3  0  0  0  0  0  0
  160.6390  203.5500  149.3230 C   0  0  0  0  0  0  0  0  0  0  0  0
  161.0100  202.2240  149.0640 C   0  0  0  0  0  3  0  0  0  0  0  0
  159.1880  206.0360  150.3420 C   0  0  0  0  0  1  0  0  0  0  0  0
  161.5200  201.4110  150.0760 C   0  0  0  0  0  3  0  0  0  0  0  0
  160.4110  210.6670  146.9950 C   0  0  0  0  0  3  0  0  0  0  0  0
  160.7430  204.0590  150.6480 C   0  0  0  0  0  0  0  0  0  0  0  0
  162.1420  211.2440  149.1190 C   0  0  0  0  0  0  0  0  0  0  0  0
  162.2050  207.3750  147.2510 C   0  0  0  0  0  2  0  0  0  0  0  0
  162.0400  209.9410  148.6260 C   0  0  0  0  0  3  0  0  0  0  0  0
  161.2030  205.0620  147.3210 C   0  0  1  0  0  3  0  0  0  0  0  0
  161.7150  208.7980  151.3620 C   0  0  0  0  0  2  0  0  0  0  0  0
  160.1230  204.3590  148.1660 C   0  0  0  0  0  2  0  0  0  0  0  0
  162.3890  207.4630  151.0440 C   0  0  2  0  0  3  0  0  0  0  0  0
  162.2070  206.4500  152.1590 C   0  0  0  0  0  2  0  0  0  0  0  0
  160.5180  211.9760  147.4770 C   0  0  0  0  0  3  0  0  0  0  0  0
  162.6430  209.7970  152.0550 C   0  0  1  0  0  3  0  0  0  0  0  0
  161.1780  209.6430  147.5610 C   0  0  0  0  0  0  0  0  0  0  0  0
  160.2980  205.3830  151.0160 N   0  0  0  0  0  0  0  0  0  0  0  0
  161.9220  206.1540  148.1140 C   0  0  0  0  0  2  0  0  0  0  0  0
  162.3630  211.2330  151.6130 C   0  0  0  0  0  2  0  0  0  0  0  0
  163.0400  211.5410  150.2780 C   0  0  0  0  0  2  0  0  0  0  0  0
  161.3790  212.2630  148.5410 C   0  0  0  0  0  3  0  0  0  0  0  0
  160.7030  200.7640  145.7260 C   0  0  0  0  0  0  0  0  0  0  0  0
  161.8880  204.2420  144.9970 C   0  0  0  0  0  2  0  0  0  0  0  0
  159.9940  200.2740  144.5950 N   0  0  0  0  0  1  0  0  0  0  0  0
  161.2600  202.0830  145.7160 N   0  0  0  0  0  0  0  0  0  0  0  0
  163.6060  204.4450  146.7940 C   0  0  0  0  0  1  0  0  0  0  0  0
  161.8980  202.6820  146.8710 C   0  0  0  0  0  2  0  0  0  0  0  0
  160.8340  200.0280  146.7370 O   0  0  0  0  0  0  0  0  0  0  0  0
  161.1570  202.9770  144.5850 C   0  0  0  0  0  2  0  0  0  0  0  0
  162.1460  204.1370  146.5030 C   0  0  1  0  0  0  0  0  0  0  0  0
  162.6090  209.6520  153.5120 N   0  0  0  0  0  2  0  0  0  0  0  0
  162.5810  210.9590  154.1630 C   0  0  0  0  0  2  0  0  0  0  0  0
  157.2040  210.7820  154.5400 C   0  0  0  0  0  1  0  0  0  0  0  0
  159.6110  212.5750  156.8700 C   0  0  0  0  0  2  0  0  0  0  0  0
  158.2160  212.1670  156.4540 C   0  0  2  0  0  0  0  0  0  0  0  0
  160.1340  211.1550  153.7740 C   0  0  0  0  0  2  0  0  0  0  0  0
  159.5670  210.0260  156.3900 C   0  0  1  0  0  3  0  0  0  0  0  0
  159.0850  211.1940  157.2610 C   0  0  1  0  0  3  0  0  0  0  0  0
  161.2350  211.1760  154.8270 C   0  0  1  0  0  3  0  0  0  0  0  0
  158.6810  212.8280  152.6500 C   0  0  0  0  0  1  0  0  0  0  0  0
  161.0190  210.1220  155.9160 C   0  0  0  0  0  2  0  0  0  0  0  0
  157.9980  212.0270  154.9240 C   0  0  1  0  0  3  0  0  0  0  0  0
  159.1870  212.3330  153.9900 C   0  0  1  0  0  3  0  0  0  0  0  0
  157.1530  212.9050  157.2570 C   0  0  0  0  0  2  0  0  0  0  0  0
  155.2690  214.4480  157.1700 N   0  0  0  0  0  1  0  0  0  0  0  0
  156.2290  213.7150  156.3650 C   0  0  0  0  0  2  0  0  0  0  0  0
  159.3540  208.7260  157.1440 C   0  0  0  0  0  2  0  0  0  0  0  0
  160.2540  206.7150  157.2600 C   0  0  0  0  0  1  0  0  0  0  0  0
  159.7470  207.6450  156.3540 O   0  0  0  0  0  0  0  0  0  0  0  0
  1 13  1  0  0  0  0
  1 22  1  0  0  0  0
  5  4  1  0  0  0  0
  6 11  1  0  0  0  0
  7  6  2  0  0  0  0
  7  9  1  0  0  0  0
  8 23  1  0  0  0  0
  9  5  2  0  0  0  0
 10 20  2  0  0  0  0
 10 22  1  0  0  0  0
 11 23  1  0  0  0  0
 11  4  2  0  0  0  0
 12 26  1  0  0  0  0
 13 24  1  0  0  0  0
 14 12  1  0  0  0  0
 15 24  1  1  0  0  0
 15 17  1  0  0  0  0
 16 21  1  0  0  0  0
 17  6  1  0  0  0  0
 18  2  1  1  0  0  0
 18 16  1  0  0  0  0
 18 19  1  0  0  0  0
 19  3  1  0  0  0  0
 20 27  1  0  0  0  0
 21 37  1  1  0  0  0
 22 14  2  0  0  0  0
 23  3  1  0  0  0  0
 25 21  1  0  0  0  0
 26 25  1  0  0  0  0
 27 12  2  0  0  0  0
 28 34  2  0  0  0  0
 29 36  1  0  0  0  0
 30 28  1  0  0  0  0
 31 28  1  0  0  0  0
 31 33  1  0  0  0  0
 35 29  1  0  0  0  0
 35 31  1  0  0  0  0
 36 32  1  1  0  0  0
 36 33  1  0  0  0  0
 36 15  1  0  0  0  0
 37 38  1  0  0  0  0
 41 40  1  0  0  0  0
 41 50  1  1  0  0  0
 41 44  1  0  0  0  0
 42 49  1  0  0  0  0
 42 45  1  0  0  0  0
 43 53  1  1  0  0  0
 43 44  1  0  0  0  0
 44 40  1  6  0  0  0
 45 38  1  6  0  0  0
 45 47  1  0  0  0  0
 47 43  1  0  0  0  0
 48 39  1  1  0  0  0
 48 41  1  0  0  0  0
 49 46  1  6  0  0  0
 49 48  1  0  0  0  0
 52 51  1  0  0  0  0
 52 50  1  0  0  0  0
 55 53  1  0  0  0  0
 55 54  1  0  0  0  0
M  END
>  <MODEL>
2

>  <REMARK>
 VINA RESULT:       4.8      1.961     10.211
  Name = 
  8 active torsions:
  status: ('A' for Active; 'I' for Inactive)
    1  A    between atoms: C_6  and  C_25
    2  A    between atoms: C_8  and  C_20
    3  A    between atoms: C_8  and  N_22
    4  A    between atoms: C_12  and  C_30
    5  A    between atoms: N_22  and  C_43
    6  A    between atoms: C_25  and  C_38
    7  A    between atoms: C_30  and  O_50
    8  A    between atoms: C_33  and  C_52
                            x       y       z     vdW  Elec       q    Type
                         _______ _______ _______ _____ _____    ______ ____

>  <TORSDO>
F 8

$$$$
=
 OpenBabel11062408403D

 55 60  0  0  1  0  0  0  0  0999 V2000
  160.5420  213.3020  151.8240 C   0  0  0  0  0  2  0  0  0  0  0  0
  159.6390  208.9200  150.6840 O   0  0  0  0  0  1  0  0  0  0  0  0
  162.6410  208.1910  152.7650 C   0  0  0  0  0  2  0  0  0  0  0  0
  161.3940  207.5730  155.3080 C   0  0  0  0  0  3  0  0  0  0  0  0
  160.6870  207.2230  156.4570 C   0  0  0  0  0  3  0  0  0  0  0  0
  160.9530  209.9250  155.7350 C   0  0  0  0  0  0  0  0  0  0  0  0
  160.2680  209.5570  156.9010 C   0  0  0  0  0  3  0  0  0  0  0  0
  163.1380  210.4410  153.6650 C   0  0  0  0  0  1  0  0  0  0  0  0
  160.1330  208.2160  157.2600 C   0  0  0  0  0  3  0  0  0  0  0  0
  161.4060  214.4430  149.7760 C   0  0  0  0  0  3  0  0  0  0  0  0
  161.5580  208.9180  154.9310 C   0  0  0  0  0  0  0  0  0  0  0  0
  160.9650  212.1580  148.2170 C   0  0  0  0  0  0  0  0  0  0  0  0
  159.3520  212.4250  152.1910 C   0  0  0  0  0  2  0  0  0  0  0  0
  160.5920  212.1780  149.5630 C   0  0  0  0  0  3  0  0  0  0  0  0
  159.8320  211.9530  154.6210 C   0  0  1  0  0  3  0  0  0  0  0  0
  161.9060  209.5530  150.0950 C   0  0  0  0  0  2  0  0  0  0  0  0
  161.0280  211.3920  155.4150 C   0  0  0  0  0  2  0  0  0  0  0  0
  160.9280  209.1180  151.1870 C   0  0  2  0  0  3  0  0  0  0  0  0
  161.4060  207.8810  151.9240 C   0  0  0  0  0  2  0  0  0  0  0  0
  161.7720  214.4330  148.4250 C   0  0  0  0  0  3  0  0  0  0  0  0
  161.5940  208.9470  148.7250 C   0  0  1  0  0  3  0  0  0  0  0  0
  160.8050  213.3180  150.3500 C   0  0  0  0  0  0  0  0  0  0  0  0
  162.3560  209.2200  153.7650 N   0  0  0  0  0  0  0  0  0  0  0  0
  159.7650  211.3720  153.2080 C   0  0  0  0  0  2  0  0  0  0  0  0
  161.9020  209.9230  147.5890 C   0  0  0  0  0  2  0  0  0  0  0  0
  160.7630  210.9230  147.3980 C   0  0  0  0  0  2  0  0  0  0  0  0
  161.5560  213.2900  147.6480 C   0  0  0  0  0  3  0  0  0  0  0  0
  155.5990  213.1870  153.2690 C   0  0  0  0  0  0  0  0  0  0  0  0
  157.6680  210.6990  155.1570 C   0  0  0  0  0  2  0  0  0  0  0  0
  154.6350  212.4870  152.4920 N   0  0  0  0  0  1  0  0  0  0  0  0
  156.5300  212.4690  154.0860 N   0  0  0  0  0  0  0  0  0  0  0  0
  158.6610  212.2360  156.8530 C   0  0  0  0  0  1  0  0  0  0  0  0
  157.6030  213.1130  154.8170 C   0  0  0  0  0  2  0  0  0  0  0  0
  155.6270  214.4440  153.2310 O   0  0  0  0  0  0  0  0  0  0  0  0
  156.5470  211.0280  154.1870 C   0  0  0  0  0  2  0  0  0  0  0  0
  158.4690  211.9880  155.3650 C   0  0  1  0  0  0  0  0  0  0  0  0
  162.2580  207.6550  148.5370 N   0  0  0  0  0  2  0  0  0  0  0  0
  161.9620  206.7540  149.6480 C   0  0  0  0  0  2  0  0  0  0  0  0
  158.9830  202.3130  148.9430 C   0  0  0  0  0  1  0  0  0  0  0  0
  162.6330  202.8020  148.0070 C   0  0  0  0  0  2  0  0  0  0  0  0
  161.3770  201.9640  148.0760 C   0  0  2  0  0  0  0  0  0  0  0  0
  160.5440  204.7350  149.9490 C   0  0  0  0  0  2  0  0  0  0  0  0
  160.6290  204.1760  147.0990 C   0  0  1  0  0  3  0  0  0  0  0  0
  161.5590  202.9680  146.9310 C   0  0  1  0  0  3  0  0  0  0  0  0
  161.6560  205.3660  149.1190 C   0  0  1  0  0  3  0  0  0  0  0  0
  160.3730  202.9750  151.6940 C   0  0  0  0  0  1  0  0  0  0  0  0
  161.2980  205.4450  147.6320 C   0  0  0  0  0  2  0  0  0  0  0  0
  160.4640  202.2420  149.2990 C   0  0  1  0  0  3  0  0  0  0  0  0
  160.9230  203.3030  150.3200 C   0  0  1  0  0  3  0  0  0  0  0  0
  161.6520  200.5100  147.7120 C   0  0  0  0  0  2  0  0  0  0  0  0
  160.6160  199.4000  145.8060 N   0  0  0  0  0  1  0  0  0  0  0  0
  161.6840  200.2980  146.2080 C   0  0  0  0  0  2  0  0  0  0  0  0
  159.9520  204.4680  145.7720 C   0  0  0  0  0  2  0  0  0  0  0  0
  161.0370  205.5910  144.2130 C   0  0  0  0  0  1  0  0  0  0  0  0
  160.2550  205.7640  145.3550 O   0  0  0  0  0  0  0  0  0  0  0  0
  1 13  1  0  0  0  0
  3 23  1  0  0  0  0
  4  5  1  0  0  0  0
  5  9  2  0  0  0  0
  6  7  2  0  0  0  0
  7  9  1  0  0  0  0
  8 23  1  0  0  0  0
 10 22  1  0  0  0  0
 11  4  2  0  0  0  0
 11  6  1  0  0  0  0
 12 14  1  0  0  0  0
 13 24  1  0  0  0  0
 14 22  2  0  0  0  0
 15 24  1  6  0  0  0
 15 36  1  0  0  0  0
 15 17  1  0  0  0  0
 16 18  1  0  0  0  0
 17  6  1  0  0  0  0
 18  2  1  6  0  0  0
 18 19  1  0  0  0  0
 19  3  1  0  0  0  0
 20 10  2  0  0  0  0
 21 37  1  6  0  0  0
 21 16  1  0  0  0  0
 22  1  1  0  0  0  0
 23 11  1  0  0  0  0
 25 21  1  0  0  0  0
 26 25  1  0  0  0  0
 26 12  1  0  0  0  0
 27 12  2  0  0  0  0
 27 20  1  0  0  0  0
 28 31  1  0  0  0  0
 29 36  1  0  0  0  0
 30 28  1  0  0  0  0
 31 35  1  0  0  0  0
 31 33  1  0  0  0  0
 33 36  1  0  0  0  0
 34 28  2  0  0  0  0
 35 29  1  0  0  0  0
 36 32  1  1  0  0  0
 37 38  1  0  0  0  0
 40 41  1  0  0  0  0
 41 50  1  6  0  0  0
 41 48  1  0  0  0  0
 42 49  1  0  0  0  0
 43 53  1  6  0  0  0
 43 47  1  0  0  0  0
 44 43  1  0  0  0  0
 44 40  1  1  0  0  0
 44 41  1  0  0  0  0
 45 38  1  1  0  0  0
 45 42  1  0  0  0  0
 47 45  1  0  0  0  0
 48 39  1  6  0  0  0
 48 49  1  0  0  0  0
 49 46  1  1  0  0  0
 51 52  1  0  0  0  0
 52 50  1  0  0  0  0
 54 55  1  0  0  0  0
 55 53  1  0  0  0  0
M  END
>  <MODEL>
3

>  <REMARK>
 VINA RESULT:       4.9      1.467      2.235
  Name = 
  8 active torsions:
  status: ('A' for Active; 'I' for Inactive)
    1  A    between atoms: C_6  and  C_25
    2  A    between atoms: C_8  and  C_20
    3  A    between atoms: C_8  and  N_22
    4  A    between atoms: C_12  and  C_30
    5  A    between atoms: N_22  and  C_43
    6  A    between atoms: C_25  and  C_38
    7  A    between atoms: C_30  and  O_50
    8  A    between atoms: C_33  and  C_52
                            x       y       z     vdW  Elec       q    Type
                         _______ _______ _______ _____ _____    ______ ____

>  <TORSDO>
F 8

$$$$
