=
 OpenBabel11062410123D

 43 48  0  0  1  0  0  0  0  0999 V2000
  161.2120  204.8430  147.8720 C   0  0  1  0  0  3  0  0  0  0  0  0
  161.7480  208.9220  150.9440 C   0  0  0  0  0  0  0  0  0  0  0  0
  161.9100  211.0930  149.2160 C   0  0  0  0  0  0  0  0  0  0  0  0
  161.6050  206.3310  149.8630 C   0  0  0  0  0  0  0  0  0  0  0  0
  162.0260  205.8450  147.0690 C   0  0  0  0  0  2  0  0  0  0  0  0
  161.4700  203.4460  147.3540 C   0  0  0  0  0  1  0  0  0  0  0  0
  161.7090  207.4430  148.9960 C   0  0  0  0  0  0  0  0  0  0  0  0
  161.6140  204.9230  149.3420 C   0  0  0  0  0  2  0  0  0  0  0  0
  161.6570  207.2630  147.4980 C   0  0  0  0  0  2  0  0  0  0  0  0
  161.8410  209.8270  148.7240 N   0  0  0  0  0  0  0  0  0  0  0  0
  161.7680  208.7400  149.5400 C   0  0  0  0  0  0  0  0  0  0  0  0
  161.6630  207.8070  151.7850 C   0  0  0  0  0  3  0  0  0  0  0  0
  161.8020  210.2210  151.4750 C   0  0  0  0  0  0  0  0  0  0  0  0
  161.8910  211.3070  150.5950 C   0  0  0  0  0  3  0  0  0  0  0  0
  161.5990  206.5220  151.2470 C   0  0  0  0  0  3  0  0  0  0  0  0
  161.9720  212.2640  148.2920 C   0  0  1  0  0  3  0  0  0  0  0  0
  162.9510  213.5390  144.8690 C   0  0  0  0  0  3  0  0  0  0  0  0
  163.4050  212.1450  147.1620 S   0  0  0  0  0  0  0  0  0  0  0  0
  160.6920  212.3700  147.4700 C   0  0  0  0  0  2  0  0  0  0  0  0
  162.4170  212.9640  145.9400 C   0  0  0  0  0  0  0  0  0  0  0  0
  161.0310  213.0250  146.2230 N   0  0  0  0  0  2  0  0  0  0  0  0
  162.1380  214.2540  143.9350 N   0  0  0  0  0  2  0  0  0  0  0  0
  162.0350  213.8860  142.5260 C   0  0  2  0  0  0  0  0  0  0  0  0
  163.1370  214.4140  141.8470 O   0  0  0  0  0  1  0  0  0  0  0  0
  160.7390  214.4530  141.9270 C   0  0  0  0  0  2  0  0  0  0  0  0
  158.2850  214.0770  142.2150 C   0  0  0  0  0  1  0  0  0  0  0  0
  159.5760  214.4520  142.9170 C   0  0  0  0  0  2  0  0  0  0  0  0
  162.0520  212.3560  142.3970 C   0  0  0  0  0  2  0  0  0  0  0  0
  161.7210  211.8630  140.9920 C   0  0  1  0  0  3  0  0  0  0  0  0
  160.2650  210.3990  139.6060 C   0  0  0  0  0  2  0  0  0  0  0  0
  162.7640  210.0550  139.6170 C   0  0  0  0  0  3  0  0  0  0  0  0
  161.4200  209.4430  139.3070 C   0  0  0  0  0  2  0  0  0  0  0  0
  162.9030  211.1220  140.4220 C   0  0  0  0  0  3  0  0  0  0  0  0
  160.4550  211.0030  140.9910 C   0  0  0  0  0  2  0  0  0  0  0  0
  161.7920  210.3920  152.8720 O   0  0  0  0  0  0  0  0  0  0  0  0
  159.6950  211.0540  155.8870 C   0  0  0  0  0  3  0  0  0  0  0  0
  158.3360  210.9510  155.2520 C   0  0  2  0  0  3  0  0  0  0  0  0
  159.5350  211.0290  153.0620 C   0  0  0  0  0  3  0  0  0  0  0  0
  160.7960  210.9310  155.1410 C   0  0  0  0  0  3  0  0  0  0  0  0
  160.7000  210.7730  153.6690 C   0  0  0  0  0  0  0  0  0  0  0  0
  158.3540  211.5460  153.8400 C   0  0  0  0  0  2  0  0  0  0  0  0
  156.0030  211.0380  155.9470 N   0  0  0  0  0  1  0  0  0  0  0  0
  157.3080  211.6530  156.1220 C   0  0  0  0  0  2  0  0  0  0  0  0
  1  6  1  6  0  0  0
  1  8  1  0  0  0  0
  2 13  1  0  0  0  0
  2 12  1  0  0  0  0
  3 14  1  0  0  0  0
  4 15  1  0  0  0  0
  5  9  1  0  0  0  0
  5  1  1  0  0  0  0
  7 11  1  0  0  0  0
  7  4  2  0  0  0  0
  8  4  1  0  0  0  0
  9  7  1  0  0  0  0
 10  3  2  0  0  0  0
 10 11  1  0  0  0  0
 11  2  2  0  0  0  0
 13 35  1  0  0  0  0
 14 13  2  0  0  0  0
 15 12  2  0  0  0  0
 16  3  1  1  0  0  0
 17 20  2  0  0  0  0
 18 16  1  0  0  0  0
 19 16  1  0  0  0  0
 20 21  1  0  0  0  0
 20 18  1  0  0  0  0
 21 19  1  0  0  0  0
 22 17  1  0  0  0  0
 23 24  1  6  0  0  0
 23 22  1  0  0  0  0
 25 23  1  0  0  0  0
 25 27  1  0  0  0  0
 26 27  1  0  0  0  0
 28 23  1  0  0  0  0
 29 28  1  1  0  0  0
 30 34  1  0  0  0  0
 31 33  2  0  0  0  0
 32 30  1  0  0  0  0
 32 31  1  0  0  0  0
 33 29  1  0  0  0  0
 34 29  1  0  0  0  0
 35 40  1  0  0  0  0
 37 36  1  0  0  0  0
 37 43  1  1  0  0  0
 38 40  2  0  0  0  0
 38 41  1  0  0  0  0
 39 36  2  0  0  0  0
 40 39  1  0  0  0  0
 41 37  1  0  0  0  0
 42 43  1  0  0  0  0
M  END
>  <MODEL>
1

>  <REMARK>
 VINA RESULT:      -7.3      0.000      0.000
  Name = 
  10 active torsions:
  status: ('A' for Active; 'I' for Inactive)
    1  A    between atoms: O_1  and  C_34
    2  A    between atoms: O_1  and  C_35
    3  A    between atoms: C_2  and  C_13
    4  A    between atoms: C_3  and  N_4
    5  A    between atoms: N_4  and  C_22
    6  A    between atoms: C_10  and  C_22
    7  A    between atoms: C_10  and  C_42
    8  A    between atoms: C_11  and  C_14
    9  A    between atoms: C_14  and  C_22
   10  A    between atoms: C_19  and  C_37
                            x       y       z     vdW  Elec       q    Type
                         _______ _______ _______ _____ _____    ______ ____

>  <TORSDO>
F 10

$$$$
=
 OpenBabel11062410123D

 43 48  0  0  1  0  0  0  0  0999 V2000
  161.0660  213.8420  146.9580 C   0  0  1  0  0  3  0  0  0  0  0  0
  160.2170  212.5610  151.8570 C   0  0  0  0  0  0  0  0  0  0  0  0
  161.2720  210.0030  152.1130 C   0  0  0  0  0  0  0  0  0  0  0  0
  160.2200  213.7870  149.3270 C   0  0  0  0  0  0  0  0  0  0  0  0
  160.9040  212.3310  146.9540 C   0  0  0  0  0  2  0  0  0  0  0  0
  160.7450  214.3910  145.5860 C   0  0  0  0  0  1  0  0  0  0  0  0
  160.7350  212.4780  149.4680 C   0  0  0  0  0  0  0  0  0  0  0  0
  160.1170  214.4530  147.9850 C   0  0  0  0  0  2  0  0  0  0  0  0
  161.3640  211.7650  148.2960 C   0  0  0  0  0  2  0  0  0  0  0  0
  161.2580  210.6230  150.9030 N   0  0  0  0  0  0  0  0  0  0  0  0
  160.7430  211.8720  150.7380 C   0  0  0  0  0  0  0  0  0  0  0  0
  159.6950  213.8490  151.6930 C   0  0  0  0  0  3  0  0  0  0  0  0
  160.2340  211.9480  153.1210 C   0  0  0  0  0  0  0  0  0  0  0  0
  160.7630  210.6560  153.2360 C   0  0  0  0  0  3  0  0  0  0  0  0
  159.6920  214.4530  150.4360 C   0  0  0  0  0  3  0  0  0  0  0  0
  161.8610  208.6400  152.2610 C   0  0  1  0  0  3  0  0  0  0  0  0
  161.2070  204.9200  152.4720 C   0  0  0  0  0  3  0  0  0  0  0  0
  160.7200  207.5140  153.1420 S   0  0  0  0  0  0  0  0  0  0  0  0
  162.1970  208.0460  150.8960 C   0  0  0  0  0  2  0  0  0  0  0  0
  161.3650  206.1970  152.1460 C   0  0  0  0  0  0  0  0  0  0  0  0
  162.1220  206.6050  151.0200 N   0  0  0  0  0  2  0  0  0  0  0  0
  161.7980  203.8810  151.6880 N   0  0  0  0  0  2  0  0  0  0  0  0
  161.2140  203.3970  150.4400 C   0  0  2  0  0  0  0  0  0  0  0  0
  159.9420  203.9600  150.2960 O   0  0  0  0  0  1  0  0  0  0  0  0
  161.1000  201.8650  150.4720 C   0  0  0  0  0  2  0  0  0  0  0  0
  161.0420  200.5540  148.3450 C   0  0  0  0  0  1  0  0  0  0  0  0
  160.2100  201.3120  149.3620 C   0  0  0  0  0  2  0  0  0  0  0  0
  162.0940  203.8370  149.2610 C   0  0  0  0  0  2  0  0  0  0  0  0
  161.2950  204.2840  148.0420 C   0  0  1  0  0  3  0  0  0  0  0  0
  161.0290  204.1240  145.5740 C   0  0  0  0  0  2  0  0  0  0  0  0
  161.4590  206.3600  146.6600 C   0  0  0  0  0  3  0  0  0  0  0  0
  161.4960  205.5670  145.3780 C   0  0  0  0  0  2  0  0  0  0  0  0
  161.4180  205.7760  147.8700 C   0  0  0  0  0  3  0  0  0  0  0  0
  161.7320  203.5260  146.7850 C   0  0  0  0  0  2  0  0  0  0  0  0
  159.7000  212.6380  154.2250 O   0  0  0  0  0  0  0  0  0  0  0  0
  157.4030  211.7440  157.0270 C   0  0  0  0  0  3  0  0  0  0  0  0
  156.2940  211.1200  156.2270 C   0  0  2  0  0  3  0  0  0  0  0  0
  157.4090  212.1030  154.2200 C   0  0  0  0  0  3  0  0  0  0  0  0
  158.4610  212.2740  156.4070 C   0  0  0  0  0  3  0  0  0  0  0  0
  158.5230  212.3290  154.9260 C   0  0  0  0  0  0  0  0  0  0  0  0
  156.0900  211.8730  154.9090 C   0  0  0  0  0  2  0  0  0  0  0  0
  154.1670  210.0030  156.6310 N   0  0  0  0  0  1  0  0  0  0  0  0
  155.0150  211.1080  157.0460 C   0  0  0  0  0  2  0  0  0  0  0  0
  1  6  1  6  0  0  0
  1  8  1  0  0  0  0
  2 13  1  0  0  0  0
  3 14  1  0  0  0  0
  4  7  2  0  0  0  0
  4 15  1  0  0  0  0
  5  1  1  0  0  0  0
  5  9  1  0  0  0  0
  7 11  1  0  0  0  0
  8  4  1  0  0  0  0
  9  7  1  0  0  0  0
 10  3  2  0  0  0  0
 11 10  1  0  0  0  0
 11  2  2  0  0  0  0
 12  2  1  0  0  0  0
 13 14  2  0  0  0  0
 13 35  1  0  0  0  0
 15 12  2  0  0  0  0
 16  3  1  6  0  0  0
 16 18  1  0  0  0  0
 19 21  1  0  0  0  0
 19 16  1  0  0  0  0
 20 17  2  0  0  0  0
 20 18  1  0  0  0  0
 21 20  1  0  0  0  0
 22 17  1  0  0  0  0
 23 24  1  6  0  0  0
 23 25  1  0  0  0  0
 23 22  1  0  0  0  0
 26 27  1  0  0  0  0
 27 25  1  0  0  0  0
 28 23  1  0  0  0  0
 29 28  1  1  0  0  0
 30 34  1  0  0  0  0
 31 33  2  0  0  0  0
 32 30  1  0  0  0  0
 32 31  1  0  0  0  0
 33 29  1  0  0  0  0
 34 29  1  0  0  0  0
 35 40  1  0  0  0  0
 37 36  1  0  0  0  0
 37 43  1  1  0  0  0
 38 41  1  0  0  0  0
 38 40  2  0  0  0  0
 39 36  2  0  0  0  0
 40 39  1  0  0  0  0
 41 37  1  0  0  0  0
 42 43  1  0  0  0  0
M  END
>  <MODEL>
2

>  <REMARK>
 VINA RESULT:      -6.6      4.089      8.210
  Name = 
  10 active torsions:
  status: ('A' for Active; 'I' for Inactive)
    1  A    between atoms: O_1  and  C_34
    2  A    between atoms: O_1  and  C_35
    3  A    between atoms: C_2  and  C_13
    4  A    between atoms: C_3  and  N_4
    5  A    between atoms: N_4  and  C_22
    6  A    between atoms: C_10  and  C_22
    7  A    between atoms: C_10  and  C_42
    8  A    between atoms: C_11  and  C_14
    9  A    between atoms: C_14  and  C_22
   10  A    between atoms: C_19  and  C_37
                            x       y       z     vdW  Elec       q    Type
                         _______ _______ _______ _____ _____    ______ ____

>  <TORSDO>
F 10

$$$$
=
 OpenBabel11062410123D

 43 48  0  0  1  0  0  0  0  0999 V2000
  161.3230  204.7190  147.5960 C   0  0  1  0  0  3  0  0  0  0  0  0
  161.7450  208.7250  150.7800 C   0  0  0  0  0  0  0  0  0  0  0  0
  161.8830  210.9440  149.1130 C   0  0  0  0  0  0  0  0  0  0  0  0
  161.6650  206.1600  149.6300 C   0  0  0  0  0  0  0  0  0  0  0  0
  162.1260  205.7570  146.8290 C   0  0  0  0  0  2  0  0  0  0  0  0
  161.6150  203.3420  147.0450 C   0  0  0  0  0  1  0  0  0  0  0  0
  161.7570  207.2980  148.7940 C   0  0  0  0  0  0  0  0  0  0  0  0
  161.7080  204.7680  149.0730 C   0  0  0  0  0  2  0  0  0  0  0  0
  161.7240  207.1560  147.2920 C   0  0  0  0  0  2  0  0  0  0  0  0
  161.8440  209.6900  148.5870 N   0  0  0  0  0  0  0  0  0  0  0  0
  161.7830  208.5800  149.3720 C   0  0  0  0  0  0  0  0  0  0  0  0
  161.6730  207.5870  151.5910 C   0  0  0  0  0  3  0  0  0  0  0  0
  161.7680  210.0100  151.3470 C   0  0  0  0  0  0  0  0  0  0  0  0
  161.8440  211.1200  150.4960 C   0  0  0  0  0  3  0  0  0  0  0  0
  161.6400  206.3150  151.0190 C   0  0  0  0  0  3  0  0  0  0  0  0
  161.9310  212.1390  148.2210 C   0  0  1  0  0  3  0  0  0  0  0  0
  163.0620  213.5640  144.9040 C   0  0  0  0  0  3  0  0  0  0  0  0
  163.4450  212.1430  147.1950 S   0  0  0  0  0  0  0  0  0  0  0  0
  160.7080  212.1830  147.3100 C   0  0  0  0  0  2  0  0  0  0  0  0
  162.4940  212.9280  145.9220 C   0  0  0  0  0  0  0  0  0  0  0  0
  161.0900  212.8910  146.1050 N   0  0  0  0  0  2  0  0  0  0  0  0
  162.2710  214.2490  143.9300 N   0  0  0  0  0  2  0  0  0  0  0  0
  162.2190  213.8500  142.5270 C   0  0  2  0  0  0  0  0  0  0  0  0
  162.2760  212.4540  142.4590 O   0  0  0  0  0  1  0  0  0  0  0  0
  163.4070  214.4530  141.7630 C   0  0  0  0  0  2  0  0  0  0  0  0
  164.4900  214.0670  139.5440 C   0  0  0  0  0  1  0  0  0  0  0  0
  163.2040  214.4530  140.2510 C   0  0  0  0  0  2  0  0  0  0  0  0
  160.8960  214.3280  141.9100 C   0  0  0  0  0  2  0  0  0  0  0  0
  160.1120  213.2160  141.2210 C   0  0  1  0  0  3  0  0  0  0  0  0
  159.5760  212.0960  139.0660 C   0  0  0  0  0  2  0  0  0  0  0  0
  157.7390  213.1450  140.4400 C   0  0  0  0  0  3  0  0  0  0  0  0
  158.1470  212.6380  139.0790 C   0  0  0  0  0  2  0  0  0  0  0  0
  158.6340  213.4540  141.3940 C   0  0  0  0  0  3  0  0  0  0  0  0
  160.5020  213.0960  139.7450 C   0  0  0  0  0  2  0  0  0  0  0  0
  161.7380  210.1440  152.7480 O   0  0  0  0  0  0  0  0  0  0  0  0
  159.9010  211.4920  155.7020 C   0  0  0  0  0  3  0  0  0  0  0  0
  158.5090  211.4850  155.1330 C   0  0  2  0  0  3  0  0  0  0  0  0
  159.5940  211.0980  152.9160 C   0  0  0  0  0  3  0  0  0  0  0  0
  160.9370  211.1200  154.9460 C   0  0  0  0  0  3  0  0  0  0  0  0
  160.7470  210.7740  153.5160 C   0  0  0  0  0  0  0  0  0  0  0  0
  158.5320  211.8720  153.6500 C   0  0  0  0  0  2  0  0  0  0  0  0
  157.2660  211.8300  157.1990 N   0  0  0  0  0  1  0  0  0  0  0  0
  157.6260  212.4320  155.9260 C   0  0  0  0  0  2  0  0  0  0  0  0
  1  6  1  6  0  0  0
  1  8  1  0  0  0  0
  2 13  1  0  0  0  0
  2 12  1  0  0  0  0
  3 14  1  0  0  0  0
  4 15  1  0  0  0  0
  5  9  1  0  0  0  0
  5  1  1  0  0  0  0
  7 11  1  0  0  0  0
  7  4  2  0  0  0  0
  8  4  1  0  0  0  0
  9  7  1  0  0  0  0
 10  3  2  0  0  0  0
 10 11  1  0  0  0  0
 11  2  2  0  0  0  0
 13 35  1  0  0  0  0
 14 13  2  0  0  0  0
 15 12  2  0  0  0  0
 16  3  1  6  0  0  0
 17 20  2  0  0  0  0
 18 16  1  0  0  0  0
 19 16  1  0  0  0  0
 20 21  1  0  0  0  0
 20 18  1  0  0  0  0
 21 19  1  0  0  0  0
 22 17  1  0  0  0  0
 23 24  1  6  0  0  0
 23 22  1  0  0  0  0
 25 23  1  0  0  0  0
 26 27  1  0  0  0  0
 27 25  1  0  0  0  0
 28 23  1  0  0  0  0
 29 33  1  0  0  0  0
 29 28  1  6  0  0  0
 30 32  1  0  0  0  0
 30 34  1  0  0  0  0
 31 33  2  0  0  0  0
 32 31  1  0  0  0  0
 34 29  1  0  0  0  0
 35 40  1  0  0  0  0
 37 36  1  0  0  0  0
 37 43  1  1  0  0  0
 38 40  2  0  0  0  0
 38 41  1  0  0  0  0
 39 36  2  0  0  0  0
 40 39  1  0  0  0  0
 41 37  1  0  0  0  0
 43 42  1  0  0  0  0
M  END
>  <MODEL>
3

>  <REMARK>
 VINA RESULT:      -6.3      1.241      2.077
  Name = 
  10 active torsions:
  status: ('A' for Active; 'I' for Inactive)
    1  A    between atoms: O_1  and  C_34
    2  A    between atoms: O_1  and  C_35
    3  A    between atoms: C_2  and  C_13
    4  A    between atoms: C_3  and  N_4
    5  A    between atoms: N_4  and  C_22
    6  A    between atoms: C_10  and  C_22
    7  A    between atoms: C_10  and  C_42
    8  A    between atoms: C_11  and  C_14
    9  A    between atoms: C_14  and  C_22
   10  A    between atoms: C_19  and  C_37
                            x       y       z     vdW  Elec       q    Type
                         _______ _______ _______ _____ _____    ______ ____

>  <TORSDO>
F 10

$$$$
=
 OpenBabel11062410123D

 43 48  0  0  1  0  0  0  0  0999 V2000
  160.8650  201.0970  147.7010 C   0  0  1  0  0  3  0  0  0  0  0  0
  161.1700  204.5310  151.5050 C   0  0  0  0  0  0  0  0  0  0  0  0
  161.0730  207.0030  150.2380 C   0  0  0  0  0  0  0  0  0  0  0  0
  161.2090  202.1980  149.9370 C   0  0  0  0  0  0  0  0  0  0  0  0
  161.5550  202.3070  147.0930 C   0  0  0  0  0  2  0  0  0  0  0  0
  161.2230  199.8580  146.9110 C   0  0  0  0  0  1  0  0  0  0  0  0
  161.1800  203.4630  149.3050 C   0  0  0  0  0  0  0  0  0  0  0  0
  161.3190  200.9260  149.1480 C   0  0  0  0  0  2  0  0  0  0  0  0
  161.0830  203.5740  147.8030 C   0  0  0  0  0  2  0  0  0  0  0  0
  161.0930  205.8560  149.5070 N   0  0  0  0  0  0  0  0  0  0  0  0
  161.1480  204.6290  150.0930 C   0  0  0  0  0  0  0  0  0  0  0  0
  161.2170  203.2710  152.1110 C   0  0  0  0  0  3  0  0  0  0  0  0
  161.1340  205.7010  152.2820 C   0  0  0  0  0  0  0  0  0  0  0  0
  161.0910  206.9410  151.6320 C   0  0  0  0  0  3  0  0  0  0  0  0
  161.2430  202.1150  151.3310 C   0  0  0  0  0  3  0  0  0  0  0  0
  160.9940  208.3310  149.5630 C   0  0  1  0  0  3  0  0  0  0  0  0
  162.6730  211.6630  148.9380 C   0  0  0  0  0  3  0  0  0  0  0  0
  161.8400  209.6260  150.5400 S   0  0  0  0  0  0  0  0  0  0  0  0
  161.6170  208.2670  148.1710 C   0  0  0  0  0  2  0  0  0  0  0  0
  162.2770  210.3980  149.0060 C   0  0  0  0  0  0  0  0  0  0  0  0
  162.1040  209.5940  147.8530 N   0  0  0  0  0  2  0  0  0  0  0  0
  162.9510  212.2810  147.6790 N   0  0  0  0  0  2  0  0  0  0  0  0
  162.2400  213.4620  147.1990 C   0  0  2  0  0  0  0  0  0  0  0  0
  162.3090  214.4530  148.1830 O   0  0  0  0  0  1  0  0  0  0  0  0
  160.7700  213.1130  146.9200 C   0  0  0  0  0  2  0  0  0  0  0  0
  158.5330  214.0840  147.4680 C   0  0  0  0  0  1  0  0  0  0  0  0
  159.8320  213.5490  148.0420 C   0  0  0  0  0  2  0  0  0  0  0  0
  162.9130  213.9770  145.9190 C   0  0  0  0  0  2  0  0  0  0  0  0
  161.9890  213.9800  144.7060 C   0  0  1  0  0  3  0  0  0  0  0  0
  160.5120  212.6270  143.2320 C   0  0  0  0  0  2  0  0  0  0  0  0
  162.5080  213.8310  142.2660 C   0  0  0  0  0  3  0  0  0  0  0  0
  161.4930  212.7330  142.0640 C   0  0  0  0  0  2  0  0  0  0  0  0
  162.7670  214.3610  143.4740 C   0  0  0  0  0  3  0  0  0  0  0  0
  161.2870  212.6290  144.5430 C   0  0  0  0  0  2  0  0  0  0  0  0
  161.1650  205.5950  153.6850 O   0  0  0  0  0  0  0  0  0  0  0  0
  159.5560  207.6490  156.3520 C   0  0  0  0  0  3  0  0  0  0  0  0
  160.1990  208.9730  156.0450 C   0  0  2  0  0  3  0  0  0  0  0  0
  161.7600  207.6890  154.5780 C   0  0  0  0  0  3  0  0  0  0  0  0
  159.8880  206.5630  155.6500 C   0  0  0  0  0  3  0  0  0  0  0  0
  160.9500  206.6240  154.6160 C   0  0  0  0  0  0  0  0  0  0  0  0
  161.6560  208.7770  155.6130 C   0  0  0  0  0  2  0  0  0  0  0  0
  159.0740  210.8770  157.0650 N   0  0  0  0  0  1  0  0  0  0  0  0
  160.1120  209.8800  157.2610 C   0  0  0  0  0  2  0  0  0  0  0  0
  1  6  1  6  0  0  0
  1  8  1  0  0  0  0
  2 12  1  0  0  0  0
  2 13  1  0  0  0  0
  3 14  1  0  0  0  0
  4 15  1  0  0  0  0
  5  1  1  0  0  0  0
  5  9  1  0  0  0  0
  7  4  2  0  0  0  0
  7 11  1  0  0  0  0
  8  4  1  0  0  0  0
  9  7  1  0  0  0  0
 10 11  1  0  0  0  0
 10  3  2  0  0  0  0
 11  2  2  0  0  0  0
 13 35  1  0  0  0  0
 14 13  2  0  0  0  0
 15 12  2  0  0  0  0
 16  3  1  1  0  0  0
 16 18  1  0  0  0  0
 17 20  2  0  0  0  0
 19 16  1  0  0  0  0
 20 18  1  0  0  0  0
 21 19  1  0  0  0  0
 21 20  1  0  0  0  0
 22 17  1  0  0  0  0
 23 22  1  0  0  0  0
 23 24  1  1  0  0  0
 25 23  1  0  0  0  0
 25 27  1  0  0  0  0
 26 27  1  0  0  0  0
 28 23  1  0  0  0  0
 29 28  1  1  0  0  0
 30 34  1  0  0  0  0
 31 33  2  0  0  0  0
 32 31  1  0  0  0  0
 32 30  1  0  0  0  0
 33 29  1  0  0  0  0
 34 29  1  0  0  0  0
 35 40  1  0  0  0  0
 37 36  1  0  0  0  0
 37 43  1  1  0  0  0
 38 40  2  0  0  0  0
 38 41  1  0  0  0  0
 39 36  2  0  0  0  0
 40 39  1  0  0  0  0
 41 37  1  0  0  0  0
 42 43  1  0  0  0  0
M  END
>  <MODEL>
4

>  <REMARK>
 VINA RESULT:      -6.0      2.635      4.323
  Name = 
  10 active torsions:
  status: ('A' for Active; 'I' for Inactive)
    1  A    between atoms: O_1  and  C_34
    2  A    between atoms: O_1  and  C_35
    3  A    between atoms: C_2  and  C_13
    4  A    between atoms: C_3  and  N_4
    5  A    between atoms: N_4  and  C_22
    6  A    between atoms: C_10  and  C_22
    7  A    between atoms: C_10  and  C_42
    8  A    between atoms: C_11  and  C_14
    9  A    between atoms: C_14  and  C_22
   10  A    between atoms: C_19  and  C_37
                            x       y       z     vdW  Elec       q    Type
                         _______ _______ _______ _____ _____    ______ ____

>  <TORSDO>
F 10

$$$$
