=
 OpenBabel11062410473D

 32 36  0  0  1  0  0  0  0  0999 V2000
  160.6760  209.8640  154.5010 C   0  0  1  0  0  3  0  0  0  0  0  0
  161.8370  206.8880  150.4670 C   0  0  0  0  0  0  0  0  0  0  0  0
  160.4740  202.3880  151.7030 C   0  0  0  0  0  3  0  0  0  0  0  0
  160.8340  201.9420  150.4300 C   0  0  0  0  0  3  0  0  0  0  0  0
  161.6840  208.7370  152.0290 C   0  0  0  0  0  0  0  0  0  0  0  0
  160.9660  206.5160  152.7030 C   0  0  0  0  0  3  0  0  0  0  0  0
  160.8200  208.3430  154.3920 C   0  0  0  0  0  2  0  0  0  0  0  0
  160.6280  203.7330  152.0440 C   0  0  0  0  0  3  0  0  0  0  0  0
  161.3080  206.0110  151.4390 C   0  0  0  0  0  0  0  0  0  0  0  0
  161.1440  204.6520  151.1130 C   0  0  0  0  0  0  0  0  0  0  0  0
  162.0240  205.1160  148.8880 C   0  0  0  0  0  0  0  0  0  0  0  0
  161.8190  210.5600  153.7640 C   0  0  0  0  0  2  0  0  0  0  0  0
  161.1340  207.8720  153.0000 C   0  0  0  0  0  0  0  0  0  0  0  0
  161.8190  210.2120  152.2740 C   0  0  0  0  0  2  0  0  0  0  0  0
  161.3480  202.8420  149.4940 C   0  0  0  0  0  3  0  0  0  0  0  0
  161.5070  204.1970  149.8200 C   0  0  0  0  0  0  0  0  0  0  0  0
  162.0150  208.2390  150.7660 C   0  0  0  0  0  3  0  0  0  0  0  0
  162.1770  206.4210  149.2370 N   0  0  0  0  0  0  0  0  0  0  0  0
  159.3190  210.3400  153.9980 C   0  0  0  0  0  2  0  0  0  0  0  0
  158.7900  212.7020  153.2990 C   0  0  0  0  0  0  0  0  0  0  0  0
  159.1420  211.7510  154.3040 N   0  0  0  0  0  2  0  0  0  0  0  0
  158.6230  212.3410  152.1040 O   0  0  0  0  0  0  0  0  0  0  0  0
  158.6210  214.1310  153.6680 C   0  0  0  0  0  1  0  0  0  0  0  0
  162.4620  204.6860  147.5220 C   0  0  0  0  0  2  0  0  0  0  0  0
  161.6040  203.8530  145.3280 C   0  0  1  0  0  3  0  0  0  0  0  0
  160.9900  206.0530  146.0580 C   0  0  1  0  0  3  0  0  0  0  0  0
  160.5980  205.9400  144.6620 N   0  0  0  0  0  2  0  0  0  0  0  0
  161.2780  204.7560  144.1550 C   0  0  0  0  0  2  0  0  0  0  0  0
  159.8650  206.6740  146.8590 C   0  0  0  0  0  1  0  0  0  0  0  0
  161.2780  204.6590  146.5640 C   0  0  2  0  0  3  0  0  0  0  0  0
  160.0870  201.7150  145.2490 N   0  0  0  0  0  0  0  0  0  0  0  0
  160.7580  202.6570  145.2840 C   0  0  0  0  0  0  0  0  0  0  0  0
  1 19  1  6  0  0  0
  2 17  2  0  0  0  0
  2  9  1  0  0  0  0
  3  8  1  0  0  0  0
  4  3  2  0  0  0  0
  5 14  1  0  0  0  0
  5 13  2  0  0  0  0
  6 13  1  0  0  0  0
  7  1  1  0  0  0  0
  9  6  2  0  0  0  0
 10  9  1  0  0  0  0
 10  8  2  0  0  0  0
 11 18  2  0  0  0  0
 11 16  1  0  0  0  0
 12  1  1  0  0  0  0
 13  7  1  0  0  0  0
 14 12  1  0  0  0  0
 15 16  2  0  0  0  0
 15  4  1  0  0  0  0
 16 10  1  0  0  0  0
 17  5  1  0  0  0  0
 18  2  1  0  0  0  0
 19 21  1  0  0  0  0
 20 23  1  0  0  0  0
 20 21  1  0  0  0  0
 22 20  2  0  0  0  0
 24 11  1  0  0  0  0
 25 32  1  6  0  0  0
 25 30  1  0  0  0  0
 26 30  1  0  0  0  0
 26 29  1  1  0  0  0
 27 26  1  0  0  0  0
 28 27  1  0  0  0  0
 28 25  1  0  0  0  0
 30 24  1  1  0  0  0
 31 32  3  0  0  0  0
M  END
>  <MODEL>
1

>  <REMARK>
 VINA RESULT:      -8.0      0.000      0.000
  Name = 
  5 active torsions:
  status: ('A' for Active; 'I' for Inactive)
    1  A    between atoms: C_2  and  C_24
    2  A    between atoms: C_7  and  C_29
    3  A    between atoms: N_10  and  C_24
    4  A    between atoms: C_16  and  C_27
    5  A    between atoms: C_27  and  C_32
                            x       y       z     vdW  Elec       q    Type
                         _______ _______ _______ _____ _____    ______ ____

>  <TORSDO>
F 5

$$$$
=
 OpenBabel11062410473D

 32 36  0  0  1  0  0  0  0  0999 V2000
  161.4030  208.9920  155.7930 C   0  0  1  0  0  3  0  0  0  0  0  0
  160.7480  207.2530  150.9950 C   0  0  0  0  0  0  0  0  0  0  0  0
  161.1810  202.4180  151.2680 C   0  0  0  0  0  3  0  0  0  0  0  0
  160.8720  202.3260  149.9090 C   0  0  0  0  0  3  0  0  0  0  0  0
  161.1080  208.6720  152.9280 C   0  0  0  0  0  0  0  0  0  0  0  0
  161.3180  206.2610  153.1360 C   0  0  0  0  0  3  0  0  0  0  0  0
  161.7580  207.6410  155.1650 C   0  0  0  0  0  2  0  0  0  0  0  0
  161.2280  203.6660  151.8920 C   0  0  0  0  0  3  0  0  0  0  0  0
  161.0130  206.1060  151.7760 C   0  0  0  0  0  0  0  0  0  0  0  0
  160.9670  204.8400  151.1640 C   0  0  0  0  0  0  0  0  0  0  0  0
  160.3910  205.9190  149.0550 C   0  0  0  0  0  0  0  0  0  0  0  0
  161.8020  210.1340  154.8600 C   0  0  0  0  0  2  0  0  0  0  0  0
  161.3530  207.5300  153.7210 C   0  0  0  0  0  0  0  0  0  0  0  0
  161.0630  210.0500  153.5230 C   0  0  0  0  0  2  0  0  0  0  0  0
  160.6100  203.4830  149.1710 C   0  0  0  0  0  3  0  0  0  0  0  0
  160.6530  204.7440  149.7850 C   0  0  0  0  0  0  0  0  0  0  0  0
  160.7920  208.5210  151.5760 C   0  0  0  0  0  3  0  0  0  0  0  0
  160.4500  207.1270  149.6760 N   0  0  0  0  0  0  0  0  0  0  0  0
  159.9280  209.0710  156.1670 C   0  0  0  0  0  2  0  0  0  0  0  0
  158.5620  211.1810  156.3420 C   0  0  0  0  0  0  0  0  0  0  0  0
  159.6380  210.3550  156.7860 N   0  0  0  0  0  2  0  0  0  0  0  0
  157.8240  210.8170  155.3890 O   0  0  0  0  0  0  0  0  0  0  0  0
  158.3110  212.4830  157.0120 C   0  0  0  0  0  1  0  0  0  0  0  0
  160.0930  205.8820  147.5880 C   0  0  0  0  0  2  0  0  0  0  0  0
  161.5650  204.8820  145.8350 C   0  0  1  0  0  3  0  0  0  0  0  0
  162.5720  206.0140  147.6930 C   0  0  1  0  0  3  0  0  0  0  0  0
  163.6340  205.3030  146.9980 N   0  0  0  0  0  2  0  0  0  0  0  0
  162.9650  204.3660  146.1060 C   0  0  0  0  0  2  0  0  0  0  0  0
  163.0210  207.4250  148.0120 C   0  0  0  0  0  1  0  0  0  0  0  0
  161.3710  206.0470  146.7780 C   0  0  2  0  0  3  0  0  0  0  0  0
  161.3870  205.7180  143.3550 N   0  0  0  0  0  0  0  0  0  0  0  0
  161.4680  205.3500  144.4490 C   0  0  0  0  0  0  0  0  0  0  0  0
  1 19  1  6  0  0  0
  2 17  2  0  0  0  0
  2  9  1  0  0  0  0
  3  8  1  0  0  0  0
  4  3  2  0  0  0  0
  5 14  1  0  0  0  0
  5 13  2  0  0  0  0
  6 13  1  0  0  0  0
  7  1  1  0  0  0  0
  9  6  2  0  0  0  0
 10  9  1  0  0  0  0
 10  8  2  0  0  0  0
 11 18  2  0  0  0  0
 11 16  1  0  0  0  0
 12  1  1  0  0  0  0
 13  7  1  0  0  0  0
 14 12  1  0  0  0  0
 15 16  2  0  0  0  0
 15  4  1  0  0  0  0
 16 10  1  0  0  0  0
 17  5  1  0  0  0  0
 18  2  1  0  0  0  0
 19 21  1  0  0  0  0
 20 21  1  0  0  0  0
 20 23  1  0  0  0  0
 22 20  2  0  0  0  0
 24 11  1  0  0  0  0
 25 32  1  6  0  0  0
 25 28  1  0  0  0  0
 25 30  1  0  0  0  0
 26 29  1  6  0  0  0
 27 26  1  0  0  0  0
 28 27  1  0  0  0  0
 30 24  1  1  0  0  0
 30 26  1  0  0  0  0
 31 32  3  0  0  0  0
M  END
>  <MODEL>
2

>  <REMARK>
 VINA RESULT:      -7.4      1.837      2.228
  Name = 
  5 active torsions:
  status: ('A' for Active; 'I' for Inactive)
    1  A    between atoms: C_2  and  C_24
    2  A    between atoms: C_7  and  C_29
    3  A    between atoms: N_10  and  C_24
    4  A    between atoms: C_16  and  C_27
    5  A    between atoms: C_27  and  C_32
                            x       y       z     vdW  Elec       q    Type
                         _______ _______ _______ _____ _____    ______ ____

>  <TORSDO>
F 5

$$$$
=
 OpenBabel11062410473D

 32 36  0  0  1  0  0  0  0  0999 V2000
  160.4160  208.5210  156.1620 C   0  0  1  0  0  3  0  0  0  0  0  0
  161.4720  207.5560  151.2200 C   0  0  0  0  0  0  0  0  0  0  0  0
  161.8670  211.9010  149.0760 C   0  0  0  0  0  3  0  0  0  0  0  0
  162.2180  211.2670  147.8820 C   0  0  0  0  0  3  0  0  0  0  0  0
  160.8290  207.3410  153.5490 C   0  0  0  0  0  0  0  0  0  0  0  0
  161.0290  209.5440  152.5420 C   0  0  0  0  0  3  0  0  0  0  0  0
  160.3120  209.4200  154.9270 C   0  0  0  0  0  2  0  0  0  0  0  0
  161.5910  211.1440  150.2160 C   0  0  0  0  0  3  0  0  0  0  0  0
  161.3890  208.9620  151.3170 C   0  0  0  0  0  0  0  0  0  0  0  0
  161.6650  209.7410  150.1780 C   0  0  0  0  0  0  0  0  0  0  0  0
  162.0980  207.6940  148.9270 C   0  0  0  0  0  0  0  0  0  0  0  0
  159.8490  207.1350  155.8610 C   0  0  0  0  0  2  0  0  0  0  0  0
  160.7640  208.7470  153.6610 C   0  0  0  0  0  0  0  0  0  0  0  0
  160.6230  206.4460  154.7360 C   0  0  0  0  0  2  0  0  0  0  0  0
  162.2960  209.8740  147.8280 C   0  0  0  0  0  3  0  0  0  0  0  0
  162.0240  209.1000  148.9660 C   0  0  0  0  0  0  0  0  0  0  0  0
  161.1980  206.7600  152.3330 C   0  0  0  0  0  3  0  0  0  0  0  0
  161.8180  206.9710  150.0440 N   0  0  0  0  0  0  0  0  0  0  0  0
  161.8460  208.4360  156.6800 C   0  0  0  0  0  2  0  0  0  0  0  0
  162.9200  210.7080  156.4980 C   0  0  0  0  0  0  0  0  0  0  0  0
  162.2420  209.7100  157.2610 N   0  0  0  0  0  2  0  0  0  0  0  0
  163.1980  210.5110  155.2860 O   0  0  0  0  0  0  0  0  0  0  0  0
  163.3010  211.9920  157.1420 C   0  0  0  0  0  1  0  0  0  0  0  0
  162.4320  206.9610  147.6650 C   0  0  0  0  0  2  0  0  0  0  0  0
  161.9860  204.5300  148.0350 C   0  0  1  0  0  3  0  0  0  0  0  0
  161.3240  205.5330  145.9590 C   0  0  1  0  0  3  0  0  0  0  0  0
  161.2060  204.0930  145.7960 N   0  0  0  0  0  2  0  0  0  0  0  0
  161.9270  203.5070  146.9180 C   0  0  0  0  0  2  0  0  0  0  0  0
  160.0890  206.2150  145.4100 C   0  0  0  0  0  1  0  0  0  0  0  0
  161.4570  205.8140  147.4380 C   0  0  2  0  0  3  0  0  0  0  0  0
  160.4390  203.7790  150.0160 N   0  0  0  0  0  0  0  0  0  0  0  0
  161.1200  204.1100  149.1400 C   0  0  0  0  0  0  0  0  0  0  0  0
  1 19  1  6  0  0  0
  2  9  2  0  0  0  0
  2 17  1  0  0  0  0
  3  8  1  0  0  0  0
  4  3  2  0  0  0  0
  5 13  1  0  0  0  0
  5 14  1  0  0  0  0
  6 13  2  0  0  0  0
  7  1  1  0  0  0  0
  9  6  1  0  0  0  0
 10  8  2  0  0  0  0
 10  9  1  0  0  0  0
 11 16  1  0  0  0  0
 11 18  2  0  0  0  0
 12  1  1  0  0  0  0
 13  7  1  0  0  0  0
 14 12  1  0  0  0  0
 15  4  1  0  0  0  0
 15 16  2  0  0  0  0
 16 10  1  0  0  0  0
 17  5  2  0  0  0  0
 18  2  1  0  0  0  0
 19 21  1  0  0  0  0
 20 23  1  0  0  0  0
 20 21  1  0  0  0  0
 22 20  2  0  0  0  0
 24 11  1  0  0  0  0
 25 32  1  1  0  0  0
 26 29  1  1  0  0  0
 26 30  1  0  0  0  0
 27 26  1  0  0  0  0
 27 28  1  0  0  0  0
 28 25  1  0  0  0  0
 30 24  1  6  0  0  0
 30 25  1  0  0  0  0
 32 31  3  0  0  0  0
M  END
>  <MODEL>
3

>  <REMARK>
 VINA RESULT:      -6.6      2.435      4.563
  Name = 
  5 active torsions:
  status: ('A' for Active; 'I' for Inactive)
    1  A    between atoms: C_2  and  C_24
    2  A    between atoms: C_7  and  C_29
    3  A    between atoms: N_10  and  C_24
    4  A    between atoms: C_16  and  C_27
    5  A    between atoms: C_27  and  C_32
                            x       y       z     vdW  Elec       q    Type
                         _______ _______ _______ _____ _____    ______ ____

>  <TORSDO>
F 5

$$$$
=
 OpenBabel11062410473D

 32 36  0  0  1  0  0  0  0  0999 V2000
  161.0110  208.9170  155.2150 C   0  0  1  0  0  3  0  0  0  0  0  0
  161.0120  206.2950  150.7870 C   0  0  0  0  0  0  0  0  0  0  0  0
  161.2090  201.5990  152.0280 C   0  0  0  0  0  3  0  0  0  0  0  0
  161.1040  201.2510  150.6800 C   0  0  0  0  0  3  0  0  0  0  0  0
  161.1350  208.0560  152.4510 C   0  0  0  0  0  0  0  0  0  0  0  0
  161.2170  205.7270  153.1390 C   0  0  0  0  0  3  0  0  0  0  0  0
  161.4020  207.4670  154.9140 C   0  0  0  0  0  2  0  0  0  0  0  0
  161.2120  202.9430  152.4060 C   0  0  0  0  0  3  0  0  0  0  0  0
  161.1120  205.3170  151.8010 C   0  0  0  0  0  0  0  0  0  0  0  0
  161.1080  203.9580  151.4390 C   0  0  0  0  0  0  0  0  0  0  0  0
  160.8960  204.6170  149.1020 C   0  0  0  0  0  0  0  0  0  0  0  0
  161.5900  209.8550  154.1560 C   0  0  0  0  0  2  0  0  0  0  0  0
  161.2130  207.0850  153.4730 C   0  0  0  0  0  0  0  0  0  0  0  0
  161.0560  209.5230  152.7610 C   0  0  0  0  0  2  0  0  0  0  0  0
  161.0000  202.2470  149.7070 C   0  0  0  0  0  3  0  0  0  0  0  0
  161.0000  203.6020  150.0710 C   0  0  0  0  0  0  0  0  0  0  0  0
  161.0180  207.6510  151.1190 C   0  0  0  0  0  3  0  0  0  0  0  0
  160.9100  205.9220  149.4850 N   0  0  0  0  0  0  0  0  0  0  0  0
  159.5010  209.0810  155.3350 C   0  0  0  0  0  2  0  0  0  0  0  0
  158.4200  211.3460  155.1170 C   0  0  0  0  0  0  0  0  0  0  0  0
  159.1830  210.3980  155.8640 N   0  0  0  0  0  2  0  0  0  0  0  0
  157.9960  211.0650  153.9660 O   0  0  0  0  0  0  0  0  0  0  0  0
  158.1240  212.6770  155.7070 C   0  0  0  0  0  1  0  0  0  0  0  0
  160.8190  204.3020  147.6400 C   0  0  0  0  0  2  0  0  0  0  0  0
  160.7120  206.5190  146.4920 C   0  0  1  0  0  3  0  0  0  0  0  0
  161.9880  204.7520  145.4940 C   0  0  1  0  0  3  0  0  0  0  0  0
  161.8680  205.8070  144.5000 N   0  0  0  0  0  2  0  0  0  0  0  0
  160.8220  206.6940  144.9900 C   0  0  0  0  0  2  0  0  0  0  0  0
  163.4200  204.2590  145.5490 C   0  0  0  0  0  1  0  0  0  0  0  0
  161.5900  205.3350  146.8290 C   0  0  2  0  0  3  0  0  0  0  0  0
  161.6190  208.6610  147.7040 N   0  0  0  0  0  0  0  0  0  0  0  0
  161.2190  207.7150  147.1710 C   0  0  0  0  0  0  0  0  0  0  0  0
  1 19  1  6  0  0  0
  2 17  2  0  0  0  0
  2  9  1  0  0  0  0
  3  8  1  0  0  0  0
  4  3  2  0  0  0  0
  5 14  1  0  0  0  0
  5 13  2  0  0  0  0
  6 13  1  0  0  0  0
  7  1  1  0  0  0  0
  9  6  2  0  0  0  0
 10  9  1  0  0  0  0
 10  8  2  0  0  0  0
 11 18  2  0  0  0  0
 11 16  1  0  0  0  0
 12  1  1  0  0  0  0
 13  7  1  0  0  0  0
 14 12  1  0  0  0  0
 15 16  2  0  0  0  0
 15  4  1  0  0  0  0
 16 10  1  0  0  0  0
 17  5  1  0  0  0  0
 18  2  1  0  0  0  0
 19 21  1  0  0  0  0
 20 23  1  0  0  0  0
 20 21  1  0  0  0  0
 22 20  2  0  0  0  0
 24 11  1  0  0  0  0
 25 30  1  0  0  0  0
 25 32  1  1  0  0  0
 26 29  1  1  0  0  0
 26 30  1  0  0  0  0
 27 28  1  0  0  0  0
 27 26  1  0  0  0  0
 28 25  1  0  0  0  0
 30 24  1  1  0  0  0
 32 31  3  0  0  0  0
M  END
>  <MODEL>
4

>  <REMARK>
 VINA RESULT:      -6.2      1.549      2.320
  Name = 
  5 active torsions:
  status: ('A' for Active; 'I' for Inactive)
    1  A    between atoms: C_2  and  C_24
    2  A    between atoms: C_7  and  C_29
    3  A    between atoms: N_10  and  C_24
    4  A    between atoms: C_16  and  C_27
    5  A    between atoms: C_27  and  C_32
                            x       y       z     vdW  Elec       q    Type
                         _______ _______ _______ _____ _____    ______ ____

>  <TORSDO>
F 5

$$$$
=
 OpenBabel11062410473D

 32 36  0  0  1  0  0  0  0  0999 V2000
  161.1990  201.9560  148.9380 C   0  0  1  0  0  3  0  0  0  0  0  0
  161.4970  206.2060  151.8250 C   0  0  0  0  0  0  0  0  0  0  0  0
  162.1410  209.8810  148.7100 C   0  0  0  0  0  3  0  0  0  0  0  0
  162.0820  210.7800  149.7770 C   0  0  0  0  0  3  0  0  0  0  0  0
  161.4310  203.9000  151.0750 C   0  0  0  0  0  0  0  0  0  0  0  0
  161.7350  205.6930  149.4630 C   0  0  0  0  0  3  0  0  0  0  0  0
  161.7330  203.3520  148.6050 C   0  0  0  0  0  2  0  0  0  0  0  0
  162.0080  208.5110  148.9400 C   0  0  0  0  0  3  0  0  0  0  0  0
  161.6820  206.6430  150.4950 C   0  0  0  0  0  0  0  0  0  0  0  0
  161.8150  208.0210  150.2430 C   0  0  0  0  0  0  0  0  0  0  0  0
  161.5610  208.4450  152.6300 C   0  0  0  0  0  0  0  0  0  0  0  0
  161.6930  201.5120  150.3140 C   0  0  0  0  0  2  0  0  0  0  0  0
  161.5950  204.3300  149.7400 C   0  0  0  0  0  0  0  0  0  0  0  0
  161.2060  202.4550  151.4160 C   0  0  0  0  0  2  0  0  0  0  0  0
  161.8900  210.3100  151.0770 C   0  0  0  0  0  3  0  0  0  0  0  0
  161.7550  208.9350  151.3250 C   0  0  0  0  0  0  0  0  0  0  0  0
  161.3670  204.8440  152.1030 C   0  0  0  0  0  3  0  0  0  0  0  0
  161.4430  207.1070  152.8400 N   0  0  0  0  0  0  0  0  0  0  0  0
  159.6790  201.8970  148.8480 C   0  0  0  0  0  2  0  0  0  0  0  0
  160.0460  201.2760  146.4340 C   0  0  0  0  0  0  0  0  0  0  0  0
  159.2620  201.8950  147.4540 N   0  0  0  0  0  2  0  0  0  0  0  0
  161.1340  200.7070  146.7160 O   0  0  0  0  0  0  0  0  0  0  0  0
  159.5720  201.3020  145.0270 C   0  0  0  0  0  1  0  0  0  0  0  0
  161.5290  209.3600  153.8150 C   0  0  0  0  0  2  0  0  0  0  0  0
  159.7860  211.0740  154.3350 C   0  0  1  0  0  3  0  0  0  0  0  0
  159.9120  209.0960  155.6850 C   0  0  1  0  0  3  0  0  0  0  0  0
  159.0230  210.0230  156.3660 N   0  0  0  0  0  2  0  0  0  0  0  0
  159.2320  211.3150  155.7250 C   0  0  0  0  0  2  0  0  0  0  0  0
  159.2980  207.7110  155.6710 C   0  0  0  0  0  1  0  0  0  0  0  0
  160.0950  209.5950  154.2710 C   0  0  2  0  0  3  0  0  0  0  0  0
  157.9740  211.6710  152.5350 N   0  0  0  0  0  0  0  0  0  0  0  0
  158.7710  211.4070  153.3300 C   0  0  0  0  0  0  0  0  0  0  0  0
  1 19  1  1  0  0  0
  1 12  1  0  0  0  0
  2 17  2  0  0  0  0
  2 18  1  0  0  0  0
  3  8  2  0  0  0  0
  3  4  1  0  0  0  0
  4 15  2  0  0  0  0
  5 14  1  0  0  0  0
  5 17  1  0  0  0  0
  6 13  1  0  0  0  0
  6  9  2  0  0  0  0
  7  1  1  0  0  0  0
  7 13  1  0  0  0  0
  8 10  1  0  0  0  0
  9  2  1  0  0  0  0
 10  9  1  0  0  0  0
 10 16  2  0  0  0  0
 11 18  2  0  0  0  0
 11 24  1  0  0  0  0
 12 14  1  0  0  0  0
 13  5  2  0  0  0  0
 15 16  1  0  0  0  0
 16 11  1  0  0  0  0
 20 22  2  0  0  0  0
 20 21  1  0  0  0  0
 21 19  1  0  0  0  0
 23 20  1  0  0  0  0
 25 32  1  6  0  0  0
 25 28  1  0  0  0  0
 26 29  1  6  0  0  0
 26 27  1  0  0  0  0
 28 27  1  0  0  0  0
 30 24  1  1  0  0  0
 30 25  1  0  0  0  0
 30 26  1  0  0  0  0
 31 32  3  0  0  0  0
M  END
>  <MODEL>
5

>  <REMARK>
 VINA RESULT:      -5.9      3.098      9.083
  Name = 
  5 active torsions:
  status: ('A' for Active; 'I' for Inactive)
    1  A    between atoms: C_2  and  C_24
    2  A    between atoms: C_7  and  C_29
    3  A    between atoms: N_10  and  C_24
    4  A    between atoms: C_16  and  C_27
    5  A    between atoms: C_27  and  C_32
                            x       y       z     vdW  Elec       q    Type
                         _______ _______ _______ _____ _____    ______ ____

>  <TORSDO>
F 5

$$$$
=
 OpenBabel11062410473D

 32 36  0  0  1  0  0  0  0  0999 V2000
  162.0990  210.8490  156.2320 C   0  0  1  0  0  3  0  0  0  0  0  0
  160.7630  207.1850  152.8750 C   0  0  0  0  0  0  0  0  0  0  0  0
  162.0360  208.8720  148.4970 C   0  0  0  0  0  3  0  0  0  0  0  0
  161.6330  207.6620  147.9280 C   0  0  0  0  0  3  0  0  0  0  0  0
  161.0030  208.5350  154.8760 C   0  0  0  0  0  0  0  0  0  0  0  0
  161.6780  209.4290  152.7210 C   0  0  0  0  0  3  0  0  0  0  0  0
  161.9130  210.9080  154.7130 C   0  0  0  0  0  2  0  0  0  0  0  0
  161.9260  209.0680  149.8750 C   0  0  0  0  0  3  0  0  0  0  0  0
  161.2920  208.2350  152.0930 C   0  0  0  0  0  0  0  0  0  0  0  0
  161.4120  208.0540  150.7030 C   0  0  0  0  0  0  0  0  0  0  0  0
  160.4910  205.8110  150.9500 C   0  0  0  0  0  0  0  0  0  0  0  0
  160.9570  210.0650  156.8780 C   0  0  0  0  0  2  0  0  0  0  0  0
  161.5520  209.5820  154.1050 C   0  0  0  0  0  0  0  0  0  0  0  0
  160.9130  208.6220  156.3730 C   0  0  0  0  0  2  0  0  0  0  0  0
  161.1210  206.6450  148.7360 C   0  0  0  0  0  3  0  0  0  0  0  0
  161.0060  206.8260  150.1220 C   0  0  0  0  0  0  0  0  0  0  0  0
  160.6280  207.3410  154.2560 C   0  0  0  0  0  3  0  0  0  0  0  0
  160.3820  206.0210  152.2890 N   0  0  0  0  0  0  0  0  0  0  0  0
  163.4550  210.2690  156.6120 C   0  0  0  0  0  2  0  0  0  0  0  0
  165.2810  212.0040  156.5510 C   0  0  0  0  0  0  0  0  0  0  0  0
  164.2690  211.2870  157.2580 N   0  0  0  0  0  2  0  0  0  0  0  0
  165.5010  211.7720  155.3330 O   0  0  0  0  0  0  0  0  0  0  0  0
  166.0820  213.0350  157.2610 C   0  0  0  0  0  1  0  0  0  0  0  0
  160.0100  204.5090  150.3890 C   0  0  0  0  0  2  0  0  0  0  0  0
  160.9610  203.2120  148.4760 C   0  0  1  0  0  3  0  0  0  0  0  0
  161.2830  202.3990  150.7080 C   0  0  1  0  0  3  0  0  0  0  0  0
  161.6810  201.3330  149.8020 N   0  0  0  0  0  2  0  0  0  0  0  0
  161.1600  201.7100  148.4950 C   0  0  0  0  0  2  0  0  0  0  0  0
  162.3210  202.5590  151.8000 C   0  0  0  0  0  1  0  0  0  0  0  0
  161.1830  203.6710  149.8990 C   0  0  2  0  0  3  0  0  0  0  0  0
  162.7440  204.3250  146.9070 N   0  0  0  0  0  0  0  0  0  0  0  0
  161.9560  203.8350  147.5990 C   0  0  0  0  0  0  0  0  0  0  0  0
  1 19  1  6  0  0  0
  1 12  1  0  0  0  0
  2 17  1  0  0  0  0
  3  8  1  0  0  0  0
  4  3  2  0  0  0  0
  4 15  1  0  0  0  0
  5 14  1  0  0  0  0
  6 13  2  0  0  0  0
  7  1  1  0  0  0  0
  8 10  2  0  0  0  0
  9  6  1  0  0  0  0
  9  2  2  0  0  0  0
 10  9  1  0  0  0  0
 11 18  2  0  0  0  0
 13  7  1  0  0  0  0
 13  5  1  0  0  0  0
 14 12  1  0  0  0  0
 15 16  2  0  0  0  0
 16 10  1  0  0  0  0
 16 11  1  0  0  0  0
 17  5  2  0  0  0  0
 18  2  1  0  0  0  0
 19 21  1  0  0  0  0
 20 21  1  0  0  0  0
 20 23  1  0  0  0  0
 22 20  2  0  0  0  0
 24 11  1  0  0  0  0
 25 32  1  6  0  0  0
 25 28  1  0  0  0  0
 25 30  1  0  0  0  0
 26 29  1  1  0  0  0
 27 26  1  0  0  0  0
 28 27  1  0  0  0  0
 30 24  1  1  0  0  0
 30 26  1  0  0  0  0
 31 32  3  0  0  0  0
M  END
>  <MODEL>
6

>  <REMARK>
 VINA RESULT:      -5.9      2.840      4.804
  Name = 
  5 active torsions:
  status: ('A' for Active; 'I' for Inactive)
    1  A    between atoms: C_2  and  C_24
    2  A    between atoms: C_7  and  C_29
    3  A    between atoms: N_10  and  C_24
    4  A    between atoms: C_16  and  C_27
    5  A    between atoms: C_27  and  C_32
                            x       y       z     vdW  Elec       q    Type
                         _______ _______ _______ _____ _____    ______ ____

>  <TORSDO>
F 5

$$$$
=
 OpenBabel11062410473D

 32 36  0  0  1  0  0  0  0  0999 V2000
  162.1000  204.3460  146.2240 C   0  0  1  0  0  3  0  0  0  0  0  0
  161.2350  207.4960  150.2000 C   0  0  0  0  0  0  0  0  0  0  0  0
  162.1660  211.9790  148.5670 C   0  0  0  0  0  3  0  0  0  0  0  0
  161.7600  212.4990  149.7970 C   0  0  0  0  0  3  0  0  0  0  0  0
  161.6080  205.5370  148.8190 C   0  0  0  0  0  0  0  0  0  0  0  0
  162.0730  207.7520  147.9360 C   0  0  0  0  0  3  0  0  0  0  0  0
  162.5350  205.7950  146.4610 C   0  0  0  0  0  2  0  0  0  0  0  0
  162.1400  210.6010  148.3460 C   0  0  0  0  0  3  0  0  0  0  0  0
  161.6750  208.3320  149.1500 C   0  0  0  0  0  0  0  0  0  0  0  0
  161.7060  209.7230  149.3540 C   0  0  0  0  0  0  0  0  0  0  0  0
  160.8570  209.3750  151.6120 C   0  0  0  0  0  0  0  0  0  0  0  0
  162.3080  203.5150  147.4890 C   0  0  0  0  0  2  0  0  0  0  0  0
  162.0280  206.3660  147.7570 C   0  0  0  0  0  0  0  0  0  0  0  0
  161.4740  204.0500  148.6550 C   0  0  0  0  0  2  0  0  0  0  0  0
  161.3250  211.6410  150.8090 C   0  0  0  0  0  3  0  0  0  0  0  0
  161.2920  210.2530  150.6020 C   0  0  0  0  0  0  0  0  0  0  0  0
  161.2000  206.1120  150.0260 C   0  0  0  0  0  3  0  0  0  0  0  0
  160.8460  208.0350  151.3850 N   0  0  0  0  0  0  0  0  0  0  0  0
  160.6600  204.2630  145.7350 C   0  0  0  0  0  2  0  0  0  0  0  0
  160.1870  201.8010  145.4830 C   0  0  0  0  0  0  0  0  0  0  0  0
  160.4810  203.0760  144.9130 N   0  0  0  0  0  2  0  0  0  0  0  0
  160.0730  201.6660  146.7300 O   0  0  0  0  0  0  0  0  0  0  0  0
  160.0130  200.6220  144.5960 C   0  0  0  0  0  1  0  0  0  0  0  0
  160.4460  209.8750  152.9630 C   0  0  0  0  0  2  0  0  0  0  0  0
  160.2950  207.9200  154.5120 C   0  0  1  0  0  3  0  0  0  0  0  0
  161.3130  209.9460  155.2910 C   0  0  1  0  0  3  0  0  0  0  0  0
  161.1080  209.0950  156.4530 N   0  0  0  0  0  2  0  0  0  0  0  0
  160.1940  208.0470  156.0190 C   0  0  0  0  0  2  0  0  0  0  0  0
  162.7080  210.5350  155.3260 C   0  0  0  0  0  1  0  0  0  0  0  0
  161.1460  209.0850  154.0610 C   0  0  2  0  0  3  0  0  0  0  0  0
  161.4850  205.6680  153.8830 N   0  0  0  0  0  0  0  0  0  0  0  0
  160.9610  206.6610  154.1620 C   0  0  0  0  0  0  0  0  0  0  0  0
  1 19  1  1  0  0  0
  1  7  1  0  0  0  0
  1 12  1  0  0  0  0
  2 18  1  0  0  0  0
  3  4  1  0  0  0  0
  4 15  2  0  0  0  0
  5 17  1  0  0  0  0
  6  9  2  0  0  0  0
  7 13  1  0  0  0  0
  8  3  2  0  0  0  0
  8 10  1  0  0  0  0
  9 10  1  0  0  0  0
  9  2  1  0  0  0  0
 10 16  2  0  0  0  0
 11 24  1  0  0  0  0
 12 14  1  0  0  0  0
 13  6  1  0  0  0  0
 13  5  2  0  0  0  0
 14  5  1  0  0  0  0
 16 15  1  0  0  0  0
 16 11  1  0  0  0  0
 17  2  2  0  0  0  0
 18 11  2  0  0  0  0
 20 22  2  0  0  0  0
 21 20  1  0  0  0  0
 21 19  1  0  0  0  0
 23 20  1  0  0  0  0
 25 32  1  1  0  0  0
 25 28  1  0  0  0  0
 26 29  1  1  0  0  0
 26 27  1  0  0  0  0
 28 27  1  0  0  0  0
 30 24  1  6  0  0  0
 30 25  1  0  0  0  0
 30 26  1  0  0  0  0
 31 32  3  0  0  0  0
M  END
>  <MODEL>
7

>  <REMARK>
 VINA RESULT:      -5.5      3.005      9.115
  Name = 
  5 active torsions:
  status: ('A' for Active; 'I' for Inactive)
    1  A    between atoms: C_2  and  C_24
    2  A    between atoms: C_7  and  C_29
    3  A    between atoms: N_10  and  C_24
    4  A    between atoms: C_16  and  C_27
    5  A    between atoms: C_27  and  C_32
                            x       y       z     vdW  Elec       q    Type
                         _______ _______ _______ _____ _____    ______ ____

>  <TORSDO>
F 5

$$$$
=
 OpenBabel11062410473D

 32 36  0  0  1  0  0  0  0  0999 V2000
  162.1670  205.7790  151.8780 C   0  0  1  0  0  3  0  0  0  0  0  0
  160.2980  210.5310  152.5130 C   0  0  0  0  0  0  0  0  0  0  0  0
  161.7190  213.0470  148.6040 C   0  0  0  0  0  3  0  0  0  0  0  0
  161.0000  214.1500  149.0670 C   0  0  0  0  0  3  0  0  0  0  0  0
  161.0010  208.2380  152.8730 C   0  0  0  0  0  0  0  0  0  0  0  0
  161.7300  209.4330  150.8880 C   0  0  0  0  0  3  0  0  0  0  0  0
  162.5450  207.0980  151.1990 C   0  0  0  0  0  2  0  0  0  0  0  0
  161.7310  211.8600  149.3380 C   0  0  0  0  0  3  0  0  0  0  0  0
  161.0230  210.5730  151.3020 C   0  0  0  0  0  0  0  0  0  0  0  0
  161.0210  211.7600  150.5470 C   0  0  0  0  0  0  0  0  0  0  0  0
  159.5790  212.7820  152.2260 C   0  0  0  0  0  0  0  0  0  0  0  0
  162.0050  205.9830  153.3840 C   0  0  0  0  0  2  0  0  0  0  0  0
  161.7120  208.2640  151.6540 C   0  0  0  0  0  0  0  0  0  0  0  0
  160.8930  206.9860  153.6960 C   0  0  0  0  0  2  0  0  0  0  0  0
  160.2890  214.0680  150.2660 C   0  0  0  0  0  3  0  0  0  0  0  0
  160.2900  212.8810  151.0150 C   0  0  0  0  0  0  0  0  0  0  0  0
  160.2880  209.3670  153.2830 C   0  0  0  0  0  3  0  0  0  0  0  0
  159.6080  211.6220  152.9340 N   0  0  0  0  0  0  0  0  0  0  0  0
  160.9150  205.1660  151.2630 C   0  0  0  0  0  2  0  0  0  0  0  0
  160.8640  202.9290  150.1060 C   0  0  0  0  0  0  0  0  0  0  0  0
  161.0070  203.7140  151.2890 N   0  0  0  0  0  2  0  0  0  0  0  0
  160.6520  203.4770  148.9920 O   0  0  0  0  0  0  0  0  0  0  0  0
  160.9680  201.4490  150.1900 C   0  0  0  0  0  1  0  0  0  0  0  0
  158.8220  213.9450  152.7880 C   0  0  0  0  0  2  0  0  0  0  0  0
  159.3570  212.8880  154.9880 C   0  0  1  0  0  3  0  0  0  0  0  0
  157.1400  212.6720  154.1020 C   0  0  1  0  0  3  0  0  0  0  0  0
  157.2470  211.7480  155.2200 N   0  0  0  0  0  2  0  0  0  0  0  0
  158.6700  211.6430  155.5130 C   0  0  0  0  0  2  0  0  0  0  0  0
  155.8370  213.4400  154.1930 C   0  0  0  0  0  1  0  0  0  0  0  0
  158.3090  213.6250  154.1860 C   0  0  2  0  0  3  0  0  0  0  0  0
  160.1360  214.3850  156.9970 N   0  0  0  0  0  0  0  0  0  0  0  0
  159.7940  213.7250  156.1100 C   0  0  0  0  0  0  0  0  0  0  0  0
  1 19  1  6  0  0  0
  1 12  1  0  0  0  0
  2 18  1  0  0  0  0
  2 17  1  0  0  0  0
  3  4  2  0  0  0  0
  3  8  1  0  0  0  0
  4 15  1  0  0  0  0
  5 17  2  0  0  0  0
  5 14  1  0  0  0  0
  6  9  1  0  0  0  0
  6 13  2  0  0  0  0
  7 13  1  0  0  0  0
  7  1  1  0  0  0  0
  8 10  2  0  0  0  0
  9  2  2  0  0  0  0
 10 16  1  0  0  0  0
 10  9  1  0  0  0  0
 11 24  1  0  0  0  0
 11 18  2  0  0  0  0
 12 14  1  0  0  0  0
 13  5  1  0  0  0  0
 15 16  2  0  0  0  0
 16 11  1  0  0  0  0
 19 21  1  0  0  0  0
 20 23  1  0  0  0  0
 20 21  1  0  0  0  0
 22 20  2  0  0  0  0
 25 28  1  0  0  0  0
 25 32  1  1  0  0  0
 26 30  1  0  0  0  0
 26 29  1  1  0  0  0
 26 27  1  0  0  0  0
 27 28  1  0  0  0  0
 30 24  1  6  0  0  0
 30 25  1  0  0  0  0
 32 31  3  0  0  0  0
M  END
>  <MODEL>
8

>  <REMARK>
 VINA RESULT:      -5.2      3.520      9.584
  Name = 
  5 active torsions:
  status: ('A' for Active; 'I' for Inactive)
    1  A    between atoms: C_2  and  C_24
    2  A    between atoms: C_7  and  C_29
    3  A    between atoms: N_10  and  C_24
    4  A    between atoms: C_16  and  C_27
    5  A    between atoms: C_27  and  C_32
                            x       y       z     vdW  Elec       q    Type
                         _______ _______ _______ _____ _____    ______ ____

>  <TORSDO>
F 5

$$$$
=
 OpenBabel11062410473D

 32 36  0  0  1  0  0  0  0  0999 V2000
  160.8430  204.9160  148.5490 C   0  0  1  0  0  3  0  0  0  0  0  0
  161.2730  208.6560  152.0570 C   0  0  0  0  0  0  0  0  0  0  0  0
  160.6290  206.5080  156.3700 C   0  0  0  0  0  3  0  0  0  0  0  0
  160.8910  207.7250  157.0020 C   0  0  0  0  0  3  0  0  0  0  0  0
  161.0370  207.4290  149.9780 C   0  0  0  0  0  0  0  0  0  0  0  0
  160.7220  206.2910  152.1020 C   0  0  0  0  0  3  0  0  0  0  0  0
  160.4080  204.9610  150.0170 C   0  0  0  0  0  2  0  0  0  0  0  0
  160.6570  206.4220  154.9770 C   0  0  0  0  0  3  0  0  0  0  0  0
  160.9800  207.4860  152.7920 C   0  0  0  0  0  0  0  0  0  0  0  0
  160.9490  207.5530  154.1960 C   0  0  0  0  0  0  0  0  0  0  0  0
  161.5100  209.9210  154.0600 C   0  0  0  0  0  0  0  0  0  0  0  0
  160.4680  206.2180  147.8430 C   0  0  0  0  0  2  0  0  0  0  0  0
  160.7640  206.2500  150.7050 C   0  0  0  0  0  0  0  0  0  0  0  0
  161.1620  207.4220  148.4820 C   0  0  0  0  0  2  0  0  0  0  0  0
  161.1840  208.8590  156.2410 C   0  0  0  0  0  3  0  0  0  0  0  0
  161.2170  208.7880  154.8410 C   0  0  0  0  0  0  0  0  0  0  0  0
  161.3050  208.6180  150.6620 C   0  0  0  0  0  3  0  0  0  0  0  0
  161.5250  209.8240  152.7040 N   0  0  0  0  0  0  0  0  0  0  0  0
  162.3300  204.6170  148.4110 C   0  0  0  0  0  2  0  0  0  0  0  0
  162.2530  204.1080  145.9440 C   0  0  0  0  0  0  0  0  0  0  0  0
  162.7620  204.8630  147.0430 N   0  0  0  0  0  2  0  0  0  0  0  0
  161.4040  203.1960  146.1300 O   0  0  0  0  0  0  0  0  0  0  0  0
  162.7280  204.4020  144.5680 C   0  0  0  0  0  1  0  0  0  0  0  0
  161.7620  211.2600  154.6830 C   0  0  0  0  0  2  0  0  0  0  0  0
  160.0120  212.0140  156.2990 C   0  0  1  0  0  3  0  0  0  0  0  0
  159.3470  211.3310  154.0990 C   0  0  1  0  0  3  0  0  0  0  0  0
  158.1360  211.4440  154.8960 N   0  0  0  0  0  2  0  0  0  0  0  0
  158.5810  211.5160  156.2820 C   0  0  0  0  0  2  0  0  0  0  0  0
  159.1410  211.9970  152.7540 C   0  0  0  0  0  1  0  0  0  0  0  0
  160.4570  212.0250  154.8540 C   0  0  2  0  0  3  0  0  0  0  0  0
  160.0970  214.4530  157.2610 N   0  0  0  0  0  0  0  0  0  0  0  0
  160.0580  213.3770  156.8370 C   0  0  0  0  0  0  0  0  0  0  0  0
  1 19  1  1  0  0  0
  1  7  1  0  0  0  0
  2 18  2  0  0  0  0
  2  9  1  0  0  0  0
  3  4  1  0  0  0  0
  5 17  2  0  0  0  0
  5 13  1  0  0  0  0
  6  9  1  0  0  0  0
  7 13  1  0  0  0  0
  8  3  2  0  0  0  0
  9 10  2  0  0  0  0
 10 16  1  0  0  0  0
 10  8  1  0  0  0  0
 11 24  1  0  0  0  0
 11 16  2  0  0  0  0
 12 14  1  0  0  0  0
 12  1  1  0  0  0  0
 13  6  2  0  0  0  0
 14  5  1  0  0  0  0
 15  4  2  0  0  0  0
 16 15  1  0  0  0  0
 17  2  1  0  0  0  0
 18 11  1  0  0  0  0
 20 22  2  0  0  0  0
 20 21  1  0  0  0  0
 21 19  1  0  0  0  0
 23 20  1  0  0  0  0
 25 32  1  6  0  0  0
 26 29  1  6  0  0  0
 26 30  1  0  0  0  0
 26 27  1  0  0  0  0
 27 28  1  0  0  0  0
 28 25  1  0  0  0  0
 30 24  1  1  0  0  0
 30 25  1  0  0  0  0
 32 31  3  0  0  0  0
M  END
>  <MODEL>
9

>  <REMARK>
 VINA RESULT:      -5.1      2.751      9.112
  Name = 
  5 active torsions:
  status: ('A' for Active; 'I' for Inactive)
    1  A    between atoms: C_2  and  C_24
    2  A    between atoms: C_7  and  C_29
    3  A    between atoms: N_10  and  C_24
    4  A    between atoms: C_16  and  C_27
    5  A    between atoms: C_27  and  C_32
                            x       y       z     vdW  Elec       q    Type
                         _______ _______ _______ _____ _____    ______ ____

>  <TORSDO>
F 5

$$$$
