=
 OpenBabel11062408243D

 32 36  0  0  1  0  0  0  0  0999 V2000
  161.9550  209.2640  149.7160 C   0  0  0  0  0  0  0  0  0  0  0  0
  161.8820  208.2910  152.0270 C   0  0  2  0  0  3  0  0  0  0  0  0
  162.2610  209.0710  148.4650 N   0  0  0  0  0  0  0  0  0  0  0  0
  161.4540  208.1270  150.5670 C   0  0  2  0  0  3  0  0  0  0  0  0
  161.1380  207.4110  152.8270 O   0  0  0  0  0  0  0  0  0  0  0  0
  161.8830  209.7630  152.5320 C   0  0  1  0  0  3  0  0  0  0  0  0
  161.6350  205.2000  151.8820 C   0  0  2  0  0  3  0  0  0  0  0  0
  161.9450  206.7620  150.0760 C   0  0  1  0  0  3  0  0  0  0  0  0
  161.0770  205.7280  150.6300 N   0  0  0  0  0  2  0  0  0  0  0  0
  161.9710  206.6790  148.5770 C   0  0  0  0  0  3  0  0  0  0  0  0
  161.2190  210.6600  151.5820 N   0  0  0  0  0  2  0  0  0  0  0  0
  160.6730  204.1870  152.4670 C   0  0  0  0  0  1  0  0  0  0  0  0
  161.9610  210.6490  150.3160 C   0  0  2  0  0  3  0  0  0  0  0  0
  161.9540  206.2740  152.9420 C   0  0  0  0  0  2  0  0  0  0  0  0
  162.1730  207.7780  147.8460 C   0  0  0  0  0  3  0  0  0  0  0  0
  161.7810  212.5170  147.0550 C   0  0  0  0  0  0  0  0  0  0  0  0
  158.8670  214.4530  146.9760 O   0  0  0  0  0  1  0  0  0  0  0  0
  162.6290  212.9250  146.0750 F   0  0  0  0  0  0  0  0  0  0  0  0
  159.4860  213.2660  148.9050 C   0  0  0  0  0  3  0  0  0  0  0  0
  161.4030  211.6860  149.3790 C   0  0  0  0  0  0  0  0  0  0  0  0
  160.3260  212.4590  146.7320 C   0  0  0  0  0  2  0  0  0  0  0  0
  160.2100  212.2380  149.6760 C   0  0  0  0  0  3  0  0  0  0  0  0
  162.2650  212.1350  148.2480 C   0  0  0  0  0  0  0  0  0  0  0  0
  163.7470  212.1290  148.4450 C   0  0  0  0  0  1  0  0  0  0  0  0
  159.5590  213.4120  147.5820 C   0  0  0  0  0  0  0  0  0  0  0  0
  159.4630  211.3730  156.3240 C   0  0  0  0  0  2  0  0  0  0  0  0
  161.9430  210.7830  156.2700 C   0  0  0  0  0  2  0  0  0  0  0  0
  162.3470  210.7180  154.8030 C   0  0  0  0  0  2  0  0  0  0  0  0
  161.3340  209.9460  153.9550 C   0  0  0  0  0  3  0  0  0  0  0  0
  159.9900  210.6730  153.9300 C   0  0  0  0  0  2  0  0  0  0  0  0
  160.9020  211.8770  156.4620 C   0  0  0  0  0  2  0  0  0  0  0  0
  159.2200  210.3570  155.2040 C   0  0  0  0  0  2  0  0  0  0  0  0
  1 13  1  0  0  0  0
  2  6  1  0  0  0  0
  2  5  1  1  0  0  0
  3  1  2  0  0  0  0
  4  1  1  6  0  0  0
  4  2  1  0  0  0  0
  5 14  1  0  0  0  0
  6 29  1  1  0  0  0
  7 12  1  1  0  0  0
  7 14  1  0  0  0  0
  8 10  1  6  0  0  0
  8  4  1  0  0  0  0
  8  9  1  0  0  0  0
  9  7  1  0  0  0  0
 11  6  1  0  0  0  0
 13 20  1  6  0  0  0
 13 11  1  0  0  0  0
 15  3  1  0  0  0  0
 15 10  2  0  0  0  0
 16 23  2  0  0  0  0
 17 25  1  0  0  0  0
 18 16  1  0  0  0  0
 19 22  1  0  0  0  0
 20 22  2  0  0  0  0
 21 16  1  0  0  0  0
 21 25  1  0  0  0  0
 23 24  1  0  0  0  0
 23 20  1  0  0  0  0
 25 19  2  0  0  0  0
 26 31  1  0  0  0  0
 27 31  1  0  0  0  0
 28 27  1  0  0  0  0
 29 28  1  0  0  0  0
 30 29  1  0  0  0  0
 30 32  1  0  0  0  0
 32 26  1  0  0  0  0
M  END
>  <MODEL>
1

>  <REMARK>
 VINA RESULT:      -6.6      0.000      0.000
  Name = 
  2 active torsions:
  status: ('A' for Active; 'I' for Inactive)
    1  A    between atoms: C_10  and  C_17
    2  A    between atoms: C_16  and  C_27
                            x       y       z     vdW  Elec       q    Type
                         _______ _______ _______ _____ _____    ______ ____

>  <TORSDO>
F 2

$$$$
=
 OpenBabel11062408243D

 32 36  0  0  1  0  0  0  0  0999 V2000
  161.6630  207.1070  152.0350 C   0  0  0  0  0  0  0  0  0  0  0  0
  161.7590  209.5810  152.4420 C   0  0  2  0  0  3  0  0  0  0  0  0
  161.6870  205.9170  152.5630 N   0  0  0  0  0  0  0  0  0  0  0  0
  161.0540  208.2640  152.7810 C   0  0  2  0  0  3  0  0  0  0  0  0
  160.9720  210.6520  152.8890 O   0  0  0  0  0  0  0  0  0  0  0  0
  162.2130  209.7000  150.9580 C   0  0  1  0  0  3  0  0  0  0  0  0
  160.7340  210.2380  155.2960 C   0  0  2  0  0  3  0  0  0  0  0  0
  161.0980  208.0770  154.2990 C   0  0  1  0  0  3  0  0  0  0  0  0
  160.1130  208.9650  154.9070 N   0  0  0  0  0  2  0  0  0  0  0  0
  160.8390  206.6530  154.6990 C   0  0  0  0  0  3  0  0  0  0  0  0
  161.6350  208.6370  150.1300 N   0  0  0  0  0  2  0  0  0  0  0  0
  159.6690  211.1610  155.8520 C   0  0  0  0  0  1  0  0  0  0  0  0
  162.1170  207.3390  150.6140 C   0  0  2  0  0  3  0  0  0  0  0  0
  161.4890  210.9550  154.1590 C   0  0  0  0  0  2  0  0  0  0  0  0
  161.1740  205.6540  153.8790 C   0  0  0  0  0  3  0  0  0  0  0  0
  161.8410  205.6530  147.2610 C   0  0  0  0  0  0  0  0  0  0  0  0
  160.6420  202.3930  147.6870 O   0  0  0  0  0  1  0  0  0  0  0  0
  161.7410  206.0110  145.9540 F   0  0  0  0  0  0  0  0  0  0  0  0
  160.7920  203.8800  149.4980 C   0  0  0  0  0  3  0  0  0  0  0  0
  161.6770  206.2410  149.6820 C   0  0  0  0  0  0  0  0  0  0  0  0
  162.2760  204.2600  147.5660 C   0  0  0  0  0  2  0  0  0  0  0  0
  161.2640  205.0770  150.2190 C   0  0  0  0  0  3  0  0  0  0  0  0
  161.6020  206.5560  148.2270 C   0  0  0  0  0  0  0  0  0  0  0  0
  161.2720  207.9570  147.8240 C   0  0  0  0  0  1  0  0  0  0  0  0
  161.2010  203.5170  148.2830 C   0  0  0  0  0  0  0  0  0  0  0  0
  160.1660  213.5580  149.0210 C   0  0  0  0  0  2  0  0  0  0  0  0
  162.2990  212.4250  148.2040 C   0  0  0  0  0  2  0  0  0  0  0  0
  162.3350  211.0440  148.8450 C   0  0  0  0  0  2  0  0  0  0  0  0
  161.9850  211.0840  150.3340 C   0  0  0  0  0  3  0  0  0  0  0  0
  160.5390  211.5400  150.5330 C   0  0  0  0  0  2  0  0  0  0  0  0
  160.8580  212.7980  147.8850 C   0  0  0  0  0  2  0  0  0  0  0  0
  160.4680  213.0570  150.4360 C   0  0  0  0  0  2  0  0  0  0  0  0
  1  3  2  0  0  0  0
  2  4  1  0  0  0  0
  2  5  1  6  0  0  0
  3 15  1  0  0  0  0
  4  1  1  6  0  0  0
  4  8  1  0  0  0  0
  5 14  1  0  0  0  0
  6 29  1  6  0  0  0
  6  2  1  0  0  0  0
  7 12  1  6  0  0  0
  8 10  1  6  0  0  0
  8  9  1  0  0  0  0
  9  7  1  0  0  0  0
 11 13  1  0  0  0  0
 11  6  1  0  0  0  0
 13 20  1  6  0  0  0
 13  1  1  0  0  0  0
 14  7  1  0  0  0  0
 15 10  2  0  0  0  0
 16 21  1  0  0  0  0
 16 23  2  0  0  0  0
 17 25  1  0  0  0  0
 18 16  1  0  0  0  0
 19 22  1  0  0  0  0
 20 22  2  0  0  0  0
 21 25  1  0  0  0  0
 23 20  1  0  0  0  0
 24 23  1  0  0  0  0
 25 19  2  0  0  0  0
 26 32  1  0  0  0  0
 27 28  1  0  0  0  0
 28 29  1  0  0  0  0
 29 30  1  0  0  0  0
 31 27  1  0  0  0  0
 31 26  1  0  0  0  0
 32 30  1  0  0  0  0
M  END
>  <MODEL>
2

>  <REMARK>
 VINA RESULT:      -6.0      2.448      6.298
  Name = 
  2 active torsions:
  status: ('A' for Active; 'I' for Inactive)
    1  A    between atoms: C_10  and  C_17
    2  A    between atoms: C_16  and  C_27
                            x       y       z     vdW  Elec       q    Type
                         _______ _______ _______ _____ _____    ______ ____

>  <TORSDO>
F 2

$$$$
=
 OpenBabel11062408243D

 32 36  0  0  1  0  0  0  0  0999 V2000
  161.7230  207.0490  151.2940 C   0  0  0  0  0  0  0  0  0  0  0  0
  161.7970  209.5530  151.4330 C   0  0  2  0  0  3  0  0  0  0  0  0
  161.7760  205.9220  151.9460 N   0  0  0  0  0  0  0  0  0  0  0  0
  161.1190  208.2740  151.9300 C   0  0  2  0  0  3  0  0  0  0  0  0
  161.0090  210.6580  151.7860 O   0  0  0  0  0  0  0  0  0  0  0  0
  162.2090  209.5180  149.9330 C   0  0  1  0  0  3  0  0  0  0  0  0
  160.8410  210.5000  154.2300 C   0  0  2  0  0  3  0  0  0  0  0  0
  161.2060  208.2500  153.4580 C   0  0  1  0  0  3  0  0  0  0  0  0
  160.2260  209.1870  153.9960 N   0  0  0  0  0  2  0  0  0  0  0  0
  160.9760  206.8740  154.0140 C   0  0  0  0  0  3  0  0  0  0  0  0
  161.6230  208.3670  149.2390 N   0  0  0  0  0  2  0  0  0  0  0  0
  159.7800  211.4670  154.7140 C   0  0  0  0  0  1  0  0  0  0  0  0
  162.1350  207.1330  149.8450 C   0  0  2  0  0  3  0  0  0  0  0  0
  161.5560  211.0990  153.0020 C   0  0  0  0  0  2  0  0  0  0  0  0
  161.3020  205.7960  153.2960 C   0  0  0  0  0  3  0  0  0  0  0  0
  161.7890  205.0980  146.6990 C   0  0  0  0  0  0  0  0  0  0  0  0
  160.6470  201.8890  147.5020 O   0  0  0  0  0  1  0  0  0  0  0  0
  161.6500  205.3130  145.3650 F   0  0  0  0  0  0  0  0  0  0  0  0
  160.8260  203.5610  149.1400 C   0  0  0  0  0  3  0  0  0  0  0  0
  161.6850  205.9380  149.0470 C   0  0  0  0  0  0  0  0  0  0  0  0
  162.2510  203.7490  147.1370 C   0  0  0  0  0  2  0  0  0  0  0  0
  161.3020  204.8330  149.7170 C   0  0  0  0  0  3  0  0  0  0  0  0
  161.5650  206.0950  147.5700 C   0  0  0  0  0  0  0  0  0  0  0  0
  161.2060  207.4420  147.0300 C   0  0  0  0  0  1  0  0  0  0  0  0
  161.2060  203.0750  147.9590 C   0  0  0  0  0  0  0  0  0  0  0  0
  161.2630  212.6880  146.4860 C   0  0  0  0  0  2  0  0  0  0  0  0
  163.0810  212.9030  148.2610 C   0  0  0  0  0  2  0  0  0  0  0  0
  163.2760  211.5170  148.8600 C   0  0  0  0  0  2  0  0  0  0  0  0
  161.9470  210.8260  149.1730 C   0  0  0  0  0  3  0  0  0  0  0  0
  161.1660  210.5600  147.8860 C   0  0  0  0  0  2  0  0  0  0  0  0
  162.7650  212.7760  146.7780 C   0  0  0  0  0  2  0  0  0  0  0  0
  160.4470  211.8310  147.4580 C   0  0  0  0  0  2  0  0  0  0  0  0
  1  3  2  0  0  0  0
  2  5  1  6  0  0  0
  2  4  1  0  0  0  0
  3 15  1  0  0  0  0
  4  1  1  6  0  0  0
  4  8  1  0  0  0  0
  5 14  1  0  0  0  0
  6 29  1  6  0  0  0
  6  2  1  0  0  0  0
  7 12  1  6  0  0  0
  8  9  1  0  0  0  0
  8 10  1  1  0  0  0
  9  7  1  0  0  0  0
 11 13  1  0  0  0  0
 11  6  1  0  0  0  0
 13 20  1  6  0  0  0
 13  1  1  0  0  0  0
 14  7  1  0  0  0  0
 15 10  2  0  0  0  0
 16 21  1  0  0  0  0
 16 23  2  0  0  0  0
 17 25  1  0  0  0  0
 18 16  1  0  0  0  0
 19 22  1  0  0  0  0
 20 22  2  0  0  0  0
 21 25  1  0  0  0  0
 23 20  1  0  0  0  0
 24 23  1  0  0  0  0
 25 19  2  0  0  0  0
 26 31  1  0  0  0  0
 26 32  1  0  0  0  0
 27 28  1  0  0  0  0
 28 29  1  0  0  0  0
 30 29  1  0  0  0  0
 31 27  1  0  0  0  0
 32 30  1  0  0  0  0
M  END
>  <MODEL>
3

>  <REMARK>
 VINA RESULT:      -5.4      2.596      6.722
  Name = 
  2 active torsions:
  status: ('A' for Active; 'I' for Inactive)
    1  A    between atoms: C_10  and  C_17
    2  A    between atoms: C_16  and  C_27
                            x       y       z     vdW  Elec       q    Type
                         _______ _______ _______ _____ _____    ______ ____

>  <TORSDO>
F 2

$$$$
=
 OpenBabel11062408243D

 32 36  0  0  1  0  0  0  0  0999 V2000
  161.9570  208.9610  149.9290 C   0  0  0  0  0  0  0  0  0  0  0  0
  161.8670  207.9330  152.2150 C   0  0  2  0  0  3  0  0  0  0  0  0
  162.2310  208.7850  148.6670 N   0  0  0  0  0  0  0  0  0  0  0  0
  161.4080  207.8310  150.7580 C   0  0  2  0  0  3  0  0  0  0  0  0
  161.0890  207.0740  153.0040 O   0  0  0  0  0  0  0  0  0  0  0  0
  161.9580  209.3880  152.7570 C   0  0  1  0  0  3  0  0  0  0  0  0
  161.4480  204.8650  151.9950 C   0  0  2  0  0  3  0  0  0  0  0  0
  161.8150  206.4550  150.2240 C   0  0  1  0  0  3  0  0  0  0  0  0
  160.9000  205.4560  150.7670 N   0  0  0  0  0  2  0  0  0  0  0  0
  161.8120  206.4100  148.7240 C   0  0  0  0  0  3  0  0  0  0  0  0
  161.3300  210.3450  151.8420 N   0  0  0  0  0  2  0  0  0  0  0  0
  160.4410  203.8920  152.5700 C   0  0  0  0  0  1  0  0  0  0  0  0
  162.0490  210.3280  150.5630 C   0  0  2  0  0  3  0  0  0  0  0  0
  161.8430  205.8920  153.0760 C   0  0  0  0  0  2  0  0  0  0  0  0
  162.0620  207.5160  148.0180 C   0  0  0  0  0  3  0  0  0  0  0  0
  160.4370  213.6530  149.8540 C   0  0  0  0  0  0  0  0  0  0  0  0
  160.8500  214.4530  146.4720 O   0  0  0  0  0  1  0  0  0  0  0  0
  159.4860  214.4530  150.4010 F   0  0  0  0  0  0  0  0  0  0  0  0
  161.5340  212.3740  147.3220 C   0  0  0  0  0  3  0  0  0  0  0  0
  161.5350  211.4180  149.6630 C   0  0  0  0  0  0  0  0  0  0  0  0
  161.3910  214.2720  148.8890 C   0  0  0  0  0  2  0  0  0  0  0  0
  161.9180  211.4110  148.3710 C   0  0  0  0  0  3  0  0  0  0  0  0
  160.5290  212.3650  150.2240 C   0  0  0  0  0  0  0  0  0  0  0  0
  159.5940  211.8590  151.2750 C   0  0  0  0  0  1  0  0  0  0  0  0
  161.2480  213.6580  147.5380 C   0  0  0  0  0  0  0  0  0  0  0  0
  159.5930  210.9460  156.6060 C   0  0  0  0  0  2  0  0  0  0  0  0
  162.0880  210.4360  156.4860 C   0  0  0  0  0  2  0  0  0  0  0  0
  162.4530  210.3740  155.0090 C   0  0  0  0  0  2  0  0  0  0  0  0
  161.4430  209.5630  154.1930 C   0  0  0  0  0  3  0  0  0  0  0  0
  160.0760  210.2470  154.2020 C   0  0  0  0  0  2  0  0  0  0  0  0
  161.0190  211.4970  156.7000 C   0  0  0  0  0  2  0  0  0  0  0  0
  159.3520  209.9150  155.4980 C   0  0  0  0  0  2  0  0  0  0  0  0
  1 13  1  0  0  0  0
  2  6  1  0  0  0  0
  2  5  1  1  0  0  0
  3  1  2  0  0  0  0
  4  1  1  6  0  0  0
  4  2  1  0  0  0  0
  5 14  1  0  0  0  0
  6 29  1  1  0  0  0
  7 12  1  1  0  0  0
  7 14  1  0  0  0  0
  8 10  1  6  0  0  0
  8  4  1  0  0  0  0
  8  9  1  0  0  0  0
  9  7  1  0  0  0  0
 11  6  1  0  0  0  0
 13 20  1  6  0  0  0
 13 11  1  0  0  0  0
 15  3  1  0  0  0  0
 15 10  2  0  0  0  0
 16 23  2  0  0  0  0
 16 18  1  0  0  0  0
 17 25  1  0  0  0  0
 19 25  2  0  0  0  0
 19 22  1  0  0  0  0
 20 23  1  0  0  0  0
 21 16  1  0  0  0  0
 22 20  2  0  0  0  0
 23 24  1  0  0  0  0
 25 21  1  0  0  0  0
 26 31  1  0  0  0  0
 27 31  1  0  0  0  0
 28 27  1  0  0  0  0
 29 30  1  0  0  0  0
 29 28  1  0  0  0  0
 30 32  1  0  0  0  0
 32 26  1  0  0  0  0
M  END
>  <MODEL>
4

>  <REMARK>
 VINA RESULT:      -5.4      1.273      1.830
  Name = 
  2 active torsions:
  status: ('A' for Active; 'I' for Inactive)
    1  A    between atoms: C_10  and  C_17
    2  A    between atoms: C_16  and  C_27
                            x       y       z     vdW  Elec       q    Type
                         _______ _______ _______ _____ _____    ______ ____

>  <TORSDO>
F 2

$$$$
=
 OpenBabel11062408243D

 32 36  0  0  1  0  0  0  0  0999 V2000
  162.1000  207.3730  150.2760 C   0  0  0  0  0  0  0  0  0  0  0  0
  161.8840  209.8050  150.8530 C   0  0  2  0  0  3  0  0  0  0  0  0
  162.2560  206.1590  150.7240 N   0  0  0  0  0  0  0  0  0  0  0  0
  161.3380  208.3930  151.0800 C   0  0  2  0  0  3  0  0  0  0  0  0
  160.9640  210.7400  151.3460 O   0  0  0  0  0  0  0  0  0  0  0  0
  162.3540  210.0830  149.3950 C   0  0  1  0  0  3  0  0  0  0  0  0
  160.7220  210.1310  153.7120 C   0  0  2  0  0  3  0  0  0  0  0  0
  161.3690  208.1050  152.5830 C   0  0  1  0  0  3  0  0  0  0  0  0
  160.2700  208.8240  153.2190 N   0  0  0  0  0  2  0  0  0  0  0  0
  161.2760  206.6360  152.8770 C   0  0  0  0  0  3  0  0  0  0  0  0
  161.9290  209.0200  148.4800 N   0  0  0  0  0  2  0  0  0  0  0  0
  159.5410  210.8780  154.2950 C   0  0  0  0  0  1  0  0  0  0  0  0
  162.5540  207.7570  148.8890 C   0  0  2  0  0  3  0  0  0  0  0  0
  161.4110  211.0120  152.6490 C   0  0  0  0  0  2  0  0  0  0  0  0
  161.7490  205.7440  152.0020 C   0  0  0  0  0  3  0  0  0  0  0  0
  160.5220  206.1010  146.1900 C   0  0  0  0  0  0  0  0  0  0  0  0
  162.4260  203.5880  144.6700 O   0  0  0  0  0  1  0  0  0  0  0  0
  159.2140  205.9490  145.8580 F   0  0  0  0  0  0  0  0  0  0  0  0
  163.2290  204.7590  146.5400 C   0  0  0  0  0  3  0  0  0  0  0  0
  162.2720  206.6840  147.8720 C   0  0  0  0  0  0  0  0  0  0  0  0
  161.5390  205.8630  145.1250 C   0  0  0  0  0  2  0  0  0  0  0  0
  163.2830  205.8700  147.5100 C   0  0  0  0  0  3  0  0  0  0  0  0
  160.8620  206.5050  147.4250 C   0  0  0  0  0  0  0  0  0  0  0  0
  159.7690  206.8200  148.3950 C   0  0  0  0  0  1  0  0  0  0  0  0
  162.4190  204.7140  145.4830 C   0  0  0  0  0  0  0  0  0  0  0  0
  160.7630  213.6310  146.6190 C   0  0  0  0  0  2  0  0  0  0  0  0
  162.9470  213.6230  147.9350 C   0  0  0  0  0  2  0  0  0  0  0  0
  163.2210  212.1760  148.3220 C   0  0  0  0  0  2  0  0  0  0  0  0
  161.9740  211.4710  148.8600 C   0  0  0  0  0  3  0  0  0  0  0  0
  160.9080  211.3600  147.7690 C   0  0  0  0  0  2  0  0  0  0  0  0
  162.2930  213.6660  146.5620 C   0  0  0  0  0  2  0  0  0  0  0  0
  160.1590  212.6800  147.6580 C   0  0  0  0  0  2  0  0  0  0  0  0
  1  3  2  0  0  0  0
  2  4  1  0  0  0  0
  2  5  1  6  0  0  0
  3 15  1  0  0  0  0
  4  1  1  6  0  0  0
  4  8  1  0  0  0  0
  5 14  1  0  0  0  0
  6 29  1  6  0  0  0
  6  2  1  0  0  0  0
  7 12  1  6  0  0  0
  8 10  1  6  0  0  0
  8  9  1  0  0  0  0
  9  7  1  0  0  0  0
 11 13  1  0  0  0  0
 11  6  1  0  0  0  0
 13 20  1  6  0  0  0
 13  1  1  0  0  0  0
 14  7  1  0  0  0  0
 15 10  2  0  0  0  0
 16 23  2  0  0  0  0
 17 25  1  0  0  0  0
 18 16  1  0  0  0  0
 19 22  1  0  0  0  0
 21 25  1  0  0  0  0
 21 16  1  0  0  0  0
 22 20  2  0  0  0  0
 23 20  1  0  0  0  0
 23 24  1  0  0  0  0
 25 19  2  0  0  0  0
 26 32  1  0  0  0  0
 27 28  1  0  0  0  0
 28 29  1  0  0  0  0
 30 29  1  0  0  0  0
 31 26  1  0  0  0  0
 31 27  1  0  0  0  0
 32 30  1  0  0  0  0
M  END
>  <MODEL>
5

>  <REMARK>
 VINA RESULT:      -4.9      2.728      6.429
  Name = 
  2 active torsions:
  status: ('A' for Active; 'I' for Inactive)
    1  A    between atoms: C_10  and  C_17
    2  A    between atoms: C_16  and  C_27
                            x       y       z     vdW  Elec       q    Type
                         _______ _______ _______ _____ _____    ______ ____

>  <TORSDO>
F 2

$$$$
=
 OpenBabel11062408243D

 32 36  0  0  1  0  0  0  0  0999 V2000
  161.2040  207.9070  153.0650 C   0  0  0  0  0  0  0  0  0  0  0  0
  161.0960  210.4120  152.9830 C   0  0  2  0  0  3  0  0  0  0  0  0
  161.1760  206.8410  153.8140 N   0  0  0  0  0  0  0  0  0  0  0  0
  160.4010  209.1250  153.4360 C   0  0  2  0  0  3  0  0  0  0  0  0
  160.1840  211.4760  153.0500 O   0  0  0  0  0  0  0  0  0  0  0  0
  161.8360  210.2930  151.6200 C   0  0  1  0  0  3  0  0  0  0  0  0
  159.4810  211.4950  155.4020 C   0  0  2  0  0  3  0  0  0  0  0  0
  160.1440  209.2270  154.9420 C   0  0  1  0  0  3  0  0  0  0  0  0
  159.0140  210.1230  155.1620 N   0  0  0  0  0  2  0  0  0  0  0  0
  159.8770  207.8840  155.5590 C   0  0  0  0  0  3  0  0  0  0  0  0
  161.4900  209.0500  150.9240 N   0  0  0  0  0  2  0  0  0  0  0  0
  158.2830  212.4090  155.5500 C   0  0  0  0  0  1  0  0  0  0  0  0
  161.9250  207.9100  151.7390 C   0  0  2  0  0  3  0  0  0  0  0  0
  160.4170  212.0510  154.3100 C   0  0  0  0  0  2  0  0  0  0  0  0
  160.4200  206.7830  155.0330 C   0  0  0  0  0  3  0  0  0  0  0  0
  161.6420  204.1710  151.4240 C   0  0  0  0  0  0  0  0  0  0  0  0
  160.4830  203.3520  148.2250 O   0  0  0  0  0  1  0  0  0  0  0  0
  162.1520  203.0640  152.0250 F   0  0  0  0  0  0  0  0  0  0  0  0
  160.9920  205.5700  148.8040 C   0  0  0  0  0  3  0  0  0  0  0  0
  161.7380  206.6250  150.9770 C   0  0  0  0  0  0  0  0  0  0  0  0
  160.3980  204.0100  150.6190 C   0  0  0  0  0  2  0  0  0  0  0  0
  161.2500  206.6950  149.7230 C   0  0  0  0  0  3  0  0  0  0  0  0
  162.2260  205.3660  151.6080 C   0  0  0  0  0  0  0  0  0  0  0  0
  163.4100  205.4460  152.5170 C   0  0  0  0  0  1  0  0  0  0  0  0
  160.6500  204.3400  149.1870 C   0  0  0  0  0  0  0  0  0  0  0  0
  159.9900  213.6520  148.7660 C   0  0  0  0  0  2  0  0  0  0  0  0
  162.1570  212.3700  148.3630 C   0  0  0  0  0  2  0  0  0  0  0  0
  162.1270  211.1570  149.2840 C   0  0  0  0  0  2  0  0  0  0  0  0
  161.6740  211.5140  150.7010 C   0  0  0  0  0  3  0  0  0  0  0  0
  160.2250  212.0010  150.6950 C   0  0  0  0  0  2  0  0  0  0  0  0
  160.7480  212.6680  147.8700 C   0  0  0  0  0  2  0  0  0  0  0  0
  160.1850  213.4630  150.2740 C   0  0  0  0  0  2  0  0  0  0  0  0
  1  3  2  0  0  0  0
  2  5  1  6  0  0  0
  2  4  1  0  0  0  0
  3 15  1  0  0  0  0
  4  1  1  1  0  0  0
  4  8  1  0  0  0  0
  5 14  1  0  0  0  0
  6 29  1  6  0  0  0
  6  2  1  0  0  0  0
  7 12  1  6  0  0  0
  8  9  1  0  0  0  0
  8 10  1  6  0  0  0
  9  7  1  0  0  0  0
 11  6  1  0  0  0  0
 11 13  1  0  0  0  0
 13 20  1  6  0  0  0
 13  1  1  0  0  0  0
 14  7  1  0  0  0  0
 15 10  2  0  0  0  0
 16 23  2  0  0  0  0
 16 18  1  0  0  0  0
 17 25  1  0  0  0  0
 19 25  2  0  0  0  0
 19 22  1  0  0  0  0
 20 23  1  0  0  0  0
 21 16  1  0  0  0  0
 22 20  2  0  0  0  0
 23 24  1  0  0  0  0
 25 21  1  0  0  0  0
 26 32  1  0  0  0  0
 27 28  1  0  0  0  0
 28 29  1  0  0  0  0
 30 29  1  0  0  0  0
 31 27  1  0  0  0  0
 31 26  1  0  0  0  0
 32 30  1  0  0  0  0
M  END
>  <MODEL>
6

>  <REMARK>
 VINA RESULT:      -4.8      2.933      6.881
  Name = 
  2 active torsions:
  status: ('A' for Active; 'I' for Inactive)
    1  A    between atoms: C_10  and  C_17
    2  A    between atoms: C_16  and  C_27
                            x       y       z     vdW  Elec       q    Type
                         _______ _______ _______ _____ _____    ______ ____

>  <TORSDO>
F 2

$$$$
=
 OpenBabel11062408243D

 32 36  0  0  1  0  0  0  0  0999 V2000
  161.7540  208.2270  150.6950 C   0  0  0  0  0  0  0  0  0  0  0  0
  161.6150  206.1010  149.3710 C   0  0  2  0  0  3  0  0  0  0  0  0
  162.1240  209.4760  150.7110 N   0  0  0  0  0  0  0  0  0  0  0  0
  161.2630  207.5900  149.4230 C   0  0  2  0  0  3  0  0  0  0  0  0
  160.8730  205.4870  148.3530 O   0  0  0  0  0  0  0  0  0  0  0  0
  161.5310  205.3760  150.7460 C   0  0  1  0  0  3  0  0  0  0  0  0
  161.5060  206.7340  146.3350 C   0  0  2  0  0  3  0  0  0  0  0  0
  161.8320  208.2590  148.1690 C   0  0  1  0  0  3  0  0  0  0  0  0
  160.9840  207.9170  147.0320 N   0  0  0  0  0  2  0  0  0  0  0  0
  161.9310  209.7490  148.3210 C   0  0  0  0  0  3  0  0  0  0  0  0
  160.8750  206.2100  151.7570 N   0  0  0  0  0  2  0  0  0  0  0  0
  160.5610  206.3630  145.2110 C   0  0  0  0  0  1  0  0  0  0  0  0
  161.6740  207.4220  151.9690 C   0  0  2  0  0  3  0  0  0  0  0  0
  161.7300  205.5050  147.2410 C   0  0  0  0  0  2  0  0  0  0  0  0
  162.1190  210.2900  149.5270 C   0  0  0  0  0  3  0  0  0  0  0  0
  161.2750  208.2800  155.6110 C   0  0  0  0  0  0  0  0  0  0  0  0
  159.6240  211.3510  155.9140 O   0  0  0  0  0  1  0  0  0  0  0  0
  161.2680  207.6360  156.8070 F   0  0  0  0  0  0  0  0  0  0  0  0
  159.9190  210.3310  153.8200 C   0  0  0  0  0  3  0  0  0  0  0  0
  161.1170  208.2160  153.1200 C   0  0  0  0  0  0  0  0  0  0  0  0
  161.5030  209.7540  155.6200 C   0  0  0  0  0  2  0  0  0  0  0  0
  160.5300  209.3990  152.8520 C   0  0  0  0  0  3  0  0  0  0  0  0
  161.1320  207.5850  154.4710 C   0  0  0  0  0  0  0  0  0  0  0  0
  161.0130  206.0970  154.5550 C   0  0  0  0  0  1  0  0  0  0  0  0
  160.3130  210.4750  155.0850 C   0  0  0  0  0  0  0  0  0  0  0  0
  160.8930  200.6470  150.9920 C   0  0  0  0  0  2  0  0  0  0  0  0
  160.1420  202.1620  149.0840 C   0  0  0  0  0  2  0  0  0  0  0  0
  160.9020  203.4730  149.2390 C   0  0  0  0  0  2  0  0  0  0  0  0
  160.9100  203.9730  150.6860 C   0  0  0  0  0  3  0  0  0  0  0  0
  161.6750  203.0000  151.5840 C   0  0  0  0  0  2  0  0  0  0  0  0
  161.0340  201.0050  149.5100 C   0  0  0  0  0  2  0  0  0  0  0  0
  160.7700  201.8340  151.9530 C   0  0  0  0  0  2  0  0  0  0  0  0
  1  3  2  0  0  0  0
  1 13  1  0  0  0  0
  2  5  1  6  0  0  0
  2  4  1  0  0  0  0
  2  6  1  0  0  0  0
  4  1  1  1  0  0  0
  6 29  1  6  0  0  0
  6 11  1  0  0  0  0
  7 12  1  6  0  0  0
  7  9  1  0  0  0  0
  7 14  1  0  0  0  0
  8 10  1  1  0  0  0
  8  4  1  0  0  0  0
  9  8  1  0  0  0  0
 10 15  2  0  0  0  0
 11 13  1  0  0  0  0
 13 20  1  1  0  0  0
 14  5  1  0  0  0  0
 15  3  1  0  0  0  0
 16 21  1  0  0  0  0
 16 18  1  0  0  0  0
 19 25  2  0  0  0  0
 20 23  1  0  0  0  0
 22 20  2  0  0  0  0
 22 19  1  0  0  0  0
 23 24  1  0  0  0  0
 23 16  2  0  0  0  0
 25 21  1  0  0  0  0
 25 17  1  0  0  0  0
 26 32  1  0  0  0  0
 27 28  1  0  0  0  0
 27 31  1  0  0  0  0
 28 29  1  0  0  0  0
 29 30  1  0  0  0  0
 30 32  1  0  0  0  0
 31 26  1  0  0  0  0
M  END
>  <MODEL>
7

>  <REMARK>
 VINA RESULT:      -4.5      3.416      7.270
  Name = 
  2 active torsions:
  status: ('A' for Active; 'I' for Inactive)
    1  A    between atoms: C_10  and  C_17
    2  A    between atoms: C_16  and  C_27
                            x       y       z     vdW  Elec       q    Type
                         _______ _______ _______ _____ _____    ______ ____

>  <TORSDO>
F 2

$$$$
=
 OpenBabel11062408243D

 32 36  0  0  1  0  0  0  0  0999 V2000
  161.2880  208.6790  151.9440 C   0  0  0  0  0  0  0  0  0  0  0  0
  161.0670  211.1280  151.4470 C   0  0  2  0  0  3  0  0  0  0  0  0
  161.2960  207.7520  152.8590 N   0  0  0  0  0  0  0  0  0  0  0  0
  160.4240  209.9020  152.1010 C   0  0  2  0  0  3  0  0  0  0  0  0
  160.1070  212.1440  151.3280 O   0  0  0  0  0  0  0  0  0  0  0  0
  161.8350  210.8220  150.1290 C   0  0  1  0  0  3  0  0  0  0  0  0
  159.3620  212.5170  153.6380 C   0  0  2  0  0  3  0  0  0  0  0  0
  160.1360  210.2390  153.5660 C   0  0  1  0  0  3  0  0  0  0  0  0
  158.9620  211.1040  153.6240 N   0  0  0  0  0  2  0  0  0  0  0  0
  159.9200  209.0050  154.3950 C   0  0  0  0  0  3  0  0  0  0  0  0
  161.5590  209.4650  149.6470 N   0  0  0  0  0  2  0  0  0  0  0  0
  158.1210  213.3850  153.6200 C   0  0  0  0  0  1  0  0  0  0  0  0
  162.0320  208.4980  150.6430 C   0  0  2  0  0  3  0  0  0  0  0  0
  160.2910  212.9300  152.4770 C   0  0  0  0  0  2  0  0  0  0  0  0
  160.5220  207.8600  154.0640 C   0  0  0  0  0  3  0  0  0  0  0  0
  161.6250  204.7710  150.9590 C   0  0  0  0  0  0  0  0  0  0  0  0
  160.9980  203.3920  147.8040 O   0  0  0  0  0  1  0  0  0  0  0  0
  161.9690  203.7860  151.8300 F   0  0  0  0  0  0  0  0  0  0  0  0
  161.5060  205.6700  148.0560 C   0  0  0  0  0  3  0  0  0  0  0  0
  161.9160  207.0980  150.1030 C   0  0  0  0  0  0  0  0  0  0  0  0
  160.5320  204.4840  149.9860 C   0  0  0  0  0  2  0  0  0  0  0  0
  161.6560  206.9410  148.7900 C   0  0  0  0  0  3  0  0  0  0  0  0
  162.2260  205.9700  151.0270 C   0  0  0  0  0  0  0  0  0  0  0  0
  163.2380  206.1980  152.1040 C   0  0  0  0  0  1  0  0  0  0  0  0
  161.0440  204.5390  148.5870 C   0  0  0  0  0  0  0  0  0  0  0  0
  161.1300  212.9010  145.8850 C   0  0  0  0  0  2  0  0  0  0  0  0
  162.8440  213.6100  147.6340 C   0  0  0  0  0  2  0  0  0  0  0  0
  162.9870  212.4470  148.6070 C   0  0  0  0  0  2  0  0  0  0  0  0
  161.6340  211.8650  149.0200 C   0  0  0  0  0  3  0  0  0  0  0  0
  160.9250  211.2470  147.8140 C   0  0  0  0  0  2  0  0  0  0  0  0
  162.6120  213.0730  146.2300 C   0  0  0  0  0  2  0  0  0  0  0  0
  160.2480  212.3450  147.0080 C   0  0  0  0  0  2  0  0  0  0  0  0
  1  3  2  0  0  0  0
  2  5  1  6  0  0  0
  2  4  1  0  0  0  0
  3 15  1  0  0  0  0
  4  1  1  1  0  0  0
  4  8  1  0  0  0  0
  5 14  1  0  0  0  0
  6 29  1  6  0  0  0
  6  2  1  0  0  0  0
  7 12  1  6  0  0  0
  8  9  1  0  0  0  0
  8 10  1  1  0  0  0
  9  7  1  0  0  0  0
 11  6  1  0  0  0  0
 11 13  1  0  0  0  0
 13 20  1  6  0  0  0
 13  1  1  0  0  0  0
 14  7  1  0  0  0  0
 15 10  2  0  0  0  0
 16 23  2  0  0  0  0
 16 18  1  0  0  0  0
 17 25  1  0  0  0  0
 19 25  2  0  0  0  0
 19 22  1  0  0  0  0
 20 23  1  0  0  0  0
 21 16  1  0  0  0  0
 22 20  2  0  0  0  0
 23 24  1  0  0  0  0
 25 21  1  0  0  0  0
 26 31  1  0  0  0  0
 26 32  1  0  0  0  0
 27 28  1  0  0  0  0
 28 29  1  0  0  0  0
 30 29  1  0  0  0  0
 31 27  1  0  0  0  0
 32 30  1  0  0  0  0
M  END
>  <MODEL>
8

>  <REMARK>
 VINA RESULT:      -4.5      2.895      7.105
  Name = 
  2 active torsions:
  status: ('A' for Active; 'I' for Inactive)
    1  A    between atoms: C_10  and  C_17
    2  A    between atoms: C_16  and  C_27
                            x       y       z     vdW  Elec       q    Type
                         _______ _______ _______ _____ _____    ______ ____

>  <TORSDO>
F 2

$$$$
=
 OpenBabel11062408243D

 32 36  0  0  1  0  0  0  0  0999 V2000
  161.1380  211.3840  150.2740 C   0  0  0  0  0  0  0  0  0  0  0  0
  160.6170  211.0970  152.7110 C   0  0  2  0  0  3  0  0  0  0  0  0
  161.8600  210.9920  149.2630 N   0  0  0  0  0  0  0  0  0  0  0  0
  160.7310  210.4100  151.3480 C   0  0  2  0  0  3  0  0  0  0  0  0
  159.9340  210.2520  153.5970 O   0  0  0  0  0  0  0  0  0  0  0  0
  160.0540  212.5470  152.6520 C   0  0  1  0  0  3  0  0  0  0  0  0
  161.2920  208.2080  153.6190 C   0  0  2  0  0  3  0  0  0  0  0  0
  161.7070  209.2390  151.4840 C   0  0  1  0  0  3  0  0  0  0  0  0
  161.0310  208.1460  152.1750 N   0  0  0  0  0  2  0  0  0  0  0  0
  162.2230  208.7780  150.1510 C   0  0  0  0  0  3  0  0  0  0  0  0
  159.5000  212.8570  151.3310 N   0  0  0  0  0  2  0  0  0  0  0  0
  160.5140  207.1080  154.3110 C   0  0  0  0  0  1  0  0  0  0  0  0
  160.5730  212.7830  150.3330 C   0  0  2  0  0  3  0  0  0  0  0  0
  160.9530  209.5630  154.2730 C   0  0  0  0  0  2  0  0  0  0  0  0
  162.3310  209.6410  149.1380 C   0  0  0  0  0  3  0  0  0  0  0  0
  160.9540  213.6640  146.6950 C   0  0  0  0  0  0  0  0  0  0  0  0
  157.7910  214.1070  145.2630 O   0  0  0  0  0  1  0  0  0  0  0  0
  161.9050  214.1790  145.8730 F   0  0  0  0  0  0  0  0  0  0  0  0
  158.0410  213.7320  147.5670 C   0  0  0  0  0  3  0  0  0  0  0  0
  160.0730  213.2600  148.9960 C   0  0  0  0  0  0  0  0  0  0  0  0
  159.8220  212.9240  146.0660 C   0  0  0  0  0  2  0  0  0  0  0  0
  158.7420  213.2980  148.7910 C   0  0  0  0  0  3  0  0  0  0  0  0
  161.0770  213.7850  148.0270 C   0  0  0  0  0  0  0  0  0  0  0  0
  162.2990  214.4530  148.5700 C   0  0  0  0  0  1  0  0  0  0  0  0
  158.5280  213.6140  146.3330 C   0  0  0  0  0  0  0  0  0  0  0  0
  157.8490  212.8030  156.8830 C   0  0  0  0  0  2  0  0  0  0  0  0
  156.7260  212.3880  154.6320 C   0  0  0  0  0  2  0  0  0  0  0  0
  157.8270  211.9870  153.6600 C   0  0  0  0  0  2  0  0  0  0  0  0
  159.0590  212.8870  153.7720 C   0  0  0  0  0  3  0  0  0  0  0  0
  159.7130  212.7330  155.1460 C   0  0  0  0  0  2  0  0  0  0  0  0
  157.0420  211.8340  156.0140 C   0  0  0  0  0  2  0  0  0  0  0  0
  158.9580  213.5760  156.1630 C   0  0  0  0  0  2  0  0  0  0  0  0
  1 13  1  0  0  0  0
  2  5  1  1  0  0  0
  3  1  2  0  0  0  0
  4  1  1  6  0  0  0
  4  8  1  0  0  0  0
  4  2  1  0  0  0  0
  5 14  1  0  0  0  0
  6  2  1  0  0  0  0
  6 29  1  1  0  0  0
  7 14  1  0  0  0  0
  7 12  1  1  0  0  0
  8 10  1  6  0  0  0
  8  9  1  0  0  0  0
  9  7  1  0  0  0  0
 11  6  1  0  0  0  0
 13 20  1  6  0  0  0
 13 11  1  0  0  0  0
 15  3  1  0  0  0  0
 15 10  2  0  0  0  0
 16 23  2  0  0  0  0
 17 25  1  0  0  0  0
 18 16  1  0  0  0  0
 19 22  1  0  0  0  0
 21 25  1  0  0  0  0
 21 16  1  0  0  0  0
 22 20  2  0  0  0  0
 23 24  1  0  0  0  0
 23 20  1  0  0  0  0
 25 19  2  0  0  0  0
 27 31  1  0  0  0  0
 28 29  1  0  0  0  0
 28 27  1  0  0  0  0
 29 30  1  0  0  0  0
 30 32  1  0  0  0  0
 31 26  1  0  0  0  0
 32 26  1  0  0  0  0
M  END
>  <MODEL>
9

>  <REMARK>
 VINA RESULT:      -4.3      1.996      2.912
  Name = 
  2 active torsions:
  status: ('A' for Active; 'I' for Inactive)
    1  A    between atoms: C_10  and  C_17
    2  A    between atoms: C_16  and  C_27
                            x       y       z     vdW  Elec       q    Type
                         _______ _______ _______ _____ _____    ______ ____

>  <TORSDO>
F 2

$$$$
