=
 OpenBabel11062408173D

 32 34  0  0  1  0  0  0  0  0999 V2000
  162.0090  207.3230  151.8850 C   0  0  1  0  0  3  0  0  0  0  0  0
  160.9410  208.5470  153.7060 O   0  0  0  0  0  0  0  0  0  0  0  0
  162.8320  207.4870  150.6040 C   0  0  0  0  0  2  0  0  0  0  0  0
  161.7350  208.6920  152.5440 C   0  0  2  0  0  3  0  0  0  0  0  0
  160.8970  209.7670  154.4270 C   0  0  1  0  0  0  0  0  0  0  0  0
  162.0760  210.8880  156.2380 C   0  0  2  0  0  3  0  0  0  0  0  0
  160.7700  210.3620  156.8080 C   0  0  2  0  0  3  0  0  0  0  0  0
  161.1130  209.6890  151.5540 C   0  0  1  0  0  3  0  0  0  0  0  0
  160.1090  209.5440  155.7120 C   0  0  0  0  0  2  0  0  0  0  0  0
  160.9600  211.0440  152.2330 C   0  0  0  0  0  2  0  0  0  0  0  0
  162.0000  209.8350  150.3230 C   0  0  0  0  0  2  0  0  0  0  0  0
  162.2830  210.1850  154.9150 C   0  0  0  0  0  2  0  0  0  0  0  0
  160.2490  210.8970  153.5810 C   0  0  1  0  0  3  0  0  0  0  0  0
  162.1820  208.4820  149.6420 C   0  0  0  0  0  2  0  0  0  0  0  0
  163.2220  210.5650  157.1740 C   0  0  0  0  0  1  0  0  0  0  0  0
  158.7640  210.7270  153.3840 C   0  0  0  0  0  3  0  0  0  0  0  0
  157.9680  211.5490  153.8140 O   0  0  0  0  0  0  0  0  0  0  0  0
  160.1890  206.0600  152.8710 O   0  0  0  0  0  1  0  0  0  0  0  0
  160.7730  206.4300  151.6560 C   0  0  2  0  0  3  0  0  0  0  0  0
  161.1030  205.1910  150.8160 C   0  0  2  0  0  3  0  0  0  0  0  0
  161.6570  204.8590  148.5190 O   0  0  0  0  0  0  0  0  0  0  0  0
  160.9360  205.4640  149.3540 C   0  0  0  0  0  0  0  0  0  0  0  0
  159.9910  206.3830  148.9120 O   0  0  0  0  0  1  0  0  0  0  0  0
  160.2310  204.0090  151.2190 C   0  0  0  0  0  2  0  0  0  0  0  0
  162.4330  203.1050  151.4930 O   0  0  0  0  0  1  0  0  0  0  0  0
  161.0800  202.7630  151.4100 C   0  0  2  0  0  3  0  0  0  0  0  0
  160.8610  201.8200  150.2760 C   0  0  0  0  0  0  0  0  0  0  0  0
  159.7950  202.0530  149.3620 N   0  0  0  0  0  1  0  0  0  0  0  0
  161.6320  200.8390  150.1000 O   0  0  0  0  0  0  0  0  0  0  0  0
  159.8580  211.5180  157.1970 C   0  0  0  0  0  2  0  0  0  0  0  0
  159.4840  213.7040  156.0530 C   0  0  0  0  0  1  0  0  0  0  0  0
  160.4760  212.8590  156.8290 C   0  0  0  0  0  2  0  0  0  0  0  0
  1 19  1  6  0  0  0
  1  4  1  0  0  0  0
  2  5  1  0  0  0  0
  3  1  1  0  0  0  0
  4  2  1  1  0  0  0
  5 12  1  1  0  0  0
  5  9  1  0  0  0  0
  6  7  1  0  0  0  0
  6 15  1  1  0  0  0
  7 30  1  6  0  0  0
  8 11  1  6  0  0  0
  8 10  1  0  0  0  0
  8  4  1  0  0  0  0
  9  7  1  0  0  0  0
 10 13  1  0  0  0  0
 12  6  1  0  0  0  0
 13 16  1  6  0  0  0
 13  5  1  0  0  0  0
 14 11  1  0  0  0  0
 14  3  1  0  0  0  0
 16 17  2  0  0  0  0
 19 18  1  1  0  0  0
 20 24  1  1  0  0  0
 20 19  1  0  0  0  0
 21 22  2  0  0  0  0
 22 20  1  0  0  0  0
 23 22  1  0  0  0  0
 24 26  1  0  0  0  0
 26 25  1  6  0  0  0
 27 26  1  0  0  0  0
 28 27  1  0  0  0  0
 29 27  2  0  0  0  0
 31 32  1  0  0  0  0
 32 30  1  0  0  0  0
M  END
>  <MODEL>
1

>  <REMARK>
 VINA RESULT:      -5.2      0.000      0.000
  Name = 
  9 active torsions:
  status: ('A' for Active; 'I' for Inactive)
    1  A    between atoms: C_1  and  C_27
    2  A    between atoms: C_7  and  C_15
    3  A    between atoms: C_11  and  C_12
    4  A    between atoms: C_11  and  C_31
    5  A    between atoms: C_13  and  C_29
    6  A    between atoms: C_15  and  C_20
    7  A    between atoms: C_16  and  C_20
    8  A    between atoms: C_16  and  C_22
    9  A    between atoms: C_16  and  C_27
                            x       y       z     vdW  Elec       q    Type
                         _______ _______ _______ _____ _____    ______ ____

>  <TORSDO>
F 9

$$$$
=
 OpenBabel11062408173D

 32 34  0  0  1  0  0  0  0  0999 V2000
  160.8280  208.0570  151.5570 C   0  0  1  0  0  3  0  0  0  0  0  0
  160.6660  209.9410  153.0980 O   0  0  0  0  0  0  0  0  0  0  0  0
  160.8240  206.5270  151.4720 C   0  0  0  0  0  2  0  0  0  0  0  0
  160.6220  208.5290  153.0110 C   0  0  2  0  0  3  0  0  0  0  0  0
  160.2420  210.3680  154.3820 C   0  0  1  0  0  0  0  0  0  0  0  0
  158.2080  211.0740  155.5180 C   0  0  2  0  0  3  0  0  0  0  0  0
  159.0230  212.3240  155.2360 C   0  0  2  0  0  3  0  0  0  0  0  0
  161.6240  207.8720  153.9740 C   0  0  1  0  0  3  0  0  0  0  0  0
  160.2180  211.8910  154.4050 C   0  0  0  0  0  2  0  0  0  0  0  0
  161.3060  208.3000  155.4010 C   0  0  0  0  0  2  0  0  0  0  0  0
  161.5390  206.3530  153.8690 C   0  0  0  0  0  2  0  0  0  0  0  0
  158.7910  209.9750  154.6580 C   0  0  0  0  0  2  0  0  0  0  0  0
  161.1790  209.8230  155.4940 C   0  0  1  0  0  3  0  0  0  0  0  0
  161.8320  205.9080  152.4400 C   0  0  0  0  0  2  0  0  0  0  0  0
  156.7570  211.3000  155.1440 C   0  0  0  0  0  1  0  0  0  0  0  0
  162.5410  210.4710  155.5070 C   0  0  0  0  0  3  0  0  0  0  0  0
  162.9750  211.0170  156.5100 O   0  0  0  0  0  0  0  0  0  0  0  0
  162.5590  209.7530  151.5230 O   0  0  0  0  0  1  0  0  0  0  0  0
  162.0390  208.6630  150.8200 C   0  0  2  0  0  3  0  0  0  0  0  0
  161.6980  209.0620  149.3800 C   0  0  2  0  0  3  0  0  0  0  0  0
  162.9740  207.5970  147.9950 O   0  0  0  0  0  0  0  0  0  0  0  0
  161.8390  207.9020  148.4450 C   0  0  0  0  0  0  0  0  0  0  0  0
  160.7250  207.1580  148.0710 O   0  0  0  0  0  1  0  0  0  0  0  0
  162.5810  210.2100  148.9070 C   0  0  0  0  0  2  0  0  0  0  0  0
  160.8370  211.1720  147.5760 O   0  0  0  0  0  1  0  0  0  0  0  0
  161.7380  211.4400  148.6100 C   0  0  2  0  0  3  0  0  0  0  0  0
  162.6210  212.5810  148.2330 C   0  0  0  0  0  0  0  0  0  0  0  0
  162.1330  213.9140  148.3410 N   0  0  0  0  0  1  0  0  0  0  0  0
  163.8050  212.3780  147.8550 O   0  0  0  0  0  0  0  0  0  0  0  0
  159.5100  212.9430  156.5390 C   0  0  0  0  0  2  0  0  0  0  0  0
  157.5560  214.4520  156.8990 C   0  0  0  0  0  1  0  0  0  0  0  0
  159.0540  214.3880  156.6710 C   0  0  0  0  0  2  0  0  0  0  0  0
  1 19  1  1  0  0  0
  1  4  1  0  0  0  0
  2  5  1  0  0  0  0
  3  1  1  0  0  0  0
  3 14  1  0  0  0  0
  4  2  1  6  0  0  0
  4  8  1  0  0  0  0
  5  9  1  1  0  0  0
  5 12  1  0  0  0  0
  5 13  1  0  0  0  0
  6 15  1  6  0  0  0
  7  6  1  0  0  0  0
  7 30  1  1  0  0  0
  8 11  1  1  0  0  0
  8 10  1  0  0  0  0
  9  7  1  0  0  0  0
 10 13  1  0  0  0  0
 12  6  1  0  0  0  0
 13 16  1  6  0  0  0
 14 11  1  0  0  0  0
 16 17  2  0  0  0  0
 19 18  1  1  0  0  0
 20 24  1  6  0  0  0
 20 19  1  0  0  0  0
 21 22  2  0  0  0  0
 22 20  1  0  0  0  0
 23 22  1  0  0  0  0
 26 25  1  6  0  0  0
 26 24  1  0  0  0  0
 27 28  1  0  0  0  0
 27 26  1  0  0  0  0
 29 27  2  0  0  0  0
 30 32  1  0  0  0  0
 32 31  1  0  0  0  0
M  END
>  <MODEL>
2

>  <REMARK>
 VINA RESULT:      -5.2      3.261      5.399
  Name = 
  9 active torsions:
  status: ('A' for Active; 'I' for Inactive)
    1  A    between atoms: C_1  and  C_27
    2  A    between atoms: C_7  and  C_15
    3  A    between atoms: C_11  and  C_12
    4  A    between atoms: C_11  and  C_31
    5  A    between atoms: C_13  and  C_29
    6  A    between atoms: C_15  and  C_20
    7  A    between atoms: C_16  and  C_20
    8  A    between atoms: C_16  and  C_22
    9  A    between atoms: C_16  and  C_27
                            x       y       z     vdW  Elec       q    Type
                         _______ _______ _______ _____ _____    ______ ____

>  <TORSDO>
F 9

$$$$
=
 OpenBabel11062408173D

 32 34  0  0  1  0  0  0  0  0999 V2000
  158.8950  212.4800  154.8840 C   0  0  1  0  0  3  0  0  0  0  0  0
  159.6870  210.3540  153.9870 O   0  0  0  0  0  0  0  0  0  0  0  0
  159.3240  213.7270  155.6640 C   0  0  0  0  0  2  0  0  0  0  0  0
  160.0890  211.5250  154.6720 C   0  0  2  0  0  3  0  0  0  0  0  0
  160.8230  209.6030  153.5910 C   0  0  1  0  0  0  0  0  0  0  0  0
  162.3010  209.3590  151.6720 C   0  0  2  0  0  3  0  0  0  0  0  0
  161.3590  208.1680  151.6680 C   0  0  2  0  0  3  0  0  0  0  0  0
  160.7980  211.1920  155.9940 C   0  0  1  0  0  3  0  0  0  0  0  0
  160.3510  208.4010  152.7810 C   0  0  0  0  0  2  0  0  0  0  0  0
  162.0210  210.3310  155.7070 C   0  0  0  0  0  2  0  0  0  0  0  0
  161.2320  212.4730  156.6980 C   0  0  0  0  0  2  0  0  0  0  0  0
  161.7020  210.3810  152.6130 C   0  0  0  0  0  2  0  0  0  0  0  0
  161.6480  209.1390  154.8220 C   0  0  1  0  0  3  0  0  0  0  0  0
  160.0220  213.3590  156.9740 C   0  0  0  0  0  2  0  0  0  0  0  0
  162.4070  209.9460  150.2800 C   0  0  0  0  0  1  0  0  0  0  0  0
  160.9700  208.0640  155.6330 C   0  0  0  0  0  3  0  0  0  0  0  0
  161.3810  207.7490  156.7400 O   0  0  0  0  0  0  0  0  0  0  0  0
  157.2620  210.6920  154.7800 O   0  0  0  0  0  1  0  0  0  0  0  0
  157.6260  211.8430  155.4840 C   0  0  2  0  0  3  0  0  0  0  0  0
  156.4560  212.8330  155.5430 C   0  0  2  0  0  3  0  0  0  0  0  0
  155.5780  211.4300  157.2610 O   0  0  0  0  0  1  0  0  0  0  0  0
  155.5780  212.5690  156.7260 C   0  0  0  0  0  0  0  0  0  0  0  0
  154.7630  213.5730  157.2360 O   0  0  0  0  0  0  0  0  0  0  0  0
  155.6270  212.7740  154.2670 C   0  0  0  0  0  2  0  0  0  0  0  0
  154.0770  214.4530  153.5460 O   0  0  0  0  0  1  0  0  0  0  0  0
  155.4370  214.1690  153.6910 C   0  0  2  0  0  3  0  0  0  0  0  0
  156.1230  214.2710  152.3710 C   0  0  0  0  0  0  0  0  0  0  0  0
  157.5410  214.3930  152.3220 N   0  0  0  0  0  1  0  0  0  0  0  0
  155.4630  214.2160  151.3000 O   0  0  0  0  0  0  0  0  0  0  0  0
  162.1280  206.8830  151.9420 C   0  0  0  0  0  2  0  0  0  0  0  0
  161.4250  204.5320  151.4910 C   0  0  0  0  0  1  0  0  0  0  0  0
  161.1950  205.7560  152.3570 C   0  0  0  0  0  2  0  0  0  0  0  0
  1 19  1  1  0  0  0
  1  3  1  0  0  0  0
  3 14  1  0  0  0  0
  4  2  1  1  0  0  0
  4  1  1  0  0  0  0
  4  8  1  0  0  0  0
  5 12  1  6  0  0  0
  5  2  1  0  0  0  0
  5 13  1  0  0  0  0
  6 15  1  6  0  0  0
  6 12  1  0  0  0  0
  7  6  1  0  0  0  0
  7 30  1  1  0  0  0
  7  9  1  0  0  0  0
  8 10  1  6  0  0  0
  8 11  1  0  0  0  0
  9  5  1  0  0  0  0
 11 14  1  0  0  0  0
 13 16  1  1  0  0  0
 13 10  1  0  0  0  0
 16 17  2  0  0  0  0
 19 18  1  6  0  0  0
 19 20  1  0  0  0  0
 20 24  1  6  0  0  0
 20 22  1  0  0  0  0
 22 23  2  0  0  0  0
 22 21  1  0  0  0  0
 26 25  1  6  0  0  0
 26 24  1  0  0  0  0
 27 26  1  0  0  0  0
 28 27  1  0  0  0  0
 29 27  2  0  0  0  0
 30 32  1  0  0  0  0
 31 32  1  0  0  0  0
M  END
>  <MODEL>
3

>  <REMARK>
 VINA RESULT:      -5.0      3.915      8.646
  Name = 
  9 active torsions:
  status: ('A' for Active; 'I' for Inactive)
    1  A    between atoms: C_1  and  C_27
    2  A    between atoms: C_7  and  C_15
    3  A    between atoms: C_11  and  C_12
    4  A    between atoms: C_11  and  C_31
    5  A    between atoms: C_13  and  C_29
    6  A    between atoms: C_15  and  C_20
    7  A    between atoms: C_16  and  C_20
    8  A    between atoms: C_16  and  C_22
    9  A    between atoms: C_16  and  C_27
                            x       y       z     vdW  Elec       q    Type
                         _______ _______ _______ _____ _____    ______ ____

>  <TORSDO>
F 9

$$$$
=
 OpenBabel11062408173D

 32 34  0  0  1  0  0  0  0  0999 V2000
  160.9240  207.9810  151.8100 C   0  0  1  0  0  3  0  0  0  0  0  0
  160.7110  210.0970  153.0070 O   0  0  0  0  0  0  0  0  0  0  0  0
  160.7780  206.4630  151.9520 C   0  0  0  0  0  2  0  0  0  0  0  0
  160.5390  208.6970  153.1220 C   0  0  2  0  0  3  0  0  0  0  0  0
  160.1340  210.7570  154.1210 C   0  0  1  0  0  0  0  0  0  0  0  0
  158.0270  211.7880  154.7710 C   0  0  2  0  0  3  0  0  0  0  0  0
  158.9990  212.9110  154.4550 C   0  0  2  0  0  3  0  0  0  0  0  0
  161.3020  208.1310  154.3290 C   0  0  1  0  0  3  0  0  0  0  0  0
  160.2610  212.2610  153.9150 C   0  0  0  0  0  2  0  0  0  0  0  0
  160.8060  208.8060  155.6010 C   0  0  0  0  0  2  0  0  0  0  0  0
  161.0820  206.6260  154.4350 C   0  0  0  0  0  2  0  0  0  0  0  0
  158.6250  210.5240  154.1970 C   0  0  0  0  0  2  0  0  0  0  0  0
  160.8220  210.3300  155.4460 C   0  0  1  0  0  3  0  0  0  0  0  0
  161.5520  205.9340  153.1590 C   0  0  0  0  0  2  0  0  0  0  0  0
  156.6850  212.0600  154.1230 C   0  0  0  0  0  1  0  0  0  0  0  0
  162.2230  210.8660  155.5990 C   0  0  0  0  0  3  0  0  0  0  0  0
  162.8520  210.7130  156.6350 O   0  0  0  0  0  0  0  0  0  0  0  0
  162.7100  209.6160  151.6830 O   0  0  0  0  0  1  0  0  0  0  0  0
  162.2920  208.3670  151.2130 C   0  0  2  0  0  3  0  0  0  0  0  0
  162.2810  208.3430  149.6800 C   0  0  2  0  0  3  0  0  0  0  0  0
  161.3300  209.7790  148.0290 O   0  0  0  0  0  0  0  0  0  0  0  0
  161.9560  209.6910  149.1170 C   0  0  0  0  0  0  0  0  0  0  0  0
  162.3430  210.8470  149.7870 O   0  0  0  0  0  1  0  0  0  0  0  0
  161.2840  207.3170  149.1570 C   0  0  0  0  0  2  0  0  0  0  0  0
  161.8450  206.8170  146.8820 O   0  0  0  0  0  1  0  0  0  0  0  0
  161.9660  206.3560  148.1960 C   0  0  2  0  0  3  0  0  0  0  0  0
  161.3590  204.9990  148.3190 C   0  0  0  0  0  0  0  0  0  0  0  0
  161.5020  204.0660  147.2540 N   0  0  0  0  0  1  0  0  0  0  0  0
  160.7530  204.6610  149.3700 O   0  0  0  0  0  0  0  0  0  0  0  0
  159.3330  213.6940  155.7180 C   0  0  0  0  0  2  0  0  0  0  0  0
  157.4250  214.1500  157.2590 C   0  0  0  0  0  1  0  0  0  0  0  0
  158.5420  213.1840  156.9120 C   0  0  0  0  0  2  0  0  0  0  0  0
  1 19  1  1  0  0  0
  1  3  1  0  0  0  0
  1  4  1  0  0  0  0
  2  5  1  0  0  0  0
  3 14  1  0  0  0  0
  4  2  1  6  0  0  0
  4  8  1  0  0  0  0
  5  9  1  6  0  0  0
  5 12  1  0  0  0  0
  5 13  1  0  0  0  0
  6 15  1  6  0  0  0
  7  6  1  0  0  0  0
  7 30  1  1  0  0  0
  8 11  1  1  0  0  0
  8 10  1  0  0  0  0
  9  7  1  0  0  0  0
 12  6  1  0  0  0  0
 13 16  1  6  0  0  0
 13 10  1  0  0  0  0
 14 11  1  0  0  0  0
 16 17  2  0  0  0  0
 19 18  1  6  0  0  0
 20 24  1  1  0  0  0
 20 19  1  0  0  0  0
 21 22  2  0  0  0  0
 22 20  1  0  0  0  0
 22 23  1  0  0  0  0
 26 25  1  6  0  0  0
 26 27  1  0  0  0  0
 26 24  1  0  0  0  0
 27 29  2  0  0  0  0
 28 27  1  0  0  0  0
 30 32  1  0  0  0  0
 32 31  1  0  0  0  0
M  END
>  <MODEL>
4

>  <REMARK>
 VINA RESULT:      -4.8      2.099      3.949
  Name = 
  9 active torsions:
  status: ('A' for Active; 'I' for Inactive)
    1  A    between atoms: C_1  and  C_27
    2  A    between atoms: C_7  and  C_15
    3  A    between atoms: C_11  and  C_12
    4  A    between atoms: C_11  and  C_31
    5  A    between atoms: C_13  and  C_29
    6  A    between atoms: C_15  and  C_20
    7  A    between atoms: C_16  and  C_20
    8  A    between atoms: C_16  and  C_22
    9  A    between atoms: C_16  and  C_27
                            x       y       z     vdW  Elec       q    Type
                         _______ _______ _______ _____ _____    ______ ____

>  <TORSDO>
F 9

$$$$
=
 OpenBabel11062408173D

 32 34  0  0  1  0  0  0  0  0999 V2000
  161.9200  207.2690  151.8070 C   0  0  1  0  0  3  0  0  0  0  0  0
  160.9300  208.4750  153.6820 O   0  0  0  0  0  0  0  0  0  0  0  0
  162.7060  207.4430  150.5050 C   0  0  0  0  0  2  0  0  0  0  0  0
  161.6900  208.6290  152.5000 C   0  0  2  0  0  3  0  0  0  0  0  0
  160.9300  209.6820  154.4280 C   0  0  1  0  0  0  0  0  0  0  0  0
  162.1830  210.7470  156.2220 C   0  0  2  0  0  3  0  0  0  0  0  0
  160.8860  210.2330  156.8220 C   0  0  2  0  0  3  0  0  0  0  0  0
  161.0560  209.6560  151.5490 C   0  0  1  0  0  3  0  0  0  0  0  0
  160.1780  209.4480  155.7320 C   0  0  0  0  0  2  0  0  0  0  0  0
  160.9490  210.9990  152.2570 C   0  0  0  0  0  2  0  0  0  0  0  0
  161.9080  209.8100  150.2940 C   0  0  0  0  0  2  0  0  0  0  0  0
  162.3380  210.0670  154.8800 C   0  0  0  0  0  2  0  0  0  0  0  0
  160.2760  210.8390  153.6240 C   0  0  1  0  0  3  0  0  0  0  0  0
  162.0460  208.4680  149.5830 C   0  0  0  0  0  2  0  0  0  0  0  0
  163.3520  210.3860  157.1160 C   0  0  0  0  0  1  0  0  0  0  0  0
  158.7830  210.6980  153.4690 C   0  0  0  0  0  3  0  0  0  0  0  0
  158.0870  211.6470  153.1380 O   0  0  0  0  0  0  0  0  0  0  0  0
  160.0810  206.0590  152.8240 O   0  0  0  0  0  1  0  0  0  0  0  0
  160.6620  206.4020  151.6000 C   0  0  2  0  0  3  0  0  0  0  0  0
  160.9570  205.1460  150.7720 C   0  0  2  0  0  3  0  0  0  0  0  0
  162.8410  204.3630  152.0080 O   0  0  0  0  0  1  0  0  0  0  0  0
  161.6830  204.1180  151.5810 C   0  0  0  0  0  0  0  0  0  0  0  0
  161.0880  202.8930  151.8640 O   0  0  0  0  0  0  0  0  0  0  0  0
  161.7700  205.4880  149.5300 C   0  0  0  0  0  2  0  0  0  0  0  0
  161.5430  203.5070  148.2010 O   0  0  0  0  0  1  0  0  0  0  0  0
  161.1540  204.8460  148.2970 C   0  0  2  0  0  3  0  0  0  0  0  0
  161.5750  205.5890  147.0740 C   0  0  0  0  0  0  0  0  0  0  0  0
  160.7050  206.5610  146.5070 N   0  0  0  0  0  1  0  0  0  0  0  0
  162.7070  205.3860  146.5600 O   0  0  0  0  0  0  0  0  0  0  0  0
  160.0070  211.3960  157.2610 C   0  0  0  0  0  2  0  0  0  0  0  0
  159.4750  213.5120  156.0500 C   0  0  0  0  0  1  0  0  0  0  0  0
  160.5570  212.7240  156.7630 C   0  0  0  0  0  2  0  0  0  0  0  0
  1 19  1  6  0  0  0
  1  4  1  0  0  0  0
  2  5  1  0  0  0  0
  3  1  1  0  0  0  0
  4  2  1  1  0  0  0
  5 12  1  1  0  0  0
  5  9  1  0  0  0  0
  6  7  1  0  0  0  0
  6 15  1  1  0  0  0
  7 30  1  6  0  0  0
  8 11  1  6  0  0  0
  8 10  1  0  0  0  0
  8  4  1  0  0  0  0
  9  7  1  0  0  0  0
 10 13  1  0  0  0  0
 12  6  1  0  0  0  0
 13 16  1  6  0  0  0
 13  5  1  0  0  0  0
 14 11  1  0  0  0  0
 14  3  1  0  0  0  0
 17 16  2  0  0  0  0
 19 18  1  1  0  0  0
 20 24  1  6  0  0  0
 20 22  1  0  0  0  0
 20 19  1  0  0  0  0
 22 23  2  0  0  0  0
 22 21  1  0  0  0  0
 26 25  1  6  0  0  0
 26 24  1  0  0  0  0
 27 26  1  0  0  0  0
 28 27  1  0  0  0  0
 29 27  2  0  0  0  0
 31 32  1  0  0  0  0
 32 30  1  0  0  0  0
M  END
>  <MODEL>
5

>  <REMARK>
 VINA RESULT:      -3.9      1.432      2.278
  Name = 
  9 active torsions:
  status: ('A' for Active; 'I' for Inactive)
    1  A    between atoms: C_1  and  C_27
    2  A    between atoms: C_7  and  C_15
    3  A    between atoms: C_11  and  C_12
    4  A    between atoms: C_11  and  C_31
    5  A    between atoms: C_13  and  C_29
    6  A    between atoms: C_15  and  C_20
    7  A    between atoms: C_16  and  C_20
    8  A    between atoms: C_16  and  C_22
    9  A    between atoms: C_16  and  C_27
                            x       y       z     vdW  Elec       q    Type
                         _______ _______ _______ _____ _____    ______ ____

>  <TORSDO>
F 9

$$$$
=
 OpenBabel11062408173D

 32 34  0  0  1  0  0  0  0  0999 V2000
  159.4200  212.1260  154.9430 C   0  0  1  0  0  3  0  0  0  0  0  0
  159.8340  210.1040  153.6430 O   0  0  0  0  0  0  0  0  0  0  0  0
  160.0250  213.0660  155.9900 C   0  0  0  0  0  2  0  0  0  0  0  0
  160.4060  210.9960  154.5800 C   0  0  2  0  0  3  0  0  0  0  0  0
  160.8220  209.2180  153.1410 C   0  0  1  0  0  0  0  0  0  0  0  0
  162.3790  209.0490  151.2780 C   0  0  2  0  0  3  0  0  0  0  0  0
  161.2170  208.1180  150.9790 C   0  0  2  0  0  3  0  0  0  0  0  0
  160.9150  210.2570  155.8280 C   0  0  1  0  0  3  0  0  0  0  0  0
  160.1870  208.3360  152.0740 C   0  0  0  0  0  2  0  0  0  0  0  0
  161.9560  209.2260  155.4130 C   0  0  0  0  0  2  0  0  0  0  0  0
  161.5400  211.2440  156.8080 C   0  0  0  0  0  2  0  0  0  0  0  0
  161.9230  209.9660  152.3910 C   0  0  0  0  0  2  0  0  0  0  0  0
  161.4250  208.3470  154.2770 C   0  0  1  0  0  3  0  0  0  0  0  0
  160.5170  212.2980  157.2170 C   0  0  0  0  0  2  0  0  0  0  0  0
  162.7230  209.8670  150.0500 C   0  0  0  0  0  1  0  0  0  0  0  0
  160.4740  207.3060  154.8100 C   0  0  0  0  0  3  0  0  0  0  0  0
  160.5830  206.8670  155.9450 O   0  0  0  0  0  0  0  0  0  0  0  0
  158.0190  210.3950  155.9020 O   0  0  0  0  0  1  0  0  0  0  0  0
  158.0000  211.6740  155.3390 C   0  0  2  0  0  3  0  0  0  0  0  0
  157.0260  211.7290  154.1560 C   0  0  2  0  0  3  0  0  0  0  0  0
  157.9540  212.4610  152.0830 O   0  0  0  0  0  0  0  0  0  0  0  0
  157.4200  212.7880  153.1750 C   0  0  0  0  0  0  0  0  0  0  0  0
  157.2020  214.1310  153.4620 O   0  0  0  0  0  1  0  0  0  0  0  0
  155.6010  211.9780  154.6320 C   0  0  0  0  0  2  0  0  0  0  0  0
  154.8770  211.5900  156.8830 O   0  0  0  0  0  1  0  0  0  0  0  0
  155.6000  212.4680  156.0710 C   0  0  2  0  0  3  0  0  0  0  0  0
  155.0060  213.8340  156.1420 C   0  0  0  0  0  0  0  0  0  0  0  0
  154.5160  214.4510  154.9570 N   0  0  0  0  0  1  0  0  0  0  0  0
  154.9020  214.4310  157.2460 O   0  0  0  0  0  0  0  0  0  0  0  0
  161.6810  206.6680  151.0020 C   0  0  0  0  0  2  0  0  0  0  0  0
  160.6210  204.4220  150.7560 C   0  0  0  0  0  1  0  0  0  0  0  0
  160.8000  205.7910  150.1260 C   0  0  0  0  0  2  0  0  0  0  0  0
  1 19  1  1  0  0  0
  1  3  1  0  0  0  0
  3 14  1  0  0  0  0
  4  2  1  6  0  0  0
  4  1  1  0  0  0  0
  4  8  1  0  0  0  0
  5  9  1  6  0  0  0
  5  2  1  0  0  0  0
  5 13  1  0  0  0  0
  6 15  1  6  0  0  0
  6 12  1  0  0  0  0
  7 30  1  1  0  0  0
  7  6  1  0  0  0  0
  7  9  1  0  0  0  0
  8 10  1  6  0  0  0
  8 11  1  0  0  0  0
 11 14  1  0  0  0  0
 12  5  1  0  0  0  0
 13 16  1  1  0  0  0
 13 10  1  0  0  0  0
 16 17  2  0  0  0  0
 19 18  1  6  0  0  0
 20 24  1  1  0  0  0
 20 19  1  0  0  0  0
 21 22  2  0  0  0  0
 22 23  1  0  0  0  0
 22 20  1  0  0  0  0
 24 26  1  0  0  0  0
 26 27  1  0  0  0  0
 26 25  1  1  0  0  0
 27 29  2  0  0  0  0
 28 27  1  0  0  0  0
 32 31  1  0  0  0  0
 32 30  1  0  0  0  0
M  END
>  <MODEL>
6

>  <REMARK>
 VINA RESULT:      -3.8      3.853      8.409
  Name = 
  9 active torsions:
  status: ('A' for Active; 'I' for Inactive)
    1  A    between atoms: C_1  and  C_27
    2  A    between atoms: C_7  and  C_15
    3  A    between atoms: C_11  and  C_12
    4  A    between atoms: C_11  and  C_31
    5  A    between atoms: C_13  and  C_29
    6  A    between atoms: C_15  and  C_20
    7  A    between atoms: C_16  and  C_20
    8  A    between atoms: C_16  and  C_22
    9  A    between atoms: C_16  and  C_27
                            x       y       z     vdW  Elec       q    Type
                         _______ _______ _______ _____ _____    ______ ____

>  <TORSDO>
F 9

$$$$
=
 OpenBabel11062408173D

 32 34  0  0  1  0  0  0  0  0999 V2000
  159.7920  211.5440  154.1280 C   0  0  1  0  0  3  0  0  0  0  0  0
  159.9400  209.2080  153.4400 O   0  0  0  0  0  0  0  0  0  0  0  0
  160.4850  212.6350  154.9490 C   0  0  0  0  0  2  0  0  0  0  0  0
  160.5990  210.2290  154.1650 C   0  0  2  0  0  3  0  0  0  0  0  0
  160.7960  208.0880  153.2800 C   0  0  1  0  0  0  0  0  0  0  0  0
  162.4020  207.2020  151.6800 C   0  0  2  0  0  3  0  0  0  0  0  0
  161.1220  206.4010  151.5230 C   0  0  2  0  0  3  0  0  0  0  0  0
  160.9130  209.7900  155.6030 C   0  0  1  0  0  3  0  0  0  0  0  0
  160.0840  207.0510  152.4220 C   0  0  0  0  0  2  0  0  0  0  0  0
  161.7930  208.5470  155.5700 C   0  0  0  0  0  2  0  0  0  0  0  0
  161.6370  210.9050  156.3500 C   0  0  0  0  0  2  0  0  0  0  0  0
  162.0430  208.4410  152.4710 C   0  0  0  0  0  2  0  0  0  0  0  0
  161.1880  207.4800  154.6540 C   0  0  1  0  0  3  0  0  0  0  0  0
  160.7790  212.1650  156.3740 C   0  0  0  0  0  2  0  0  0  0  0  0
  162.9400  207.6010  150.3210 C   0  0  0  0  0  1  0  0  0  0  0  0
  160.0520  206.7670  155.3450 C   0  0  0  0  0  3  0  0  0  0  0  0
  159.9450  206.7750  156.5620 O   0  0  0  0  0  0  0  0  0  0  0  0
  157.6080  210.6750  153.5320 O   0  0  0  0  0  1  0  0  0  0  0  0
  158.2980  211.4230  154.4910 C   0  0  2  0  0  3  0  0  0  0  0  0
  157.6380  212.7940  154.6830 C   0  0  2  0  0  3  0  0  0  0  0  0
  155.6810  213.4390  155.8850 O   0  0  0  0  0  0  0  0  0  0  0  0
  156.7740  212.8150  155.9050 C   0  0  0  0  0  0  0  0  0  0  0  0
  157.1690  212.1500  157.0600 O   0  0  0  0  0  1  0  0  0  0  0  0
  156.8110  213.1780  153.4640 C   0  0  0  0  0  2  0  0  0  0  0  0
  158.6060  214.4530  152.5190 O   0  0  0  0  0  1  0  0  0  0  0  0
  157.7120  213.4100  152.2620 C   0  0  2  0  0  3  0  0  0  0  0  0
  156.8870  213.7290  151.0610 C   0  0  0  0  0  0  0  0  0  0  0  0
  157.4080  213.4770  149.7610 N   0  0  0  0  0  1  0  0  0  0  0  0
  155.7200  214.1860  151.1900 O   0  0  0  0  0  0  0  0  0  0  0  0
  161.3420  204.9600  151.9640 C   0  0  0  0  0  2  0  0  0  0  0  0
  161.2060  202.5710  151.2560 C   0  0  0  0  0  1  0  0  0  0  0  0
  160.7130  203.9800  150.9850 C   0  0  0  0  0  2  0  0  0  0  0  0
  1  4  1  0  0  0  0
  1 19  1  1  0  0  0
  1  3  1  0  0  0  0
  3 14  1  0  0  0  0
  4  2  1  1  0  0  0
  4  8  1  0  0  0  0
  5  9  1  6  0  0  0
  5  2  1  0  0  0  0
  5 13  1  0  0  0  0
  6 15  1  6  0  0  0
  6 12  1  0  0  0  0
  7  6  1  0  0  0  0
  7 30  1  1  0  0  0
  7  9  1  0  0  0  0
  8 10  1  6  0  0  0
  8 11  1  0  0  0  0
 11 14  1  0  0  0  0
 12  5  1  0  0  0  0
 13 16  1  1  0  0  0
 13 10  1  0  0  0  0
 16 17  2  0  0  0  0
 19 18  1  6  0  0  0
 19 20  1  0  0  0  0
 20 24  1  6  0  0  0
 20 22  1  0  0  0  0
 21 22  2  0  0  0  0
 22 23  1  0  0  0  0
 26 25  1  1  0  0  0
 26 24  1  0  0  0  0
 27 29  2  0  0  0  0
 27 26  1  0  0  0  0
 28 27  1  0  0  0  0
 32 31  1  0  0  0  0
 32 30  1  0  0  0  0
M  END
>  <MODEL>
7

>  <REMARK>
 VINA RESULT:      -2.9      3.494      8.302
  Name = 
  9 active torsions:
  status: ('A' for Active; 'I' for Inactive)
    1  A    between atoms: C_1  and  C_27
    2  A    between atoms: C_7  and  C_15
    3  A    between atoms: C_11  and  C_12
    4  A    between atoms: C_11  and  C_31
    5  A    between atoms: C_13  and  C_29
    6  A    between atoms: C_15  and  C_20
    7  A    between atoms: C_16  and  C_20
    8  A    between atoms: C_16  and  C_22
    9  A    between atoms: C_16  and  C_27
                            x       y       z     vdW  Elec       q    Type
                         _______ _______ _______ _____ _____    ______ ____

>  <TORSDO>
F 9

$$$$
=
 OpenBabel11062408173D

 32 34  0  0  1  0  0  0  0  0999 V2000
  160.0710  211.0680  153.3720 C   0  0  1  0  0  3  0  0  0  0  0  0
  160.1570  208.9840  152.1070 O   0  0  0  0  0  0  0  0  0  0  0  0
  160.8590  211.9610  154.3350 C   0  0  0  0  0  2  0  0  0  0  0  0
  160.8980  209.8310  152.9640 C   0  0  2  0  0  3  0  0  0  0  0  0
  161.0000  207.9870  151.5530 C   0  0  1  0  0  0  0  0  0  0  0  0
  162.3640  207.6100  149.5730 C   0  0  2  0  0  3  0  0  0  0  0  0
  161.0900  206.8030  149.4010 C   0  0  2  0  0  3  0  0  0  0  0  0
  161.4320  209.0710  154.1880 C   0  0  1  0  0  3  0  0  0  0  0  0
  160.1860  207.1540  150.5700 C   0  0  0  0  0  2  0  0  0  0  0  0
  162.3200  207.9250  153.7210 C   0  0  0  0  0  2  0  0  0  0  0  0
  162.2400  210.0060  155.0810 C   0  0  0  0  0  2  0  0  0  0  0  0
  162.1050  208.5950  150.6900 C   0  0  0  0  0  2  0  0  0  0  0  0
  161.6040  207.0820  152.6610 C   0  0  1  0  0  3  0  0  0  0  0  0
  161.3720  211.1730  155.5400 C   0  0  0  0  0  2  0  0  0  0  0  0
  162.6850  208.3580  148.2950 C   0  0  0  0  0  1  0  0  0  0  0  0
  160.5980  206.1610  153.3040 C   0  0  0  0  0  3  0  0  0  0  0  0
  160.9470  205.1340  153.8670 O   0  0  0  0  0  0  0  0  0  0  0  0
  157.8510  210.2160  152.9010 O   0  0  0  0  0  1  0  0  0  0  0  0
  158.6510  210.7800  153.8990 C   0  0  2  0  0  3  0  0  0  0  0  0
  157.9860  212.0340  154.4800 C   0  0  2  0  0  3  0  0  0  0  0  0
  158.1450  212.2670  156.8490 O   0  0  0  0  0  1  0  0  0  0  0  0
  157.5010  211.7950  155.8760 C   0  0  0  0  0  0  0  0  0  0  0  0
  156.3460  211.0550  156.1050 O   0  0  0  0  0  0  0  0  0  0  0  0
  156.8240  212.4910  153.6070 C   0  0  0  0  0  2  0  0  0  0  0  0
  155.9330  214.4270  152.5140 O   0  0  0  0  0  1  0  0  0  0  0  0
  157.1060  213.8670  153.0260 C   0  0  2  0  0  3  0  0  0  0  0  0
  158.1340  213.7650  151.9510 C   0  0  0  0  0  0  0  0  0  0  0  0
  157.7780  213.2220  150.6850 N   0  0  0  0  0  1  0  0  0  0  0  0
  159.3060  214.1870  152.1440 O   0  0  0  0  0  0  0  0  0  0  0  0
  161.3990  205.3120  149.4310 C   0  0  0  0  0  2  0  0  0  0  0  0
  161.2660  203.3340  150.9460 C   0  0  0  0  0  1  0  0  0  0  0  0
  160.5620  204.5930  150.4780 C   0  0  0  0  0  2  0  0  0  0  0  0
  1 19  1  1  0  0  0
  1  3  1  0  0  0  0
  3 14  1  0  0  0  0
  4  2  1  1  0  0  0
  4  1  1  0  0  0  0
  4  8  1  0  0  0  0
  5  9  1  6  0  0  0
  5  2  1  0  0  0  0
  5 13  1  0  0  0  0
  6 15  1  6  0  0  0
  6 12  1  0  0  0  0
  7 30  1  1  0  0  0
  7  6  1  0  0  0  0
  7  9  1  0  0  0  0
  8 10  1  6  0  0  0
  8 11  1  0  0  0  0
 11 14  1  0  0  0  0
 12  5  1  0  0  0  0
 13 16  1  1  0  0  0
 13 10  1  0  0  0  0
 16 17  2  0  0  0  0
 19 18  1  6  0  0  0
 19 20  1  0  0  0  0
 20 24  1  6  0  0  0
 20 22  1  0  0  0  0
 22 23  2  0  0  0  0
 22 21  1  0  0  0  0
 26 25  1  6  0  0  0
 26 24  1  0  0  0  0
 27 29  2  0  0  0  0
 27 26  1  0  0  0  0
 28 27  1  0  0  0  0
 30 32  1  0  0  0  0
 32 31  1  0  0  0  0
M  END
>  <MODEL>
8

>  <REMARK>
 VINA RESULT:      -2.2      2.965      8.238
  Name = 
  9 active torsions:
  status: ('A' for Active; 'I' for Inactive)
    1  A    between atoms: C_1  and  C_27
    2  A    between atoms: C_7  and  C_15
    3  A    between atoms: C_11  and  C_12
    4  A    between atoms: C_11  and  C_31
    5  A    between atoms: C_13  and  C_29
    6  A    between atoms: C_15  and  C_20
    7  A    between atoms: C_16  and  C_20
    8  A    between atoms: C_16  and  C_22
    9  A    between atoms: C_16  and  C_27
                            x       y       z     vdW  Elec       q    Type
                         _______ _______ _______ _____ _____    ______ ____

>  <TORSDO>
F 9

$$$$
=
 OpenBabel11062408173D

 32 34  0  0  1  0  0  0  0  0999 V2000
  160.0390  210.7510  153.0140 C   0  0  1  0  0  3  0  0  0  0  0  0
  160.1160  208.5580  151.9470 O   0  0  0  0  0  0  0  0  0  0  0  0
  160.8750  211.7810  153.7800 C   0  0  0  0  0  2  0  0  0  0  0  0
  160.8950  209.5290  152.6190 C   0  0  2  0  0  3  0  0  0  0  0  0
  160.9520  207.5610  151.3830 C   0  0  1  0  0  0  0  0  0  0  0  0
  162.0860  207.0660  149.2870 C   0  0  2  0  0  3  0  0  0  0  0  0
  160.8600  206.1730  149.3570 C   0  0  2  0  0  3  0  0  0  0  0  0
  161.6280  208.9280  153.8280 C   0  0  1  0  0  3  0  0  0  0  0  0
  160.0840  206.5870  150.5950 C   0  0  0  0  0  2  0  0  0  0  0  0
  162.5300  207.7940  153.3590 C   0  0  0  0  0  2  0  0  0  0  0  0
  162.4710  209.9940  154.5190 C   0  0  0  0  0  2  0  0  0  0  0  0
  161.8970  208.1420  150.3330 C   0  0  0  0  0  2  0  0  0  0  0  0
  161.7500  206.8090  152.4830 C   0  0  1  0  0  3  0  0  0  0  0  0
  161.5860  211.1490  154.9770 C   0  0  0  0  0  2  0  0  0  0  0  0
  162.1940  207.6990  147.9150 C   0  0  0  0  0  1  0  0  0  0  0  0
  160.8980  205.9000  153.3330 C   0  0  0  0  0  3  0  0  0  0  0  0
  160.9220  204.6880  153.1870 O   0  0  0  0  0  0  0  0  0  0  0  0
  157.6320  211.0260  153.0930 O   0  0  0  0  0  1  0  0  0  0  0  0
  158.7180  210.4350  153.7440 C   0  0  2  0  0  3  0  0  0  0  0  0
  158.7590  210.8560  155.2180 C   0  0  2  0  0  3  0  0  0  0  0  0
  159.6020  209.9230  157.2450 O   0  0  0  0  0  1  0  0  0  0  0  0
  159.1210  209.7050  156.1030 C   0  0  0  0  0  0  0  0  0  0  0  0
  158.9300  208.3970  155.6720 O   0  0  0  0  0  0  0  0  0  0  0  0
  157.4210  211.4380  155.6560 C   0  0  0  0  0  2  0  0  0  0  0  0
  156.4090  213.1860  156.9450 O   0  0  0  0  0  1  0  0  0  0  0  0
  157.6350  212.6840  156.5020 C   0  0  2  0  0  3  0  0  0  0  0  0
  158.3540  213.7200  155.7060 C   0  0  0  0  0  0  0  0  0  0  0  0
  159.5980  214.2290  156.1740 N   0  0  0  0  0  1  0  0  0  0  0  0
  157.8860  214.1230  154.6080 O   0  0  0  0  0  0  0  0  0  0  0  0
  161.2750  204.7130  149.4850 C   0  0  0  0  0  2  0  0  0  0  0  0
  160.9790  202.5460  148.2830 C   0  0  0  0  0  1  0  0  0  0  0  0
  161.2940  204.0220  148.1300 C   0  0  0  0  0  2  0  0  0  0  0  0
  1 19  1  1  0  0  0
  1  3  1  0  0  0  0
  3 14  1  0  0  0  0
  4  2  1  1  0  0  0
  4  1  1  0  0  0  0
  4  8  1  0  0  0  0
  5 12  1  6  0  0  0
  5  2  1  0  0  0  0
  5 13  1  0  0  0  0
  6 15  1  6  0  0  0
  6  7  1  0  0  0  0
  6 12  1  0  0  0  0
  7 30  1  1  0  0  0
  7  9  1  0  0  0  0
  8 10  1  6  0  0  0
  8 11  1  0  0  0  0
  9  5  1  0  0  0  0
 11 14  1  0  0  0  0
 13 16  1  1  0  0  0
 13 10  1  0  0  0  0
 17 16  2  0  0  0  0
 19 18  1  6  0  0  0
 19 20  1  0  0  0  0
 20 24  1  1  0  0  0
 20 22  1  0  0  0  0
 22 21  1  0  0  0  0
 23 22  2  0  0  0  0
 24 26  1  0  0  0  0
 26 25  1  6  0  0  0
 27 28  1  0  0  0  0
 27 26  1  0  0  0  0
 29 27  2  0  0  0  0
 32 31  1  0  0  0  0
 32 30  1  0  0  0  0
M  END
>  <MODEL>
9

>  <REMARK>
 VINA RESULT:      -2.2      3.216      8.466
  Name = 
  9 active torsions:
  status: ('A' for Active; 'I' for Inactive)
    1  A    between atoms: C_1  and  C_27
    2  A    between atoms: C_7  and  C_15
    3  A    between atoms: C_11  and  C_12
    4  A    between atoms: C_11  and  C_31
    5  A    between atoms: C_13  and  C_29
    6  A    between atoms: C_15  and  C_20
    7  A    between atoms: C_16  and  C_20
    8  A    between atoms: C_16  and  C_22
    9  A    between atoms: C_16  and  C_27
                            x       y       z     vdW  Elec       q    Type
                         _______ _______ _______ _____ _____    ______ ____

>  <TORSDO>
F 9

$$$$
