=
 OpenBabel11062410393D

 32 38  0  0  1  0  0  0  0  0999 V2000
  161.4050  203.4130  149.1620 C   0  0  0  0  0  2  0  0  0  0  0  0
  161.7750  207.9990  150.8860 C   0  0  0  0  0  0  0  0  0  0  0  0
  160.0700  207.5040  155.4440 C   0  0  0  0  0  3  0  0  0  0  0  0
  159.5820  208.9230  155.3680 C   0  0  0  0  0  2  0  0  0  0  0  0
  162.2810  210.4500  150.2920 C   0  0  2  0  0  3  0  0  0  0  0  0
  161.7380  210.1200  148.9420 C   0  0  0  0  0  0  0  0  0  0  0  0
  161.6590  206.0490  149.4200 C   0  0  1  0  0  3  0  0  0  0  0  0
  160.7740  205.9700  151.7410 N   0  0  0  0  0  2  0  0  0  0  0  0
  160.9120  212.6170  150.1280 C   0  0  0  0  0  0  0  0  0  0  0  0
  160.5470  203.9640  150.3060 C   0  0  0  0  0  2  0  0  0  0  0  0
  160.7430  206.9600  154.4280 C   0  0  0  0  0  3  0  0  0  0  0  0
  161.2670  207.1500  151.9900 C   0  0  0  0  0  0  0  0  0  0  0  0
  161.1150  207.7560  153.2920 N   0  0  0  0  0  0  0  0  0  0  0  0
  161.5150  209.9520  152.3790 C   0  0  0  0  0  0  0  0  0  0  0  0
  160.6460  212.3280  148.8450 C   0  0  0  0  0  3  0  0  0  0  0  0
  160.5950  205.4880  150.3690 C   0  0  2  0  0  3  0  0  0  0  0  0
  161.0180  211.0160  148.2490 C   0  0  0  0  0  3  0  0  0  0  0  0
  161.3320  205.7190  148.0890 O   0  0  0  0  0  0  0  0  0  0  0  0
  161.3210  204.3050  147.8980 C   0  0  1  0  0  3  0  0  0  0  0  0
  160.5910  209.8370  154.6730 C   0  0  0  0  0  2  0  0  0  0  0  0
  161.0860  209.2030  153.4040 C   0  0  0  0  0  0  0  0  0  0  0  0
  161.1630  211.3150  152.1680 N   0  0  0  0  0  2  0  0  0  0  0  0
  161.8250  207.5330  149.6210 C   0  0  2  0  0  3  0  0  0  0  0  0
  162.3080  208.5830  148.2190 S   0  0  0  0  0  0  0  0  0  0  0  0
  160.4540  213.9030  150.7180 C   0  0  0  0  0  1  0  0  0  0  0  0
  162.0630  209.3600  151.2160 N   0  0  0  0  0  0  0  0  0  0  0  0
  161.5430  211.5780  150.9530 C   0  0  1  0  0  3  0  0  0  0  0  0
  162.3340  203.8800  146.8380 C   0  0  0  0  0  2  0  0  0  0  0  0
  162.3880  204.8350  145.6490 C   0  0  0  0  0  2  0  0  0  0  0  0
  161.0690  204.9280  144.9610 C   0  0  0  0  0  0  0  0  0  0  0  0
  160.4160  206.1510  144.8560 O   0  0  0  0  0  1  0  0  0  0  0  0
  160.5290  203.8900  144.5000 O   0  0  0  0  0  0  0  0  0  0  0  0
  1 10  1  0  0  0  0
  2 26  1  0  0  0  0
  2 12  2  0  0  0  0
  4  3  1  0  0  0  0
  5  6  1  6  0  0  0
  5 27  1  0  0  0  0
  5 26  1  0  0  0  0
  7 18  1  6  0  0  0
  7 23  1  0  0  0  0
  7 16  1  0  0  0  0
  8 12  1  0  0  0  0
  9 25  1  0  0  0  0
 11  3  2  0  0  0  0
 12 13  1  0  0  0  0
 13 21  1  0  0  0  0
 13 11  1  0  0  0  0
 14 21  2  0  0  0  0
 15  9  2  0  0  0  0
 16 10  1  1  0  0  0
 16  8  1  0  0  0  0
 17 15  1  0  0  0  0
 17  6  2  0  0  0  0
 19 28  1  6  0  0  0
 19 18  1  0  0  0  0
 19  1  1  0  0  0  0
 20  4  1  0  0  0  0
 21 20  1  0  0  0  0
 22 14  1  0  0  0  0
 23 24  1  1  0  0  0
 23  2  1  0  0  0  0
 24  6  1  0  0  0  0
 26 14  1  0  0  0  0
 27  9  1  6  0  0  0
 27 22  1  0  0  0  0
 29 28  1  0  0  0  0
 30 29  1  0  0  0  0
 31 30  1  0  0  0  0
 32 30  2  0  0  0  0
M  END
>  <MODEL>
1

>  <REMARK>
 VINA RESULT:      -6.8      0.000      0.000
  Name = 
  3 active torsions:
  status: ('A' for Active; 'I' for Inactive)
    1  A    between atoms: C_1  and  C_10
    2  A    between atoms: C_10  and  C_19
    3  A    between atoms: C_19  and  C_24
                            x       y       z     vdW  Elec       q    Type
                         _______ _______ _______ _____ _____    ______ ____

>  <TORSDO>
F 3

$$$$
=
 OpenBabel11062410393D

 32 38  0  0  1  0  0  0  0  0999 V2000
  161.2720  203.3340  149.4440 C   0  0  0  0  0  2  0  0  0  0  0  0
  161.7960  208.0210  150.8190 C   0  0  0  0  0  0  0  0  0  0  0  0
  160.2080  207.8990  155.4450 C   0  0  0  0  0  3  0  0  0  0  0  0
  159.7510  209.3210  155.2780 C   0  0  0  0  0  2  0  0  0  0  0  0
  162.3410  210.4100  150.0360 C   0  0  2  0  0  3  0  0  0  0  0  0
  161.7530  209.9970  148.7280 C   0  0  0  0  0  0  0  0  0  0  0  0
  161.5940  205.9750  149.5020 C   0  0  1  0  0  3  0  0  0  0  0  0
  160.7720  206.0850  151.8450 N   0  0  0  0  0  2  0  0  0  0  0  0
  161.0190  212.5920  149.7500 C   0  0  0  0  0  0  0  0  0  0  0  0
  160.4600  203.9870  150.5670 C   0  0  0  0  0  2  0  0  0  0  0  0
  160.8400  207.2670  154.4530 C   0  0  0  0  0  3  0  0  0  0  0  0
  161.3000  207.2670  151.9940 C   0  0  0  0  0  0  0  0  0  0  0  0
  161.1970  207.9690  153.2530 N   0  0  0  0  0  0  0  0  0  0  0  0
  161.6230  210.0830  152.1730 C   0  0  0  0  0  0  0  0  0  0  0  0
  160.7090  212.2190  148.4980 C   0  0  0  0  0  3  0  0  0  0  0  0
  160.5440  205.5100  150.5170 C   0  0  2  0  0  3  0  0  0  0  0  0
  161.0350  210.8580  147.9900 C   0  0  0  0  0  3  0  0  0  0  0  0
  161.2230  205.5570  148.2080 O   0  0  0  0  0  0  0  0  0  0  0  0
  161.1730  204.1340  148.1210 C   0  0  1  0  0  3  0  0  0  0  0  0
  160.7600  210.1560  154.4920 C   0  0  0  0  0  2  0  0  0  0  0  0
  161.2050  209.4210  153.2600 C   0  0  0  0  0  0  0  0  0  0  0  0
  161.2960  211.4350  151.8720 N   0  0  0  0  0  2  0  0  0  0  0  0
  161.7990  207.4640  149.5910 C   0  0  2  0  0  3  0  0  0  0  0  0
  162.2670  208.3980  148.1030 S   0  0  0  0  0  0  0  0  0  0  0  0
  160.6070  213.9290  150.2560 C   0  0  0  0  0  1  0  0  0  0  0  0
  162.1240  209.3950  151.0410 N   0  0  0  0  0  0  0  0  0  0  0  0
  161.6480  211.6010  150.6310 C   0  0  1  0  0  3  0  0  0  0  0  0
  162.1470  203.6090  147.0680 C   0  0  0  0  0  2  0  0  0  0  0  0
  161.4770  203.3220  145.7280 C   0  0  0  0  0  2  0  0  0  0  0  0
  160.7770  202.0050  145.7370 C   0  0  0  0  0  0  0  0  0  0  0  0
  161.1260  201.0300  146.6630 O   0  0  0  0  0  1  0  0  0  0  0  0
  159.8860  201.7650  144.8820 O   0  0  0  0  0  0  0  0  0  0  0  0
  1 10  1  0  0  0  0
  2 26  1  0  0  0  0
  2 12  2  0  0  0  0
  4  3  1  0  0  0  0
  5  6  1  6  0  0  0
  5 27  1  0  0  0  0
  5 26  1  0  0  0  0
  7 18  1  6  0  0  0
  7 23  1  0  0  0  0
  7 16  1  0  0  0  0
  8 12  1  0  0  0  0
  9 25  1  0  0  0  0
 11  3  2  0  0  0  0
 12 13  1  0  0  0  0
 13 21  1  0  0  0  0
 13 11  1  0  0  0  0
 14 21  2  0  0  0  0
 15  9  2  0  0  0  0
 16 10  1  1  0  0  0
 16  8  1  0  0  0  0
 17 15  1  0  0  0  0
 17  6  2  0  0  0  0
 19 28  1  6  0  0  0
 19 18  1  0  0  0  0
 19  1  1  0  0  0  0
 20  4  1  0  0  0  0
 21 20  1  0  0  0  0
 22 14  1  0  0  0  0
 23 24  1  1  0  0  0
 23  2  1  0  0  0  0
 24  6  1  0  0  0  0
 26 14  1  0  0  0  0
 27  9  1  6  0  0  0
 27 22  1  0  0  0  0
 29 30  1  0  0  0  0
 29 28  1  0  0  0  0
 30 31  1  0  0  0  0
 32 30  2  0  0  0  0
M  END
>  <MODEL>
2

>  <REMARK>
 VINA RESULT:      -6.8      0.972      1.249
  Name = 
  3 active torsions:
  status: ('A' for Active; 'I' for Inactive)
    1  A    between atoms: C_1  and  C_10
    2  A    between atoms: C_10  and  C_19
    3  A    between atoms: C_19  and  C_24
                            x       y       z     vdW  Elec       q    Type
                         _______ _______ _______ _____ _____    ______ ____

>  <TORSDO>
F 3

$$$$
=
 OpenBabel11062410393D

 32 38  0  0  1  0  0  0  0  0999 V2000
  162.3750  211.7390  148.8550 C   0  0  0  0  0  2  0  0  0  0  0  0
  160.1320  211.7800  153.2260 C   0  0  0  0  0  0  0  0  0  0  0  0
  161.2060  207.3310  154.9520 C   0  0  0  0  0  3  0  0  0  0  0  0
  159.9040  207.3560  155.7010 C   0  0  0  0  0  2  0  0  0  0  0  0
  158.5300  213.0680  154.7720 C   0  0  2  0  0  3  0  0  0  0  0  0
  157.8950  213.5660  153.5170 C   0  0  0  0  0  0  0  0  0  0  0  0
  160.8240  212.3020  150.9430 C   0  0  1  0  0  3  0  0  0  0  0  0
  161.2420  210.0620  151.9350 N   0  0  0  0  0  2  0  0  0  0  0  0
  156.1390  212.7130  155.6410 C   0  0  0  0  0  0  0  0  0  0  0  0
  161.9180  210.4740  149.5890 C   0  0  0  0  0  2  0  0  0  0  0  0
  161.5950  208.3820  154.2280 C   0  0  0  0  0  3  0  0  0  0  0  0
  160.8330  210.4810  153.1000 C   0  0  0  0  0  0  0  0  0  0  0  0
  160.8330  209.5990  154.2450 N   0  0  0  0  0  0  0  0  0  0  0  0
  159.2170  210.9830  155.3800 C   0  0  0  0  0  0  0  0  0  0  0  0
  155.6720  213.3620  154.5640 C   0  0  0  0  0  3  0  0  0  0  0  0
  160.9260  210.7920  150.7050 C   0  0  2  0  0  3  0  0  0  0  0  0
  156.5670  213.7490  153.4390 C   0  0  0  0  0  3  0  0  0  0  0  0
  160.3300  212.9350  149.7840 O   0  0  0  0  0  0  0  0  0  0  0  0
  161.2180  212.7550  148.6820 C   0  0  1  0  0  3  0  0  0  0  0  0
  159.6240  208.7270  156.3150 C   0  0  0  0  0  2  0  0  0  0  0  0
  159.8670  209.8130  155.3070 C   0  0  0  0  0  0  0  0  0  0  0  0
  157.9830  211.1830  156.0620 N   0  0  0  0  0  2  0  0  0  0  0  0
  159.9870  212.5950  152.1610 C   0  0  2  0  0  3  0  0  0  0  0  0
  159.0160  214.1290  152.2380 S   0  0  0  0  0  0  0  0  0  0  0  0
  155.2060  212.2650  156.7100 C   0  0  0  0  0  1  0  0  0  0  0  0
  159.5040  212.0410  154.4840 N   0  0  0  0  0  0  0  0  0  0  0  0
  157.5610  212.3460  155.6630 C   0  0  1  0  0  3  0  0  0  0  0  0
  161.7170  214.0960  148.1480 C   0  0  0  0  0  2  0  0  0  0  0  0
  161.1310  214.4500  146.7850 C   0  0  0  0  0  2  0  0  0  0  0  0
  161.5020  213.4410  145.7510 C   0  0  0  0  0  0  0  0  0  0  0  0
  160.5340  212.6080  145.2040 O   0  0  0  0  0  0  0  0  0  0  0  0
  162.7030  213.3250  145.3930 O   0  0  0  0  0  1  0  0  0  0  0  0
  1 10  1  0  0  0  0
  2 26  1  0  0  0  0
  3  4  1  0  0  0  0
  4 20  1  0  0  0  0
  5  6  1  6  0  0  0
  5 27  1  0  0  0  0
  7 18  1  6  0  0  0
  7 23  1  0  0  0  0
  8 12  1  0  0  0  0
  9 25  1  0  0  0  0
 11 13  1  0  0  0  0
 11  3  2  0  0  0  0
 12  2  2  0  0  0  0
 12 13  1  0  0  0  0
 13 21  1  0  0  0  0
 14 22  1  0  0  0  0
 15  9  2  0  0  0  0
 16 10  1  6  0  0  0
 16  7  1  0  0  0  0
 16  8  1  0  0  0  0
 17  6  2  0  0  0  0
 17 15  1  0  0  0  0
 19 28  1  1  0  0  0
 19  1  1  0  0  0  0
 19 18  1  0  0  0  0
 21 14  2  0  0  0  0
 21 20  1  0  0  0  0
 23 24  1  1  0  0  0
 23  2  1  0  0  0  0
 24  6  1  0  0  0  0
 26  5  1  0  0  0  0
 26 14  1  0  0  0  0
 27  9  1  6  0  0  0
 27 22  1  0  0  0  0
 29 28  1  0  0  0  0
 30 29  1  0  0  0  0
 31 30  2  0  0  0  0
 32 30  1  0  0  0  0
M  END
>  <MODEL>
3

>  <REMARK>
 VINA RESULT:      -4.8      4.378      6.414
  Name = 
  3 active torsions:
  status: ('A' for Active; 'I' for Inactive)
    1  A    between atoms: C_1  and  C_10
    2  A    between atoms: C_10  and  C_19
    3  A    between atoms: C_19  and  C_24
                            x       y       z     vdW  Elec       q    Type
                         _______ _______ _______ _____ _____    ______ ____

>  <TORSDO>
F 3

$$$$
=
 OpenBabel11062410393D

 32 38  0  0  1  0  0  0  0  0999 V2000
  161.8070  205.0670  149.4770 C   0  0  0  0  0  2  0  0  0  0  0  0
  161.3670  208.8560  152.5730 C   0  0  0  0  0  0  0  0  0  0  0  0
  160.5390  206.5900  156.8290 C   0  0  0  0  0  3  0  0  0  0  0  0
  159.7310  207.7820  157.2560 C   0  0  0  0  0  2  0  0  0  0  0  0
  161.1960  211.4140  152.7790 C   0  0  2  0  0  3  0  0  0  0  0  0
  160.5440  211.3680  151.4380 C   0  0  0  0  0  0  0  0  0  0  0  0
  161.4820  207.4750  150.5630 C   0  0  1  0  0  3  0  0  0  0  0  0
  161.0040  206.4740  152.7880 N   0  0  0  0  0  2  0  0  0  0  0  0
  159.3550  213.0830  153.4290 C   0  0  0  0  0  0  0  0  0  0  0  0
  161.0310  205.0020  150.7960 C   0  0  0  0  0  2  0  0  0  0  0  0
  161.1560  206.5740  155.6460 C   0  0  0  0  0  3  0  0  0  0  0  0
  161.2440  207.6140  153.3730 C   0  0  0  0  0  0  0  0  0  0  0  0
  161.1560  207.7410  154.8090 N   0  0  0  0  0  0  0  0  0  0  0  0
  160.8940  210.1320  154.6380 C   0  0  0  0  0  0  0  0  0  0  0  0
  158.9690  213.1280  152.1450 C   0  0  0  0  0  3  0  0  0  0  0  0
  160.7340  206.3930  151.3500 C   0  0  2  0  0  3  0  0  0  0  0  0
  159.5390  212.2030  151.1280 C   0  0  0  0  0  3  0  0  0  0  0  0
  161.0410  207.4800  149.2240 O   0  0  0  0  0  0  0  0  0  0  0  0
  161.3270  206.2380  148.5830 C   0  0  1  0  0  3  0  0  0  0  0  0
  160.3820  209.0970  156.8270 C   0  0  0  0  0  2  0  0  0  0  0  0
  160.8110  209.0260  155.3890 C   0  0  0  0  0  0  0  0  0  0  0  0
  160.2080  211.3500  154.9090 N   0  0  0  0  0  2  0  0  0  0  0  0
  161.3290  208.8190  151.2260 C   0  0  2  0  0  3  0  0  0  0  0  0
  161.3360  210.3270  150.2130 S   0  0  0  0  0  0  0  0  0  0  0  0
  158.7070  213.9630  154.4380 C   0  0  0  0  0  1  0  0  0  0  0  0
  161.3790  210.0830  153.3090 N   0  0  0  0  0  0  0  0  0  0  0  0
  160.3270  212.0540  153.8220 C   0  0  1  0  0  3  0  0  0  0  0  0
  162.2370  206.4360  147.3730 C   0  0  0  0  0  2  0  0  0  0  0  0
  161.5000  206.3010  146.0450 C   0  0  0  0  0  2  0  0  0  0  0  0
  161.9640  205.1080  145.2790 C   0  0  0  0  0  0  0  0  0  0  0  0
  161.2890  204.7030  144.1340 O   0  0  0  0  0  0  0  0  0  0  0  0
  162.9540  204.4490  145.6880 O   0  0  0  0  0  1  0  0  0  0  0  0
  1 10  1  0  0  0  0
  2 26  1  0  0  0  0
  2 12  2  0  0  0  0
  3  4  1  0  0  0  0
  5  6  1  6  0  0  0
  5 26  1  0  0  0  0
  5 27  1  0  0  0  0
  7 18  1  6  0  0  0
  7 23  1  0  0  0  0
  7 16  1  0  0  0  0
  8 12  1  0  0  0  0
  9 25  1  0  0  0  0
 11  3  2  0  0  0  0
 12 13  1  0  0  0  0
 13 21  1  0  0  0  0
 13 11  1  0  0  0  0
 14 22  1  0  0  0  0
 14 21  2  0  0  0  0
 15  9  2  0  0  0  0
 16 10  1  6  0  0  0
 16  8  1  0  0  0  0
 17  6  2  0  0  0  0
 17 15  1  0  0  0  0
 19 28  1  6  0  0  0
 19 18  1  0  0  0  0
 19  1  1  0  0  0  0
 20  4  1  0  0  0  0
 21 20  1  0  0  0  0
 23 24  1  6  0  0  0
 23  2  1  0  0  0  0
 24  6  1  0  0  0  0
 26 14  1  0  0  0  0
 27  9  1  6  0  0  0
 27 22  1  0  0  0  0
 29 28  1  0  0  0  0
 30 32  1  0  0  0  0
 30 29  1  0  0  0  0
 31 30  2  0  0  0  0
M  END
>  <MODEL>
4

>  <REMARK>
 VINA RESULT:      -4.6      1.840      2.402
  Name = 
  3 active torsions:
  status: ('A' for Active; 'I' for Inactive)
    1  A    between atoms: C_1  and  C_10
    2  A    between atoms: C_10  and  C_19
    3  A    between atoms: C_19  and  C_24
                            x       y       z     vdW  Elec       q    Type
                         _______ _______ _______ _____ _____    ______ ____

>  <TORSDO>
F 3

$$$$
=
 OpenBabel11062410393D

 32 38  0  0  1  0  0  0  0  0999 V2000
  162.1580  206.0460  150.1970 C   0  0  0  0  0  2  0  0  0  0  0  0
  160.2660  209.8930  152.5980 C   0  0  0  0  0  0  0  0  0  0  0  0
  160.7910  213.4860  149.3190 C   0  0  0  0  0  3  0  0  0  0  0  0
  160.9280  214.4500  150.4640 C   0  0  0  0  0  2  0  0  0  0  0  0
  159.3610  210.7490  154.8490 C   0  0  2  0  0  3  0  0  0  0  0  0
  160.3000  209.7710  155.4720 C   0  0  0  0  0  0  0  0  0  0  0  0
  161.2220  207.7150  152.0480 C   0  0  1  0  0  3  0  0  0  0  0  0
  161.4650  209.6530  150.5110 N   0  0  0  0  0  2  0  0  0  0  0  0
  160.1660  212.4060  156.6380 C   0  0  0  0  0  0  0  0  0  0  0  0
  162.5300  207.5020  149.8990 C   0  0  0  0  0  2  0  0  0  0  0  0
  160.5560  212.1920  149.5440 C   0  0  0  0  0  3  0  0  0  0  0  0
  160.6560  210.3620  151.2470 C   0  0  0  0  0  0  0  0  0  0  0  0
  160.3150  211.7160  150.8770 N   0  0  0  0  0  0  0  0  0  0  0  0
  159.6520  212.2270  153.1400 C   0  0  0  0  0  0  0  0  0  0  0  0
  160.8190  211.4030  157.2450 C   0  0  0  0  0  3  0  0  0  0  0  0
  162.1050  208.4400  151.0260 C   0  0  2  0  0  3  0  0  0  0  0  0
  160.9400  210.0600  156.6160 C   0  0  0  0  0  3  0  0  0  0  0  0
  161.9530  206.6740  152.6550 O   0  0  0  0  0  0  0  0  0  0  0  0
  162.3520  205.6970  151.6940 C   0  0  1  0  0  3  0  0  0  0  0  0
  159.9480  214.1370  151.5940 C   0  0  0  0  0  2  0  0  0  0  0  0
  159.9660  212.6700  151.9150 C   0  0  0  0  0  0  0  0  0  0  0  0
  159.7110  213.0110  154.3260 N   0  0  0  0  0  2  0  0  0  0  0  0
  160.6600  208.6860  153.0530 C   0  0  2  0  0  3  0  0  0  0  0  0
  160.3220  208.1310  154.7500 S   0  0  0  0  0  0  0  0  0  0  0  0
  160.1340  213.7600  157.2520 C   0  0  0  0  0  1  0  0  0  0  0  0
  159.5850  210.8410  153.4240 N   0  0  0  0  0  0  0  0  0  0  0  0
  159.6100  212.1580  155.3020 C   0  0  1  0  0  3  0  0  0  0  0  0
  161.7810  204.3220  152.0330 C   0  0  0  0  0  2  0  0  0  0  0  0
  160.6350  203.9100  151.1150 C   0  0  0  0  0  2  0  0  0  0  0  0
  160.8300  202.5320  150.5800 C   0  0  0  0  0  0  0  0  0  0  0  0
  160.1340  202.1110  149.4530 O   0  0  0  0  0  0  0  0  0  0  0  0
  161.6060  201.7360  151.1680 O   0  0  0  0  0  1  0  0  0  0  0  0
  1 19  1  0  0  0  0
  2 26  1  0  0  0  0
  3 11  2  0  0  0  0
  3  4  1  0  0  0  0
  4 20  1  0  0  0  0
  5 27  1  0  0  0  0
  5  6  1  1  0  0  0
  6 17  2  0  0  0  0
  7 18  1  1  0  0  0
  7 23  1  0  0  0  0
  8 16  1  0  0  0  0
  8 12  1  0  0  0  0
  9 15  2  0  0  0  0
  9 25  1  0  0  0  0
 10  1  1  0  0  0  0
 11 13  1  0  0  0  0
 12  2  2  0  0  0  0
 13 12  1  0  0  0  0
 13 21  1  0  0  0  0
 14 26  1  0  0  0  0
 14 22  1  0  0  0  0
 16 10  1  6  0  0  0
 16  7  1  0  0  0  0
 17 15  1  0  0  0  0
 19 28  1  1  0  0  0
 19 18  1  0  0  0  0
 20 21  1  0  0  0  0
 21 14  2  0  0  0  0
 23  2  1  6  0  0  0
 23 24  1  0  0  0  0
 24  6  1  0  0  0  0
 26  5  1  0  0  0  0
 27 22  1  6  0  0  0
 27  9  1  0  0  0  0
 29 28  1  0  0  0  0
 30 29  1  0  0  0  0
 30 32  1  0  0  0  0
 31 30  2  0  0  0  0
M  END
>  <MODEL>
5

>  <REMARK>
 VINA RESULT:      -4.5      2.937      5.518
  Name = 
  3 active torsions:
  status: ('A' for Active; 'I' for Inactive)
    1  A    between atoms: C_1  and  C_10
    2  A    between atoms: C_10  and  C_19
    3  A    between atoms: C_19  and  C_24
                            x       y       z     vdW  Elec       q    Type
                         _______ _______ _______ _____ _____    ______ ____

>  <TORSDO>
F 3

$$$$
=
 OpenBabel11062410393D

 32 38  0  0  1  0  0  0  0  0999 V2000
  161.3980  203.8860  150.3430 C   0  0  0  0  0  2  0  0  0  0  0  0
  161.7420  208.7620  150.8390 C   0  0  0  0  0  0  0  0  0  0  0  0
  160.2740  209.4110  155.4600 C   0  0  0  0  0  3  0  0  0  0  0  0
  159.7490  210.7600  155.0570 C   0  0  0  0  0  2  0  0  0  0  0  0
  162.1590  210.9900  149.6240 C   0  0  2  0  0  3  0  0  0  0  0  0
  161.5590  210.3250  148.4310 C   0  0  0  0  0  0  0  0  0  0  0  0
  161.6020  206.5060  149.9170 C   0  0  1  0  0  3  0  0  0  0  0  0
  160.8320  207.0030  152.2280 N   0  0  0  0  0  2  0  0  0  0  0  0
  160.7330  213.0310  148.9940 C   0  0  0  0  0  0  0  0  0  0  0  0
  160.5850  204.6980  151.3560 C   0  0  0  0  0  2  0  0  0  0  0  0
  160.9100  208.6370  154.5790 C   0  0  0  0  0  3  0  0  0  0  0  0
  161.3090  208.2130  152.1460 C   0  0  0  0  0  0  0  0  0  0  0  0
  161.2060  209.1250  153.2610 N   0  0  0  0  0  0  0  0  0  0  0  0
  161.5090  211.0260  151.8070 C   0  0  0  0  0  0  0  0  0  0  0  0
  160.4100  212.4250  147.8410 C   0  0  0  0  0  3  0  0  0  0  0  0
  160.5980  206.1890  151.0320 C   0  0  2  0  0  3  0  0  0  0  0  0
  160.7840  211.0100  147.5740 C   0  0  0  0  0  3  0  0  0  0  0  0
  161.2180  205.8470  148.7310 O   0  0  0  0  0  0  0  0  0  0  0  0
  161.2310  204.4300  148.9020 C   0  0  1  0  0  3  0  0  0  0  0  0
  160.7000  211.4810  154.1020 C   0  0  0  0  0  2  0  0  0  0  0  0
  161.1480  210.5540  153.0080 C   0  0  0  0  0  0  0  0  0  0  0  0
  161.1140  212.2870  151.2790 N   0  0  0  0  0  2  0  0  0  0  0  0
  161.7410  207.9940  149.7310 C   0  0  2  0  0  3  0  0  0  0  0  0
  162.1300  208.6620  148.0860 S   0  0  0  0  0  0  0  0  0  0  0  0
  160.2730  214.4190  149.2670 C   0  0  0  0  0  1  0  0  0  0  0  0
  162.0130  210.1660  150.8010 N   0  0  0  0  0  0  0  0  0  0  0  0
  161.4280  212.2400  150.0190 C   0  0  1  0  0  3  0  0  0  0  0  0
  162.2020  203.7640  147.9290 C   0  0  0  0  0  2  0  0  0  0  0  0
  161.5980  202.5560  147.2190 C   0  0  0  0  0  2  0  0  0  0  0  0
  160.8370  201.6890  148.1640 C   0  0  0  0  0  0  0  0  0  0  0  0
  159.4480  201.7190  148.1800 O   0  0  0  0  0  0  0  0  0  0  0  0
  161.4570  200.9490  148.9700 O   0  0  0  0  0  1  0  0  0  0  0  0
  1 10  1  0  0  0  0
  2 12  2  0  0  0  0
  4  3  1  0  0  0  0
  5  6  1  6  0  0  0
  5 27  1  0  0  0  0
  5 26  1  0  0  0  0
  7 18  1  6  0  0  0
  7 16  1  0  0  0  0
  9 25  1  0  0  0  0
 11  3  2  0  0  0  0
 12  8  1  0  0  0  0
 12 13  1  0  0  0  0
 13 11  1  0  0  0  0
 14 21  2  0  0  0  0
 15  9  2  0  0  0  0
 16 10  1  1  0  0  0
 16  8  1  0  0  0  0
 17 15  1  0  0  0  0
 17  6  2  0  0  0  0
 18 19  1  0  0  0  0
 19 28  1  6  0  0  0
 19  1  1  0  0  0  0
 20  4  1  0  0  0  0
 21 13  1  0  0  0  0
 21 20  1  0  0  0  0
 22 14  1  0  0  0  0
 23 24  1  1  0  0  0
 23  7  1  0  0  0  0
 23  2  1  0  0  0  0
 24  6  1  0  0  0  0
 26  2  1  0  0  0  0
 26 14  1  0  0  0  0
 27  9  1  6  0  0  0
 27 22  1  0  0  0  0
 29 28  1  0  0  0  0
 29 30  1  0  0  0  0
 30 31  2  0  0  0  0
 30 32  1  0  0  0  0
M  END
>  <MODEL>
6

>  <REMARK>
 VINA RESULT:      -4.4      1.601      2.014
  Name = 
  3 active torsions:
  status: ('A' for Active; 'I' for Inactive)
    1  A    between atoms: C_1  and  C_10
    2  A    between atoms: C_10  and  C_19
    3  A    between atoms: C_19  and  C_24
                            x       y       z     vdW  Elec       q    Type
                         _______ _______ _______ _____ _____    ______ ____

>  <TORSDO>
F 3

$$$$
=
 OpenBabel11062410393D

 32 38  0  0  1  0  0  0  0  0999 V2000
  161.8320  204.2940  145.7140 C   0  0  0  0  0  2  0  0  0  0  0  0
  161.0490  207.0630  149.6970 C   0  0  0  0  0  0  0  0  0  0  0  0
  162.6240  211.4470  148.2030 C   0  0  0  0  0  3  0  0  0  0  0  0
  163.0030  211.7460  149.6260 C   0  0  0  0  0  2  0  0  0  0  0  0
  160.3780  207.0590  152.1800 C   0  0  2  0  0  3  0  0  0  0  0  0
  160.9930  205.7010  152.2300 C   0  0  0  0  0  0  0  0  0  0  0  0
  161.3670  205.1740  148.1830 C   0  0  1  0  0  3  0  0  0  0  0  0
  162.1730  207.4490  147.5900 N   0  0  0  0  0  2  0  0  0  0  0  0
  161.5810  207.5020  154.4050 C   0  0  0  0  0  0  0  0  0  0  0  0
  162.6030  205.5830  146.0200 C   0  0  0  0  0  2  0  0  0  0  0  0
  162.0310  210.2950  147.8840 C   0  0  0  0  0  3  0  0  0  0  0  0
  161.5810  207.9520  148.6370 C   0  0  0  0  0  0  0  0  0  0  0  0
  161.6400  209.3690  148.9100 N   0  0  0  0  0  0  0  0  0  0  0  0
  161.1040  209.0000  151.2330 C   0  0  0  0  0  0  0  0  0  0  0  0
  161.9150  206.2030  154.4610 C   0  0  0  0  0  3  0  0  0  0  0  0
  162.4370  206.0130  147.4750 C   0  0  2  0  0  3  0  0  0  0  0  0
  161.6660  205.2860  153.3150 C   0  0  0  0  0  3  0  0  0  0  0  0
  161.7650  203.8220  148.2130 O   0  0  0  0  0  0  0  0  0  0  0  0
  161.8920  203.2930  146.8940 C   0  0  1  0  0  3  0  0  0  0  0  0
  161.9530  211.2420  150.6150 C   0  0  0  0  0  2  0  0  0  0  0  0
  161.5540  209.8320  150.2830 C   0  0  0  0  0  0  0  0  0  0  0  0
  161.3580  209.1460  152.6260 N   0  0  0  0  0  2  0  0  0  0  0  0
  161.0810  205.7220  149.5560 C   0  0  2  0  0  3  0  0  0  0  0  0
  160.5680  204.5940  150.8860 S   0  0  0  0  0  0  0  0  0  0  0  0
  161.9170  208.4120  155.5330 C   0  0  0  0  0  1  0  0  0  0  0  0
  160.6460  207.6990  150.9120 N   0  0  0  0  0  0  0  0  0  0  0  0
  161.0030  208.0140  153.1560 C   0  0  1  0  0  3  0  0  0  0  0  0
  160.9530  202.1080  146.6800 C   0  0  0  0  0  2  0  0  0  0  0  0
  161.1960  200.9690  147.6650 C   0  0  0  0  0  2  0  0  0  0  0  0
  160.5380  201.2300  148.9770 C   0  0  0  0  0  0  0  0  0  0  0  0
  161.2060  200.9540  150.1640 O   0  0  0  0  0  1  0  0  0  0  0  0
  159.3620  201.6750  149.0110 O   0  0  0  0  0  0  0  0  0  0  0  0
  1 10  1  0  0  0  0
  1 19  1  0  0  0  0
  2 26  1  0  0  0  0
  3  4  1  0  0  0  0
  4 20  1  0  0  0  0
  5  6  1  6  0  0  0
  5 27  1  0  0  0  0
  6 17  2  0  0  0  0
  7 18  1  1  0  0  0
  7 23  1  0  0  0  0
  8 12  1  0  0  0  0
  9 15  2  0  0  0  0
  9 25  1  0  0  0  0
 11  3  2  0  0  0  0
 11 13  1  0  0  0  0
 12 13  1  0  0  0  0
 12  2  2  0  0  0  0
 13 21  1  0  0  0  0
 14 22  1  0  0  0  0
 16 10  1  6  0  0  0
 16  8  1  0  0  0  0
 16  7  1  0  0  0  0
 17 15  1  0  0  0  0
 19 28  1  6  0  0  0
 19 18  1  0  0  0  0
 21 20  1  0  0  0  0
 21 14  2  0  0  0  0
 23  2  1  6  0  0  0
 23 24  1  0  0  0  0
 24  6  1  0  0  0  0
 26 14  1  0  0  0  0
 26  5  1  0  0  0  0
 27 22  1  6  0  0  0
 27  9  1  0  0  0  0
 28 29  1  0  0  0  0
 29 30  1  0  0  0  0
 30 32  2  0  0  0  0
 30 31  1  0  0  0  0
M  END
>  <MODEL>
7

>  <REMARK>
 VINA RESULT:      -4.2      2.243      5.024
  Name = 
  3 active torsions:
  status: ('A' for Active; 'I' for Inactive)
    1  A    between atoms: C_1  and  C_10
    2  A    between atoms: C_10  and  C_19
    3  A    between atoms: C_19  and  C_24
                            x       y       z     vdW  Elec       q    Type
                         _______ _______ _______ _____ _____    ______ ____

>  <TORSDO>
F 3

$$$$
