=
 OpenBabel11052422353D

 31 35  0  0  1  0  0  0  0  0999 V2000
  160.9710  202.4480  151.0170 C   0  0  0  0  0  0  0  0  0  0  0  0
  161.2810  205.6630  149.1020 C   0  0  0  0  0  0  0  0  0  0  0  0
  161.4860  205.2760  147.6670 C   0  0  0  0  0  0  0  0  0  0  0  0
  161.5580  203.6410  145.8600 C   0  0  0  0  0  0  0  0  0  0  0  0
  161.1210  204.7260  150.1610 C   0  0  0  0  0  0  0  0  0  0  0  0
  160.8150  202.9330  152.3160 C   0  0  0  0  0  3  0  0  0  0  0  0
  161.3010  203.9660  147.1940 C   0  0  0  0  0  3  0  0  0  0  0  0
  161.1310  207.4550  150.7560 C   0  0  0  0  0  0  0  0  0  0  0  0
  160.9770  200.7220  150.7210 Cl  0  0  0  0  0  0  0  0  0  0  0  0
  162.0770  207.5790  147.1850 O   0  0  0  0  0  0  0  0  0  0  0  0
  161.3770  202.3720  145.4250 F   0  0  0  0  0  0  0  0  0  0  0  0
  160.9770  206.5340  151.7390 N   0  0  0  0  0  0  0  0  0  0  0  0
  161.3000  207.0420  149.4230 C   0  0  0  0  0  0  0  0  0  0  0  0
  161.1250  203.3370  149.9520 C   0  0  0  0  0  3  0  0  0  0  0  0
  162.0170  204.6220  144.9790 C   0  0  0  0  0  3  0  0  0  0  0  0
  160.9680  205.2040  151.4860 C   0  0  0  0  0  0  0  0  0  0  0  0
  160.8150  204.3090  152.5490 C   0  0  0  0  0  3  0  0  0  0  0  0
  161.3920  208.0760  148.3310 C   0  0  0  0  0  2  0  0  0  0  0  0
  161.9180  206.2620  146.7580 C   0  0  0  0  0  0  0  0  0  0  0  0
  162.1970  205.9310  145.4290 C   0  0  0  0  0  3  0  0  0  0  0  0
  161.1400  208.9050  151.1280 C   0  0  0  0  0  2  0  0  0  0  0  0
  163.0660  209.9980  152.0560 O   0  0  0  0  0  1  0  0  0  0  0  0
  162.0060  209.1390  152.3590 C   0  0  1  0  0  3  0  0  0  0  0  0
  159.0360  210.4270  155.2200 C   0  0  1  0  0  3  0  0  0  0  0  0
  160.6620  210.9220  153.4010 C   0  0  0  0  0  3  0  0  0  0  0  0
  161.3450  207.6720  154.7360 O   0  0  0  0  0  0  0  0  0  0  0  0
  158.3330  210.9800  156.2720 F   0  0  0  0  0  0  0  0  0  0  0  0
  159.8410  211.5120  154.5120 C   0  0  0  0  0  2  0  0  0  0  0  0
  160.8600  208.8310  154.6460 C   0  0  0  0  0  0  0  0  0  0  0  0
  161.1850  209.6900  153.4860 C   0  0  0  0  0  0  0  0  0  0  0  0
  159.9750  209.3430  155.7460 C   0  0  0  0  0  2  0  0  0  0  0  0
  1  6  1  0  0  0  0
  2 13  2  0  0  0  0
  2  5  1  0  0  0  0
  3  2  1  0  0  0  0
  4  7  2  0  0  0  0
  5 16  2  0  0  0  0
  6 17  2  0  0  0  0
  7  3  1  0  0  0  0
  8 21  1  0  0  0  0
  8 12  2  0  0  0  0
  9  1  1  0  0  0  0
 10 18  1  0  0  0  0
 11  4  1  0  0  0  0
 13  8  1  0  0  0  0
 14  5  1  0  0  0  0
 14  1  2  0  0  0  0
 15 20  2  0  0  0  0
 15  4  1  0  0  0  0
 16 12  1  0  0  0  0
 16 17  1  0  0  0  0
 18 13  1  0  0  0  0
 19 10  1  0  0  0  0
 19  3  2  0  0  0  0
 20 19  1  0  0  0  0
 21 23  1  0  0  0  0
 23 22  1  6  0  0  0
 23 30  1  0  0  0  0
 24 31  1  0  0  0  0
 24 27  1  1  0  0  0
 25 30  2  0  0  0  0
 25 28  1  0  0  0  0
 28 24  1  0  0  0  0
 29 26  2  0  0  0  0
 29 31  1  0  0  0  0
 30 29  1  0  0  0  0
M  END
>  <MODEL>
1

>  <REMARK>
 VINA RESULT:      -9.8      0.000      0.000
  Name = 
  3 active torsions:
  status: ('A' for Active; 'I' for Inactive)
    1  A    between atoms: C_9  and  C_22
    2  A    between atoms: C_9  and  C_23
    3  A    between atoms: C_15  and  C_23
                            x       y       z     vdW  Elec       q    Type
                         _______ _______ _______ _____ _____    ______ ____

>  <TORSDO>
F 3

$$$$
=
 OpenBabel11052422353D

 31 35  0  0  1  0  0  0  0  0999 V2000
  160.9790  207.9450  153.9770 C   0  0  0  0  0  0  0  0  0  0  0  0
  161.3940  207.5540  150.2660 C   0  0  0  0  0  0  0  0  0  0  0  0
  161.1970  206.0950  149.9750 C   0  0  0  0  0  0  0  0  0  0  0  0
  160.5730  203.8290  150.6210 C   0  0  0  0  0  0  0  0  0  0  0  0
  161.3200  208.1210  151.5690 C   0  0  0  0  0  0  0  0  0  0  0  0
  161.2090  209.3130  154.1210 C   0  0  0  0  0  3  0  0  0  0  0  0
  160.6860  205.1890  150.9190 C   0  0  0  0  0  3  0  0  0  0  0  0
  161.9350  209.7760  149.4050 C   0  0  0  0  0  0  0  0  0  0  0  0
  160.6200  206.9640  155.3820 Cl  0  0  0  0  0  0  0  0  0  0  0  0
  162.0500  206.4800  147.7360 O   0  0  0  0  0  0  0  0  0  0  0  0
  160.0820  202.9720  151.5480 F   0  0  0  0  0  0  0  0  0  0  0  0
  161.8530  210.2810  150.6610 N   0  0  0  0  0  0  0  0  0  0  0  0
  161.7220  208.4050  149.1820 C   0  0  0  0  0  0  0  0  0  0  0  0
  161.0370  207.3560  152.7130 C   0  0  0  0  0  3  0  0  0  0  0  0
  160.9810  203.3520  149.3750 C   0  0  0  0  0  3  0  0  0  0  0  0
  161.5580  209.5080  151.7320 C   0  0  0  0  0  0  0  0  0  0  0  0
  161.4990  210.0920  153.0000 C   0  0  0  0  0  3  0  0  0  0  0  0
  161.7400  207.8700  147.7730 C   0  0  0  0  0  2  0  0  0  0  0  0
  161.5740  205.6030  148.7100 C   0  0  0  0  0  0  0  0  0  0  0  0
  161.4820  204.2390  148.4200 C   0  0  0  0  0  3  0  0  0  0  0  0
  162.2790  210.7030  148.2820 C   0  0  0  0  0  2  0  0  0  0  0  0
  163.0550  212.9740  148.2540 O   0  0  0  0  0  1  0  0  0  0  0  0
  162.0090  212.1490  148.6750 C   0  0  1  0  0  3  0  0  0  0  0  0
  157.9620  212.8440  147.3310 C   0  0  1  0  0  3  0  0  0  0  0  0
  160.3350  212.2460  146.8700 C   0  0  0  0  0  3  0  0  0  0  0  0
  160.1110  213.7560  150.1070 O   0  0  0  0  0  0  0  0  0  0  0  0
  156.7970  213.3170  146.7600 F   0  0  0  0  0  0  0  0  0  0  0  0
  159.0400  212.7020  146.2600 C   0  0  0  0  0  2  0  0  0  0  0  0
  159.7740  213.4020  148.9470 C   0  0  0  0  0  0  0  0  0  0  0  0
  160.7040  212.6180  148.1040 C   0  0  0  0  0  0  0  0  0  0  0  0
  158.4320  213.8130  148.4140 C   0  0  0  0  0  2  0  0  0  0  0  0
  1  6  1  0  0  0  0
  1  9  1  0  0  0  0
  2  5  1  0  0  0  0
  3  2  1  0  0  0  0
  3  7  1  0  0  0  0
  4  7  2  0  0  0  0
  4 11  1  0  0  0  0
  5 16  2  0  0  0  0
  5 14  1  0  0  0  0
  8 12  2  0  0  0  0
 10 18  1  0  0  0  0
 10 19  1  0  0  0  0
 12 16  1  0  0  0  0
 13  8  1  0  0  0  0
 13  2  2  0  0  0  0
 14  1  2  0  0  0  0
 15  4  1  0  0  0  0
 16 17  1  0  0  0  0
 17  6  2  0  0  0  0
 18 13  1  0  0  0  0
 19  3  2  0  0  0  0
 20 19  1  0  0  0  0
 20 15  2  0  0  0  0
 21 23  1  0  0  0  0
 21  8  1  0  0  0  0
 23 22  1  6  0  0  0
 24 27  1  6  0  0  0
 24 31  1  0  0  0  0
 25 30  2  0  0  0  0
 28 25  1  0  0  0  0
 28 24  1  0  0  0  0
 29 26  2  0  0  0  0
 30 23  1  0  0  0  0
 30 29  1  0  0  0  0
 31 29  1  0  0  0  0
M  END
>  <MODEL>
2

>  <REMARK>
 VINA RESULT:      -9.8      3.946      5.565
  Name = 
  3 active torsions:
  status: ('A' for Active; 'I' for Inactive)
    1  A    between atoms: C_9  and  C_22
    2  A    between atoms: C_9  and  C_23
    3  A    between atoms: C_15  and  C_23
                            x       y       z     vdW  Elec       q    Type
                         _______ _______ _______ _____ _____    ______ ____

>  <TORSDO>
F 3

$$$$
=
 OpenBabel11052422353D

 31 35  0  0  1  0  0  0  0  0999 V2000
  160.8920  202.4290  150.9990 C   0  0  0  0  0  0  0  0  0  0  0  0
  161.3710  205.6970  149.2110 C   0  0  0  0  0  0  0  0  0  0  0  0
  161.5340  205.3580  147.7580 C   0  0  0  0  0  0  0  0  0  0  0  0
  161.4820  203.7980  145.8850 C   0  0  0  0  0  0  0  0  0  0  0  0
  161.1680  204.7290  150.2340 C   0  0  0  0  0  0  0  0  0  0  0  0
  160.7830  202.8690  152.3180 C   0  0  0  0  0  3  0  0  0  0  0  0
  161.2620  204.0830  147.2350 C   0  0  0  0  0  3  0  0  0  0  0  0
  161.3520  207.4250  150.9380 C   0  0  0  0  0  0  0  0  0  0  0  0
  160.7890  200.7210  150.6330 Cl  0  0  0  0  0  0  0  0  0  0  0  0
  162.2560  207.6400  147.3600 O   0  0  0  0  0  0  0  0  0  0  0  0
  161.2180  202.5610  145.4030 F   0  0  0  0  0  0  0  0  0  0  0  0
  161.1550  206.4750  151.8860 N   0  0  0  0  0  0  0  0  0  0  0  0
  161.4780  207.0580  149.5870 C   0  0  0  0  0  0  0  0  0  0  0  0
  161.0850  203.3520  149.9680 C   0  0  0  0  0  3  0  0  0  0  0  0
  161.9880  204.7850  145.0380 C   0  0  0  0  0  3  0  0  0  0  0  0
  161.0620  205.1600  151.5790 C   0  0  0  0  0  0  0  0  0  0  0  0
  160.8700  204.2320  152.6070 C   0  0  0  0  0  3  0  0  0  0  0  0
  161.6180  208.1290  148.5370 C   0  0  0  0  0  2  0  0  0  0  0  0
  162.0120  206.3530  146.8840 C   0  0  0  0  0  0  0  0  0  0  0  0
  162.2530  206.0620  145.5380 C   0  0  0  0  0  3  0  0  0  0  0  0
  161.4540  208.8550  151.3690 C   0  0  0  0  0  2  0  0  0  0  0  0
  161.7040  208.7990  153.7550 O   0  0  0  0  0  1  0  0  0  0  0  0
  160.7950  209.0560  152.7260 C   0  0  1  0  0  3  0  0  0  0  0  0
  158.5670  212.7590  152.7450 C   0  0  1  0  0  3  0  0  0  0  0  0
  160.3790  211.3150  151.8320 C   0  0  0  0  0  3  0  0  0  0  0  0
  159.3210  210.0150  154.9950 O   0  0  0  0  0  0  0  0  0  0  0  0
  158.1270  214.0630  152.8580 F   0  0  0  0  0  0  0  0  0  0  0  0
  159.8480  212.7180  151.9160 C   0  0  0  0  0  2  0  0  0  0  0  0
  159.4540  210.8230  154.0380 C   0  0  0  0  0  0  0  0  0  0  0  0
  160.2440  210.4460  152.8440 C   0  0  0  0  0  0  0  0  0  0  0  0
  158.8310  212.1860  154.1360 C   0  0  0  0  0  2  0  0  0  0  0  0
  1  6  1  0  0  0  0
  2 13  2  0  0  0  0
  2  5  1  0  0  0  0
  3  2  1  0  0  0  0
  4  7  2  0  0  0  0
  5 16  2  0  0  0  0
  6 17  2  0  0  0  0
  7  3  1  0  0  0  0
  8 21  1  0  0  0  0
  8 12  2  0  0  0  0
  9  1  1  0  0  0  0
 10 18  1  0  0  0  0
 11  4  1  0  0  0  0
 13  8  1  0  0  0  0
 14  5  1  0  0  0  0
 14  1  2  0  0  0  0
 15 20  2  0  0  0  0
 15  4  1  0  0  0  0
 16 12  1  0  0  0  0
 16 17  1  0  0  0  0
 18 13  1  0  0  0  0
 19 10  1  0  0  0  0
 19  3  2  0  0  0  0
 20 19  1  0  0  0  0
 21 23  1  0  0  0  0
 23 30  1  0  0  0  0
 23 22  1  1  0  0  0
 24 27  1  1  0  0  0
 24 31  1  0  0  0  0
 25 28  1  0  0  0  0
 25 30  2  0  0  0  0
 28 24  1  0  0  0  0
 29 31  1  0  0  0  0
 29 26  2  0  0  0  0
 30 29  1  0  0  0  0
M  END
>  <MODEL>
3

>  <REMARK>
 VINA RESULT:      -9.5      1.313      1.630
  Name = 
  3 active torsions:
  status: ('A' for Active; 'I' for Inactive)
    1  A    between atoms: C_9  and  C_22
    2  A    between atoms: C_9  and  C_23
    3  A    between atoms: C_15  and  C_23
                            x       y       z     vdW  Elec       q    Type
                         _______ _______ _______ _____ _____    ______ ____

>  <TORSDO>
F 3

$$$$
=
 OpenBabel11052422353D

 31 35  0  0  1  0  0  0  0  0999 V2000
  160.9100  207.8800  154.0180 C   0  0  0  0  0  0  0  0  0  0  0  0
  161.4520  207.8150  150.3030 C   0  0  0  0  0  0  0  0  0  0  0  0
  161.2740  206.3860  149.8800 C   0  0  0  0  0  0  0  0  0  0  0  0
  160.6420  204.0710  150.3050 C   0  0  0  0  0  0  0  0  0  0  0  0
  161.3310  208.2660  151.6470 C   0  0  0  0  0  0  0  0  0  0  0  0
  161.1270  209.2310  154.2890 C   0  0  0  0  0  3  0  0  0  0  0  0
  160.7360  205.4000  150.7230 C   0  0  0  0  0  3  0  0  0  0  0  0
  162.0090  210.1050  149.6590 C   0  0  0  0  0  0  0  0  0  0  0  0
  160.5100  206.7790  155.3190 Cl  0  0  0  0  0  0  0  0  0  0  0  0
  162.1990  206.9680  147.7140 O   0  0  0  0  0  0  0  0  0  0  0  0
  160.1240  203.1350  151.1360 F   0  0  0  0  0  0  0  0  0  0  0  0
  161.8810  210.4990  150.9500 N   0  0  0  0  0  0  0  0  0  0  0  0
  161.8120  208.7580  149.3100 C   0  0  0  0  0  0  0  0  0  0  0  0
  161.0140  207.4030  152.7100 C   0  0  0  0  0  3  0  0  0  0  0  0
  161.0940  203.7060  149.0370 C   0  0  0  0  0  3  0  0  0  0  0  0
  161.5550  209.6340  151.9380 C   0  0  0  0  0  0  0  0  0  0  0  0
  161.4500  210.1060  153.2500 C   0  0  0  0  0  3  0  0  0  0  0  0
  161.8800  208.3490  147.8610 C   0  0  0  0  0  2  0  0  0  0  0  0
  161.6960  206.0090  148.5900 C   0  0  0  0  0  0  0  0  0  0  0  0
  161.6220  204.6740  148.1800 C   0  0  0  0  0  3  0  0  0  0  0  0
  162.3850  211.1280  148.6320 C   0  0  0  0  0  2  0  0  0  0  0  0
  161.1550  213.0820  149.2900 O   0  0  0  0  0  1  0  0  0  0  0  0
  161.2130  212.0560  148.3430 C   0  0  1  0  0  3  0  0  0  0  0  0
  161.6150  212.9470  144.1340 C   0  0  1  0  0  3  0  0  0  0  0  0
  162.5100  212.9710  146.4580 C   0  0  0  0  0  3  0  0  0  0  0  0
  158.9840  212.3670  146.5610 O   0  0  0  0  0  0  0  0  0  0  0  0
  161.7260  213.5320  142.8880 F   0  0  0  0  0  0  0  0  0  0  0  0
  162.6530  213.5480  145.0780 C   0  0  0  0  0  2  0  0  0  0  0  0
  160.1100  212.6920  146.1020 C   0  0  0  0  0  0  0  0  0  0  0  0
  161.3160  212.6220  146.9580 C   0  0  0  0  0  0  0  0  0  0  0  0
  160.2120  213.1840  144.6880 C   0  0  0  0  0  2  0  0  0  0  0  0
  1  6  1  0  0  0  0
  1  9  1  0  0  0  0
  2  5  1  0  0  0  0
  3  2  1  0  0  0  0
  3  7  1  0  0  0  0
  4  7  2  0  0  0  0
  4 11  1  0  0  0  0
  5 16  2  0  0  0  0
  5 14  1  0  0  0  0
  8 12  2  0  0  0  0
 10 18  1  0  0  0  0
 10 19  1  0  0  0  0
 12 16  1  0  0  0  0
 13  8  1  0  0  0  0
 13  2  2  0  0  0  0
 14  1  2  0  0  0  0
 15  4  1  0  0  0  0
 16 17  1  0  0  0  0
 17  6  2  0  0  0  0
 18 13  1  0  0  0  0
 19  3  2  0  0  0  0
 20 19  1  0  0  0  0
 20 15  2  0  0  0  0
 21  8  1  0  0  0  0
 23 21  1  0  0  0  0
 23 22  1  1  0  0  0
 24 27  1  6  0  0  0
 24 31  1  0  0  0  0
 24 28  1  0  0  0  0
 25 30  2  0  0  0  0
 28 25  1  0  0  0  0
 29 26  2  0  0  0  0
 29 30  1  0  0  0  0
 30 23  1  0  0  0  0
 31 29  1  0  0  0  0
M  END
>  <MODEL>
4

>  <REMARK>
 VINA RESULT:      -9.4      4.187      6.471
  Name = 
  3 active torsions:
  status: ('A' for Active; 'I' for Inactive)
    1  A    between atoms: C_9  and  C_22
    2  A    between atoms: C_9  and  C_23
    3  A    between atoms: C_15  and  C_23
                            x       y       z     vdW  Elec       q    Type
                         _______ _______ _______ _____ _____    ______ ____

>  <TORSDO>
F 3

$$$$
=
 OpenBabel11052422353D

 31 35  0  0  1  0  0  0  0  0999 V2000
  161.1800  204.9070  148.6520 C   0  0  0  0  0  0  0  0  0  0  0  0
  161.6100  208.0620  150.6420 C   0  0  0  0  0  0  0  0  0  0  0  0
  161.3830  207.6860  152.0770 C   0  0  0  0  0  0  0  0  0  0  0  0
  161.0450  206.0510  153.8530 C   0  0  0  0  0  0  0  0  0  0  0  0
  161.5350  207.1430  149.5580 C   0  0  0  0  0  0  0  0  0  0  0  0
  161.3840  205.3860  147.3580 C   0  0  0  0  0  3  0  0  0  0  0  0
  161.3130  206.3530  152.5160 C   0  0  0  0  0  3  0  0  0  0  0  0
  162.0630  209.8320  149.0190 C   0  0  0  0  0  0  0  0  0  0  0  0
  160.8310  203.2120  148.9140 Cl  0  0  0  0  0  0  0  0  0  0  0  0
  161.2980  210.0470  152.6290 O   0  0  0  0  0  0  0  0  0  0  0  0
  160.9770  204.7590  154.2540 F   0  0  0  0  0  0  0  0  0  0  0  0
  161.9880  208.9270  148.0120 N   0  0  0  0  0  0  0  0  0  0  0  0
  161.8630  209.4250  150.3490 C   0  0  0  0  0  0  0  0  0  0  0  0
  161.2530  205.7790  149.7400 C   0  0  0  0  0  3  0  0  0  0  0  0
  160.8300  207.0790  154.7710 C   0  0  0  0  0  3  0  0  0  0  0  0
  161.7320  207.6170  148.2380 C   0  0  0  0  0  0  0  0  0  0  0  0
  161.6580  206.7390  147.1520 C   0  0  0  0  0  3  0  0  0  0  0  0
  162.0270  210.4250  151.4640 C   0  0  0  0  0  2  0  0  0  0  0  0
  161.1980  208.7130  153.0220 C   0  0  0  0  0  0  0  0  0  0  0  0
  160.9070  208.4100  154.3550 C   0  0  0  0  0  3  0  0  0  0  0  0
  162.3380  211.2620  148.6760 C   0  0  0  0  0  2  0  0  0  0  0  0
  160.6800  212.9390  149.1280 O   0  0  0  0  0  1  0  0  0  0  0  0
  161.0670  211.9580  148.2100 C   0  0  1  0  0  3  0  0  0  0  0  0
  161.7790  212.9530  144.0660 C   0  0  1  0  0  3  0  0  0  0  0  0
  162.4750  212.9660  146.4570 C   0  0  0  0  0  3  0  0  0  0  0  0
  158.9820  212.2120  146.2530 O   0  0  0  0  0  0  0  0  0  0  0  0
  161.9680  213.5680  142.8440 F   0  0  0  0  0  0  0  0  0  0  0  0
  162.7070  213.5780  145.1050 C   0  0  0  0  0  2  0  0  0  0  0  0
  160.1280  212.5930  145.8960 C   0  0  0  0  0  0  0  0  0  0  0  0
  161.2600  212.5560  146.8490 C   0  0  0  0  0  0  0  0  0  0  0  0
  160.3250  213.1190  144.5030 C   0  0  0  0  0  2  0  0  0  0  0  0
  1  9  1  0  0  0  0
  1 14  1  0  0  0  0
  2  3  1  0  0  0  0
  3  7  2  0  0  0  0
  3 19  1  0  0  0  0
  4 11  1  0  0  0  0
  4 15  2  0  0  0  0
  5 14  2  0  0  0  0
  5  2  1  0  0  0  0
  6  1  2  0  0  0  0
  7  4  1  0  0  0  0
  8 13  1  0  0  0  0
 10 19  1  0  0  0  0
 12 16  1  0  0  0  0
 12  8  2  0  0  0  0
 13  2  2  0  0  0  0
 13 18  1  0  0  0  0
 16  5  1  0  0  0  0
 17  6  1  0  0  0  0
 17 16  2  0  0  0  0
 18 10  1  0  0  0  0
 19 20  2  0  0  0  0
 20 15  1  0  0  0  0
 21  8  1  0  0  0  0
 23 21  1  0  0  0  0
 23 22  1  1  0  0  0
 24 27  1  6  0  0  0
 24 31  1  0  0  0  0
 24 28  1  0  0  0  0
 25 30  2  0  0  0  0
 28 25  1  0  0  0  0
 29 26  2  0  0  0  0
 29 30  1  0  0  0  0
 30 23  1  0  0  0  0
 31 29  1  0  0  0  0
M  END
>  <MODEL>
5

>  <REMARK>
 VINA RESULT:      -9.2      4.118      7.193
  Name = 
  3 active torsions:
  status: ('A' for Active; 'I' for Inactive)
    1  A    between atoms: C_9  and  C_22
    2  A    between atoms: C_9  and  C_23
    3  A    between atoms: C_15  and  C_23
                            x       y       z     vdW  Elec       q    Type
                         _______ _______ _______ _____ _____    ______ ____

>  <TORSDO>
F 3

$$$$
=
 OpenBabel11052422353D

 31 35  0  0  1  0  0  0  0  0999 V2000
  161.8120  210.9930  149.5600 C   0  0  0  0  0  0  0  0  0  0  0  0
  161.3380  208.5080  152.3360 C   0  0  0  0  0  0  0  0  0  0  0  0
  161.0120  209.3100  153.5630 C   0  0  0  0  0  0  0  0  0  0  0  0
  160.4510  211.3940  154.6940 C   0  0  0  0  0  0  0  0  0  0  0  0
  161.5940  209.0810  151.0590 C   0  0  0  0  0  0  0  0  0  0  0  0
  162.1320  210.1420  148.5020 C   0  0  0  0  0  3  0  0  0  0  0  0
  160.6920  210.6770  153.5200 C   0  0  0  0  0  3  0  0  0  0  0  0
  161.7670  206.3100  151.3600 C   0  0  0  0  0  0  0  0  0  0  0  0
  161.7430  212.7230  149.3040 Cl  0  0  0  0  0  0  0  0  0  0  0  0
  161.3400  207.3080  154.8940 O   0  0  0  0  0  0  0  0  0  0  0  0
  160.1480  212.7130  154.6320 F   0  0  0  0  0  0  0  0  0  0  0  0
  162.0010  206.8900  150.1570 N   0  0  0  0  0  0  0  0  0  0  0  0
  161.4450  207.1030  152.4750 C   0  0  0  0  0  0  0  0  0  0  0  0
  161.5480  210.4660  150.8260 C   0  0  0  0  0  3  0  0  0  0  0  0
  160.5370  210.7560  155.9320 C   0  0  0  0  0  3  0  0  0  0  0  0
  161.9260  208.2300  149.9760 C   0  0  0  0  0  0  0  0  0  0  0  0
  162.1900  208.7630  148.7110 C   0  0  0  0  0  3  0  0  0  0  0  0
  161.1120  206.4400  153.7870 C   0  0  0  0  0  2  0  0  0  0  0  0
  161.0630  208.6710  154.8170 C   0  0  0  0  0  0  0  0  0  0  0  0
  160.8430  209.3950  155.9930 C   0  0  0  0  0  3  0  0  0  0  0  0
  161.8840  204.8220  151.4720 C   0  0  0  0  0  2  0  0  0  0  0  0
  159.7130  205.0940  150.4850 O   0  0  0  0  0  1  0  0  0  0  0  0
  160.6250  204.1430  150.9500 C   0  0  1  0  0  3  0  0  0  0  0  0
  160.8340  201.2960  147.7060 C   0  0  1  0  0  3  0  0  0  0  0  0
  160.9910  201.8480  150.1290 C   0  0  0  0  0  3  0  0  0  0  0  0
  161.1370  204.8730  148.2210 O   0  0  0  0  0  0  0  0  0  0  0  0
  161.2080  200.3810  146.7410 F   0  0  0  0  0  0  0  0  0  0  0  0
  161.3340  200.8370  149.0730 C   0  0  0  0  0  2  0  0  0  0  0  0
  161.1600  203.6410  148.4790 C   0  0  0  0  0  0  0  0  0  0  0  0
  160.9640  203.1630  149.8660 C   0  0  0  0  0  0  0  0  0  0  0  0
  161.4240  202.6640  147.3700 C   0  0  0  0  0  2  0  0  0  0  0  0
  1 14  1  0  0  0  0
  2 13  2  0  0  0  0
  2  3  1  0  0  0  0
  3 19  1  0  0  0  0
  4 15  2  0  0  0  0
  5  2  1  0  0  0  0
  6 17  1  0  0  0  0
  6  1  2  0  0  0  0
  7  3  2  0  0  0  0
  7  4  1  0  0  0  0
  8 21  1  0  0  0  0
  8 13  1  0  0  0  0
  9  1  1  0  0  0  0
 11  4  1  0  0  0  0
 12  8  2  0  0  0  0
 13 18  1  0  0  0  0
 14  5  2  0  0  0  0
 15 20  1  0  0  0  0
 16 12  1  0  0  0  0
 16  5  1  0  0  0  0
 17 16  2  0  0  0  0
 18 10  1  0  0  0  0
 19 10  1  0  0  0  0
 19 20  2  0  0  0  0
 23 22  1  6  0  0  0
 23 21  1  0  0  0  0
 24 27  1  6  0  0  0
 24 28  1  0  0  0  0
 26 29  2  0  0  0  0
 28 25  1  0  0  0  0
 29 30  1  0  0  0  0
 30 25  2  0  0  0  0
 30 23  1  0  0  0  0
 31 24  1  0  0  0  0
 31 29  1  0  0  0  0
M  END
>  <MODEL>
6

>  <REMARK>
 VINA RESULT:      -8.9      2.900      8.667
  Name = 
  3 active torsions:
  status: ('A' for Active; 'I' for Inactive)
    1  A    between atoms: C_9  and  C_22
    2  A    between atoms: C_9  and  C_23
    3  A    between atoms: C_15  and  C_23
                            x       y       z     vdW  Elec       q    Type
                         _______ _______ _______ _____ _____    ______ ____

>  <TORSDO>
F 3

$$$$
=
 OpenBabel11052422353D

 31 35  0  0  1  0  0  0  0  0999 V2000
  161.0980  206.7730  146.9930 C   0  0  0  0  0  0  0  0  0  0  0  0
  161.3610  204.7010  150.1130 C   0  0  0  0  0  0  0  0  0  0  0  0
  161.1340  203.2790  149.6910 C   0  0  0  0  0  0  0  0  0  0  0  0
  160.8480  201.5490  147.9980 C   0  0  0  0  0  0  0  0  0  0  0  0
  161.3410  205.8070  149.2190 C   0  0  0  0  0  0  0  0  0  0  0  0
  161.2960  208.0520  147.5140 C   0  0  0  0  0  3  0  0  0  0  0  0
  161.1190  202.8740  148.3460 C   0  0  0  0  0  3  0  0  0  0  0  0
  161.7540  206.2730  151.9420 C   0  0  0  0  0  0  0  0  0  0  0  0
  160.8230  206.5580  145.2780 Cl  0  0  0  0  0  0  0  0  0  0  0  0
  160.9360  202.6700  152.0310 O   0  0  0  0  0  0  0  0  0  0  0  0
  160.8340  201.1800  146.6950 F   0  0  0  0  0  0  0  0  0  0  0  0
  161.7320  207.3030  151.0600 N   0  0  0  0  0  0  0  0  0  0  0  0
  161.5570  204.9560  151.4930 C   0  0  0  0  0  0  0  0  0  0  0  0
  161.1180  205.6630  147.8400 C   0  0  0  0  0  3  0  0  0  0  0  0
  160.5760  200.6080  148.9920 C   0  0  0  0  0  3  0  0  0  0  0  0
  161.5330  207.1130  149.7340 C   0  0  0  0  0  0  0  0  0  0  0  0
  161.5120  208.2210  148.8820 C   0  0  0  0  0  3  0  0  0  0  0  0
  161.6610  203.8150  152.4710 C   0  0  0  0  0  2  0  0  0  0  0  0
  160.8910  202.3110  150.6850 C   0  0  0  0  0  0  0  0  0  0  0  0
  160.5980  200.9900  150.3350 C   0  0  0  0  0  3  0  0  0  0  0  0
  161.9690  206.5770  153.3920 C   0  0  0  0  0  2  0  0  0  0  0  0
  159.9530  206.3850  154.6800 O   0  0  0  0  0  1  0  0  0  0  0  0
  160.7560  207.2870  153.9780 C   0  0  1  0  0  3  0  0  0  0  0  0
  162.7010  210.3930  156.2670 C   0  0  1  0  0  3  0  0  0  0  0  0
  161.5800  208.1740  156.1240 C   0  0  0  0  0  3  0  0  0  0  0  0
  160.9020  210.0290  153.1390 O   0  0  0  0  0  0  0  0  0  0  0  0
  163.0350  211.4230  157.1240 F   0  0  0  0  0  0  0  0  0  0  0  0
  162.0080  209.2790  157.0470 C   0  0  0  0  0  2  0  0  0  0  0  0
  161.2720  209.7890  154.3180 C   0  0  0  0  0  0  0  0  0  0  0  0
  161.1840  208.4170  154.8670 C   0  0  0  0  0  0  0  0  0  0  0  0
  161.7710  210.9170  155.1740 C   0  0  0  0  0  2  0  0  0  0  0  0
  1  6  2  0  0  0  0
  1 14  1  0  0  0  0
  2 13  2  0  0  0  0
  3  2  1  0  0  0  0
  3 19  1  0  0  0  0
  4  7  1  0  0  0  0
  4 15  2  0  0  0  0
  5 16  1  0  0  0  0
  5  2  1  0  0  0  0
  6 17  1  0  0  0  0
  7  3  2  0  0  0  0
  8 21  1  0  0  0  0
  9  1  1  0  0  0  0
 10 18  1  0  0  0  0
 11  4  1  0  0  0  0
 12  8  2  0  0  0  0
 13  8  1  0  0  0  0
 13 18  1  0  0  0  0
 14  5  2  0  0  0  0
 15 20  1  0  0  0  0
 16 12  1  0  0  0  0
 17 16  2  0  0  0  0
 19 10  1  0  0  0  0
 20 19  2  0  0  0  0
 21 23  1  0  0  0  0
 23 22  1  1  0  0  0
 23 30  1  0  0  0  0
 24 28  1  0  0  0  0
 24 27  1  1  0  0  0
 25 28  1  0  0  0  0
 26 29  2  0  0  0  0
 29 30  1  0  0  0  0
 29 31  1  0  0  0  0
 30 25  2  0  0  0  0
 31 24  1  0  0  0  0
M  END
>  <MODEL>
7

>  <REMARK>
 VINA RESULT:      -8.8      2.547      4.303
  Name = 
  3 active torsions:
  status: ('A' for Active; 'I' for Inactive)
    1  A    between atoms: C_9  and  C_22
    2  A    between atoms: C_9  and  C_23
    3  A    between atoms: C_15  and  C_23
                            x       y       z     vdW  Elec       q    Type
                         _______ _______ _______ _____ _____    ______ ____

>  <TORSDO>
F 3

$$$$
=
 OpenBabel11052422353D

 31 35  0  0  1  0  0  0  0  0999 V2000
  161.1550  206.5780  146.7320 C   0  0  0  0  0  0  0  0  0  0  0  0
  161.3600  204.7320  149.9950 C   0  0  0  0  0  0  0  0  0  0  0  0
  161.1210  203.2850  149.6730 C   0  0  0  0  0  0  0  0  0  0  0  0
  160.8310  201.4420  148.1050 C   0  0  0  0  0  0  0  0  0  0  0  0
  161.3620  205.7720  149.0250 C   0  0  0  0  0  0  0  0  0  0  0  0
  161.3620  207.8890  147.1630 C   0  0  0  0  0  3  0  0  0  0  0  0
  161.1150  202.7860  148.3600 C   0  0  0  0  0  3  0  0  0  0  0  0
  161.7530  206.4270  151.7110 C   0  0  0  0  0  0  0  0  0  0  0  0
  160.8940  206.2440  145.0340 Cl  0  0  0  0  0  0  0  0  0  0  0  0
  160.8910  202.8480  152.0480 O   0  0  0  0  0  0  0  0  0  0  0  0
  160.8260  200.9810  146.8320 F   0  0  0  0  0  0  0  0  0  0  0  0
  161.7520  207.3910  150.7580 N   0  0  0  0  0  0  0  0  0  0  0  0
  161.5440  205.0830  151.3550 C   0  0  0  0  0  0  0  0  0  0  0  0
  161.1520  205.5310  147.6560 C   0  0  0  0  0  3  0  0  0  0  0  0
  160.5380  200.5780  149.1610 C   0  0  0  0  0  3  0  0  0  0  0  0
  161.5650  207.1080  149.4470 C   0  0  0  0  0  0  0  0  0  0  0  0
  161.5660  208.1530  148.5180 C   0  0  0  0  0  3  0  0  0  0  0  0
  161.6250  204.0130  152.4140 C   0  0  0  0  0  2  0  0  0  0  0  0
  160.8560  202.3940  150.7310 C   0  0  0  0  0  0  0  0  0  0  0  0
  160.5500  201.0550  150.4730 C   0  0  0  0  0  3  0  0  0  0  0  0
  161.9560  206.8310  153.1380 C   0  0  0  0  0  2  0  0  0  0  0  0
  160.3060  206.5830  154.8630 O   0  0  0  0  0  1  0  0  0  0  0  0
  160.6560  207.3410  153.7430 C   0  0  1  0  0  3  0  0  0  0  0  0
  160.2980  211.4260  155.1060 C   0  0  1  0  0  3  0  0  0  0  0  0
  160.2990  209.7350  153.2780 C   0  0  0  0  0  3  0  0  0  0  0  0
  161.7710  208.3000  156.2080 O   0  0  0  0  0  0  0  0  0  0  0  0
  160.4560  212.7690  155.3870 F   0  0  0  0  0  0  0  0  0  0  0  0
  160.4060  211.1980  153.6010 C   0  0  0  0  0  2  0  0  0  0  0  0
  161.3210  209.1770  155.4250 C   0  0  0  0  0  0  0  0  0  0  0  0
  160.7750  208.7920  154.1040 C   0  0  0  0  0  0  0  0  0  0  0  0
  161.3750  210.6210  155.8310 C   0  0  0  0  0  2  0  0  0  0  0  0
  1  6  2  0  0  0  0
  1 14  1  0  0  0  0
  2 13  2  0  0  0  0
  3  2  1  0  0  0  0
  3 19  1  0  0  0  0
  4  7  1  0  0  0  0
  4 15  2  0  0  0  0
  5 16  1  0  0  0  0
  5  2  1  0  0  0  0
  6 17  1  0  0  0  0
  7  3  2  0  0  0  0
  8 21  1  0  0  0  0
  9  1  1  0  0  0  0
 10 18  1  0  0  0  0
 11  4  1  0  0  0  0
 12  8  2  0  0  0  0
 13  8  1  0  0  0  0
 13 18  1  0  0  0  0
 14  5  2  0  0  0  0
 15 20  1  0  0  0  0
 16 12  1  0  0  0  0
 17 16  2  0  0  0  0
 19 10  1  0  0  0  0
 20 19  2  0  0  0  0
 21 23  1  0  0  0  0
 23 30  1  0  0  0  0
 23 22  1  1  0  0  0
 24 27  1  6  0  0  0
 24 31  1  0  0  0  0
 25 28  1  0  0  0  0
 25 30  2  0  0  0  0
 28 24  1  0  0  0  0
 29 31  1  0  0  0  0
 29 26  2  0  0  0  0
 30 29  1  0  0  0  0
M  END
>  <MODEL>
8

>  <REMARK>
 VINA RESULT:      -8.5      2.493      4.047
  Name = 
  3 active torsions:
  status: ('A' for Active; 'I' for Inactive)
    1  A    between atoms: C_9  and  C_22
    2  A    between atoms: C_9  and  C_23
    3  A    between atoms: C_15  and  C_23
                            x       y       z     vdW  Elec       q    Type
                         _______ _______ _______ _____ _____    ______ ____

>  <TORSDO>
F 3

$$$$
=
 OpenBabel11052422353D

 31 35  0  0  1  0  0  0  0  0999 V2000
  160.7490  202.0930  150.6670 C   0  0  0  0  0  0  0  0  0  0  0  0
  161.6120  205.4150  149.1460 C   0  0  0  0  0  0  0  0  0  0  0  0
  161.6230  205.2050  147.6600 C   0  0  0  0  0  0  0  0  0  0  0  0
  161.2040  203.8680  145.6660 C   0  0  0  0  0  0  0  0  0  0  0  0
  161.3300  204.3900  150.0910 C   0  0  0  0  0  0  0  0  0  0  0  0
  160.7990  202.4080  152.0250 C   0  0  0  0  0  3  0  0  0  0  0  0
  161.1220  204.0440  147.0490 C   0  0  0  0  0  3  0  0  0  0  0  0
  161.9780  206.9440  151.0170 C   0  0  0  0  0  0  0  0  0  0  0  0
  160.3570  200.4640  150.1590 Cl  0  0  0  0  0  0  0  0  0  0  0  0
  162.6640  207.3820  147.4120 O   0  0  0  0  0  0  0  0  0  0  0  0
  160.7190  202.7380  145.0970 F   0  0  0  0  0  0  0  0  0  0  0  0
  161.6990  205.9430  151.8890 N   0  0  0  0  0  0  0  0  0  0  0  0
  161.9550  206.7000  149.6330 C   0  0  0  0  0  0  0  0  0  0  0  0
  161.0150  203.0750  149.7110 C   0  0  0  0  0  3  0  0  0  0  0  0
  161.8000  204.8490  144.8720 C   0  0  0  0  0  3  0  0  0  0  0  0
  161.3820  204.6940  151.4740 C   0  0  0  0  0  0  0  0  0  0  0  0
  161.1160  203.7060  152.4270 C   0  0  0  0  0  3  0  0  0  0  0  0
  162.1910  207.8400  148.6750 C   0  0  0  0  0  2  0  0  0  0  0  0
  162.1920  206.2010  146.8430 C   0  0  0  0  0  0  0  0  0  0  0  0
  162.2940  206.0140  145.4610 C   0  0  0  0  0  3  0  0  0  0  0  0
  162.3310  208.2920  151.5640 C   0  0  0  0  0  2  0  0  0  0  0  0
  159.9310  208.3400  151.5890 O   0  0  0  0  0  1  0  0  0  0  0  0
  161.0740  209.0890  151.8830 C   0  0  1  0  0  3  0  0  0  0  0  0
  161.8100  210.4840  155.9060 C   0  0  1  0  0  3  0  0  0  0  0  0
  161.3820  208.6410  154.2860 C   0  0  0  0  0  3  0  0  0  0  0  0
  160.5280  211.7660  152.7650 O   0  0  0  0  0  0  0  0  0  0  0  0
  161.7470  210.8370  157.2400 F   0  0  0  0  0  0  0  0  0  0  0  0
  161.3810  209.0290  155.7380 C   0  0  0  0  0  2  0  0  0  0  0  0
  160.8240  210.9350  153.6630 C   0  0  0  0  0  0  0  0  0  0  0  0
  161.0690  209.5160  153.3210 C   0  0  0  0  0  0  0  0  0  0  0  0
  160.8910  211.3930  155.0920 C   0  0  0  0  0  2  0  0  0  0  0  0
  1  6  1  0  0  0  0
  2 13  2  0  0  0  0
  2  5  1  0  0  0  0
  3  2  1  0  0  0  0
  4  7  2  0  0  0  0
  5 16  2  0  0  0  0
  6 17  2  0  0  0  0
  7  3  1  0  0  0  0
  8 21  1  0  0  0  0
  8 12  2  0  0  0  0
  9  1  1  0  0  0  0
 10 18  1  0  0  0  0
 11  4  1  0  0  0  0
 13  8  1  0  0  0  0
 14  5  1  0  0  0  0
 14  1  2  0  0  0  0
 15 20  2  0  0  0  0
 15  4  1  0  0  0  0
 16 12  1  0  0  0  0
 16 17  1  0  0  0  0
 18 13  1  0  0  0  0
 19 10  1  0  0  0  0
 19  3  2  0  0  0  0
 20 19  1  0  0  0  0
 21 23  1  0  0  0  0
 23 22  1  1  0  0  0
 23 30  1  0  0  0  0
 24 27  1  1  0  0  0
 25 28  1  0  0  0  0
 26 29  2  0  0  0  0
 28 24  1  0  0  0  0
 29 31  1  0  0  0  0
 30 29  1  0  0  0  0
 30 25  2  0  0  0  0
 31 24  1  0  0  0  0
M  END
>  <MODEL>
9

>  <REMARK>
 VINA RESULT:      -8.1      1.309      1.734
  Name = 
  3 active torsions:
  status: ('A' for Active; 'I' for Inactive)
    1  A    between atoms: C_9  and  C_22
    2  A    between atoms: C_9  and  C_23
    3  A    between atoms: C_15  and  C_23
                            x       y       z     vdW  Elec       q    Type
                         _______ _______ _______ _____ _____    ______ ____

>  <TORSDO>
F 3

$$$$
