=
 OpenBabel11052421463D

 30 31  0  0  1  0  0  0  0  0999 V2000
  161.1500  208.6010  154.0690 O   0  0  0  0  0  0  0  0  0  0  0  0
  159.7610  207.9480  156.0160 C   0  0  2  0  0  3  0  0  0  0  0  0
  161.4110  211.5950  153.7360 C   0  0  0  0  0  2  0  0  0  0  0  0
  160.8230  208.0530  152.8260 C   0  0  0  0  0  2  0  0  0  0  0  0
  160.9020  210.6810  151.4100 C   0  0  0  0  0  2  0  0  0  0  0  0
  158.8130  212.6260  151.1220 N   0  0  0  0  0  2  0  0  0  0  0  0
  162.1720  209.8610  151.6490 C   0  0  0  0  0  2  0  0  0  0  0  0
  161.9000  208.3600  151.7930 C   0  0  2  0  0  3  0  0  0  0  0  0
  160.6200  211.6200  152.5020 N   0  0  0  0  0  0  0  0  0  0  0  0
  159.6990  208.8300  157.2600 C   0  0  0  0  0  2  0  0  0  0  0  0
  161.0240  206.6530  156.2250 S   0  0  0  0  0  1  0  0  0  0  0  0
  157.6950  211.7720  155.7880 C   0  0  0  0  0  1  0  0  0  0  0  0
  158.5740  209.8720  157.1850 C   0  0  0  0  0  2  0  0  0  0  0  0
  159.9140  208.7590  154.7060 C   0  0  1  0  0  3  0  0  0  0  0  0
  160.5540  211.3120  154.9770 C   0  0  1  0  0  3  0  0  0  0  0  0
  159.4520  213.5340  153.1730 O   0  0  0  0  0  0  0  0  0  0  0  0
  158.2760  210.3690  155.7640 C   0  0  2  0  0  3  0  0  0  0  0  0
  159.4590  210.2310  154.7940 C   0  0  2  0  0  3  0  0  0  0  0  0
  159.6220  212.6350  152.3040 C   0  0  0  0  0  0  0  0  0  0  0  0
  157.8000  213.6350  150.8520 C   0  0  0  0  0  2  0  0  0  0  0  0
  157.1900  213.4070  149.4820 C   0  0  0  0  0  1  0  0  0  0  0  0
  161.5140  207.7440  150.4590 C   0  0  0  0  0  2  0  0  0  0  0  0
  162.1900  207.3420  148.3990 C   0  0  0  0  0  1  0  0  0  0  0  0
  162.3220  208.2550  149.4440 O   0  0  0  0  0  0  0  0  0  0  0  0
  161.3650  211.2330  156.2780 C   0  0  1  0  0  3  0  0  0  0  0  0
  162.9160  209.5100  157.2610 C   0  0  0  0  0  1  0  0  0  0  0  0
  162.7040  210.4950  156.1270 C   0  0  2  0  0  3  0  0  0  0  0  0
  163.7770  211.3870  156.0720 O   0  0  0  0  0  1  0  0  0  0  0  0
  161.5140  212.6190  156.8940 C   0  0  0  0  0  2  0  0  0  0  0  0
  159.9870  213.5710  156.6620 S   0  0  0  0  0  1  0  0  0  0  0  0
  2 11  1  1  0  0  0
  2 10  1  0  0  0  0
  3 15  1  0  0  0  0
  4  1  1  0  0  0  0
  5  7  1  0  0  0  0
  5  9  1  0  0  0  0
  6 19  1  0  0  0  0
  7  8  1  0  0  0  0
  8 22  1  6  0  0  0
  8  4  1  0  0  0  0
  9  3  1  0  0  0  0
 13 10  1  0  0  0  0
 14  1  1  1  0  0  0
 14 18  1  0  0  0  0
 14  2  1  0  0  0  0
 15 25  1  1  0  0  0
 17 12  1  1  0  0  0
 17 13  1  0  0  0  0
 18 15  1  0  0  0  0
 18 17  1  0  0  0  0
 19  9  1  0  0  0  0
 19 16  2  0  0  0  0
 20  6  1  0  0  0  0
 21 20  1  0  0  0  0
 23 24  1  0  0  0  0
 24 22  1  0  0  0  0
 25 29  1  0  0  0  0
 27 25  1  0  0  0  0
 27 26  1  0  0  0  0
 28 27  1  0  0  0  0
 30 29  1  0  0  0  0
M  END
>  <MODEL>
1

>  <REMARK>
 VINA RESULT:      -1.5      0.000      0.000
  Name = 
  6 active torsions:
  status: ('A' for Active; 'I' for Inactive)
    1  A    between atoms: N_7  and  C_16
    2  A    between atoms: C_9  and  C_12
    3  A    between atoms: C_9  and  O_21
    4  A    between atoms: C_10  and  C_25
    5  A    between atoms: C_11  and  C_25
    6  A    between atoms: C_23  and  C_25
                            x       y       z     vdW  Elec       q    Type
                         _______ _______ _______ _____ _____    ______ ____

>  <TORSDO>
F 6

$$$$
=
 OpenBabel11052421463D

 30 31  0  0  1  0  0  0  0  0999 V2000
  159.6220  209.8940  139.3900 O   0  0  0  0  0  0  0  0  0  0  0  0
  157.5840  210.5690  138.1500 C   0  0  2  0  0  3  0  0  0  0  0  0
  161.1770  212.2350  140.5020 C   0  0  0  0  0  2  0  0  0  0  0  0
  160.5220  209.0430  138.7430 C   0  0  0  0  0  2  0  0  0  0  0  0
  162.9080  210.7050  139.4230 C   0  0  0  0  0  2  0  0  0  0  0  0
  163.9890  212.9530  138.0070 N   0  0  0  0  0  2  0  0  0  0  0  0
  162.3440  209.6720  140.4030 C   0  0  0  0  0  2  0  0  0  0  0  0
  161.5860  208.5370  139.7090 C   0  0  2  0  0  3  0  0  0  0  0  0
  162.3100  212.0340  139.5940 N   0  0  0  0  0  0  0  0  0  0  0  0
  156.8240  211.8360  138.5320 C   0  0  0  0  0  2  0  0  0  0  0  0
  156.8490  209.1210  138.9750 S   0  0  0  0  0  1  0  0  0  0  0  0
  159.3970  214.4410  137.3370 C   0  0  0  0  0  1  0  0  0  0  0  0
  157.3300  213.0740  137.7790 C   0  0  0  0  0  2  0  0  0  0  0  0
  159.1130  210.6940  138.3610 C   0  0  1  0  0  3  0  0  0  0  0  0
  159.9340  212.7710  139.7800 C   0  0  1  0  0  3  0  0  0  0  0  0
  162.5050  214.3280  139.1690 O   0  0  0  0  0  0  0  0  0  0  0  0
  158.8300  213.0370  137.4540 C   0  0  2  0  0  3  0  0  0  0  0  0
  159.6500  212.1400  138.3930 C   0  0  2  0  0  3  0  0  0  0  0  0
  162.9170  213.1580  138.9350 C   0  0  0  0  0  0  0  0  0  0  0  0
  164.6590  214.0480  137.3220 C   0  0  0  0  0  2  0  0  0  0  0  0
  165.9310  214.4220  138.0590 C   0  0  0  0  0  1  0  0  0  0  0  0
  162.5400  207.6120  138.9730 C   0  0  0  0  0  2  0  0  0  0  0  0
  162.1740  206.3700  140.7580 C   0  0  0  0  0  1  0  0  0  0  0  0
  163.1800  206.7660  139.8790 O   0  0  0  0  0  0  0  0  0  0  0  0
  158.7170  212.9470  140.6990 C   0  0  1  0  0  3  0  0  0  0  0  0
  159.1270  213.5580  143.1070 C   0  0  0  0  0  1  0  0  0  0  0  0
  158.9390  212.4190  142.1250 C   0  0  2  0  0  3  0  0  0  0  0  0
  160.0380  211.5580  142.1860 O   0  0  0  0  0  1  0  0  0  0  0  0
  158.2330  214.3910  140.6670 C   0  0  0  0  0  2  0  0  0  0  0  0
  156.4380  214.4510  140.9230 S   0  0  0  0  0  1  0  0  0  0  0  0
  2 14  1  0  0  0  0
  2 10  1  0  0  0  0
  2 11  1  1  0  0  0
  4  1  1  0  0  0  0
  4  8  1  0  0  0  0
  5  9  1  0  0  0  0
  5  7  1  0  0  0  0
  6 19  1  0  0  0  0
  8 22  1  6  0  0  0
  8  7  1  0  0  0  0
  9  3  1  0  0  0  0
 13 10  1  0  0  0  0
 14 18  1  0  0  0  0
 14  1  1  1  0  0  0
 15  3  1  0  0  0  0
 15 25  1  1  0  0  0
 17 12  1  1  0  0  0
 17 13  1  0  0  0  0
 17 18  1  0  0  0  0
 18 15  1  0  0  0  0
 19 16  2  0  0  0  0
 19  9  1  0  0  0  0
 20  6  1  0  0  0  0
 20 21  1  0  0  0  0
 22 24  1  0  0  0  0
 24 23  1  0  0  0  0
 25 27  1  0  0  0  0
 27 28  1  0  0  0  0
 27 26  1  0  0  0  0
 29 25  1  0  0  0  0
 29 30  1  0  0  0  0
M  END
>  <MODEL>
2

>  <REMARK>
 VINA RESULT:      -1.4     12.319     15.085
  Name = 
  6 active torsions:
  status: ('A' for Active; 'I' for Inactive)
    1  A    between atoms: N_7  and  C_16
    2  A    between atoms: C_9  and  C_12
    3  A    between atoms: C_9  and  O_21
    4  A    between atoms: C_10  and  C_25
    5  A    between atoms: C_11  and  C_25
    6  A    between atoms: C_23  and  C_25
                            x       y       z     vdW  Elec       q    Type
                         _______ _______ _______ _____ _____    ______ ____

>  <TORSDO>
F 6

$$$$
