=
 OpenBabel11052423103D

 27 30  0  0  1  0  0  0  0  0999 V2000
  161.8390  204.9140  149.1670 C   0  0  2  0  0  3  0  0  0  0  0  0
  161.5310  205.4410  150.5400 C   0  0  0  0  0  0  0  0  0  0  0  0
  161.3210  207.2310  154.2760 C   0  0  0  0  0  3  0  0  0  0  0  0
  161.6310  209.2270  155.5090 O   0  0  0  0  0  1  0  0  0  0  0  0
  161.6110  204.6680  151.6300 C   0  0  0  0  0  3  0  0  0  0  0  0
  160.6990  208.8110  151.9620 C   0  0  0  0  0  2  0  0  0  0  0  0
  160.8180  209.3710  153.1720 C   0  0  0  0  0  3  0  0  0  0  0  0
  161.2400  206.8430  150.6780 N   0  0  0  0  0  0  0  0  0  0  0  0
  161.2380  208.5700  154.3480 C   0  0  0  0  0  0  0  0  0  0  0  0
  160.8030  206.5200  153.0590 C   0  0  0  0  0  0  0  0  0  0  0  0
  160.9320  207.3680  151.8240 C   0  0  0  0  0  0  0  0  0  0  0  0
  161.3440  205.2020  152.8990 O   0  0  0  0  0  0  0  0  0  0  0  0
  161.8090  205.9270  147.9880 C   0  0  2  0  0  0  0  0  0  0  0  0
  163.6660  204.9470  146.7430 O   0  0  0  0  0  1  0  0  0  0  0  0
  162.2650  205.1380  144.3180 O   0  0  0  0  0  1  0  0  0  0  0  0
  160.3720  206.1810  145.3330 C   0  0  0  0  0  2  0  0  0  0  0  0
  162.7540  207.0920  148.2730 C   0  0  0  0  0  1  0  0  0  0  0  0
  161.8830  205.9060  145.4150 C   0  0  1  0  0  3  0  0  0  0  0  0
  159.6330  205.9090  146.6440 C   0  0  0  0  0  2  0  0  0  0  0  0
  160.3940  206.5280  147.8200 C   0  0  0  0  0  2  0  0  0  0  0  0
  162.2850  205.1860  146.7100 C   0  0  2  0  0  3  0  0  0  0  0  0
  160.1390  201.0700  148.4250 N   0  0  0  0  0  0  0  0  0  0  0  0
  161.2400  203.5600  148.8880 C   0  0  0  0  0  0  0  0  0  0  0  0
  160.4890  202.9270  149.8830 C   0  0  0  0  0  3  0  0  0  0  0  0
  159.9440  201.6670  149.6350 C   0  0  0  0  0  3  0  0  0  0  0  0
  160.8590  201.6660  147.4410 C   0  0  0  0  0  3  0  0  0  0  0  0
  161.4260  202.9230  147.6550 C   0  0  0  0  0  3  0  0  0  0  0  0
  1 23  1  6  0  0  0
  1  2  1  0  0  0  0
  2  8  1  0  0  0  0
  2  5  2  0  0  0  0
  3  9  1  0  0  0  0
  5 12  1  0  0  0  0
  6  7  1  0  0  0  0
  7  9  2  0  0  0  0
  8 11  2  0  0  0  0
  9  4  1  0  0  0  0
 10  3  2  0  0  0  0
 11  6  1  0  0  0  0
 11 10  1  0  0  0  0
 12 10  1  0  0  0  0
 13 17  1  1  0  0  0
 13  1  1  0  0  0  0
 16 18  1  0  0  0  0
 16 19  1  0  0  0  0
 18 15  1  6  0  0  0
 18 21  1  0  0  0  0
 19 20  1  0  0  0  0
 20 13  1  0  0  0  0
 21 14  1  1  0  0  0
 21 13  1  0  0  0  0
 22 25  1  0  0  0  0
 23 24  1  0  0  0  0
 25 24  2  0  0  0  0
 26 27  1  0  0  0  0
 26 22  2  0  0  0  0
 27 23  2  0  0  0  0
M  END
>  <MODEL>
1

>  <REMARK>
 VINA RESULT:      -7.9      0.000      0.000
  Name = 
  3 active torsions:
  status: ('A' for Active; 'I' for Inactive)
    1  A    between atoms: C_1  and  C_15
    2  A    between atoms: C_2  and  C_15
    3  A    between atoms: C_9  and  C_15
                            x       y       z     vdW  Elec       q    Type
                         _______ _______ _______ _____ _____    ______ ____

>  <TORSDO>
F 3

$$$$
=
 OpenBabel11052423103D

 27 30  0  0  1  0  0  0  0  0999 V2000
  160.9510  205.3780  148.7680 C   0  0  2  0  0  3  0  0  0  0  0  0
  161.3460  206.5610  149.6060 C   0  0  0  0  0  0  0  0  0  0  0  0
  161.7230  209.9670  151.9430 C   0  0  0  0  0  3  0  0  0  0  0  0
  160.8910  211.1610  153.8100 O   0  0  0  0  0  1  0  0  0  0  0  0
  161.9190  207.6470  149.0740 C   0  0  0  0  0  3  0  0  0  0  0  0
  160.9160  207.5200  153.2070 C   0  0  0  0  0  3  0  0  0  0  0  0
  160.8890  208.6840  153.8680 C   0  0  0  0  0  3  0  0  0  0  0  0
  160.9980  206.5480  151.0020 N   0  0  0  0  0  0  0  0  0  0  0  0
  161.2090  209.9610  153.1850 C   0  0  0  0  0  0  0  0  0  0  0  0
  162.1570  208.6760  151.3130 C   0  0  1  0  0  3  0  0  0  0  0  0
  161.3320  207.5160  151.8000 C   0  0  0  0  0  0  0  0  0  0  0  0
  162.2470  208.7450  149.8830 O   0  0  0  0  0  0  0  0  0  0  0  0
  161.3160  203.9660  149.3050 C   0  0  2  0  0  0  0  0  0  0  0  0
  159.4430  203.7770  150.8600 O   0  0  0  0  0  1  0  0  0  0  0  0
  158.9150  201.1410  150.0510 O   0  0  0  0  0  1  0  0  0  0  0  0
  160.7510  201.0940  148.5250 C   0  0  0  0  0  2  0  0  0  0  0  0
  162.1970  204.0880  150.5470 C   0  0  0  0  0  1  0  0  0  0  0  0
  160.1550  201.7220  149.7960 C   0  0  1  0  0  3  0  0  0  0  0  0
  161.2820  202.1260  147.5300 C   0  0  0  0  0  2  0  0  0  0  0  0
  162.1300  203.1750  148.2550 C   0  0  0  0  0  2  0  0  0  0  0  0
  159.9960  203.2450  149.6860 C   0  0  2  0  0  3  0  0  0  0  0  0
  161.4540  205.9750  144.5710 N   0  0  0  0  0  0  0  0  0  0  0  0
  161.1460  205.5910  147.2890 C   0  0  0  0  0  0  0  0  0  0  0  0
  160.0500  205.9560  146.5010 C   0  0  0  0  0  3  0  0  0  0  0  0
  160.2210  206.1410  145.1290 C   0  0  0  0  0  3  0  0  0  0  0  0
  162.5350  205.6280  145.3150 C   0  0  0  0  0  3  0  0  0  0  0  0
  162.4000  205.4260  146.6900 C   0  0  0  0  0  3  0  0  0  0  0  0
  1 23  1  6  0  0  0
  1 13  1  0  0  0  0
  1  2  1  0  0  0  0
  2  8  1  0  0  0  0
  3  9  2  0  0  0  0
  5  2  2  0  0  0  0
  5 12  1  0  0  0  0
  6  7  2  0  0  0  0
  8 11  2  0  0  0  0
  9  4  1  0  0  0  0
  9  7  1  0  0  0  0
 10 11  1  0  0  0  0
 10  3  1  6  0  0  0
 11  6  1  0  0  0  0
 12 10  1  0  0  0  0
 13 21  1  0  0  0  0
 13 17  1  1  0  0  0
 16 18  1  0  0  0  0
 18 15  1  6  0  0  0
 19 20  1  0  0  0  0
 19 16  1  0  0  0  0
 20 13  1  0  0  0  0
 21 18  1  0  0  0  0
 21 14  1  1  0  0  0
 22 25  2  0  0  0  0
 22 26  1  0  0  0  0
 24 23  2  0  0  0  0
 25 24  1  0  0  0  0
 26 27  2  0  0  0  0
 27 23  1  0  0  0  0
M  END
>  <MODEL>
2

>  <REMARK>
 VINA RESULT:      -7.3      2.300      4.134
  Name = 
  3 active torsions:
  status: ('A' for Active; 'I' for Inactive)
    1  A    between atoms: C_1  and  C_15
    2  A    between atoms: C_2  and  C_15
    3  A    between atoms: C_9  and  C_15
                            x       y       z     vdW  Elec       q    Type
                         _______ _______ _______ _____ _____    ______ ____

>  <TORSDO>
F 3

$$$$
=
 OpenBabel11052423103D

 27 30  0  0  1  0  0  0  0  0999 V2000
  160.1150  211.3020  154.0260 C   0  0  2  0  0  3  0  0  0  0  0  0
  160.5710  209.9030  153.7210 C   0  0  0  0  0  0  0  0  0  0  0  0
  161.1480  205.9370  152.6540 C   0  0  0  0  0  3  0  0  0  0  0  0
  160.7740  204.2800  151.0070 O   0  0  0  0  0  1  0  0  0  0  0  0
  160.7820  209.0010  154.6870 C   0  0  0  0  0  3  0  0  0  0  0  0
  161.1500  207.9270  150.5860 C   0  0  0  0  0  2  0  0  0  0  0  0
  161.1580  206.6210  150.2920 C   0  0  0  0  0  3  0  0  0  0  0  0
  160.6830  209.5130  152.3410 N   0  0  0  0  0  0  0  0  0  0  0  0
  161.0550  205.5950  151.3580 C   0  0  0  0  0  0  0  0  0  0  0  0
  161.5510  207.3340  153.0260 C   0  0  0  0  0  0  0  0  0  0  0  0
  161.1020  208.3340  151.9950 C   0  0  0  0  0  0  0  0  0  0  0  0
  161.1790  207.6950  154.3630 O   0  0  0  0  0  0  0  0  0  0  0  0
  159.3860  211.5390  155.3780 C   0  0  2  0  0  0  0  0  0  0  0  0
  159.7920  213.9440  155.4870 O   0  0  0  0  0  1  0  0  0  0  0  0
  157.1410  214.4530  156.2560 O   0  0  0  0  0  1  0  0  0  0  0  0
  156.5590  212.1370  156.2860 C   0  0  0  0  0  2  0  0  0  0  0  0
  160.3760  211.4270  156.5350 C   0  0  0  0  0  1  0  0  0  0  0  0
  157.6840  213.1790  156.4000 C   0  0  1  0  0  3  0  0  0  0  0  0
  156.8900  210.9860  155.3360 C   0  0  0  0  0  2  0  0  0  0  0  0
  158.3010  210.4610  155.6110 C   0  0  0  0  0  2  0  0  0  0  0  0
  158.7900  212.9720  155.3550 C   0  0  2  0  0  3  0  0  0  0  0  0
  158.5430  213.3840  150.6470 N   0  0  0  0  0  0  0  0  0  0  0  0
  159.5460  212.0280  152.8340 C   0  0  0  0  0  0  0  0  0  0  0  0
  160.4110  212.6980  151.9650 C   0  0  0  0  0  3  0  0  0  0  0  0
  159.8880  213.3840  150.8680 C   0  0  0  0  0  3  0  0  0  0  0  0
  157.6820  212.7360  151.4730 C   0  0  0  0  0  3  0  0  0  0  0  0
  158.1680  212.0460  152.5850 C   0  0  0  0  0  3  0  0  0  0  0  0
  1 23  1  6  0  0  0
  1 13  1  0  0  0  0
  2  1  1  0  0  0  0
  2  5  2  0  0  0  0
  3 10  2  0  0  0  0
  4  9  1  0  0  0  0
  6 11  1  0  0  0  0
  7  6  1  0  0  0  0
  7  9  2  0  0  0  0
  8  2  1  0  0  0  0
  9  3  1  0  0  0  0
 10 12  1  0  0  0  0
 11  8  2  0  0  0  0
 11 10  1  0  0  0  0
 12  5  1  0  0  0  0
 13 20  1  0  0  0  0
 13 17  1  1  0  0  0
 16 18  1  0  0  0  0
 18 15  1  6  0  0  0
 19 20  1  0  0  0  0
 19 16  1  0  0  0  0
 21 13  1  0  0  0  0
 21 14  1  1  0  0  0
 21 18  1  0  0  0  0
 22 25  2  0  0  0  0
 22 26  1  0  0  0  0
 24 23  2  0  0  0  0
 25 24  1  0  0  0  0
 26 27  2  0  0  0  0
 27 23  1  0  0  0  0
M  END
>  <MODEL>
3

>  <REMARK>
 VINA RESULT:      -6.4      3.806      9.230
  Name = 
  3 active torsions:
  status: ('A' for Active; 'I' for Inactive)
    1  A    between atoms: C_1  and  C_15
    2  A    between atoms: C_2  and  C_15
    3  A    between atoms: C_9  and  C_15
                            x       y       z     vdW  Elec       q    Type
                         _______ _______ _______ _____ _____    ______ ____

>  <TORSDO>
F 3

$$$$
=
 OpenBabel11052423103D

 27 30  0  0  1  0  0  0  0  0999 V2000
  161.1860  206.8670  150.3540 C   0  0  2  0  0  3  0  0  0  0  0  0
  161.2010  205.5330  149.6610 C   0  0  0  0  0  0  0  0  0  0  0  0
  160.6420  202.0910  147.4160 C   0  0  0  0  0  3  0  0  0  0  0  0
  160.1470  201.2100  145.2760 O   0  0  0  0  0  1  0  0  0  0  0  0
  160.8460  204.4050  150.2890 C   0  0  0  0  0  3  0  0  0  0  0  0
  161.8320  204.3750  146.1490 C   0  0  0  0  0  2  0  0  0  0  0  0
  161.4680  203.3000  145.4400 C   0  0  0  0  0  3  0  0  0  0  0  0
  161.5120  205.5020  148.2570 N   0  0  0  0  0  0  0  0  0  0  0  0
  160.7620  202.1630  146.0790 C   0  0  0  0  0  0  0  0  0  0  0  0
  161.3900  203.0620  148.2820 C   0  0  0  0  0  0  0  0  0  0  0  0
  161.5760  204.3870  147.5950 C   0  0  0  0  0  0  0  0  0  0  0  0
  160.8430  203.1820  149.6020 O   0  0  0  0  0  0  0  0  0  0  0  0
  162.1480  207.9630  149.8150 C   0  0  2  0  0  0  0  0  0  0  0  0
  161.1450  208.1360  147.5960 O   0  0  0  0  0  1  0  0  0  0  0  0
  161.2120  210.9410  147.6810 O   0  0  0  0  0  1  0  0  0  0  0  0
  162.2680  210.9900  149.8220 C   0  0  0  0  0  2  0  0  0  0  0  0
  163.3390  207.3170  149.1100 C   0  0  0  0  0  1  0  0  0  0  0  0
  162.0200  210.1910  148.5310 C   0  0  1  0  0  3  0  0  0  0  0  0
  162.0400  210.1740  151.0950 C   0  0  0  0  0  2  0  0  0  0  0  0
  162.7200  208.8070  150.9780 C   0  0  0  0  0  2  0  0  0  0  0  0
  161.3610  208.8290  148.7960 C   0  0  2  0  0  3  0  0  0  0  0  0
  160.8540  206.6430  154.6030 N   0  0  0  0  0  0  0  0  0  0  0  0
  161.0700  206.7710  151.8530 C   0  0  0  0  0  0  0  0  0  0  0  0
  160.5610  207.8580  152.5690 C   0  0  0  0  0  3  0  0  0  0  0  0
  160.4640  207.7800  153.9590 C   0  0  0  0  0  3  0  0  0  0  0  0
  161.3460  205.5720  153.9300 C   0  0  0  0  0  3  0  0  0  0  0  0
  161.4660  205.6170  152.5400 C   0  0  0  0  0  3  0  0  0  0  0  0
  1  2  1  1  0  0  0
  1 23  1  0  0  0  0
  2  5  2  0  0  0  0
  3 10  2  0  0  0  0
  4  9  1  0  0  0  0
  6 11  1  0  0  0  0
  7  9  2  0  0  0  0
  7  6  1  0  0  0  0
  8  2  1  0  0  0  0
  9  3  1  0  0  0  0
 10 12  1  0  0  0  0
 11  8  2  0  0  0  0
 11 10  1  0  0  0  0
 12  5  1  0  0  0  0
 13 17  1  6  0  0  0
 13  1  1  0  0  0  0
 13 20  1  0  0  0  0
 16 19  1  0  0  0  0
 18 15  1  6  0  0  0
 18 21  1  0  0  0  0
 18 16  1  0  0  0  0
 20 19  1  0  0  0  0
 21 14  1  6  0  0  0
 21 13  1  0  0  0  0
 23 27  2  0  0  0  0
 23 24  1  0  0  0  0
 24 25  2  0  0  0  0
 25 22  1  0  0  0  0
 26 22  2  0  0  0  0
 27 26  1  0  0  0  0
M  END
>  <MODEL>
4

>  <REMARK>
 VINA RESULT:      -6.3      2.680      6.372
  Name = 
  3 active torsions:
  status: ('A' for Active; 'I' for Inactive)
    1  A    between atoms: C_1  and  C_15
    2  A    between atoms: C_2  and  C_15
    3  A    between atoms: C_9  and  C_15
                            x       y       z     vdW  Elec       q    Type
                         _______ _______ _______ _____ _____    ______ ____

>  <TORSDO>
F 3

$$$$
=
 OpenBabel11052423103D

 27 30  0  0  1  0  0  0  0  0999 V2000
  161.2250  210.1740  153.0470 C   0  0  2  0  0  3  0  0  0  0  0  0
  161.3160  208.9200  152.2230 C   0  0  0  0  0  0  0  0  0  0  0  0
  161.0370  205.7600  149.5520 C   0  0  0  0  0  3  0  0  0  0  0  0
  160.8790  205.1300  147.2760 O   0  0  0  0  0  1  0  0  0  0  0  0
  160.8300  207.7510  152.6570 C   0  0  0  0  0  3  0  0  0  0  0  0
  162.4860  208.1060  148.7540 C   0  0  0  0  0  2  0  0  0  0  0  0
  162.2140  207.1280  147.8800 C   0  0  0  0  0  3  0  0  0  0  0  0
  161.8540  209.0210  150.8930 N   0  0  0  0  0  0  0  0  0  0  0  0
  161.3790  205.9650  148.2680 C   0  0  0  0  0  0  0  0  0  0  0  0
  161.6590  206.6000  150.6280 C   0  0  0  0  0  0  0  0  0  0  0  0
  161.9950  207.9790  150.1310 C   0  0  0  0  0  0  0  0  0  0  0  0
  160.9050  206.6070  151.8480 O   0  0  0  0  0  0  0  0  0  0  0  0
  161.4050  210.0350  154.5850 C   0  0  2  0  0  0  0  0  0  0  0  0
  160.5000  212.2270  155.1620 O   0  0  0  0  0  1  0  0  0  0  0  0
  158.9720  211.1500  157.2560 O   0  0  0  0  0  1  0  0  0  0  0  0
  159.7970  208.9370  156.9050 C   0  0  0  0  0  2  0  0  0  0  0  0
  162.7590  210.6010  155.0080 C   0  0  0  0  0  1  0  0  0  0  0  0
  160.0540  210.4440  156.7370 C   0  0  1  0  0  3  0  0  0  0  0  0
  160.0570  208.1310  155.6320 C   0  0  0  0  0  2  0  0  0  0  0  0
  161.3910  208.5470  155.0050 C   0  0  0  0  0  2  0  0  0  0  0  0
  160.2770  210.8480  155.2730 C   0  0  2  0  0  3  0  0  0  0  0  0
  158.2000  212.8910  151.7510 N   0  0  0  0  0  0  0  0  0  0  0  0
  160.1450  211.1210  152.5930 C   0  0  0  0  0  0  0  0  0  0  0  0
  160.4830  212.1960  151.7650 C   0  0  0  0  0  3  0  0  0  0  0  0
  159.4900  213.0850  151.3530 C   0  0  0  0  0  3  0  0  0  0  0  0
  157.8450  211.8520  152.5490 C   0  0  0  0  0  3  0  0  0  0  0  0
  158.8130  210.9480  152.9880 C   0  0  0  0  0  3  0  0  0  0  0  0
  1  2  1  1  0  0  0
  1 13  1  0  0  0  0
  2  5  2  0  0  0  0
  3 10  2  0  0  0  0
  4  9  1  0  0  0  0
  6 11  1  0  0  0  0
  7  9  2  0  0  0  0
  7  6  1  0  0  0  0
  8  2  1  0  0  0  0
  9  3  1  0  0  0  0
 10 12  1  0  0  0  0
 11 10  1  0  0  0  0
 11  8  2  0  0  0  0
 12  5  1  0  0  0  0
 13 20  1  0  0  0  0
 13 17  1  1  0  0  0
 13 21  1  0  0  0  0
 18 16  1  0  0  0  0
 18 15  1  6  0  0  0
 19 16  1  0  0  0  0
 20 19  1  0  0  0  0
 21 14  1  1  0  0  0
 21 18  1  0  0  0  0
 22 26  1  0  0  0  0
 23 27  1  0  0  0  0
 23  1  1  0  0  0  0
 24 23  2  0  0  0  0
 25 22  2  0  0  0  0
 25 24  1  0  0  0  0
 26 27  2  0  0  0  0
M  END
>  <MODEL>
5

>  <REMARK>
 VINA RESULT:      -6.3      2.814      8.589
  Name = 
  3 active torsions:
  status: ('A' for Active; 'I' for Inactive)
    1  A    between atoms: C_1  and  C_15
    2  A    between atoms: C_2  and  C_15
    3  A    between atoms: C_9  and  C_15
                            x       y       z     vdW  Elec       q    Type
                         _______ _______ _______ _____ _____    ______ ____

>  <TORSDO>
F 3

$$$$
=
 OpenBabel11052423103D

 27 30  0  0  1  0  0  0  0  0999 V2000
  161.7070  208.4350  152.3280 C   0  0  2  0  0  3  0  0  0  0  0  0
  161.6580  206.9460  152.1330 C   0  0  0  0  0  0  0  0  0  0  0  0
  160.8250  202.9450  151.4260 C   0  0  0  0  0  3  0  0  0  0  0  0
  159.7830  201.3890  149.9770 O   0  0  0  0  0  1  0  0  0  0  0  0
  161.6560  206.0960  153.1670 C   0  0  0  0  0  3  0  0  0  0  0  0
  161.2730  204.6700  149.1760 C   0  0  0  0  0  2  0  0  0  0  0  0
  160.8320  203.4160  149.0120 C   0  0  0  0  0  3  0  0  0  0  0  0
  161.5080  206.4420  150.7940 N   0  0  0  0  0  0  0  0  0  0  0  0
  160.5050  202.5600  150.1780 C   0  0  0  0  0  0  0  0  0  0  0  0
  161.6890  204.1550  151.6310 C   0  0  0  0  0  0  0  0  0  0  0  0
  161.4900  205.1690  150.5390 C   0  0  0  0  0  0  0  0  0  0  0  0
  161.5800  204.7120  152.9480 O   0  0  0  0  0  0  0  0  0  0  0  0
  160.7280  209.0540  153.3650 C   0  0  2  0  0  0  0  0  0  0  0  0
  162.2520  208.9500  155.2690 O   0  0  0  0  0  1  0  0  0  0  0  0
  161.5830  211.5570  156.0670 O   0  0  0  0  0  1  0  0  0  0  0  0
  159.9860  211.8330  154.3140 C   0  0  0  0  0  2  0  0  0  0  0  0
  159.9420  207.9500  154.0690 C   0  0  0  0  0  1  0  0  0  0  0  0
  160.7440  210.8440  155.2150 C   0  0  1  0  0  3  0  0  0  0  0  0
  160.0130  211.4510  152.8340 C   0  0  0  0  0  2  0  0  0  0  0  0
  159.6920  209.9640  152.6640 C   0  0  0  0  0  2  0  0  0  0  0  0
  161.5700  209.8270  154.4140 C   0  0  2  0  0  3  0  0  0  0  0  0
  162.2240  210.5850  148.6770 N   0  0  0  0  0  0  0  0  0  0  0  0
  161.8860  209.2090  151.0470 C   0  0  0  0  0  0  0  0  0  0  0  0
  161.7740  208.5410  149.8240 C   0  0  0  0  0  3  0  0  0  0  0  0
  161.9530  209.2490  148.6360 C   0  0  0  0  0  3  0  0  0  0  0  0
  162.3320  211.2570  149.8510 C   0  0  0  0  0  3  0  0  0  0  0  0
  162.1670  210.5800  151.0600 C   0  0  0  0  0  3  0  0  0  0  0  0
  1 23  1  6  0  0  0
  1 13  1  0  0  0  0
  2  1  1  0  0  0  0
  2  5  2  0  0  0  0
  3 10  2  0  0  0  0
  4  9  1  0  0  0  0
  6 11  1  0  0  0  0
  7  6  1  0  0  0  0
  7  9  2  0  0  0  0
  8  2  1  0  0  0  0
  9  3  1  0  0  0  0
 10 12  1  0  0  0  0
 11  8  2  0  0  0  0
 11 10  1  0  0  0  0
 12  5  1  0  0  0  0
 13 17  1  1  0  0  0
 13 21  1  0  0  0  0
 16 18  1  0  0  0  0
 18 15  1  1  0  0  0
 19 16  1  0  0  0  0
 20 19  1  0  0  0  0
 20 13  1  0  0  0  0
 21 18  1  0  0  0  0
 21 14  1  1  0  0  0
 22 26  1  0  0  0  0
 23 27  1  0  0  0  0
 24 23  2  0  0  0  0
 25 22  2  0  0  0  0
 25 24  1  0  0  0  0
 26 27  2  0  0  0  0
M  END
>  <MODEL>
6

>  <REMARK>
 VINA RESULT:      -6.2      2.803      7.387
  Name = 
  3 active torsions:
  status: ('A' for Active; 'I' for Inactive)
    1  A    between atoms: C_1  and  C_15
    2  A    between atoms: C_2  and  C_15
    3  A    between atoms: C_9  and  C_15
                            x       y       z     vdW  Elec       q    Type
                         _______ _______ _______ _____ _____    ______ ____

>  <TORSDO>
F 3

$$$$
=
 OpenBabel11052423103D

 27 30  0  0  1  0  0  0  0  0999 V2000
  159.2540  213.1260  153.4120 C   0  0  2  0  0  3  0  0  0  0  0  0
  159.9400  211.8190  153.6930 C   0  0  0  0  0  0  0  0  0  0  0  0
  161.1770  207.9180  154.3660 C   0  0  0  0  0  3  0  0  0  0  0  0
  161.0730  205.6750  153.6160 O   0  0  0  0  0  1  0  0  0  0  0  0
  160.3130  211.4660  154.9290 C   0  0  0  0  0  3  0  0  0  0  0  0
  160.8140  208.7920  151.6570 C   0  0  0  0  0  2  0  0  0  0  0  0
  161.0420  207.5050  151.9450 C   0  0  0  0  0  3  0  0  0  0  0  0
  160.1020  210.8920  152.6060 N   0  0  0  0  0  0  0  0  0  0  0  0
  161.1280  207.0390  153.3510 C   0  0  0  0  0  0  0  0  0  0  0  0
  161.3380  209.3810  154.0740 C   0  0  0  0  0  0  0  0  0  0  0  0
  160.7120  209.7560  152.7590 C   0  0  0  0  0  0  0  0  0  0  0  0
  160.9250  210.2240  155.1580 O   0  0  0  0  0  0  0  0  0  0  0  0
  158.0510  213.5130  154.3180 C   0  0  2  0  0  0  0  0  0  0  0  0
  156.7130  211.5250  153.8520 O   0  0  0  0  0  1  0  0  0  0  0  0
  156.0800  211.1990  156.5680 O   0  0  0  0  0  1  0  0  0  0  0  0
  157.2730  213.1600  157.2240 C   0  0  0  0  0  2  0  0  0  0  0  0
  157.0070  214.2760  153.5050 C   0  0  0  0  0  1  0  0  0  0  0  0
  156.5350  212.4260  156.0920 C   0  0  1  0  0  3  0  0  0  0  0  0
  158.6300  213.7240  156.8000 C   0  0  0  0  0  2  0  0  0  0  0  0
  158.5050  214.4520  155.4590 C   0  0  0  0  0  2  0  0  0  0  0  0
  157.4190  212.2020  154.8560 C   0  0  2  0  0  3  0  0  0  0  0  0
  158.7770  213.9360  149.2490 N   0  0  0  0  0  0  0  0  0  0  0  0
  159.0960  213.4250  151.9440 C   0  0  0  0  0  0  0  0  0  0  0  0
  157.9760  212.9380  151.2640 C   0  0  0  0  0  3  0  0  0  0  0  0
  157.8330  213.2000  149.9010 C   0  0  0  0  0  3  0  0  0  0  0  0
  159.8700  214.4250  149.8880 C   0  0  0  0  0  3  0  0  0  0  0  0
  160.0520  214.1770  151.2490 C   0  0  0  0  0  3  0  0  0  0  0  0
  1 23  1  6  0  0  0
  1  2  1  0  0  0  0
  1 13  1  0  0  0  0
  2  5  2  0  0  0  0
  5 12  1  0  0  0  0
  6  7  1  0  0  0  0
  6 11  1  0  0  0  0
  7  9  2  0  0  0  0
  8 11  2  0  0  0  0
  8  2  1  0  0  0  0
  9  4  1  0  0  0  0
  9  3  1  0  0  0  0
 10  3  2  0  0  0  0
 10 12  1  0  0  0  0
 11 10  1  0  0  0  0
 13 17  1  6  0  0  0
 13 21  1  0  0  0  0
 13 20  1  0  0  0  0
 18 15  1  1  0  0  0
 18 16  1  0  0  0  0
 19 16  1  0  0  0  0
 20 19  1  0  0  0  0
 21 14  1  6  0  0  0
 21 18  1  0  0  0  0
 22 26  2  0  0  0  0
 22 25  1  0  0  0  0
 24 23  1  0  0  0  0
 25 24  2  0  0  0  0
 26 27  1  0  0  0  0
 27 23  2  0  0  0  0
M  END
>  <MODEL>
7

>  <REMARK>
 VINA RESULT:      -6.1      5.128      9.697
  Name = 
  3 active torsions:
  status: ('A' for Active; 'I' for Inactive)
    1  A    between atoms: C_1  and  C_15
    2  A    between atoms: C_2  and  C_15
    3  A    between atoms: C_9  and  C_15
                            x       y       z     vdW  Elec       q    Type
                         _______ _______ _______ _____ _____    ______ ____

>  <TORSDO>
F 3

$$$$
=
 OpenBabel11052423103D

 27 30  0  0  1  0  0  0  0  0999 V2000
  160.6420  209.3240  152.2470 C   0  0  2  0  0  3  0  0  0  0  0  0
  161.0680  207.8920  152.0850 C   0  0  0  0  0  0  0  0  0  0  0  0
  161.5340  203.7940  151.6450 C   0  0  0  0  0  3  0  0  0  0  0  0
  160.7960  201.8520  150.5110 O   0  0  0  0  0  1  0  0  0  0  0  0
  161.5950  207.1910  153.0970 C   0  0  0  0  0  3  0  0  0  0  0  0
  160.8360  205.3500  149.3360 C   0  0  0  0  0  2  0  0  0  0  0  0
  160.8310  204.0120  149.2980 C   0  0  0  0  0  3  0  0  0  0  0  0
  160.8030  207.2440  150.8290 N   0  0  0  0  0  0  0  0  0  0  0  0
  161.0930  203.2100  150.5180 C   0  0  0  0  0  0  0  0  0  0  0  0
  161.9480  205.2360  151.6190 C   0  0  0  0  0  0  0  0  0  0  0  0
  161.1690  206.0200  150.5990 C   0  0  0  0  0  0  0  0  0  0  0  0
  161.9540  205.8470  152.9170 O   0  0  0  0  0  0  0  0  0  0  0  0
  161.5310  210.4150  151.5870 C   0  0  2  0  0  0  0  0  0  0  0  0
  162.3280  209.0330  149.7390 O   0  0  0  0  0  1  0  0  0  0  0  0
  161.9000  211.0980  147.8860 O   0  0  0  0  0  1  0  0  0  0  0  0
  161.1620  212.6340  149.5590 C   0  0  0  0  0  2  0  0  0  0  0  0
  162.9570  210.3270  152.1280 C   0  0  0  0  0  1  0  0  0  0  0  0
  161.9960  211.3800  149.2460 C   0  0  1  0  0  3  0  0  0  0  0  0
  160.2430  212.4670  150.7690 C   0  0  0  0  0  2  0  0  0  0  0  0
  161.0080  211.8290  151.9320 C   0  0  0  0  0  2  0  0  0  0  0  0
  161.5500  210.1550  150.0580 C   0  0  2  0  0  3  0  0  0  0  0  0
  159.1150  210.2790  156.1160 N   0  0  0  0  0  0  0  0  0  0  0  0
  160.1110  209.6470  153.6190 C   0  0  0  0  0  0  0  0  0  0  0  0
  158.9780  210.4570  153.7400 C   0  0  0  0  0  3  0  0  0  0  0  0
  158.4910  210.7720  155.0090 C   0  0  0  0  0  3  0  0  0  0  0  0
  160.2120  209.4850  156.0260 C   0  0  0  0  0  3  0  0  0  0  0  0
  160.7330  209.1560  154.7730 C   0  0  0  0  0  3  0  0  0  0  0  0
  1  2  1  1  0  0  0
  1 23  1  0  0  0  0
  2  5  2  0  0  0  0
  4  9  1  0  0  0  0
  6 11  1  0  0  0  0
  7  6  1  0  0  0  0
  7  9  2  0  0  0  0
  8  2  1  0  0  0  0
  9  3  1  0  0  0  0
 10  3  2  0  0  0  0
 10 12  1  0  0  0  0
 11  8  2  0  0  0  0
 11 10  1  0  0  0  0
 12  5  1  0  0  0  0
 13 20  1  0  0  0  0
 13 17  1  1  0  0  0
 13  1  1  0  0  0  0
 16 19  1  0  0  0  0
 18 15  1  6  0  0  0
 18 16  1  0  0  0  0
 18 21  1  0  0  0  0
 19 20  1  0  0  0  0
 21 14  1  1  0  0  0
 21 13  1  0  0  0  0
 23 24  2  0  0  0  0
 23 27  1  0  0  0  0
 24 25  1  0  0  0  0
 25 22  2  0  0  0  0
 26 22  1  0  0  0  0
 27 26  2  0  0  0  0
M  END
>  <MODEL>
8

>  <REMARK>
 VINA RESULT:      -6.0      2.951      6.837
  Name = 
  3 active torsions:
  status: ('A' for Active; 'I' for Inactive)
    1  A    between atoms: C_1  and  C_15
    2  A    between atoms: C_2  and  C_15
    3  A    between atoms: C_9  and  C_15
                            x       y       z     vdW  Elec       q    Type
                         _______ _______ _______ _____ _____    ______ ____

>  <TORSDO>
F 3

$$$$
=
 OpenBabel11052423103D

 27 30  0  0  1  0  0  0  0  0999 V2000
  158.3560  212.3270  152.7290 C   0  0  2  0  0  3  0  0  0  0  0  0
  158.7460  213.0320  151.4600 C   0  0  0  0  0  0  0  0  0  0  0  0
  159.8570  214.3080  147.6730 C   0  0  0  0  0  3  0  0  0  0  0  0
  159.4920  214.0780  145.3460 O   0  0  0  0  0  1  0  0  0  0  0  0
  159.9610  213.5680  151.2920 C   0  0  0  0  0  3  0  0  0  0  0  0
  157.1160  213.5850  148.1270 C   0  0  0  0  0  2  0  0  0  0  0  0
  157.5720  213.8370  146.8940 C   0  0  0  0  0  3  0  0  0  0  0  0
  157.8070  213.0320  150.3700 N   0  0  0  0  0  0  0  0  0  0  0  0
  159.0090  214.1110  146.6490 C   0  0  0  0  0  0  0  0  0  0  0  0
  159.3170  214.4430  149.0670 C   0  0  0  0  0  0  0  0  0  0  0  0
  158.0560  213.6460  149.2530 C   0  0  0  0  0  0  0  0  0  0  0  0
  160.2990  214.1920  150.0820 O   0  0  0  0  0  0  0  0  0  0  0  0
  157.5000  213.1210  153.7550 C   0  0  2  0  0  0  0  0  0  0  0  0
  156.2470  211.2040  154.6010 O   0  0  0  0  0  1  0  0  0  0  0  0
  156.5880  212.0360  157.2610 O   0  0  0  0  0  1  0  0  0  0  0  0
  157.7710  214.0140  156.6360 C   0  0  0  0  0  2  0  0  0  0  0  0
  156.1860  213.5610  153.1120 C   0  0  0  0  0  1  0  0  0  0  0  0
  156.7580  212.9370  156.2130 C   0  0  1  0  0  3  0  0  0  0  0  0
  158.8580  214.2710  155.5910 C   0  0  0  0  0  2  0  0  0  0  0  0
  158.2330  214.4080  154.2000 C   0  0  0  0  0  2  0  0  0  0  0  0
  157.1910  212.1800  154.9490 C   0  0  2  0  0  3  0  0  0  0  0  0
  161.4410  209.8630  154.3510 N   0  0  0  0  0  0  0  0  0  0  0  0
  159.4530  211.4710  153.3090 C   0  0  0  0  0  0  0  0  0  0  0  0
  159.7110  210.2180  152.7460 C   0  0  0  0  0  3  0  0  0  0  0  0
  160.7150  209.4150  153.2870 C   0  0  0  0  0  3  0  0  0  0  0  0
  161.2140  211.0780  154.9110 C   0  0  0  0  0  3  0  0  0  0  0  0
  160.2120  211.9050  154.4020 C   0  0  0  0  0  3  0  0  0  0  0  0
  1  2  1  6  0  0  0
  1 23  1  0  0  0  0
  1 13  1  0  0  0  0
  3 10  2  0  0  0  0
  4  9  1  0  0  0  0
  5  2  2  0  0  0  0
  6 11  1  0  0  0  0
  7  6  1  0  0  0  0
  8  2  1  0  0  0  0
  9  7  2  0  0  0  0
  9  3  1  0  0  0  0
 10 11  1  0  0  0  0
 10 12  1  0  0  0  0
 11  8  2  0  0  0  0
 12  5  1  0  0  0  0
 13 17  1  6  0  0  0
 13 20  1  0  0  0  0
 13 21  1  0  0  0  0
 18 16  1  0  0  0  0
 18 15  1  1  0  0  0
 19 16  1  0  0  0  0
 20 19  1  0  0  0  0
 21 14  1  6  0  0  0
 21 18  1  0  0  0  0
 22 26  1  0  0  0  0
 23 27  1  0  0  0  0
 24 25  1  0  0  0  0
 24 23  2  0  0  0  0
 25 22  2  0  0  0  0
 27 26  2  0  0  0  0
M  END
>  <MODEL>
9

>  <REMARK>
 VINA RESULT:      -5.8      6.850     10.466
  Name = 
  3 active torsions:
  status: ('A' for Active; 'I' for Inactive)
    1  A    between atoms: C_1  and  C_15
    2  A    between atoms: C_2  and  C_15
    3  A    between atoms: C_9  and  C_15
                            x       y       z     vdW  Elec       q    Type
                         _______ _______ _______ _____ _____    ______ ____

>  <TORSDO>
F 3

$$$$
