=
 OpenBabel11062410433D

 32 37  0  0  1  0  0  0  0  0999 V2000
  161.0800  202.3160  149.4080 N   0  0  0  0  0  0  0  0  0  0  0  0
  161.1830  206.7540  152.0470 C   0  0  0  0  0  0  0  0  0  0  0  0
  162.1330  209.9390  148.4310 C   0  0  0  0  0  3  0  0  0  0  0  0
  161.7770  211.0780  149.3450 C   0  0  0  0  0  2  0  0  0  0  0  0
  160.8880  207.9940  154.2970 C   0  0  0  0  0  0  0  0  0  0  0  0
  160.4320  207.0740  155.2390 C   0  0  0  0  0  3  0  0  0  0  0  0
  160.6080  204.3170  151.3940 C   0  0  1  0  0  3  0  0  0  0  0  0
  161.3830  205.9530  149.6800 C   0  0  0  0  0  3  0  0  0  0  0  0
  160.7800  209.7850  155.8620 C   0  0  0  0  0  0  0  0  0  0  0  0
  160.9200  203.6860  148.9040 C   0  0  0  0  0  2  0  0  0  0  0  0
  162.0730  208.6740  148.8550 C   0  0  0  0  0  3  0  0  0  0  0  0
  161.4430  207.0410  150.6800 C   0  0  0  0  0  0  0  0  0  0  0  0
  161.7550  208.3650  150.2680 C   0  0  0  0  0  0  0  0  0  0  0  0
  161.4920  209.1250  152.5380 C   0  0  0  0  0  0  0  0  0  0  0  0
  160.3280  208.8990  156.8480 C   0  0  0  0  0  3  0  0  0  0  0  0
  161.3220  202.0270  150.7960 C   0  0  0  0  0  3  0  0  0  0  0  0
  161.0380  204.7040  149.9990 C   0  0  0  0  0  0  0  0  0  0  0  0
  160.1550  207.5420  156.5300 C   0  0  0  0  0  3  0  0  0  0  0  0
  161.1420  202.9540  151.7360 C   0  0  0  0  0  3  0  0  0  0  0  0
  162.2090  210.8000  150.7880 C   0  0  0  0  0  2  0  0  0  0  0  0
  161.7860  209.4190  151.2100 C   0  0  0  0  0  0  0  0  0  0  0  0
  161.4090  210.0030  153.5610 N   0  0  0  0  0  0  0  0  0  0  0  0
  160.9760  205.3390  152.4430 C   0  0  0  0  0  0  0  0  0  0  0  0
  161.1090  204.9760  153.6430 O   0  0  0  0  0  0  0  0  0  0  0  0
  160.9490  211.2320  156.1770 C   0  0  0  0  0  1  0  0  0  0  0  0
  161.1840  207.8400  152.9490 C   0  0  0  0  0  0  0  0  0  0  0  0
  161.0380  209.2960  154.6190 N   0  0  0  0  0  0  0  0  0  0  0  0
  161.1260  201.2330  148.4350 C   0  0  0  0  0  2  0  0  0  0  0  0
  160.5960  200.8850  145.9780 C   0  0  0  0  0  0  0  0  0  0  0  0
  160.5000  201.6440  147.1860 N   0  0  0  0  0  2  0  0  0  0  0  0
  160.0160  201.3920  144.7820 N   0  0  0  0  0  1  0  0  0  0  0  0
  161.1720  199.7640  145.9650 O   0  0  0  0  0  0  0  0  0  0  0  0
  1 16  1  0  0  0  0
  2 23  1  0  0  0  0
  2 26  1  0  0  0  0
  3 11  2  0  0  0  0
  3  4  1  0  0  0  0
  4 20  1  0  0  0  0
  5 27  1  0  0  0  0
  5  6  1  0  0  0  0
  6 18  2  0  0  0  0
  7 19  1  1  0  0  0
  7 23  1  0  0  0  0
  8 17  2  0  0  0  0
  8 12  1  0  0  0  0
  9 25  1  0  0  0  0
  9 15  2  0  0  0  0
 10  1  1  0  0  0  0
 10 17  1  0  0  0  0
 11 13  1  0  0  0  0
 12  2  2  0  0  0  0
 13 12  1  0  0  0  0
 13 21  2  0  0  0  0
 14 26  1  0  0  0  0
 14 22  2  0  0  0  0
 16 19  2  0  0  0  0
 17  7  1  0  0  0  0
 18 15  1  0  0  0  0
 20 21  1  0  0  0  0
 21 14  1  0  0  0  0
 22 27  1  0  0  0  0
 23 24  2  0  0  0  0
 26  5  2  0  0  0  0
 27  9  1  0  0  0  0
 28  1  1  0  0  0  0
 29 30  1  0  0  0  0
 30 28  1  0  0  0  0
 31 29  1  0  0  0  0
 32 29  2  0  0  0  0
M  END
>  <MODEL>
1

>  <REMARK>
 VINA RESULT:     -11.2      0.000      0.000
  Name = 
  2 active torsions:
  status: ('A' for Active; 'I' for Inactive)
    1  A    between atoms: N_2  and  C_24
    2  A    between atoms: N_10  and  C_24
                            x       y       z     vdW  Elec       q    Type
                         _______ _______ _______ _____ _____    ______ ____

>  <TORSDO>
F 2

$$$$
