=
 OpenBabel11052423203D

 27 32  0  0  1  0  0  0  0  0999 V2000
  160.8690  209.3410  153.2200 C   0  0  2  0  0  3  0  0  0  0  0  0
  160.3380  210.7700  153.3800 C   0  0  1  0  0  3  0  0  0  0  0  0
  160.5580  209.7840  155.5740 C   0  0  2  0  0  0  0  0  0  0  0  0
  157.0430  212.9090  154.5510 N   0  0  0  0  0  0  0  0  0  0  0  0
  157.2240  214.4450  156.4310 C   0  0  0  0  0  1  0  0  0  0  0  0
  159.2520  211.1450  152.3940 C   0  0  0  0  0  3  0  0  0  0  0  0
  158.1760  211.8900  156.7790 S   0  0  0  0  0  0  0  0  0  0  0  0
  160.2340  206.9630  156.0950 C   0  0  2  0  0  3  0  0  0  0  0  0
  161.3490  210.2270  156.7780 C   0  0  0  0  0  2  0  0  0  0  0  0
  158.8600  206.8790  155.8680 O   0  0  0  0  0  1  0  0  0  0  0  0
  158.8750  211.6480  155.1620 C   0  0  2  0  0  3  0  0  0  0  0  0
  156.9400  213.0180  156.0050 C   0  0  2  0  0  3  0  0  0  0  0  0
  158.0630  212.2470  154.1340 C   0  0  0  0  0  0  0  0  0  0  0  0
  161.2980  208.8540  154.6200 C   0  0  1  0  0  3  0  0  0  0  0  0
  159.8940  210.8580  154.8040 C   0  0  2  0  0  3  0  0  0  0  0  0
  160.5280  207.9100  157.2600 C   0  0  0  0  0  2  0  0  0  0  0  0
  158.2350  211.8760  152.7590 N   0  0  0  0  0  0  0  0  0  0  0  0
  161.2500  206.5680  154.0110 O   0  0  0  0  0  0  0  0  0  0  0  0
  160.9370  207.4050  154.8430 C   0  0  0  0  0  0  0  0  0  0  0  0
  160.1060  209.3480  156.9600 C   0  0  2  0  0  3  0  0  0  0  0  0
  162.0050  209.2510  152.1950 C   0  0  0  0  0  2  0  0  0  0  0  0
  161.0400  206.8520  148.7640 C   0  0  0  0  0  3  0  0  0  0  0  0
  161.6590  208.4200  150.9980 C   0  0  0  0  0  0  0  0  0  0  0  0
  161.9330  208.8950  149.7110 C   0  0  0  0  0  3  0  0  0  0  0  0
  161.6250  208.1110  148.5940 C   0  0  0  0  0  3  0  0  0  0  0  0
  160.7650  206.3770  150.0500 C   0  0  0  0  0  3  0  0  0  0  0  0
  161.0740  207.1590  151.1660 C   0  0  0  0  0  3  0  0  0  0  0  0
  1 21  1  6  0  0  0
  1  2  1  0  0  0  0
  1 14  1  0  0  0  0
  2  6  1  6  0  0  0
  2 15  1  0  0  0  0
  3  9  1  1  0  0  0
  3 20  1  0  0  0  0
  4 12  1  0  0  0  0
  6 17  2  0  0  0  0
  8 10  1  6  0  0  0
  8 16  1  0  0  0  0
  9 20  1  0  0  0  0
 11 13  1  6  0  0  0
 11  7  1  0  0  0  0
 12  5  1  6  0  0  0
 12  7  1  0  0  0  0
 13  4  2  0  0  0  0
 14 19  1  1  0  0  0
 14  3  1  0  0  0  0
 15 11  1  0  0  0  0
 15  3  1  0  0  0  0
 17 13  1  0  0  0  0
 18 19  2  0  0  0  0
 19  8  1  0  0  0  0
 20 16  1  0  0  0  0
 22 26  1  0  0  0  0
 23 27  1  0  0  0  0
 23 21  1  0  0  0  0
 24 23  2  0  0  0  0
 25 22  2  0  0  0  0
 25 24  1  0  0  0  0
 26 27  2  0  0  0  0
M  END
>  <MODEL>
1

>  <REMARK>
 VINA RESULT:      -7.2      0.000      0.000
  Name = 
  2 active torsions:
  status: ('A' for Active; 'I' for Inactive)
    1  A    between atoms: C_1  and  C_15
    2  A    between atoms: C_9  and  C_15
                            x       y       z     vdW  Elec       q    Type
                         _______ _______ _______ _____ _____    ______ ____

>  <TORSDO>
F 2

$$$$
=
 OpenBabel11052423203D

 27 32  0  0  1  0  0  0  0  0999 V2000
  160.5720  211.0500  153.9470 C   0  0  2  0  0  3  0  0  0  0  0  0
  160.4560  210.0610  152.7830 C   0  0  1  0  0  3  0  0  0  0  0  0
  160.3810  208.8200  154.8540 C   0  0  2  0  0  0  0  0  0  0  0  0
  162.4340  207.0040  150.8960 N   0  0  0  0  0  0  0  0  0  0  0  0
  161.4150  204.7940  150.8160 C   0  0  0  0  0  1  0  0  0  0  0  0
  161.4120  210.3290  151.6390 C   0  0  0  0  0  3  0  0  0  0  0  0
  161.5400  206.0500  153.2580 S   0  0  0  0  0  0  0  0  0  0  0  0
  161.7490  209.6460  157.2580 C   0  0  2  0  0  3  0  0  0  0  0  0
  159.3350  207.8850  155.4050 C   0  0  0  0  0  2  0  0  0  0  0  0
  163.0570  209.4230  156.8260 O   0  0  0  0  0  1  0  0  0  0  0  0
  161.2060  207.7110  152.7170 C   0  0  2  0  0  3  0  0  0  0  0  0
  162.3010  205.7350  151.6090 C   0  0  2  0  0  3  0  0  0  0  0  0
  161.8290  207.9950  151.4490 C   0  0  0  0  0  0  0  0  0  0  0  0
  160.2050  210.2860  155.2350 C   0  0  1  0  0  3  0  0  0  0  0  0
  160.6460  208.7140  153.4020 C   0  0  2  0  0  3  0  0  0  0  0  0
  160.9550  208.3390  157.2610 C   0  0  0  0  0  2  0  0  0  0  0  0
  161.9930  209.3480  151.0050 N   0  0  0  0  0  0  0  0  0  0  0  0
  161.2480  211.8640  156.6570 O   0  0  0  0  0  0  0  0  0  0  0  0
  161.0900  210.6830  156.3930 C   0  0  0  0  0  0  0  0  0  0  0  0
  160.7940  207.7540  155.8580 C   0  0  2  0  0  3  0  0  0  0  0  0
  159.7070  212.2990  153.7410 C   0  0  0  0  0  2  0  0  0  0  0  0
  156.0840  212.2910  156.0500 C   0  0  0  0  0  3  0  0  0  0  0  0
  158.4490  212.2890  154.5530 C   0  0  0  0  0  0  0  0  0  0  0  0
  158.2850  213.1980  155.6050 C   0  0  0  0  0  3  0  0  0  0  0  0
  157.1030  213.1990  156.3520 C   0  0  0  0  0  3  0  0  0  0  0  0
  156.2460  211.3820  155.0000 C   0  0  0  0  0  3  0  0  0  0  0  0
  157.4270  211.3810  154.2520 C   0  0  0  0  0  3  0  0  0  0  0  0
  1 21  1  6  0  0  0
  1 14  1  0  0  0  0
  2  6  1  6  0  0  0
  2 15  1  0  0  0  0
  2  1  1  0  0  0  0
  3 14  1  0  0  0  0
  3  9  1  6  0  0  0
  3 20  1  0  0  0  0
  4 13  2  0  0  0  0
  4 12  1  0  0  0  0
  8 10  1  6  0  0  0
  8 16  1  0  0  0  0
  9 20  1  0  0  0  0
 11 13  1  1  0  0  0
 11  7  1  0  0  0  0
 11 15  1  0  0  0  0
 12  5  1  6  0  0  0
 12  7  1  0  0  0  0
 14 19  1  1  0  0  0
 15  3  1  0  0  0  0
 17 13  1  0  0  0  0
 17  6  2  0  0  0  0
 19 18  2  0  0  0  0
 19  8  1  0  0  0  0
 20 16  1  0  0  0  0
 21 23  1  0  0  0  0
 22 25  1  0  0  0  0
 23 24  1  0  0  0  0
 24 25  2  0  0  0  0
 26 22  2  0  0  0  0
 27 23  2  0  0  0  0
 27 26  1  0  0  0  0
M  END
>  <MODEL>
2

>  <REMARK>
 VINA RESULT:      -7.1      2.834      6.197
  Name = 
  2 active torsions:
  status: ('A' for Active; 'I' for Inactive)
    1  A    between atoms: C_1  and  C_15
    2  A    between atoms: C_9  and  C_15
                            x       y       z     vdW  Elec       q    Type
                         _______ _______ _______ _____ _____    ______ ____

>  <TORSDO>
F 2

$$$$
=
 OpenBabel11052423203D

 27 32  0  0  1  0  0  0  0  0999 V2000
  161.6920  209.5910  150.4940 C   0  0  2  0  0  3  0  0  0  0  0  0
  161.7290  209.7710  152.0150 C   0  0  1  0  0  3  0  0  0  0  0  0
  161.9750  207.4210  151.5150 C   0  0  2  0  0  0  0  0  0  0  0  0
  159.6460  208.9340  155.4460 N   0  0  0  0  0  0  0  0  0  0  0  0
  160.6790  207.5490  157.1610 C   0  0  0  0  0  1  0  0  0  0  0  0
  160.6860  210.7260  152.5550 C   0  0  0  0  0  3  0  0  0  0  0  0
  160.7270  206.6190  154.5750 S   0  0  0  0  0  0  0  0  0  0  0  0
  160.7860  206.1470  149.2130 C   0  0  2  0  0  3  0  0  0  0  0  0
  163.0700  206.4470  151.8690 C   0  0  0  0  0  2  0  0  0  0  0  0
  159.4510  206.2270  149.6130 O   0  0  0  0  0  1  0  0  0  0  0  0
  161.0010  208.1680  153.7440 C   0  0  2  0  0  3  0  0  0  0  0  0
  159.8460  207.5570  155.8950 C   0  0  2  0  0  3  0  0  0  0  0  0
  160.2810  209.2450  154.3720 C   0  0  0  0  0  0  0  0  0  0  0  0
  162.1640  208.1540  150.1920 C   0  0  1  0  0  3  0  0  0  0  0  0
  161.6020  208.3890  152.5690 C   0  0  2  0  0  3  0  0  0  0  0  0
  161.5920  205.3030  150.2020 C   0  0  0  0  0  2  0  0  0  0  0  0
  160.0680  210.4830  153.6780 N   0  0  0  0  0  0  0  0  0  0  0  0
  161.2160  208.1300  148.0240 O   0  0  0  0  0  0  0  0  0  0  0  0
  161.3660  207.5260  149.0740 C   0  0  0  0  0  0  0  0  0  0  0  0
  161.6510  205.9360  151.5920 C   0  0  2  0  0  3  0  0  0  0  0  0
  162.5250  210.6470  149.7600 C   0  0  0  0  0  2  0  0  0  0  0  0
  160.1680  213.5560  147.6530 C   0  0  0  0  0  3  0  0  0  0  0  0
  161.6940  211.6550  149.0280 C   0  0  0  0  0  0  0  0  0  0  0  0
  161.1220  212.7280  149.7200 C   0  0  0  0  0  3  0  0  0  0  0  0
  160.3590  213.6780  149.0330 C   0  0  0  0  0  3  0  0  0  0  0  0
  160.7400  212.4840  146.9610 C   0  0  0  0  0  3  0  0  0  0  0  0
  161.5020  211.5350  147.6460 C   0  0  0  0  0  3  0  0  0  0  0  0
  1 21  1  6  0  0  0
  1  2  1  0  0  0  0
  2  6  1  1  0  0  0
  2 15  1  0  0  0  0
  3 20  1  0  0  0  0
  3  9  1  1  0  0  0
  3 15  1  0  0  0  0
  4 12  1  0  0  0  0
  6 17  2  0  0  0  0
  7 12  1  0  0  0  0
  8 10  1  1  0  0  0
  8 16  1  0  0  0  0
 11 13  1  6  0  0  0
 11  7  1  0  0  0  0
 12  5  1  1  0  0  0
 13  4  2  0  0  0  0
 14 19  1  6  0  0  0
 14  1  1  0  0  0  0
 14  3  1  0  0  0  0
 15 11  1  0  0  0  0
 16 20  1  0  0  0  0
 17 13  1  0  0  0  0
 18 19  2  0  0  0  0
 19  8  1  0  0  0  0
 20  9  1  0  0  0  0
 22 25  1  0  0  0  0
 23 24  1  0  0  0  0
 23 21  1  0  0  0  0
 25 24  2  0  0  0  0
 26 27  1  0  0  0  0
 26 22  2  0  0  0  0
 27 23  2  0  0  0  0
M  END
>  <MODEL>
3

>  <REMARK>
 VINA RESULT:      -6.0      3.036      5.347
  Name = 
  2 active torsions:
  status: ('A' for Active; 'I' for Inactive)
    1  A    between atoms: C_1  and  C_15
    2  A    between atoms: C_9  and  C_15
                            x       y       z     vdW  Elec       q    Type
                         _______ _______ _______ _____ _____    ______ ____

>  <TORSDO>
F 2

$$$$
=
 OpenBabel11052423203D

 27 32  0  0  1  0  0  0  0  0999 V2000
  161.8370  206.7890  149.3740 C   0  0  2  0  0  3  0  0  0  0  0  0
  162.1280  207.8930  150.3960 C   0  0  1  0  0  3  0  0  0  0  0  0
  162.0430  205.7760  151.5560 C   0  0  2  0  0  0  0  0  0  0  0  0
  160.5260  209.8500  153.6230 N   0  0  0  0  0  0  0  0  0  0  0  0
  161.6590  209.7310  155.7740 C   0  0  0  0  0  1  0  0  0  0  0  0
  161.2890  209.1410  150.2220 C   0  0  0  0  0  3  0  0  0  0  0  0
  161.2060  207.3690  154.4410 S   0  0  0  0  0  0  0  0  0  0  0  0
  160.3830  203.5660  150.7220 C   0  0  2  0  0  3  0  0  0  0  0  0
  163.0690  205.0780  152.4120 C   0  0  0  0  0  2  0  0  0  0  0  0
  159.1420  204.1250  151.0330 O   0  0  0  0  0  1  0  0  0  0  0  0
  161.5110  207.9400  152.7850 C   0  0  2  0  0  3  0  0  0  0  0  0
  160.6450  209.0760  154.8570 C   0  0  2  0  0  3  0  0  0  0  0  0
  161.0160  209.2770  152.5810 C   0  0  0  0  0  0  0  0  0  0  0  0
  162.1010  205.4390  150.0710 C   0  0  1  0  0  3  0  0  0  0  0  0
  161.9430  207.2420  151.7280 C   0  0  2  0  0  3  0  0  0  0  0  0
  161.2380  203.4250  151.9820 C   0  0  0  0  0  2  0  0  0  0  0  0
  160.8310  209.7930  151.2550 N   0  0  0  0  0  0  0  0  0  0  0  0
  160.8320  204.2020  148.5030 O   0  0  0  0  0  0  0  0  0  0  0  0
  161.0780  204.3990  149.6820 C   0  0  0  0  0  0  0  0  0  0  0  0
  161.5790  204.7780  152.6070 C   0  0  2  0  0  3  0  0  0  0  0  0
  162.6540  206.9530  148.0880 C   0  0  0  0  0  2  0  0  0  0  0  0
  161.0350  204.8250  144.7260 C   0  0  0  0  0  3  0  0  0  0  0  0
  162.0840  206.2050  146.9230 C   0  0  0  0  0  0  0  0  0  0  0  0
  160.8470  206.5780  146.3860 C   0  0  0  0  0  3  0  0  0  0  0  0
  160.3230  205.8890  145.2880 C   0  0  0  0  0  3  0  0  0  0  0  0
  162.2710  204.4510  145.2610 C   0  0  0  0  0  3  0  0  0  0  0  0
  162.7960  205.1400  146.3580 C   0  0  0  0  0  3  0  0  0  0  0  0
  1 21  1  6  0  0  0
  1 14  1  0  0  0  0
  1  2  1  0  0  0  0
  2  6  1  6  0  0  0
  2 15  1  0  0  0  0
  3 15  1  0  0  0  0
  3  9  1  1  0  0  0
  3 20  1  0  0  0  0
  4 12  1  0  0  0  0
  6 17  2  0  0  0  0
  7 12  1  0  0  0  0
  8 10  1  1  0  0  0
  8 16  1  0  0  0  0
  9 20  1  0  0  0  0
 11 13  1  6  0  0  0
 11  7  1  0  0  0  0
 12  5  1  1  0  0  0
 13  4  2  0  0  0  0
 14 19  1  1  0  0  0
 14  3  1  0  0  0  0
 15 11  1  0  0  0  0
 16 20  1  0  0  0  0
 17 13  1  0  0  0  0
 18 19  2  0  0  0  0
 19  8  1  0  0  0  0
 22 26  2  0  0  0  0
 22 25  1  0  0  0  0
 23 21  1  0  0  0  0
 24 23  1  0  0  0  0
 25 24  2  0  0  0  0
 26 27  1  0  0  0  0
 27 23  2  0  0  0  0
M  END
>  <MODEL>
4

>  <REMARK>
 VINA RESULT:      -5.7      3.125      5.378
  Name = 
  2 active torsions:
  status: ('A' for Active; 'I' for Inactive)
    1  A    between atoms: C_1  and  C_15
    2  A    between atoms: C_9  and  C_15
                            x       y       z     vdW  Elec       q    Type
                         _______ _______ _______ _____ _____    ______ ____

>  <TORSDO>
F 2

$$$$
=
 OpenBabel11052423203D

 27 32  0  0  1  0  0  0  0  0999 V2000
  160.9850  203.1980  148.8120 C   0  0  2  0  0  3  0  0  0  0  0  0
  160.5900  204.0890  149.9950 C   0  0  1  0  0  3  0  0  0  0  0  0
  161.0480  205.5010  148.0900 C   0  0  2  0  0  0  0  0  0  0  0  0
  162.0570  206.9120  152.5800 N   0  0  0  0  0  0  0  0  0  0  0  0
  161.0710  209.1380  152.6010 C   0  0  0  0  0  1  0  0  0  0  0  0
  161.2250  203.6960  151.3110 C   0  0  0  0  0  3  0  0  0  0  0  0
  161.7950  208.0900  150.1650 S   0  0  0  0  0  0  0  0  0  0  0  0
  162.9680  204.8390  146.0390 C   0  0  2  0  0  3  0  0  0  0  0  0
  160.1830  206.5120  147.3810 C   0  0  0  0  0  2  0  0  0  0  0  0
  164.1280  204.9840  146.8020 O   0  0  0  0  0  1  0  0  0  0  0  0
  161.3200  206.4000  150.4550 C   0  0  2  0  0  3  0  0  0  0  0  0
  162.1190  208.2410  151.9740 C   0  0  2  0  0  3  0  0  0  0  0  0
  161.6020  205.9910  151.8070 C   0  0  0  0  0  0  0  0  0  0  0  0
  160.9600  204.0800  147.5470 C   0  0  1  0  0  3  0  0  0  0  0  0
  160.9410  205.4760  149.5650 C   0  0  2  0  0  3  0  0  0  0  0  0
  162.2120  206.1660  145.9550 C   0  0  0  0  0  2  0  0  0  0  0  0
  161.6370  204.6000  152.1560 N   0  0  0  0  0  0  0  0  0  0  0  0
  162.3120  202.5960  146.2950 O   0  0  0  0  0  0  0  0  0  0  0  0
  162.1040  203.7540  146.6160 C   0  0  0  0  0  0  0  0  0  0  0  0
  161.7100  206.6350  147.3200 C   0  0  2  0  0  3  0  0  0  0  0  0
  160.0850  201.9640  148.6830 C   0  0  0  0  0  2  0  0  0  0  0  0
  161.1670  199.3620  145.4410 C   0  0  0  0  0  3  0  0  0  0  0  0
  160.4710  201.0640  147.5510 C   0  0  0  0  0  0  0  0  0  0  0  0
  161.4520  200.0840  147.7350 C   0  0  0  0  0  3  0  0  0  0  0  0
  161.8000  199.2330  146.6810 C   0  0  0  0  0  3  0  0  0  0  0  0
  160.1870  200.3410  145.2550 C   0  0  0  0  0  3  0  0  0  0  0  0
  159.8380  201.1910  146.3080 C   0  0  0  0  0  3  0  0  0  0  0  0
  1 21  1  6  0  0  0
  1  2  1  0  0  0  0
  2  6  1  1  0  0  0
  3  9  1  6  0  0  0
  3 15  1  0  0  0  0
  6 17  2  0  0  0  0
  7 12  1  0  0  0  0
  8 19  1  0  0  0  0
  8 10  1  1  0  0  0
 11  7  1  6  0  0  0
 11 13  1  0  0  0  0
 12  4  1  0  0  0  0
 12  5  1  1  0  0  0
 13 17  1  0  0  0  0
 13  4  2  0  0  0  0
 14 19  1  6  0  0  0
 14  3  1  0  0  0  0
 14  1  1  0  0  0  0
 15  2  1  0  0  0  0
 15 11  1  0  0  0  0
 16  8  1  0  0  0  0
 16 20  1  0  0  0  0
 18 19  2  0  0  0  0
 20  9  1  0  0  0  0
 20  3  1  0  0  0  0
 22 25  1  0  0  0  0
 23 24  1  0  0  0  0
 23 21  1  0  0  0  0
 25 24  2  0  0  0  0
 26 22  2  0  0  0  0
 26 27  1  0  0  0  0
 27 23  2  0  0  0  0
M  END
>  <MODEL>
5

>  <REMARK>
 VINA RESULT:      -5.4      5.199      8.671
  Name = 
  2 active torsions:
  status: ('A' for Active; 'I' for Inactive)
    1  A    between atoms: C_1  and  C_15
    2  A    between atoms: C_9  and  C_15
                            x       y       z     vdW  Elec       q    Type
                         _______ _______ _______ _____ _____    ______ ____

>  <TORSDO>
F 2

$$$$
=
 OpenBabel11052423203D

 27 32  0  0  1  0  0  0  0  0999 V2000
  160.0560  211.1140  153.8580 C   0  0  2  0  0  3  0  0  0  0  0  0
  160.0110  210.0290  152.7760 C   0  0  1  0  0  3  0  0  0  0  0  0
  160.4030  208.9680  154.9100 C   0  0  2  0  0  0  0  0  0  0  0  0
  162.3310  207.2540  150.8460 N   0  0  0  0  0  0  0  0  0  0  0  0
  161.7600  204.8930  151.0200 C   0  0  0  0  0  1  0  0  0  0  0  0
  160.7670  210.3780  151.5120 C   0  0  0  0  0  3  0  0  0  0  0  0
  161.9010  206.3440  153.3510 S   0  0  0  0  0  0  0  0  0  0  0  0
  161.8340  210.2270  157.0780 C   0  0  2  0  0  3  0  0  0  0  0  0
  159.6250  207.9010  155.6380 C   0  0  0  0  0  2  0  0  0  0  0  0
  163.1060  210.2180  156.5040 O   0  0  0  0  0  1  0  0  0  0  0  0
  161.1930  207.8630  152.7580 C   0  0  2  0  0  3  0  0  0  0  0  0
  162.5260  206.0440  151.6430 C   0  0  2  0  0  3  0  0  0  0  0  0
  161.6080  208.1550  151.4100 C   0  0  0  0  0  0  0  0  0  0  0  0
  159.9860  210.4000  155.2240 C   0  0  1  0  0  3  0  0  0  0  0  0
  160.5250  208.7960  153.4460 C   0  0  2  0  0  3  0  0  0  0  0  0
  161.3150  208.7990  157.2540 C   0  0  0  0  0  2  0  0  0  0  0  0
  161.4560  209.4750  150.8700 N   0  0  0  0  0  0  0  0  0  0  0  0
  160.8480  212.2550  156.4130 O   0  0  0  0  0  0  0  0  0  0  0  0
  160.8960  211.0480  156.2400 C   0  0  0  0  0  0  0  0  0  0  0  0
  161.1210  208.0820  155.9180 C   0  0  2  0  0  3  0  0  0  0  0  0
  158.9470  212.1570  153.6860 C   0  0  0  0  0  2  0  0  0  0  0  0
  158.9880  214.1030  149.8560 C   0  0  0  0  0  3  0  0  0  0  0  0
  158.9650  212.8260  152.3460 C   0  0  0  0  0  0  0  0  0  0  0  0
  157.8710  212.6990  151.4820 C   0  0  0  0  0  3  0  0  0  0  0  0
  157.8820  213.3370  150.2380 C   0  0  0  0  0  3  0  0  0  0  0  0
  160.0810  214.2320  150.7170 C   0  0  0  0  0  3  0  0  0  0  0  0
  160.0700  213.5940  151.9610 C   0  0  0  0  0  3  0  0  0  0  0  0
  1 21  1  6  0  0  0
  1 14  1  0  0  0  0
  2  6  1  6  0  0  0
  2 15  1  0  0  0  0
  2  1  1  0  0  0  0
  3 14  1  0  0  0  0
  3  9  1  1  0  0  0
  3 20  1  0  0  0  0
  4 13  2  0  0  0  0
  4 12  1  0  0  0  0
  8 10  1  6  0  0  0
  8 16  1  0  0  0  0
  9 20  1  0  0  0  0
 11 13  1  1  0  0  0
 11  7  1  0  0  0  0
 11 15  1  0  0  0  0
 12  5  1  6  0  0  0
 12  7  1  0  0  0  0
 14 19  1  1  0  0  0
 15  3  1  0  0  0  0
 17 13  1  0  0  0  0
 17  6  2  0  0  0  0
 19 18  2  0  0  0  0
 19  8  1  0  0  0  0
 20 16  1  0  0  0  0
 22 25  2  0  0  0  0
 22 26  1  0  0  0  0
 23 21  1  0  0  0  0
 24 23  2  0  0  0  0
 25 24  1  0  0  0  0
 26 27  2  0  0  0  0
 27 23  1  0  0  0  0
M  END
>  <MODEL>
6

>  <REMARK>
 VINA RESULT:      -5.4      3.058      5.694
  Name = 
  2 active torsions:
  status: ('A' for Active; 'I' for Inactive)
    1  A    between atoms: C_1  and  C_15
    2  A    between atoms: C_9  and  C_15
                            x       y       z     vdW  Elec       q    Type
                         _______ _______ _______ _____ _____    ______ ____

>  <TORSDO>
F 2

$$$$
=
 OpenBabel11052423203D

 27 32  0  0  1  0  0  0  0  0999 V2000
  158.3830  211.1250  138.2510 C   0  0  2  0  0  3  0  0  0  0  0  0
  158.9550  212.3030  139.0480 C   0  0  1  0  0  3  0  0  0  0  0  0
  160.7860  211.1190  138.0080 C   0  0  2  0  0  0  0  0  0  0  0  0
  161.2570  213.2140  142.3160 N   0  0  0  0  0  0  0  0  0  0  0  0
  163.3310  214.4520  142.0080 C   0  0  0  0  0  1  0  0  0  0  0  0
  158.3390  212.4870  140.4180 C   0  0  0  0  0  3  0  0  0  0  0  0
  162.9090  212.2550  140.4090 S   0  0  0  0  0  0  0  0  0  0  0  0
  160.7580  208.2800  137.4860 C   0  0  2  0  0  3  0  0  0  0  0  0
  161.8490  211.5930  137.0500 C   0  0  0  0  0  2  0  0  0  0  0  0
  160.8310  207.8370  138.8080 O   0  0  0  0  0  1  0  0  0  0  0  0
  161.1630  212.4590  140.1390 C   0  0  2  0  0  3  0  0  0  0  0  0
  162.6870  213.0800  142.0420 C   0  0  2  0  0  3  0  0  0  0  0  0
  160.4930  212.9390  141.3190 C   0  0  0  0  0  0  0  0  0  0  0  0
  159.5160  210.5870  137.3530 C   0  0  1  0  0  3  0  0  0  0  0  0
  160.4280  212.0550  139.0960 C   0  0  2  0  0  3  0  0  0  0  0  0
  162.0010  209.0950  137.1240 C   0  0  0  0  0  2  0  0  0  0  0  0
  159.0680  212.8340  141.4430 N   0  0  0  0  0  0  0  0  0  0  0  0
  158.4650  208.4950  137.0110 O   0  0  0  0  0  0  0  0  0  0  0  0
  159.5030  209.0790  137.2790 C   0  0  0  0  0  0  0  0  0  0  0  0
  162.1140  210.3780  137.9460 C   0  0  2  0  0  3  0  0  0  0  0  0
  157.1350  211.5130  137.4500 C   0  0  0  0  0  2  0  0  0  0  0  0
  153.5200  209.7890  139.0040 C   0  0  0  0  0  3  0  0  0  0  0  0
  155.8760  210.9040  137.9840 C   0  0  0  0  0  0  0  0  0  0  0  0
  155.9390  209.8540  138.9080 C   0  0  0  0  0  3  0  0  0  0  0  0
  154.7620  209.2970  139.4180 C   0  0  0  0  0  3  0  0  0  0  0  0
  153.4550  210.8370  138.0820 C   0  0  0  0  0  3  0  0  0  0  0  0
  154.6310  211.3950  137.5720 C   0  0  0  0  0  3  0  0  0  0  0  0
  1 21  1  6  0  0  0
  1  2  1  0  0  0  0
  2 15  1  0  0  0  0
  2  6  1  1  0  0  0
  3  9  1  6  0  0  0
  3 15  1  0  0  0  0
  6 17  2  0  0  0  0
  7 12  1  0  0  0  0
  8 10  1  1  0  0  0
  9 20  1  0  0  0  0
 11  7  1  1  0  0  0
 11 13  1  0  0  0  0
 12  5  1  6  0  0  0
 12  4  1  0  0  0  0
 13 17  1  0  0  0  0
 13  4  2  0  0  0  0
 14 19  1  1  0  0  0
 14  3  1  0  0  0  0
 14  1  1  0  0  0  0
 15 11  1  0  0  0  0
 16  8  1  0  0  0  0
 16 20  1  0  0  0  0
 18 19  2  0  0  0  0
 19  8  1  0  0  0  0
 20  3  1  0  0  0  0
 21 23  1  0  0  0  0
 22 25  1  0  0  0  0
 23 24  1  0  0  0  0
 24 25  2  0  0  0  0
 26 22  2  0  0  0  0
 27 23  2  0  0  0  0
 27 26  1  0  0  0  0
M  END
>  <MODEL>
7

>  <REMARK>
 VINA RESULT:      -5.0     13.260     15.756
  Name = 
  2 active torsions:
  status: ('A' for Active; 'I' for Inactive)
    1  A    between atoms: C_1  and  C_15
    2  A    between atoms: C_9  and  C_15
                            x       y       z     vdW  Elec       q    Type
                         _______ _______ _______ _____ _____    ______ ____

>  <TORSDO>
F 2

$$$$
=
 OpenBabel11052423203D

 27 32  0  0  1  0  0  0  0  0999 V2000
  161.4590  211.4820  149.6140 C   0  0  2  0  0  3  0  0  0  0  0  0
  160.8050  212.3570  150.6880 C   0  0  1  0  0  3  0  0  0  0  0  0
  161.5710  210.3150  151.7250 C   0  0  2  0  0  0  0  0  0  0  0  0
  157.5770  212.5570  153.2080 N   0  0  0  0  0  0  0  0  0  0  0  0
  157.9430  212.6180  155.6140 C   0  0  0  0  0  1  0  0  0  0  0  0
  159.5090  213.0100  150.2560 C   0  0  0  0  0  3  0  0  0  0  0  0
  159.2410  210.6660  154.1780 S   0  0  0  0  0  0  0  0  0  0  0  0
  161.6920  207.7780  150.3530 C   0  0  2  0  0  3  0  0  0  0  0  0
  162.5260  210.0880  152.8690 C   0  0  0  0  0  2  0  0  0  0  0  0
  160.3200  207.5540  150.2340 O   0  0  0  0  0  1  0  0  0  0  0  0
  159.6300  211.6210  152.7280 C   0  0  2  0  0  3  0  0  0  0  0  0
  157.7520  211.7300  154.4000 C   0  0  2  0  0  3  0  0  0  0  0  0
  158.5650  212.5280  152.3860 C   0  0  0  0  0  0  0  0  0  0  0  0
  162.2120  210.3490  150.3430 C   0  0  1  0  0  3  0  0  0  0  0  0
  160.6450  211.4590  151.8710 C   0  0  2  0  0  3  0  0  0  0  0  0
  162.0970  207.8520  151.8260 C   0  0  0  0  0  2  0  0  0  0  0  0
  158.5050  213.1220  151.0820 N   0  0  0  0  0  0  0  0  0  0  0  0
  162.3150  208.9690  148.4240 O   0  0  0  0  0  0  0  0  0  0  0  0
  162.0760  209.0310  149.6190 C   0  0  0  0  0  0  0  0  0  0  0  0
  161.4570  209.0380  152.5460 C   0  0  2  0  0  3  0  0  0  0  0  0
  162.3730  212.2850  148.6810 C   0  0  0  0  0  2  0  0  0  0  0  0
  160.6790  212.9430  144.7880 C   0  0  0  0  0  3  0  0  0  0  0  0
  161.7860  212.5040  147.3210 C   0  0  0  0  0  0  0  0  0  0  0  0
  160.4860  212.0680  147.0380 C   0  0  0  0  0  3  0  0  0  0  0  0
  159.9330  212.2880  145.7730 C   0  0  0  0  0  3  0  0  0  0  0  0
  161.9770  213.3790  145.0690 C   0  0  0  0  0  3  0  0  0  0  0  0
  162.5300  213.1610  146.3340 C   0  0  0  0  0  3  0  0  0  0  0  0
  1 21  1  1  0  0  0
  1 14  1  0  0  0  0
  1  2  1  0  0  0  0
  2  6  1  6  0  0  0
  2 15  1  0  0  0  0
  3 15  1  0  0  0  0
  3 20  1  0  0  0  0
  3  9  1  1  0  0  0
  4 12  1  0  0  0  0
  6 17  2  0  0  0  0
  7 12  1  0  0  0  0
  8 10  1  1  0  0  0
  8 16  1  0  0  0  0
 11 13  1  6  0  0  0
 11  7  1  0  0  0  0
 12  5  1  1  0  0  0
 13  4  2  0  0  0  0
 14 19  1  6  0  0  0
 14  3  1  0  0  0  0
 15 11  1  0  0  0  0
 16 20  1  0  0  0  0
 17 13  1  0  0  0  0
 18 19  2  0  0  0  0
 19  8  1  0  0  0  0
 20  9  1  0  0  0  0
 22 26  2  0  0  0  0
 22 25  1  0  0  0  0
 23 21  1  0  0  0  0
 24 23  1  0  0  0  0
 25 24  2  0  0  0  0
 26 27  1  0  0  0  0
 27 23  2  0  0  0  0
M  END
>  <MODEL>
8

>  <REMARK>
 VINA RESULT:      -4.8      3.300      4.781
  Name = 
  2 active torsions:
  status: ('A' for Active; 'I' for Inactive)
    1  A    between atoms: C_1  and  C_15
    2  A    between atoms: C_9  and  C_15
                            x       y       z     vdW  Elec       q    Type
                         _______ _______ _______ _____ _____    ______ ____

>  <TORSDO>
F 2

$$$$
=
 OpenBabel11052423203D

 27 32  0  0  1  0  0  0  0  0999 V2000
  158.3580  211.5790  137.5080 C   0  0  2  0  0  3  0  0  0  0  0  0
  158.6120  210.1750  138.0660 C   0  0  1  0  0  3  0  0  0  0  0  0
  159.8040  211.7710  139.4330 C   0  0  2  0  0  0  0  0  0  0  0  0
  161.5490  207.3630  138.5980 N   0  0  0  0  0  0  0  0  0  0  0  0
  162.1320  206.6580  140.8540 C   0  0  0  0  0  1  0  0  0  0  0  0
  158.8990  209.1270  137.0120 C   0  0  0  0  0  3  0  0  0  0  0  0
  162.0170  209.3590  140.3540 S   0  0  0  0  0  0  0  0  0  0  0  0
  160.8780  214.2510  138.4180 C   0  0  2  0  0  3  0  0  0  0  0  0
  159.7250  212.0560  140.9110 C   0  0  0  0  0  2  0  0  0  0  0  0
  161.8980  213.7150  137.6310 O   0  0  0  0  0  1  0  0  0  0  0  0
  160.6130  209.3640  139.2620 C   0  0  2  0  0  3  0  0  0  0  0  0
  162.4000  207.6610  139.7480 C   0  0  2  0  0  3  0  0  0  0  0  0
  160.6110  208.2180  138.3900 C   0  0  0  0  0  0  0  0  0  0  0  0
  158.8540  212.5880  138.5640 C   0  0  1  0  0  3  0  0  0  0  0  0
  159.7310  210.3460  139.0430 C   0  0  2  0  0  3  0  0  0  0  0  0
  161.0910  213.8900  139.8890 C   0  0  0  0  0  2  0  0  0  0  0  0
  159.7940  208.1990  137.2110 N   0  0  0  0  0  0  0  0  0  0  0  0
  158.9910  214.3760  137.0210 O   0  0  0  0  0  0  0  0  0  0  0  0
  159.5410  213.7720  137.9270 C   0  0  0  0  0  0  0  0  0  0  0  0
  161.0060  212.3840  140.1360 C   0  0  2  0  0  3  0  0  0  0  0  0
  156.8880  211.8010  137.1320 C   0  0  0  0  0  2  0  0  0  0  0  0
  154.1700  209.1400  139.1290 C   0  0  0  0  0  3  0  0  0  0  0  0
  155.9500  210.8690  137.8340 C   0  0  0  0  0  0  0  0  0  0  0  0
  155.4580  211.1910  139.1040 C   0  0  0  0  0  3  0  0  0  0  0  0
  154.5690  210.3280  139.7510 C   0  0  0  0  0  3  0  0  0  0  0  0
  154.6600  208.8170  137.8610 C   0  0  0  0  0  3  0  0  0  0  0  0
  155.5490  209.6800  137.2130 C   0  0  0  0  0  3  0  0  0  0  0  0
  1 21  1  1  0  0  0
  1  2  1  0  0  0  0
  1 14  1  0  0  0  0
  2  6  1  6  0  0  0
  2 15  1  0  0  0  0
  3 20  1  0  0  0  0
  3  9  1  1  0  0  0
  4 12  1  0  0  0  0
  6 17  2  0  0  0  0
  8 10  1  6  0  0  0
  8 16  1  0  0  0  0
 11 13  1  6  0  0  0
 11  7  1  0  0  0  0
 12  7  1  0  0  0  0
 12  5  1  1  0  0  0
 13  4  2  0  0  0  0
 14 19  1  6  0  0  0
 14  3  1  0  0  0  0
 15 11  1  0  0  0  0
 15  3  1  0  0  0  0
 16 20  1  0  0  0  0
 17 13  1  0  0  0  0
 18 19  2  0  0  0  0
 19  8  1  0  0  0  0
 20  9  1  0  0  0  0
 21 23  1  0  0  0  0
 22 25  1  0  0  0  0
 23 24  1  0  0  0  0
 24 25  2  0  0  0  0
 26 22  2  0  0  0  0
 27 23  2  0  0  0  0
 27 26  1  0  0  0  0
M  END
>  <MODEL>
9

>  <REMARK>
 VINA RESULT:      -4.4     14.068     16.357
  Name = 
  2 active torsions:
  status: ('A' for Active; 'I' for Inactive)
    1  A    between atoms: C_1  and  C_15
    2  A    between atoms: C_9  and  C_15
                            x       y       z     vdW  Elec       q    Type
                         _______ _______ _______ _____ _____    ______ ____

>  <TORSDO>
F 2

$$$$
