=
 OpenBabel11052423123D

 27 31  0  0  0  0  0  0  0  0999 V2000
  162.8410  207.6420  151.6150 C   0  0  0  0  0  2  0  0  0  0  0  0
  161.4440  205.6160  151.7350 C   0  0  0  0  0  0  0  0  0  0  0  0
  161.4460  206.3490  149.3150 N   0  0  0  0  0  2  0  0  0  0  0  0
  160.7340  201.5320  150.2510 S   0  0  0  0  0  0  0  0  0  0  0  0
  160.6560  201.2600  147.4490 C   0  0  0  0  0  1  0  0  0  0  0  0
  161.2730  204.5970  152.6340 N   0  0  0  0  0  0  0  0  0  0  0  0
  161.0560  203.4780  148.6700 C   0  0  0  0  0  0  0  0  0  0  0  0
  161.5140  209.9100  148.2390 C   0  0  0  0  0  3  0  0  0  0  0  0
  161.1750  204.2320  147.5080 O   0  0  0  0  0  1  0  0  0  0  0  0
  162.1440  210.5360  149.3140 C   0  0  0  0  0  0  0  0  0  0  0  0
  161.1640  204.0080  149.9660 C   0  0  0  0  0  0  0  0  0  0  0  0
  161.7340  206.9290  152.2280 N   0  0  0  0  0  0  0  0  0  0  0  0
  160.8180  202.1040  148.6620 C   0  0  0  0  0  0  0  0  0  0  0  0
  161.0060  203.0400  150.9360 C   0  0  0  0  0  0  0  0  0  0  0  0
  162.3440  208.4000  150.4450 C   0  0  0  0  0  0  0  0  0  0  0  0
  161.3900  205.3400  150.3420 C   0  0  0  0  0  0  0  0  0  0  0  0
  161.2930  208.5310  148.2680 C   0  0  0  0  0  3  0  0  0  0  0  0
  161.0550  203.3370  152.2520 N   0  0  0  0  0  0  0  0  0  0  0  0
  162.3690  211.9400  149.2880 N   0  0  0  0  0  1  0  0  0  0  0  0
  162.5640  209.7820  150.4110 C   0  0  0  0  0  3  0  0  0  0  0  0
  161.6910  207.7640  149.3710 C   0  0  0  0  0  0  0  0  0  0  0  0
  159.5900  208.6740  155.4650 C   0  0  0  0  0  3  0  0  0  0  0  0
  160.9950  207.5210  153.3200 C   0  0  0  0  0  0  0  0  0  0  0  0
  160.6330  208.8780  153.2910 C   0  0  0  0  0  3  0  0  0  0  0  0
  159.9330  209.4510  154.3560 C   0  0  0  0  0  3  0  0  0  0  0  0
  159.9490  207.3250  155.5100 C   0  0  0  0  0  3  0  0  0  0  0  0
  160.6480  206.7520  154.4440 C   0  0  0  0  0  3  0  0  0  0  0  0
  1 12  1  0  0  0  0
  2 12  1  0  0  0  0
  2  6  1  0  0  0  0
  3 21  1  0  0  0  0
  3 16  1  0  0  0  0
  4 14  1  0  0  0  0
  5 13  1  0  0  0  0
  7 11  1  0  0  0  0
  8 17  2  0  0  0  0
  8 10  1  0  0  0  0
  9  7  1  0  0  0  0
 10 20  2  0  0  0  0
 11 16  1  0  0  0  0
 11 14  2  0  0  0  0
 12 23  1  0  0  0  0
 13  7  2  0  0  0  0
 13  4  1  0  0  0  0
 14 18  1  0  0  0  0
 15  1  1  0  0  0  0
 16  2  2  0  0  0  0
 17 21  1  0  0  0  0
 18  6  2  0  0  0  0
 19 10  1  0  0  0  0
 20 15  1  0  0  0  0
 21 15  2  0  0  0  0
 22 26  1  0  0  0  0
 23 27  1  0  0  0  0
 24 23  2  0  0  0  0
 24 25  1  0  0  0  0
 25 22  2  0  0  0  0
 27 26  2  0  0  0  0
M  END
>  <MODEL>
1

>  <REMARK>
 VINA RESULT:      -7.4      0.000      0.000
  Name = 
  1 active torsions:
  status: ('A' for Active; 'I' for Inactive)
    1  A    between atoms: C_9  and  N_15
                            x       y       z     vdW  Elec       q    Type
                         _______ _______ _______ _____ _____    ______ ____

>  <TORSDO>
F 1

$$$$
=
 OpenBabel11052423123D

 27 31  0  0  0  0  0  0  0  0999 V2000
  162.6430  209.2120  151.6560 C   0  0  0  0  0  2  0  0  0  0  0  0
  161.3060  207.1770  152.0330 C   0  0  0  0  0  0  0  0  0  0  0  0
  161.4830  207.4700  149.5280 N   0  0  0  0  0  2  0  0  0  0  0  0
  160.8490  202.8670  151.2600 S   0  0  0  0  0  0  0  0  0  0  0  0
  161.0100  202.1010  148.5540 C   0  0  0  0  0  1  0  0  0  0  0  0
  161.0940  206.3270  153.0850 N   0  0  0  0  0  0  0  0  0  0  0  0
  161.2380  204.5150  149.3820 C   0  0  0  0  0  0  0  0  0  0  0  0
  161.5260  210.7840  147.8380 C   0  0  0  0  0  3  0  0  0  0  0  0
  161.4280  205.0570  148.1160 O   0  0  0  0  0  1  0  0  0  0  0  0
  162.0460  211.6190  148.8270 C   0  0  0  0  0  0  0  0  0  0  0  0
  161.2230  205.2700  150.5670 C   0  0  0  0  0  0  0  0  0  0  0  0
  161.5130  208.5690  152.3020 N   0  0  0  0  0  0  0  0  0  0  0  0
  161.0450  203.1530  149.6040 C   0  0  0  0  0  0  0  0  0  0  0  0
  161.0160  204.4830  151.6800 C   0  0  0  0  0  0  0  0  0  0  0  0
  162.2200  209.7280  150.3350 C   0  0  0  0  0  0  0  0  0  0  0  0
  161.3750  206.6570  150.7130 C   0  0  0  0  0  0  0  0  0  0  0  0
  161.3470  209.4230  148.0970 C   0  0  0  0  0  3  0  0  0  0  0  0
  160.9480  205.0100  152.9210 N   0  0  0  0  0  0  0  0  0  0  0  0
  162.2280  213.0040  148.5650 N   0  0  0  0  0  1  0  0  0  0  0  0
  162.3980  211.0900  150.0690 C   0  0  0  0  0  3  0  0  0  0  0  0
  161.6770  208.8820  149.3470 C   0  0  0  0  0  0  0  0  0  0  0  0
  159.0570  210.7720  154.9910 C   0  0  0  0  0  3  0  0  0  0  0  0
  160.6680  209.3090  153.2110 C   0  0  0  0  0  0  0  0  0  0  0  0
  159.8260  210.3310  152.7400 C   0  0  0  0  0  3  0  0  0  0  0  0
  159.0230  211.0570  153.6240 C   0  0  0  0  0  3  0  0  0  0  0  0
  159.8940  209.7640  155.4750 C   0  0  0  0  0  3  0  0  0  0  0  0
  160.6960  209.0380  154.5900 C   0  0  0  0  0  3  0  0  0  0  0  0
  1 12  1  0  0  0  0
  2 12  1  0  0  0  0
  2  6  1  0  0  0  0
  3 16  1  0  0  0  0
  4 14  1  0  0  0  0
  5 13  1  0  0  0  0
  7 13  2  0  0  0  0
  7 11  1  0  0  0  0
  8 17  2  0  0  0  0
  8 10  1  0  0  0  0
  9  7  1  0  0  0  0
 10 20  2  0  0  0  0
 11 16  1  0  0  0  0
 11 14  2  0  0  0  0
 12 23  1  0  0  0  0
 13  4  1  0  0  0  0
 14 18  1  0  0  0  0
 15  1  1  0  0  0  0
 16  2  2  0  0  0  0
 17 21  1  0  0  0  0
 18  6  2  0  0  0  0
 19 10  1  0  0  0  0
 20 15  1  0  0  0  0
 21  3  1  0  0  0  0
 21 15  2  0  0  0  0
 22 26  1  0  0  0  0
 23 27  1  0  0  0  0
 24 23  2  0  0  0  0
 24 25  1  0  0  0  0
 25 22  2  0  0  0  0
 27 26  2  0  0  0  0
M  END
>  <MODEL>
2

>  <REMARK>
 VINA RESULT:      -7.4      1.225      1.585
  Name = 
  1 active torsions:
  status: ('A' for Active; 'I' for Inactive)
    1  A    between atoms: C_9  and  N_15
                            x       y       z     vdW  Elec       q    Type
                         _______ _______ _______ _____ _____    ______ ____

>  <TORSDO>
F 1

$$$$
=
 OpenBabel11052423123D

 27 31  0  0  0  0  0  0  0  0999 V2000
  162.8170  209.1510  150.2120 C   0  0  0  0  0  2  0  0  0  0  0  0
  161.6110  209.9490  152.2070 C   0  0  0  0  0  0  0  0  0  0  0  0
  160.9860  207.5170  151.9110 N   0  0  0  0  0  2  0  0  0  0  0  0
  160.8030  209.3890  156.4990 S   0  0  0  0  0  0  0  0  0  0  0  0
  160.0670  206.7800  157.2600 C   0  0  0  0  0  1  0  0  0  0  0  0
  161.7220  211.0190  153.0550 N   0  0  0  0  0  0  0  0  0  0  0  0
  160.6200  207.4760  154.8570 C   0  0  0  0  0  0  0  0  0  0  0  0
  160.5840  205.8800  148.5950 C   0  0  0  0  0  3  0  0  0  0  0  0
  160.4110  206.2120  154.3170 O   0  0  0  0  0  1  0  0  0  0  0  0
  161.4170  206.6460  147.7790 C   0  0  0  0  0  0  0  0  0  0  0  0
  161.0060  208.5980  154.1060 C   0  0  0  0  0  0  0  0  0  0  0  0
  161.9340  210.1290  150.8230 N   0  0  0  0  0  0  0  0  0  0  0  0
  160.4670  207.7570  156.2140 C   0  0  0  0  0  0  0  0  0  0  0  0
  161.1440  209.7240  154.8900 C   0  0  0  0  0  0  0  0  0  0  0  0
  162.0090  208.0310  149.6790 C   0  0  0  0  0  0  0  0  0  0  0  0
  161.2380  208.6790  152.7250 C   0  0  0  0  0  0  0  0  0  0  0  0
  160.4570  206.1920  149.9500 C   0  0  0  0  0  3  0  0  0  0  0  0
  161.4920  210.9180  154.3650 N   0  0  0  0  0  0  0  0  0  0  0  0
  161.5470  206.3310  146.3990 N   0  0  0  0  0  1  0  0  0  0  0  0
  162.1330  207.7140  148.3220 C   0  0  0  0  0  3  0  0  0  0  0  0
  161.1530  207.2740  150.5050 C   0  0  0  0  0  0  0  0  0  0  0  0
  160.5230  213.4720  148.5980 C   0  0  0  0  0  3  0  0  0  0  0  0
  161.4470  211.2550  150.0610 C   0  0  0  0  0  0  0  0  0  0  0  0
  161.9080  211.4940  148.7550 C   0  0  0  0  0  3  0  0  0  0  0  0
  161.4480  212.5940  148.0270 C   0  0  0  0  0  3  0  0  0  0  0  0
  160.0610  213.2510  149.8970 C   0  0  0  0  0  3  0  0  0  0  0  0
  160.5210  212.1500  150.6250 C   0  0  0  0  0  3  0  0  0  0  0  0
  1 12  1  0  0  0  0
  2 16  2  0  0  0  0
  2  6  1  0  0  0  0
  3 16  1  0  0  0  0
  6 18  2  0  0  0  0
  7 13  2  0  0  0  0
  8 17  1  0  0  0  0
  9  7  1  0  0  0  0
 10 20  1  0  0  0  0
 10  8  2  0  0  0  0
 11  7  1  0  0  0  0
 11 14  2  0  0  0  0
 12  2  1  0  0  0  0
 13  4  1  0  0  0  0
 13  5  1  0  0  0  0
 14  4  1  0  0  0  0
 15  1  1  0  0  0  0
 15 21  1  0  0  0  0
 16 11  1  0  0  0  0
 17 21  2  0  0  0  0
 18 14  1  0  0  0  0
 19 10  1  0  0  0  0
 20 15  2  0  0  0  0
 21  3  1  0  0  0  0
 22 26  1  0  0  0  0
 23 27  1  0  0  0  0
 23 12  1  0  0  0  0
 24 23  2  0  0  0  0
 25 22  2  0  0  0  0
 25 24  1  0  0  0  0
 26 27  2  0  0  0  0
M  END
>  <MODEL>
3

>  <REMARK>
 VINA RESULT:      -6.7      3.212      6.292
  Name = 
  1 active torsions:
  status: ('A' for Active; 'I' for Inactive)
    1  A    between atoms: C_9  and  N_15
                            x       y       z     vdW  Elec       q    Type
                         _______ _______ _______ _____ _____    ______ ____

>  <TORSDO>
F 1

$$$$
=
 OpenBabel11052423123D

 27 31  0  0  0  0  0  0  0  0999 V2000
  162.3660  207.5170  153.0260 C   0  0  0  0  0  2  0  0  0  0  0  0
  161.7940  208.3960  150.7970 C   0  0  0  0  0  0  0  0  0  0  0  0
  160.7510  209.9670  152.4810 N   0  0  0  0  0  2  0  0  0  0  0  0
  161.9290  211.8250  148.0370 S   0  0  0  0  0  0  0  0  0  0  0  0
  160.9980  214.2640  149.0940 C   0  0  0  0  0  1  0  0  0  0  0  0
  162.2620  208.2130  149.5230 N   0  0  0  0  0  0  0  0  0  0  0  0
  161.0770  212.0640  150.4060 C   0  0  0  0  0  0  0  0  0  0  0  0
  159.3430  208.8560  155.7410 C   0  0  0  0  0  3  0  0  0  0  0  0
  160.5570  212.6060  151.5760 O   0  0  0  0  0  1  0  0  0  0  0  0
  160.0720  207.6960  156.0030 C   0  0  0  0  0  0  0  0  0  0  0  0
  161.4470  210.7170  150.2590 C   0  0  0  0  0  0  0  0  0  0  0  0
  161.8110  207.2880  151.7040 N   0  0  0  0  0  0  0  0  0  0  0  0
  161.2890  212.8150  149.2500 C   0  0  0  0  0  0  0  0  0  0  0  0
  161.9340  210.4480  148.9970 C   0  0  0  0  0  0  0  0  0  0  0  0
  161.2940  207.9930  153.9300 C   0  0  0  0  0  0  0  0  0  0  0  0
  161.3610  209.6870  151.2070 C   0  0  0  0  0  0  0  0  0  0  0  0
  159.5840  209.5820  154.5720 C   0  0  0  0  0  3  0  0  0  0  0  0
  162.3300  209.2090  148.6370 N   0  0  0  0  0  0  0  0  0  0  0  0
  159.8280  206.9540  157.1910 N   0  0  0  0  0  1  0  0  0  0  0  0
  161.0490  207.2700  155.1020 C   0  0  0  0  0  3  0  0  0  0  0  0
  160.5480  209.1550  153.6490 C   0  0  0  0  0  0  0  0  0  0  0  0
  160.4570  203.4170  150.5650 C   0  0  0  0  0  3  0  0  0  0  0  0
  161.3390  205.9770  151.3230 C   0  0  0  0  0  0  0  0  0  0  0  0
  161.3020  204.9270  152.2560 C   0  0  0  0  0  3  0  0  0  0  0  0
  160.8610  203.6550  151.8810 C   0  0  0  0  0  3  0  0  0  0  0  0
  160.4950  204.4500  149.6250 C   0  0  0  0  0  3  0  0  0  0  0  0
  160.9350  205.7210  150.0020 C   0  0  0  0  0  3  0  0  0  0  0  0
  1 15  1  0  0  0  0
  2 16  1  0  0  0  0
  2 12  1  0  0  0  0
  3 21  1  0  0  0  0
  4 14  1  0  0  0  0
  4 13  1  0  0  0  0
  5 13  1  0  0  0  0
  6  2  2  0  0  0  0
  7  9  1  0  0  0  0
  8 10  1  0  0  0  0
 10 19  1  0  0  0  0
 11  7  1  0  0  0  0
 11 16  2  0  0  0  0
 12  1  1  0  0  0  0
 13  7  2  0  0  0  0
 14 11  1  0  0  0  0
 15 20  1  0  0  0  0
 16  3  1  0  0  0  0
 17  8  2  0  0  0  0
 18 14  2  0  0  0  0
 18  6  1  0  0  0  0
 20 10  2  0  0  0  0
 21 15  2  0  0  0  0
 21 17  1  0  0  0  0
 22 25  1  0  0  0  0
 23 12  1  0  0  0  0
 23 24  1  0  0  0  0
 25 24  2  0  0  0  0
 26 27  1  0  0  0  0
 26 22  2  0  0  0  0
 27 23  2  0  0  0  0
M  END
>  <MODEL>
4

>  <REMARK>
 VINA RESULT:      -6.6      3.271      6.935
  Name = 
  1 active torsions:
  status: ('A' for Active; 'I' for Inactive)
    1  A    between atoms: C_9  and  N_15
                            x       y       z     vdW  Elec       q    Type
                         _______ _______ _______ _____ _____    ______ ____

>  <TORSDO>
F 1

$$$$
=
 OpenBabel11052423123D

 27 31  0  0  0  0  0  0  0  0999 V2000
  161.1590  211.1760  137.2480 C   0  0  0  0  0  2  0  0  0  0  0  0
  159.0940  210.3840  138.3340 C   0  0  0  0  0  0  0  0  0  0  0  0
  159.5680  212.6830  139.2740 N   0  0  0  0  0  2  0  0  0  0  0  0
  154.8480  211.1650  139.1990 S   0  0  0  0  0  0  0  0  0  0  0  0
  154.2800  213.7060  140.2700 C   0  0  0  0  0  1  0  0  0  0  0  0
  158.1690  209.4070  138.0810 N   0  0  0  0  0  0  0  0  0  0  0  0
  156.6300  212.9040  139.6360 C   0  0  0  0  0  0  0  0  0  0  0  0
  162.9950  213.9900  139.8950 C   0  0  0  0  0  3  0  0  0  0  0  0
  157.2630  214.0840  140.0110 O   0  0  0  0  0  1  0  0  0  0  0  0
  163.7600  213.2800  138.9700 C   0  0  0  0  0  0  0  0  0  0  0  0
  157.2980  211.7870  139.1060 C   0  0  0  0  0  0  0  0  0  0  0  0
  160.4640  210.1410  137.9930 N   0  0  0  0  0  0  0  0  0  0  0  0
  155.2540  212.7120  139.7470 C   0  0  0  0  0  0  0  0  0  0  0  0
  156.4310  210.7530  138.8200 C   0  0  0  0  0  0  0  0  0  0  0  0
  161.7660  212.1360  138.1970 C   0  0  0  0  0  0  0  0  0  0  0  0
  158.6710  211.6300  138.8690 C   0  0  0  0  0  0  0  0  0  0  0  0
  161.6180  213.7710  139.9770 C   0  0  0  0  0  3  0  0  0  0  0  0
  156.8670  209.5780  138.3190 N   0  0  0  0  0  0  0  0  0  0  0  0
  165.1620  213.5000  138.8860 N   0  0  0  0  0  1  0  0  0  0  0  0
  163.1450  212.3600  138.1190 C   0  0  0  0  0  3  0  0  0  0  0  0
  160.9900  212.8360  139.1430 C   0  0  0  0  0  0  0  0  0  0  0  0
  162.4670  206.5170  138.9770 C   0  0  0  0  0  3  0  0  0  0  0  0
  161.1320  208.9050  138.3290 C   0  0  0  0  0  0  0  0  0  0  0  0
  161.2950  208.5170  139.6700 C   0  0  0  0  0  3  0  0  0  0  0  0
  161.9560  207.3290  139.9920 C   0  0  0  0  0  3  0  0  0  0  0  0
  162.3180  206.8930  137.6400 C   0  0  0  0  0  3  0  0  0  0  0  0
  161.6560  208.0810  137.3180 C   0  0  0  0  0  3  0  0  0  0  0  0
  1 12  1  0  0  0  0
  1 15  1  0  0  0  0
  2 16  1  0  0  0  0
  4 13  1  0  0  0  0
  6 18  1  0  0  0  0
  6  2  2  0  0  0  0
  7 13  2  0  0  0  0
  7  9  1  0  0  0  0
  8 17  1  0  0  0  0
 10  8  2  0  0  0  0
 11  7  1  0  0  0  0
 12 23  1  0  0  0  0
 12  2  1  0  0  0  0
 13  5  1  0  0  0  0
 14 11  1  0  0  0  0
 14  4  1  0  0  0  0
 15 21  1  0  0  0  0
 16 11  2  0  0  0  0
 16  3  1  0  0  0  0
 18 14  2  0  0  0  0
 19 10  1  0  0  0  0
 20 15  2  0  0  0  0
 20 10  1  0  0  0  0
 21  3  1  0  0  0  0
 21 17  2  0  0  0  0
 22 25  1  0  0  0  0
 23 24  1  0  0  0  0
 24 25  2  0  0  0  0
 26 22  2  0  0  0  0
 27 26  1  0  0  0  0
 27 23  2  0  0  0  0
M  END
>  <MODEL>
5

>  <REMARK>
 VINA RESULT:      -6.0     12.364     14.101
  Name = 
  1 active torsions:
  status: ('A' for Active; 'I' for Inactive)
    1  A    between atoms: C_9  and  N_15
                            x       y       z     vdW  Elec       q    Type
                         _______ _______ _______ _____ _____    ______ ____

>  <TORSDO>
F 1

$$$$
=
 OpenBabel11052423123D

 27 31  0  0  0  0  0  0  0  0999 V2000
  160.8900  211.3080  138.6420 C   0  0  0  0  0  2  0  0  0  0  0  0
  158.8450  209.9710  138.3240 C   0  0  0  0  0  0  0  0  0  0  0  0
  158.2680  211.7890  139.9840 N   0  0  0  0  0  2  0  0  0  0  0  0
  154.5830  209.9560  137.2190 S   0  0  0  0  0  0  0  0  0  0  0  0
  152.9810  211.8480  138.5560 C   0  0  0  0  0  1  0  0  0  0  0  0
  158.3980  209.0730  137.3920 N   0  0  0  0  0  0  0  0  0  0  0  0
  155.5010  211.5720  138.9330 C   0  0  0  0  0  0  0  0  0  0  0  0
  160.6550  213.0980  142.5200 C   0  0  0  0  0  3  0  0  0  0  0  0
  155.5890  212.5830  139.8830 O   0  0  0  0  0  1  0  0  0  0  0  0
  161.8910  212.8610  141.9190 C   0  0  0  0  0  0  0  0  0  0  0  0
  156.5930  210.8040  138.4980 C   0  0  0  0  0  0  0  0  0  0  0  0
  160.2430  210.0070  138.6320 N   0  0  0  0  0  0  0  0  0  0  0  0
  154.3050  211.2200  138.3080 C   0  0  0  0  0  0  0  0  0  0  0  0
  156.2260  209.8710  137.5500 C   0  0  0  0  0  0  0  0  0  0  0  0
  160.7740  211.8990  139.9940 C   0  0  0  0  0  0  0  0  0  0  0  0
  157.9290  210.8810  138.9180 C   0  0  0  0  0  0  0  0  0  0  0  0
  159.4790  212.7310  141.8630 C   0  0  0  0  0  3  0  0  0  0  0  0
  157.1200  209.0160  137.0110 N   0  0  0  0  0  0  0  0  0  0  0  0
  163.0900  213.2320  142.5870 N   0  0  0  0  0  1  0  0  0  0  0  0
  161.9490  212.2690  140.6570 C   0  0  0  0  0  3  0  0  0  0  0  0
  159.5220  212.1170  140.6040 C   0  0  0  0  0  0  0  0  0  0  0  0
  162.5250  206.4880  139.3570 C   0  0  0  0  0  3  0  0  0  0  0  0
  161.0060  208.8060  138.8810 C   0  0  0  0  0  0  0  0  0  0  0  0
  161.3200  208.4120  140.1930 C   0  0  0  0  0  3  0  0  0  0  0  0
  162.0720  207.2590  140.4310 C   0  0  0  0  0  3  0  0  0  0  0  0
  162.2270  206.8710  138.0470 C   0  0  0  0  0  3  0  0  0  0  0  0
  161.4740  208.0240  137.8110 C   0  0  0  0  0  3  0  0  0  0  0  0
  1 15  1  0  0  0  0
  2 12  1  0  0  0  0
  2 16  1  0  0  0  0
  3 21  1  0  0  0  0
  4 14  1  0  0  0  0
  4 13  1  0  0  0  0
  6  2  2  0  0  0  0
  7  9  1  0  0  0  0
 10  8  1  0  0  0  0
 10 19  1  0  0  0  0
 11 16  2  0  0  0  0
 11  7  1  0  0  0  0
 12  1  1  0  0  0  0
 12 23  1  0  0  0  0
 13  5  1  0  0  0  0
 13  7  2  0  0  0  0
 14 11  1  0  0  0  0
 15 21  2  0  0  0  0
 15 20  1  0  0  0  0
 16  3  1  0  0  0  0
 17  8  2  0  0  0  0
 18  6  1  0  0  0  0
 18 14  2  0  0  0  0
 20 10  2  0  0  0  0
 21 17  1  0  0  0  0
 22 25  1  0  0  0  0
 23 24  1  0  0  0  0
 24 25  2  0  0  0  0
 26 22  2  0  0  0  0
 27 26  1  0  0  0  0
 27 23  2  0  0  0  0
M  END
>  <MODEL>
6

>  <REMARK>
 VINA RESULT:      -5.7     11.123     13.573
  Name = 
  1 active torsions:
  status: ('A' for Active; 'I' for Inactive)
    1  A    between atoms: C_9  and  N_15
                            x       y       z     vdW  Elec       q    Type
                         _______ _______ _______ _____ _____    ______ ____

>  <TORSDO>
F 1

$$$$
=
 OpenBabel11052423123D

 27 31  0  0  0  0  0  0  0  0999 V2000
  162.7620  204.8890  148.6360 C   0  0  0  0  0  2  0  0  0  0  0  0
  161.9230  207.2000  148.8010 C   0  0  0  0  0  0  0  0  0  0  0  0
  160.9990  205.9530  150.7970 N   0  0  0  0  0  2  0  0  0  0  0  0
  161.6270  210.8520  151.2440 S   0  0  0  0  0  0  0  0  0  0  0  0
  160.7120  210.4710  153.8800 C   0  0  0  0  0  1  0  0  0  0  0  0
  162.2620  208.4060  148.2470 N   0  0  0  0  0  0  0  0  0  0  0  0
  161.0190  208.5820  152.1770 C   0  0  0  0  0  0  0  0  0  0  0  0
  159.9880  202.3740  150.7050 C   0  0  0  0  0  3  0  0  0  0  0  0
  160.6030  207.5750  153.0400 O   0  0  0  0  0  1  0  0  0  0  0  0
  160.7870  201.8630  149.6830 C   0  0  0  0  0  0  0  0  0  0  0  0
  161.4260  208.3610  150.8500 C   0  0  0  0  0  0  0  0  0  0  0  0
  162.0800  206.0120  148.0170 N   0  0  0  0  0  0  0  0  0  0  0  0
  161.0780  209.9240  152.5470 C   0  0  0  0  0  0  0  0  0  0  0  0
  161.7890  209.5330  150.2190 C   0  0  0  0  0  0  0  0  0  0  0  0
  161.7720  204.0540  149.3530 C   0  0  0  0  0  0  0  0  0  0  0  0
  161.4830  207.1470  150.1510 C   0  0  0  0  0  0  0  0  0  0  0  0
  160.0750  203.7250  151.0480 C   0  0  0  0  0  3  0  0  0  0  0  0
  162.1960  209.5500  148.9320 N   0  0  0  0  0  0  0  0  0  0  0  0
  160.7000  200.4880  149.3300 N   0  0  0  0  0  1  0  0  0  0  0  0
  161.6810  202.6990  149.0140 C   0  0  0  0  0  3  0  0  0  0  0  0
  160.9530  204.5820  150.3720 C   0  0  0  0  0  0  0  0  0  0  0  0
  160.7370  205.7290  143.9880 C   0  0  0  0  0  3  0  0  0  0  0  0
  161.6250  205.9300  146.6480 C   0  0  0  0  0  0  0  0  0  0  0  0
  160.3050  206.2680  146.3070 C   0  0  0  0  0  3  0  0  0  0  0  0
  159.8630  206.1710  144.9850 C   0  0  0  0  0  3  0  0  0  0  0  0
  162.0500  205.3830  144.3130 C   0  0  0  0  0  3  0  0  0  0  0  0
  162.4910  205.4820  145.6350 C   0  0  0  0  0  3  0  0  0  0  0  0
  1 15  1  0  0  0  0
  2 16  1  0  0  0  0
  4 13  1  0  0  0  0
  6  2  2  0  0  0  0
  6 18  1  0  0  0  0
  7 13  2  0  0  0  0
  7  9  1  0  0  0  0
  8 17  1  0  0  0  0
 10  8  2  0  0  0  0
 11  7  1  0  0  0  0
 12  1  1  0  0  0  0
 12  2  1  0  0  0  0
 13  5  1  0  0  0  0
 14 11  1  0  0  0  0
 14  4  1  0  0  0  0
 15 21  1  0  0  0  0
 16  3  1  0  0  0  0
 16 11  2  0  0  0  0
 18 14  2  0  0  0  0
 19 10  1  0  0  0  0
 20 15  2  0  0  0  0
 20 10  1  0  0  0  0
 21  3  1  0  0  0  0
 21 17  2  0  0  0  0
 22 26  2  0  0  0  0
 22 25  1  0  0  0  0
 23 12  1  0  0  0  0
 24 23  1  0  0  0  0
 25 24  2  0  0  0  0
 26 27  1  0  0  0  0
 27 23  2  0  0  0  0
M  END
>  <MODEL>
7

>  <REMARK>
 VINA RESULT:      -5.0      3.262      7.518
  Name = 
  1 active torsions:
  status: ('A' for Active; 'I' for Inactive)
    1  A    between atoms: C_9  and  N_15
                            x       y       z     vdW  Elec       q    Type
                         _______ _______ _______ _____ _____    ______ ____

>  <TORSDO>
F 1

$$$$
=
 OpenBabel11052423123D

 27 31  0  0  0  0  0  0  0  0999 V2000
  159.6800  209.4820  152.7340 C   0  0  0  0  0  2  0  0  0  0  0  0
  160.5260  211.6620  151.9570 C   0  0  0  0  0  0  0  0  0  0  0  0
  161.5810  209.9080  150.4730 N   0  0  0  0  0  2  0  0  0  0  0  0
  160.9780  214.4520  148.5810 S   0  0  0  0  0  0  0  0  0  0  0  0
  162.0650  213.3410  146.2330 C   0  0  0  0  0  1  0  0  0  0  0  0
  160.1500  212.9690  152.1140 N   0  0  0  0  0  0  0  0  0  0  0  0
  161.6490  212.0210  148.3890 C   0  0  0  0  0  0  0  0  0  0  0  0
  162.5880  206.5310  151.6660 C   0  0  0  0  0  3  0  0  0  0  0  0
  162.1230  210.8160  147.8840 O   0  0  0  0  0  1  0  0  0  0  0  0
  161.7240  206.3220  152.7410 C   0  0  0  0  0  0  0  0  0  0  0  0
  161.1550  212.1880  149.6940 C   0  0  0  0  0  0  0  0  0  0  0  0
  160.3180  210.7500  153.0420 N   0  0  0  0  0  0  0  0  0  0  0  0
  161.6130  213.1970  147.6420 C   0  0  0  0  0  0  0  0  0  0  0  0
  160.7500  213.4840  149.9340 C   0  0  0  0  0  0  0  0  0  0  0  0
  160.7170  208.4940  152.3560 C   0  0  0  0  0  0  0  0  0  0  0  0
  161.0540  211.2280  150.7120 C   0  0  0  0  0  0  0  0  0  0  0  0
  162.5220  207.7220  150.9400 C   0  0  0  0  0  3  0  0  0  0  0  0
  160.2590  213.8660  151.1320 N   0  0  0  0  0  0  0  0  0  0  0  0
  161.7890  205.1110  153.4830 N   0  0  0  0  0  1  0  0  0  0  0  0
  160.7860  207.2990  153.0800 C   0  0  0  0  0  3  0  0  0  0  0  0
  161.6000  208.7200  151.2810 C   0  0  0  0  0  0  0  0  0  0  0  0
  161.3650  211.6870  157.0600 C   0  0  0  0  0  3  0  0  0  0  0  0
  160.6820  211.0780  154.4020 C   0  0  0  0  0  0  0  0  0  0  0  0
  161.9020  210.6410  154.9450 C   0  0  0  0  0  3  0  0  0  0  0  0
  162.2430  210.9450  156.2660 C   0  0  0  0  0  3  0  0  0  0  0  0
  160.1460  212.1220  156.5350 C   0  0  0  0  0  3  0  0  0  0  0  0
  159.8060  211.8180  155.2140 C   0  0  0  0  0  3  0  0  0  0  0  0
  1 12  1  0  0  0  0
  2  6  1  0  0  0  0
  2 12  1  0  0  0  0
  3 16  1  0  0  0  0
  3 21  1  0  0  0  0
  4 14  1  0  0  0  0
  5 13  1  0  0  0  0
  7 11  1  0  0  0  0
  8 10  1  0  0  0  0
  9  7  1  0  0  0  0
 10 20  2  0  0  0  0
 10 19  1  0  0  0  0
 11 14  2  0  0  0  0
 11 16  1  0  0  0  0
 12 23  1  0  0  0  0
 13  7  2  0  0  0  0
 13  4  1  0  0  0  0
 14 18  1  0  0  0  0
 15  1  1  0  0  0  0
 15 20  1  0  0  0  0
 16  2  2  0  0  0  0
 17 21  1  0  0  0  0
 17  8  2  0  0  0  0
 18  6  2  0  0  0  0
 21 15  2  0  0  0  0
 23 24  2  0  0  0  0
 23 27  1  0  0  0  0
 24 25  1  0  0  0  0
 25 22  2  0  0  0  0
 26 22  1  0  0  0  0
 27 26  2  0  0  0  0
M  END
>  <MODEL>
8

>  <REMARK>
 VINA RESULT:      -4.9      3.965      6.926
  Name = 
  1 active torsions:
  status: ('A' for Active; 'I' for Inactive)
    1  A    between atoms: C_9  and  N_15
                            x       y       z     vdW  Elec       q    Type
                         _______ _______ _______ _____ _____    ______ ____

>  <TORSDO>
F 1

$$$$
=
 OpenBabel11052423123D

 27 31  0  0  0  0  0  0  0  0999 V2000
  159.7980  205.6090  149.7670 C   0  0  0  0  0  2  0  0  0  0  0  0
  160.6910  205.8190  152.0540 C   0  0  0  0  0  0  0  0  0  0  0  0
  161.6980  207.7090  150.7100 N   0  0  0  0  0  2  0  0  0  0  0  0
  161.1940  208.3860  155.5960 S   0  0  0  0  0  0  0  0  0  0  0  0
  162.2450  210.9500  155.0910 C   0  0  0  0  0  1  0  0  0  0  0  0
  160.3460  205.3340  153.2870 N   0  0  0  0  0  0  0  0  0  0  0  0
  161.8070  209.1920  153.2790 C   0  0  0  0  0  0  0  0  0  0  0  0
  162.6300  207.4170  147.1200 C   0  0  0  0  0  3  0  0  0  0  0  0
  162.2500  209.9900  152.2300 O   0  0  0  0  0  1  0  0  0  0  0  0
  161.7660  206.4210  146.6650 C   0  0  0  0  0  0  0  0  0  0  0  0
  161.3230  207.8830  153.1210 C   0  0  0  0  0  0  0  0  0  0  0  0
  160.4660  204.9980  150.9020 N   0  0  0  0  0  0  0  0  0  0  0  0
  161.7960  209.6180  154.6060 C   0  0  0  0  0  0  0  0  0  0  0  0
  160.9500  207.3200  154.3230 C   0  0  0  0  0  0  0  0  0  0  0  0
  160.8080  206.2350  148.8850 C   0  0  0  0  0  0  0  0  0  0  0  0
  161.2030  207.1400  151.9370 C   0  0  0  0  0  0  0  0  0  0  0  0
  162.5890  207.8190  148.4570 C   0  0  0  0  0  3  0  0  0  0  0  0
  160.4730  206.0590  154.4010 N   0  0  0  0  0  0  0  0  0  0  0  0
  161.8060  206.0100  145.3050 N   0  0  0  0  0  1  0  0  0  0  0  0
  160.8530  205.8370  147.5450 C   0  0  0  0  0  3  0  0  0  0  0  0
  161.6920  207.2270  149.3560 C   0  0  0  0  0  0  0  0  0  0  0  0
  161.6040  200.8980  150.7730 C   0  0  0  0  0  3  0  0  0  0  0  0
  160.8430  203.6030  150.8680 C   0  0  0  0  0  0  0  0  0  0  0  0
  161.6920  203.0630  151.8490 C   0  0  0  0  0  3  0  0  0  0  0  0
  162.0680  201.7190  151.8040 C   0  0  0  0  0  3  0  0  0  0  0  0
  160.7650  201.4230  149.7870 C   0  0  0  0  0  3  0  0  0  0  0  0
  160.3890  202.7680  149.8340 C   0  0  0  0  0  3  0  0  0  0  0  0
  1 12  1  0  0  0  0
  2  6  1  0  0  0  0
  3 16  1  0  0  0  0
  6 18  2  0  0  0  0
  7 13  2  0  0  0  0
  8 17  1  0  0  0  0
  9  7  1  0  0  0  0
 10  8  2  0  0  0  0
 10 20  1  0  0  0  0
 11  7  1  0  0  0  0
 11 14  2  0  0  0  0
 12  2  1  0  0  0  0
 13  5  1  0  0  0  0
 13  4  1  0  0  0  0
 14 18  1  0  0  0  0
 14  4  1  0  0  0  0
 15 21  1  0  0  0  0
 15  1  1  0  0  0  0
 16  2  2  0  0  0  0
 16 11  1  0  0  0  0
 17 21  2  0  0  0  0
 19 10  1  0  0  0  0
 20 15  2  0  0  0  0
 21  3  1  0  0  0  0
 22 25  1  0  0  0  0
 23 12  1  0  0  0  0
 23 24  1  0  0  0  0
 25 24  2  0  0  0  0
 26 27  1  0  0  0  0
 26 22  2  0  0  0  0
 27 23  2  0  0  0  0
M  END
>  <MODEL>
9

>  <REMARK>
 VINA RESULT:      -4.7      2.881      6.030
  Name = 
  1 active torsions:
  status: ('A' for Active; 'I' for Inactive)
    1  A    between atoms: C_9  and  N_15
                            x       y       z     vdW  Elec       q    Type
                         _______ _______ _______ _____ _____    ______ ____

>  <TORSDO>
F 1

$$$$
