=
 OpenBabel11062408233D

 32 37  0  0  1  0  0  0  0  0999 V2000
  161.1620  204.5280  149.9310 C   0  0  0  0  0  0  0  0  0  0  0  0
  161.4300  206.6770  151.0400 N   0  0  0  0  0  0  0  0  0  0  0  0
  160.9070  203.0740  150.0240 C   0  0  0  0  0  3  0  0  0  0  0  0
  161.2320  205.2680  151.1170 C   0  0  1  0  0  3  0  0  0  0  0  0
  161.4950  207.4590  152.2350 C   0  0  0  0  0  0  0  0  0  0  0  0
  162.0570  210.7880  148.5510 C   0  0  0  0  0  3  0  0  0  0  0  0
  161.5510  207.3130  149.7720 C   0  0  0  0  0  0  0  0  0  0  0  0
  161.9840  210.7850  150.9730 C   0  0  0  0  0  3  0  0  0  0  0  0
  161.7960  209.4000  150.9790 C   0  0  0  0  0  0  0  0  0  0  0  0
  161.1030  204.6760  152.3790 C   0  0  0  0  0  0  0  0  0  0  0  0
  161.6740  208.7710  152.1470 O   0  0  0  0  0  0  0  0  0  0  0  0
  161.1740  205.4530  153.4970 N   0  0  0  0  0  0  0  0  0  0  0  0
  160.9040  203.1900  152.5230 C   0  0  0  0  0  3  0  0  0  0  0  0
  161.4780  206.5160  148.6280 C   0  0  0  0  0  3  0  0  0  0  0  0
  161.2950  205.1630  148.7160 N   0  0  0  0  0  0  0  0  0  0  0  0
  161.7380  208.6990  149.7450 C   0  0  0  0  0  0  0  0  0  0  0  0
  161.3620  206.8050  153.4650 C   0  0  0  0  0  0  0  0  0  0  0  0
  160.7830  202.4630  151.2050 C   0  0  0  0  0  3  0  0  0  0  0  0
  162.1130  211.4780  149.7650 C   0  0  0  0  0  3  0  0  0  0  0  0
  161.8710  209.4040  148.5380 C   0  0  0  0  0  3  0  0  0  0  0  0
  161.1550  204.3630  145.0550 C   0  0  0  0  0  0  0  0  0  0  0  0
  161.1400  205.0000  143.8580 F   0  0  0  0  0  0  0  0  0  0  0  0
  161.2360  204.4290  147.4820 C   0  0  0  0  0  0  0  0  0  0  0  0
  161.1030  202.9680  145.0940 C   0  0  0  0  0  3  0  0  0  0  0  0
  161.1750  203.0280  147.5100 C   0  0  0  0  0  3  0  0  0  0  0  0
  161.2150  205.0970  146.2440 C   0  0  0  0  0  0  0  0  0  0  0  0
  161.2430  206.4880  146.1950 O   0  0  0  0  0  1  0  0  0  0  0  0
  161.1110  202.2920  146.3240 C   0  0  0  0  0  0  0  0  0  0  0  0
  161.4670  200.1710  147.5430 C   0  0  0  0  0  1  0  0  0  0  0  0
  161.0550  200.8980  146.3950 O   0  0  0  0  0  0  0  0  0  0  0  0
  161.4250  207.5650  154.7180 C   0  0  0  0  0  3  0  0  0  0  0  0
  160.5670  207.3900  155.6240 O   0  0  0  0  0  0  0  0  0  0  0  0
  1  3  2  0  0  0  0
  2  4  1  0  0  0  0
  2  5  1  0  0  0  0
  3 18  1  0  0  0  0
  4  1  1  6  0  0  0
  4 10  1  0  0  0  0
  5 17  2  0  0  0  0
  6 19  1  0  0  0  0
  7  2  1  0  0  0  0
  8  9  1  0  0  0  0
  9 11  1  0  0  0  0
 10 13  1  0  0  0  0
 10 12  2  0  0  0  0
 11  5  1  0  0  0  0
 14 15  1  0  0  0  0
 14  7  2  0  0  0  0
 15  1  1  0  0  0  0
 16  7  1  0  0  0  0
 16  9  2  0  0  0  0
 17 12  1  0  0  0  0
 17 31  1  0  0  0  0
 18 13  2  0  0  0  0
 19  8  2  0  0  0  0
 20  6  2  0  0  0  0
 20 16  1  0  0  0  0
 21 24  2  0  0  0  0
 21 26  1  0  0  0  0
 22 21  1  0  0  0  0
 23 25  1  0  0  0  0
 23 15  1  0  0  0  0
 24 28  1  0  0  0  0
 26 23  2  0  0  0  0
 27 26  1  0  0  0  0
 28 30  1  0  0  0  0
 28 25  2  0  0  0  0
 30 29  1  0  0  0  0
 31 32  2  0  0  0  0
M  END
>  <MODEL>
1

>  <REMARK>
 VINA RESULT:     -10.3      0.000      0.000
  Name = 
  3 active torsions:
  status: ('A' for Active; 'I' for Inactive)
    1  A    between atoms: C_13  and  CA_29
    2  A    between atoms: O_15  and  C_26
    3  A    between atoms: C_16  and  N_27
                            x       y       z     vdW  Elec       q    Type
                         _______ _______ _______ _____ _____    ______ ____

>  <TORSDO>
F 3

$$$$
=
 OpenBabel11062408233D

 32 37  0  0  0  0  0  0  0  0999 V2000
  161.5280  208.0850  150.9140 C   0  0  0  0  0  0  0  0  0  0  0  0
  161.5020  206.1360  149.4560 N   0  0  0  0  0  0  0  0  0  0  0  0
  161.6480  209.5500  151.0720 C   0  0  0  0  0  3  0  0  0  0  0  0
  161.6620  207.5410  149.6310 C   0  0  0  0  0  0  0  0  0  0  0  0
  161.6220  205.5560  148.1550 C   0  0  0  0  0  0  0  0  0  0  0  0
  160.6230  201.6790  151.1460 C   0  0  0  0  0  3  0  0  0  0  0  0
  161.2100  205.3060  150.5760 C   0  0  0  0  0  0  0  0  0  0  0  0
  161.0460  202.0690  148.7920 C   0  0  0  0  0  3  0  0  0  0  0  0
  161.1960  203.4380  149.0320 C   0  0  0  0  0  0  0  0  0  0  0  0
  161.9350  208.3300  148.5070 C   0  0  0  0  0  0  0  0  0  0  0  0
  161.4650  204.2460  148.0070 O   0  0  0  0  0  0  0  0  0  0  0  0
  162.0470  207.7420  147.2820 N   0  0  0  0  0  0  0  0  0  0  0  0
  162.1260  209.8190  148.6320 C   0  0  0  0  0  2  0  0  0  0  0  0
  161.0950  205.9110  151.8290 C   0  0  0  0  0  3  0  0  0  0  0  0
  161.2580  207.2600  151.9840 N   0  0  0  0  0  0  0  0  0  0  0  0
  161.0550  203.9340  150.3560 C   0  0  0  0  0  0  0  0  0  0  0  0
  161.9000  206.4000  147.0740 C   0  0  0  0  0  0  0  0  0  0  0  0
  161.9150  210.3440  150.0310 C   0  0  0  0  0  3  0  0  0  0  0  0
  160.7610  201.1920  149.8430 C   0  0  0  0  0  3  0  0  0  0  0  0
  160.7690  203.0440  151.4040 C   0  0  0  0  0  3  0  0  0  0  0  0
  160.7730  207.4680  155.6960 C   0  0  0  0  0  0  0  0  0  0  0  0
  160.5630  206.6520  156.7590 F   0  0  0  0  0  0  0  0  0  0  0  0
  161.1250  207.7870  153.3130 C   0  0  0  0  0  0  0  0  0  0  0  0
  160.8500  208.8480  155.8930 C   0  0  0  0  0  3  0  0  0  0  0  0
  161.1920  209.1720  153.5220 C   0  0  0  0  0  3  0  0  0  0  0  0
  160.9030  206.9330  154.4100 C   0  0  0  0  0  0  0  0  0  0  0  0
  160.8000  205.5590  154.2210 O   0  0  0  0  0  1  0  0  0  0  0  0
  161.0590  209.7100  154.8040 C   0  0  0  0  0  0  0  0  0  0  0  0
  160.0800  211.9720  154.6030 C   0  0  0  0  0  1  0  0  0  0  0  0
  161.1360  211.0950  154.9700 O   0  0  0  0  0  0  0  0  0  0  0  0
  162.0360  205.8510  145.7210 C   0  0  0  0  0  3  0  0  0  0  0  0
  161.0560  205.8310  144.9300 O   0  0  0  0  0  0  0  0  0  0  0  0
  1  3  1  0  0  0  0
  1 15  1  0  0  0  0
  2  4  1  0  0  0  0
  2  7  1  0  0  0  0
  4  1  2  0  0  0  0
  5  2  1  0  0  0  0
  6 20  1  0  0  0  0
  7 14  2  0  0  0  0
  8  9  2  0  0  0  0
  8 19  1  0  0  0  0
  9 16  1  0  0  0  0
 10 13  1  0  0  0  0
 10  4  1  0  0  0  0
 11  5  1  0  0  0  0
 11  9  1  0  0  0  0
 12 10  2  0  0  0  0
 13 18  1  0  0  0  0
 14 15  1  0  0  0  0
 15 23  1  0  0  0  0
 16  7  1  0  0  0  0
 16 20  2  0  0  0  0
 17 12  1  0  0  0  0
 17  5  2  0  0  0  0
 18  3  2  0  0  0  0
 19  6  2  0  0  0  0
 21 24  1  0  0  0  0
 21 22  1  0  0  0  0
 23 25  2  0  0  0  0
 23 26  1  0  0  0  0
 25 28  1  0  0  0  0
 26 21  2  0  0  0  0
 27 26  1  0  0  0  0
 28 30  1  0  0  0  0
 28 24  2  0  0  0  0
 29 30  1  0  0  0  0
 31 17  1  0  0  0  0
 32 31  2  0  0  0  0
M  END
>  <MODEL>
2

>  <REMARK>
 VINA RESULT:      -9.9      2.874      8.265
  Name = 
  3 active torsions:
  status: ('A' for Active; 'I' for Inactive)
    1  A    between atoms: C_13  and  CA_29
    2  A    between atoms: O_15  and  C_26
    3  A    between atoms: C_16  and  N_27
                            x       y       z     vdW  Elec       q    Type
                         _______ _______ _______ _____ _____    ______ ____

>  <TORSDO>
F 3

$$$$
=
 OpenBabel11062408233D

 32 37  0  0  1  0  0  0  0  0999 V2000
  161.1790  205.9380  151.0170 C   0  0  0  0  0  0  0  0  0  0  0  0
  161.1010  204.3920  149.1400 N   0  0  0  0  0  0  0  0  0  0  0  0
  161.2320  206.1590  152.4790 C   0  0  0  0  0  3  0  0  0  0  0  0
  161.1050  204.6220  150.5450 C   0  0  1  0  0  3  0  0  0  0  0  0
  161.0360  203.0570  148.6310 C   0  0  0  0  0  0  0  0  0  0  0  0
  161.2370  205.9270  144.5440 C   0  0  0  0  0  3  0  0  0  0  0  0
  161.1740  205.4900  148.2360 C   0  0  0  0  0  0  0  0  0  0  0  0
  161.1000  203.5670  145.0770 C   0  0  0  0  0  3  0  0  0  0  0  0
  161.1020  203.8610  146.4430 C   0  0  0  0  0  0  0  0  0  0  0  0
  161.0450  203.5190  151.4060 C   0  0  0  0  0  0  0  0  0  0  0  0
  161.0390  202.8590  147.3180 O   0  0  0  0  0  0  0  0  0  0  0  0
  160.9800  202.2610  150.8850 N   0  0  0  0  0  0  0  0  0  0  0  0
  161.0330  203.7020  152.9020 C   0  0  0  0  0  3  0  0  0  0  0  0
  161.2410  206.7780  148.7720 C   0  0  0  0  0  3  0  0  0  0  0  0
  161.2360  206.9850  150.1240 N   0  0  0  0  0  0  0  0  0  0  0  0
  161.1740  205.2160  146.8640 C   0  0  0  0  0  0  0  0  0  0  0  0
  160.9750  202.0000  149.5450 C   0  0  0  0  0  0  0  0  0  0  0  0
  161.1710  205.1400  153.3400 C   0  0  0  0  0  3  0  0  0  0  0  0
  161.1670  204.5940  144.1300 C   0  0  0  0  0  3  0  0  0  0  0  0
  161.2410  206.2390  145.9060 C   0  0  0  0  0  3  0  0  0  0  0  0
  161.9520  210.6640  150.2410 C   0  0  0  0  0  0  0  0  0  0  0  0
  162.5120  211.6330  149.4760 F   0  0  0  0  0  0  0  0  0  0  0  0
  161.3050  208.3460  150.5770 C   0  0  0  0  0  0  0  0  0  0  0  0
  161.4390  210.9900  151.4980 C   0  0  0  0  0  3  0  0  0  0  0  0
  160.8010  208.6840  151.8420 C   0  0  0  0  0  3  0  0  0  0  0  0
  161.8930  209.3450  149.7790 C   0  0  0  0  0  0  0  0  0  0  0  0
  162.4280  209.0260  148.5350 O   0  0  0  0  0  1  0  0  0  0  0  0
  160.8620  209.9990  152.3080 C   0  0  0  0  0  0  0  0  0  0  0  0
  160.5540  209.4580  154.7010 C   0  0  0  0  0  1  0  0  0  0  0  0
  160.3450  210.2940  153.5720 O   0  0  0  0  0  0  0  0  0  0  0  0
  160.9040  200.6140  149.0710 C   0  0  0  0  0  3  0  0  0  0  0  0
  161.5820  200.2340  148.0790 O   0  0  0  0  0  0  0  0  0  0  0  0
  1  3  2  0  0  0  0
  2  4  1  0  0  0  0
  3 18  1  0  0  0  0
  4  1  1  1  0  0  0
  4 10  1  0  0  0  0
  5  2  1  0  0  0  0
  5 17  2  0  0  0  0
  6 20  1  0  0  0  0
  7 14  2  0  0  0  0
  7  2  1  0  0  0  0
  8  9  2  0  0  0  0
  9 16  1  0  0  0  0
  9 11  1  0  0  0  0
 10 13  1  0  0  0  0
 11  5  1  0  0  0  0
 12 10  2  0  0  0  0
 13 18  2  0  0  0  0
 14 15  1  0  0  0  0
 15 23  1  0  0  0  0
 15  1  1  0  0  0  0
 16  7  1  0  0  0  0
 17 12  1  0  0  0  0
 19  6  2  0  0  0  0
 19  8  1  0  0  0  0
 20 16  2  0  0  0  0
 21 24  1  0  0  0  0
 22 21  1  0  0  0  0
 23 25  2  0  0  0  0
 24 28  2  0  0  0  0
 25 28  1  0  0  0  0
 26 21  2  0  0  0  0
 26 23  1  0  0  0  0
 27 26  1  0  0  0  0
 28 30  1  0  0  0  0
 30 29  1  0  0  0  0
 31 17  1  0  0  0  0
 32 31  2  0  0  0  0
M  END
>  <MODEL>
3

>  <REMARK>
 VINA RESULT:      -9.8      2.233      6.692
  Name = 
  3 active torsions:
  status: ('A' for Active; 'I' for Inactive)
    1  A    between atoms: C_13  and  CA_29
    2  A    between atoms: O_15  and  C_26
    3  A    between atoms: C_16  and  N_27
                            x       y       z     vdW  Elec       q    Type
                         _______ _______ _______ _____ _____    ______ ____

>  <TORSDO>
F 3

$$$$
=
 OpenBabel11062408233D

 32 37  0  0  0  0  0  0  0  0999 V2000
  161.5680  209.3260  151.1400 C   0  0  0  0  0  0  0  0  0  0  0  0
  161.5500  207.1380  150.0760 N   0  0  0  0  0  0  0  0  0  0  0  0
  161.6840  210.7960  151.0190 C   0  0  0  0  0  3  0  0  0  0  0  0
  161.7070  208.5510  149.9830 C   0  0  0  0  0  0  0  0  0  0  0  0
  161.6770  206.3220  148.9080 C   0  0  0  0  0  0  0  0  0  0  0  0
  160.6730  203.0780  152.5740 C   0  0  0  0  0  3  0  0  0  0  0  0
  161.2550  206.5330  151.3310 C   0  0  0  0  0  0  0  0  0  0  0  0
  161.1040  203.0170  150.1910 C   0  0  0  0  0  3  0  0  0  0  0  0
  161.2500  204.4070  150.1680 C   0  0  0  0  0  0  0  0  0  0  0  0
  161.9830  209.1140  148.7310 C   0  0  0  0  0  0  0  0  0  0  0  0
  161.5230  205.0080  149.0100 O   0  0  0  0  0  0  0  0  0  0  0  0
  162.1010  208.3060  147.6400 N   0  0  0  0  0  0  0  0  0  0  0  0
  162.1710  210.6000  148.5740 C   0  0  0  0  0  2  0  0  0  0  0  0
  161.1340  207.3630  152.4480 C   0  0  0  0  0  3  0  0  0  0  0  0
  161.2950  208.7180  152.3460 N   0  0  0  0  0  0  0  0  0  0  0  0
  161.1040  205.1430  151.3740 C   0  0  0  0  0  0  0  0  0  0  0  0
  161.9570  206.9480  147.6890 C   0  0  0  0  0  0  0  0  0  0  0  0
  161.9530  211.3790  149.8480 C   0  0  0  0  0  3  0  0  0  0  0  0
  160.8160  202.3540  151.3870 C   0  0  0  0  0  3  0  0  0  0  0  0
  160.8160  204.4670  152.5700 C   0  0  0  0  0  3  0  0  0  0  0  0
  159.9460  211.0940  154.9150 C   0  0  0  0  0  0  0  0  0  0  0  0
  158.8930  211.9270  155.1000 F   0  0  0  0  0  0  0  0  0  0  0  0
  161.1550  209.4860  153.5510 C   0  0  0  0  0  0  0  0  0  0  0  0
  160.9220  210.9840  155.9080 C   0  0  0  0  0  3  0  0  0  0  0  0
  162.1330  209.3910  154.5520 C   0  0  0  0  0  3  0  0  0  0  0  0
  160.0620  210.3520  153.7330 C   0  0  0  0  0  0  0  0  0  0  0  0
  159.0970  210.4860  152.7400 O   0  0  0  0  0  1  0  0  0  0  0  0
  162.0230  210.1330  155.7310 C   0  0  0  0  0  0  0  0  0  0  0  0
  163.6940  211.1250  157.2610 C   0  0  0  0  0  1  0  0  0  0  0  0
  163.0170  210.0060  156.7060 O   0  0  0  0  0  0  0  0  0  0  0  0
  162.0990  206.1540  146.4640 C   0  0  0  0  0  3  0  0  0  0  0  0
  161.0900  205.8310  145.7820 O   0  0  0  0  0  0  0  0  0  0  0  0
  1 15  1  0  0  0  0
  2  7  1  0  0  0  0
  3  1  1  0  0  0  0
  4  2  1  0  0  0  0
  4  1  2  0  0  0  0
  5 11  1  0  0  0  0
  5  2  1  0  0  0  0
  7 16  1  0  0  0  0
  7 14  2  0  0  0  0
  8 19  1  0  0  0  0
  9  8  2  0  0  0  0
  9 16  1  0  0  0  0
 10  4  1  0  0  0  0
 11  9  1  0  0  0  0
 12 17  1  0  0  0  0
 12 10  2  0  0  0  0
 13 10  1  0  0  0  0
 13 18  1  0  0  0  0
 15 14  1  0  0  0  0
 15 23  1  0  0  0  0
 16 20  2  0  0  0  0
 17  5  2  0  0  0  0
 18  3  2  0  0  0  0
 19  6  2  0  0  0  0
 20  6  1  0  0  0  0
 21 22  1  0  0  0  0
 21 24  1  0  0  0  0
 23 26  1  0  0  0  0
 23 25  2  0  0  0  0
 25 28  1  0  0  0  0
 26 21  2  0  0  0  0
 27 26  1  0  0  0  0
 28 24  2  0  0  0  0
 28 30  1  0  0  0  0
 30 29  1  0  0  0  0
 31 17  1  0  0  0  0
 32 31  2  0  0  0  0
M  END
>  <MODEL>
4

>  <REMARK>
 VINA RESULT:      -9.2      3.158      8.470
  Name = 
  3 active torsions:
  status: ('A' for Active; 'I' for Inactive)
    1  A    between atoms: C_13  and  CA_29
    2  A    between atoms: O_15  and  C_26
    3  A    between atoms: C_16  and  N_27
                            x       y       z     vdW  Elec       q    Type
                         _______ _______ _______ _____ _____    ______ ____

>  <TORSDO>
F 3

$$$$
=
 OpenBabel11062408233D

 32 37  0  0  0  0  0  0  0  0999 V2000
  161.3680  209.1170  151.2490 C   0  0  0  0  0  0  0  0  0  0  0  0
  161.4890  206.9910  150.0700 N   0  0  0  0  0  0  0  0  0  0  0  0
  161.4340  210.5940  151.2140 C   0  0  0  0  0  3  0  0  0  0  0  0
  161.5960  208.4120  150.0610 C   0  0  0  0  0  0  0  0  0  0  0  0
  161.7070  206.2470  148.8690 C   0  0  0  0  0  0  0  0  0  0  0  0
  160.6400  202.7700  152.2960 C   0  0  0  0  0  3  0  0  0  0  0  0
  161.1530  206.3080  151.2730 C   0  0  0  0  0  0  0  0  0  0  0  0
  161.1960  202.8580  149.9400 C   0  0  0  0  0  3  0  0  0  0  0  0
  161.2900  204.2510  149.9990 C   0  0  0  0  0  0  0  0  0  0  0  0
  161.9150  209.0530  148.8580 C   0  0  0  0  0  0  0  0  0  0  0  0
  161.5980  204.9240  148.8920 O   0  0  0  0  0  0  0  0  0  0  0  0
  162.1200  208.3110  147.7330 N   0  0  0  0  0  0  0  0  0  0  0  0
  162.0540  210.5520  148.7910 C   0  0  0  0  0  2  0  0  0  0  0  0
  160.9440  207.0700  152.4250 C   0  0  0  0  0  3  0  0  0  0  0  0
  161.0570  208.4330  152.4040 N   0  0  0  0  0  0  0  0  0  0  0  0
  161.0540  204.9130  151.2340 C   0  0  0  0  0  0  0  0  0  0  0  0
  162.0260  206.9490  147.7010 C   0  0  0  0  0  0  0  0  0  0  0  0
  161.7410  211.2500  150.0920 C   0  0  0  0  0  3  0  0  0  0  0  0
  160.8730  202.1190  151.0820 C   0  0  0  0  0  3  0  0  0  0  0  0
  160.7300  204.1620  152.3740 C   0  0  0  0  0  3  0  0  0  0  0  0
  160.8980  209.2190  156.0670 C   0  0  0  0  0  0  0  0  0  0  0  0
  161.1960  208.6490  157.2600 F   0  0  0  0  0  0  0  0  0  0  0  0
  160.8260  209.1270  153.6400 C   0  0  0  0  0  0  0  0  0  0  0  0
  160.3470  210.5020  156.0350 C   0  0  0  0  0  3  0  0  0  0  0  0
  160.2650  210.4120  153.6200 C   0  0  0  0  0  3  0  0  0  0  0  0
  161.1340  208.5260  154.8740 C   0  0  0  0  0  0  0  0  0  0  0  0
  161.6610  207.2400  154.9180 O   0  0  0  0  0  1  0  0  0  0  0  0
  160.0250  211.1060  154.8090 C   0  0  0  0  0  0  0  0  0  0  0  0
  158.1600  212.6300  154.2480 C   0  0  0  0  0  1  0  0  0  0  0  0
  159.4680  212.3860  154.7460 O   0  0  0  0  0  0  0  0  0  0  0  0
  162.2610  206.2290  146.4450 C   0  0  0  0  0  3  0  0  0  0  0  0
  161.2980  205.8450  145.7300 O   0  0  0  0  0  0  0  0  0  0  0  0
  1 15  1  0  0  0  0
  2  7  1  0  0  0  0
  3  1  1  0  0  0  0
  4  2  1  0  0  0  0
  4  1  2  0  0  0  0
  5 11  1  0  0  0  0
  5  2  1  0  0  0  0
  6 20  1  0  0  0  0
  7 14  2  0  0  0  0
  8  9  2  0  0  0  0
  8 19  1  0  0  0  0
  9 16  1  0  0  0  0
 10  4  1  0  0  0  0
 11  9  1  0  0  0  0
 12 10  2  0  0  0  0
 13 10  1  0  0  0  0
 13 18  1  0  0  0  0
 15 14  1  0  0  0  0
 15 23  1  0  0  0  0
 16  7  1  0  0  0  0
 16 20  2  0  0  0  0
 17 12  1  0  0  0  0
 17  5  2  0  0  0  0
 18  3  2  0  0  0  0
 19  6  2  0  0  0  0
 21 22  1  0  0  0  0
 23 26  1  0  0  0  0
 24 21  1  0  0  0  0
 25 23  2  0  0  0  0
 25 28  1  0  0  0  0
 26 27  1  0  0  0  0
 26 21  2  0  0  0  0
 28 24  2  0  0  0  0
 29 30  1  0  0  0  0
 30 28  1  0  0  0  0
 31 17  1  0  0  0  0
 32 31  2  0  0  0  0
M  END
>  <MODEL>
5

>  <REMARK>
 VINA RESULT:      -8.8      3.214      8.522
  Name = 
  3 active torsions:
  status: ('A' for Active; 'I' for Inactive)
    1  A    between atoms: C_13  and  CA_29
    2  A    between atoms: O_15  and  C_26
    3  A    between atoms: C_16  and  N_27
                            x       y       z     vdW  Elec       q    Type
                         _______ _______ _______ _____ _____    ______ ____

>  <TORSDO>
F 3

$$$$
=
 OpenBabel11062408233D

 32 37  0  0  1  0  0  0  0  0999 V2000
  161.1560  208.5810  152.7320 C   0  0  0  0  0  0  0  0  0  0  0  0
  161.5250  209.0710  150.3770 N   0  0  0  0  0  0  0  0  0  0  0  0
  161.0900  207.5890  153.8280 C   0  0  0  0  0  3  0  0  0  0  0  0
  161.4110  208.1230  151.4350 C   0  0  1  0  0  3  0  0  0  0  0  0
  161.7960  208.6310  149.0440 C   0  0  0  0  0  0  0  0  0  0  0  0
  161.5070  213.6060  148.6670 C   0  0  0  0  0  3  0  0  0  0  0  0
  161.3810  210.4620  150.6470 C   0  0  0  0  0  0  0  0  0  0  0  0
  161.8990  211.7140  147.2050 C   0  0  0  0  0  3  0  0  0  0  0  0
  161.7720  210.8360  148.2850 C   0  0  0  0  0  0  0  0  0  0  0  0
  161.5710  206.7640  151.1370 C   0  0  0  0  0  0  0  0  0  0  0  0
  161.9040  209.5270  148.0710 O   0  0  0  0  0  0  0  0  0  0  0  0
  161.8250  206.3810  149.8540 N   0  0  0  0  0  0  0  0  0  0  0  0
  161.4500  205.7140  152.2110 C   0  0  0  0  0  3  0  0  0  0  0  0
  161.1220  210.8520  151.9630 C   0  0  0  0  0  3  0  0  0  0  0  0
  161.0080  209.9300  152.9670 N   0  0  0  0  0  0  0  0  0  0  0  0
  161.5070  211.3570  149.5800 C   0  0  0  0  0  0  0  0  0  0  0  0
  161.9410  207.2590  148.8140 C   0  0  0  0  0  0  0  0  0  0  0  0
  161.2290  206.2810  153.5930 C   0  0  0  0  0  3  0  0  0  0  0  0
  161.7680  213.0930  147.3930 C   0  0  0  0  0  3  0  0  0  0  0  0
  161.3760  212.7430  149.7580 C   0  0  0  0  0  3  0  0  0  0  0  0
  161.4980  211.2890  156.4270 C   0  0  0  0  0  0  0  0  0  0  0  0
  162.5020  211.6600  157.2600 F   0  0  0  0  0  0  0  0  0  0  0  0
  160.7360  210.4300  154.2860 C   0  0  0  0  0  0  0  0  0  0  0  0
  160.1740  211.3850  156.8600 C   0  0  0  0  0  3  0  0  0  0  0  0
  159.4110  210.5220  154.7350 C   0  0  0  0  0  3  0  0  0  0  0  0
  161.7850  210.8070  155.1450 C   0  0  0  0  0  0  0  0  0  0  0  0
  163.1080  210.6940  154.7320 O   0  0  0  0  0  1  0  0  0  0  0  0
  159.1210  210.9990  156.0160 C   0  0  0  0  0  0  0  0  0  0  0  0
  156.7350  211.4330  155.5380 C   0  0  0  0  0  1  0  0  0  0  0  0
  157.7870  211.0780  156.4230 O   0  0  0  0  0  0  0  0  0  0  0  0
  162.2170  206.7600  147.4630 C   0  0  0  0  0  3  0  0  0  0  0  0
  161.2850  206.3490  146.7220 O   0  0  0  0  0  0  0  0  0  0  0  0
  1 15  1  0  0  0  0
  1  3  2  0  0  0  0
  2  7  1  0  0  0  0
  2  4  1  0  0  0  0
  4 10  1  1  0  0  0
  4  1  1  0  0  0  0
  5  2  1  0  0  0  0
  6 20  1  0  0  0  0
  7 14  2  0  0  0  0
  8 19  1  0  0  0  0
  8  9  2  0  0  0  0
  9 16  1  0  0  0  0
 10 13  1  0  0  0  0
 11  9  1  0  0  0  0
 11  5  1  0  0  0  0
 12 10  2  0  0  0  0
 13 18  2  0  0  0  0
 14 15  1  0  0  0  0
 15 23  1  0  0  0  0
 16 20  2  0  0  0  0
 16  7  1  0  0  0  0
 17  5  2  0  0  0  0
 17 12  1  0  0  0  0
 18  3  1  0  0  0  0
 19  6  2  0  0  0  0
 21 24  1  0  0  0  0
 21 22  1  0  0  0  0
 23 25  2  0  0  0  0
 23 26  1  0  0  0  0
 25 28  1  0  0  0  0
 26 21  2  0  0  0  0
 27 26  1  0  0  0  0
 28 30  1  0  0  0  0
 28 24  2  0  0  0  0
 29 30  1  0  0  0  0
 31 17  1  0  0  0  0
 32 31  2  0  0  0  0
M  END
>  <MODEL>
6

>  <REMARK>
 VINA RESULT:      -8.1      3.877      8.034
  Name = 
  3 active torsions:
  status: ('A' for Active; 'I' for Inactive)
    1  A    between atoms: C_13  and  CA_29
    2  A    between atoms: O_15  and  C_26
    3  A    between atoms: C_16  and  N_27
                            x       y       z     vdW  Elec       q    Type
                         _______ _______ _______ _____ _____    ______ ____

>  <TORSDO>
F 3

$$$$
=
 OpenBabel11062408233D

 32 37  0  0  0  0  0  0  0  0999 V2000
  161.4630  205.7410  148.8820 C   0  0  0  0  0  0  0  0  0  0  0  0
  161.4450  207.5200  150.5420 N   0  0  0  0  0  0  0  0  0  0  0  0
  161.6630  205.3140  147.4800 C   0  0  0  0  0  3  0  0  0  0  0  0
  161.5880  207.1010  149.1880 C   0  0  0  0  0  0  0  0  0  0  0  0
  161.5780  208.9020  150.8840 C   0  0  0  0  0  0  0  0  0  0  0  0
  160.6720  206.6350  155.2440 C   0  0  0  0  0  3  0  0  0  0  0  0
  161.1820  206.5620  151.5620 C   0  0  0  0  0  0  0  0  0  0  0  0
  161.0720  208.8840  154.4390 C   0  0  0  0  0  3  0  0  0  0  0  0
  161.1970  208.4090  153.1310 C   0  0  0  0  0  0  0  0  0  0  0  0
  161.8600  208.0670  148.2110 C   0  0  0  0  0  0  0  0  0  0  0  0
  161.4470  209.2760  152.1500 O   0  0  0  0  0  0  0  0  0  0  0  0
  161.9760  209.3760  148.5730 N   0  0  0  0  0  0  0  0  0  0  0  0
  162.0090  207.6850  146.7620 C   0  0  0  0  0  2  0  0  0  0  0  0
  161.0640  205.2210  151.1890 C   0  0  0  0  0  3  0  0  0  0  0  0
  161.1960  204.8330  149.8830 N   0  0  0  0  0  0  0  0  0  0  0  0
  161.0550  207.0180  152.8780 C   0  0  0  0  0  0  0  0  0  0  0  0
  161.8460  209.8170  149.8590 C   0  0  0  0  0  0  0  0  0  0  0  0
  161.9180  206.1990  146.5120 C   0  0  0  0  0  3  0  0  0  0  0  0
  160.8120  208.0030  155.4920 C   0  0  0  0  0  3  0  0  0  0  0  0
  160.7930  206.1420  153.9430 C   0  0  0  0  0  3  0  0  0  0  0  0
  160.7850  201.1340  150.3420 C   0  0  0  0  0  0  0  0  0  0  0  0
  160.6500  200.2250  151.3380 F   0  0  0  0  0  0  0  0  0  0  0  0
  161.0540  203.4330  149.6000 C   0  0  0  0  0  0  0  0  0  0  0  0
  160.7970  200.7040  149.0130 C   0  0  0  0  0  3  0  0  0  0  0  0
  161.0730  202.9880  148.2700 C   0  0  0  0  0  3  0  0  0  0  0  0
  160.9190  202.4950  150.6400 C   0  0  0  0  0  0  0  0  0  0  0  0
  160.9300  202.9110  151.9680 O   0  0  0  0  0  1  0  0  0  0  0  0
  160.9430  201.6300  147.9680 C   0  0  0  0  0  0  0  0  0  0  0  0
  160.6650  202.1120  145.5590 C   0  0  0  0  0  1  0  0  0  0  0  0
  160.9630  201.2280  146.6300 O   0  0  0  0  0  0  0  0  0  0  0  0
  161.9880  211.2450  150.1610 C   0  0  0  0  0  3  0  0  0  0  0  0
  161.6510  212.1200  149.3200 O   0  0  0  0  0  0  0  0  0  0  0  0
  1  4  2  0  0  0  0
  1 15  1  0  0  0  0
  2  5  1  0  0  0  0
  2  7  1  0  0  0  0
  3  1  1  0  0  0  0
  4  2  1  0  0  0  0
  5 11  1  0  0  0  0
  6 19  1  0  0  0  0
  7 16  1  0  0  0  0
  8 19  2  0  0  0  0
  9  8  1  0  0  0  0
 10 12  2  0  0  0  0
 10  4  1  0  0  0  0
 11  9  1  0  0  0  0
 12 17  1  0  0  0  0
 13 10  1  0  0  0  0
 14  7  2  0  0  0  0
 15 14  1  0  0  0  0
 16  9  2  0  0  0  0
 16 20  1  0  0  0  0
 17 31  1  0  0  0  0
 17  5  2  0  0  0  0
 18 13  1  0  0  0  0
 18  3  2  0  0  0  0
 20  6  2  0  0  0  0
 21 26  1  0  0  0  0
 21 22  1  0  0  0  0
 23 15  1  0  0  0  0
 23 26  2  0  0  0  0
 24 21  2  0  0  0  0
 25 23  1  0  0  0  0
 26 27  1  0  0  0  0
 28 25  2  0  0  0  0
 28 24  1  0  0  0  0
 29 30  1  0  0  0  0
 30 28  1  0  0  0  0
 32 31  2  0  0  0  0
M  END
>  <MODEL>
7

>  <REMARK>
 VINA RESULT:      -7.9      2.373      4.803
  Name = 
  3 active torsions:
  status: ('A' for Active; 'I' for Inactive)
    1  A    between atoms: C_13  and  CA_29
    2  A    between atoms: O_15  and  C_26
    3  A    between atoms: C_16  and  N_27
                            x       y       z     vdW  Elec       q    Type
                         _______ _______ _______ _____ _____    ______ ____

>  <TORSDO>
F 3

$$$$
=
 OpenBabel11062408233D

 32 37  0  0  1  0  0  0  0  0999 V2000
  161.3920  208.7770  151.1240 C   0  0  0  0  0  0  0  0  0  0  0  0
  161.3540  206.4790  150.3240 N   0  0  0  0  0  0  0  0  0  0  0  0
  161.3830  209.7270  152.2570 C   0  0  0  0  0  3  0  0  0  0  0  0
  161.2990  207.4080  151.4020 C   0  0  1  0  0  3  0  0  0  0  0  0
  161.2720  205.0750  150.5810 C   0  0  0  0  0  0  0  0  0  0  0  0
  161.7480  205.3940  145.6160 C   0  0  0  0  0  3  0  0  0  0  0  0
  161.5020  206.9450  148.9860 C   0  0  0  0  0  0  0  0  0  0  0  0
  161.5150  203.6580  147.2900 C   0  0  0  0  0  3  0  0  0  0  0  0
  161.4640  204.6210  148.3010 C   0  0  0  0  0  0  0  0  0  0  0  0
  161.1670  206.9160  152.7060 C   0  0  0  0  0  0  0  0  0  0  0  0
  161.3300  204.2210  149.5660 O   0  0  0  0  0  0  0  0  0  0  0  0
  161.0880  205.5710  152.9130 N   0  0  0  0  0  0  0  0  0  0  0  0
  161.0920  207.8510  153.8850 C   0  0  0  0  0  3  0  0  0  0  0  0
  161.5820  208.3240  148.7760 C   0  0  0  0  0  3  0  0  0  0  0  0
  161.5210  209.2050  149.8210 N   0  0  0  0  0  0  0  0  0  0  0  0
  161.5560  205.9970  147.9600 C   0  0  0  0  0  0  0  0  0  0  0  0
  161.1370  204.6490  151.9070 C   0  0  0  0  0  0  0  0  0  0  0  0
  161.2520  209.3060  153.5180 C   0  0  0  0  0  3  0  0  0  0  0  0
  161.6570  204.0410  145.9530 C   0  0  0  0  0  3  0  0  0  0  0  0
  161.6980  206.3700  146.6140 C   0  0  0  0  0  3  0  0  0  0  0  0
  162.5860  212.4330  148.2370 C   0  0  0  0  0  0  0  0  0  0  0  0
  163.4510  212.8880  147.2980 F   0  0  0  0  0  0  0  0  0  0  0  0
  161.6090  210.6030  149.5020 C   0  0  0  0  0  0  0  0  0  0  0  0
  161.7700  213.3390  148.9180 C   0  0  0  0  0  3  0  0  0  0  0  0
  160.8010  211.5230  150.1850 C   0  0  0  0  0  3  0  0  0  0  0  0
  162.5140  211.0670  148.5300 C   0  0  0  0  0  0  0  0  0  0  0  0
  163.3480  210.1750  147.8630 O   0  0  0  0  0  1  0  0  0  0  0  0
  160.8730  212.8890  149.8990 C   0  0  0  0  0  0  0  0  0  0  0  0
  159.1420  213.3420  151.6050 C   0  0  0  0  0  1  0  0  0  0  0  0
  160.0470  213.7720  150.5990 O   0  0  0  0  0  0  0  0  0  0  0  0
  161.0470  203.2190  152.2200 C   0  0  0  0  0  3  0  0  0  0  0  0
  161.9350  202.4150  151.8310 O   0  0  0  0  0  0  0  0  0  0  0  0
  1  3  2  0  0  0  0
  2  5  1  0  0  0  0
  2  4  1  0  0  0  0
  3 18  1  0  0  0  0
  4  1  1  1  0  0  0
  4 10  1  0  0  0  0
  5 17  2  0  0  0  0
  6 19  2  0  0  0  0
  6 20  1  0  0  0  0
  7  2  1  0  0  0  0
  8  9  2  0  0  0  0
  9 11  1  0  0  0  0
 10 12  2  0  0  0  0
 10 13  1  0  0  0  0
 11  5  1  0  0  0  0
 14  7  2  0  0  0  0
 14 15  1  0  0  0  0
 15  1  1  0  0  0  0
 16  9  1  0  0  0  0
 16  7  1  0  0  0  0
 17 31  1  0  0  0  0
 17 12  1  0  0  0  0
 18 13  2  0  0  0  0
 19  8  1  0  0  0  0
 20 16  2  0  0  0  0
 21 26  2  0  0  0  0
 21 24  1  0  0  0  0
 22 21  1  0  0  0  0
 23 15  1  0  0  0  0
 23 25  2  0  0  0  0
 24 28  2  0  0  0  0
 26 23  1  0  0  0  0
 27 26  1  0  0  0  0
 28 25  1  0  0  0  0
 28 30  1  0  0  0  0
 30 29  1  0  0  0  0
 32 31  2  0  0  0  0
M  END
>  <MODEL>
8

>  <REMARK>
 VINA RESULT:      -7.8      2.708      6.806
  Name = 
  3 active torsions:
  status: ('A' for Active; 'I' for Inactive)
    1  A    between atoms: C_13  and  CA_29
    2  A    between atoms: O_15  and  C_26
    3  A    between atoms: C_16  and  N_27
                            x       y       z     vdW  Elec       q    Type
                         _______ _______ _______ _____ _____    ______ ____

>  <TORSDO>
F 3

$$$$
=
 OpenBabel11062408233D

 32 37  0  0  1  0  0  0  0  0999 V2000
  161.3210  208.3910  152.7130 C   0  0  0  0  0  0  0  0  0  0  0  0
  161.5030  208.9210  150.3450 N   0  0  0  0  0  0  0  0  0  0  0  0
  161.2810  207.3760  153.7870 C   0  0  0  0  0  3  0  0  0  0  0  0
  161.4160  207.9530  151.3870 C   0  0  1  0  0  3  0  0  0  0  0  0
  161.6120  208.5010  148.9820 C   0  0  0  0  0  0  0  0  0  0  0  0
  161.6750  213.4920  148.7440 C   0  0  0  0  0  3  0  0  0  0  0  0
  161.4930  210.3100  150.6570 C   0  0  0  0  0  0  0  0  0  0  0  0
  161.7800  211.6200  147.2100 C   0  0  0  0  0  3  0  0  0  0  0  0
  161.6870  210.7230  148.2770 C   0  0  0  0  0  0  0  0  0  0  0  0
  161.4420  206.5950  151.0460 C   0  0  0  0  0  0  0  0  0  0  0  0
  161.6970  209.4140  148.0230 O   0  0  0  0  0  0  0  0  0  0  0  0
  161.5430  206.2320  149.7360 N   0  0  0  0  0  0  0  0  0  0  0  0
  161.3420  205.5270  152.1030 C   0  0  0  0  0  3  0  0  0  0  0  0
  161.3900  210.6800  152.0000 C   0  0  0  0  0  3  0  0  0  0  0  0
  161.3000  209.7400  152.9900 N   0  0  0  0  0  0  0  0  0  0  0  0
  161.5860  211.2240  149.6030 C   0  0  0  0  0  0  0  0  0  0  0  0
  161.6290  207.1290  148.7090 C   0  0  0  0  0  0  0  0  0  0  0  0
  161.2960  206.0690  153.5120 C   0  0  0  0  0  3  0  0  0  0  0  0
  161.7740  212.9990  147.4400 C   0  0  0  0  0  3  0  0  0  0  0  0
  161.5810  212.6100  149.8220 C   0  0  0  0  0  3  0  0  0  0  0  0
  159.8860  211.1550  156.1620 C   0  0  0  0  0  0  0  0  0  0  0  0
  158.7070  211.6040  156.6590 F   0  0  0  0  0  0  0  0  0  0  0  0
  161.1940  210.2200  154.3400 C   0  0  0  0  0  0  0  0  0  0  0  0
  161.0240  211.1680  156.9720 C   0  0  0  0  0  3  0  0  0  0  0  0
  162.3310  210.2460  155.1600 C   0  0  0  0  0  3  0  0  0  0  0  0
  159.9670  210.6890  154.8460 C   0  0  0  0  0  0  0  0  0  0  0  0
  158.8340  210.7020  154.0400 O   0  0  0  0  0  1  0  0  0  0  0  0
  162.2560  210.7150  156.4740 C   0  0  0  0  0  0  0  0  0  0  0  0
  164.4130  211.7210  157.1430 C   0  0  0  0  0  1  0  0  0  0  0  0
  163.4120  210.7200  157.2590 O   0  0  0  0  0  0  0  0  0  0  0  0
  161.7360  206.6500  147.3270 C   0  0  0  0  0  3  0  0  0  0  0  0
  160.7070  206.4640  146.6250 O   0  0  0  0  0  0  0  0  0  0  0  0
  1 15  1  0  0  0  0
  1  3  2  0  0  0  0
  2  7  1  0  0  0  0
  2  4  1  0  0  0  0
  4 10  1  1  0  0  0
  4  1  1  0  0  0  0
  5  2  1  0  0  0  0
  6 20  1  0  0  0  0
  7 14  2  0  0  0  0
  8 19  1  0  0  0  0
  8  9  2  0  0  0  0
  9 16  1  0  0  0  0
 10 13  1  0  0  0  0
 11  9  1  0  0  0  0
 11  5  1  0  0  0  0
 12 10  2  0  0  0  0
 13 18  2  0  0  0  0
 14 15  1  0  0  0  0
 15 23  1  0  0  0  0
 16 20  2  0  0  0  0
 16  7  1  0  0  0  0
 17  5  2  0  0  0  0
 17 12  1  0  0  0  0
 18  3  1  0  0  0  0
 19  6  2  0  0  0  0
 21 22  1  0  0  0  0
 21 24  1  0  0  0  0
 23 26  1  0  0  0  0
 23 25  2  0  0  0  0
 25 28  1  0  0  0  0
 26 21  2  0  0  0  0
 27 26  1  0  0  0  0
 28 24  2  0  0  0  0
 28 30  1  0  0  0  0
 29 30  1  0  0  0  0
 31 17  1  0  0  0  0
 32 31  2  0  0  0  0
M  END
>  <MODEL>
9

>  <REMARK>
 VINA RESULT:      -7.7      3.762      7.994
  Name = 
  3 active torsions:
  status: ('A' for Active; 'I' for Inactive)
    1  A    between atoms: C_13  and  CA_29
    2  A    between atoms: O_15  and  C_26
    3  A    between atoms: C_16  and  N_27
                            x       y       z     vdW  Elec       q    Type
                         _______ _______ _______ _____ _____    ______ ____

>  <TORSDO>
F 3

$$$$
