=
 OpenBabel11052421473D

 30 33  0  0  1  0  0  0  0  0999 V2000
  159.9050  211.3900  153.0190 C   0  0  0  0  0  0  0  0  0  0  0  0
  157.4640  211.5620  153.2810 O   0  0  0  0  0  0  0  0  0  0  0  0
  158.8760  211.6040  155.3660 C   0  0  1  0  0  0  0  0  0  0  0  0
  160.2220  209.9200  153.0210 C   0  0  2  0  0  3  0  0  0  0  0  0
  160.7010  212.2790  152.4150 C   0  0  0  0  0  2  0  0  0  0  0  0
  160.2120  211.0760  155.9570 C   0  0  2  0  0  3  0  0  0  0  0  0
  155.6210  211.8800  154.7840 C   0  0  0  0  0  2  0  0  0  0  0  0
  156.5020  212.4950  153.7040 C   0  0  0  0  0  2  0  0  0  0  0  0
  157.3790  212.5420  157.2540 C   0  0  0  0  0  1  0  0  0  0  0  0
  156.3730  210.8510  155.6320 C   0  0  0  0  0  2  0  0  0  0  0  0
  158.7400  211.8490  153.8400 C   0  0  1  0  0  0  0  0  0  0  0  0
  161.2420  209.6010  154.1030 C   0  0  0  0  0  2  0  0  0  0  0  0
  161.3850  212.0540  155.9690 C   0  0  0  0  0  1  0  0  0  0  0  0
  160.6360  209.6660  155.5140 C   0  0  2  0  0  3  0  0  0  0  0  0
  157.6440  211.4000  156.2800 C   0  0  1  0  0  3  0  0  0  0  0  0
  158.9550  213.0280  154.7920 C   0  0  0  0  0  2  0  0  0  0  0  0
  159.5290  208.6380  155.7290 C   0  0  0  0  0  2  0  0  0  0  0  0
  160.0990  207.2220  155.8240 C   0  0  2  0  0  3  0  0  0  0  0  0
  160.4260  206.8370  157.2610 C   0  0  0  0  0  1  0  0  0  0  0  0
  161.1670  206.9810  154.9290 O   0  0  0  0  0  0  0  0  0  0  0  0
  160.8330  205.9040  154.0900 C   0  0  0  0  0  1  0  0  0  0  0  0
  160.6920  209.4050  151.6660 C   0  0  0  0  0  2  0  0  0  0  0  0
  161.7890  208.3610  151.8300 C   0  0  0  0  0  2  0  0  0  0  0  0
  162.3580  207.9100  150.4850 C   0  0  0  0  0  2  0  0  0  0  0  0
  160.9090  205.6080  149.9960 S   0  0  0  0  0  0  0  0  0  0  0  0
  161.3020  207.3180  149.5540 C   0  0  2  0  0  3  0  0  0  0  0  0
  160.8480  206.5710  147.5420 N   0  0  0  0  0  2  0  0  0  0  0  0
  161.7230  207.3610  148.2190 O   0  0  0  0  0  0  0  0  0  0  0  0
  161.9060  204.4590  147.8070 N   0  0  0  0  0  1  0  0  0  0  0  0
  160.7910  205.2890  148.2270 C   0  0  1  0  0  3  0  0  0  0  0  0
  1  4  1  0  0  0  0
  1 11  1  0  0  0  0
  2  8  1  0  0  0  0
  2 11  1  0  0  0  0
  3 16  1  1  0  0  0
  3  6  1  0  0  0  0
  3 15  1  0  0  0  0
  4 22  1  6  0  0  0
  4 12  1  0  0  0  0
  5  1  2  0  0  0  0
  6 13  1  6  0  0  0
  7 10  1  0  0  0  0
  8  7  1  0  0  0  0
 10 15  1  0  0  0  0
 11 16  1  6  0  0  0
 11  3  1  0  0  0  0
 12 14  1  0  0  0  0
 14 17  1  6  0  0  0
 14  6  1  0  0  0  0
 15  9  1  6  0  0  0
 17 18  1  0  0  0  0
 18 19  1  1  0  0  0
 20 18  1  0  0  0  0
 21 20  1  0  0  0  0
 22 23  1  0  0  0  0
 24 23  1  0  0  0  0
 26 25  1  0  0  0  0
 26 24  1  1  0  0  0
 27 28  1  0  0  0  0
 27 30  1  0  0  0  0
 28 26  1  0  0  0  0
 30 29  1  6  0  0  0
 30 25  1  0  0  0  0
M  END
>  <MODEL>
1

>  <REMARK>
 VINA RESULT:      -4.1      0.000      0.000
  Name = 
  7 active torsions:
  status: ('A' for Active; 'I' for Inactive)
    1  A    between atoms: C_4  and  C_27
    2  A    between atoms: C_7  and  C_10
    3  A    between atoms: C_7  and  O_15
    4  A    between atoms: C_8  and  C_13
    5  A    between atoms: C_10  and  C_25
    6  A    between atoms: C_13  and  C_30
    7  A    between atoms: C_27  and  C_30
                            x       y       z     vdW  Elec       q    Type
                         _______ _______ _______ _____ _____    ______ ____

>  <TORSDO>
F 7

$$$$
=
 OpenBabel11052421473D

 30 33  0  0  1  0  0  0  0  0999 V2000
  159.2630  212.3680  153.2730 C   0  0  0  0  0  0  0  0  0  0  0  0
  156.9310  211.5860  153.3470 O   0  0  0  0  0  0  0  0  0  0  0  0
  158.0390  212.1890  155.5270 C   0  0  1  0  0  0  0  0  0  0  0  0
  160.1190  211.1350  153.3570 C   0  0  2  0  0  3  0  0  0  0  0  0
  159.7040  213.4900  152.6940 C   0  0  0  0  0  2  0  0  0  0  0  0
  159.4210  212.2230  156.2360 C   0  0  2  0  0  3  0  0  0  0  0  0
  154.9890  211.1800  154.6960 C   0  0  0  0  0  2  0  0  0  0  0  0
  155.6530  212.0790  153.6600 C   0  0  0  0  0  2  0  0  0  0  0  0
  156.1440  212.4910  157.2600 C   0  0  0  0  0  1  0  0  0  0  0  0
  156.0040  210.5290  155.6380 C   0  0  0  0  0  2  0  0  0  0  0  0
  157.9470  212.3490  153.9860 C   0  0  1  0  0  0  0  0  0  0  0  0
  161.0900  211.2440  154.5240 C   0  0  0  0  0  2  0  0  0  0  0  0
  160.1220  213.5780  156.2950 C   0  0  0  0  0  1  0  0  0  0  0  0
  160.3890  211.0830  155.8820 C   0  0  2  0  0  3  0  0  0  0  0  0
  156.9080  211.5330  156.3550 C   0  0  1  0  0  3  0  0  0  0  0  0
  157.6120  213.5270  154.9040 C   0  0  0  0  0  2  0  0  0  0  0  0
  159.7490  209.7080  156.0560 C   0  0  0  0  0  2  0  0  0  0  0  0
  160.4170  208.9240  157.1860 C   0  0  2  0  0  3  0  0  0  0  0  0
  161.9140  209.2000  157.2610 C   0  0  0  0  0  1  0  0  0  0  0  0
  160.1070  207.5450  157.1790 O   0  0  0  0  0  0  0  0  0  0  0  0
  159.7320  207.1630  155.8790 C   0  0  0  0  0  1  0  0  0  0  0  0
  160.8630  210.8300  152.0630 C   0  0  0  0  0  2  0  0  0  0  0  0
  161.8100  209.6510  152.2430 C   0  0  0  0  0  2  0  0  0  0  0  0
  161.0580  208.3350  152.4420 C   0  0  0  0  0  2  0  0  0  0  0  0
  162.0600  207.6920  149.9470 S   0  0  0  0  0  0  0  0  0  0  0  0
  161.6440  207.1790  151.6320 C   0  0  2  0  0  3  0  0  0  0  0  0
  161.2550  205.2720  150.6200 N   0  0  0  0  0  2  0  0  0  0  0  0
  160.7550  206.0990  151.5750 O   0  0  0  0  0  0  0  0  0  0  0  0
  160.2380  206.2100  148.6870 N   0  0  0  0  0  1  0  0  0  0  0  0
  161.4820  206.0690  149.4240 C   0  0  1  0  0  3  0  0  0  0  0  0
  1  4  1  0  0  0  0
  1 11  1  0  0  0  0
  2  8  1  0  0  0  0
  2 11  1  0  0  0  0
  3 16  1  1  0  0  0
  3  6  1  0  0  0  0
  3 15  1  0  0  0  0
  4 22  1  6  0  0  0
  4 12  1  0  0  0  0
  5  1  2  0  0  0  0
  6 13  1  6  0  0  0
  7 10  1  0  0  0  0
  8  7  1  0  0  0  0
 10 15  1  0  0  0  0
 11 16  1  6  0  0  0
 11  3  1  0  0  0  0
 12 14  1  0  0  0  0
 14 17  1  6  0  0  0
 14  6  1  0  0  0  0
 15  9  1  6  0  0  0
 17 18  1  0  0  0  0
 18 19  1  6  0  0  0
 20 18  1  0  0  0  0
 21 20  1  0  0  0  0
 22 23  1  0  0  0  0
 23 24  1  0  0  0  0
 25 26  1  0  0  0  0
 26 24  1  1  0  0  0
 27 28  1  0  0  0  0
 28 26  1  0  0  0  0
 30 29  1  1  0  0  0
 30 25  1  0  0  0  0
 30 27  1  0  0  0  0
M  END
>  <MODEL>
2

>  <REMARK>
 VINA RESULT:      -4.1      1.553      1.878
  Name = 
  7 active torsions:
  status: ('A' for Active; 'I' for Inactive)
    1  A    between atoms: C_4  and  C_27
    2  A    between atoms: C_7  and  C_10
    3  A    between atoms: C_7  and  O_15
    4  A    between atoms: C_8  and  C_13
    5  A    between atoms: C_10  and  C_25
    6  A    between atoms: C_13  and  C_30
    7  A    between atoms: C_27  and  C_30
                            x       y       z     vdW  Elec       q    Type
                         _______ _______ _______ _____ _____    ______ ____

>  <TORSDO>
F 7

$$$$
=
 OpenBabel11052421473D

 30 33  0  0  1  0  0  0  0  0999 V2000
  158.6370  211.5810  153.2640 C   0  0  0  0  0  0  0  0  0  0  0  0
  156.5410  210.7350  154.2350 O   0  0  0  0  0  0  0  0  0  0  0  0
  157.8080  212.4890  155.5220 C   0  0  1  0  0  0  0  0  0  0  0  0
  159.7230  210.6620  153.7510 C   0  0  2  0  0  3  0  0  0  0  0  0
  158.7600  212.2720  152.1250 C   0  0  0  0  0  2  0  0  0  0  0  0
  159.2430  213.0200  155.7910 C   0  0  2  0  0  3  0  0  0  0  0  0
  154.9300  210.9100  156.0050 C   0  0  0  0  0  2  0  0  0  0  0  0
  155.2480  211.1930  154.5420 C   0  0  0  0  0  2  0  0  0  0  0  0
  156.1580  213.4700  157.2560 C   0  0  0  0  0  1  0  0  0  0  0  0
  156.1780  210.9460  156.8900 C   0  0  0  0  0  2  0  0  0  0  0  0
  157.4670  211.8120  154.1690 C   0  0  1  0  0  0  0  0  0  0  0  0
  160.8100  211.4560  154.4600 C   0  0  0  0  0  2  0  0  0  0  0  0
  159.6640  214.2670  155.0160 C   0  0  0  0  0  1  0  0  0  0  0  0
  160.3570  211.9620  155.8390 C   0  0  2  0  0  3  0  0  0  0  0  0
  156.9590  212.2580  156.7960 C   0  0  1  0  0  3  0  0  0  0  0  0
  157.0410  213.2570  154.4340 C   0  0  0  0  0  2  0  0  0  0  0  0
  160.0320  210.8270  156.8060 C   0  0  0  0  0  2  0  0  0  0  0  0
  161.3010  210.1060  157.2610 C   0  0  2  0  0  3  0  0  0  0  0  0
  162.5330  210.9940  157.1390 C   0  0  0  0  0  1  0  0  0  0  0  0
  161.4740  208.8350  156.6670 O   0  0  0  0  0  0  0  0  0  0  0  0
  160.4860  207.9600  157.1500 C   0  0  0  0  0  1  0  0  0  0  0  0
  160.3190  209.7980  152.6460 C   0  0  0  0  0  2  0  0  0  0  0  0
  161.3990  208.8760  153.1970 C   0  0  0  0  0  2  0  0  0  0  0  0
  160.8840  207.4540  153.4130 C   0  0  0  0  0  2  0  0  0  0  0  0
  161.7190  206.7380  150.8770 S   0  0  0  0  0  0  0  0  0  0  0  0
  161.6910  206.4010  152.6550 C   0  0  2  0  0  3  0  0  0  0  0  0
  161.7820  204.3270  151.9440 N   0  0  0  0  0  2  0  0  0  0  0  0
  161.1740  205.1170  152.8680 O   0  0  0  0  0  0  0  0  0  0  0  0
  160.2980  204.6180  150.1110 N   0  0  0  0  0  1  0  0  0  0  0  0
  161.6050  204.9560  150.6440 C   0  0  1  0  0  3  0  0  0  0  0  0
  1  4  1  0  0  0  0
  1 11  1  0  0  0  0
  2  8  1  0  0  0  0
  3 16  1  6  0  0  0
  3  6  1  0  0  0  0
  3 15  1  0  0  0  0
  4 22  1  6  0  0  0
  4 12  1  0  0  0  0
  5  1  2  0  0  0  0
  6 13  1  6  0  0  0
  6 14  1  0  0  0  0
  7 10  1  0  0  0  0
  8  7  1  0  0  0  0
 11  2  1  0  0  0  0
 11 16  1  6  0  0  0
 11  3  1  0  0  0  0
 12 14  1  0  0  0  0
 14 17  1  1  0  0  0
 15 10  1  0  0  0  0
 15  9  1  6  0  0  0
 17 18  1  0  0  0  0
 18 19  1  6  0  0  0
 20 21  1  0  0  0  0
 20 18  1  0  0  0  0
 22 23  1  0  0  0  0
 23 24  1  0  0  0  0
 25 26  1  0  0  0  0
 26 28  1  0  0  0  0
 26 24  1  1  0  0  0
 27 28  1  0  0  0  0
 30 29  1  1  0  0  0
 30 25  1  0  0  0  0
 30 27  1  0  0  0  0
M  END
>  <MODEL>
3

>  <REMARK>
 VINA RESULT:      -4.0      1.937      2.624
  Name = 
  7 active torsions:
  status: ('A' for Active; 'I' for Inactive)
    1  A    between atoms: C_4  and  C_27
    2  A    between atoms: C_7  and  C_10
    3  A    between atoms: C_7  and  O_15
    4  A    between atoms: C_8  and  C_13
    5  A    between atoms: C_10  and  C_25
    6  A    between atoms: C_13  and  C_30
    7  A    between atoms: C_27  and  C_30
                            x       y       z     vdW  Elec       q    Type
                         _______ _______ _______ _____ _____    ______ ____

>  <TORSDO>
F 7

$$$$
=
 OpenBabel11052421473D

 30 33  0  0  1  0  0  0  0  0999 V2000
  160.4620  210.3290  154.4260 C   0  0  0  0  0  0  0  0  0  0  0  0
  161.1930  212.1170  155.9500 O   0  0  0  0  0  0  0  0  0  0  0  0
  158.8060  212.1590  155.1470 C   0  0  1  0  0  0  0  0  0  0  0  0
  160.7740  210.8110  153.0360 C   0  0  2  0  0  3  0  0  0  0  0  0
  160.3820  209.0250  154.7150 C   0  0  0  0  0  2  0  0  0  0  0  0
  157.9060  211.7650  153.9440 C   0  0  2  0  0  3  0  0  0  0  0  0
  160.5670  214.0450  157.2340 C   0  0  0  0  0  2  0  0  0  0  0  0
  160.9440  212.5690  157.2570 C   0  0  0  0  0  2  0  0  0  0  0  0
  157.5190  213.7410  156.7380 C   0  0  0  0  0  1  0  0  0  0  0  0
  159.8400  214.4400  155.9460 C   0  0  0  0  0  2  0  0  0  0  0  0
  160.0990  211.3570  155.4520 C   0  0  1  0  0  0  0  0  0  0  0  0
  159.5200  210.7930  152.1760 C   0  0  0  0  0  2  0  0  0  0  0  0
  157.1150  210.4670  154.0820 C   0  0  0  0  0  1  0  0  0  0  0  0
  158.5390  211.9150  152.5500 C   0  0  2  0  0  3  0  0  0  0  0  0
  158.5920  213.6020  155.6640 C   0  0  1  0  0  3  0  0  0  0  0  0
  158.8350  211.1250  156.2830 C   0  0  0  0  0  2  0  0  0  0  0  0
  159.1230  213.3070  152.3300 C   0  0  0  0  0  2  0  0  0  0  0  0
  158.9380  213.7630  150.8820 C   0  0  2  0  0  3  0  0  0  0  0  0
  157.5730  213.3670  150.3320 C   0  0  0  0  0  1  0  0  0  0  0  0
  160.0050  213.3950  150.0320 O   0  0  0  0  0  0  0  0  0  0  0  0
  159.6770  213.7280  148.7060 C   0  0  0  0  0  1  0  0  0  0  0  0
  161.9000  210.0310  152.3690 C   0  0  0  0  0  2  0  0  0  0  0  0
  161.3530  208.8270  151.6110 C   0  0  0  0  0  2  0  0  0  0  0  0
  162.1510  208.5390  150.3400 C   0  0  0  0  0  2  0  0  0  0  0  0
  162.7200  206.8990  148.1890 S   0  0  0  0  0  0  0  0  0  0  0  0
  161.9440  207.1210  149.8090 C   0  0  2  0  0  3  0  0  0  0  0  0
  160.5260  205.6670  148.9790 N   0  0  0  0  0  2  0  0  0  0  0  0
  160.5820  206.8120  149.7100 O   0  0  0  0  0  0  0  0  0  0  0  0
  160.4770  206.5780  146.7850 N   0  0  0  0  0  1  0  0  0  0  0  0
  161.2950  205.8830  147.7630 C   0  0  1  0  0  3  0  0  0  0  0  0
  1  5  2  0  0  0  0
  1 11  1  0  0  0  0
  2  8  1  0  0  0  0
  3 11  1  0  0  0  0
  3 15  1  0  0  0  0
  3 16  1  1  0  0  0
  4 22  1  6  0  0  0
  4  1  1  0  0  0  0
  6 13  1  1  0  0  0
  6  3  1  0  0  0  0
  7  8  1  0  0  0  0
 10  7  1  0  0  0  0
 11  2  1  0  0  0  0
 11 16  1  1  0  0  0
 12 14  1  0  0  0  0
 12  4  1  0  0  0  0
 14 17  1  1  0  0  0
 14  6  1  0  0  0  0
 15 10  1  0  0  0  0
 15  9  1  1  0  0  0
 18 19  1  6  0  0  0
 18 17  1  0  0  0  0
 20 18  1  0  0  0  0
 21 20  1  0  0  0  0
 23 22  1  0  0  0  0
 24 23  1  0  0  0  0
 25 26  1  0  0  0  0
 26 24  1  6  0  0  0
 27 28  1  0  0  0  0
 28 26  1  0  0  0  0
 30 29  1  6  0  0  0
 30 25  1  0  0  0  0
 30 27  1  0  0  0  0
M  END
>  <MODEL>
4

>  <REMARK>
 VINA RESULT:      -3.8      2.088      4.471
  Name = 
  7 active torsions:
  status: ('A' for Active; 'I' for Inactive)
    1  A    between atoms: C_4  and  C_27
    2  A    between atoms: C_7  and  C_10
    3  A    between atoms: C_7  and  O_15
    4  A    between atoms: C_8  and  C_13
    5  A    between atoms: C_10  and  C_25
    6  A    between atoms: C_13  and  C_30
    7  A    between atoms: C_27  and  C_30
                            x       y       z     vdW  Elec       q    Type
                         _______ _______ _______ _____ _____    ______ ____

>  <TORSDO>
F 7

$$$$
=
 OpenBabel11052421473D

 30 33  0  0  1  0  0  0  0  0999 V2000
  160.7520  210.2700  152.0200 C   0  0  0  0  0  0  0  0  0  0  0  0
  158.4870  210.9770  152.6700 O   0  0  0  0  0  0  0  0  0  0  0  0
  160.2440  210.8650  154.4700 C   0  0  1  0  0  0  0  0  0  0  0  0
  160.7690  208.7700  152.1290 C   0  0  2  0  0  3  0  0  0  0  0  0
  161.5810  210.9230  151.1980 C   0  0  0  0  0  2  0  0  0  0  0  0
  161.5370  210.1080  154.8810 C   0  0  2  0  0  3  0  0  0  0  0  0
  157.0570  211.7860  154.4180 C   0  0  0  0  0  2  0  0  0  0  0  0
  157.8240  212.1210  153.1450 C   0  0  0  0  0  2  0  0  0  0  0  0
  159.3420  212.2330  156.4700 C   0  0  0  0  0  1  0  0  0  0  0  0
  157.7370  210.6840  155.2340 C   0  0  0  0  0  2  0  0  0  0  0  0
  159.8760  211.0240  152.9710 C   0  0  1  0  0  0  0  0  0  0  0  0
  161.8910  208.3180  153.0520 C   0  0  0  0  0  2  0  0  0  0  0  0
  162.8600  210.8120  154.5900 C   0  0  0  0  0  1  0  0  0  0  0  0
  161.5850  208.6120  154.5290 C   0  0  2  0  0  3  0  0  0  0  0  0
  159.1900  210.9950  155.5950 C   0  0  1  0  0  3  0  0  0  0  0  0
  160.4930  212.1940  153.7400 C   0  0  0  0  0  2  0  0  0  0  0  0
  160.3570  207.8610  155.0370 C   0  0  0  0  0  2  0  0  0  0  0  0
  160.3120  207.8450  156.5660 C   0  0  2  0  0  3  0  0  0  0  0  0
  161.7060  207.9080  157.1760 C   0  0  0  0  0  1  0  0  0  0  0  0
  159.5220  206.8000  157.0970 O   0  0  0  0  0  0  0  0  0  0  0  0
  158.5770  206.4000  156.1360 C   0  0  0  0  0  1  0  0  0  0  0  0
  160.8660  208.0710  150.7780 C   0  0  0  0  0  2  0  0  0  0  0  0
  161.0630  206.5710  150.9530 C   0  0  0  0  0  2  0  0  0  0  0  0
  160.4740  205.7750  149.7890 C   0  0  0  0  0  2  0  0  0  0  0  0
  161.9210  206.5470  147.5640 S   0  0  0  0  0  0  0  0  0  0  0  0
  161.5310  205.2850  148.8010 C   0  0  2  0  0  3  0  0  0  0  0  0
  161.9870  203.9480  147.1220 N   0  0  0  0  0  2  0  0  0  0  0  0
  161.1120  204.1190  148.1480 O   0  0  0  0  0  0  0  0  0  0  0  0
  160.9260  205.2640  145.4500 N   0  0  0  0  0  1  0  0  0  0  0  0
  162.0410  205.1970  146.3780 C   0  0  1  0  0  3  0  0  0  0  0  0
  1  4  1  0  0  0  0
  1 11  1  0  0  0  0
  2 11  1  0  0  0  0
  2  8  1  0  0  0  0
  3 16  1  1  0  0  0
  3  6  1  0  0  0  0
  3 15  1  0  0  0  0
  4 22  1  6  0  0  0
  4 12  1  0  0  0  0
  5  1  2  0  0  0  0
  6 13  1  6  0  0  0
  7 10  1  0  0  0  0
  8  7  1  0  0  0  0
 10 15  1  0  0  0  0
 11 16  1  6  0  0  0
 11  3  1  0  0  0  0
 12 14  1  0  0  0  0
 14  6  1  0  0  0  0
 14 17  1  6  0  0  0
 15  9  1  6  0  0  0
 17 18  1  0  0  0  0
 18 20  1  0  0  0  0
 18 19  1  1  0  0  0
 21 20  1  0  0  0  0
 22 23  1  0  0  0  0
 24 23  1  0  0  0  0
 25 26  1  0  0  0  0
 26 24  1  1  0  0  0
 27 28  1  0  0  0  0
 28 26  1  0  0  0  0
 30 29  1  6  0  0  0
 30 27  1  0  0  0  0
 30 25  1  0  0  0  0
M  END
>  <MODEL>
5

>  <REMARK>
 VINA RESULT:      -3.3      1.632      2.107
  Name = 
  7 active torsions:
  status: ('A' for Active; 'I' for Inactive)
    1  A    between atoms: C_4  and  C_27
    2  A    between atoms: C_7  and  C_10
    3  A    between atoms: C_7  and  O_15
    4  A    between atoms: C_8  and  C_13
    5  A    between atoms: C_10  and  C_25
    6  A    between atoms: C_13  and  C_30
    7  A    between atoms: C_27  and  C_30
                            x       y       z     vdW  Elec       q    Type
                         _______ _______ _______ _____ _____    ______ ____

>  <TORSDO>
F 7

$$$$
=
 OpenBabel11052421473D

 30 33  0  0  1  0  0  0  0  0999 V2000
  160.7030  210.4420  152.1930 C   0  0  0  0  0  0  0  0  0  0  0  0
  158.4040  211.2490  152.5320 O   0  0  0  0  0  0  0  0  0  0  0  0
  159.9360  211.1920  154.5300 C   0  0  1  0  0  0  0  0  0  0  0  0
  160.6540  208.9500  152.3840 C   0  0  2  0  0  3  0  0  0  0  0  0
  161.6440  211.0220  151.4410 C   0  0  0  0  0  2  0  0  0  0  0  0
  161.1440  210.4220  155.1320 C   0  0  2  0  0  3  0  0  0  0  0  0
  156.8110  212.2000  154.0540 C   0  0  0  0  0  2  0  0  0  0  0  0
  157.7310  212.4380  152.8640 C   0  0  0  0  0  2  0  0  0  0  0  0
  158.8560  212.6980  156.3340 C   0  0  0  0  0  1  0  0  0  0  0  0
  157.3510  211.1270  155.0030 C   0  0  0  0  0  2  0  0  0  0  0  0
  159.7490  211.2740  152.9920 C   0  0  1  0  0  0  0  0  0  0  0  0
  161.6440  208.5210  153.4560 C   0  0  0  0  0  2  0  0  0  0  0  0
  162.5160  211.0700  154.9600 C   0  0  0  0  0  1  0  0  0  0  0  0
  161.1790  208.9080  154.8680 C   0  0  2  0  0  3  0  0  0  0  0  0
  158.7630  211.4160  155.5150 C   0  0  1  0  0  3  0  0  0  0  0  0
  160.3140  212.4690  153.7640 C   0  0  0  0  0  2  0  0  0  0  0  0
  159.8750  208.2240  155.2680 C   0  0  0  0  0  2  0  0  0  0  0  0
  160.1230  206.7890  155.7360 C   0  0  2  0  0  3  0  0  0  0  0  0
  160.1200  206.6780  157.2550 C   0  0  0  0  0  1  0  0  0  0  0  0
  161.2550  206.1870  155.1390 O   0  0  0  0  0  0  0  0  0  0  0  0
  160.8300  205.2680  154.1640 C   0  0  0  0  0  1  0  0  0  0  0  0
  160.8820  208.1730  151.0940 C   0  0  0  0  0  2  0  0  0  0  0  0
  161.1180  206.6960  151.3820 C   0  0  0  0  0  2  0  0  0  0  0  0
  160.5650  205.7990  150.2740 C   0  0  0  0  0  2  0  0  0  0  0  0
  161.2080  203.7400  148.5460 S   0  0  0  0  0  0  0  0  0  0  0  0
  161.2360  204.4280  150.2200 C   0  0  2  0  0  3  0  0  0  0  0  0
  161.1060  202.3040  150.7560 N   0  0  0  0  0  2  0  0  0  0  0  0
  160.6180  203.5260  151.0950 O   0  0  0  0  0  0  0  0  0  0  0  0
  159.5650  201.7020  149.0490 N   0  0  0  0  0  1  0  0  0  0  0  0
  160.9230  202.1400  149.3210 C   0  0  1  0  0  3  0  0  0  0  0  0
  1  4  1  0  0  0  0
  1 11  1  0  0  0  0
  2  8  1  0  0  0  0
  2 11  1  0  0  0  0
  3 16  1  1  0  0  0
  3  6  1  0  0  0  0
  3 15  1  0  0  0  0
  4 22  1  6  0  0  0
  4 12  1  0  0  0  0
  5  1  2  0  0  0  0
  6 13  1  6  0  0  0
  7 10  1  0  0  0  0
  8  7  1  0  0  0  0
 10 15  1  0  0  0  0
 11 16  1  6  0  0  0
 11  3  1  0  0  0  0
 12 14  1  0  0  0  0
 14  6  1  0  0  0  0
 14 17  1  6  0  0  0
 15  9  1  6  0  0  0
 17 18  1  0  0  0  0
 18 19  1  1  0  0  0
 20 18  1  0  0  0  0
 21 20  1  0  0  0  0
 22 23  1  0  0  0  0
 24 23  1  0  0  0  0
 25 30  1  0  0  0  0
 25 26  1  0  0  0  0
 26 24  1  6  0  0  0
 26 28  1  0  0  0  0
 27 28  1  0  0  0  0
 30 29  1  1  0  0  0
 30 27  1  0  0  0  0
M  END
>  <MODEL>
6

>  <REMARK>
 VINA RESULT:      -3.3      1.925      2.182
  Name = 
  7 active torsions:
  status: ('A' for Active; 'I' for Inactive)
    1  A    between atoms: C_4  and  C_27
    2  A    between atoms: C_7  and  C_10
    3  A    between atoms: C_7  and  O_15
    4  A    between atoms: C_8  and  C_13
    5  A    between atoms: C_10  and  C_25
    6  A    between atoms: C_13  and  C_30
    7  A    between atoms: C_27  and  C_30
                            x       y       z     vdW  Elec       q    Type
                         _______ _______ _______ _____ _____    ______ ____

>  <TORSDO>
F 7

$$$$
=
 OpenBabel11052421473D

 30 33  0  0  1  0  0  0  0  0999 V2000
  160.9840  210.1290  154.6220 C   0  0  0  0  0  0  0  0  0  0  0  0
  160.2660  211.0010  152.4370 O   0  0  0  0  0  0  0  0  0  0  0  0
  159.3970  212.1490  154.5030 C   0  0  1  0  0  0  0  0  0  0  0  0
  159.9940  209.0580  154.9900 C   0  0  2  0  0  3  0  0  0  0  0  0
  162.2320  210.1250  155.1020 C   0  0  0  0  0  2  0  0  0  0  0  0
  159.0160  211.8880  155.9870 C   0  0  2  0  0  3  0  0  0  0  0  0
  159.0510  212.6950  151.2490 C   0  0  0  0  0  2  0  0  0  0  0  0
  160.4180  212.1550  151.6480 C   0  0  0  0  0  2  0  0  0  0  0  0
  158.4940  214.4510  153.7460 C   0  0  0  0  0  1  0  0  0  0  0  0
  157.9800  212.4100  152.3050 C   0  0  0  0  0  2  0  0  0  0  0  0
  160.4850  211.2850  153.8120 C   0  0  1  0  0  0  0  0  0  0  0  0
  159.3730  209.3550  156.3470 C   0  0  0  0  0  2  0  0  0  0  0  0
  160.0530  212.2850  157.0350 C   0  0  0  0  0  1  0  0  0  0  0  0
  158.3770  210.5230  156.2900 C   0  0  2  0  0  3  0  0  0  0  0  0
  158.3360  212.9360  153.6970 C   0  0  1  0  0  3  0  0  0  0  0  0
  160.8180  212.6970  154.3000 C   0  0  0  0  0  2  0  0  0  0  0  0
  157.1810  210.2340  155.3860 C   0  0  0  0  0  2  0  0  0  0  0  0
  155.9090  210.8930  155.9240 C   0  0  2  0  0  3  0  0  0  0  0  0
  154.7020  209.9710  155.8120 C   0  0  0  0  0  1  0  0  0  0  0  0
  155.6730  212.1820  155.3950 O   0  0  0  0  0  0  0  0  0  0  0  0
  155.4180  213.0750  156.4500 C   0  0  0  0  0  1  0  0  0  0  0  0
  160.5890  207.6550  154.9630 C   0  0  0  0  0  2  0  0  0  0  0  0
  161.0410  207.2830  153.5570 C   0  0  0  0  0  2  0  0  0  0  0  0
  161.1950  205.7720  153.3850 C   0  0  0  0  0  2  0  0  0  0  0  0
  161.9680  206.8180  150.9460 S   0  0  0  0  0  0  0  0  0  0  0  0
  161.7370  205.3740  152.0130 C   0  0  2  0  0  3  0  0  0  0  0  0
  161.3160  204.4110  150.0880 N   0  0  0  0  0  2  0  0  0  0  0  0
  160.8840  204.4660  151.3750 O   0  0  0  0  0  0  0  0  0  0  0  0
  160.0830  206.2190  149.1600 N   0  0  0  0  0  1  0  0  0  0  0  0
  161.3970  205.7770  149.5930 C   0  0  1  0  0  3  0  0  0  0  0  0
  1  4  1  0  0  0  0
  1  5  2  0  0  0  0
  2 11  1  0  0  0  0
  3 16  1  1  0  0  0
  3  6  1  0  0  0  0
  4 22  1  1  0  0  0
  4 12  1  0  0  0  0
  6 14  1  0  0  0  0
  6 13  1  1  0  0  0
  7  8  1  0  0  0  0
  7 10  1  0  0  0  0
  8  2  1  0  0  0  0
 10 15  1  0  0  0  0
 11 16  1  6  0  0  0
 11  3  1  0  0  0  0
 11  1  1  0  0  0  0
 14 17  1  6  0  0  0
 14 12  1  0  0  0  0
 15  9  1  6  0  0  0
 15  3  1  0  0  0  0
 17 18  1  0  0  0  0
 18 19  1  6  0  0  0
 20 18  1  0  0  0  0
 20 21  1  0  0  0  0
 23 22  1  0  0  0  0
 24 23  1  0  0  0  0
 25 26  1  0  0  0  0
 26 24  1  1  0  0  0
 27 28  1  0  0  0  0
 28 26  1  0  0  0  0
 30 29  1  1  0  0  0
 30 27  1  0  0  0  0
 30 25  1  0  0  0  0
M  END
>  <MODEL>
7

>  <REMARK>
 VINA RESULT:      -2.8      1.970      3.934
  Name = 
  7 active torsions:
  status: ('A' for Active; 'I' for Inactive)
    1  A    between atoms: C_4  and  C_27
    2  A    between atoms: C_7  and  C_10
    3  A    between atoms: C_7  and  O_15
    4  A    between atoms: C_8  and  C_13
    5  A    between atoms: C_10  and  C_25
    6  A    between atoms: C_13  and  C_30
    7  A    between atoms: C_27  and  C_30
                            x       y       z     vdW  Elec       q    Type
                         _______ _______ _______ _____ _____    ______ ____

>  <TORSDO>
F 7

$$$$
=
 OpenBabel11052421473D

 30 33  0  0  1  0  0  0  0  0999 V2000
  160.7610  210.7850  152.1900 C   0  0  0  0  0  0  0  0  0  0  0  0
  158.4050  211.0810  152.8350 O   0  0  0  0  0  0  0  0  0  0  0  0
  160.0680  210.5790  154.6580 C   0  0  1  0  0  0  0  0  0  0  0  0
  160.9220  209.3280  151.8560 C   0  0  2  0  0  3  0  0  0  0  0  0
  161.5610  211.7180  151.6640 C   0  0  0  0  0  2  0  0  0  0  0  0
  161.4070  209.8390  154.9320 C   0  0  2  0  0  3  0  0  0  0  0  0
  156.8110  211.2140  154.6240 C   0  0  0  0  0  2  0  0  0  0  0  0
  157.6060  211.9740  153.5700 C   0  0  0  0  0  2  0  0  0  0  0  0
  158.9290  211.2090  156.8930 C   0  0  0  0  0  1  0  0  0  0  0  0
  157.5540  209.9760  155.1330 C   0  0  0  0  0  2  0  0  0  0  0  0
  159.7640  211.1480  153.2470 C   0  0  1  0  0  0  0  0  0  0  0  0
  162.0340  208.7130  152.6930 C   0  0  0  0  0  2  0  0  0  0  0  0
  162.6660  210.7020  154.9650 C   0  0  0  0  0  1  0  0  0  0  0  0
  161.6230  208.5260  154.1620 C   0  0  2  0  0  3  0  0  0  0  0  0
  158.9480  210.2810  155.6840 C   0  0  1  0  0  3  0  0  0  0  0  0
  160.2200  212.0810  154.3710 C   0  0  0  0  0  2  0  0  0  0  0  0
  160.4520  207.5620  154.3290 C   0  0  0  0  0  2  0  0  0  0  0  0
  160.8340  206.1460  153.8960 C   0  0  2  0  0  3  0  0  0  0  0  0
  162.3410  205.9880  153.7360 C   0  0  0  0  0  1  0  0  0  0  0  0
  160.1070  205.6810  152.7760 O   0  0  0  0  0  0  0  0  0  0  0  0
  160.8260  204.6450  152.1550 C   0  0  0  0  0  1  0  0  0  0  0  0
  161.1600  209.0750  150.3720 C   0  0  0  0  0  2  0  0  0  0  0  0
  161.1120  207.5850  150.0590 C   0  0  0  0  0  2  0  0  0  0  0  0
  161.8720  207.2430  148.7780 C   0  0  0  0  0  2  0  0  0  0  0  0
  161.5810  204.6000  148.0230 S   0  0  0  0  0  0  0  0  0  0  0  0
  161.0860  206.3310  147.8370 C   0  0  2  0  0  3  0  0  0  0  0  0
  160.7550  205.6870  145.7670 N   0  0  0  0  0  2  0  0  0  0  0  0
  161.2560  206.7150  146.5010 O   0  0  0  0  0  0  0  0  0  0  0  0
  162.6840  204.3070  145.6140 N   0  0  0  0  0  1  0  0  0  0  0  0
  161.3820  204.4620  146.2390 C   0  0  1  0  0  3  0  0  0  0  0  0
  1 11  1  0  0  0  0
  2 11  1  0  0  0  0
  2  8  1  0  0  0  0
  3 16  1  1  0  0  0
  3  6  1  0  0  0  0
  3 15  1  0  0  0  0
  4 22  1  6  0  0  0
  4  1  1  0  0  0  0
  4 12  1  0  0  0  0
  5  1  2  0  0  0  0
  6 13  1  6  0  0  0
  7 10  1  0  0  0  0
  8  7  1  0  0  0  0
 10 15  1  0  0  0  0
 11 16  1  1  0  0  0
 11  3  1  0  0  0  0
 12 14  1  0  0  0  0
 14 17  1  6  0  0  0
 14  6  1  0  0  0  0
 15  9  1  1  0  0  0
 18 19  1  6  0  0  0
 18 17  1  0  0  0  0
 20 18  1  0  0  0  0
 21 20  1  0  0  0  0
 23 22  1  0  0  0  0
 24 23  1  0  0  0  0
 26 25  1  0  0  0  0
 26 24  1  1  0  0  0
 27 30  1  0  0  0  0
 27 28  1  0  0  0  0
 28 26  1  0  0  0  0
 30 29  1  6  0  0  0
 30 25  1  0  0  0  0
M  END
>  <MODEL>
8

>  <REMARK>
 VINA RESULT:      -2.0      1.575      1.999
  Name = 
  7 active torsions:
  status: ('A' for Active; 'I' for Inactive)
    1  A    between atoms: C_4  and  C_27
    2  A    between atoms: C_7  and  C_10
    3  A    between atoms: C_7  and  O_15
    4  A    between atoms: C_8  and  C_13
    5  A    between atoms: C_10  and  C_25
    6  A    between atoms: C_13  and  C_30
    7  A    between atoms: C_27  and  C_30
                            x       y       z     vdW  Elec       q    Type
                         _______ _______ _______ _____ _____    ______ ____

>  <TORSDO>
F 7

$$$$
