=
 OpenBabel11052422263D

 31 34  0  0  1  0  0  0  0  0999 V2000
  161.2010  204.6240  149.5400 C   0  0  0  0  0  0  0  0  0  0  0  0
  161.1880  203.3850  148.8440 C   0  0  0  0  0  0  0  0  0  0  0  0
  161.0200  202.0930  146.7840 C   0  0  0  0  0  3  0  0  0  0  0  0
  161.0310  203.3210  147.4480 C   0  0  0  0  0  3  0  0  0  0  0  0
  161.5050  202.1930  150.9460 C   0  0  0  0  0  3  0  0  0  0  0  0
  161.1660  200.9070  147.5060 C   0  0  0  0  0  0  0  0  0  0  0  0
  161.3730  204.6210  150.9440 C   0  0  0  0  0  0  0  0  0  0  0  0
  161.1550  199.6010  146.7980 C   0  0  0  0  0  1  0  0  0  0  0  0
  161.5280  203.4060  151.6280 C   0  0  0  0  0  3  0  0  0  0  0  0
  161.3360  202.1730  149.5650 C   0  0  0  0  0  0  0  0  0  0  0  0
  161.3240  200.9460  148.8930 C   0  0  0  0  0  3  0  0  0  0  0  0
  161.3450  208.2500  149.3000 O   0  0  0  0  0  0  0  0  0  0  0  0
  161.0580  205.9580  148.8340 C   0  0  1  0  0  3  0  0  0  0  0  0
  162.5210  207.8150  148.6640 C   0  0  0  0  0  2  0  0  0  0  0  0
  160.7280  207.0850  149.7840 C   0  0  0  0  0  2  0  0  0  0  0  0
  162.3150  206.4020  148.1450 C   0  0  2  0  0  3  0  0  0  0  0  0
  160.6010  206.4320  146.3470 C   0  0  0  0  0  1  0  0  0  0  0  0
  162.0880  206.4190  146.6450 C   0  0  0  0  0  2  0  0  0  0  0  0
  161.4530  205.9100  151.7170 C   0  0  2  0  0  3  0  0  0  0  0  0
  162.8270  206.3820  151.7530 N   0  0  0  0  0  1  0  0  0  0  0  0
  160.9270  205.7480  153.1380 C   0  0  0  0  0  2  0  0  0  0  0  0
  160.4310  206.9840  155.2110 C   0  0  0  0  0  1  0  0  0  0  0  0
  160.4820  207.0860  153.6980 C   0  0  1  0  0  3  0  0  0  0  0  0
  161.4180  208.0890  153.3060 O   0  0  0  0  0  0  0  0  0  0  0  0
  160.8300  211.4450  154.7730 C   0  0  0  0  0  0  0  0  0  0  0  0
  160.1790  211.5340  152.3630 C   0  0  0  0  0  2  0  0  0  0  0  0
  160.7820  211.9150  155.9400 O   0  0  0  0  0  0  0  0  0  0  0  0
  161.7170  210.2750  154.4620 C   0  0  0  0  0  2  0  0  0  0  0  0
  160.4260  210.0520  152.3590 C   0  0  0  0  0  3  0  0  0  0  0  0
  161.1520  209.4630  153.3250 C   0  0  0  0  0  0  0  0  0  0  0  0
  160.0330  212.0180  153.7330 N   0  0  0  0  0  2  0  0  0  0  0  0
  1  7  1  0  0  0  0
  2  1  2  0  0  0  0
  2 10  1  0  0  0  0
  3  4  2  0  0  0  0
  3  6  1  0  0  0  0
  4  2  1  0  0  0  0
  5  9  1  0  0  0  0
  6 11  2  0  0  0  0
  7  9  2  0  0  0  0
  7 19  1  0  0  0  0
  8  6  1  0  0  0  0
 10  5  2  0  0  0  0
 11 10  1  0  0  0  0
 12 15  1  0  0  0  0
 13  1  1  1  0  0  0
 13 15  1  0  0  0  0
 14 12  1  0  0  0  0
 16 18  1  6  0  0  0
 16 14  1  0  0  0  0
 16 13  1  0  0  0  0
 17 18  1  0  0  0  0
 19 20  1  1  0  0  0
 19 21  1  0  0  0  0
 21 23  1  0  0  0  0
 23 22  1  1  0  0  0
 24 30  1  0  0  0  0
 24 23  1  0  0  0  0
 25 27  2  0  0  0  0
 26 31  1  0  0  0  0
 28 25  1  0  0  0  0
 29 26  1  0  0  0  0
 29 30  2  0  0  0  0
 30 28  1  0  0  0  0
 31 25  1  0  0  0  0
M  END
>  <MODEL>
1

>  <REMARK>
 VINA RESULT:      -9.2      0.000      0.000
  Name = 
  7 active torsions:
  status: ('A' for Active; 'I' for Inactive)
    1  A    between atoms: O_3  and  C_9
    2  A    between atoms: O_3  and  C_22
    3  A    between atoms: C_4  and  C_12
    4  A    between atoms: C_9  and  C_23
    5  A    between atoms: C_15  and  C_21
    6  A    between atoms: C_15  and  C_23
    7  A    between atoms: C_27  and  C_28
                            x       y       z     vdW  Elec       q    Type
                         _______ _______ _______ _____ _____    ______ ____

>  <TORSDO>
F 7

$$$$
=
 OpenBabel11052422263D

 31 34  0  0  1  0  0  0  0  0999 V2000
  161.2140  204.4060  149.0310 C   0  0  0  0  0  0  0  0  0  0  0  0
  161.1980  203.1310  148.4020 C   0  0  0  0  0  0  0  0  0  0  0  0
  161.0180  201.7310  146.4150 C   0  0  0  0  0  3  0  0  0  0  0  0
  161.0310  202.9930  147.0130 C   0  0  0  0  0  3  0  0  0  0  0  0
  161.5330  202.0530  150.5620 C   0  0  0  0  0  3  0  0  0  0  0  0
  161.1710  200.5850  147.1980 C   0  0  0  0  0  0  0  0  0  0  0  0
  161.3960  204.4770  150.4310 C   0  0  0  0  0  0  0  0  0  0  0  0
  161.1560  199.2430  146.5600 C   0  0  0  0  0  1  0  0  0  0  0  0
  161.5590  203.3010  151.1780 C   0  0  0  0  0  3  0  0  0  0  0  0
  161.3530  201.9590  149.1850 C   0  0  0  0  0  0  0  0  0  0  0  0
  161.3390  200.6990  148.5800 C   0  0  0  0  0  3  0  0  0  0  0  0
  161.2460  208.0190  148.6270 O   0  0  0  0  0  0  0  0  0  0  0  0
  161.0630  205.6990  148.2560 C   0  0  1  0  0  3  0  0  0  0  0  0
  162.4690  207.6000  148.0750 C   0  0  0  0  0  2  0  0  0  0  0  0
  160.6440  206.8560  149.1330 C   0  0  0  0  0  2  0  0  0  0  0  0
  162.3400  206.1590  147.6140 C   0  0  2  0  0  3  0  0  0  0  0  0
  160.7300  206.2100  145.7220 C   0  0  0  0  0  1  0  0  0  0  0  0
  162.1940  206.0990  146.1040 C   0  0  0  0  0  2  0  0  0  0  0  0
  161.4800  205.8060  151.1340 C   0  0  2  0  0  3  0  0  0  0  0  0
  162.8700  206.2080  151.2700 N   0  0  0  0  0  1  0  0  0  0  0  0
  160.8220  205.7580  152.5080 C   0  0  0  0  0  2  0  0  0  0  0  0
  160.8480  208.2210  152.5820 C   0  0  0  0  0  1  0  0  0  0  0  0
  161.2310  206.9610  153.3370 C   0  0  1  0  0  3  0  0  0  0  0  0
  160.5510  206.9160  154.5910 O   0  0  0  0  0  0  0  0  0  0  0  0
  159.7200  210.0460  156.4010 C   0  0  0  0  0  0  0  0  0  0  0  0
  161.9150  209.2200  157.2610 C   0  0  0  0  0  2  0  0  0  0  0  0
  158.8800  210.9710  156.2480 O   0  0  0  0  0  0  0  0  0  0  0  0
  159.3970  208.6480  155.9600 C   0  0  0  0  0  2  0  0  0  0  0  0
  161.8230  208.1860  156.1750 C   0  0  0  0  0  3  0  0  0  0  0  0
  160.6520  207.9060  155.5760 C   0  0  0  0  0  0  0  0  0  0  0  0
  160.9940  210.3200  156.9900 N   0  0  0  0  0  2  0  0  0  0  0  0
  1  7  1  0  0  0  0
  2  1  2  0  0  0  0
  2 10  1  0  0  0  0
  3  4  2  0  0  0  0
  3  6  1  0  0  0  0
  4  2  1  0  0  0  0
  5  9  1  0  0  0  0
  6 11  2  0  0  0  0
  7 19  1  0  0  0  0
  7  9  2  0  0  0  0
  8  6  1  0  0  0  0
 10  5  2  0  0  0  0
 11 10  1  0  0  0  0
 12 15  1  0  0  0  0
 13  1  1  1  0  0  0
 13 15  1  0  0  0  0
 14 12  1  0  0  0  0
 16 18  1  6  0  0  0
 16 14  1  0  0  0  0
 16 13  1  0  0  0  0
 17 18  1  0  0  0  0
 19 20  1  1  0  0  0
 19 21  1  0  0  0  0
 21 23  1  0  0  0  0
 23 22  1  6  0  0  0
 23 24  1  0  0  0  0
 24 30  1  0  0  0  0
 25 31  1  0  0  0  0
 27 25  2  0  0  0  0
 28 25  1  0  0  0  0
 29 26  1  0  0  0  0
 30 28  1  0  0  0  0
 30 29  2  0  0  0  0
 31 26  1  0  0  0  0
M  END
>  <MODEL>
2

>  <REMARK>
 VINA RESULT:      -9.2      1.408      1.925
  Name = 
  7 active torsions:
  status: ('A' for Active; 'I' for Inactive)
    1  A    between atoms: O_3  and  C_9
    2  A    between atoms: O_3  and  C_22
    3  A    between atoms: C_4  and  C_12
    4  A    between atoms: C_9  and  C_23
    5  A    between atoms: C_15  and  C_21
    6  A    between atoms: C_15  and  C_23
    7  A    between atoms: C_27  and  C_28
                            x       y       z     vdW  Elec       q    Type
                         _______ _______ _______ _____ _____    ______ ____

>  <TORSDO>
F 7

$$$$
=
 OpenBabel11052422263D

 31 34  0  0  1  0  0  0  0  0999 V2000
  160.1000  210.2990  154.2220 C   0  0  0  0  0  0  0  0  0  0  0  0
  159.1490  211.1410  154.8610 C   0  0  0  0  0  0  0  0  0  0  0  0
  157.9520  211.8900  156.8480 C   0  0  0  0  0  3  0  0  0  0  0  0
  158.8910  211.0540  156.2400 C   0  0  0  0  0  3  0  0  0  0  0  0
  158.6680  212.2240  152.7320 C   0  0  0  0  0  3  0  0  0  0  0  0
  157.2550  212.8280  156.0840 C   0  0  0  0  0  0  0  0  0  0  0  0
  160.3200  210.4440  152.8330 C   0  0  0  0  0  0  0  0  0  0  0  0
  156.2560  213.7170  156.7330 C   0  0  0  0  0  1  0  0  0  0  0  0
  159.6050  211.4080  152.1060 C   0  0  0  0  0  3  0  0  0  0  0  0
  158.4330  212.0990  154.0980 C   0  0  0  0  0  0  0  0  0  0  0  0
  157.4950  212.9320  154.7120 C   0  0  0  0  0  3  0  0  0  0  0  0
  162.1940  209.1010  156.9430 O   0  0  0  0  0  0  0  0  0  0  0  0
  160.9070  209.2610  154.9760 C   0  0  1  0  0  3  0  0  0  0  0  0
  160.9110  208.6210  157.2580 C   0  0  0  0  0  2  0  0  0  0  0  0
  162.0310  209.8700  155.7790 C   0  0  0  0  0  2  0  0  0  0  0  0
  160.0970  208.4960  155.9820 C   0  0  2  0  0  3  0  0  0  0  0  0
  161.0690  206.7420  154.5140 C   0  0  0  0  0  1  0  0  0  0  0  0
  160.0070  207.0420  155.5540 C   0  0  0  0  0  2  0  0  0  0  0  0
  161.3590  209.6170  152.1230 C   0  0  2  0  0  3  0  0  0  0  0  0
  161.9610  210.3900  151.0510 N   0  0  0  0  0  1  0  0  0  0  0  0
  160.7660  208.3310  151.5590 C   0  0  0  0  0  2  0  0  0  0  0  0
  162.5970  206.7300  151.1660 C   0  0  0  0  0  1  0  0  0  0  0  0
  161.6800  207.7410  150.5020 C   0  0  1  0  0  3  0  0  0  0  0  0
  160.8870  207.1010  149.5040 O   0  0  0  0  0  0  0  0  0  0  0  0
  162.1000  205.4150  146.4300 C   0  0  0  0  0  0  0  0  0  0  0  0
  161.4710  203.6480  148.0790 C   0  0  0  0  0  2  0  0  0  0  0  0
  162.3440  205.7770  145.2490 O   0  0  0  0  0  0  0  0  0  0  0  0
  162.2790  206.3760  147.5690 C   0  0  0  0  0  2  0  0  0  0  0  0
  160.9520  204.7790  148.9220 C   0  0  0  0  0  3  0  0  0  0  0  0
  161.3360  206.0480  148.6980 C   0  0  0  0  0  0  0  0  0  0  0  0
  161.6450  204.0870  146.6970 N   0  0  0  0  0  2  0  0  0  0  0  0
  1  2  1  0  0  0  0
  2  4  1  0  0  0  0
  4  3  2  0  0  0  0
  5 10  1  0  0  0  0
  6  8  1  0  0  0  0
  6  3  1  0  0  0  0
  7  1  2  0  0  0  0
  9  5  2  0  0  0  0
  9  7  1  0  0  0  0
 10 11  1  0  0  0  0
 10  2  2  0  0  0  0
 11  6  2  0  0  0  0
 12 14  1  0  0  0  0
 13  1  1  1  0  0  0
 13 15  1  0  0  0  0
 13 16  1  0  0  0  0
 15 12  1  0  0  0  0
 16 18  1  6  0  0  0
 16 14  1  0  0  0  0
 17 18  1  0  0  0  0
 19 20  1  6  0  0  0
 19  7  1  0  0  0  0
 21 19  1  0  0  0  0
 23 22  1  1  0  0  0
 23 21  1  0  0  0  0
 24 23  1  0  0  0  0
 25 31  1  0  0  0  0
 25 28  1  0  0  0  0
 26 29  1  0  0  0  0
 27 25  2  0  0  0  0
 28 30  1  0  0  0  0
 30 29  2  0  0  0  0
 30 24  1  0  0  0  0
 31 26  1  0  0  0  0
M  END
>  <MODEL>
3

>  <REMARK>
 VINA RESULT:      -8.8      2.555      9.389
  Name = 
  7 active torsions:
  status: ('A' for Active; 'I' for Inactive)
    1  A    between atoms: O_3  and  C_9
    2  A    between atoms: O_3  and  C_22
    3  A    between atoms: C_4  and  C_12
    4  A    between atoms: C_9  and  C_23
    5  A    between atoms: C_15  and  C_21
    6  A    between atoms: C_15  and  C_23
    7  A    between atoms: C_27  and  C_28
                            x       y       z     vdW  Elec       q    Type
                         _______ _______ _______ _____ _____    ______ ____

>  <TORSDO>
F 7

$$$$
=
 OpenBabel11052422263D

 31 34  0  0  1  0  0  0  0  0999 V2000
  160.9830  206.5320  151.2630 C   0  0  0  0  0  0  0  0  0  0  0  0
  161.0420  205.5450  150.2410 C   0  0  0  0  0  0  0  0  0  0  0  0
  161.0780  204.9040  147.8900 C   0  0  0  0  0  3  0  0  0  0  0  0
  161.0200  205.8890  148.8780 C   0  0  0  0  0  3  0  0  0  0  0  0
  161.1610  203.7930  151.9310 C   0  0  0  0  0  3  0  0  0  0  0  0
  161.1590  203.5570  148.2500 C   0  0  0  0  0  0  0  0  0  0  0  0
  161.0190  206.1210  152.6160 C   0  0  0  0  0  0  0  0  0  0  0  0
  161.2200  202.5110  147.1970 C   0  0  0  0  0  1  0  0  0  0  0  0
  161.1130  204.7580  152.9320 C   0  0  0  0  0  3  0  0  0  0  0  0
  161.1250  204.1740  150.5920 C   0  0  0  0  0  0  0  0  0  0  0  0
  161.1820  203.1930  149.5980 C   0  0  0  0  0  3  0  0  0  0  0  0
  161.1730  210.0690  152.0840 O   0  0  0  0  0  0  0  0  0  0  0  0
  160.9040  208.0150  150.9620 C   0  0  1  0  0  3  0  0  0  0  0  0
  162.3900  209.8000  151.4340 C   0  0  0  0  0  2  0  0  0  0  0  0
  160.5130  208.8330  152.1700 C   0  0  0  0  0  2  0  0  0  0  0  0
  162.2120  208.6020  150.5190 C   0  0  2  0  0  3  0  0  0  0  0  0
  162.1560  210.5660  148.9990 C   0  0  0  0  0  1  0  0  0  0  0  0
  162.0980  209.0530  149.0740 C   0  0  0  0  0  2  0  0  0  0  0  0
  161.0200  207.1320  153.7320 C   0  0  2  0  0  3  0  0  0  0  0  0
  162.3850  207.4100  154.1480 N   0  0  0  0  0  1  0  0  0  0  0  0
  160.2060  206.6500  154.9280 C   0  0  0  0  0  2  0  0  0  0  0  0
  160.2700  207.4480  157.2580 C   0  0  0  0  0  1  0  0  0  0  0  0
  159.8650  207.8120  155.8420 C   0  0  1  0  0  3  0  0  0  0  0  0
  160.5790  208.9690  155.4110 O   0  0  0  0  0  0  0  0  0  0  0  0
  158.9690  212.2620  154.8380 C   0  0  0  0  0  0  0  0  0  0  0  0
  160.4770  212.4780  156.8160 C   0  0  0  0  0  2  0  0  0  0  0  0
  158.3040  212.7820  153.9030 O   0  0  0  0  0  0  0  0  0  0  0  0
  158.9030  210.7830  155.0830 C   0  0  0  0  0  2  0  0  0  0  0  0
  160.9240  211.0820  156.4850 C   0  0  0  0  0  3  0  0  0  0  0  0
  160.1880  210.2840  155.6920 C   0  0  0  0  0  0  0  0  0  0  0  0
  159.7980  213.0760  155.6700 N   0  0  0  0  0  2  0  0  0  0  0  0
  1  7  1  0  0  0  0
  2 10  1  0  0  0  0
  2  1  2  0  0  0  0
  3  6  1  0  0  0  0
  3  4  2  0  0  0  0
  4  2  1  0  0  0  0
  5  9  1  0  0  0  0
  6 11  2  0  0  0  0
  7  9  2  0  0  0  0
  7 19  1  0  0  0  0
  8  6  1  0  0  0  0
 10  5  2  0  0  0  0
 11 10  1  0  0  0  0
 12 15  1  0  0  0  0
 13  1  1  1  0  0  0
 13 15  1  0  0  0  0
 14 12  1  0  0  0  0
 16 18  1  6  0  0  0
 16 13  1  0  0  0  0
 16 14  1  0  0  0  0
 17 18  1  0  0  0  0
 19 20  1  1  0  0  0
 19 21  1  0  0  0  0
 21 23  1  0  0  0  0
 23 22  1  1  0  0  0
 24 30  1  0  0  0  0
 24 23  1  0  0  0  0
 25 28  1  0  0  0  0
 25 31  1  0  0  0  0
 27 25  2  0  0  0  0
 28 30  1  0  0  0  0
 29 26  1  0  0  0  0
 30 29  2  0  0  0  0
 31 26  1  0  0  0  0
M  END
>  <MODEL>
4

>  <REMARK>
 VINA RESULT:      -8.2      1.773      2.944
  Name = 
  7 active torsions:
  status: ('A' for Active; 'I' for Inactive)
    1  A    between atoms: O_3  and  C_9
    2  A    between atoms: O_3  and  C_22
    3  A    between atoms: C_4  and  C_12
    4  A    between atoms: C_9  and  C_23
    5  A    between atoms: C_15  and  C_21
    6  A    between atoms: C_15  and  C_23
    7  A    between atoms: C_27  and  C_28
                            x       y       z     vdW  Elec       q    Type
                         _______ _______ _______ _____ _____    ______ ____

>  <TORSDO>
F 7

$$$$
=
 OpenBabel11052422263D

 31 34  0  0  1  0  0  0  0  0999 V2000
  161.1670  206.6840  150.6080 C   0  0  0  0  0  0  0  0  0  0  0  0
  161.1650  205.2640  150.6670 C   0  0  0  0  0  0  0  0  0  0  0  0
  161.1500  203.0810  149.5840 C   0  0  0  0  0  3  0  0  0  0  0  0
  161.1530  204.4750  149.5040 C   0  0  0  0  0  3  0  0  0  0  0  0
  161.2000  205.3580  153.1020 C   0  0  0  0  0  3  0  0  0  0  0  0
  161.1600  202.4530  150.8310 C   0  0  0  0  0  0  0  0  0  0  0  0
  161.1900  207.4210  151.8150 C   0  0  0  0  0  0  0  0  0  0  0  0
  161.1570  200.9690  150.9130 C   0  0  0  0  0  1  0  0  0  0  0  0
  161.2120  206.7480  153.0470 C   0  0  0  0  0  3  0  0  0  0  0  0
  161.1760  204.6130  151.9270 C   0  0  0  0  0  0  0  0  0  0  0  0
  161.1730  203.2170  151.9990 C   0  0  0  0  0  3  0  0  0  0  0  0
  162.6390  208.7600  148.0100 O   0  0  0  0  0  0  0  0  0  0  0  0
  161.1660  207.4470  149.2990 C   0  0  1  0  0  3  0  0  0  0  0  0
  162.6880  207.4580  147.4810 C   0  0  0  0  0  2  0  0  0  0  0  0
  162.1200  208.6170  149.3070 C   0  0  0  0  0  2  0  0  0  0  0  0
  161.6020  206.6150  148.1270 C   0  0  2  0  0  3  0  0  0  0  0  0
  160.9110  205.7870  145.8890 C   0  0  0  0  0  1  0  0  0  0  0  0
  160.4350  206.4370  147.1740 C   0  0  0  0  0  2  0  0  0  0  0  0
  161.2540  208.9250  151.8030 C   0  0  2  0  0  3  0  0  0  0  0  0
  162.5740  209.3690  152.2190 N   0  0  0  0  0  1  0  0  0  0  0  0
  160.1950  209.5400  152.7120 C   0  0  0  0  0  2  0  0  0  0  0  0
  158.7780  211.5410  152.4640 C   0  0  0  0  0  1  0  0  0  0  0  0
  160.2090  211.0530  152.5980 C   0  0  1  0  0  3  0  0  0  0  0  0
  160.8070  211.6030  153.7710 O   0  0  0  0  0  0  0  0  0  0  0  0
  161.3390  209.1550  156.5080 C   0  0  0  0  0  0  0  0  0  0  0  0
  159.4820  210.6790  157.1900 C   0  0  0  0  0  2  0  0  0  0  0  0
  161.9690  208.0720  156.6280 O   0  0  0  0  0  0  0  0  0  0  0  0
  161.8320  210.2190  155.5710 C   0  0  0  0  0  2  0  0  0  0  0  0
  159.5890  211.2450  155.8020 C   0  0  0  0  0  3  0  0  0  0  0  0
  160.6850  211.0460  155.0500 C   0  0  0  0  0  0  0  0  0  0  0  0
  160.1430  209.3790  157.2570 N   0  0  0  0  0  2  0  0  0  0  0  0
  1  2  2  0  0  0  0
  1  7  1  0  0  0  0
  2 10  1  0  0  0  0
  3  6  1  0  0  0  0
  4  3  2  0  0  0  0
  4  2  1  0  0  0  0
  6  8  1  0  0  0  0
  6 11  2  0  0  0  0
  7  9  2  0  0  0  0
  9  5  1  0  0  0  0
 10 11  1  0  0  0  0
 10  5  2  0  0  0  0
 12 15  1  0  0  0  0
 13 15  1  0  0  0  0
 13  1  1  1  0  0  0
 14 12  1  0  0  0  0
 14 16  1  0  0  0  0
 16 18  1  6  0  0  0
 16 13  1  0  0  0  0
 17 18  1  0  0  0  0
 19  7  1  0  0  0  0
 19 20  1  1  0  0  0
 19 21  1  0  0  0  0
 23 22  1  1  0  0  0
 23 21  1  0  0  0  0
 23 24  1  0  0  0  0
 24 30  1  0  0  0  0
 25 27  2  0  0  0  0
 25 31  1  0  0  0  0
 26 31  1  0  0  0  0
 28 25  1  0  0  0  0
 29 26  1  0  0  0  0
 30 28  1  0  0  0  0
 30 29  2  0  0  0  0
M  END
>  <MODEL>
5

>  <REMARK>
 VINA RESULT:      -8.1      1.891      3.227
  Name = 
  7 active torsions:
  status: ('A' for Active; 'I' for Inactive)
    1  A    between atoms: O_3  and  C_9
    2  A    between atoms: O_3  and  C_22
    3  A    between atoms: C_4  and  C_12
    4  A    between atoms: C_9  and  C_23
    5  A    between atoms: C_15  and  C_21
    6  A    between atoms: C_15  and  C_23
    7  A    between atoms: C_27  and  C_28
                            x       y       z     vdW  Elec       q    Type
                         _______ _______ _______ _____ _____    ______ ____

>  <TORSDO>
F 7

$$$$
=
 OpenBabel11052422263D

 31 34  0  0  1  0  0  0  0  0999 V2000
  161.3590  205.0750  149.1210 C   0  0  0  0  0  0  0  0  0  0  0  0
  161.2060  203.9510  148.2640 C   0  0  0  0  0  0  0  0  0  0  0  0
  160.6630  201.6040  147.8940 C   0  0  0  0  0  3  0  0  0  0  0  0
  160.8070  202.6950  148.7540 C   0  0  0  0  0  3  0  0  0  0  0  0
  161.8460  205.3160  146.3490 C   0  0  0  0  0  3  0  0  0  0  0  0
  160.9180  201.7520  146.5290 C   0  0  0  0  0  0  0  0  0  0  0  0
  161.7530  206.3140  148.5650 C   0  0  0  0  0  0  0  0  0  0  0  0
  160.7650  200.5890  145.6170 C   0  0  0  0  0  1  0  0  0  0  0  0
  161.9870  206.4200  147.1850 C   0  0  0  0  0  3  0  0  0  0  0  0
  161.4600  204.0870  146.8760 C   0  0  0  0  0  0  0  0  0  0  0  0
  161.3150  202.9900  146.0210 C   0  0  0  0  0  3  0  0  0  0  0  0
  160.4380  203.4190  152.2250 O   0  0  0  0  0  0  0  0  0  0  0  0
  161.0950  205.0060  150.6120 C   0  0  1  0  0  3  0  0  0  0  0  0
  161.8420  203.4900  152.2750 C   0  0  0  0  0  2  0  0  0  0  0  0
  160.0810  203.9480  150.9740 C   0  0  0  0  0  2  0  0  0  0  0  0
  162.3130  204.6490  151.4140 C   0  0  2  0  0  3  0  0  0  0  0  0
  161.5250  206.2600  153.1330 C   0  0  0  0  0  1  0  0  0  0  0  0
  162.7060  205.8280  152.2850 C   0  0  0  0  0  2  0  0  0  0  0  0
  161.8700  207.5460  149.4220 C   0  0  2  0  0  3  0  0  0  0  0  0
  160.5940  207.8330  150.0540 N   0  0  0  0  0  1  0  0  0  0  0  0
  162.3270  208.7540  148.6120 C   0  0  0  0  0  2  0  0  0  0  0  0
  162.3310  209.9130  150.7860 C   0  0  0  0  0  1  0  0  0  0  0  0
  161.9550  210.0420  149.3220 C   0  0  1  0  0  3  0  0  0  0  0  0
  162.6700  211.1240  148.7260 O   0  0  0  0  0  0  0  0  0  0  0  0
  159.9640  213.5850  148.1040 C   0  0  0  0  0  0  0  0  0  0  0  0
  161.8530  214.1130  146.5590 C   0  0  0  0  0  2  0  0  0  0  0  0
  158.7500  213.6790  148.4250 O   0  0  0  0  0  0  0  0  0  0  0  0
  160.9360  212.8900  149.0120 C   0  0  0  0  0  2  0  0  0  0  0  0
  162.4790  212.8470  147.0730 C   0  0  0  0  0  3  0  0  0  0  0  0
  162.0650  212.2820  148.2210 C   0  0  0  0  0  0  0  0  0  0  0  0
  160.4270  214.1330  146.8680 N   0  0  0  0  0  2  0  0  0  0  0  0
  2  4  1  0  0  0  0
  2  1  2  0  0  0  0
  3  4  2  0  0  0  0
  5 10  2  0  0  0  0
  5  9  1  0  0  0  0
  6  3  1  0  0  0  0
  7  1  1  0  0  0  0
  7 19  1  0  0  0  0
  8  6  1  0  0  0  0
  9  7  2  0  0  0  0
 10  2  1  0  0  0  0
 11  6  2  0  0  0  0
 11 10  1  0  0  0  0
 12 14  1  0  0  0  0
 13  1  1  6  0  0  0
 13 15  1  0  0  0  0
 13 16  1  0  0  0  0
 15 12  1  0  0  0  0
 16 14  1  0  0  0  0
 16 18  1  1  0  0  0
 18 17  1  0  0  0  0
 19 20  1  6  0  0  0
 21 23  1  0  0  0  0
 21 19  1  0  0  0  0
 23 22  1  1  0  0  0
 24 23  1  0  0  0  0
 25 27  2  0  0  0  0
 25 28  1  0  0  0  0
 26 31  1  0  0  0  0
 26 29  1  0  0  0  0
 29 30  2  0  0  0  0
 30 24  1  0  0  0  0
 30 28  1  0  0  0  0
 31 25  1  0  0  0  0
M  END
>  <MODEL>
6

>  <REMARK>
 VINA RESULT:      -8.0      3.063      4.881
  Name = 
  7 active torsions:
  status: ('A' for Active; 'I' for Inactive)
    1  A    between atoms: O_3  and  C_9
    2  A    between atoms: O_3  and  C_22
    3  A    between atoms: C_4  and  C_12
    4  A    between atoms: C_9  and  C_23
    5  A    between atoms: C_15  and  C_21
    6  A    between atoms: C_15  and  C_23
    7  A    between atoms: C_27  and  C_28
                            x       y       z     vdW  Elec       q    Type
                         _______ _______ _______ _____ _____    ______ ____

>  <TORSDO>
F 7

$$$$
=
 OpenBabel11052422263D

 31 34  0  0  1  0  0  0  0  0999 V2000
  161.8720  208.6410  151.5970 C   0  0  0  0  0  0  0  0  0  0  0  0
  161.8230  209.6800  150.6280 C   0  0  0  0  0  0  0  0  0  0  0  0
  161.6080  212.0320  150.0270 C   0  0  0  0  0  3  0  0  0  0  0  0
  161.6540  211.0260  150.9940 C   0  0  0  0  0  3  0  0  0  0  0  0
  162.1290  208.0430  148.8480 C   0  0  0  0  0  3  0  0  0  0  0  0
  161.7310  211.7060  148.6740 C   0  0  0  0  0  0  0  0  0  0  0  0
  162.0550  207.3070  151.1640 C   0  0  0  0  0  0  0  0  0  0  0  0
  161.6820  212.7770  147.6460 C   0  0  0  0  0  1  0  0  0  0  0  0
  162.1870  207.0260  149.7960 C   0  0  0  0  0  3  0  0  0  0  0  0
  161.9480  209.3630  149.2520 C   0  0  0  0  0  0  0  0  0  0  0  0
  161.9010  210.3740  148.2880 C   0  0  0  0  0  3  0  0  0  0  0  0
  161.3040  210.7080  154.5340 O   0  0  0  0  0  0  0  0  0  0  0  0
  161.7560  208.9060  153.0850 C   0  0  1  0  0  3  0  0  0  0  0  0
  160.0940  210.0130  154.3620 C   0  0  0  0  0  2  0  0  0  0  0  0
  162.1120  210.3270  153.4510 C   0  0  0  0  0  2  0  0  0  0  0  0
  160.3630  208.7200  153.6140 C   0  0  2  0  0  3  0  0  0  0  0  0
  159.7830  207.9760  155.9120 C   0  0  0  0  0  1  0  0  0  0  0  0
  160.3420  207.5420  154.5700 C   0  0  0  0  0  2  0  0  0  0  0  0
  162.1730  206.1800  152.1560 C   0  0  2  0  0  3  0  0  0  0  0  0
  163.4260  205.4730  151.9560 N   0  0  0  0  0  1  0  0  0  0  0  0
  161.0070  205.2050  152.0410 C   0  0  0  0  0  2  0  0  0  0  0  0
  161.1970  202.7480  152.0110 C   0  0  0  0  0  1  0  0  0  0  0  0
  161.3960  204.0090  151.1910 C   0  0  1  0  0  3  0  0  0  0  0  0
  160.5670  203.9740  150.0300 O   0  0  0  0  0  0  0  0  0  0  0  0
  161.2730  203.4050  146.4330 C   0  0  0  0  0  0  0  0  0  0  0  0
  160.8600  201.1830  147.4960 C   0  0  0  0  0  2  0  0  0  0  0  0
  161.3450  204.1340  145.4090 O   0  0  0  0  0  0  0  0  0  0  0  0
  161.6390  203.9520  147.7810 C   0  0  0  0  0  2  0  0  0  0  0  0
  160.4970  201.9660  148.7260 C   0  0  0  0  0  3  0  0  0  0  0  0
  160.8690  203.2500  148.8700 C   0  0  0  0  0  0  0  0  0  0  0  0
  160.8350  202.0480  146.3210 N   0  0  0  0  0  2  0  0  0  0  0  0
  2  4  1  0  0  0  0
  2  1  2  0  0  0  0
  3  4  2  0  0  0  0
  5 10  2  0  0  0  0
  5  9  1  0  0  0  0
  6  3  1  0  0  0  0
  7  1  1  0  0  0  0
  7 19  1  0  0  0  0
  8  6  1  0  0  0  0
  9  7  2  0  0  0  0
 10  2  1  0  0  0  0
 11  6  2  0  0  0  0
 11 10  1  0  0  0  0
 13  1  1  6  0  0  0
 13 15  1  0  0  0  0
 13 16  1  0  0  0  0
 14 12  1  0  0  0  0
 15 12  1  0  0  0  0
 16 14  1  0  0  0  0
 16 18  1  1  0  0  0
 18 17  1  0  0  0  0
 19 20  1  6  0  0  0
 21 19  1  0  0  0  0
 23 22  1  1  0  0  0
 23 21  1  0  0  0  0
 24 23  1  0  0  0  0
 25 28  1  0  0  0  0
 26 29  1  0  0  0  0
 27 25  2  0  0  0  0
 28 30  1  0  0  0  0
 29 30  2  0  0  0  0
 30 24  1  0  0  0  0
 31 25  1  0  0  0  0
 31 26  1  0  0  0  0
M  END
>  <MODEL>
7

>  <REMARK>
 VINA RESULT:      -8.0      2.550      7.964
  Name = 
  7 active torsions:
  status: ('A' for Active; 'I' for Inactive)
    1  A    between atoms: O_3  and  C_9
    2  A    between atoms: O_3  and  C_22
    3  A    between atoms: C_4  and  C_12
    4  A    between atoms: C_9  and  C_23
    5  A    between atoms: C_15  and  C_21
    6  A    between atoms: C_15  and  C_23
    7  A    between atoms: C_27  and  C_28
                            x       y       z     vdW  Elec       q    Type
                         _______ _______ _______ _____ _____    ______ ____

>  <TORSDO>
F 7

$$$$
=
 OpenBabel11052422263D

 31 34  0  0  1  0  0  0  0  0999 V2000
  161.5440  205.2870  148.2830 C   0  0  0  0  0  0  0  0  0  0  0  0
  161.2370  204.0160  148.8410 C   0  0  0  0  0  0  0  0  0  0  0  0
  161.0380  201.5940  148.6560 C   0  0  0  0  0  3  0  0  0  0  0  0
  161.3450  202.8320  148.0890 C   0  0  0  0  0  3  0  0  0  0  0  0
  160.7000  205.0720  150.9700 C   0  0  0  0  0  3  0  0  0  0  0  0
  160.6170  201.5190  149.9850 C   0  0  0  0  0  0  0  0  0  0  0  0
  161.4250  206.4390  149.0950 C   0  0  0  0  0  0  0  0  0  0  0  0
  160.2900  200.2000  150.5860 C   0  0  0  0  0  1  0  0  0  0  0  0
  161.0100  206.3160  150.4290 C   0  0  0  0  0  3  0  0  0  0  0  0
  160.8090  203.9250  150.1890 C   0  0  0  0  0  0  0  0  0  0  0  0
  160.5030  202.6820  150.7500 C   0  0  0  0  0  3  0  0  0  0  0  0
  163.4060  204.3580  145.3010 O   0  0  0  0  0  0  0  0  0  0  0  0
  162.0160  205.4580  146.8530 C   0  0  1  0  0  3  0  0  0  0  0  0
  162.0890  203.9500  145.0260 C   0  0  0  0  0  2  0  0  0  0  0  0
  163.3790  204.8520  146.6150 C   0  0  0  0  0  2  0  0  0  0  0  0
  161.1250  204.7860  145.8500 C   0  0  2  0  0  3  0  0  0  0  0  0
  161.1300  205.8760  143.6170 C   0  0  0  0  0  1  0  0  0  0  0  0
  160.4640  205.8390  144.9790 C   0  0  0  0  0  2  0  0  0  0  0  0
  161.7960  207.7990  148.5670 C   0  0  2  0  0  3  0  0  0  0  0  0
  163.2410  207.9580  148.5790 N   0  0  0  0  0  1  0  0  0  0  0  0
  161.1500  208.9140  149.3820 C   0  0  0  0  0  2  0  0  0  0  0  0
  162.2030  210.9840  148.5570 C   0  0  0  0  0  1  0  0  0  0  0  0
  162.1650  209.9940  149.7070 C   0  0  1  0  0  3  0  0  0  0  0  0
  161.7720  210.6550  150.9090 O   0  0  0  0  0  0  0  0  0  0  0  0
  159.9270  210.3120  154.1100 C   0  0  0  0  0  0  0  0  0  0  0  0
  161.1260  208.1640  153.6790 C   0  0  0  0  0  2  0  0  0  0  0  0
  159.3460  211.1050  154.8960 O   0  0  0  0  0  0  0  0  0  0  0  0
  159.9800  210.6050  152.6380 C   0  0  0  0  0  2  0  0  0  0  0  0
  161.7520  208.8780  152.5150 C   0  0  0  0  0  3  0  0  0  0  0  0
  161.2160  210.0050  152.0180 C   0  0  0  0  0  0  0  0  0  0  0  0
  160.5500  209.1270  154.6120 N   0  0  0  0  0  2  0  0  0  0  0  0
  1  2  2  0  0  0  0
  1  7  1  0  0  0  0
  2 10  1  0  0  0  0
  3  6  1  0  0  0  0
  4  3  2  0  0  0  0
  4  2  1  0  0  0  0
  6  8  1  0  0  0  0
  6 11  2  0  0  0  0
  7  9  2  0  0  0  0
  9  5  1  0  0  0  0
 10 11  1  0  0  0  0
 10  5  2  0  0  0  0
 12 15  1  0  0  0  0
 13  1  1  1  0  0  0
 14 12  1  0  0  0  0
 14 16  1  0  0  0  0
 15 13  1  0  0  0  0
 16 18  1  6  0  0  0
 16 13  1  0  0  0  0
 17 18  1  0  0  0  0
 19 20  1  1  0  0  0
 19  7  1  0  0  0  0
 19 21  1  0  0  0  0
 21 23  1  0  0  0  0
 23 22  1  6  0  0  0
 23 24  1  0  0  0  0
 24 30  1  0  0  0  0
 25 31  1  0  0  0  0
 25 27  2  0  0  0  0
 26 31  1  0  0  0  0
 28 25  1  0  0  0  0
 29 26  1  0  0  0  0
 30 29  2  0  0  0  0
 30 28  1  0  0  0  0
M  END
>  <MODEL>
8

>  <REMARK>
 VINA RESULT:      -7.9      2.093      3.478
  Name = 
  7 active torsions:
  status: ('A' for Active; 'I' for Inactive)
    1  A    between atoms: O_3  and  C_9
    2  A    between atoms: O_3  and  C_22
    3  A    between atoms: C_4  and  C_12
    4  A    between atoms: C_9  and  C_23
    5  A    between atoms: C_15  and  C_21
    6  A    between atoms: C_15  and  C_23
    7  A    between atoms: C_27  and  C_28
                            x       y       z     vdW  Elec       q    Type
                         _______ _______ _______ _____ _____    ______ ____

>  <TORSDO>
F 7

$$$$
=
 OpenBabel11052422263D

 31 34  0  0  1  0  0  0  0  0999 V2000
  161.1150  204.9720  149.1570 C   0  0  0  0  0  0  0  0  0  0  0  0
  161.1330  203.7590  148.4160 C   0  0  0  0  0  0  0  0  0  0  0  0
  160.8950  201.3370  148.2760 C   0  0  0  0  0  3  0  0  0  0  0  0
  160.8710  202.5180  149.0220 C   0  0  0  0  0  3  0  0  0  0  0  0
  161.6750  204.9970  146.3880 C   0  0  0  0  0  3  0  0  0  0  0  0
  161.1810  201.3800  146.9100 C   0  0  0  0  0  0  0  0  0  0  0  0
  161.3770  206.1890  148.4860 C   0  0  0  0  0  0  0  0  0  0  0  0
  161.2060  200.1230  146.1180 C   0  0  0  0  0  1  0  0  0  0  0  0
  161.6480  206.1870  147.1090 C   0  0  0  0  0  3  0  0  0  0  0  0
  161.4220  203.7870  147.0280 C   0  0  0  0  0  0  0  0  0  0  0  0
  161.4440  202.6020  146.2870 C   0  0  0  0  0  3  0  0  0  0  0  0
  159.8360  203.6470  152.2920 O   0  0  0  0  0  0  0  0  0  0  0  0
  160.8050  205.0190  150.6390 C   0  0  1  0  0  3  0  0  0  0  0  0
  161.2280  203.4730  152.3860 C   0  0  0  0  0  2  0  0  0  0  0  0
  159.6100  204.1730  151.0100 C   0  0  0  0  0  2  0  0  0  0  0  0
  161.9190  204.4890  151.4950 C   0  0  2  0  0  3  0  0  0  0  0  0
  161.5820  205.9040  153.5100 C   0  0  0  0  0  1  0  0  0  0  0  0
  162.4920  205.6200  152.3300 C   0  0  0  0  0  2  0  0  0  0  0  0
  161.3100  207.5050  149.2150 C   0  0  2  0  0  3  0  0  0  0  0  0
  161.2060  208.5960  148.2610 N   0  0  0  0  0  1  0  0  0  0  0  0
  162.5280  207.7160  150.1070 C   0  0  0  0  0  2  0  0  0  0  0  0
  162.3330  210.1700  150.2170 C   0  0  0  0  0  1  0  0  0  0  0  0
  162.3090  208.8940  151.0380 C   0  0  1  0  0  3  0  0  0  0  0  0
  161.0440  208.7490  151.6820 O   0  0  0  0  0  0  0  0  0  0  0  0
  160.2260  209.5560  155.2090 C   0  0  0  0  0  0  0  0  0  0  0  0
  159.3040  211.3770  153.7710 C   0  0  0  0  0  2  0  0  0  0  0  0
  160.2540  208.9280  156.3000 O   0  0  0  0  0  0  0  0  0  0  0  0
  161.2060  209.2300  154.1210 C   0  0  0  0  0  2  0  0  0  0  0  0
  159.7240  210.5190  152.6110 C   0  0  0  0  0  3  0  0  0  0  0  0
  160.6190  209.5280  152.7650 C   0  0  0  0  0  0  0  0  0  0  0  0
  159.2560  210.5840  154.9950 N   0  0  0  0  0  2  0  0  0  0  0  0
  2  4  1  0  0  0  0
  2  1  2  0  0  0  0
  3  4  2  0  0  0  0
  5 10  2  0  0  0  0
  5  9  1  0  0  0  0
  6  3  1  0  0  0  0
  7  1  1  0  0  0  0
  7 19  1  0  0  0  0
  8  6  1  0  0  0  0
  9  7  2  0  0  0  0
 10  2  1  0  0  0  0
 11  6  2  0  0  0  0
 11 10  1  0  0  0  0
 12 14  1  0  0  0  0
 13  1  1  6  0  0  0
 13 15  1  0  0  0  0
 13 16  1  0  0  0  0
 15 12  1  0  0  0  0
 16 18  1  1  0  0  0
 16 14  1  0  0  0  0
 18 17  1  0  0  0  0
 19 20  1  6  0  0  0
 19 21  1  0  0  0  0
 21 23  1  0  0  0  0
 23 22  1  6  0  0  0
 23 24  1  0  0  0  0
 24 30  1  0  0  0  0
 25 27  2  0  0  0  0
 26 31  1  0  0  0  0
 28 25  1  0  0  0  0
 29 30  2  0  0  0  0
 29 26  1  0  0  0  0
 30 28  1  0  0  0  0
 31 25  1  0  0  0  0
M  END
>  <MODEL>
9

>  <REMARK>
 VINA RESULT:      -7.9      1.797      3.582
  Name = 
  7 active torsions:
  status: ('A' for Active; 'I' for Inactive)
    1  A    between atoms: O_3  and  C_9
    2  A    between atoms: O_3  and  C_22
    3  A    between atoms: C_4  and  C_12
    4  A    between atoms: C_9  and  C_23
    5  A    between atoms: C_15  and  C_21
    6  A    between atoms: C_15  and  C_23
    7  A    between atoms: C_27  and  C_28
                            x       y       z     vdW  Elec       q    Type
                         _______ _______ _______ _____ _____    ______ ____

>  <TORSDO>
F 7

$$$$
