=
 OpenBabel11052422143D

 25 27  0  0  1  0  0  0  0  0999 V2000
  161.6250  206.2040  148.9530 C   0  0  0  0  0  0  0  0  0  0  0  0
  161.5880  205.3810  150.0230 C   0  0  0  0  0  0  0  0  0  0  0  0
  161.9640  208.1960  150.5090 C   0  0  0  0  0  3  0  0  0  0  0  0
  161.9550  207.3830  151.5620 C   0  0  0  0  0  3  0  0  0  0  0  0
  161.1590  205.1830  152.4840 C   0  0  0  0  0  0  0  0  0  0  0  0
  160.8680  205.7590  153.5210 O   0  0  0  0  0  0  0  0  0  0  0  0
  161.2390  203.9210  149.8440 C   0  0  0  0  0  2  0  0  0  0  0  0
  161.8980  207.6490  149.1520 C   0  0  0  0  0  0  0  0  0  0  0  0
  162.0250  208.4240  148.1680 O   0  0  0  0  0  0  0  0  0  0  0  0
  160.7460  203.7480  152.3100 C   0  0  0  0  0  2  0  0  0  0  0  0
  161.4590  203.1080  151.1210 C   0  0  1  0  0  3  0  0  0  0  0  0
  161.9670  205.8810  151.4130 C   0  0  1  0  0  3  0  0  0  0  0  0
  161.3430  205.6710  147.5730 C   0  0  1  0  0  3  0  0  0  0  0  0
  161.0210  205.3160  144.8050 C   0  0  0  0  0  2  0  0  0  0  0  0
  160.3610  206.5330  146.8240 C   0  0  0  0  0  3  0  0  0  0  0  0
  160.2020  206.3580  145.5090 C   0  0  0  0  0  3  0  0  0  0  0  0
  162.4790  205.4330  145.2540 C   0  0  0  0  0  2  0  0  0  0  0  0
  162.6410  205.3970  146.7870 C   0  0  0  0  0  2  0  0  0  0  0  0
  160.9540  201.6890  150.9340 C   0  0  0  0  0  2  0  0  0  0  0  0
  160.0510  201.5420  149.3630 S   0  0  0  0  0  0  0  0  0  0  0  0
  161.4060  200.6070  148.5990 C   0  0  0  0  0  2  0  0  0  0  0  0
  161.2280  200.5730  147.1570 N   0  0  0  0  0  2  0  0  0  0  0  0
  160.8150  201.9030  146.7480 C   0  0  0  0  0  2  0  0  0  0  0  0
  160.3960  201.8760  145.2940 C   0  0  0  0  0  2  0  0  0  0  0  0
  160.0920  200.5680  144.9210 O   0  0  0  0  0  1  0  0  0  0  0  0
  1  8  1  0  0  0  0
  1  2  2  0  0  0  0
  2 12  1  0  0  0  0
  3  4  2  0  0  0  0
  5  6  2  0  0  0  0
  7  2  1  0  0  0  0
  7 11  1  0  0  0  0
  8  3  1  0  0  0  0
  9  8  2  0  0  0  0
 10  5  1  0  0  0  0
 11 19  1  6  0  0  0
 11 10  1  0  0  0  0
 12  4  1  6  0  0  0
 12  5  1  0  0  0  0
 13  1  1  1  0  0  0
 14 17  1  0  0  0  0
 14 16  1  0  0  0  0
 15 13  1  0  0  0  0
 16 15  2  0  0  0  0
 17 18  1  0  0  0  0
 18 13  1  0  0  0  0
 20 19  1  0  0  0  0
 21 20  1  0  0  0  0
 22 21  1  0  0  0  0
 23 22  1  0  0  0  0
 24 23  1  0  0  0  0
 25 24  1  0  0  0  0
M  END
>  <MODEL>
1

>  <REMARK>
 VINA RESULT:      -8.5      0.000      0.000
  Name = 
  7 active torsions:
  status: ('A' for Active; 'I' for Inactive)
    1  A    between atoms: C_1  and  C_5
    2  A    between atoms: C_2  and  C_12
    3  A    between atoms: C_6  and  S_15
    4  A    between atoms: C_6  and  C_23
    5  A    between atoms: C_12  and  N_25
    6  A    between atoms: S_15  and  C_21
    7  A    between atoms: C_21  and  N_25
                            x       y       z     vdW  Elec       q    Type
                         _______ _______ _______ _____ _____    ______ ____

>  <TORSDO>
F 7

$$$$
=
 OpenBabel11052422143D

 25 27  0  0  1  0  0  0  0  0999 V2000
  161.2530  205.0370  148.9090 C   0  0  0  0  0  0  0  0  0  0  0  0
  161.2630  205.9500  149.9040 C   0  0  0  0  0  0  0  0  0  0  0  0
  160.7880  203.1990  150.6150 C   0  0  0  0  0  3  0  0  0  0  0  0
  160.7700  204.1020  151.5920 C   0  0  0  0  0  3  0  0  0  0  0  0
  161.5820  206.3560  152.3560 C   0  0  0  0  0  0  0  0  0  0  0  0
  161.8080  205.8680  153.4520 O   0  0  0  0  0  0  0  0  0  0  0  0
  161.6590  207.3800  149.6150 C   0  0  0  0  0  2  0  0  0  0  0  0
  160.9330  203.6220  149.2210 C   0  0  0  0  0  0  0  0  0  0  0  0
  160.8310  202.7650  148.3030 O   0  0  0  0  0  0  0  0  0  0  0  0
  162.0400  207.7600  152.0770 C   0  0  0  0  0  2  0  0  0  0  0  0
  161.4010  208.3090  150.8030 C   0  0  1  0  0  3  0  0  0  0  0  0
  160.8050  205.5850  151.3120 C   0  0  1  0  0  3  0  0  0  0  0  0
  161.6130  205.4390  147.5030 C   0  0  1  0  0  3  0  0  0  0  0  0
  161.9300  205.6100  144.7170 C   0  0  0  0  0  2  0  0  0  0  0  0
  162.3390  204.3410  146.7700 C   0  0  0  0  0  3  0  0  0  0  0  0
  162.4970  204.4280  145.4460 C   0  0  0  0  0  3  0  0  0  0  0  0
  160.5000  205.8620  145.2000 C   0  0  0  0  0  2  0  0  0  0  0  0
  160.3960  205.9880  146.7330 C   0  0  0  0  0  2  0  0  0  0  0  0
  161.9520  209.6940  150.5180 C   0  0  0  0  0  2  0  0  0  0  0  0
  162.1400  209.9410  148.7270 S   0  0  0  0  0  0  0  0  0  0  0  0
  162.0150  211.7430  148.8990 C   0  0  0  0  0  2  0  0  0  0  0  0
  163.0860  212.3840  148.1540 N   0  0  0  0  0  2  0  0  0  0  0  0
  162.5210  213.5650  147.5270 C   0  0  0  0  0  2  0  0  0  0  0  0
  161.6900  213.1540  146.3310 C   0  0  0  0  0  2  0  0  0  0  0  0
  162.4740  213.2080  145.1800 O   0  0  0  0  0  1  0  0  0  0  0  0
  1  8  1  0  0  0  0
  1  2  2  0  0  0  0
  2 12  1  0  0  0  0
  3  4  2  0  0  0  0
  5  6  2  0  0  0  0
  7  2  1  0  0  0  0
  7 11  1  0  0  0  0
  8  3  1  0  0  0  0
  9  8  2  0  0  0  0
 10  5  1  0  0  0  0
 11 19  1  6  0  0  0
 11 10  1  0  0  0  0
 12  4  1  1  0  0  0
 12  5  1  0  0  0  0
 13  1  1  1  0  0  0
 14 17  1  0  0  0  0
 14 16  1  0  0  0  0
 15 13  1  0  0  0  0
 16 15  2  0  0  0  0
 17 18  1  0  0  0  0
 18 13  1  0  0  0  0
 20 21  1  0  0  0  0
 20 19  1  0  0  0  0
 22 21  1  0  0  0  0
 23 22  1  0  0  0  0
 24 23  1  0  0  0  0
 25 24  1  0  0  0  0
M  END
>  <MODEL>
2

>  <REMARK>
 VINA RESULT:      -8.0      3.869      6.401
  Name = 
  7 active torsions:
  status: ('A' for Active; 'I' for Inactive)
    1  A    between atoms: C_1  and  C_5
    2  A    between atoms: C_2  and  C_12
    3  A    between atoms: C_6  and  S_15
    4  A    between atoms: C_6  and  C_23
    5  A    between atoms: C_12  and  N_25
    6  A    between atoms: S_15  and  C_21
    7  A    between atoms: C_21  and  N_25
                            x       y       z     vdW  Elec       q    Type
                         _______ _______ _______ _____ _____    ______ ____

>  <TORSDO>
F 7

$$$$
=
 OpenBabel11052422143D

 25 27  0  0  1  0  0  0  0  0999 V2000
  161.2290  204.8490  148.9270 C   0  0  0  0  0  0  0  0  0  0  0  0
  161.1450  205.6700  149.9960 C   0  0  0  0  0  0  0  0  0  0  0  0
  160.7520  202.8500  150.4370 C   0  0  0  0  0  3  0  0  0  0  0  0
  160.6410  203.6610  151.4860 C   0  0  0  0  0  3  0  0  0  0  0  0
  161.3130  205.8660  152.4880 C   0  0  0  0  0  0  0  0  0  0  0  0
  161.5000  205.2920  153.5490 O   0  0  0  0  0  0  0  0  0  0  0  0
  161.4940  207.1330  149.8560 C   0  0  0  0  0  2  0  0  0  0  0  0
  160.9530  203.4000  149.0950 C   0  0  0  0  0  0  0  0  0  0  0  0
  160.9380  202.6260  148.1010 O   0  0  0  0  0  0  0  0  0  0  0  0
  161.7250  207.3060  152.3600 C   0  0  0  0  0  2  0  0  0  0  0  0
  161.1330  207.9420  151.1030 C   0  0  1  0  0  3  0  0  0  0  0  0
  160.6280  205.1630  151.3380 C   0  0  1  0  0  3  0  0  0  0  0  0
  161.6470  205.3880  147.5840 C   0  0  1  0  0  3  0  0  0  0  0  0
  162.1430  205.7990  144.8500 C   0  0  0  0  0  2  0  0  0  0  0  0
  162.5280  204.4210  146.8370 C   0  0  0  0  0  3  0  0  0  0  0  0
  162.7710  204.6230  145.5380 C   0  0  0  0  0  3  0  0  0  0  0  0
  160.6640  205.8780  145.2350 C   0  0  0  0  0  2  0  0  0  0  0  0
  160.4390  205.8780  146.7600 C   0  0  0  0  0  2  0  0  0  0  0  0
  161.6390  209.3670  150.9710 C   0  0  0  0  0  2  0  0  0  0  0  0
  161.8750  210.1070  152.6150 S   0  0  0  0  0  0  0  0  0  0  0  0
  160.1670  210.7210  152.6530 C   0  0  0  0  0  2  0  0  0  0  0  0
  159.6920  210.7650  154.0250 N   0  0  0  0  0  2  0  0  0  0  0  0
  160.6180  209.9810  154.8220 C   0  0  0  0  0  2  0  0  0  0  0  0
  159.8410  209.1010  155.7780 C   0  0  0  0  0  2  0  0  0  0  0  0
  160.3380  207.8010  155.7210 O   0  0  0  0  0  1  0  0  0  0  0  0
  1  8  1  0  0  0  0
  1  2  2  0  0  0  0
  2 12  1  0  0  0  0
  3  4  2  0  0  0  0
  5  6  2  0  0  0  0
  7  2  1  0  0  0  0
  7 11  1  0  0  0  0
  8  3  1  0  0  0  0
  9  8  2  0  0  0  0
 10  5  1  0  0  0  0
 11 19  1  6  0  0  0
 11 10  1  0  0  0  0
 12  4  1  1  0  0  0
 12  5  1  0  0  0  0
 13  1  1  1  0  0  0
 14 17  1  0  0  0  0
 14 16  1  0  0  0  0
 15 13  1  0  0  0  0
 16 15  2  0  0  0  0
 17 18  1  0  0  0  0
 18 13  1  0  0  0  0
 19 20  1  0  0  0  0
 20 21  1  0  0  0  0
 21 22  1  0  0  0  0
 22 23  1  0  0  0  0
 23 24  1  0  0  0  0
 25 24  1  0  0  0  0
M  END
>  <MODEL>
3

>  <REMARK>
 VINA RESULT:      -7.9      3.680      6.523
  Name = 
  7 active torsions:
  status: ('A' for Active; 'I' for Inactive)
    1  A    between atoms: C_1  and  C_5
    2  A    between atoms: C_2  and  C_12
    3  A    between atoms: C_6  and  S_15
    4  A    between atoms: C_6  and  C_23
    5  A    between atoms: C_12  and  N_25
    6  A    between atoms: S_15  and  C_21
    7  A    between atoms: C_21  and  N_25
                            x       y       z     vdW  Elec       q    Type
                         _______ _______ _______ _____ _____    ______ ____

>  <TORSDO>
F 7

$$$$
=
 OpenBabel11052422143D

 25 27  0  0  1  0  0  0  0  0999 V2000
  161.2310  202.8570  147.5800 C   0  0  0  0  0  0  0  0  0  0  0  0
  161.0340  203.5910  148.6960 C   0  0  0  0  0  0  0  0  0  0  0  0
  160.9890  200.7220  148.9540 C   0  0  0  0  0  3  0  0  0  0  0  0
  160.7670  201.4440  150.0490 C   0  0  0  0  0  3  0  0  0  0  0  0
  161.1470  203.6470  151.1990 C   0  0  0  0  0  0  0  0  0  0  0  0
  161.3920  203.0330  152.2260 O   0  0  0  0  0  0  0  0  0  0  0  0
  161.1990  205.0930  148.6540 C   0  0  0  0  0  2  0  0  0  0  0  0
  161.1360  201.3780  147.6530 C   0  0  0  0  0  0  0  0  0  0  0  0
  161.2290  200.6730  146.6130 O   0  0  0  0  0  0  0  0  0  0  0  0
  161.3780  205.1320  151.1680 C   0  0  0  0  0  2  0  0  0  0  0  0
  160.7260  205.7690  149.9420 C   0  0  1  0  0  3  0  0  0  0  0  0
  160.5680  202.9390  149.9940 C   0  0  1  0  0  3  0  0  0  0  0  0
  161.5950  203.5290  146.2820 C   0  0  1  0  0  3  0  0  0  0  0  0
  161.8660  205.2920  144.1120 C   0  0  0  0  0  2  0  0  0  0  0  0
  160.3750  203.9240  145.4900 C   0  0  0  0  0  3  0  0  0  0  0  0
  160.5070  204.7560  144.4530 C   0  0  0  0  0  3  0  0  0  0  0  0
  162.5570  205.7670  145.3930 C   0  0  0  0  0  2  0  0  0  0  0  0
  162.5890  204.6880  146.4940 C   0  0  0  0  0  2  0  0  0  0  0  0
  161.0520  207.2510  149.9090 C   0  0  0  0  0  2  0  0  0  0  0  0
  162.2710  207.6580  151.1940 S   0  0  0  0  0  0  0  0  0  0  0  0
  162.0610  209.4390  150.9170 C   0  0  0  0  0  2  0  0  0  0  0  0
  161.8270  210.1100  152.1850 N   0  0  0  0  0  2  0  0  0  0  0  0
  160.5700  209.6060  152.7070 C   0  0  0  0  0  2  0  0  0  0  0  0
  160.5000  209.8700  154.1960 C   0  0  0  0  0  2  0  0  0  0  0  0
  160.7530  208.6890  154.8900 O   0  0  0  0  0  1  0  0  0  0  0  0
  1  8  1  0  0  0  0
  1  2  2  0  0  0  0
  2 12  1  0  0  0  0
  3  4  2  0  0  0  0
  5  6  2  0  0  0  0
  7  2  1  0  0  0  0
  7 11  1  0  0  0  0
  8  3  1  0  0  0  0
  9  8  2  0  0  0  0
 10  5  1  0  0  0  0
 11 19  1  6  0  0  0
 11 10  1  0  0  0  0
 12  4  1  6  0  0  0
 12  5  1  0  0  0  0
 13 18  1  0  0  0  0
 13  1  1  1  0  0  0
 14 16  1  0  0  0  0
 14 17  1  0  0  0  0
 15 13  1  0  0  0  0
 16 15  2  0  0  0  0
 17 18  1  0  0  0  0
 19 20  1  0  0  0  0
 21 20  1  0  0  0  0
 21 22  1  0  0  0  0
 22 23  1  0  0  0  0
 23 24  1  0  0  0  0
 24 25  1  0  0  0  0
M  END
>  <MODEL>
4

>  <REMARK>
 VINA RESULT:      -7.8      3.202      6.216
  Name = 
  7 active torsions:
  status: ('A' for Active; 'I' for Inactive)
    1  A    between atoms: C_1  and  C_5
    2  A    between atoms: C_2  and  C_12
    3  A    between atoms: C_6  and  S_15
    4  A    between atoms: C_6  and  C_23
    5  A    between atoms: C_12  and  N_25
    6  A    between atoms: S_15  and  C_21
    7  A    between atoms: C_21  and  N_25
                            x       y       z     vdW  Elec       q    Type
                         _______ _______ _______ _____ _____    ______ ____

>  <TORSDO>
F 7

$$$$
=
 OpenBabel11052422143D

 25 27  0  0  1  0  0  0  0  0999 V2000
  161.1940  203.0160  147.7910 C   0  0  0  0  0  0  0  0  0  0  0  0
  160.9950  203.8030  148.8700 C   0  0  0  0  0  0  0  0  0  0  0  0
  160.8040  200.9520  149.2370 C   0  0  0  0  0  3  0  0  0  0  0  0
  160.5800  201.7270  150.2950 C   0  0  0  0  0  3  0  0  0  0  0  0
  161.0270  203.9550  151.3710 C   0  0  0  0  0  0  0  0  0  0  0  0
  161.2080  203.3730  152.4290 O   0  0  0  0  0  0  0  0  0  0  0  0
  161.2340  205.2930  148.7760 C   0  0  0  0  0  2  0  0  0  0  0  0
  161.0260  201.5470  147.9180 C   0  0  0  0  0  0  0  0  0  0  0  0
  161.1190  200.7970  146.9100 O   0  0  0  0  0  0  0  0  0  0  0  0
  161.3310  205.4250  151.2910 C   0  0  0  0  0  2  0  0  0  0  0  0
  160.7510  206.0420  150.0190 C   0  0  1  0  0  3  0  0  0  0  0  0
  160.4560  203.2270  150.1750 C   0  0  1  0  0  3  0  0  0  0  0  0
  161.6330  203.6170  146.4820 C   0  0  1  0  0  3  0  0  0  0  0  0
  162.0180  205.2530  144.2310 C   0  0  0  0  0  2  0  0  0  0  0  0
  160.4630  203.9350  145.5870 C   0  0  0  0  0  3  0  0  0  0  0  0
  160.6490  204.7060  144.5110 C   0  0  0  0  0  3  0  0  0  0  0  0
  162.6090  205.8200  145.5230 C   0  0  0  0  0  2  0  0  0  0  0  0
  162.5870  204.8100  146.6880 C   0  0  0  0  0  2  0  0  0  0  0  0
  161.1490  207.5040  149.9400 C   0  0  0  0  0  2  0  0  0  0  0  0
  161.7520  208.0820  151.5540 S   0  0  0  0  0  0  0  0  0  0  0  0
  162.0370  209.7580  150.9180 C   0  0  0  0  0  2  0  0  0  0  0  0
  161.9560  209.7530  149.4670 N   0  0  0  0  0  2  0  0  0  0  0  0
  162.3330  211.0800  149.0140 C   0  0  0  0  0  2  0  0  0  0  0  0
  161.4220  211.5050  147.8820 C   0  0  0  0  0  2  0  0  0  0  0  0
  161.1790  212.8740  147.9700 O   0  0  0  0  0  1  0  0  0  0  0  0
  1  8  1  0  0  0  0
  1  2  2  0  0  0  0
  2 12  1  0  0  0  0
  3  4  2  0  0  0  0
  5  6  2  0  0  0  0
  7  2  1  0  0  0  0
  7 11  1  0  0  0  0
  8  3  1  0  0  0  0
  9  8  2  0  0  0  0
 10  5  1  0  0  0  0
 11 19  1  6  0  0  0
 11 10  1  0  0  0  0
 12  4  1  1  0  0  0
 12  5  1  0  0  0  0
 13 18  1  0  0  0  0
 13  1  1  1  0  0  0
 14 16  1  0  0  0  0
 14 17  1  0  0  0  0
 15 13  1  0  0  0  0
 16 15  2  0  0  0  0
 17 18  1  0  0  0  0
 19 20  1  0  0  0  0
 21 20  1  0  0  0  0
 22 21  1  0  0  0  0
 23 22  1  0  0  0  0
 24 25  1  0  0  0  0
 24 23  1  0  0  0  0
M  END
>  <MODEL>
5

>  <REMARK>
 VINA RESULT:      -7.5      2.999      5.945
  Name = 
  7 active torsions:
  status: ('A' for Active; 'I' for Inactive)
    1  A    between atoms: C_1  and  C_5
    2  A    between atoms: C_2  and  C_12
    3  A    between atoms: C_6  and  S_15
    4  A    between atoms: C_6  and  C_23
    5  A    between atoms: C_12  and  N_25
    6  A    between atoms: S_15  and  C_21
    7  A    between atoms: C_21  and  N_25
                            x       y       z     vdW  Elec       q    Type
                         _______ _______ _______ _____ _____    ______ ____

>  <TORSDO>
F 7

$$$$
=
 OpenBabel11052422143D

 25 27  0  0  1  0  0  0  0  0999 V2000
  161.2900  205.0450  148.9170 C   0  0  0  0  0  0  0  0  0  0  0  0
  161.2690  205.9770  149.8940 C   0  0  0  0  0  0  0  0  0  0  0  0
  160.7460  203.2430  150.6380 C   0  0  0  0  0  3  0  0  0  0  0  0
  160.6970  204.1640  151.5970 C   0  0  0  0  0  3  0  0  0  0  0  0
  161.4960  206.4260  152.3490 C   0  0  0  0  0  0  0  0  0  0  0  0
  161.6760  205.9580  153.4620 O   0  0  0  0  0  0  0  0  0  0  0  0
  161.6860  207.3980  149.5950 C   0  0  0  0  0  2  0  0  0  0  0  0
  160.9470  203.6380  149.2420 C   0  0  0  0  0  0  0  0  0  0  0  0
  160.8740  202.7660  148.3370 O   0  0  0  0  0  0  0  0  0  0  0  0
  161.9760  207.8220  152.0620 C   0  0  0  0  0  2  0  0  0  0  0  0
  161.3910  208.3510  150.7550 C   0  0  1  0  0  3  0  0  0  0  0  0
  160.7550  205.6410  151.2900 C   0  0  1  0  0  3  0  0  0  0  0  0
  161.7070  205.4180  147.5190 C   0  0  1  0  0  3  0  0  0  0  0  0
  162.1690  205.5130  144.7500 C   0  0  0  0  0  2  0  0  0  0  0  0
  162.5270  204.3360  146.8660 C   0  0  0  0  0  3  0  0  0  0  0  0
  162.7540  204.3860  145.5500 C   0  0  0  0  0  3  0  0  0  0  0  0
  160.7030  205.7050  145.1450 C   0  0  0  0  0  2  0  0  0  0  0  0
  160.5080  205.8770  146.6650 C   0  0  0  0  0  2  0  0  0  0  0  0
  161.9630  209.7260  150.4650 C   0  0  0  0  0  2  0  0  0  0  0  0
  161.9650  210.0440  148.6760 S   0  0  0  0  0  0  0  0  0  0  0  0
  161.7180  211.8250  148.9290 C   0  0  0  0  0  2  0  0  0  0  0  0
  161.2190  212.0660  150.2720 N   0  0  0  0  0  2  0  0  0  0  0  0
  160.1360  213.0260  150.1590 C   0  0  0  0  0  2  0  0  0  0  0  0
  159.3010  212.9960  151.4200 C   0  0  0  0  0  2  0  0  0  0  0  0
  159.9700  212.2710  152.4040 O   0  0  0  0  0  1  0  0  0  0  0  0
  1  8  1  0  0  0  0
  1  2  2  0  0  0  0
  2 12  1  0  0  0  0
  3  4  2  0  0  0  0
  5  6  2  0  0  0  0
  7  2  1  0  0  0  0
  7 11  1  0  0  0  0
  8  3  1  0  0  0  0
  9  8  2  0  0  0  0
 10  5  1  0  0  0  0
 11 19  1  6  0  0  0
 11 10  1  0  0  0  0
 12  4  1  1  0  0  0
 12  5  1  0  0  0  0
 13  1  1  1  0  0  0
 14 17  1  0  0  0  0
 14 16  1  0  0  0  0
 15 13  1  0  0  0  0
 16 15  2  0  0  0  0
 17 18  1  0  0  0  0
 18 13  1  0  0  0  0
 20 21  1  0  0  0  0
 20 19  1  0  0  0  0
 21 22  1  0  0  0  0
 23 22  1  0  0  0  0
 23 24  1  0  0  0  0
 24 25  1  0  0  0  0
M  END
>  <MODEL>
6

>  <REMARK>
 VINA RESULT:      -7.2      3.798      6.582
  Name = 
  7 active torsions:
  status: ('A' for Active; 'I' for Inactive)
    1  A    between atoms: C_1  and  C_5
    2  A    between atoms: C_2  and  C_12
    3  A    between atoms: C_6  and  S_15
    4  A    between atoms: C_6  and  C_23
    5  A    between atoms: C_12  and  N_25
    6  A    between atoms: S_15  and  C_21
    7  A    between atoms: C_21  and  N_25
                            x       y       z     vdW  Elec       q    Type
                         _______ _______ _______ _____ _____    ______ ____

>  <TORSDO>
F 7

$$$$
=
 OpenBabel11052422143D

 25 27  0  0  1  0  0  0  0  0999 V2000
  161.2420  205.0510  151.1210 C   0  0  0  0  0  0  0  0  0  0  0  0
  161.2650  206.1350  150.3160 C   0  0  0  0  0  0  0  0  0  0  0  0
  161.2280  206.5800  153.1620 C   0  0  0  0  0  3  0  0  0  0  0  0
  161.2220  207.6490  152.3690 C   0  0  0  0  0  3  0  0  0  0  0  0
  161.8400  208.5650  150.1110 C   0  0  0  0  0  0  0  0  0  0  0  0
  162.2620  209.5670  150.6680 O   0  0  0  0  0  0  0  0  0  0  0  0
  161.4410  205.9670  148.8240 C   0  0  0  0  0  2  0  0  0  0  0  0
  161.1410  205.2350  152.5900 C   0  0  0  0  0  0  0  0  0  0  0  0
  161.0300  204.2440  153.3580 O   0  0  0  0  0  0  0  0  0  0  0  0
  162.0830  208.3980  148.6370 C   0  0  0  0  0  2  0  0  0  0  0  0
  161.2240  207.2740  148.0590 C   0  0  1  0  0  3  0  0  0  0  0  0
  161.0390  207.5360  150.8750 C   0  0  1  0  0  3  0  0  0  0  0  0
  161.3690  203.6680  150.5380 C   0  0  1  0  0  3  0  0  0  0  0  0
  161.0770  200.9510  149.8890 C   0  0  0  0  0  2  0  0  0  0  0  0
  161.5810  202.6240  151.6040 C   0  0  0  0  0  3  0  0  0  0  0  0
  161.4510  201.3310  151.2920 C   0  0  0  0  0  3  0  0  0  0  0  0
  159.9180  201.8330  149.4190 C   0  0  0  0  0  2  0  0  0  0  0  0
  160.2040  203.3390  149.5820 C   0  0  0  0  0  2  0  0  0  0  0  0
  161.5590  207.0870  146.5910 C   0  0  0  0  0  2  0  0  0  0  0  0
  162.3510  205.4720  146.3260 S   0  0  0  0  0  0  0  0  0  0  0  0
  161.4250  205.2010  144.7880 C   0  0  0  0  0  2  0  0  0  0  0  0
  160.8180  203.8810  144.8050 N   0  0  0  0  0  2  0  0  0  0  0  0
  161.3500  203.1830  145.9610 C   0  0  0  0  0  2  0  0  0  0  0  0
  160.8310  201.7610  145.9750 C   0  0  0  0  0  2  0  0  0  0  0  0
  159.9850  201.5640  144.8860 O   0  0  0  0  0  1  0  0  0  0  0  0
  1  8  1  0  0  0  0
  2 12  1  0  0  0  0
  2  1  2  0  0  0  0
  4  3  2  0  0  0  0
  5  6  2  0  0  0  0
  5 12  1  0  0  0  0
  7  2  1  0  0  0  0
  8  3  1  0  0  0  0
  8  9  2  0  0  0  0
 10  5  1  0  0  0  0
 11 19  1  6  0  0  0
 11 10  1  0  0  0  0
 11  7  1  0  0  0  0
 12  4  1  1  0  0  0
 13  1  1  1  0  0  0
 13 15  1  0  0  0  0
 14 16  1  0  0  0  0
 16 15  2  0  0  0  0
 17 18  1  0  0  0  0
 17 14  1  0  0  0  0
 18 13  1  0  0  0  0
 20 19  1  0  0  0  0
 21 22  1  0  0  0  0
 21 20  1  0  0  0  0
 22 23  1  0  0  0  0
 23 24  1  0  0  0  0
 25 24  1  0  0  0  0
M  END
>  <MODEL>
7

>  <REMARK>
 VINA RESULT:      -7.0      1.809      4.666
  Name = 
  7 active torsions:
  status: ('A' for Active; 'I' for Inactive)
    1  A    between atoms: C_1  and  C_5
    2  A    between atoms: C_2  and  C_12
    3  A    between atoms: C_6  and  S_15
    4  A    between atoms: C_6  and  C_23
    5  A    between atoms: C_12  and  N_25
    6  A    between atoms: S_15  and  C_21
    7  A    between atoms: C_21  and  N_25
                            x       y       z     vdW  Elec       q    Type
                         _______ _______ _______ _____ _____    ______ ____

>  <TORSDO>
F 7

$$$$
=
 OpenBabel11052422143D

 25 27  0  0  1  0  0  0  0  0999 V2000
  160.9700  203.0940  148.4340 C   0  0  0  0  0  0  0  0  0  0  0  0
  161.3010  204.2440  147.8090 C   0  0  0  0  0  0  0  0  0  0  0  0
  160.9260  201.8960  146.1830 C   0  0  0  0  0  3  0  0  0  0  0  0
  161.2800  203.0230  145.5700 C   0  0  0  0  0  3  0  0  0  0  0  0
  161.2580  205.5350  145.6620 C   0  0  0  0  0  0  0  0  0  0  0  0
  160.9500  205.5450  144.4810 O   0  0  0  0  0  0  0  0  0  0  0  0
  161.3580  205.5390  148.5870 C   0  0  0  0  0  2  0  0  0  0  0  0
  160.8470  201.8440  147.6440 C   0  0  0  0  0  0  0  0  0  0  0  0
  160.6250  200.7410  148.2110 O   0  0  0  0  0  0  0  0  0  0  0  0
  161.2480  206.8300  146.4260 C   0  0  0  0  0  2  0  0  0  0  0  0
  161.9570  206.6850  147.7700 C   0  0  1  0  0  3  0  0  0  0  0  0
  161.6960  204.2540  146.3370 C   0  0  1  0  0  3  0  0  0  0  0  0
  160.6790  203.0870  149.9120 C   0  0  1  0  0  3  0  0  0  0  0  0
  160.7970  203.2950  152.7100 C   0  0  0  0  0  2  0  0  0  0  0  0
  161.6650  202.2430  150.6770 C   0  0  0  0  0  3  0  0  0  0  0  0
  161.7140  202.3370  152.0090 C   0  0  0  0  0  3  0  0  0  0  0  0
  160.8210  204.6410  151.9830 C   0  0  0  0  0  2  0  0  0  0  0  0
  160.5270  204.5140  150.4740 C   0  0  0  0  0  2  0  0  0  0  0  0
  161.8540  207.9900  148.5390 C   0  0  0  0  0  2  0  0  0  0  0  0
  162.3310  207.7380  150.2750 S   0  0  0  0  0  0  0  0  0  0  0  0
  162.0900  209.4960  150.6610 C   0  0  0  0  0  2  0  0  0  0  0  0
  161.1590  209.6320  151.7690 N   0  0  0  0  0  2  0  0  0  0  0  0
  160.9230  208.3000  152.2940 C   0  0  0  0  0  2  0  0  0  0  0  0
  160.9970  208.3320  153.8050 C   0  0  0  0  0  2  0  0  0  0  0  0
  161.4410  209.5850  154.2220 O   0  0  0  0  0  1  0  0  0  0  0  0
  2  1  2  0  0  0  0
  2  7  1  0  0  0  0
  3  8  1  0  0  0  0
  4  3  2  0  0  0  0
  5 12  1  0  0  0  0
  5 10  1  0  0  0  0
  6  5  2  0  0  0  0
  8  9  2  0  0  0  0
  8  1  1  0  0  0  0
 10 11  1  0  0  0  0
 11 19  1  1  0  0  0
 11  7  1  0  0  0  0
 12  4  1  6  0  0  0
 12  2  1  0  0  0  0
 13  1  1  6  0  0  0
 13 18  1  0  0  0  0
 13 15  1  0  0  0  0
 15 16  2  0  0  0  0
 16 14  1  0  0  0  0
 17 14  1  0  0  0  0
 18 17  1  0  0  0  0
 19 20  1  0  0  0  0
 20 21  1  0  0  0  0
 21 22  1  0  0  0  0
 22 23  1  0  0  0  0
 23 24  1  0  0  0  0
 24 25  1  0  0  0  0
M  END
>  <MODEL>
8

>  <REMARK>
 VINA RESULT:      -6.8      3.027      7.308
  Name = 
  7 active torsions:
  status: ('A' for Active; 'I' for Inactive)
    1  A    between atoms: C_1  and  C_5
    2  A    between atoms: C_2  and  C_12
    3  A    between atoms: C_6  and  S_15
    4  A    between atoms: C_6  and  C_23
    5  A    between atoms: C_12  and  N_25
    6  A    between atoms: S_15  and  C_21
    7  A    between atoms: C_21  and  N_25
                            x       y       z     vdW  Elec       q    Type
                         _______ _______ _______ _____ _____    ______ ____

>  <TORSDO>
F 7

$$$$
=
 OpenBabel11052422143D

 25 27  0  0  1  0  0  0  0  0999 V2000
  161.4170  205.4860  149.2200 C   0  0  0  0  0  0  0  0  0  0  0  0
  161.5510  206.3370  150.2600 C   0  0  0  0  0  0  0  0  0  0  0  0
  162.1850  207.3250  147.6300 C   0  0  0  0  0  3  0  0  0  0  0  0
  162.3440  208.1560  148.6560 C   0  0  0  0  0  3  0  0  0  0  0  0
  161.6240  208.7310  150.9960 C   0  0  0  0  0  0  0  0  0  0  0  0
  161.5870  209.9050  150.6620 O   0  0  0  0  0  0  0  0  0  0  0  0
  161.0880  205.9270  151.6390 C   0  0  0  0  0  2  0  0  0  0  0  0
  161.8100  205.9280  147.8600 C   0  0  0  0  0  0  0  0  0  0  0  0
  161.7780  205.1300  146.8860 O   0  0  0  0  0  0  0  0  0  0  0  0
  161.1010  208.3440  152.3510 C   0  0  0  0  0  2  0  0  0  0  0  0
  161.5160  206.9220  152.7190 C   0  0  1  0  0  3  0  0  0  0  0  0
  162.2360  207.6880  150.0870 C   0  0  1  0  0  3  0  0  0  0  0  0
  160.8280  204.1160  149.4290 C   0  0  1  0  0  3  0  0  0  0  0  0
  160.3930  201.3590  149.7450 C   0  0  0  0  0  2  0  0  0  0  0  0
  161.1640  203.1780  148.2990 C   0  0  0  0  0  3  0  0  0  0  0  0
  160.9490  201.8670  148.4470 C   0  0  0  0  0  3  0  0  0  0  0  0
  161.1480  202.0080  150.9060 C   0  0  0  0  0  2  0  0  0  0  0  0
  161.1740  203.5480  150.8200 C   0  0  0  0  0  2  0  0  0  0  0  0
  160.9010  206.5460  154.0550 C   0  0  0  0  0  2  0  0  0  0  0  0
  161.4250  207.7160  155.3430 S   0  0  0  0  0  0  0  0  0  0  0  0
  159.7060  208.1150  155.7680 C   0  0  0  0  0  2  0  0  0  0  0  0
  159.5200  209.5560  155.7620 N   0  0  0  0  0  2  0  0  0  0  0  0
  160.8370  210.1560  155.8730 C   0  0  0  0  0  2  0  0  0  0  0  0
  160.8310  211.5150  155.2060 C   0  0  0  0  0  2  0  0  0  0  0  0
  160.4160  211.3810  153.8830 O   0  0  0  0  0  1  0  0  0  0  0  0
  1  2  2  0  0  0  0
  2  7  1  0  0  0  0
  3  8  1  0  0  0  0
  3  4  2  0  0  0  0
  5 10  1  0  0  0  0
  6  5  2  0  0  0  0
  7 11  1  0  0  0  0
  8  1  1  0  0  0  0
  9  8  2  0  0  0  0
 10 11  1  0  0  0  0
 11 19  1  1  0  0  0
 12  4  1  6  0  0  0
 12  2  1  0  0  0  0
 12  5  1  0  0  0  0
 13  1  1  6  0  0  0
 13 18  1  0  0  0  0
 14 17  1  0  0  0  0
 15 16  2  0  0  0  0
 15 13  1  0  0  0  0
 16 14  1  0  0  0  0
 18 17  1  0  0  0  0
 19 20  1  0  0  0  0
 20 21  1  0  0  0  0
 22 21  1  0  0  0  0
 22 23  1  0  0  0  0
 24 23  1  0  0  0  0
 25 24  1  0  0  0  0
M  END
>  <MODEL>
9

>  <REMARK>
 VINA RESULT:      -6.8      3.951      6.938
  Name = 
  7 active torsions:
  status: ('A' for Active; 'I' for Inactive)
    1  A    between atoms: C_1  and  C_5
    2  A    between atoms: C_2  and  C_12
    3  A    between atoms: C_6  and  S_15
    4  A    between atoms: C_6  and  C_23
    5  A    between atoms: C_12  and  N_25
    6  A    between atoms: S_15  and  C_21
    7  A    between atoms: C_21  and  N_25
                            x       y       z     vdW  Elec       q    Type
                         _______ _______ _______ _____ _____    ______ ____

>  <TORSDO>
F 7

$$$$
