=
 OpenBabel11052422353D

 31 35  0  0  0  0  0  0  0  0999 V2000
  161.1300  201.6650  150.2980 C   0  0  0  0  0  0  0  0  0  0  0  0
  161.2010  205.3750  149.6570 C   0  0  0  0  0  0  0  0  0  0  0  0
  161.3090  205.5520  148.2430 C   0  0  0  0  0  0  0  0  0  0  0  0
  160.8210  206.6040  154.7680 O   0  0  0  0  0  0  0  0  0  0  0  0
  160.8780  207.6720  154.1010 C   0  0  0  0  0  0  0  0  0  0  0  0
  161.4770  204.7110  145.9640 C   0  0  0  0  0  0  0  0  0  0  0  0
  161.1430  204.1080  150.3130 C   0  0  0  0  0  0  0  0  0  0  0  0
  161.0240  201.6450  151.6880 C   0  0  0  0  0  3  0  0  0  0  0  0
  161.3720  204.4830  147.3350 C   0  0  0  0  0  3  0  0  0  0  0  0
  161.0400  206.4390  151.8630 C   0  0  0  0  0  0  0  0  0  0  0  0
  161.1750  200.5020  149.6050 F   0  0  0  0  0  0  0  0  0  0  0  0
  161.3030  207.9400  148.5290 N   0  0  0  0  0  0  0  0  0  0  0  0
  161.5420  203.5670  145.0170 C   0  0  0  0  0  1  0  0  0  0  0  0
  160.9880  205.2140  152.4440 N   0  0  0  0  0  0  0  0  0  0  0  0
  161.1470  206.5440  150.4670 C   0  0  0  0  0  0  0  0  0  0  0  0
  160.9860  207.6260  152.6710 N   0  0  0  0  0  2  0  0  0  0  0  0
  161.1880  202.8850  149.6210 C   0  0  0  0  0  3  0  0  0  0  0  0
  161.5210  206.0190  145.4920 C   0  0  0  0  0  3  0  0  0  0  0  0
  161.0360  204.0670  151.7260 C   0  0  0  0  0  0  0  0  0  0  0  0
  160.9770  202.8430  152.3990 C   0  0  0  0  0  3  0  0  0  0  0  0
  161.1990  207.8080  149.8720 C   0  0  0  0  0  3  0  0  0  0  0  0
  161.3580  206.8630  147.7080 C   0  0  0  0  0  0  0  0  0  0  0  0
  161.4610  207.0580  146.3660 N   0  0  0  0  0  0  0  0  0  0  0  0
  160.7030  211.5030  156.0280 C   0  0  0  0  0  0  0  0  0  0  0  0
  160.0850  210.0250  154.2170 C   0  0  0  0  0  3  0  0  0  0  0  0
  162.2630  208.2530  156.5900 F   0  0  0  0  0  0  0  0  0  0  0  0
  160.6330  212.8350  156.6840 C   0  0  0  0  0  1  0  0  0  0  0  0
  160.0180  211.2770  154.8330 C   0  0  0  0  0  3  0  0  0  0  0  0
  161.5230  209.2220  155.9960 C   0  0  0  0  0  0  0  0  0  0  0  0
  160.8340  208.9840  154.7860 C   0  0  0  0  0  0  0  0  0  0  0  0
  161.4530  210.4780  156.6070 C   0  0  0  0  0  3  0  0  0  0  0  0
  1  8  1  0  0  0  0
  2  7  1  0  0  0  0
  2 15  1  0  0  0  0
  3  2  2  0  0  0  0
  5  4  2  0  0  0  0
  5 30  1  0  0  0  0
  6  9  2  0  0  0  0
  7 19  2  0  0  0  0
  8 20  2  0  0  0  0
  9  3  1  0  0  0  0
 10 14  2  0  0  0  0
 10 16  1  0  0  0  0
 11  1  1  0  0  0  0
 12 21  1  0  0  0  0
 13  6  1  0  0  0  0
 15 10  1  0  0  0  0
 16  5  1  0  0  0  0
 17  1  2  0  0  0  0
 17  7  1  0  0  0  0
 18  6  1  0  0  0  0
 18 23  2  0  0  0  0
 19 20  1  0  0  0  0
 19 14  1  0  0  0  0
 21 15  2  0  0  0  0
 22  3  1  0  0  0  0
 22 12  2  0  0  0  0
 23 22  1  0  0  0  0
 24 31  1  0  0  0  0
 24 27  1  0  0  0  0
 25 30  2  0  0  0  0
 25 28  1  0  0  0  0
 28 24  2  0  0  0  0
 29 26  1  0  0  0  0
 29 31  2  0  0  0  0
 30 29  1  0  0  0  0
M  END
>  <MODEL>
1

>  <REMARK>
 VINA RESULT:     -10.2      0.000      0.000
  Name = 
  1 active torsions:
  status: ('A' for Active; 'I' for Inactive)
    1  A    between atoms: C_9  and  C_22
                            x       y       z     vdW  Elec       q    Type
                         _______ _______ _______ _____ _____    ______ ____

>  <TORSDO>
F 1

$$$$
=
 OpenBabel11052422353D

 31 35  0  0  0  0  0  0  0  0999 V2000
  161.0900  205.6160  153.5310 C   0  0  0  0  0  0  0  0  0  0  0  0
  161.2560  205.8510  149.7760 C   0  0  0  0  0  0  0  0  0  0  0  0
  161.1770  204.5160  149.2710 C   0  0  0  0  0  0  0  0  0  0  0  0
  161.6470  211.1070  149.7890 O   0  0  0  0  0  0  0  0  0  0  0  0
  161.6640  210.7050  148.5940 C   0  0  0  0  0  0  0  0  0  0  0  0
  160.9870  202.1050  149.5510 C   0  0  0  0  0  0  0  0  0  0  0  0
  161.2270  206.1950  151.1620 C   0  0  0  0  0  0  0  0  0  0  0  0
  161.1760  206.9630  153.8790 C   0  0  0  0  0  3  0  0  0  0  0  0
  161.0610  203.3850  150.0950 C   0  0  0  0  0  3  0  0  0  0  0  0
  161.4550  208.2430  149.2630 C   0  0  0  0  0  0  0  0  0  0  0  0
  160.9810  204.6730  154.4970 F   0  0  0  0  0  0  0  0  0  0  0  0
  161.3290  205.3470  147.0190 N   0  0  0  0  0  0  0  0  0  0  0  0
  160.8640  200.9190  150.4380 C   0  0  0  0  0  1  0  0  0  0  0  0
  161.4220  208.5240  150.5910 N   0  0  0  0  0  0  0  0  0  0  0  0
  161.3730  206.9090  148.8320 C   0  0  0  0  0  0  0  0  0  0  0  0
  161.5720  209.3030  148.3010 N   0  0  0  0  0  2  0  0  0  0  0  0
  161.1150  205.2390  152.1870 C   0  0  0  0  0  3  0  0  0  0  0  0
  161.0300  201.9490  148.1680 C   0  0  0  0  0  3  0  0  0  0  0  0
  161.3130  207.5610  151.5350 C   0  0  0  0  0  0  0  0  0  0  0  0
  161.2870  207.9320  152.8830 C   0  0  0  0  0  3  0  0  0  0  0  0
  161.4060  206.6230  147.4640 C   0  0  0  0  0  3  0  0  0  0  0  0
  161.2170  204.3000  147.8720 C   0  0  0  0  0  0  0  0  0  0  0  0
  161.1430  203.0390  147.3660 N   0  0  0  0  0  0  0  0  0  0  0  0
  161.9290  213.4920  145.3410 C   0  0  0  0  0  0  0  0  0  0  0  0
  160.7410  211.7630  146.5430 C   0  0  0  0  0  3  0  0  0  0  0  0
  163.9400  212.4730  148.2090 F   0  0  0  0  0  0  0  0  0  0  0  0
  162.0060  214.4530  144.2100 C   0  0  0  0  0  1  0  0  0  0  0  0
  160.8130  212.6660  145.4790 C   0  0  0  0  0  3  0  0  0  0  0  0
  162.9060  212.5160  147.3330 C   0  0  0  0  0  0  0  0  0  0  0  0
  161.7800  211.6750  147.4810 C   0  0  0  0  0  0  0  0  0  0  0  0
  162.9720  213.4170  146.2660 C   0  0  0  0  0  3  0  0  0  0  0  0
  1  8  1  0  0  0  0
  1 11  1  0  0  0  0
  2  7  1  0  0  0  0
  3  2  2  0  0  0  0
  3  9  1  0  0  0  0
  5  4  2  0  0  0  0
  6  9  2  0  0  0  0
  6 13  1  0  0  0  0
  7 19  2  0  0  0  0
  7 17  1  0  0  0  0
 10 14  2  0  0  0  0
 12 21  1  0  0  0  0
 12 22  2  0  0  0  0
 14 19  1  0  0  0  0
 15 10  1  0  0  0  0
 15  2  1  0  0  0  0
 16  5  1  0  0  0  0
 16 10  1  0  0  0  0
 17  1  2  0  0  0  0
 18  6  1  0  0  0  0
 19 20  1  0  0  0  0
 20  8  2  0  0  0  0
 21 15  2  0  0  0  0
 22  3  1  0  0  0  0
 23 22  1  0  0  0  0
 23 18  2  0  0  0  0
 24 28  2  0  0  0  0
 24 31  1  0  0  0  0
 25 30  2  0  0  0  0
 27 24  1  0  0  0  0
 28 25  1  0  0  0  0
 29 30  1  0  0  0  0
 29 26  1  0  0  0  0
 30  5  1  0  0  0  0
 31 29  2  0  0  0  0
M  END
>  <MODEL>
2

>  <REMARK>
 VINA RESULT:     -10.0      3.998      6.259
  Name = 
  1 active torsions:
  status: ('A' for Active; 'I' for Inactive)
    1  A    between atoms: C_9  and  C_22
                            x       y       z     vdW  Elec       q    Type
                         _______ _______ _______ _____ _____    ______ ____

>  <TORSDO>
F 1

$$$$
=
 OpenBabel11052422353D

 31 35  0  0  0  0  0  0  0  0999 V2000
  161.2040  205.3140  145.5710 C   0  0  0  0  0  0  0  0  0  0  0  0
  161.1490  204.2920  149.1950 C   0  0  0  0  0  0  0  0  0  0  0  0
  161.1510  202.8640  149.2250 C   0  0  0  0  0  0  0  0  0  0  0  0
  161.1100  209.2650  150.9430 O   0  0  0  0  0  0  0  0  0  0  0  0
  161.0960  208.4890  151.9360 C   0  0  0  0  0  0  0  0  0  0  0  0
  161.1730  200.6770  148.1550 C   0  0  0  0  0  0  0  0  0  0  0  0
  161.1660  205.0770  148.0020 C   0  0  0  0  0  0  0  0  0  0  0  0
  161.2000  206.7030  145.6940 C   0  0  0  0  0  3  0  0  0  0  0  0
  161.1710  202.0670  148.0690 C   0  0  0  0  0  3  0  0  0  0  0  0
  161.1240  206.3840  150.4800 C   0  0  0  0  0  0  0  0  0  0  0  0
  161.2260  204.7430  144.3440 F   0  0  0  0  0  0  0  0  0  0  0  0
  161.1120  202.9030  151.6300 N   0  0  0  0  0  0  0  0  0  0  0  0
  161.1940  199.8500  146.9200 C   0  0  0  0  0  1  0  0  0  0  0  0
  161.1410  207.0890  149.3210 N   0  0  0  0  0  0  0  0  0  0  0  0
  161.1270  204.9790  150.4410 C   0  0  0  0  0  0  0  0  0  0  0  0
  161.1020  207.0670  151.7440 N   0  0  0  0  0  2  0  0  0  0  0  0
  161.1880  204.5130  146.7140 C   0  0  0  0  0  3  0  0  0  0  0  0
  161.1540  200.0710  149.4080 C   0  0  0  0  0  3  0  0  0  0  0  0
  161.1620  206.4910  148.1070 C   0  0  0  0  0  0  0  0  0  0  0  0
  161.1790  207.2890  146.9590 C   0  0  0  0  0  3  0  0  0  0  0  0
  161.1100  204.2560  151.6370 C   0  0  0  0  0  3  0  0  0  0  0  0
  161.1320  202.1950  150.4750 C   0  0  0  0  0  0  0  0  0  0  0  0
  161.1340  200.8360  150.5300 N   0  0  0  0  0  0  0  0  0  0  0  0
  161.0560  210.1500  155.8930 C   0  0  0  0  0  0  0  0  0  0  0  0
  161.4450  210.3750  153.5170 C   0  0  0  0  0  3  0  0  0  0  0  0
  160.3210  206.9600  154.2840 F   0  0  0  0  0  0  0  0  0  0  0  0
  161.0460  210.7390  157.2580 C   0  0  0  0  0  1  0  0  0  0  0  0
  161.4360  210.9290  154.8000 C   0  0  0  0  0  3  0  0  0  0  0  0
  160.6890  208.2570  154.4240 C   0  0  0  0  0  0  0  0  0  0  0  0
  161.0730  209.0370  153.3110 C   0  0  0  0  0  0  0  0  0  0  0  0
  160.6830  208.8180  155.7050 C   0  0  0  0  0  3  0  0  0  0  0  0
  1  8  2  0  0  0  0
  1 17  1  0  0  0  0
  2  3  2  0  0  0  0
  2 15  1  0  0  0  0
  3 22  1  0  0  0  0
  4  5  2  0  0  0  0
  5 30  1  0  0  0  0
  6 18  1  0  0  0  0
  7 19  1  0  0  0  0
  7  2  1  0  0  0  0
  8 20  1  0  0  0  0
  9  6  2  0  0  0  0
  9  3  1  0  0  0  0
 10 16  1  0  0  0  0
 11  1  1  0  0  0  0
 12 21  1  0  0  0  0
 13  6  1  0  0  0  0
 14 10  2  0  0  0  0
 15 10  1  0  0  0  0
 15 21  2  0  0  0  0
 16  5  1  0  0  0  0
 17  7  2  0  0  0  0
 18 23  2  0  0  0  0
 19 14  1  0  0  0  0
 20 19  2  0  0  0  0
 22 23  1  0  0  0  0
 22 12  2  0  0  0  0
 24 27  1  0  0  0  0
 25 28  1  0  0  0  0
 26 29  1  0  0  0  0
 28 24  2  0  0  0  0
 29 31  2  0  0  0  0
 30 25  2  0  0  0  0
 30 29  1  0  0  0  0
 31 24  1  0  0  0  0
M  END
>  <MODEL>
3

>  <REMARK>
 VINA RESULT:      -9.4      2.242      4.210
  Name = 
  1 active torsions:
  status: ('A' for Active; 'I' for Inactive)
    1  A    between atoms: C_9  and  C_22
                            x       y       z     vdW  Elec       q    Type
                         _______ _______ _______ _____ _____    ______ ____

>  <TORSDO>
F 1

$$$$
=
 OpenBabel11052422353D

 31 35  0  0  0  0  0  0  0  0999 V2000
  161.8670  210.6260  150.0020 C   0  0  0  0  0  0  0  0  0  0  0  0
  161.3250  207.1300  151.2960 C   0  0  0  0  0  0  0  0  0  0  0  0
  161.1840  207.2290  152.7150 C   0  0  0  0  0  0  0  0  0  0  0  0
  161.5890  204.9560  146.5020 O   0  0  0  0  0  0  0  0  0  0  0  0
  161.3930  204.0420  147.3490 C   0  0  0  0  0  0  0  0  0  0  0  0
  161.1050  208.4840  154.8000 C   0  0  0  0  0  0  0  0  0  0  0  0
  161.5460  208.2410  150.4260 C   0  0  0  0  0  0  0  0  0  0  0  0
  161.9850  210.3790  148.6350 C   0  0  0  0  0  3  0  0  0  0  0  0
  161.2490  208.4440  153.4150 C   0  0  0  0  0  3  0  0  0  0  0  0
  161.3690  205.6710  149.3230 C   0  0  0  0  0  0  0  0  0  0  0  0
  161.9620  211.8910  150.4730 F   0  0  0  0  0  0  0  0  0  0  0  0
  160.8940  204.8450  152.8620 N   0  0  0  0  0  0  0  0  0  0  0  0
  161.1770  209.7800  155.5240 C   0  0  0  0  0  1  0  0  0  0  0  0
  161.5780  206.7560  148.5330 N   0  0  0  0  0  0  0  0  0  0  0  0
  161.2390  205.8360  150.7120 C   0  0  0  0  0  0  0  0  0  0  0  0
  161.2800  204.3600  148.7430 N   0  0  0  0  0  2  0  0  0  0  0  0
  161.6490  209.5660  150.8850 C   0  0  0  0  0  3  0  0  0  0  0  0
  160.8930  207.2980  155.4970 C   0  0  0  0  0  3  0  0  0  0  0  0
  161.6690  208.0100  149.0320 C   0  0  0  0  0  0  0  0  0  0  0  0
  161.8860  209.0750  148.1520 C   0  0  0  0  0  3  0  0  0  0  0  0
  161.0230  204.7170  151.5210 C   0  0  0  0  0  3  0  0  0  0  0  0
  160.9670  206.0520  153.4740 C   0  0  0  0  0  0  0  0  0  0  0  0
  160.8290  206.1190  154.8260 N   0  0  0  0  0  0  0  0  0  0  0  0
  161.0880  199.9310  146.1530 C   0  0  0  0  0  0  0  0  0  0  0  0
  161.6560  201.6110  147.7960 C   0  0  0  0  0  3  0  0  0  0  0  0
  160.4190  203.2260  144.7340 F   0  0  0  0  0  0  0  0  0  0  0  0
  160.9870  198.5030  145.7530 C   0  0  0  0  0  1  0  0  0  0  0  0
  161.5620  200.2690  147.4210 C   0  0  0  0  0  3  0  0  0  0  0  0
  160.7980  202.2810  145.6300 C   0  0  0  0  0  0  0  0  0  0  0  0
  161.2780  202.6320  146.9110 C   0  0  0  0  0  0  0  0  0  0  0  0
  160.7060  200.9350  145.2610 C   0  0  0  0  0  3  0  0  0  0  0  0
  1 11  1  0  0  0  0
  1 17  1  0  0  0  0
  2  3  2  0  0  0  0
  3  9  1  0  0  0  0
  3 22  1  0  0  0  0
  4  5  2  0  0  0  0
  5 16  1  0  0  0  0
  6 18  1  0  0  0  0
  6 13  1  0  0  0  0
  7 17  2  0  0  0  0
  7  2  1  0  0  0  0
  8  1  2  0  0  0  0
  9  6  2  0  0  0  0
 10 15  1  0  0  0  0
 12 22  2  0  0  0  0
 14 19  1  0  0  0  0
 14 10  2  0  0  0  0
 15  2  1  0  0  0  0
 15 21  2  0  0  0  0
 16 10  1  0  0  0  0
 19  7  1  0  0  0  0
 20  8  1  0  0  0  0
 20 19  2  0  0  0  0
 21 12  1  0  0  0  0
 22 23  1  0  0  0  0
 23 18  2  0  0  0  0
 24 28  1  0  0  0  0
 26 29  1  0  0  0  0
 27 24  1  0  0  0  0
 28 25  2  0  0  0  0
 29 30  2  0  0  0  0
 30  5  1  0  0  0  0
 30 25  1  0  0  0  0
 31 29  1  0  0  0  0
 31 24  2  0  0  0  0
M  END
>  <MODEL>
4

>  <REMARK>
 VINA RESULT:      -9.1      3.031      9.326
  Name = 
  1 active torsions:
  status: ('A' for Active; 'I' for Inactive)
    1  A    between atoms: C_9  and  C_22
                            x       y       z     vdW  Elec       q    Type
                         _______ _______ _______ _____ _____    ______ ____

>  <TORSDO>
F 1

$$$$
=
 OpenBabel11052422353D

 31 35  0  0  0  0  0  0  0  0999 V2000
  161.2370  207.8740  154.4950 C   0  0  0  0  0  0  0  0  0  0  0  0
  161.3520  207.2630  150.7800 C   0  0  0  0  0  0  0  0  0  0  0  0
  161.2510  205.8500  150.5870 C   0  0  0  0  0  0  0  0  0  0  0  0
  161.7990  212.3830  149.6140 O   0  0  0  0  0  0  0  0  0  0  0  0
  161.7950  211.7240  148.5390 C   0  0  0  0  0  0  0  0  0  0  0  0
  161.0380  203.5650  151.4000 C   0  0  0  0  0  0  0  0  0  0  0  0
  161.3460  207.9080  152.0540 C   0  0  0  0  0  0  0  0  0  0  0  0
  161.3430  209.2630  154.5310 C   0  0  0  0  0  3  0  0  0  0  0  0
  161.1340  204.9330  151.6440 C   0  0  0  0  0  3  0  0  0  0  0  0
  161.5680  209.4770  149.7440 C   0  0  0  0  0  0  0  0  0  0  0  0
  161.1320  207.1720  155.6480 F   0  0  0  0  0  0  0  0  0  0  0  0
  161.3790  206.1560  148.2050 N   0  0  0  0  0  0  0  0  0  0  0  0
  160.9150  202.6090  152.5310 C   0  0  0  0  0  1  0  0  0  0  0  0
  161.5580  210.0480  150.9750 N   0  0  0  0  0  0  0  0  0  0  0  0
  161.4660  208.0810  149.6220 C   0  0  0  0  0  0  0  0  0  0  0  0
  161.6830  210.2940  148.5670 N   0  0  0  0  0  2  0  0  0  0  0  0
  161.2390  207.2060  153.2680 C   0  0  0  0  0  3  0  0  0  0  0  0
  161.0600  203.1030  150.0870 C   0  0  0  0  0  3  0  0  0  0  0  0
  161.4530  209.3210  152.1120 C   0  0  0  0  0  0  0  0  0  0  0  0
  161.4500  209.9840  153.3430 C   0  0  0  0  0  3  0  0  0  0  0  0
  161.4750  207.4970  148.3520 C   0  0  0  0  0  3  0  0  0  0  0  0
  161.2680  205.3260  149.2700 C   0  0  0  0  0  0  0  0  0  0  0  0
  161.1730  203.9850  149.0600 N   0  0  0  0  0  0  0  0  0  0  0  0
  162.1950  213.7490  144.7760 C   0  0  0  0  0  0  0  0  0  0  0  0
  163.1690  212.8410  146.7950 C   0  0  0  0  0  3  0  0  0  0  0  0
  159.5340  212.2910  146.8020 F   0  0  0  0  0  0  0  0  0  0  0  0
  162.3490  214.4500  143.4740 C   0  0  0  0  0  1  0  0  0  0  0  0
  163.3140  213.5010  145.5720 C   0  0  0  0  0  3  0  0  0  0  0  0
  160.7780  212.6740  146.4240 C   0  0  0  0  0  0  0  0  0  0  0  0
  161.9050  212.4200  147.2370 C   0  0  0  0  0  0  0  0  0  0  0  0
  160.9310  213.3360  145.2010 C   0  0  0  0  0  3  0  0  0  0  0  0
  1  8  1  0  0  0  0
  1 11  1  0  0  0  0
  2  7  1  0  0  0  0
  3  2  2  0  0  0  0
  3  9  1  0  0  0  0
  5 16  1  0  0  0  0
  5  4  2  0  0  0  0
  6  9  2  0  0  0  0
  6 13  1  0  0  0  0
  7 19  2  0  0  0  0
  7 17  1  0  0  0  0
 10 14  2  0  0  0  0
 12 21  1  0  0  0  0
 12 22  2  0  0  0  0
 14 19  1  0  0  0  0
 15 10  1  0  0  0  0
 15  2  1  0  0  0  0
 16 10  1  0  0  0  0
 17  1  2  0  0  0  0
 18  6  1  0  0  0  0
 19 20  1  0  0  0  0
 20  8  2  0  0  0  0
 21 15  2  0  0  0  0
 22  3  1  0  0  0  0
 23 22  1  0  0  0  0
 23 18  2  0  0  0  0
 24 31  2  0  0  0  0
 24 28  1  0  0  0  0
 25 30  1  0  0  0  0
 27 24  1  0  0  0  0
 28 25  2  0  0  0  0
 29 26  1  0  0  0  0
 29 30  2  0  0  0  0
 30  5  1  0  0  0  0
 31 29  1  0  0  0  0
M  END
>  <MODEL>
5

>  <REMARK>
 VINA RESULT:      -8.9      4.359      7.195
  Name = 
  1 active torsions:
  status: ('A' for Active; 'I' for Inactive)
    1  A    between atoms: C_9  and  C_22
                            x       y       z     vdW  Elec       q    Type
                         _______ _______ _______ _____ _____    ______ ____

>  <TORSDO>
F 1

$$$$
=
 OpenBabel11052422353D

 31 35  0  0  0  0  0  0  0  0999 V2000
  161.8510  210.6670  150.0120 C   0  0  0  0  0  0  0  0  0  0  0  0
  161.3260  207.1910  151.3630 C   0  0  0  0  0  0  0  0  0  0  0  0
  161.1890  207.3120  152.7800 C   0  0  0  0  0  0  0  0  0  0  0  0
  161.5860  204.9420  146.6040 O   0  0  0  0  0  0  0  0  0  0  0  0
  161.3960  204.0410  147.4650 C   0  0  0  0  0  0  0  0  0  0  0  0
  161.1100  208.6000  154.8450 C   0  0  0  0  0  0  0  0  0  0  0  0
  161.5410  208.2880  150.4750 C   0  0  0  0  0  0  0  0  0  0  0  0
  161.9660  210.4000  148.6490 C   0  0  0  0  0  3  0  0  0  0  0  0
  161.2520  208.5380  153.4610 C   0  0  0  0  0  3  0  0  0  0  0  0
  161.3710  205.7010  149.4130 C   0  0  0  0  0  0  0  0  0  0  0  0
  161.9420  211.9410  150.4630 F   0  0  0  0  0  0  0  0  0  0  0  0
  160.9090  204.9300  152.9670 N   0  0  0  0  0  0  0  0  0  0  0  0
  161.1790  209.9070  155.5480 C   0  0  0  0  0  1  0  0  0  0  0  0
  161.5740  206.7740  148.6060 N   0  0  0  0  0  0  0  0  0  0  0  0
  161.2440  205.8880  150.8000 C   0  0  0  0  0  0  0  0  0  0  0  0
  161.2860  204.3800  148.8550 N   0  0  0  0  0  2  0  0  0  0  0  0
  161.6400  209.6210  150.9130 C   0  0  0  0  0  3  0  0  0  0  0  0
  160.9060  207.4240  155.5620 C   0  0  0  0  0  3  0  0  0  0  0  0
  161.6610  208.0370  149.0850 C   0  0  0  0  0  0  0  0  0  0  0  0
  161.8710  209.0880  148.1870 C   0  0  0  0  0  3  0  0  0  0  0  0
  161.0340  204.7810  151.6270 C   0  0  0  0  0  3  0  0  0  0  0  0
  160.9790  206.1460  153.5590 C   0  0  0  0  0  0  0  0  0  0  0  0
  160.8450  206.2340  154.9100 N   0  0  0  0  0  0  0  0  0  0  0  0
  161.0540  199.9570  146.1890 C   0  0  0  0  0  0  0  0  0  0  0  0
  160.9480  202.3270  145.7210 C   0  0  0  0  0  3  0  0  0  0  0  0
  161.8350  201.7870  149.2480 F   0  0  0  0  0  0  0  0  0  0  0  0
  160.9320  198.5480  145.7320 C   0  0  0  0  0  1  0  0  0  0  0  0
  160.8330  201.0030  145.2910 C   0  0  0  0  0  3  0  0  0  0  0  0
  161.5070  201.5590  147.9520 C   0  0  0  0  0  0  0  0  0  0  0  0
  161.2850  202.6240  147.0510 C   0  0  0  0  0  0  0  0  0  0  0  0
  161.3900  200.2350  147.5150 C   0  0  0  0  0  3  0  0  0  0  0  0
  1 11  1  0  0  0  0
  1 17  1  0  0  0  0
  2  3  2  0  0  0  0
  3  9  1  0  0  0  0
  3 22  1  0  0  0  0
  4  5  2  0  0  0  0
  5 16  1  0  0  0  0
  6 13  1  0  0  0  0
  6 18  1  0  0  0  0
  7 17  2  0  0  0  0
  7  2  1  0  0  0  0
  8  1  2  0  0  0  0
  9  6  2  0  0  0  0
 10 15  1  0  0  0  0
 12 22  2  0  0  0  0
 14 19  1  0  0  0  0
 14 10  2  0  0  0  0
 15  2  1  0  0  0  0
 15 21  2  0  0  0  0
 16 10  1  0  0  0  0
 19  7  1  0  0  0  0
 20  8  1  0  0  0  0
 20 19  2  0  0  0  0
 21 12  1  0  0  0  0
 22 23  1  0  0  0  0
 23 18  2  0  0  0  0
 24 31  1  0  0  0  0
 25 30  2  0  0  0  0
 27 24  1  0  0  0  0
 28 25  1  0  0  0  0
 28 24  2  0  0  0  0
 29 26  1  0  0  0  0
 30  5  1  0  0  0  0
 30 29  1  0  0  0  0
 31 29  2  0  0  0  0
M  END
>  <MODEL>
6

>  <REMARK>
 VINA RESULT:      -8.7      2.857      9.154
  Name = 
  1 active torsions:
  status: ('A' for Active; 'I' for Inactive)
    1  A    between atoms: C_9  and  C_22
                            x       y       z     vdW  Elec       q    Type
                         _______ _______ _______ _____ _____    ______ ____

>  <TORSDO>
F 1

$$$$
