=
 OpenBabel11052423113D

 27 32  0  0  1  0  0  0  0  0999 V2000
  160.3090  208.3650  153.6730 C   0  0  0  0  0  2  0  0  0  0  0  0
  161.0680  210.5090  152.4750 C   0  0  0  0  0  0  0  0  0  0  0  0
  162.1740  209.1600  150.6680 C   0  0  2  0  0  3  0  0  0  0  0  0
  159.9770  213.7540  149.8580 C   0  0  0  0  0  3  0  0  0  0  0  0
  161.3890  213.6070  147.7850 C   0  0  0  0  0  3  0  0  0  0  0  0
  160.2950  211.5400  152.8200 C   0  0  0  0  0  3  0  0  0  0  0  0
  162.0470  211.5340  149.0590 C   0  0  0  0  0  3  0  0  0  0  0  0
  162.2120  207.2390  149.1300 C   0  0  0  0  0  3  0  0  0  0  0  0
  162.0990  212.5010  147.9590 C   0  0  0  0  0  3  0  0  0  0  0  0
  162.2700  206.0500  149.8060 C   0  0  0  0  0  3  0  0  0  0  0  0
  161.3610  211.5340  150.2080 C   0  0  0  0  0  0  0  0  0  0  0  0
  161.4050  209.4350  153.5050 C   0  0  1  0  0  3  0  0  0  0  0  0
  160.3600  214.1680  148.6570 C   0  0  0  0  0  3  0  0  0  0  0  0
  160.4510  212.6240  150.6660 C   0  0  0  0  0  0  0  0  0  0  0  0
  160.8020  206.9590  153.2700 C   0  0  0  0  0  2  0  0  0  0  0  0
  161.5390  210.4110  151.1040 N   0  0  0  0  0  0  0  0  0  0  0  0
  161.4990  208.4710  149.6750 C   0  0  1  0  0  3  0  0  0  0  0  0
  159.9770  212.5710  151.8770 N   0  0  0  0  0  0  0  0  0  0  0  0
  161.7060  205.8520  151.1960 C   0  0  0  0  0  3  0  0  0  0  0  0
  161.1570  206.8990  151.8150 C   0  0  0  0  0  0  0  0  0  0  0  0
  161.2440  208.0720  151.0700 N   0  0  0  0  0  0  0  0  0  0  0  0
  162.7620  210.9560  157.2610 C   0  0  0  0  0  3  0  0  0  0  0  0
  161.8750  209.9810  154.8180 C   0  0  0  0  0  0  0  0  0  0  0  0
  161.0540  209.8660  155.9440 C   0  0  0  0  0  3  0  0  0  0  0  0
  161.5030  210.3590  157.1700 C   0  0  0  0  0  3  0  0  0  0  0  0
  163.5570  211.0490  156.1160 C   0  0  0  0  0  3  0  0  0  0  0  0
  163.1020  210.5620  154.9290 N   0  0  0  0  0  0  0  0  0  0  0  0
  2  6  2  0  0  0  0
  2 12  1  0  0  0  0
  3 21  1  1  0  0  0
  3 16  1  0  0  0  0
  4 14  1  0  0  0  0
  5  9  2  0  0  0  0
  5 13  1  0  0  0  0
  7 11  2  0  0  0  0
  8 10  2  0  0  0  0
  9  7  1  0  0  0  0
 10 19  1  0  0  0  0
 11 14  1  0  0  0  0
 11 16  1  0  0  0  0
 12  1  1  0  0  0  0
 12 23  1  1  0  0  0
 13  4  2  0  0  0  0
 14 18  2  0  0  0  0
 15  1  1  0  0  0  0
 16  2  1  0  0  0  0
 17  8  1  6  0  0  0
 17  3  1  0  0  0  0
 17 21  1  0  0  0  0
 18  6  1  0  0  0  0
 19 20  2  0  0  0  0
 20 15  1  0  0  0  0
 21 20  1  0  0  0  0
 23 27  2  0  0  0  0
 23 24  1  0  0  0  0
 24 25  2  0  0  0  0
 25 22  1  0  0  0  0
 26 22  2  0  0  0  0
 27 26  1  0  0  0  0
M  END
>  <MODEL>
1

>  <REMARK>
 VINA RESULT:      -5.6      0.000      0.000
  Name = 
  1 active torsions:
  status: ('A' for Active; 'I' for Inactive)
    1  A    between atoms: C_9  and  C_15
                            x       y       z     vdW  Elec       q    Type
                         _______ _______ _______ _____ _____    ______ ____

>  <TORSDO>
F 1

$$$$
=
 OpenBabel11052423113D

 27 32  0  0  1  0  0  0  0  0999 V2000
  162.3450  210.4130  149.9890 C   0  0  0  0  0  2  0  0  0  0  0  0
  161.2710  210.0920  152.3030 C   0  0  0  0  0  0  0  0  0  0  0  0
  160.4800  207.7940  151.6650 C   0  0  2  0  0  3  0  0  0  0  0  0
  161.8810  209.1000  156.4520 C   0  0  0  0  0  3  0  0  0  0  0  0
  160.5900  207.0050  156.9630 C   0  0  0  0  0  3  0  0  0  0  0  0
  161.8430  210.8940  153.2030 C   0  0  0  0  0  3  0  0  0  0  0  0
  160.2540  207.2790  154.4800 C   0  0  0  0  0  3  0  0  0  0  0  0
  160.8280  205.6260  150.5530 C   0  0  0  0  0  3  0  0  0  0  0  0
  160.0760  206.6530  155.7930 C   0  0  0  0  0  3  0  0  0  0  0  0
  160.9520  205.7670  149.1970 C   0  0  0  0  0  3  0  0  0  0  0  0
  160.8880  208.3990  154.1100 C   0  0  0  0  0  0  0  0  0  0  0  0
  161.0880  210.5710  150.8660 C   0  0  1  0  0  3  0  0  0  0  0  0
  161.4760  208.1280  157.2600 C   0  0  0  0  0  3  0  0  0  0  0  0
  161.5800  209.3410  155.0360 C   0  0  0  0  0  0  0  0  0  0  0  0
  162.1170  209.4370  148.8150 C   0  0  0  0  0  2  0  0  0  0  0  0
  160.8740  208.7530  152.7060 N   0  0  0  0  0  0  0  0  0  0  0  0
  161.2990  206.6850  151.5440 C   0  0  1  0  0  3  0  0  0  0  0  0
  162.0120  210.4740  154.5620 N   0  0  0  0  0  0  0  0  0  0  0  0
  161.4910  207.0140  148.5320 C   0  0  0  0  0  3  0  0  0  0  0  0
  161.8300  208.0500  149.3040 C   0  0  0  0  0  0  0  0  0  0  0  0
  161.5680  207.8260  150.6530 N   0  0  0  0  0  0  0  0  0  0  0  0
  159.3340  214.4530  150.5310 C   0  0  0  0  0  3  0  0  0  0  0  0
  160.4840  211.9370  150.7570 C   0  0  0  0  0  0  0  0  0  0  0  0
  160.8300  212.7570  149.6790 C   0  0  0  0  0  3  0  0  0  0  0  0
  160.2510  214.0220  149.5700 C   0  0  0  0  0  3  0  0  0  0  0  0
  159.0080  213.6050  151.5920 C   0  0  0  0  0  3  0  0  0  0  0  0
  159.5830  212.3750  151.6810 N   0  0  0  0  0  0  0  0  0  0  0  0
  1 12  1  0  0  0  0
  2 16  1  0  0  0  0
  2  6  2  0  0  0  0
  3 21  1  6  0  0  0
  3 16  1  0  0  0  0
  4 13  2  0  0  0  0
  5 13  1  0  0  0  0
  6 18  1  0  0  0  0
  7  9  1  0  0  0  0
  9  5  2  0  0  0  0
 10  8  2  0  0  0  0
 11  7  2  0  0  0  0
 11 14  1  0  0  0  0
 12 23  1  1  0  0  0
 12  2  1  0  0  0  0
 14  4  1  0  0  0  0
 15 20  1  0  0  0  0
 15  1  1  0  0  0  0
 16 11  1  0  0  0  0
 17  8  1  6  0  0  0
 17  3  1  0  0  0  0
 18 14  2  0  0  0  0
 19 10  1  0  0  0  0
 19 20  2  0  0  0  0
 20 21  1  0  0  0  0
 21 17  1  0  0  0  0
 22 26  1  0  0  0  0
 23 27  1  0  0  0  0
 24 23  2  0  0  0  0
 25 24  1  0  0  0  0
 25 22  2  0  0  0  0
 26 27  2  0  0  0  0
M  END
>  <MODEL>
2

>  <REMARK>
 VINA RESULT:      -5.5      1.383      5.845
  Name = 
  1 active torsions:
  status: ('A' for Active; 'I' for Inactive)
    1  A    between atoms: C_9  and  C_15
                            x       y       z     vdW  Elec       q    Type
                         _______ _______ _______ _____ _____    ______ ____

>  <TORSDO>
F 1

$$$$
=
 OpenBabel11052423113D

 27 32  0  0  1  0  0  0  0  0999 V2000
  161.5870  209.5040  154.7800 C   0  0  0  0  0  2  0  0  0  0  0  0
  160.6350  210.3000  152.5280 C   0  0  0  0  0  0  0  0  0  0  0  0
  158.6970  211.4010  153.6860 C   0  0  2  0  0  3  0  0  0  0  0  0
  160.8350  213.2140  149.3590 C   0  0  0  0  0  3  0  0  0  0  0  0
  158.6480  214.4490  149.2800 C   0  0  0  0  0  3  0  0  0  0  0  0
  161.5970  210.3590  151.6050 C   0  0  0  0  0  3  0  0  0  0  0  0
  158.3800  212.9620  151.2980 C   0  0  0  0  0  3  0  0  0  0  0  0
  157.7600  212.7140  155.5450 C   0  0  0  0  0  3  0  0  0  0  0  0
  157.9640  213.9510  150.3000 C   0  0  0  0  0  3  0  0  0  0  0  0
  157.8670  212.0510  156.7380 C   0  0  0  0  0  3  0  0  0  0  0  0
  159.4970  212.2320  151.4110 C   0  0  0  0  0  0  0  0  0  0  0  0
  160.6630  209.2000  153.5850 C   0  0  1  0  0  3  0  0  0  0  0  0
  160.0140  214.1340  148.8690 C   0  0  0  0  0  3  0  0  0  0  0  0
  160.6360  212.2510  150.4490 C   0  0  0  0  0  0  0  0  0  0  0  0
  160.8050  209.6130  156.1070 C   0  0  0  0  0  2  0  0  0  0  0  0
  159.6010  211.3210  152.5310 N   0  0  0  0  0  0  0  0  0  0  0  0
  158.7800  212.5710  154.4210 C   0  0  1  0  0  3  0  0  0  0  0  0
  161.5850  211.3720  150.5910 N   0  0  0  0  0  0  0  0  0  0  0  0
  158.9570  211.0470  157.0400 C   0  0  0  0  0  3  0  0  0  0  0  0
  159.8420  210.7610  156.0820 C   0  0  0  0  0  0  0  0  0  0  0  0
  159.5740  211.4210  154.8860 N   0  0  0  0  0  0  0  0  0  0  0  0
  161.2600  205.2820  151.9890 C   0  0  0  0  0  3  0  0  0  0  0  0
  160.8870  207.8300  153.0250 C   0  0  0  0  0  0  0  0  0  0  0  0
  161.0570  206.7500  153.8970 C   0  0  0  0  0  3  0  0  0  0  0  0
  161.2460  205.4710  153.3720 C   0  0  0  0  0  3  0  0  0  0  0  0
  161.0820  206.3830  151.1480 C   0  0  0  0  0  3  0  0  0  0  0  0
  160.8980  207.6220  151.6780 N   0  0  0  0  0  0  0  0  0  0  0  0
  1 15  1  0  0  0  0
  2 16  1  0  0  0  0
  2 12  1  0  0  0  0
  3 16  1  6  0  0  0
  3 17  1  0  0  0  0
  3 21  1  0  0  0  0
  4 14  1  0  0  0  0
  5  9  2  0  0  0  0
  6  2  2  0  0  0  0
  7 11  2  0  0  0  0
  8 10  2  0  0  0  0
  9  7  1  0  0  0  0
 10 19  1  0  0  0  0
 11 16  1  0  0  0  0
 12 23  1  6  0  0  0
 12  1  1  0  0  0  0
 13  5  1  0  0  0  0
 13  4  2  0  0  0  0
 14 18  2  0  0  0  0
 14 11  1  0  0  0  0
 17 21  1  0  0  0  0
 17  8  1  1  0  0  0
 18  6  1  0  0  0  0
 20 15  1  0  0  0  0
 20 19  2  0  0  0  0
 21 20  1  0  0  0  0
 22 25  1  0  0  0  0
 23 24  1  0  0  0  0
 25 24  2  0  0  0  0
 26 27  1  0  0  0  0
 26 22  2  0  0  0  0
 27 23  2  0  0  0  0
M  END
>  <MODEL>
3

>  <REMARK>
 VINA RESULT:      -5.4      1.792      5.089
  Name = 
  1 active torsions:
  status: ('A' for Active; 'I' for Inactive)
    1  A    between atoms: C_9  and  C_15
                            x       y       z     vdW  Elec       q    Type
                         _______ _______ _______ _____ _____    ______ ____

>  <TORSDO>
F 1

$$$$
=
 OpenBabel11052423113D

 27 32  0  0  1  0  0  0  0  0999 V2000
  162.0290  207.6310  153.7430 C   0  0  0  0  0  2  0  0  0  0  0  0
  161.3130  208.9900  151.6820 C   0  0  0  0  0  0  0  0  0  0  0  0
  159.7040  210.3300  153.0700 C   0  0  2  0  0  3  0  0  0  0  0  0
  162.2420  212.2400  149.0090 C   0  0  0  0  0  3  0  0  0  0  0  0
  160.4300  213.9700  149.2060 C   0  0  0  0  0  3  0  0  0  0  0  0
  162.2620  208.9600  150.7450 C   0  0  0  0  0  3  0  0  0  0  0  0
  159.7940  212.2880  150.9730 C   0  0  0  0  0  3  0  0  0  0  0  0
  159.1160  211.5140  155.1460 C   0  0  0  0  0  3  0  0  0  0  0  0
  159.6400  213.4970  150.1600 C   0  0  0  0  0  3  0  0  0  0  0  0
  159.0500  210.6600  156.2150 C   0  0  0  0  0  3  0  0  0  0  0  0
  160.6940  211.2980  150.9270 C   0  0  0  0  0  0  0  0  0  0  0  0
  161.0630  207.7600  152.5500 C   0  0  1  0  0  3  0  0  0  0  0  0
  161.6770  213.4010  148.7010 C   0  0  0  0  0  3  0  0  0  0  0  0
  161.8060  211.1910  149.9390 C   0  0  0  0  0  0  0  0  0  0  0  0
  161.2940  207.7110  155.0980 C   0  0  0  0  0  2  0  0  0  0  0  0
  160.5640  210.2200  151.8840 N   0  0  0  0  0  0  0  0  0  0  0  0
  160.0720  211.3090  153.9770 C   0  0  1  0  0  3  0  0  0  0  0  0
  162.5060  210.0950  149.9060 N   0  0  0  0  0  0  0  0  0  0  0  0
  159.8560  209.3840  156.3150 C   0  0  0  0  0  3  0  0  0  0  0  0
  160.6450  209.0490  155.2910 C   0  0  0  0  0  0  0  0  0  0  0  0
  160.5540  209.9400  154.2250 N   0  0  0  0  0  0  0  0  0  0  0  0
  160.6760  204.1220  150.3430 C   0  0  0  0  0  3  0  0  0  0  0  0
  160.9410  206.4870  151.7730 C   0  0  0  0  0  0  0  0  0  0  0  0
  161.1660  205.2650  152.4150 C   0  0  0  0  0  3  0  0  0  0  0  0
  161.0330  204.0790  151.6930 C   0  0  0  0  0  3  0  0  0  0  0  0
  160.4540  205.3600  149.7360 C   0  0  0  0  0  3  0  0  0  0  0  0
  160.5880  206.5060  150.4570 N   0  0  0  0  0  0  0  0  0  0  0  0
  1 15  1  0  0  0  0
  2 16  1  0  0  0  0
  2 12  1  0  0  0  0
  3 16  1  6  0  0  0
  3 17  1  0  0  0  0
  3 21  1  0  0  0  0
  4 14  1  0  0  0  0
  5  9  2  0  0  0  0
  6  2  2  0  0  0  0
  8 10  2  0  0  0  0
  9  7  1  0  0  0  0
 10 19  1  0  0  0  0
 11  7  2  0  0  0  0
 11 16  1  0  0  0  0
 12 23  1  6  0  0  0
 12  1  1  0  0  0  0
 13  4  2  0  0  0  0
 13  5  1  0  0  0  0
 14 11  1  0  0  0  0
 15 20  1  0  0  0  0
 17 21  1  0  0  0  0
 17  8  1  1  0  0  0
 18 14  2  0  0  0  0
 18  6  1  0  0  0  0
 20 19  2  0  0  0  0
 21 20  1  0  0  0  0
 22 25  1  0  0  0  0
 23 24  1  0  0  0  0
 25 24  2  0  0  0  0
 26 22  2  0  0  0  0
 26 27  1  0  0  0  0
 27 23  2  0  0  0  0
M  END
>  <MODEL>
4

>  <REMARK>
 VINA RESULT:      -5.4      1.713      5.052
  Name = 
  1 active torsions:
  status: ('A' for Active; 'I' for Inactive)
    1  A    between atoms: C_9  and  C_15
                            x       y       z     vdW  Elec       q    Type
                         _______ _______ _______ _____ _____    ______ ____

>  <TORSDO>
F 1

$$$$
=
 OpenBabel11052423113D

 27 32  0  0  1  0  0  0  0  0999 V2000
  162.3980  207.0140  152.4320 C   0  0  0  0  0  2  0  0  0  0  0  0
  161.3620  208.8790  150.9970 C   0  0  0  0  0  0  0  0  0  0  0  0
  159.9220  209.6180  152.9180 C   0  0  2  0  0  3  0  0  0  0  0  0
  161.8120  212.8420  149.3650 C   0  0  0  0  0  3  0  0  0  0  0  0
  159.9940  214.2970  150.3090 C   0  0  0  0  0  3  0  0  0  0  0  0
  162.1720  209.2010  149.9870 C   0  0  0  0  0  3  0  0  0  0  0  0
  159.6600  212.1190  151.5330 C   0  0  0  0  0  3  0  0  0  0  0  0
  159.5920  210.0740  155.3140 C   0  0  0  0  0  3  0  0  0  0  0  0
  159.3580  213.5030  151.1590 C   0  0  0  0  0  3  0  0  0  0  0  0
  159.7020  208.9340  156.0650 C   0  0  0  0  0  3  0  0  0  0  0  0
  160.5750  211.2560  151.0740 C   0  0  0  0  0  0  0  0  0  0  0  0
  161.2720  207.4290  151.4660 C   0  0  1  0  0  3  0  0  0  0  0  0
  161.1750  213.9980  149.5030 C   0  0  0  0  0  3  0  0  0  0  0  0
  161.5410  211.5330  149.9720 C   0  0  0  0  0  0  0  0  0  0  0  0
  161.8570  206.6290  153.8260 C   0  0  0  0  0  2  0  0  0  0  0  0
  160.6120  209.9320  151.6590 N   0  0  0  0  0  0  0  0  0  0  0  0
  160.3830  210.3000  154.0300 C   0  0  1  0  0  3  0  0  0  0  0  0
  162.2630  210.5510  149.5160 N   0  0  0  0  0  0  0  0  0  0  0  0
  160.5520  207.7490  155.6660 C   0  0  0  0  0  3  0  0  0  0  0  0
  161.2010  207.7960  154.5010 C   0  0  0  0  0  0  0  0  0  0  0  0
  160.9360  208.9580  153.7820 N   0  0  0  0  0  0  0  0  0  0  0  0
  160.6900  204.6160  148.3030 C   0  0  0  0  0  3  0  0  0  0  0  0
  161.0830  206.4450  150.3540 C   0  0  0  0  0  0  0  0  0  0  0  0
  161.2080  205.0780  150.6180 C   0  0  0  0  0  3  0  0  0  0  0  0
  161.0120  204.1610  149.5840 C   0  0  0  0  0  3  0  0  0  0  0  0
  160.5680  205.9890  148.0780 C   0  0  0  0  0  3  0  0  0  0  0  0
  160.7630  206.8670  149.0990 N   0  0  0  0  0  0  0  0  0  0  0  0
  1 15  1  0  0  0  0
  2 12  1  0  0  0  0
  2 16  1  0  0  0  0
  3 16  1  6  0  0  0
  3 21  1  0  0  0  0
  3 17  1  0  0  0  0
  4 13  2  0  0  0  0
  4 14  1  0  0  0  0
  5  9  2  0  0  0  0
  6  2  2  0  0  0  0
  8 10  2  0  0  0  0
  9  7  1  0  0  0  0
 11  7  2  0  0  0  0
 11 16  1  0  0  0  0
 12 23  1  6  0  0  0
 12  1  1  0  0  0  0
 13  5  1  0  0  0  0
 14 11  1  0  0  0  0
 15 20  1  0  0  0  0
 17  8  1  1  0  0  0
 18 14  2  0  0  0  0
 18  6  1  0  0  0  0
 19 10  1  0  0  0  0
 20 19  2  0  0  0  0
 21 17  1  0  0  0  0
 21 20  1  0  0  0  0
 22 25  1  0  0  0  0
 23 24  1  0  0  0  0
 25 24  2  0  0  0  0
 26 22  2  0  0  0  0
 26 27  1  0  0  0  0
 27 23  2  0  0  0  0
M  END
>  <MODEL>
5

>  <REMARK>
 VINA RESULT:      -5.0      1.844      5.254
  Name = 
  1 active torsions:
  status: ('A' for Active; 'I' for Inactive)
    1  A    between atoms: C_9  and  C_15
                            x       y       z     vdW  Elec       q    Type
                         _______ _______ _______ _____ _____    ______ ____

>  <TORSDO>
F 1

$$$$
=
 OpenBabel11052423113D

 27 32  0  0  1  0  0  0  0  0999 V2000
  160.8130  212.9540  150.7340 C   0  0  0  0  0  2  0  0  0  0  0  0
  160.0770  211.5650  152.7680 C   0  0  0  0  0  0  0  0  0  0  0  0
  160.7370  209.4360  151.6090 C   0  0  2  0  0  3  0  0  0  0  0  0
  161.0810  210.1320  156.7060 C   0  0  0  0  0  3  0  0  0  0  0  0
  161.1980  207.6230  156.6290 C   0  0  0  0  0  3  0  0  0  0  0  0
  160.0800  212.3120  153.8740 C   0  0  0  0  0  3  0  0  0  0  0  0
  160.8020  208.2400  154.2170 C   0  0  0  0  0  3  0  0  0  0  0  0
  162.2690  208.1470  150.1780 C   0  0  0  0  0  3  0  0  0  0  0  0
  160.9910  207.3320  155.3530 C   0  0  0  0  0  3  0  0  0  0  0  0
  162.3110  208.6460  148.9030 C   0  0  0  0  0  3  0  0  0  0  0  0
  160.6950  209.5730  154.1560 C   0  0  0  0  0  0  0  0  0  0  0  0
  159.6750  212.1860  151.4340 C   0  0  1  0  0  3  0  0  0  0  0  0
  161.2860  208.9410  157.2530 C   0  0  0  0  0  3  0  0  0  0  0  0
  160.7170  210.4920  155.3310 C   0  0  0  0  0  0  0  0  0  0  0  0
  161.1950  212.3200  149.3790 C   0  0  0  0  0  2  0  0  0  0  0  0
  160.5030  210.1780  152.8550 N   0  0  0  0  0  0  0  0  0  0  0  0
  162.0420  209.0230  151.4050 C   0  0  1  0  0  3  0  0  0  0  0  0
  160.4380  211.7490  155.1420 N   0  0  0  0  0  0  0  0  0  0  0  0
  162.0580  210.0980  148.5650 C   0  0  0  0  0  3  0  0  0  0  0  0
  161.7380  210.9350  149.5560 C   0  0  0  0  0  0  0  0  0  0  0  0
  161.6300  210.2950  150.7880 N   0  0  0  0  0  0  0  0  0  0  0  0
  156.0290  214.4080  151.5980 C   0  0  0  0  0  3  0  0  0  0  0  0
  158.4060  212.9770  151.4930 C   0  0  0  0  0  0  0  0  0  0  0  0
  157.8390  213.4590  150.3090 C   0  0  0  0  0  3  0  0  0  0  0  0
  156.6450  214.1790  150.3660 C   0  0  0  0  0  3  0  0  0  0  0  0
  156.6210  213.9080  152.7600 C   0  0  0  0  0  3  0  0  0  0  0  0
  157.7850  213.2080  152.6840 N   0  0  0  0  0  0  0  0  0  0  0  0
  1 12  1  0  0  0  0
  2 16  1  0  0  0  0
  2  6  2  0  0  0  0
  3 21  1  6  0  0  0
  3 16  1  0  0  0  0
  4 13  2  0  0  0  0
  5 13  1  0  0  0  0
  6 18  1  0  0  0  0
  7  9  1  0  0  0  0
  9  5  2  0  0  0  0
 10  8  2  0  0  0  0
 11  7  2  0  0  0  0
 11 14  1  0  0  0  0
 12 23  1  1  0  0  0
 12  2  1  0  0  0  0
 14  4  1  0  0  0  0
 15 20  1  0  0  0  0
 15  1  1  0  0  0  0
 16 11  1  0  0  0  0
 17  8  1  6  0  0  0
 17  3  1  0  0  0  0
 18 14  2  0  0  0  0
 19 10  1  0  0  0  0
 19 20  2  0  0  0  0
 20 21  1  0  0  0  0
 21 17  1  0  0  0  0
 22 26  1  0  0  0  0
 23 27  1  0  0  0  0
 24 25  1  0  0  0  0
 24 23  2  0  0  0  0
 25 22  2  0  0  0  0
 27 26  2  0  0  0  0
M  END
>  <MODEL>
6

>  <REMARK>
 VINA RESULT:      -4.6      1.978      6.057
  Name = 
  1 active torsions:
  status: ('A' for Active; 'I' for Inactive)
    1  A    between atoms: C_9  and  C_15
                            x       y       z     vdW  Elec       q    Type
                         _______ _______ _______ _____ _____    ______ ____

>  <TORSDO>
F 1

$$$$
=
 OpenBabel11052423113D

 27 32  0  0  1  0  0  0  0  0999 V2000
  162.3860  209.6950  152.7810 C   0  0  0  0  0  2  0  0  0  0  0  0
  161.1580  207.4430  152.6040 C   0  0  0  0  0  0  0  0  0  0  0  0
  160.8710  207.7450  150.1270 C   0  0  2  0  0  3  0  0  0  0  0  0
  161.5110  203.1540  152.3850 C   0  0  0  0  0  3  0  0  0  0  0  0
  160.5810  202.3950  150.1780 C   0  0  0  0  0  3  0  0  0  0  0  0
  161.4780  206.6510  153.6290 C   0  0  0  0  0  3  0  0  0  0  0  0
  160.4560  204.9070  150.0050 C   0  0  0  0  0  3  0  0  0  0  0  0
  161.7220  208.4520  147.9290 C   0  0  0  0  0  3  0  0  0  0  0  0
  160.2620  203.5240  149.5600 C   0  0  0  0  0  3  0  0  0  0  0  0
  161.9560  209.8000  147.8860 C   0  0  0  0  0  3  0  0  0  0  0  0
  160.9080  205.4120  151.1590 C   0  0  0  0  0  0  0  0  0  0  0  0
  161.0380  208.9490  152.8180 C   0  0  1  0  0  3  0  0  0  0  0  0
  161.2100  202.2260  151.4850 C   0  0  0  0  0  3  0  0  0  0  0  0
  161.3170  204.6090  152.3470 C   0  0  0  0  0  0  0  0  0  0  0  0
  162.4610  210.7040  151.6150 C   0  0  0  0  0  2  0  0  0  0  0  0
  160.9730  206.8520  151.2890 N   0  0  0  0  0  0  0  0  0  0  0  0
  161.8870  207.6200  149.1960 C   0  0  1  0  0  3  0  0  0  0  0  0
  161.5810  205.2320  153.4590 N   0  0  0  0  0  0  0  0  0  0  0  0
  162.3230  210.6230  149.1010 C   0  0  0  0  0  3  0  0  0  0  0  0
  162.3850  210.0120  150.2870 C   0  0  0  0  0  0  0  0  0  0  0  0
  162.0320  208.6670  150.2200 N   0  0  0  0  0  0  0  0  0  0  0  0
  158.6400  210.0030  156.1930 C   0  0  0  0  0  3  0  0  0  0  0  0
  160.2090  209.3270  154.0050 C   0  0  0  0  0  0  0  0  0  0  0  0
  159.3360  210.4160  153.9170 C   0  0  0  0  0  3  0  0  0  0  0  0
  158.5510  210.7540  155.0190 C   0  0  0  0  0  3  0  0  0  0  0  0
  159.5200  208.9190  156.2440 C   0  0  0  0  0  3  0  0  0  0  0  0
  160.2770  208.6050  155.1590 N   0  0  0  0  0  0  0  0  0  0  0  0
  1 12  1  0  0  0  0
  2 12  1  0  0  0  0
  2  6  2  0  0  0  0
  3 21  1  1  0  0  0
  3 16  1  0  0  0  0
  5 13  1  0  0  0  0
  7 11  2  0  0  0  0
  9  7  1  0  0  0  0
  9  5  2  0  0  0  0
 10  8  2  0  0  0  0
 10 19  1  0  0  0  0
 11 16  1  0  0  0  0
 11 14  1  0  0  0  0
 12 23  1  1  0  0  0
 13  4  2  0  0  0  0
 14  4  1  0  0  0  0
 14 18  2  0  0  0  0
 15  1  1  0  0  0  0
 16  2  1  0  0  0  0
 17  8  1  6  0  0  0
 17  3  1  0  0  0  0
 17 21  1  0  0  0  0
 18  6  1  0  0  0  0
 19 20  2  0  0  0  0
 20 15  1  0  0  0  0
 21 20  1  0  0  0  0
 22 26  1  0  0  0  0
 23 27  1  0  0  0  0
 24 23  2  0  0  0  0
 24 25  1  0  0  0  0
 25 22  2  0  0  0  0
 27 26  2  0  0  0  0
M  END
>  <MODEL>
7

>  <REMARK>
 VINA RESULT:      -4.1      2.440      5.852
  Name = 
  1 active torsions:
  status: ('A' for Active; 'I' for Inactive)
    1  A    between atoms: C_9  and  C_15
                            x       y       z     vdW  Elec       q    Type
                         _______ _______ _______ _____ _____    ______ ____

>  <TORSDO>
F 1

$$$$
=
 OpenBabel11052423113D

 27 32  0  0  1  0  0  0  0  0999 V2000
  160.9980  212.8560  149.8920 C   0  0  0  0  0  2  0  0  0  0  0  0
  159.3120  212.9050  151.8330 C   0  0  0  0  0  0  0  0  0  0  0  0
  159.8380  210.5170  152.4080 C   0  0  2  0  0  3  0  0  0  0  0  0
  158.5420  214.0740  155.9080 C   0  0  0  0  0  3  0  0  0  0  0  0
  158.1130  211.9990  157.2590 C   0  0  0  0  0  3  0  0  0  0  0  0
  159.1000  214.1580  152.2400 C   0  0  0  0  0  3  0  0  0  0  0  0
  158.7260  211.0770  154.9940 C   0  0  0  0  0  3  0  0  0  0  0  0
  161.4410  208.6700  152.6880 C   0  0  0  0  0  3  0  0  0  0  0  0
  158.3020  211.0110  156.3960 C   0  0  0  0  0  3  0  0  0  0  0  0
  162.0320  208.3280  151.5020 C   0  0  0  0  0  3  0  0  0  0  0  0
  158.9480  212.1180  154.1830 C   0  0  0  0  0  0  0  0  0  0  0  0
  159.5470  212.6170  150.3530 C   0  0  1  0  0  3  0  0  0  0  0  0
  158.2730  213.4340  157.0390 C   0  0  0  0  0  3  0  0  0  0  0  0
  158.7670  213.5520  154.5550 C   0  0  0  0  0  0  0  0  0  0  0  0
  161.6740  211.5580  149.4000 C   0  0  0  0  0  2  0  0  0  0  0  0
  159.3590  211.8430  152.8230 N   0  0  0  0  0  0  0  0  0  0  0  0
  161.0050  210.0930  153.0190 C   0  0  1  0  0  3  0  0  0  0  0  0
  158.8600  214.4530  153.6210 N   0  0  0  0  0  0  0  0  0  0  0  0
  162.2430  209.3010  150.3630 C   0  0  0  0  0  3  0  0  0  0  0  0
  161.7970  210.5510  150.5040 C   0  0  0  0  0  0  0  0  0  0  0  0
  161.1280  210.7530  151.7090 N   0  0  0  0  0  0  0  0  0  0  0  0
  156.6840  214.4220  147.7450 C   0  0  0  0  0  3  0  0  0  0  0  0
  158.5470  213.2630  149.4450 C   0  0  0  0  0  0  0  0  0  0  0  0
  158.9420  213.6740  148.1690 C   0  0  0  0  0  3  0  0  0  0  0  0
  158.0030  214.2580  147.3180 C   0  0  0  0  0  3  0  0  0  0  0  0
  156.3240  213.9950  149.0260 C   0  0  0  0  0  3  0  0  0  0  0  0
  157.2540  213.4280  149.8410 N   0  0  0  0  0  0  0  0  0  0  0  0
  1 12  1  0  0  0  0
  2  6  2  0  0  0  0
  2 16  1  0  0  0  0
  3 21  1  6  0  0  0
  3 16  1  0  0  0  0
  3 17  1  0  0  0  0
  4 13  2  0  0  0  0
  6 18  1  0  0  0  0
  7  9  1  0  0  0  0
  9  5  2  0  0  0  0
 10  8  2  0  0  0  0
 11 14  1  0  0  0  0
 11  7  2  0  0  0  0
 12 23  1  6  0  0  0
 12  2  1  0  0  0  0
 13  5  1  0  0  0  0
 14  4  1  0  0  0  0
 15  1  1  0  0  0  0
 15 20  1  0  0  0  0
 16 11  1  0  0  0  0
 17  8  1  6  0  0  0
 18 14  2  0  0  0  0
 19 20  2  0  0  0  0
 19 10  1  0  0  0  0
 20 21  1  0  0  0  0
 21 17  1  0  0  0  0
 22 26  1  0  0  0  0
 23 27  1  0  0  0  0
 24 23  2  0  0  0  0
 25 22  2  0  0  0  0
 25 24  1  0  0  0  0
 26 27  2  0  0  0  0
M  END
>  <MODEL>
8

>  <REMARK>
 VINA RESULT:      -3.8      2.463      6.612
  Name = 
  1 active torsions:
  status: ('A' for Active; 'I' for Inactive)
    1  A    between atoms: C_9  and  C_15
                            x       y       z     vdW  Elec       q    Type
                         _______ _______ _______ _____ _____    ______ ____

>  <TORSDO>
F 1

$$$$
=
 OpenBabel11052423113D

 27 32  0  0  1  0  0  0  0  0999 V2000
  159.0450  213.2210  137.7550 C   0  0  0  0  0  2  0  0  0  0  0  0
  158.5070  212.8230  140.2370 C   0  0  0  0  0  0  0  0  0  0  0  0
  160.6610  211.5680  140.5480 C   0  0  2  0  0  3  0  0  0  0  0  0
  158.4850  214.4530  144.2270 C   0  0  0  0  0  3  0  0  0  0  0  0
  160.0390  213.0830  145.6490 C   0  0  0  0  0  3  0  0  0  0  0  0
  157.6420  213.7350  140.6840 C   0  0  0  0  0  3  0  0  0  0  0  0
  160.3590  212.0900  143.3550 C   0  0  0  0  0  3  0  0  0  0  0  0
  163.0660  211.2760  140.1170 C   0  0  0  0  0  3  0  0  0  0  0  0
  160.5640  212.2110  144.8010 C   0  0  0  0  0  3  0  0  0  0  0  0
  163.3160  211.0230  138.7940 C   0  0  0  0  0  3  0  0  0  0  0  0
  159.5410  212.7410  142.5180 C   0  0  0  0  0  0  0  0  0  0  0  0
  158.3920  212.3030  138.8070 C   0  0  1  0  0  3  0  0  0  0  0  0
  159.0980  214.1650  145.3670 C   0  0  0  0  0  3  0  0  0  0  0  0
  158.5630  213.7950  142.9170 C   0  0  0  0  0  0  0  0  0  0  0  0
  160.2200  212.5310  137.0300 C   0  0  0  0  0  2  0  0  0  0  0  0
  159.5730  212.3750  141.1180 N   0  0  0  0  0  0  0  0  0  0  0  0
  161.9140  212.1540  140.5910 C   0  0  1  0  0  3  0  0  0  0  0  0
  157.7170  214.2270  142.0280 N   0  0  0  0  0  0  0  0  0  0  0  0
  162.4360  211.5180  137.6690 C   0  0  0  0  0  3  0  0  0  0  0  0
  161.3340  212.2050  137.9780 C   0  0  0  0  0  0  0  0  0  0  0  0
  161.1340  212.3130  139.3520 N   0  0  0  0  0  0  0  0  0  0  0  0
  154.4180  211.1480  137.7440 C   0  0  0  0  0  3  0  0  0  0  0  0
  157.0050  211.8910  138.4230 C   0  0  0  0  0  0  0  0  0  0  0  0
  156.4700  210.7090  138.9420 C   0  0  0  0  0  3  0  0  0  0  0  0
  155.1700  210.3380  138.5980 C   0  0  0  0  0  3  0  0  0  0  0  0
  154.9830  212.3250  137.2480 C   0  0  0  0  0  3  0  0  0  0  0  0
  156.2520  212.6710  137.5960 N   0  0  0  0  0  0  0  0  0  0  0  0
  1 12  1  0  0  0  0
  2  6  2  0  0  0  0
  2 16  1  0  0  0  0
  3 21  1  6  0  0  0
  3 17  1  0  0  0  0
  3 16  1  0  0  0  0
  4 13  2  0  0  0  0
  6 18  1  0  0  0  0
  7  9  1  0  0  0  0
  9  5  2  0  0  0  0
 10  8  2  0  0  0  0
 11 14  1  0  0  0  0
 11  7  2  0  0  0  0
 12 23  1  6  0  0  0
 12  2  1  0  0  0  0
 13  5  1  0  0  0  0
 14  4  1  0  0  0  0
 15  1  1  0  0  0  0
 15 20  1  0  0  0  0
 16 11  1  0  0  0  0
 17  8  1  6  0  0  0
 18 14  2  0  0  0  0
 19 20  2  0  0  0  0
 19 10  1  0  0  0  0
 20 21  1  0  0  0  0
 21 17  1  0  0  0  0
 22 25  1  0  0  0  0
 23 24  1  0  0  0  0
 25 24  2  0  0  0  0
 26 27  1  0  0  0  0
 26 22  2  0  0  0  0
 27 23  2  0  0  0  0
M  END
>  <MODEL>
9

>  <REMARK>
 VINA RESULT:      -3.8      9.200     13.387
  Name = 
  1 active torsions:
  status: ('A' for Active; 'I' for Inactive)
    1  A    between atoms: C_9  and  C_15
                            x       y       z     vdW  Elec       q    Type
                         _______ _______ _______ _____ _____    ______ ____

>  <TORSDO>
F 1

$$$$
