=
 OpenBabel11062410573D

 32 37  0  0  1  0  0  0  0  0999 V2000
  161.1220  208.1190  153.3500 C   0  0  2  0  0  3  0  0  0  0  0  0
  160.4440  212.3700  153.8080 C   0  0  1  0  0  3  0  0  0  0  0  0
  158.0810  212.7590  156.7890 C   0  0  0  0  0  2  0  0  0  0  0  0
  156.1820  213.0190  154.4480 C   0  0  0  0  0  1  0  0  0  0  0  0
  160.1700  213.2780  151.4300 C   0  0  0  0  0  0  0  0  0  0  0  0
  159.1840  213.2490  150.3030 C   0  0  0  0  0  0  0  0  0  0  0  0
  160.1110  210.2860  152.3410 C   0  0  0  0  0  2  0  0  0  0  0  0
  160.0000  210.9090  155.5520 O   0  0  0  0  0  0  0  0  0  0  0  0
  158.4590  213.3310  148.1880 C   0  0  0  0  0  0  0  0  0  0  0  0
  160.6310  208.7850  154.6430 C   0  0  0  0  0  2  0  0  0  0  0  0
  158.4330  214.0260  156.0120 C   0  0  0  0  0  2  0  0  0  0  0  0
  159.9390  212.2280  155.1880 N   0  0  2  0  0  0  0  0  0  0  0  0
  158.5460  212.6660  155.3490 C   0  0  0  0  0  0  0  0  0  0  0  0
  158.0910  212.6120  152.8990 C   0  0  0  0  0  0  0  0  0  0  0  0
  158.5240  213.5480  146.7190 C   0  0  0  0  0  1  0  0  0  0  0  0
  160.6830  208.9170  152.1490 C   0  0  0  0  0  0  0  0  0  0  0  0
  160.9510  210.2880  154.7260 C   0  0  1  0  0  3  0  0  0  0  0  0
  159.5170  213.5130  149.0130 N   0  0  0  0  0  0  0  0  0  0  0  0
  160.8270  208.4740  151.0210 O   0  0  0  0  0  0  0  0  0  0  0  0
  157.2710  210.9130  154.3270 O   0  0  0  0  0  1  0  0  0  0  0  0
  157.5130  212.2870  154.2560 C   0  0  2  0  0  0  0  0  0  0  0  0
  157.3350  212.4830  151.7970 C   0  0  0  0  0  3  0  0  0  0  0  0
  160.9580  211.0130  153.3910 C   0  0  2  0  0  3  0  0  0  0  0  0
  160.9200  214.4530  151.3810 O   0  0  0  0  0  1  0  0  0  0  0  0
  157.0820  212.8140  149.0160 S   0  0  0  0  0  0  0  0  0  0  0  0
  159.5210  213.1360  152.8290 C   0  0  0  0  0  0  0  0  0  0  0  0
  157.8810  212.8340  150.4930 C   0  0  0  0  0  0  0  0  0  0  0  0
  160.5730  206.7020  153.2750 C   0  0  0  0  0  2  0  0  0  0  0  0
  161.6830  205.7220  152.9330 C   0  0  0  0  0  2  0  0  0  0  0  0
  161.1820  204.6850  151.9830 C   0  0  0  0  0  0  0  0  0  0  0  0
  160.8590  203.5810  152.3890 O   0  0  0  0  0  0  0  0  0  0  0  0
  161.0510  205.0100  150.5350 C   0  0  0  0  0  1  0  0  0  0  0  0
  1 28  1  6  0  0  0
  1 10  1  0  0  0  0
  2 26  1  6  0  0  0
  2 12  1  0  0  0  0
  5 26  1  0  0  0  0
  6 27  1  0  0  0  0
  6  5  2  0  0  0  0
  9 18  2  0  0  0  0
  9 25  1  0  0  0  0
 11  3  1  0  0  0  0
 12 13  1  0  0  0  0
 12  8  1  6  0  0  0
 13 11  1  0  0  0  0
 13  3  1  0  0  0  0
 14 21  1  0  0  0  0
 15  9  1  0  0  0  0
 16  7  1  0  0  0  0
 16  1  1  0  0  0  0
 17 10  1  6  0  0  0
 17  8  1  0  0  0  0
 18  6  1  0  0  0  0
 19 16  2  0  0  0  0
 21 20  1  0  0  0  0
 21  4  1  1  0  0  0
 21 13  1  0  0  0  0
 22 14  1  0  0  0  0
 23  7  1  6  0  0  0
 23  2  1  0  0  0  0
 23 17  1  0  0  0  0
 24  5  1  0  0  0  0
 25 27  1  0  0  0  0
 26 14  2  0  0  0  0
 27 22  2  0  0  0  0
 29 28  1  0  0  0  0
 30 31  2  0  0  0  0
 30 29  1  0  0  0  0
 32 30  1  0  0  0  0
M  END
>  <MODEL>
1

>  <REMARK>
 VINA RESULT:      -4.0      0.000      0.000
  Name = 
  3 active torsions:
  status: ('A' for Active; 'I' for Inactive)
    1  A    between atoms: C_1  and  C_10
    2  A    between atoms: C_2  and  C_24
    3  A    between atoms: C_10  and  C_24
                            x       y       z     vdW  Elec       q    Type
                         _______ _______ _______ _____ _____    ______ ____

>  <TORSDO>
F 3

$$$$
