=
 OpenBabel11062407503D

 34 37  0  0  1  0  0  0  0  0999 V2000
  161.2440  210.1730  150.8650 C   0  0  2  0  0  3  0  0  0  0  0  0
  163.2300  206.9220  151.0020 O   0  0  0  0  0  1  0  0  0  0  0  0
  161.7140  208.6880  149.0360 O   0  0  0  0  0  1  0  0  0  0  0  0
  162.1630  207.8010  151.2050 C   0  0  2  0  0  0  0  0  0  0  0  0
  161.4830  210.3910  152.3050 N   0  0  0  0  0  0  0  0  0  0  0  0
  161.7340  207.9070  152.6560 C   0  0  1  0  0  3  0  0  0  0  0  0
  161.0150  209.2030  153.0490 C   0  0  1  0  0  3  0  0  0  0  0  0
  160.8500  207.1740  151.6430 C   0  0  2  0  0  3  0  0  0  0  0  0
  162.1240  209.0440  150.3240 C   0  0  2  0  0  3  0  0  0  0  0  0
  162.5080  210.0430  156.5970 C   0  0  1  0  0  3  0  0  0  0  0  0
  161.1510  210.2340  157.2600 C   0  0  0  0  0  2  0  0  0  0  0  0
  161.1760  209.3730  154.5380 C   0  0  0  0  0  0  0  0  0  0  0  0
  160.2380  209.0910  156.8370 C   0  0  0  0  0  2  0  0  0  0  0  0
  162.3710  210.1330  155.0770 C   0  0  0  0  0  2  0  0  0  0  0  0
  160.1770  208.9650  155.3390 C   0  0  0  0  0  3  0  0  0  0  0  0
  163.6340  211.2960  157.1640 Cl  0  0  0  0  0  0  0  0  0  0  0  0
  161.5360  211.4090  150.0560 C   0  0  0  0  0  0  0  0  0  0  0  0
  159.7900  214.4530  150.8120 C   0  0  0  0  0  1  0  0  0  0  0  0
  160.6280  212.3460  149.9770 C   0  0  0  0  0  0  0  0  0  0  0  0
  159.7230  213.2810  149.9000 C   0  0  0  0  0  3  0  0  0  0  0  0
  162.8580  212.0860  148.1850 O   0  0  0  0  0  1  0  0  0  0  0  0
  162.7650  211.5400  149.4050 O   0  0  0  0  0  0  0  0  0  0  0  0
  160.9550  205.6730  151.8740 C   0  0  0  0  0  2  0  0  0  0  0  0
  160.2500  204.9610  150.8200 N   0  0  0  0  0  2  0  0  0  0  0  0
  160.1460  202.0630  149.5810 C   0  0  0  0  0  2  0  0  0  0  0  0
  161.2490  204.3060  149.9870 C   0  0  1  0  0  3  0  0  0  0  0  0
  161.2790  202.8000  150.2840 C   0  0  0  0  0  2  0  0  0  0  0  0
  161.1830  202.4470  147.2920 C   0  0  0  0  0  3  0  0  0  0  0  0
  161.8280  203.7760  147.5940 C   0  0  0  0  0  2  0  0  0  0  0  0
  160.9800  204.6380  148.5170 C   0  0  0  0  0  2  0  0  0  0  0  0
  160.4950  201.6880  148.1640 C   0  0  0  0  0  3  0  0  0  0  0  0
  160.6330  211.5150  152.7220 C   0  0  0  0  0  2  0  0  0  0  0  0
  158.3190  211.7590  153.5220 C   0  0  0  0  0  2  0  0  0  0  0  0
  159.1970  211.0970  152.7740 C   0  0  0  0  0  3  0  0  0  0  0  0
  1 17  1  6  0  0  0
  1  5  1  0  0  0  0
  3  9  1  0  0  0  0
  4  2  1  6  0  0  0
  4  8  1  0  0  0  0
  4  6  1  0  0  0  0
  5 32  1  0  0  0  0
  5  7  1  0  0  0  0
  6  7  1  0  0  0  0
  7 12  1  0  0  0  0
  8 23  1  0  0  0  0
  8  6  1  0  0  0  0
  9  1  1  0  0  0  0
  9  4  1  0  0  0  0
 10 16  1  0  0  0  0
 10 11  1  0  0  0  0
 12 14  1  0  0  0  0
 12 15  2  0  0  0  0
 13 11  1  0  0  0  0
 14 10  1  0  0  0  0
 15 13  1  0  0  0  0
 19 17  2  0  0  0  0
 20 19  2  0  0  0  0
 20 18  1  0  0  0  0
 21 22  1  0  0  0  0
 22 17  1  0  0  0  0
 24 23  1  0  0  0  0
 25 27  1  0  0  0  0
 26 27  1  0  0  0  0
 26 24  1  0  0  0  0
 28 29  1  0  0  0  0
 28 31  2  0  0  0  0
 29 30  1  0  0  0  0
 30 26  1  0  0  0  0
 31 25  1  0  0  0  0
 32 34  1  0  0  0  0
 34 33  2  0  0  0  0
M  END
>  <MODEL>
1

>  <REMARK>
 VINA RESULT:      -6.6      0.000      0.000
  Name = 
  8 active torsions:
  status: ('A' for Active; 'I' for Inactive)
    1  A    between atoms: C_2  and  C_4
    2  A    between atoms: C_2  and  O_25
    3  A    between atoms: N_3  and  C_13
    4  A    between atoms: N_3  and  C_17
    5  A    between atoms: C_12  and  C_28
    6  A    between atoms: C_17  and  C_29
    7  A    between atoms: N_21  and  C_32
    8  A    between atoms: C_24  and  C_32
                            x       y       z     vdW  Elec       q    Type
                         _______ _______ _______ _____ _____    ______ ____

>  <TORSDO>
F 8

$$$$
=
 OpenBabel11062407503D

 34 37  0  0  1  0  0  0  0  0999 V2000
  160.1500  212.0200  150.4860 C   0  0  2  0  0  3  0  0  0  0  0  0
  163.1840  210.1670  151.8610 O   0  0  0  0  0  1  0  0  0  0  0  0
  161.8620  210.9100  149.2190 O   0  0  0  0  0  1  0  0  0  0  0  0
  161.8440  210.4150  151.5530 C   0  0  2  0  0  0  0  0  0  0  0  0
  159.7270  212.3650  151.8580 N   0  0  0  0  0  0  0  0  0  0  0  0
  160.9220  210.3340  152.7540 C   0  0  1  0  0  3  0  0  0  0  0  0
  159.6100  211.1200  152.6460 C   0  0  1  0  0  3  0  0  0  0  0  0
  160.8950  209.2350  151.6880 C   0  0  2  0  0  3  0  0  0  0  0  0
  161.5720  211.4540  150.4730 C   0  0  2  0  0  3  0  0  0  0  0  0
  157.2920  211.6460  155.7880 C   0  0  1  0  0  3  0  0  0  0  0  0
  158.3680  211.2760  156.7990 C   0  0  0  0  0  2  0  0  0  0  0  0
  159.1280  211.3860  154.0490 C   0  0  0  0  0  0  0  0  0  0  0  0
  159.6600  211.9850  156.4160 C   0  0  0  0  0  2  0  0  0  0  0  0
  157.6750  211.1370  154.3980 C   0  0  0  0  0  2  0  0  0  0  0  0
  160.0370  211.7020  154.9870 C   0  0  0  0  0  3  0  0  0  0  0  0
  155.7400  210.9280  156.2740 Cl  0  0  0  0  0  0  0  0  0  0  0  0
  160.1250  213.2180  149.5760 C   0  0  0  0  0  0  0  0  0  0  0  0
  156.9950  214.3100  148.1970 C   0  0  0  0  0  1  0  0  0  0  0  0
  159.1480  213.3430  148.7150 C   0  0  0  0  0  0  0  0  0  0  0  0
  158.1730  213.4680  147.8600 C   0  0  0  0  0  3  0  0  0  0  0  0
  162.0200  214.3540  148.6670 O   0  0  0  0  0  1  0  0  0  0  0  0
  161.1380  214.1770  149.6600 O   0  0  0  0  0  0  0  0  0  0  0  0
  161.5720  207.9860  152.2330 C   0  0  0  0  0  2  0  0  0  0  0  0
  160.7740  206.8130  151.9140 N   0  0  0  0  0  2  0  0  0  0  0  0
  160.7980  203.6830  151.5290 C   0  0  0  0  0  2  0  0  0  0  0  0
  161.5050  206.0380  150.9230 C   0  0  1  0  0  3  0  0  0  0  0  0
  161.9400  204.6920  151.5200 C   0  0  0  0  0  2  0  0  0  0  0  0
  160.8260  203.4790  148.9950 C   0  0  0  0  0  3  0  0  0  0  0  0
  161.2590  204.8920  148.6940 C   0  0  0  0  0  2  0  0  0  0  0  0
  160.6560  205.9040  149.6570 C   0  0  0  0  0  2  0  0  0  0  0  0
  160.6690  202.9460  150.2210 C   0  0  0  0  0  3  0  0  0  0  0  0
  158.3770  212.9370  151.7660 C   0  0  0  0  0  2  0  0  0  0  0  0
  158.0140  214.4420  153.6790 C   0  0  0  0  0  2  0  0  0  0  0  0
  158.3360  214.2930  152.3970 C   0  0  0  0  0  3  0  0  0  0  0  0
  1 17  1  6  0  0  0
  1  5  1  0  0  0  0
  3  9  1  0  0  0  0
  4  8  1  0  0  0  0
  4  2  1  1  0  0  0
  4  6  1  0  0  0  0
  5  7  1  0  0  0  0
  7  6  1  0  0  0  0
  7 12  1  0  0  0  0
  8 23  1  0  0  0  0
  8  6  1  0  0  0  0
  9  1  1  0  0  0  0
  9  4  1  0  0  0  0
 10 16  1  0  0  0  0
 10 11  1  0  0  0  0
 12 14  1  0  0  0  0
 12 15  2  0  0  0  0
 13 11  1  0  0  0  0
 14 10  1  0  0  0  0
 15 13  1  0  0  0  0
 17 22  1  0  0  0  0
 19 17  2  0  0  0  0
 20 18  1  0  0  0  0
 20 19  2  0  0  0  0
 21 22  1  0  0  0  0
 24 23  1  0  0  0  0
 26 27  1  0  0  0  0
 26 24  1  0  0  0  0
 27 25  1  0  0  0  0
 28 31  2  0  0  0  0
 29 28  1  0  0  0  0
 29 30  1  0  0  0  0
 30 26  1  0  0  0  0
 31 25  1  0  0  0  0
 32  5  1  0  0  0  0
 32 34  1  0  0  0  0
 34 33  2  0  0  0  0
M  END
>  <MODEL>
2

>  <REMARK>
 VINA RESULT:      -6.1      2.308      3.095
  Name = 
  8 active torsions:
  status: ('A' for Active; 'I' for Inactive)
    1  A    between atoms: C_2  and  C_4
    2  A    between atoms: C_2  and  O_25
    3  A    between atoms: N_3  and  C_13
    4  A    between atoms: N_3  and  C_17
    5  A    between atoms: C_12  and  C_28
    6  A    between atoms: C_17  and  C_29
    7  A    between atoms: N_21  and  C_32
    8  A    between atoms: C_24  and  C_32
                            x       y       z     vdW  Elec       q    Type
                         _______ _______ _______ _____ _____    ______ ____

>  <TORSDO>
F 8

$$$$
=
 OpenBabel11062407503D

 34 37  0  0  1  0  0  0  0  0999 V2000
  160.9780  210.8130  150.5810 C   0  0  2  0  0  3  0  0  0  0  0  0
  163.1960  207.7490  150.1130 O   0  0  0  0  0  1  0  0  0  0  0  0
  161.4610  209.6790  148.5200 O   0  0  0  0  0  1  0  0  0  0  0  0
  162.0810  208.4970  150.4970 C   0  0  2  0  0  0  0  0  0  0  0  0
  161.2730  210.8180  152.0280 N   0  0  0  0  0  0  0  0  0  0  0  0
  161.7190  208.3370  151.9610 C   0  0  1  0  0  3  0  0  0  0  0  0
  160.9300  209.4930  152.5870 C   0  0  1  0  0  3  0  0  0  0  0  0
  160.8400  207.7070  150.8780 C   0  0  2  0  0  3  0  0  0  0  0  0
  161.9080  209.8570  149.8310 C   0  0  2  0  0  3  0  0  0  0  0  0
  160.6470  208.5310  156.3970 C   0  0  1  0  0  3  0  0  0  0  0  0
  162.0690  208.9520  156.7370 C   0  0  0  0  0  2  0  0  0  0  0  0
  161.1540  209.4370  154.0760 C   0  0  0  0  0  0  0  0  0  0  0  0
  162.3430  210.3060  156.0950 C   0  0  0  0  0  2  0  0  0  0  0  0
  160.5000  208.3380  154.8880 C   0  0  0  0  0  2  0  0  0  0  0  0
  162.0450  210.2830  154.6200 C   0  0  0  0  0  3  0  0  0  0  0  0
  160.2570  207.0100  157.2290 Cl  0  0  0  0  0  0  0  0  0  0  0  0
  161.1390  212.1800  149.9730 C   0  0  0  0  0  0  0  0  0  0  0  0
  162.7460  212.5030  146.7790 C   0  0  0  0  0  1  0  0  0  0  0  0
  162.0940  212.3810  149.1030 C   0  0  0  0  0  0  0  0  0  0  0  0
  163.0440  212.5790  148.2330 C   0  0  0  0  0  3  0  0  0  0  0  0
  159.1180  213.4240  149.6960 O   0  0  0  0  0  1  0  0  0  0  0  0
  160.2730  213.2130  150.3430 O   0  0  0  0  0  0  0  0  0  0  0  0
  161.0640  206.2020  150.8580 C   0  0  0  0  0  2  0  0  0  0  0  0
  160.5220  205.6380  149.6310 N   0  0  0  0  0  2  0  0  0  0  0  0
  160.2070  202.5750  150.3090 C   0  0  0  0  0  2  0  0  0  0  0  0
  161.3880  204.5380  149.2320 C   0  0  1  0  0  3  0  0  0  0  0  0
  161.4360  203.4750  150.3380 C   0  0  0  0  0  2  0  0  0  0  0  0
  160.9290  201.4900  148.1270 C   0  0  0  0  0  3  0  0  0  0  0  0
  161.6280  202.6890  147.5390 C   0  0  0  0  0  2  0  0  0  0  0  0
  160.9270  203.9970  147.8770 C   0  0  0  0  0  2  0  0  0  0  0  0
  160.3540  201.4290  149.3420 C   0  0  0  0  0  3  0  0  0  0  0  0
  160.3670  211.7900  152.6530 C   0  0  0  0  0  2  0  0  0  0  0  0
  158.0810  211.7700  153.5630 C   0  0  0  0  0  2  0  0  0  0  0  0
  158.9800  211.2370  152.7400 C   0  0  0  0  0  3  0  0  0  0  0  0
  1 17  1  6  0  0  0
  1  5  1  0  0  0  0
  3  9  1  0  0  0  0
  4  2  1  6  0  0  0
  4  8  1  0  0  0  0
  4  6  1  0  0  0  0
  5  7  1  0  0  0  0
  5 32  1  0  0  0  0
  6  7  1  0  0  0  0
  7 12  1  0  0  0  0
  8  6  1  0  0  0  0
  9  4  1  0  0  0  0
  9  1  1  0  0  0  0
 10 11  1  0  0  0  0
 10 16  1  0  0  0  0
 12 15  2  0  0  0  0
 12 14  1  0  0  0  0
 13 11  1  0  0  0  0
 14 10  1  0  0  0  0
 15 13  1  0  0  0  0
 17 22  1  0  0  0  0
 18 20  1  0  0  0  0
 19 17  2  0  0  0  0
 20 19  2  0  0  0  0
 21 22  1  0  0  0  0
 23  8  1  0  0  0  0
 24 23  1  0  0  0  0
 25 27  1  0  0  0  0
 26 24  1  0  0  0  0
 26 27  1  0  0  0  0
 28 31  2  0  0  0  0
 29 30  1  0  0  0  0
 29 28  1  0  0  0  0
 30 26  1  0  0  0  0
 31 25  1  0  0  0  0
 32 34  1  0  0  0  0
 34 33  2  0  0  0  0
M  END
>  <MODEL>
3

>  <REMARK>
 VINA RESULT:      -5.7      1.691      2.103
  Name = 
  8 active torsions:
  status: ('A' for Active; 'I' for Inactive)
    1  A    between atoms: C_2  and  C_4
    2  A    between atoms: C_2  and  O_25
    3  A    between atoms: N_3  and  C_13
    4  A    between atoms: N_3  and  C_17
    5  A    between atoms: C_12  and  C_28
    6  A    between atoms: C_17  and  C_29
    7  A    between atoms: N_21  and  C_32
    8  A    between atoms: C_24  and  C_32
                            x       y       z     vdW  Elec       q    Type
                         _______ _______ _______ _____ _____    ______ ____

>  <TORSDO>
F 8

$$$$
=
 OpenBabel11062407503D

 34 37  0  0  1  0  0  0  0  0999 V2000
  161.2130  208.7560  150.9810 C   0  0  2  0  0  3  0  0  0  0  0  0
  163.5800  207.9820  148.0960 O   0  0  0  0  0  1  0  0  0  0  0  0
  161.9650  210.2760  149.2810 O   0  0  0  0  0  1  0  0  0  0  0  0
  162.4030  207.9710  148.8470 C   0  0  2  0  0  0  0  0  0  0  0  0
  161.3450  207.3700  151.4740 N   0  0  0  0  0  0  0  0  0  0  0  0
  161.8850  206.5760  149.1430 C   0  0  1  0  0  3  0  0  0  0  0  0
  160.9900  206.4420  150.3790 C   0  0  1  0  0  3  0  0  0  0  0  0
  161.1560  207.4700  148.1360 C   0  0  2  0  0  3  0  0  0  0  0  0
  162.2560  209.0600  149.9030 C   0  0  2  0  0  3  0  0  0  0  0  0
  160.3220  202.5700  150.6750 C   0  0  1  0  0  3  0  0  0  0  0  0
  161.6780  202.2580  151.2910 C   0  0  0  0  0  2  0  0  0  0  0  0
  161.0470  205.0030  150.8220 C   0  0  0  0  0  0  0  0  0  0  0  0
  161.9640  203.2800  152.3830 C   0  0  0  0  0  2  0  0  0  0  0  0
  160.3540  203.9390  149.9960 C   0  0  0  0  0  2  0  0  0  0  0  0
  161.8350  204.6870  151.8640 C   0  0  0  0  0  3  0  0  0  0  0  0
  159.9060  201.3250  149.4770 Cl  0  0  0  0  0  0  0  0  0  0  0  0
  161.3920  209.7610  152.0880 C   0  0  0  0  0  0  0  0  0  0  0  0
  158.4910  211.1150  153.7130 C   0  0  0  0  0  1  0  0  0  0  0  0
  160.4190  210.5940  152.3530 C   0  0  0  0  0  0  0  0  0  0  0  0
  159.4490  211.4220  152.6190 C   0  0  0  0  0  3  0  0  0  0  0  0
  162.6510  210.3510  154.0300 O   0  0  0  0  0  1  0  0  0  0  0  0
  162.5850  209.7910  152.8140 O   0  0  0  0  0  0  0  0  0  0  0  0
  161.4360  206.9740  146.7240 C   0  0  0  0  0  2  0  0  0  0  0  0
  160.2290  206.3920  146.1580 N   0  0  0  0  0  2  0  0  0  0  0  0
  161.5220  203.6090  146.8860 C   0  0  0  0  0  2  0  0  0  0  0  0
  160.6370  205.3290  145.2510 C   0  0  1  0  0  3  0  0  0  0  0  0
  161.8810  204.6150  145.7990 C   0  0  0  0  0  2  0  0  0  0  0  0
  160.3830  202.0640  145.2200 C   0  0  0  0  0  3  0  0  0  0  0  0
  159.8890  203.1300  144.2760 C   0  0  0  0  0  2  0  0  0  0  0  0
  159.4510  204.3940  145.0010 C   0  0  0  0  0  2  0  0  0  0  0  0
  161.1260  202.2690  146.3230 C   0  0  0  0  0  3  0  0  0  0  0  0
  160.3390  207.1860  152.5290 C   0  0  0  0  0  2  0  0  0  0  0  0
  160.4200  207.3820  154.9800 C   0  0  0  0  0  2  0  0  0  0  0  0
  161.0000  206.9750  153.8540 C   0  0  0  0  0  3  0  0  0  0  0  0
  1  5  1  0  0  0  0
  1 17  1  1  0  0  0
  3  9  1  0  0  0  0
  4  2  1  6  0  0  0
  4  6  1  0  0  0  0
  4  9  1  0  0  0  0
  5 32  1  0  0  0  0
  6  7  1  0  0  0  0
  7 12  1  0  0  0  0
  7  5  1  0  0  0  0
  8  4  1  0  0  0  0
  8  6  1  0  0  0  0
  9  1  1  0  0  0  0
 10 11  1  0  0  0  0
 11 13  1  0  0  0  0
 12 15  2  0  0  0  0
 14 10  1  0  0  0  0
 14 12  1  0  0  0  0
 15 13  1  0  0  0  0
 16 10  1  0  0  0  0
 17 19  2  0  0  0  0
 17 22  1  0  0  0  0
 19 20  2  0  0  0  0
 20 18  1  0  0  0  0
 22 21  1  0  0  0  0
 23  8  1  0  0  0  0
 24 23  1  0  0  0  0
 26 27  1  0  0  0  0
 26 24  1  0  0  0  0
 27 25  1  0  0  0  0
 28 31  2  0  0  0  0
 29 30  1  0  0  0  0
 29 28  1  0  0  0  0
 30 26  1  0  0  0  0
 31 25  1  0  0  0  0
 32 34  1  0  0  0  0
 34 33  2  0  0  0  0
M  END
>  <MODEL>
4

>  <REMARK>
 VINA RESULT:      -5.5      3.151      5.275
  Name = 
  8 active torsions:
  status: ('A' for Active; 'I' for Inactive)
    1  A    between atoms: C_2  and  C_4
    2  A    between atoms: C_2  and  O_25
    3  A    between atoms: N_3  and  C_13
    4  A    between atoms: N_3  and  C_17
    5  A    between atoms: C_12  and  C_28
    6  A    between atoms: C_17  and  C_29
    7  A    between atoms: N_21  and  C_32
    8  A    between atoms: C_24  and  C_32
                            x       y       z     vdW  Elec       q    Type
                         _______ _______ _______ _____ _____    ______ ____

>  <TORSDO>
F 8

$$$$
=
 OpenBabel11062407503D

 34 37  0  0  1  0  0  0  0  0999 V2000
  161.0270  210.7410  150.5760 C   0  0  2  0  0  3  0  0  0  0  0  0
  163.1980  207.6710  149.9510 O   0  0  0  0  0  1  0  0  0  0  0  0
  161.5180  209.7250  148.4560 O   0  0  0  0  0  1  0  0  0  0  0  0
  162.0910  208.4150  150.3660 C   0  0  2  0  0  0  0  0  0  0  0  0
  161.3030  210.6530  152.0240 N   0  0  0  0  0  0  0  0  0  0  0  0
  161.7060  208.1740  151.8130 C   0  0  1  0  0  3  0  0  0  0  0  0
  160.9300  209.3040  152.4970 C   0  0  1  0  0  3  0  0  0  0  0  0
  160.8310  207.6260  150.6820 C   0  0  2  0  0  3  0  0  0  0  0  0
  161.9510  209.8150  149.7810 C   0  0  2  0  0  3  0  0  0  0  0  0
  162.2500  209.7810  156.1790 C   0  0  1  0  0  3  0  0  0  0  0  0
  160.9900  209.2320  156.8340 C   0  0  0  0  0  2  0  0  0  0  0  0
  161.1320  209.1530  153.9830 C   0  0  0  0  0  0  0  0  0  0  0  0
  160.5790  207.9590  156.1070 C   0  0  0  0  0  2  0  0  0  0  0  0
  161.9620  210.1770  154.7300 C   0  0  0  0  0  2  0  0  0  0  0  0
  160.4490  208.1900  154.6260 C   0  0  0  0  0  3  0  0  0  0  0  0
  162.8230  211.2030  157.0780 Cl  0  0  0  0  0  0  0  0  0  0  0  0
  161.2210  212.1390  150.0540 C   0  0  0  0  0  0  0  0  0  0  0  0
  162.6820  212.6160  146.8100 C   0  0  0  0  0  1  0  0  0  0  0  0
  162.1400  212.3600  149.1510 C   0  0  0  0  0  0  0  0  0  0  0  0
  163.0540  212.5780  148.2480 C   0  0  0  0  0  3  0  0  0  0  0  0
  159.2390  213.4720  149.9770 O   0  0  0  0  0  1  0  0  0  0  0  0
  160.4210  213.1790  150.5370 O   0  0  0  0  0  0  0  0  0  0  0  0
  161.0290  206.1200  150.5740 C   0  0  0  0  0  2  0  0  0  0  0  0
  160.3500  205.6170  149.3910 N   0  0  0  0  0  2  0  0  0  0  0  0
  161.0380  203.1060  147.6120 C   0  0  0  0  0  2  0  0  0  0  0  0
  161.3370  205.5170  148.3250 C   0  0  1  0  0  3  0  0  0  0  0  0
  161.9510  204.1100  148.3040 C   0  0  0  0  0  2  0  0  0  0  0  0
  161.4180  204.1770  145.3380 C   0  0  0  0  0  3  0  0  0  0  0  0
  161.5970  205.5940  145.8220 C   0  0  0  0  0  2  0  0  0  0  0  0
  160.6930  205.9270  146.9980 C   0  0  0  0  0  2  0  0  0  0  0  0
  161.2200  203.0970  146.1170 C   0  0  0  0  0  3  0  0  0  0  0  0
  160.4060  211.6020  152.6960 C   0  0  0  0  0  2  0  0  0  0  0  0
  158.1490  211.4540  153.6640 C   0  0  0  0  0  2  0  0  0  0  0  0
  159.0050  211.0760  152.7190 C   0  0  0  0  0  3  0  0  0  0  0  0
  1 17  1  6  0  0  0
  1  5  1  0  0  0  0
  3  9  1  0  0  0  0
  4  2  1  6  0  0  0
  4  8  1  0  0  0  0
  4  6  1  0  0  0  0
  5  7  1  0  0  0  0
  5 32  1  0  0  0  0
  6  7  1  0  0  0  0
  7 12  1  0  0  0  0
  8  6  1  0  0  0  0
  9  4  1  0  0  0  0
  9  1  1  0  0  0  0
 10 11  1  0  0  0  0
 10 16  1  0  0  0  0
 12 15  2  0  0  0  0
 12 14  1  0  0  0  0
 13 11  1  0  0  0  0
 14 10  1  0  0  0  0
 15 13  1  0  0  0  0
 17 22  1  0  0  0  0
 18 20  1  0  0  0  0
 19 17  2  0  0  0  0
 20 19  2  0  0  0  0
 21 22  1  0  0  0  0
 23  8  1  0  0  0  0
 24 23  1  0  0  0  0
 25 27  1  0  0  0  0
 26 24  1  0  0  0  0
 27 26  1  0  0  0  0
 28 29  1  0  0  0  0
 28 31  2  0  0  0  0
 29 30  1  0  0  0  0
 30 26  1  0  0  0  0
 31 25  1  0  0  0  0
 32 34  1  0  0  0  0
 34 33  2  0  0  0  0
M  END
>  <MODEL>
5

>  <REMARK>
 VINA RESULT:      -5.2      1.587      1.971
  Name = 
  8 active torsions:
  status: ('A' for Active; 'I' for Inactive)
    1  A    between atoms: C_2  and  C_4
    2  A    between atoms: C_2  and  O_25
    3  A    between atoms: N_3  and  C_13
    4  A    between atoms: N_3  and  C_17
    5  A    between atoms: C_12  and  C_28
    6  A    between atoms: C_17  and  C_29
    7  A    between atoms: N_21  and  C_32
    8  A    between atoms: C_24  and  C_32
                            x       y       z     vdW  Elec       q    Type
                         _______ _______ _______ _____ _____    ______ ____

>  <TORSDO>
F 8

$$$$
=
 OpenBabel11062407503D

 34 37  0  0  1  0  0  0  0  0999 V2000
  159.5050  212.0640  154.6200 C   0  0  2  0  0  3  0  0  0  0  0  0
  159.9740  208.6720  152.9460 O   0  0  0  0  0  1  0  0  0  0  0  0
  160.3790  210.0650  155.6240 O   0  0  0  0  0  1  0  0  0  0  0  0
  160.2120  210.0160  153.2450 C   0  0  2  0  0  0  0  0  0  0  0  0
  158.9390  212.6130  153.3720 N   0  0  0  0  0  0  0  0  0  0  0  0
  160.2260  210.9150  152.0230 C   0  0  1  0  0  3  0  0  0  0  0  0
  159.9060  212.3930  152.2750 C   0  0  1  0  0  3  0  0  0  0  0  0
  161.5310  210.5910  152.7550 C   0  0  2  0  0  3  0  0  0  0  0  0
  159.6230  210.5400  154.5490 C   0  0  2  0  0  3  0  0  0  0  0  0
  159.7820  214.2580  148.8070 C   0  0  1  0  0  3  0  0  0  0  0  0
  158.5770  213.4840  148.2930 C   0  0  0  0  0  2  0  0  0  0  0  0
  159.4220  212.9770  150.9730 C   0  0  0  0  0  0  0  0  0  0  0  0
  157.5320  213.4190  149.3990 C   0  0  0  0  0  2  0  0  0  0  0  0
  160.4280  213.5150  149.9770 C   0  0  0  0  0  2  0  0  0  0  0  0
  158.1150  212.8720  150.6730 C   0  0  0  0  0  3  0  0  0  0  0  0
  160.9710  214.4530  147.5010 Cl  0  0  0  0  0  0  0  0  0  0  0  0
  158.6550  212.4030  155.8150 C   0  0  0  0  0  0  0  0  0  0  0  0
  155.5760  210.6310  156.3370 C   0  0  0  0  0  1  0  0  0  0  0  0
  157.3730  212.1470  155.7760 C   0  0  0  0  0  0  0  0  0  0  0  0
  156.0970  211.8880  155.7390 C   0  0  0  0  0  3  0  0  0  0  0  0
  159.3530  214.3120  157.0700 O   0  0  0  0  0  1  0  0  0  0  0  0
  159.2400  212.9820  156.9440 O   0  0  0  0  0  0  0  0  0  0  0  0
  162.3410  209.6010  151.9290 C   0  0  0  0  0  2  0  0  0  0  0  0
  161.7280  209.4330  150.6210 N   0  0  0  0  0  2  0  0  0  0  0  0
  160.9360  206.3850  150.7950 C   0  0  0  0  0  2  0  0  0  0  0  0
  162.3750  208.3010  149.9730 C   0  0  1  0  0  3  0  0  0  0  0  0
  162.2990  207.0610  150.8770 C   0  0  0  0  0  2  0  0  0  0  0  0
  161.3530  205.6110  148.4100 C   0  0  0  0  0  3  0  0  0  0  0  0
  162.2140  206.7710  147.9790 C   0  0  0  0  0  2  0  0  0  0  0  0
  161.7610  208.0900  148.5870 C   0  0  0  0  0  2  0  0  0  0  0  0
  160.8390  205.4240  149.6390 C   0  0  0  0  0  3  0  0  0  0  0  0
  158.8230  214.0670  153.5490 C   0  0  0  0  0  2  0  0  0  0  0  0
  156.4790  214.3490  152.8550 C   0  0  0  0  0  2  0  0  0  0  0  0
  157.4010  214.4530  153.8080 C   0  0  0  0  0  3  0  0  0  0  0  0
  1 17  1  1  0  0  0
  4  2  1  6  0  0  0
  4  9  1  0  0  0  0
  5 32  1  0  0  0  0
  5  1  1  0  0  0  0
  6  7  1  0  0  0  0
  6  8  1  0  0  0  0
  6  4  1  0  0  0  0
  7  5  1  0  0  0  0
  8  4  1  0  0  0  0
  9  1  1  0  0  0  0
  9  3  1  0  0  0  0
 10 14  1  0  0  0  0
 11 10  1  0  0  0  0
 11 13  1  0  0  0  0
 12  7  1  0  0  0  0
 13 15  1  0  0  0  0
 14 12  1  0  0  0  0
 15 12  2  0  0  0  0
 16 10  1  0  0  0  0
 17 22  1  0  0  0  0
 19 17  2  0  0  0  0
 20 19  2  0  0  0  0
 20 18  1  0  0  0  0
 22 21  1  0  0  0  0
 23  8  1  0  0  0  0
 24 23  1  0  0  0  0
 25 27  1  0  0  0  0
 26 24  1  0  0  0  0
 26 27  1  0  0  0  0
 28 31  2  0  0  0  0
 29 28  1  0  0  0  0
 29 30  1  0  0  0  0
 30 26  1  0  0  0  0
 31 25  1  0  0  0  0
 32 34  1  0  0  0  0
 33 34  2  0  0  0  0
M  END
>  <MODEL>
6

>  <REMARK>
 VINA RESULT:      -4.6      3.607      5.966
  Name = 
  8 active torsions:
  status: ('A' for Active; 'I' for Inactive)
    1  A    between atoms: C_2  and  C_4
    2  A    between atoms: C_2  and  O_25
    3  A    between atoms: N_3  and  C_13
    4  A    between atoms: N_3  and  C_17
    5  A    between atoms: C_12  and  C_28
    6  A    between atoms: C_17  and  C_29
    7  A    between atoms: N_21  and  C_32
    8  A    between atoms: C_24  and  C_32
                            x       y       z     vdW  Elec       q    Type
                         _______ _______ _______ _____ _____    ______ ____

>  <TORSDO>
F 8

$$$$
=
 OpenBabel11062407503D

 34 37  0  0  1  0  0  0  0  0999 V2000
  161.4100  208.3090  153.3420 C   0  0  2  0  0  3  0  0  0  0  0  0
  160.2950  206.3210  150.2870 O   0  0  0  0  0  1  0  0  0  0  0  0
  161.4340  205.9220  153.0830 O   0  0  0  0  0  1  0  0  0  0  0  0
  161.0940  207.1570  151.0710 C   0  0  2  0  0  0  0  0  0  0  0  0
  161.0380  209.5700  152.6700 N   0  0  0  0  0  0  0  0  0  0  0  0
  161.3960  208.4930  150.4190 C   0  0  1  0  0  3  0  0  0  0  0  0
  161.7430  209.6410  151.3730 C   0  0  1  0  0  3  0  0  0  0  0  0
  162.4940  207.4330  150.5480 C   0  0  2  0  0  3  0  0  0  0  0  0
  160.8730  207.0970  152.5780 C   0  0  2  0  0  3  0  0  0  0  0  0
  161.9540  212.6660  148.8560 C   0  0  1  0  0  3  0  0  0  0  0  0
  160.4770  213.0200  148.9660 C   0  0  0  0  0  2  0  0  0  0  0  0
  161.4570  210.9300  150.6470 C   0  0  0  0  0  0  0  0  0  0  0  0
  160.0810  213.0060  150.4360 C   0  0  0  0  0  2  0  0  0  0  0  0
  162.1940  211.2430  149.3610 C   0  0  0  0  0  2  0  0  0  0  0  0
  160.4490  211.7020  151.0900 C   0  0  0  0  0  3  0  0  0  0  0  0
  162.4760  212.7890  147.1620 Cl  0  0  0  0  0  0  0  0  0  0  0  0
  160.8660  208.2430  154.7450 C   0  0  0  0  0  0  0  0  0  0  0  0
  162.1310  210.5090  157.2250 C   0  0  0  0  0  1  0  0  0  0  0  0
  161.6000  208.6850  155.7330 C   0  0  0  0  0  0  0  0  0  0  0  0
  162.3310  209.1280  156.7160 C   0  0  0  0  0  3  0  0  0  0  0  0
  159.3300  206.9560  156.0460 O   0  0  0  0  0  1  0  0  0  0  0  0
  159.5920  207.7160  154.9730 O   0  0  0  0  0  0  0  0  0  0  0  0
  162.7540  206.8060  149.1850 C   0  0  0  0  0  2  0  0  0  0  0  0
  161.5650  206.9180  148.3560 N   0  0  0  0  0  2  0  0  0  0  0  0
  161.8620  203.9390  147.3630 C   0  0  0  0  0  2  0  0  0  0  0  0
  161.9120  206.4480  147.0220 C   0  0  1  0  0  3  0  0  0  0  0  0
  162.7410  205.1590  147.1150 C   0  0  0  0  0  2  0  0  0  0  0  0
  160.8500  204.0710  145.0360 C   0  0  0  0  0  3  0  0  0  0  0  0
  160.9140  205.5700  144.8830 C   0  0  0  0  0  2  0  0  0  0  0  0
  160.6370  206.3010  146.1890 C   0  0  0  0  0  2  0  0  0  0  0  0
  161.3000  203.3650  146.0890 C   0  0  0  0  0  3  0  0  0  0  0  0
  161.5540  210.6710  153.4940 C   0  0  0  0  0  2  0  0  0  0  0  0
  159.4500  211.2440  154.6340 C   0  0  0  0  0  2  0  0  0  0  0  0
  160.4550  211.6220  153.8490 C   0  0  0  0  0  3  0  0  0  0  0  0
  1 17  1  1  0  0  0
  4  2  1  6  0  0  0
  4  9  1  0  0  0  0
  5  1  1  0  0  0  0
  5 32  1  0  0  0  0
  6  8  1  0  0  0  0
  6  4  1  0  0  0  0
  6  7  1  0  0  0  0
  7  5  1  0  0  0  0
  8  4  1  0  0  0  0
  9  3  1  0  0  0  0
  9  1  1  0  0  0  0
 10 11  1  0  0  0  0
 10 14  1  0  0  0  0
 11 13  1  0  0  0  0
 12 15  2  0  0  0  0
 12  7  1  0  0  0  0
 13 15  1  0  0  0  0
 14 12  1  0  0  0  0
 16 10  1  0  0  0  0
 17 22  1  0  0  0  0
 17 19  2  0  0  0  0
 19 20  2  0  0  0  0
 20 18  1  0  0  0  0
 22 21  1  0  0  0  0
 23  8  1  0  0  0  0
 24 23  1  0  0  0  0
 26 27  1  0  0  0  0
 26 24  1  0  0  0  0
 27 25  1  0  0  0  0
 28 31  2  0  0  0  0
 29 28  1  0  0  0  0
 29 30  1  0  0  0  0
 30 26  1  0  0  0  0
 31 25  1  0  0  0  0
 32 34  1  0  0  0  0
 34 33  2  0  0  0  0
M  END
>  <MODEL>
7

>  <REMARK>
 VINA RESULT:      -4.5      2.885      5.227
  Name = 
  8 active torsions:
  status: ('A' for Active; 'I' for Inactive)
    1  A    between atoms: C_2  and  C_4
    2  A    between atoms: C_2  and  O_25
    3  A    between atoms: N_3  and  C_13
    4  A    between atoms: N_3  and  C_17
    5  A    between atoms: C_12  and  C_28
    6  A    between atoms: C_17  and  C_29
    7  A    between atoms: N_21  and  C_32
    8  A    between atoms: C_24  and  C_32
                            x       y       z     vdW  Elec       q    Type
                         _______ _______ _______ _____ _____    ______ ____

>  <TORSDO>
F 8

$$$$
=
 OpenBabel11062407503D

 34 37  0  0  1  0  0  0  0  0999 V2000
  161.3560  211.5100  150.5480 C   0  0  2  0  0  3  0  0  0  0  0  0
  158.2810  211.8500  152.7750 O   0  0  0  0  0  1  0  0  0  0  0  0
  160.3650  213.5480  151.3420 O   0  0  0  0  0  1  0  0  0  0  0  0
  159.6010  211.5610  152.4200 C   0  0  2  0  0  0  0  0  0  0  0  0
  161.2100  210.0410  150.5540 N   0  0  0  0  0  0  0  0  0  0  0  0
  160.0320  210.1520  152.7800 C   0  0  1  0  0  3  0  0  0  0  0  0
  161.1870  209.5730  151.9560 C   0  0  1  0  0  3  0  0  0  0  0  0
  160.5750  211.3480  153.5670 C   0  0  2  0  0  3  0  0  0  0  0  0
  160.1150  212.1900  151.1300 C   0  0  2  0  0  3  0  0  0  0  0  0
  160.6140  205.7810  151.0520 C   0  0  1  0  0  3  0  0  0  0  0  0
  161.5540  205.2540  152.1280 C   0  0  0  0  0  2  0  0  0  0  0  0
  161.0950  208.0710  152.0460 C   0  0  0  0  0  0  0  0  0  0  0  0
  161.2710  205.9960  153.4270 C   0  0  0  0  0  2  0  0  0  0  0  0
  160.8960  207.2590  150.7830 C   0  0  0  0  0  2  0  0  0  0  0  0
  161.3360  207.4870  153.2320 C   0  0  0  0  0  3  0  0  0  0  0  0
  160.8380  204.8530  149.5530 Cl  0  0  0  0  0  0  0  0  0  0  0  0
  161.5600  212.0440  149.1550 C   0  0  0  0  0  0  0  0  0  0  0  0
  159.0020  214.0720  147.6610 C   0  0  0  0  0  1  0  0  0  0  0  0
  160.5150  212.3530  148.4330 C   0  0  0  0  0  0  0  0  0  0  0  0
  159.4730  212.6640  147.7140 C   0  0  0  0  0  3  0  0  0  0  0  0
  163.1830  213.2480  147.8790 O   0  0  0  0  0  1  0  0  0  0  0  0
  162.8550  212.2040  148.6540 O   0  0  0  0  0  0  0  0  0  0  0  0
  159.9060  211.4000  154.9330 C   0  0  0  0  0  2  0  0  0  0  0  0
  160.1390  212.6970  155.5480 N   0  0  0  0  0  2  0  0  0  0  0  0
  157.5640  214.4000  154.9050 C   0  0  0  0  0  2  0  0  0  0  0  0
  159.0110  212.9800  156.4230 C   0  0  1  0  0  3  0  0  0  0  0  0
  158.4600  214.3840  156.1380 C   0  0  0  0  0  2  0  0  0  0  0  0
  155.7550  213.0560  156.0810 C   0  0  0  0  0  3  0  0  0  0  0  0
  156.6640  212.2450  156.9680 C   0  0  0  0  0  2  0  0  0  0  0  0
  157.9680  211.8690  156.2790 C   0  0  0  0  0  2  0  0  0  0  0  0
  156.1420  214.0170  155.2220 C   0  0  0  0  0  3  0  0  0  0  0  0
  162.4220  209.4810  149.9400 C   0  0  0  0  0  2  0  0  0  0  0  0
  162.6830  207.7390  148.2220 C   0  0  0  0  0  2  0  0  0  0  0  0
  162.1050  208.8720  148.6110 C   0  0  0  0  0  3  0  0  0  0  0  0
  1 17  1  6  0  0  0
  1  5  1  0  0  0  0
  1  9  1  0  0  0  0
  4  2  1  1  0  0  0
  4  6  1  0  0  0  0
  4  8  1  0  0  0  0
  5  7  1  0  0  0  0
  6  8  1  0  0  0  0
  7 12  1  0  0  0  0
  7  6  1  0  0  0  0
  8 23  1  0  0  0  0
  9  3  1  0  0  0  0
  9  4  1  0  0  0  0
 10 11  1  0  0  0  0
 11 13  1  0  0  0  0
 12 15  2  0  0  0  0
 14 10  1  0  0  0  0
 14 12  1  0  0  0  0
 15 13  1  0  0  0  0
 16 10  1  0  0  0  0
 18 20  1  0  0  0  0
 19 17  2  0  0  0  0
 20 19  2  0  0  0  0
 21 22  1  0  0  0  0
 22 17  1  0  0  0  0
 23 24  1  0  0  0  0
 24 26  1  0  0  0  0
 25 31  1  0  0  0  0
 25 27  1  0  0  0  0
 27 26  1  0  0  0  0
 28 29  1  0  0  0  0
 30 26  1  0  0  0  0
 30 29  1  0  0  0  0
 31 28  2  0  0  0  0
 32  5  1  0  0  0  0
 33 34  2  0  0  0  0
 34 32  1  0  0  0  0
M  END
>  <MODEL>
8

>  <REMARK>
 VINA RESULT:      -4.5      3.250      7.521
  Name = 
  8 active torsions:
  status: ('A' for Active; 'I' for Inactive)
    1  A    between atoms: C_2  and  C_4
    2  A    between atoms: C_2  and  O_25
    3  A    between atoms: N_3  and  C_13
    4  A    between atoms: N_3  and  C_17
    5  A    between atoms: C_12  and  C_28
    6  A    between atoms: C_17  and  C_29
    7  A    between atoms: N_21  and  C_32
    8  A    between atoms: C_24  and  C_32
                            x       y       z     vdW  Elec       q    Type
                         _______ _______ _______ _____ _____    ______ ____

>  <TORSDO>
F 8

$$$$
=
 OpenBabel11062407503D

 34 37  0  0  1  0  0  0  0  0999 V2000
  161.2800  208.1050  151.2930 C   0  0  2  0  0  3  0  0  0  0  0  0
  162.1230  210.8000  153.8530 O   0  0  0  0  0  1  0  0  0  0  0  0
  160.8760  208.0280  153.6590 O   0  0  0  0  0  1  0  0  0  0  0  0
  161.4530  210.1770  152.7980 C   0  0  2  0  0  0  0  0  0  0  0  0
  161.8640  208.9290  150.2170 N   0  0  0  0  0  0  0  0  0  0  0  0
  161.3840  211.0220  151.5400 C   0  0  1  0  0  3  0  0  0  0  0  0
  161.2070  210.2540  150.2250 C   0  0  1  0  0  3  0  0  0  0  0  0
  160.1270  210.7940  152.3840 C   0  0  2  0  0  3  0  0  0  0  0  0
  161.6300  208.6680  152.6730 C   0  0  2  0  0  3  0  0  0  0  0  0
  161.3710  212.5650  147.0380 C   0  0  1  0  0  3  0  0  0  0  0  0
  162.6510  213.2700  147.4630 C   0  0  0  0  0  2  0  0  0  0  0  0
  161.7130  211.1390  149.1150 C   0  0  0  0  0  0  0  0  0  0  0  0
  163.6420  212.2250  147.9570 C   0  0  0  0  0  2  0  0  0  0  0  0
  160.7220  211.8790  148.2410 C   0  0  0  0  0  2  0  0  0  0  0  0
  163.0360  211.3570  149.0260 C   0  0  0  0  0  3  0  0  0  0  0  0
  160.2360  213.7460  146.3470 Cl  0  0  0  0  0  0  0  0  0  0  0  0
  161.7760  206.6840  151.2400 C   0  0  0  0  0  0  0  0  0  0  0  0
  160.6680  204.5370  148.5840 C   0  0  0  0  0  1  0  0  0  0  0  0
  161.0620  205.7840  150.6170 C   0  0  0  0  0  0  0  0  0  0  0  0
  160.3500  204.8880  149.9930 C   0  0  0  0  0  3  0  0  0  0  0  0
  163.0330  205.5290  152.9120 O   0  0  0  0  0  1  0  0  0  0  0  0
  162.9870  206.3470  151.8510 O   0  0  0  0  0  0  0  0  0  0  0  0
  159.7980  212.0660  153.1530 C   0  0  0  0  0  2  0  0  0  0  0  0
  158.9910  211.7420  154.3200 N   0  0  0  0  0  2  0  0  0  0  0  0
  156.5720  212.2370  156.2810 C   0  0  0  0  0  2  0  0  0  0  0  0
  157.6000  211.9990  153.9780 C   0  0  1  0  0  3  0  0  0  0  0  0
  156.6730  211.3720  155.0300 C   0  0  0  0  0  2  0  0  0  0  0  0
  155.2740  214.0420  155.0470 C   0  0  0  0  0  3  0  0  0  0  0  0
  155.9140  213.8480  153.6960 C   0  0  0  0  0  2  0  0  0  0  0  0
  157.3920  213.5040  153.7950 C   0  0  0  0  0  2  0  0  0  0  0  0
  155.5280  213.3160  156.1520 C   0  0  0  0  0  3  0  0  0  0  0  0
  161.5160  208.2910  148.9410 C   0  0  0  0  0  2  0  0  0  0  0  0
  162.6300  206.7480  147.3820 C   0  0  0  0  0  2  0  0  0  0  0  0
  162.7330  207.7130  148.2920 C   0  0  0  0  0  3  0  0  0  0  0  0
  1 17  1  1  0  0  0
  1  9  1  0  0  0  0
  4  2  1  1  0  0  0
  5  7  1  0  0  0  0
  5  1  1  0  0  0  0
  6  8  1  0  0  0  0
  6  4  1  0  0  0  0
  7  6  1  0  0  0  0
  8  4  1  0  0  0  0
  8 23  1  0  0  0  0
  9  4  1  0  0  0  0
  9  3  1  0  0  0  0
 10 11  1  0  0  0  0
 10 14  1  0  0  0  0
 11 13  1  0  0  0  0
 12  7  1  0  0  0  0
 13 15  1  0  0  0  0
 14 12  1  0  0  0  0
 15 12  2  0  0  0  0
 16 10  1  0  0  0  0
 17 22  1  0  0  0  0
 18 20  1  0  0  0  0
 19 17  2  0  0  0  0
 20 19  2  0  0  0  0
 22 21  1  0  0  0  0
 23 24  1  0  0  0  0
 26 24  1  0  0  0  0
 26 27  1  0  0  0  0
 27 25  1  0  0  0  0
 28 31  2  0  0  0  0
 29 30  1  0  0  0  0
 29 28  1  0  0  0  0
 30 26  1  0  0  0  0
 31 25  1  0  0  0  0
 32  5  1  0  0  0  0
 33 34  2  0  0  0  0
 34 32  1  0  0  0  0
M  END
>  <MODEL>
9

>  <REMARK>
 VINA RESULT:      -4.5      3.290      8.394
  Name = 
  8 active torsions:
  status: ('A' for Active; 'I' for Inactive)
    1  A    between atoms: C_2  and  C_4
    2  A    between atoms: C_2  and  O_25
    3  A    between atoms: N_3  and  C_13
    4  A    between atoms: N_3  and  C_17
    5  A    between atoms: C_12  and  C_28
    6  A    between atoms: C_17  and  C_29
    7  A    between atoms: N_21  and  C_32
    8  A    between atoms: C_24  and  C_32
                            x       y       z     vdW  Elec       q    Type
                         _______ _______ _______ _____ _____    ______ ____

>  <TORSDO>
F 8

$$$$
