=
 OpenBabel11052422033D

 30 34  0  0  1  0  0  0  0  0999 V2000
  159.9890  211.2020  153.7360 C   0  0  2  0  0  3  0  0  0  0  0  0
  160.6120  207.5260  154.3010 C   0  0  2  0  0  3  0  0  0  0  0  0
  161.1020  211.2780  156.3800 C   0  0  0  0  0  2  0  0  0  0  0  0
  158.4830  211.4630  153.5290 C   0  0  2  0  0  3  0  0  0  0  0  0
  160.7030  211.2730  152.5330 O   0  0  0  0  0  1  0  0  0  0  0  0
  154.8160  213.4030  154.2310 C   0  0  0  0  0  3  0  0  0  0  0  0
  157.8710  212.4400  155.8410 C   0  0  1  0  0  3  0  0  0  0  0  0
  159.2940  212.5410  156.3960 C   0  0  0  0  0  2  0  0  0  0  0  0
  158.2840  212.8800  152.9360 C   0  0  2  0  0  3  0  0  0  0  0  0
  160.8590  206.4840  153.4110 O   0  0  0  0  0  1  0  0  0  0  0  0
  157.5070  213.7970  155.2100 C   0  0  2  0  0  3  0  0  0  0  0  0
  155.0460  213.6700  155.6940 C   0  0  0  0  0  2  0  0  0  0  0  0
  160.5060  208.8360  153.5340 C   0  0  0  0  0  2  0  0  0  0  0  0
  161.3460  210.1050  155.4160 C   0  0  2  0  0  3  0  0  0  0  0  0
  161.7560  207.6260  155.2970 C   0  0  0  0  0  2  0  0  0  0  0  0
  160.2340  209.9420  154.4600 N   0  0  1  0  0  0  0  0  0  0  0  0
  157.7510  210.0330  155.4070 O   0  0  0  0  0  1  0  0  0  0  0  0
  159.7780  211.3050  156.8360 O   0  0  0  0  0  0  0  0  0  0  0  0
  157.6600  211.3010  154.8280 C   0  0  2  0  0  3  0  0  0  0  0  0
  156.3350  214.4530  155.9380 C   0  0  0  0  0  2  0  0  0  0  0  0
  155.8120  213.3940  153.3330 C   0  0  0  0  0  3  0  0  0  0  0  0
  161.5450  208.8150  156.2270 C   0  0  1  0  0  3  0  0  0  0  0  0
  162.6550  208.9390  157.0640 O   0  0  0  0  0  1  0  0  0  0  0  0
  157.2430  213.7530  153.6840 C   0  0  2  0  0  3  0  0  0  0  0  0
  158.4390  214.1170  150.7740 C   0  0  1  0  0  3  0  0  0  0  0  0
  158.0210  212.8120  151.4320 C   0  0  1  0  0  3  0  0  0  0  0  0
  159.3260  212.8980  150.6680 C   0  0  0  0  0  2  0  0  0  0  0  0
  157.7250  214.2770  149.5870 O   0  0  0  0  0  0  0  0  0  0  0  0
  158.7030  214.4530  148.6080 C   0  0  0  0  0  2  0  0  0  0  0  0
  158.2280  213.8500  147.3040 C   0  0  0  0  0  1  0  0  0  0  0  0
  1  5  1  6  0  0  0
  1 16  1  0  0  0  0
  2 10  1  6  0  0  0
  2 15  1  0  0  0  0
  3 18  1  0  0  0  0
  4  1  1  0  0  0  0
  4 19  1  0  0  0  0
  6 12  1  0  0  0  0
  7  8  1  0  0  0  0
  8 18  1  0  0  0  0
  9  4  1  0  0  0  0
  9 24  1  0  0  0  0
 11  7  1  0  0  0  0
 11 20  1  0  0  0  0
 12 20  1  0  0  0  0
 13  2  1  0  0  0  0
 13 16  1  0  0  0  0
 14 22  1  0  0  0  0
 14  3  1  0  0  0  0
 15 22  1  0  0  0  0
 16 14  1  0  0  0  0
 19 17  1  0  0  0  0
 19  7  1  0  0  0  0
 21 24  1  0  0  0  0
 21  6  2  0  0  0  0
 22 23  1  0  0  0  0
 24 11  1  0  0  0  0
 25 26  1  0  0  0  0
 26  9  1  0  0  0  0
 27 25  1  0  0  0  0
 27 26  1  0  0  0  0
 28 25  1  0  0  0  0
 29 28  1  0  0  0  0
 30 29  1  0  0  0  0
M  END
>  <MODEL>
1

>  <REMARK>
 VINA RESULT:      -3.7      0.000      0.000
  Name = 
  3 active torsions:
  status: ('A' for Active; 'I' for Inactive)
    1  A    between atoms: C_6  and  O_21
    2  A    between atoms: C_8  and  C_13
    3  A    between atoms: C_9  and  O_21
                            x       y       z     vdW  Elec       q    Type
                         _______ _______ _______ _____ _____    ______ ____

>  <TORSDO>
F 3

$$$$
=
 OpenBabel11052422033D

 30 34  0  0  1  0  0  0  0  0999 V2000
  160.0320  211.5890  154.1650 C   0  0  2  0  0  3  0  0  0  0  0  0
  160.4430  207.8510  153.8770 C   0  0  2  0  0  3  0  0  0  0  0  0
  160.9530  210.9750  156.8140 C   0  0  0  0  0  2  0  0  0  0  0  0
  158.5590  211.9840  153.9370 C   0  0  2  0  0  3  0  0  0  0  0  0
  160.8340  211.8950  153.0580 O   0  0  0  0  0  1  0  0  0  0  0  0
  154.9430  213.9280  154.8600 C   0  0  0  0  0  3  0  0  0  0  0  0
  157.8260  212.4280  156.3750 C   0  0  1  0  0  3  0  0  0  0  0  0
  159.2080  212.3080  157.0210 C   0  0  0  0  0  2  0  0  0  0  0  0
  158.4680  213.5100  153.6870 C   0  0  2  0  0  3  0  0  0  0  0  0
  160.7060  207.0330  152.7800 O   0  0  0  0  0  1  0  0  0  0  0  0
  157.5710  213.9140  156.0630 C   0  0  2  0  0  3  0  0  0  0  0  0
  155.0790  213.8300  156.3550 C   0  0  0  0  0  2  0  0  0  0  0  0
  160.4530  209.3080  153.4380 C   0  0  0  0  0  2  0  0  0  0  0  0
  161.2120  210.0470  155.6140 C   0  0  2  0  0  3  0  0  0  0  0  0
  161.5160  207.6440  154.9340 C   0  0  0  0  0  2  0  0  0  0  0  0
  160.1660  210.1810  154.5830 N   0  0  1  0  0  0  0  0  0  0  0  0
  157.6270  210.2010  155.3740 O   0  0  0  0  0  1  0  0  0  0  0  0
  159.6020  210.9760  157.1820 O   0  0  0  0  0  0  0  0  0  0  0  0
  157.6370  211.5730  155.1090 C   0  0  2  0  0  3  0  0  0  0  0  0
  156.3810  214.4530  156.8550 C   0  0  0  0  0  2  0  0  0  0  0  0
  156.0000  214.0680  154.0460 C   0  0  0  0  0  3  0  0  0  0  0  0
  161.2920  208.5930  156.1060 C   0  0  1  0  0  3  0  0  0  0  0  0
  162.3430  208.4490  157.0130 O   0  0  0  0  0  1  0  0  0  0  0  0
  157.4170  214.2460  154.5570 C   0  0  2  0  0  3  0  0  0  0  0  0
  159.6530  213.6650  151.4960 C   0  0  1  0  0  3  0  0  0  0  0  0
  158.3120  213.8120  152.1970 C   0  0  1  0  0  3  0  0  0  0  0  0
  158.6130  212.5740  151.3770 C   0  0  0  0  0  2  0  0  0  0  0  0
  159.6470  214.4400  150.3370 O   0  0  0  0  0  0  0  0  0  0  0  0
  160.2720  213.6440  149.3770 C   0  0  0  0  0  2  0  0  0  0  0  0
  161.3330  214.4530  148.6630 C   0  0  0  0  0  1  0  0  0  0  0  0
  1  5  1  6  0  0  0
  1 16  1  0  0  0  0
  2 10  1  6  0  0  0
  2 15  1  0  0  0  0
  3 18  1  0  0  0  0
  4  1  1  0  0  0  0
  4 19  1  0  0  0  0
  6 12  1  0  0  0  0
  7  8  1  0  0  0  0
  8 18  1  0  0  0  0
  9  4  1  0  0  0  0
  9 24  1  0  0  0  0
 11  7  1  0  0  0  0
 11 20  1  0  0  0  0
 12 20  1  0  0  0  0
 13  2  1  0  0  0  0
 13 16  1  0  0  0  0
 14 22  1  0  0  0  0
 14  3  1  0  0  0  0
 15 22  1  0  0  0  0
 16 14  1  0  0  0  0
 19 17  1  0  0  0  0
 19  7  1  0  0  0  0
 21 24  1  0  0  0  0
 21  6  2  0  0  0  0
 22 23  1  0  0  0  0
 24 11  1  0  0  0  0
 25 26  1  0  0  0  0
 26  9  1  0  0  0  0
 27 25  1  0  0  0  0
 27 26  1  0  0  0  0
 28 25  1  0  0  0  0
 29 28  1  0  0  0  0
 30 29  1  0  0  0  0
M  END
>  <MODEL>
2

>  <REMARK>
 VINA RESULT:      -3.5      1.014      1.090
  Name = 
  3 active torsions:
  status: ('A' for Active; 'I' for Inactive)
    1  A    between atoms: C_6  and  O_21
    2  A    between atoms: C_8  and  C_13
    3  A    between atoms: C_9  and  O_21
                            x       y       z     vdW  Elec       q    Type
                         _______ _______ _______ _____ _____    ______ ____

>  <TORSDO>
F 3

$$$$
=
 OpenBabel11052422033D

 30 34  0  0  1  0  0  0  0  0999 V2000
  161.0490  208.1030  154.1530 C   0  0  2  0  0  3  0  0  0  0  0  0
  158.6800  210.4800  155.8730 C   0  0  2  0  0  3  0  0  0  0  0  0
  162.7540  210.3930  154.4490 C   0  0  0  0  0  2  0  0  0  0  0  0
  160.5070  207.7240  152.7590 C   0  0  2  0  0  3  0  0  0  0  0  0
  160.8870  207.0640  155.0780 O   0  0  0  0  0  1  0  0  0  0  0  0
  160.7430  207.1800  148.5940 C   0  0  0  0  0  3  0  0  0  0  0  0
  162.0240  209.1940  151.2700 C   0  0  1  0  0  3  0  0  0  0  0  0
  162.9660  209.6850  152.3710 C   0  0  0  0  0  2  0  0  0  0  0  0
  161.2740  206.4870  152.2290 C   0  0  2  0  0  3  0  0  0  0  0  0
  157.5770  210.2520  156.6940 O   0  0  0  0  0  1  0  0  0  0  0  0
  162.6540  207.9470  150.6220 C   0  0  2  0  0  3  0  0  0  0  0  0
  161.6950  208.3150  148.3310 C   0  0  0  0  0  2  0  0  0  0  0  0
  159.3260  209.1510  155.5100 C   0  0  0  0  0  2  0  0  0  0  0  0
  161.5150  210.1680  155.3320 C   0  0  2  0  0  3  0  0  0  0  0  0
  159.6940  211.3390  156.6120 C   0  0  0  0  0  2  0  0  0  0  0  0
  160.4830  209.3770  154.6350 N   0  0  1  0  0  0  0  0  0  0  0  0
  159.8890  210.0330  152.1280 O   0  0  0  0  0  1  0  0  0  0  0  0
  162.3980  210.7110  153.1330 O   0  0  0  0  0  0  0  0  0  0  0  0
  160.5920  208.8880  151.7440 C   0  0  2  0  0  3  0  0  0  0  0  0
  162.9790  208.1880  149.1490 C   0  0  0  0  0  2  0  0  0  0  0  0
  160.7750  206.4560  149.7220 C   0  0  0  0  0  3  0  0  0  0  0  0
  160.9440  211.5280  155.7610 C   0  0  1  0  0  3  0  0  0  0  0  0
  161.8930  212.2370  156.5010 O   0  0  0  0  0  1  0  0  0  0  0  0
  161.8350  206.6420  150.7920 C   0  0  2  0  0  3  0  0  0  0  0  0
  161.1800  204.0320  151.7910 C   0  0  1  0  0  3  0  0  0  0  0  0
  160.4460  205.2150  152.4020 C   0  0  1  0  0  3  0  0  0  0  0  0
  161.1780  204.2300  153.2900 C   0  0  0  0  0  2  0  0  0  0  0  0
  160.2530  203.0470  151.4520 O   0  0  0  0  0  0  0  0  0  0  0  0
  160.9200  202.2360  150.5350 C   0  0  0  0  0  2  0  0  0  0  0  0
  160.8360  202.8550  149.1570 C   0  0  0  0  0  1  0  0  0  0  0  0
  1 16  1  0  0  0  0
  1  5  1  1  0  0  0
  2 15  1  0  0  0  0
  2 10  1  1  0  0  0
  3 14  1  0  0  0  0
  4  1  1  0  0  0  0
  6 21  2  0  0  0  0
  7 19  1  0  0  0  0
  7  8  1  0  0  0  0
  8 18  1  0  0  0  0
  9 26  1  0  0  0  0
  9  4  1  0  0  0  0
 11 24  1  0  0  0  0
 11  7  1  0  0  0  0
 12  6  1  0  0  0  0
 12 20  1  0  0  0  0
 13  2  1  0  0  0  0
 14 22  1  0  0  0  0
 16 14  1  0  0  0  0
 16 13  1  0  0  0  0
 18  3  1  0  0  0  0
 19 17  1  0  0  0  0
 19  4  1  0  0  0  0
 20 11  1  0  0  0  0
 21 24  1  0  0  0  0
 22 23  1  0  0  0  0
 22 15  1  0  0  0  0
 24  9  1  0  0  0  0
 25 26  1  0  0  0  0
 25 27  1  0  0  0  0
 26 27  1  0  0  0  0
 28 25  1  0  0  0  0
 29 28  1  0  0  0  0
 30 29  1  0  0  0  0
M  END
>  <MODEL>
3

>  <REMARK>
 VINA RESULT:      -3.2      3.565      7.414
  Name = 
  3 active torsions:
  status: ('A' for Active; 'I' for Inactive)
    1  A    between atoms: C_6  and  O_21
    2  A    between atoms: C_8  and  C_13
    3  A    between atoms: C_9  and  O_21
                            x       y       z     vdW  Elec       q    Type
                         _______ _______ _______ _____ _____    ______ ____

>  <TORSDO>
F 3

$$$$
=
 OpenBabel11052422033D

 30 34  0  0  1  0  0  0  0  0999 V2000
  159.4260  209.6780  155.2600 C   0  0  2  0  0  3  0  0  0  0  0  0
  155.9720  211.0880  155.8140 C   0  0  2  0  0  3  0  0  0  0  0  0
  160.0810  212.4150  155.8270 C   0  0  0  0  0  2  0  0  0  0  0  0
  159.5580  209.1390  153.8220 C   0  0  2  0  0  3  0  0  0  0  0  0
  159.2970  208.6450  156.1970 O   0  0  0  0  0  1  0  0  0  0  0  0
  161.3950  208.7190  150.0590 C   0  0  0  0  0  3  0  0  0  0  0  0
  160.9360  211.0450  152.7500 C   0  0  1  0  0  3  0  0  0  0  0  0
  161.2210  211.8280  154.0330 C   0  0  0  0  0  2  0  0  0  0  0  0
  160.8180  208.2430  153.7220 C   0  0  2  0  0  3  0  0  0  0  0  0
  154.7900  210.4930  156.2490 O   0  0  0  0  0  1  0  0  0  0  0  0
  162.1200  210.0930  152.4970 C   0  0  2  0  0  3  0  0  0  0  0  0
  161.9560  210.1140  149.9910 C   0  0  0  0  0  2  0  0  0  0  0  0
  157.0980  210.0640  155.8420 C   0  0  0  0  0  2  0  0  0  0  0  0
  158.7560  211.7740  156.2750 C   0  0  2  0  0  3  0  0  0  0  0  0
  156.3290  212.2430  156.7380 C   0  0  0  0  0  2  0  0  0  0  0  0
  158.3480  210.6770  155.3760 N   0  0  1  0  0  0  0  0  0  0  0  0
  158.4870  211.0950  152.7540 O   0  0  0  0  0  1  0  0  0  0  0  0
  160.1240  212.5940  154.4400 O   0  0  0  0  0  0  0  0  0  0  0  0
  159.6100  210.2630  152.7610 C   0  0  2  0  0  3  0  0  0  0  0  0
  162.8420  210.4350  151.1950 C   0  0  0  0  0  2  0  0  0  0  0  0
  161.2640  208.0490  151.2130 C   0  0  0  0  0  3  0  0  0  0  0  0
  157.6640  212.8530  156.3290 C   0  0  1  0  0  3  0  0  0  0  0  0
  158.0100  213.8430  157.2500 O   0  0  0  0  0  1  0  0  0  0  0  0
  161.7630  208.5850  152.5410 C   0  0  2  0  0  3  0  0  0  0  0  0
  161.6480  205.9120  153.4010 C   0  0  1  0  0  3  0  0  0  0  0  0
  160.4410  206.7630  153.7630 C   0  0  1  0  0  3  0  0  0  0  0  0
  161.2260  206.0530  154.8470 C   0  0  0  0  0  2  0  0  0  0  0  0
  161.2070  204.6850  152.9070 O   0  0  0  0  0  0  0  0  0  0  0  0
  161.8580  204.5440  151.6820 C   0  0  0  0  0  2  0  0  0  0  0  0
  160.8320  204.3960  150.5790 C   0  0  0  0  0  1  0  0  0  0  0  0
  1 16  1  0  0  0  0
  1  5  1  1  0  0  0
  2 13  1  0  0  0  0
  2 10  1  1  0  0  0
  2 15  1  0  0  0  0
  3 14  1  0  0  0  0
  4  1  1  0  0  0  0
  6 21  2  0  0  0  0
  7 19  1  0  0  0  0
  7  8  1  0  0  0  0
  8 18  1  0  0  0  0
  9 26  1  0  0  0  0
  9  4  1  0  0  0  0
 11 24  1  0  0  0  0
 11  7  1  0  0  0  0
 12  6  1  0  0  0  0
 12 20  1  0  0  0  0
 14 22  1  0  0  0  0
 16 13  1  0  0  0  0
 16 14  1  0  0  0  0
 17 19  1  0  0  0  0
 18  3  1  0  0  0  0
 19  4  1  0  0  0  0
 20 11  1  0  0  0  0
 21 24  1  0  0  0  0
 22 15  1  0  0  0  0
 22 23  1  0  0  0  0
 24  9  1  0  0  0  0
 25 26  1  0  0  0  0
 25 27  1  0  0  0  0
 26 27  1  0  0  0  0
 28 25  1  0  0  0  0
 29 28  1  0  0  0  0
 30 29  1  0  0  0  0
M  END
>  <MODEL>
4

>  <REMARK>
 VINA RESULT:      -2.5      2.835      6.664
  Name = 
  3 active torsions:
  status: ('A' for Active; 'I' for Inactive)
    1  A    between atoms: C_6  and  O_21
    2  A    between atoms: C_8  and  C_13
    3  A    between atoms: C_9  and  O_21
                            x       y       z     vdW  Elec       q    Type
                         _______ _______ _______ _____ _____    ______ ____

>  <TORSDO>
F 3

$$$$
=
 OpenBabel11052422033D

 30 34  0  0  1  0  0  0  0  0999 V2000
  160.7280  211.2240  152.4660 C   0  0  2  0  0  3  0  0  0  0  0  0
  160.5240  207.5270  151.7480 C   0  0  2  0  0  3  0  0  0  0  0  0
  161.0450  210.1740  155.1190 C   0  0  0  0  0  2  0  0  0  0  0  0
  159.4100  211.9190  152.0670 C   0  0  2  0  0  3  0  0  0  0  0  0
  161.7540  211.4790  151.5460 O   0  0  0  0  0  1  0  0  0  0  0  0
  156.0850  214.4240  152.6720 C   0  0  0  0  0  3  0  0  0  0  0  0
  158.3470  212.2450  154.4000 C   0  0  1  0  0  3  0  0  0  0  0  0
  159.5510  211.7930  155.2300 C   0  0  0  0  0  2  0  0  0  0  0  0
  159.6330  213.4500  152.0120 C   0  0  2  0  0  3  0  0  0  0  0  0
  160.8300  206.7890  150.6060 O   0  0  0  0  0  1  0  0  0  0  0  0
  158.4150  213.7770  154.2540 C   0  0  2  0  0  3  0  0  0  0  0  0
  155.9340  214.1500  154.1440 C   0  0  0  0  0  2  0  0  0  0  0  0
  160.8660  208.9910  151.5140 C   0  0  0  0  0  2  0  0  0  0  0  0
  161.3450  209.3410  153.8610 C   0  0  2  0  0  3  0  0  0  0  0  0
  161.3400  207.0080  152.9210 C   0  0  0  0  0  2  0  0  0  0  0  0
  160.5380  209.7820  152.7070 N   0  0  1  0  0  0  0  0  0  0  0  0
  157.9420  210.2140  153.0930 O   0  0  0  0  0  1  0  0  0  0  0  0
  159.6720  210.4000  155.2710 O   0  0  0  0  0  0  0  0  0  0  0  0
  158.2390  211.5770  153.0180 C   0  0  2  0  0  3  0  0  0  0  0  0
  157.2170  214.4530  154.9180 C   0  0  0  0  0  2  0  0  0  0  0  0
  157.2760  214.4390  152.0580 C   0  0  0  0  0  3  0  0  0  0  0  0
  161.0820  207.8570  154.1600 C   0  0  1  0  0  3  0  0  0  0  0  0
  161.9150  207.4200  155.1910 O   0  0  0  0  0  1  0  0  0  0  0  0
  158.5900  214.2840  152.8000 C   0  0  2  0  0  3  0  0  0  0  0  0
  160.3700  212.8080  149.7160 C   0  0  1  0  0  3  0  0  0  0  0  0
  159.7980  213.9280  150.5700 C   0  0  1  0  0  3  0  0  0  0  0  0
  158.8950  213.1340  149.6490 C   0  0  0  0  0  2  0  0  0  0  0  0
  161.0180  213.3630  148.6130 O   0  0  0  0  0  0  0  0  0  0  0  0
  161.7190  212.3010  148.0440 C   0  0  0  0  0  2  0  0  0  0  0  0
  163.1930  212.6380  147.9910 C   0  0  0  0  0  1  0  0  0  0  0  0
  1  5  1  6  0  0  0
  1 16  1  0  0  0  0
  2 10  1  6  0  0  0
  2 15  1  0  0  0  0
  3 18  1  0  0  0  0
  4  1  1  0  0  0  0
  4 19  1  0  0  0  0
  6 12  1  0  0  0  0
  7  8  1  0  0  0  0
  8 18  1  0  0  0  0
  9  4  1  0  0  0  0
  9 24  1  0  0  0  0
 11  7  1  0  0  0  0
 11 20  1  0  0  0  0
 12 20  1  0  0  0  0
 13  2  1  0  0  0  0
 13 16  1  0  0  0  0
 14 22  1  0  0  0  0
 14  3  1  0  0  0  0
 15 22  1  0  0  0  0
 16 14  1  0  0  0  0
 19 17  1  0  0  0  0
 19  7  1  0  0  0  0
 21  6  2  0  0  0  0
 21 24  1  0  0  0  0
 22 23  1  0  0  0  0
 24 11  1  0  0  0  0
 25 26  1  0  0  0  0
 26  9  1  0  0  0  0
 27 25  1  0  0  0  0
 27 26  1  0  0  0  0
 28 25  1  0  0  0  0
 29 28  1  0  0  0  0
 30 29  1  0  0  0  0
M  END
>  <MODEL>
5

>  <REMARK>
 VINA RESULT:      -1.9      1.951      2.302
  Name = 
  3 active torsions:
  status: ('A' for Active; 'I' for Inactive)
    1  A    between atoms: C_6  and  O_21
    2  A    between atoms: C_8  and  C_13
    3  A    between atoms: C_9  and  O_21
                            x       y       z     vdW  Elec       q    Type
                         _______ _______ _______ _____ _____    ______ ____

>  <TORSDO>
F 3

$$$$
=
 OpenBabel11052422033D

 30 34  0  0  1  0  0  0  0  0999 V2000
  161.2990  209.6580  149.4800 C   0  0  2  0  0  3  0  0  0  0  0  0
  163.7460  212.2540  148.2570 C   0  0  2  0  0  3  0  0  0  0  0  0
  160.0060  212.0480  150.4050 C   0  0  0  0  0  2  0  0  0  0  0  0
  161.9810  208.7140  150.4910 C   0  0  2  0  0  3  0  0  0  0  0  0
  161.1200  209.0480  148.2320 O   0  0  0  0  0  1  0  0  0  0  0  0
  162.3290  206.6260  154.1270 C   0  0  0  0  0  3  0  0  0  0  0  0
  161.0140  209.6410  152.7000 C   0  0  1  0  0  3  0  0  0  0  0  0
  160.0100  210.6170  152.0820 C   0  0  0  0  0  2  0  0  0  0  0  0
  161.1020  207.4560  150.6950 C   0  0  2  0  0  3  0  0  0  0  0  0
  164.6420  212.2480  147.1910 O   0  0  0  0  0  1  0  0  0  0  0  0
  160.2840  208.3140  152.9770 C   0  0  2  0  0  3  0  0  0  0  0  0
  161.6500  207.6630  154.9800 C   0  0  0  0  0  2  0  0  0  0  0  0
  162.9390  210.9630  148.2500 C   0  0  0  0  0  2  0  0  0  0  0  0
  161.0260  212.0550  149.2530 C   0  0  2  0  0  3  0  0  0  0  0  0
  162.7960  213.4330  148.1160 C   0  0  0  0  0  2  0  0  0  0  0  0
  161.9980  210.9520  149.3770 N   0  0  1  0  0  0  0  0  0  0  0  0
  163.0980  210.5190  151.7590 O   0  0  0  0  0  1  0  0  0  0  0  0
  160.6210  211.7930  151.6360 O   0  0  0  0  0  0  0  0  0  0  0  0
  162.2720  209.3960  151.8490 C   0  0  2  0  0  3  0  0  0  0  0  0
  160.2490  207.9980  154.4710 C   0  0  0  0  0  2  0  0  0  0  0  0
  161.9850  206.4040  152.8500 C   0  0  0  0  0  3  0  0  0  0  0  0
  161.7540  213.4070  149.2280 C   0  0  1  0  0  3  0  0  0  0  0  0
  160.8410  214.4420  149.0180 O   0  0  0  0  0  1  0  0  0  0  0  0
  160.8170  207.0990  152.1760 C   0  0  2  0  0  3  0  0  0  0  0  0
  160.6270  205.1460  149.8770 C   0  0  1  0  0  3  0  0  0  0  0  0
  161.6490  206.2710  149.9000 C   0  0  1  0  0  3  0  0  0  0  0  0
  160.8050  206.0330  148.6650 C   0  0  0  0  0  2  0  0  0  0  0  0
  161.2870  203.9360  149.6670 O   0  0  0  0  0  0  0  0  0  0  0  0
  160.6000  203.0180  150.4600 C   0  0  0  0  0  2  0  0  0  0  0  0
  161.0700  203.1370  151.8940 C   0  0  0  0  0  1  0  0  0  0  0  0
  1  5  1  6  0  0  0
  1  4  1  0  0  0  0
  2 10  1  6  0  0  0
  3 18  1  0  0  0  0
  4  9  1  0  0  0  0
  4 19  1  0  0  0  0
  6 12  1  0  0  0  0
  7 11  1  0  0  0  0
  8  7  1  0  0  0  0
  9 24  1  0  0  0  0
 11 20  1  0  0  0  0
 13  2  1  0  0  0  0
 13 16  1  0  0  0  0
 14 16  1  0  0  0  0
 14  3  1  0  0  0  0
 15  2  1  0  0  0  0
 15 22  1  0  0  0  0
 16  1  1  0  0  0  0
 17 19  1  0  0  0  0
 18  8  1  0  0  0  0
 19  7  1  0  0  0  0
 20 12  1  0  0  0  0
 21  6  2  0  0  0  0
 22 14  1  0  0  0  0
 23 22  1  0  0  0  0
 24 21  1  0  0  0  0
 24 11  1  0  0  0  0
 25 26  1  0  0  0  0
 26  9  1  0  0  0  0
 27 25  1  0  0  0  0
 27 26  1  0  0  0  0
 28 25  1  0  0  0  0
 28 29  1  0  0  0  0
 29 30  1  0  0  0  0
M  END
>  <MODEL>
6

>  <REMARK>
 VINA RESULT:      -1.5      4.037      7.872
  Name = 
  3 active torsions:
  status: ('A' for Active; 'I' for Inactive)
    1  A    between atoms: C_6  and  O_21
    2  A    between atoms: C_8  and  C_13
    3  A    between atoms: C_9  and  O_21
                            x       y       z     vdW  Elec       q    Type
                         _______ _______ _______ _____ _____    ______ ____

>  <TORSDO>
F 3

$$$$
=
 OpenBabel11052422033D

 30 34  0  0  1  0  0  0  0  0999 V2000
  162.3260  206.5920  148.6690 C   0  0  2  0  0  3  0  0  0  0  0  0
  160.0810  205.8290  145.7370 C   0  0  2  0  0  3  0  0  0  0  0  0
  162.2810  203.7240  148.7990 C   0  0  0  0  0  2  0  0  0  0  0  0
  161.5650  207.4200  149.7240 C   0  0  2  0  0  3  0  0  0  0  0  0
  163.2310  207.3750  147.9410 O   0  0  0  0  0  1  0  0  0  0  0  0
  160.2090  208.3420  153.5990 C   0  0  0  0  0  3  0  0  0  0  0  0
  161.0840  205.5850  151.4790 C   0  0  1  0  0  3  0  0  0  0  0  0
  161.9240  204.4760  150.8410 C   0  0  0  0  0  2  0  0  0  0  0  0
  162.5770  208.0360  150.7220 C   0  0  2  0  0  3  0  0  0  0  0  0
  159.8240  206.5320  144.5620 O   0  0  0  0  0  1  0  0  0  0  0  0
  161.9570  206.3070  152.5220 C   0  0  2  0  0  3  0  0  0  0  0  0
  160.0790  206.9190  154.0720 C   0  0  0  0  0  2  0  0  0  0  0  0
  161.1370  206.5630  146.5490 C   0  0  0  0  0  2  0  0  0  0  0  0
  161.9570  204.4970  147.5080 C   0  0  2  0  0  3  0  0  0  0  0  0
  160.5950  204.4390  145.3940 C   0  0  0  0  0  2  0  0  0  0  0  0
  161.4090  205.8360  147.7960 N   0  0  1  0  0  0  0  0  0  0  0  0
  159.5160  206.0390  149.6520 O   0  0  0  0  0  1  0  0  0  0  0  0
  161.2730  203.8770  149.7580 O   0  0  0  0  0  0  0  0  0  0  0  0
  160.4950  206.5960  150.4780 C   0  0  2  0  0  3  0  0  0  0  0  0
  161.3890  206.1450  153.9310 C   0  0  0  0  0  2  0  0  0  0  0  0
  161.1510  208.7290  152.7270 C   0  0  0  0  0  3  0  0  0  0  0  0
  160.9620  203.6840  146.6660 C   0  0  1  0  0  3  0  0  0  0  0  0
  161.5200  202.4530  146.3170 O   0  0  0  0  0  1  0  0  0  0  0  0
  162.2360  207.8000  152.2160 C   0  0  2  0  0  3  0  0  0  0  0  0
  161.9560  209.9470  149.2420 C   0  0  1  0  0  3  0  0  0  0  0  0
  162.8330  209.5080  150.4040 C   0  0  1  0  0  3  0  0  0  0  0  0
  161.5810  210.3240  150.6570 C   0  0  0  0  0  2  0  0  0  0  0  0
  162.5490  211.0400  148.6120 O   0  0  0  0  0  0  0  0  0  0  0  0
  161.4830  211.7580  148.0720 C   0  0  0  0  0  2  0  0  0  0  0  0
  161.7270  213.2400  148.2540 C   0  0  0  0  0  1  0  0  0  0  0  0
  1  5  1  6  0  0  0
  1  4  1  0  0  0  0
  2 10  1  6  0  0  0
  2 13  1  0  0  0  0
  3 18  1  0  0  0  0
  4 19  1  0  0  0  0
  4  9  1  0  0  0  0
  6 12  1  0  0  0  0
  7 11  1  0  0  0  0
  8  7  1  0  0  0  0
  9 24  1  0  0  0  0
 11 20  1  0  0  0  0
 13 16  1  0  0  0  0
 14 16  1  0  0  0  0
 14  3  1  0  0  0  0
 15  2  1  0  0  0  0
 15 22  1  0  0  0  0
 16  1  1  0  0  0  0
 17 19  1  0  0  0  0
 18  8  1  0  0  0  0
 19  7  1  0  0  0  0
 20 12  1  0  0  0  0
 21  6  2  0  0  0  0
 22 14  1  0  0  0  0
 23 22  1  0  0  0  0
 24 11  1  0  0  0  0
 24 21  1  0  0  0  0
 25 26  1  0  0  0  0
 25 27  1  0  0  0  0
 26 27  1  0  0  0  0
 26  9  1  0  0  0  0
 28 25  1  0  0  0  0
 29 30  1  0  0  0  0
 29 28  1  0  0  0  0
M  END
>  <MODEL>
7

>  <REMARK>
 VINA RESULT:      -1.0      5.433      8.177
  Name = 
  3 active torsions:
  status: ('A' for Active; 'I' for Inactive)
    1  A    between atoms: C_6  and  O_21
    2  A    between atoms: C_8  and  C_13
    3  A    between atoms: C_9  and  O_21
                            x       y       z     vdW  Elec       q    Type
                         _______ _______ _______ _____ _____    ______ ____

>  <TORSDO>
F 3

$$$$
