=
 OpenBabel11062410543D

 32 37  0  0  1  0  0  0  0  0999 V2000
  160.2160  210.8010  153.5780 C   0  0  2  0  0  3  0  0  0  0  0  0
  162.1810  210.0390  156.8980 C   0  0  0  0  0  2  0  0  0  0  0  0
  160.5210  207.3890  157.0880 C   0  0  0  0  0  1  0  0  0  0  0  0
  161.7700  208.9660  152.5490 C   0  0  1  0  0  3  0  0  0  0  0  0
  161.6920  207.6320  151.8620 C   0  0  0  0  0  0  0  0  0  0  0  0
  158.4430  211.5160  154.8500 C   0  0  2  0  0  3  0  0  0  0  0  0
  159.5760  211.3190  157.2610 C   0  0  0  0  0  1  0  0  0  0  0  0
  161.3980  205.1390  150.6130 C   0  0  0  0  0  3  0  0  0  0  0  0
  160.6990  212.3790  155.3240 O   0  0  0  0  0  0  0  0  0  0  0  0
  162.0420  208.9460  155.8570 C   0  0  2  0  0  3  0  0  0  0  0  0
  160.7480  211.0080  154.9780 C   0  0  2  0  0  0  0  0  0  0  0  0
  162.1030  210.4180  155.4300 C   0  0  1  0  0  3  0  0  0  0  0  0
  159.5670  208.3920  153.6560 O   0  0  0  0  0  0  0  0  0  0  0  0
  161.6710  206.2750  149.8470 C   0  0  0  0  0  3  0  0  0  0  0  0
  159.6510  211.5590  155.7630 C   0  0  2  0  0  0  0  0  0  0  0  0
  161.8120  207.5190  150.4690 C   0  0  0  0  0  3  0  0  0  0  0  0
  160.6330  208.3490  155.9170 C   0  0  1  0  0  3  0  0  0  0  0  0
  160.2700  207.6240  154.6210 C   0  0  2  0  0  3  0  0  0  0  0  0
  161.2790  206.5700  154.1170 C   0  0  0  0  0  2  0  0  0  0  0  0
  158.8560  211.1860  153.5370 O   0  0  0  0  0  0  0  0  0  0  0  0
  162.3080  209.9430  151.7050 O   0  0  0  0  0  1  0  0  0  0  0  0
  161.2630  205.2460  152.0000 C   0  0  0  0  0  3  0  0  0  0  0  0
  160.3680  209.3790  153.0190 C   0  0  1  0  0  3  0  0  0  0  0  0
  161.3970  206.4890  152.6260 C   0  0  0  0  0  0  0  0  0  0  0  0
  157.7090  212.8520  154.8260 C   0  0  0  0  0  2  0  0  0  0  0  0
  157.5130  214.0690  152.7830 C   0  0  0  0  0  3  0  0  0  0  0  0
  157.1090  213.0870  153.5240 N   0  0  0  0  0  0  0  0  0  0  0  0
  157.2850  213.6820  150.4330 C   0  0  0  0  0  3  0  0  0  0  0  0
  156.9310  214.3240  151.5010 N   0  0  0  0  0  0  0  0  0  0  0  0
  156.6640  213.9720  149.1400 C   0  0  0  0  0  0  0  0  0  0  0  0
  157.3820  213.7680  147.9280 N   0  0  0  0  0  2  0  0  0  0  0  0
  155.4540  214.4160  149.1000 N   0  0  0  0  0  1  0  0  0  0  0  0
  1 20  1  1  0  0  0
  1 11  1  0  0  0  0
  4 21  1  6  0  0  0
  4 23  1  0  0  0  0
  5  4  1  0  0  0  0
  5 24  1  0  0  0  0
  6 25  1  6  0  0  0
  6 15  1  0  0  0  0
  8 22  1  0  0  0  0
  9 15  1  0  0  0  0
 10 17  1  0  0  0  0
 10  2  1  1  0  0  0
 11  9  1  6  0  0  0
 11 12  1  0  0  0  0
 11 15  1  0  0  0  0
 12 10  1  0  0  0  0
 12  2  1  1  0  0  0
 13 18  1  0  0  0  0
 14 16  1  0  0  0  0
 14  8  2  0  0  0  0
 15  7  1  1  0  0  0
 16  5  2  0  0  0  0
 17  3  1  1  0  0  0
 18 19  1  6  0  0  0
 18 17  1  0  0  0  0
 20  6  1  0  0  0  0
 22 24  2  0  0  0  0
 23  1  1  0  0  0  0
 23 13  1  1  0  0  0
 24 19  1  0  0  0  0
 26 27  2  0  0  0  0
 27 25  1  0  0  0  0
 28 29  2  0  0  0  0
 29 26  1  0  0  0  0
 30 28  1  0  0  0  0
 31 30  2  0  0  0  0
 32 30  1  0  0  0  0
M  END
>  <MODEL>
1

>  <REMARK>
 VINA RESULT:      -6.3      0.000      0.000
  Name = 
  4 active torsions:
  status: ('A' for Active; 'I' for Inactive)
    1  A    between atoms: C_1  and  C_10
    2  A    between atoms: C_2  and  N_24
    3  A    between atoms: C_8  and  C_23
    4  A    between atoms: N_19  and  C_23
                            x       y       z     vdW  Elec       q    Type
                         _______ _______ _______ _____ _____    ______ ____

>  <TORSDO>
F 4

$$$$
=
 OpenBabel11062410543D

 32 37  0  0  1  0  0  0  0  0999 V2000
  159.8010  212.6670  140.3030 C   0  0  2  0  0  3  0  0  0  0  0  0
  163.2680  211.6640  138.7420 C   0  0  0  0  0  2  0  0  0  0  0  0
  164.3310  214.4500  139.7050 C   0  0  0  0  0  1  0  0  0  0  0  0
  160.9840  212.1760  142.5830 C   0  0  1  0  0  3  0  0  0  0  0  0
  161.3530  212.8590  143.8700 C   0  0  0  0  0  0  0  0  0  0  0  0
  159.3830  213.9350  138.4350 C   0  0  2  0  0  3  0  0  0  0  0  0
  161.5470  213.2780  137.0130 C   0  0  0  0  0  1  0  0  0  0  0  0
  161.9970  214.2680  146.2080 C   0  0  0  0  0  3  0  0  0  0  0  0
  160.1350  211.6050  138.1730 O   0  0  0  0  0  0  0  0  0  0  0  0
  163.2320  212.2460  140.1410 C   0  0  2  0  0  3  0  0  0  0  0  0
  160.8000  212.2300  139.2550 C   0  0  2  0  0  0  0  0  0  0  0  0
  162.0570  211.4080  139.6200 C   0  0  1  0  0  3  0  0  0  0  0  0
  161.0840  214.4530  141.4820 O   0  0  0  0  0  0  0  0  0  0  0  0
  160.9100  213.3890  146.1990 C   0  0  0  0  0  3  0  0  0  0  0  0
  160.4720  212.9590  138.0370 C   0  0  2  0  0  0  0  0  0  0  0  0
  160.5860  212.6910  145.0330 C   0  0  0  0  0  3  0  0  0  0  0  0
  163.0260  213.7610  140.0670 C   0  0  1  0  0  3  0  0  0  0  0  0
  162.4960  214.3260  141.3840 C   0  0  2  0  0  3  0  0  0  0  0  0
  163.2820  213.9530  142.6590 C   0  0  0  0  0  2  0  0  0  0  0  0
  158.9340  213.6320  139.7430 O   0  0  0  0  0  0  0  0  0  0  0  0
  160.0660  211.1440  142.7990 O   0  0  0  0  0  1  0  0  0  0  0  0
  162.7560  214.4520  145.0490 C   0  0  0  0  0  3  0  0  0  0  0  0
  160.4080  213.2080  141.6050 C   0  0  1  0  0  3  0  0  0  0  0  0
  162.4320  213.7610  143.8770 C   0  0  0  0  0  0  0  0  0  0  0  0
  158.2020  213.8820  137.4720 C   0  0  0  0  0  2  0  0  0  0  0  0
  156.8420  211.9320  137.2780 C   0  0  0  0  0  3  0  0  0  0  0  0
  157.1770  212.9780  137.9640 N   0  0  0  0  0  0  0  0  0  0  0  0
  156.0560  210.1250  138.6340 C   0  0  0  0  0  3  0  0  0  0  0  0
  155.8300  211.0310  137.7380 N   0  0  0  0  0  0  0  0  0  0  0  0
  154.9930  209.2240  139.0790 C   0  0  0  0  0  0  0  0  0  0  0  0
  153.8630  209.7250  139.7860 N   0  0  0  0  0  1  0  0  0  0  0  0
  155.0810  207.9610  138.8260 N   0  0  0  0  0  2  0  0  0  0  0  0
  1 20  1  6  0  0  0
  1 23  1  0  0  0  0
  4 21  1  1  0  0  0
  4  5  1  0  0  0  0
  5 24  2  0  0  0  0
  5 16  1  0  0  0  0
  6 25  1  6  0  0  0
  6 20  1  0  0  0  0
 10  2  1  6  0  0  0
 11  9  1  6  0  0  0
 11 12  1  0  0  0  0
 11  1  1  0  0  0  0
 12  2  1  6  0  0  0
 12 10  1  0  0  0  0
 14  8  1  0  0  0  0
 15  7  1  6  0  0  0
 15  9  1  0  0  0  0
 15  6  1  0  0  0  0
 15 11  1  0  0  0  0
 16 14  2  0  0  0  0
 17  3  1  1  0  0  0
 17 10  1  0  0  0  0
 17 18  1  0  0  0  0
 18 13  1  0  0  0  0
 18 19  1  1  0  0  0
 19 24  1  0  0  0  0
 22  8  2  0  0  0  0
 23 13  1  6  0  0  0
 23  4  1  0  0  0  0
 24 22  1  0  0  0  0
 25 27  1  0  0  0  0
 26 29  1  0  0  0  0
 26 27  2  0  0  0  0
 28 30  1  0  0  0  0
 29 28  2  0  0  0  0
 30 31  1  0  0  0  0
 32 30  2  0  0  0  0
M  END
>  <MODEL>
2

>  <REMARK>
 VINA RESULT:      -4.4     10.363     14.216
  Name = 
  4 active torsions:
  status: ('A' for Active; 'I' for Inactive)
    1  A    between atoms: C_1  and  C_10
    2  A    between atoms: C_2  and  N_24
    3  A    between atoms: C_8  and  C_23
    4  A    between atoms: N_19  and  C_23
                            x       y       z     vdW  Elec       q    Type
                         _______ _______ _______ _____ _____    ______ ____

>  <TORSDO>
F 4

$$$$
=
 OpenBabel11062410543D

 32 37  0  0  1  0  0  0  0  0999 V2000
  162.0430  210.5410  140.0690 C   0  0  2  0  0  3  0  0  0  0  0  0
  160.1710  212.2160  137.0440 C   0  0  0  0  0  2  0  0  0  0  0  0
  157.5300  211.8860  138.6970 C   0  0  0  0  0  1  0  0  0  0  0  0
  161.6890  212.8580  141.2290 C   0  0  1  0  0  3  0  0  0  0  0  0
  161.0320  213.4620  142.4370 C   0  0  0  0  0  0  0  0  0  0  0  0
  161.3350  208.4930  139.3080 C   0  0  2  0  0  3  0  0  0  0  0  0
  160.1590  209.2910  137.0470 C   0  0  0  0  0  1  0  0  0  0  0  0
  159.7410  214.4530  144.7210 C   0  0  0  0  0  3  0  0  0  0  0  0
  162.4090  210.0600  137.7430 O   0  0  0  0  0  0  0  0  0  0  0  0
  159.8800  212.7020  138.4490 C   0  0  2  0  0  3  0  0  0  0  0  0
  161.5680  210.7500  138.6480 C   0  0  2  0  0  0  0  0  0  0  0  0
  161.2690  212.1600  138.0890 C   0  0  1  0  0  3  0  0  0  0  0  0
  159.9560  211.0160  141.3530 O   0  0  0  0  0  0  0  0  0  0  0  0
  161.1280  214.2880  144.7200 C   0  0  0  0  0  3  0  0  0  0  0  0
  161.2150  209.4360  138.1290 C   0  0  2  0  0  0  0  0  0  0  0  0
  161.7720  213.7890  143.5840 C   0  0  0  0  0  3  0  0  0  0  0  0
  158.9640  211.7060  139.1640 C   0  0  1  0  0  3  0  0  0  0  0  0
  159.0330  211.8620  140.6830 C   0  0  2  0  0  3  0  0  0  0  0  0
  158.8150  213.2860  141.2390 C   0  0  0  0  0  2  0  0  0  0  0  0
  161.9510  209.1670  140.3900 O   0  0  0  0  0  0  0  0  0  0  0  0
  163.0780  213.0090  141.2750 O   0  0  0  0  0  1  0  0  0  0  0  0
  158.9960  214.1160  143.5880 C   0  0  0  0  0  3  0  0  0  0  0  0
  161.3160  211.3720  141.1350 C   0  0  1  0  0  3  0  0  0  0  0  0
  159.6340  213.6090  142.4510 C   0  0  0  0  0  0  0  0  0  0  0  0
  162.1510  207.2550  138.9570 C   0  0  0  0  0  2  0  0  0  0  0  0
  161.7380  206.5900  141.2110 C   0  0  0  0  0  3  0  0  0  0  0  0
  162.4780  206.4970  140.1520 N   0  0  0  0  0  0  0  0  0  0  0  0
  161.2750  205.8660  143.4430 C   0  0  0  0  0  3  0  0  0  0  0  0
  162.0450  205.8600  142.4020 N   0  0  0  0  0  0  0  0  0  0  0  0
  161.6240  205.1040  144.6420 C   0  0  0  0  0  0  0  0  0  0  0  0
  160.9500  203.8890  144.9540 N   0  0  0  0  0  2  0  0  0  0  0  0
  162.5530  205.5390  145.4250 N   0  0  0  0  0  1  0  0  0  0  0  0
  1 20  1  1  0  0  0
  1 23  1  0  0  0  0
  4 21  1  1  0  0  0
  4  5  1  0  0  0  0
  5 24  2  0  0  0  0
  5 16  1  0  0  0  0
  6 25  1  6  0  0  0
  6 20  1  0  0  0  0
  9 15  1  0  0  0  0
 10  2  1  6  0  0  0
 10 17  1  0  0  0  0
 11  9  1  6  0  0  0
 11  1  1  0  0  0  0
 12  2  1  6  0  0  0
 12 10  1  0  0  0  0
 12 11  1  0  0  0  0
 14  8  1  0  0  0  0
 15  7  1  6  0  0  0
 15 11  1  0  0  0  0
 15  6  1  0  0  0  0
 16 14  2  0  0  0  0
 17  3  1  6  0  0  0
 17 18  1  0  0  0  0
 18 19  1  6  0  0  0
 18 13  1  0  0  0  0
 19 24  1  0  0  0  0
 22  8  2  0  0  0  0
 23  4  1  0  0  0  0
 23 13  1  6  0  0  0
 24 22  1  0  0  0  0
 25 27  1  0  0  0  0
 26 29  1  0  0  0  0
 27 26  2  0  0  0  0
 28 30  1  0  0  0  0
 29 28  2  0  0  0  0
 30 31  2  0  0  0  0
 30 32  1  0  0  0  0
M  END
>  <MODEL>
3

>  <REMARK>
 VINA RESULT:      -4.4     10.330     14.606
  Name = 
  4 active torsions:
  status: ('A' for Active; 'I' for Inactive)
    1  A    between atoms: C_1  and  C_10
    2  A    between atoms: C_2  and  N_24
    3  A    between atoms: C_8  and  C_23
    4  A    between atoms: N_19  and  C_23
                            x       y       z     vdW  Elec       q    Type
                         _______ _______ _______ _____ _____    ______ ____

>  <TORSDO>
F 4

$$$$
=
 OpenBabel11062410543D

 32 37  0  0  1  0  0  0  0  0999 V2000
  160.3150  209.7970  152.5190 C   0  0  2  0  0  3  0  0  0  0  0  0
  160.4500  206.7660  155.0210 C   0  0  0  0  0  2  0  0  0  0  0  0
  162.5700  208.4030  156.6470 C   0  0  0  0  0  1  0  0  0  0  0  0
  158.9440  210.9610  154.4170 C   0  0  1  0  0  3  0  0  0  0  0  0
  158.9940  212.1680  155.3110 C   0  0  0  0  0  0  0  0  0  0  0  0
  162.2530  209.0260  151.5600 C   0  0  2  0  0  3  0  0  0  0  0  0
  162.5150  206.7600  152.9490 C   0  0  0  0  0  1  0  0  0  0  0  0
  159.2290  214.4470  156.9290 C   0  0  0  0  0  3  0  0  0  0  0  0
  160.3780  207.4720  151.9160 O   0  0  0  0  0  0  0  0  0  0  0  0
  160.3230  208.1710  155.5740 C   0  0  2  0  0  3  0  0  0  0  0  0
  160.4960  208.3740  152.9990 C   0  0  2  0  0  0  0  0  0  0  0  0
  159.7140  207.8170  154.2100 C   0  0  1  0  0  3  0  0  0  0  0  0
  161.4720  211.0700  154.3270 O   0  0  0  0  0  0  0  0  0  0  0  0
  158.3580  214.4530  155.8360 C   0  0  0  0  0  3  0  0  0  0  0  0
  161.6690  207.8490  152.3130 C   0  0  2  0  0  0  0  0  0  0  0  0
  158.2450  213.3200  155.0260 C   0  0  0  0  0  3  0  0  0  0  0  0
  161.6790  208.8780  155.5110 C   0  0  1  0  0  3  0  0  0  0  0  0
  161.5300  210.3980  155.5770 C   0  0  2  0  0  3  0  0  0  0  0  0
  160.6870  210.9560  156.7430 C   0  0  0  0  0  2  0  0  0  0  0  0
  161.3480  210.1130  151.6080 O   0  0  0  0  0  0  0  0  0  0  0  0
  157.8500  211.0150  153.5480 O   0  0  0  0  0  1  0  0  0  0  0  0
  159.9890  213.3090  157.2100 C   0  0  0  0  0  3  0  0  0  0  0  0
  160.2530  210.8610  153.6230 C   0  0  1  0  0  3  0  0  0  0  0  0
  159.8840  212.1740  156.3990 C   0  0  0  0  0  0  0  0  0  0  0  0
  162.5420  208.6750  150.1050 C   0  0  0  0  0  2  0  0  0  0  0  0
  161.4920  206.9040  148.8980 C   0  0  0  0  0  3  0  0  0  0  0  0
  162.2880  207.2670  149.8540 N   0  0  0  0  0  0  0  0  0  0  0  0
  161.2040  204.6270  149.5720 C   0  0  0  0  0  3  0  0  0  0  0  0
  161.2210  205.5240  148.6380 N   0  0  0  0  0  0  0  0  0  0  0  0
  160.9210  203.2250  149.2640 C   0  0  0  0  0  0  0  0  0  0  0  0
  161.2060  202.6920  147.9750 N   0  0  0  0  0  2  0  0  0  0  0  0
  160.4080  202.4640  150.1720 N   0  0  0  0  0  1  0  0  0  0  0  0
  1 20  1  6  0  0  0
  1 11  1  0  0  0  0
  1 23  1  0  0  0  0
  4 21  1  6  0  0  0
  4  5  1  0  0  0  0
  5 24  1  0  0  0  0
  6 25  1  6  0  0  0
  6 20  1  0  0  0  0
  6 15  1  0  0  0  0
  8 22  1  0  0  0  0
  9 15  1  0  0  0  0
 10  2  1  1  0  0  0
 11  9  1  6  0  0  0
 11 12  1  0  0  0  0
 12  2  1  6  0  0  0
 12 10  1  0  0  0  0
 13 18  1  0  0  0  0
 14  8  2  0  0  0  0
 15  7  1  1  0  0  0
 15 11  1  0  0  0  0
 16  5  2  0  0  0  0
 16 14  1  0  0  0  0
 17 10  1  0  0  0  0
 17 18  1  0  0  0  0
 17  3  1  1  0  0  0
 18 19  1  6  0  0  0
 23 13  1  1  0  0  0
 23  4  1  0  0  0  0
 24 19  1  0  0  0  0
 24 22  2  0  0  0  0
 26 27  2  0  0  0  0
 27 25  1  0  0  0  0
 29 26  1  0  0  0  0
 29 28  2  0  0  0  0
 30 28  1  0  0  0  0
 30 32  1  0  0  0  0
 31 30  2  0  0  0  0
M  END
>  <MODEL>
4

>  <REMARK>
 VINA RESULT:      -4.2      3.856      7.196
  Name = 
  4 active torsions:
  status: ('A' for Active; 'I' for Inactive)
    1  A    between atoms: C_1  and  C_10
    2  A    between atoms: C_2  and  N_24
    3  A    between atoms: C_8  and  C_23
    4  A    between atoms: N_19  and  C_23
                            x       y       z     vdW  Elec       q    Type
                         _______ _______ _______ _____ _____    ______ ____

>  <TORSDO>
F 4

$$$$
=
 OpenBabel11062410543D

 32 37  0  0  1  0  0  0  0  0999 V2000
  161.8670  208.2430  150.1410 C   0  0  2  0  0  3  0  0  0  0  0  0
  162.7700  205.4530  152.7610 C   0  0  0  0  0  2  0  0  0  0  0  0
  160.1220  204.0120  151.9060 C   0  0  0  0  0  1  0  0  0  0  0  0
  162.6180  206.4620  148.3800 C   0  0  1  0  0  3  0  0  0  0  0  0
  162.0800  205.6930  147.2060 C   0  0  0  0  0  0  0  0  0  0  0  0
  160.4020  209.1340  151.6690 C   0  0  2  0  0  3  0  0  0  0  0  0
  160.9500  207.5280  153.7310 C   0  0  0  0  0  1  0  0  0  0  0  0
  160.9380  204.3110  145.0490 C   0  0  0  0  0  3  0  0  0  0  0  0
  162.7060  208.6130  152.3620 O   0  0  0  0  0  0  0  0  0  0  0  0
  162.3370  205.0420  151.3680 C   0  0  2  0  0  3  0  0  0  0  0  0
  162.2120  207.6250  151.4780 C   0  0  2  0  0  0  0  0  0  0  0  0
  163.0920  206.3600  151.5870 C   0  0  1  0  0  3  0  0  0  0  0  0
  160.2400  206.5790  149.2410 O   0  0  0  0  0  0  0  0  0  0  0  0
  161.7890  205.3940  144.8130 C   0  0  0  0  0  3  0  0  0  0  0  0
  161.3530  208.2640  152.4650 C   0  0  2  0  0  0  0  0  0  0  0  0
  162.3540  206.0860  145.8870 C   0  0  0  0  0  3  0  0  0  0  0  0
  160.8180  205.1840  151.2340 C   0  0  1  0  0  3  0  0  0  0  0  0
  160.3840  205.2690  149.7710 C   0  0  2  0  0  3  0  0  0  0  0  0
  160.9050  204.1590  148.8330 C   0  0  0  0  0  2  0  0  0  0  0  0
  160.8310  209.1880  150.3210 O   0  0  0  0  0  0  0  0  0  0  0  0
  163.6480  207.3250  147.9950 O   0  0  0  0  0  1  0  0  0  0  0  0
  160.6490  203.9230  146.3600 C   0  0  0  0  0  3  0  0  0  0  0  0
  161.4770  207.2500  149.0380 C   0  0  1  0  0  3  0  0  0  0  0  0
  161.2060  204.6160  147.4390 C   0  0  0  0  0  0  0  0  0  0  0  0
  160.3300  210.5490  152.2310 C   0  0  0  0  0  2  0  0  0  0  0  0
  159.3540  210.9460  154.3730 C   0  0  0  0  0  3  0  0  0  0  0  0
  159.1850  210.6940  153.1140 N   0  0  0  0  0  0  0  0  0  0  0  0
  157.0730  211.4740  154.8620 C   0  0  0  0  0  3  0  0  0  0  0  0
  158.2420  211.0860  155.2610 N   0  0  0  0  0  0  0  0  0  0  0  0
  155.9610  211.6030  155.8040 C   0  0  0  0  0  0  0  0  0  0  0  0
  155.7100  212.8370  156.4680 N   0  0  0  0  0  1  0  0  0  0  0  0
  155.1990  210.5870  156.0330 N   0  0  0  0  0  2  0  0  0  0  0  0
  1 20  1  1  0  0  0
  1 11  1  0  0  0  0
  4 21  1  6  0  0  0
  4 23  1  0  0  0  0
  5 24  1  0  0  0  0
  5  4  1  0  0  0  0
  6 25  1  1  0  0  0
  6 15  1  0  0  0  0
  8 22  1  0  0  0  0
  9 15  1  0  0  0  0
 10 12  1  0  0  0  0
 10  2  1  1  0  0  0
 11 12  1  0  0  0  0
 11  9  1  1  0  0  0
 11 15  1  0  0  0  0
 12  2  1  1  0  0  0
 13 18  1  0  0  0  0
 14  8  2  0  0  0  0
 14 16  1  0  0  0  0
 15  7  1  1  0  0  0
 16  5  2  0  0  0  0
 17 10  1  0  0  0  0
 17  3  1  6  0  0  0
 18 19  1  6  0  0  0
 18 17  1  0  0  0  0
 20  6  1  0  0  0  0
 22 24  2  0  0  0  0
 23 13  1  1  0  0  0
 23  1  1  0  0  0  0
 24 19  1  0  0  0  0
 25 27  1  0  0  0  0
 26 29  1  0  0  0  0
 27 26  2  0  0  0  0
 28 29  2  0  0  0  0
 28 30  1  0  0  0  0
 30 32  2  0  0  0  0
 30 31  1  0  0  0  0
M  END
>  <MODEL>
5

>  <REMARK>
 VINA RESULT:      -4.0      3.157      5.458
  Name = 
  4 active torsions:
  status: ('A' for Active; 'I' for Inactive)
    1  A    between atoms: C_1  and  C_10
    2  A    between atoms: C_2  and  N_24
    3  A    between atoms: C_8  and  C_23
    4  A    between atoms: N_19  and  C_23
                            x       y       z     vdW  Elec       q    Type
                         _______ _______ _______ _____ _____    ______ ____

>  <TORSDO>
F 4

$$$$
=
 OpenBabel11062410543D

 32 37  0  0  1  0  0  0  0  0999 V2000
  161.6530  208.3060  150.5370 C   0  0  2  0  0  3  0  0  0  0  0  0
  162.8900  205.4530  152.9450 C   0  0  0  0  0  2  0  0  0  0  0  0
  160.3470  203.8380  152.0840 C   0  0  0  0  0  1  0  0  0  0  0  0
  162.4890  206.7070  148.6430 C   0  0  1  0  0  3  0  0  0  0  0  0
  161.9770  205.9660  147.4410 C   0  0  0  0  0  0  0  0  0  0  0  0
  160.1750  208.9690  152.1640 C   0  0  2  0  0  3  0  0  0  0  0  0
  160.9350  207.2950  154.1020 C   0  0  0  0  0  1  0  0  0  0  0  0
  160.8790  204.6220  145.2380 C   0  0  0  0  0  3  0  0  0  0  0  0
  162.5390  208.6130  152.7490 O   0  0  0  0  0  0  0  0  0  0  0  0
  162.4430  205.0900  151.5430 C   0  0  2  0  0  3  0  0  0  0  0  0
  162.0990  207.6410  151.8200 C   0  0  2  0  0  0  0  0  0  0  0  0
  163.0890  206.4540  151.8210 C   0  0  1  0  0  3  0  0  0  0  0  0
  160.1440  206.5610  149.5860 O   0  0  0  0  0  0  0  0  0  0  0  0
  161.6240  205.7880  145.0440 C   0  0  0  0  0  3  0  0  0  0  0  0
  161.2260  208.1400  152.8730 C   0  0  2  0  0  0  0  0  0  0  0  0
  162.1660  206.4610  146.1420 C   0  0  0  0  0  3  0  0  0  0  0  0
  160.9140  205.1040  151.4660 C   0  0  1  0  0  3  0  0  0  0  0  0
  160.4200  205.2390  150.0260 C   0  0  2  0  0  3  0  0  0  0  0  0
  160.9990  204.2380  149.0040 C   0  0  0  0  0  2  0  0  0  0  0  0
  160.5470  209.1420  150.8090 O   0  0  0  0  0  0  0  0  0  0  0  0
  163.4260  207.6800  148.2820 O   0  0  0  0  0  1  0  0  0  0  0  0
  160.6730  204.1310  146.5300 C   0  0  0  0  0  3  0  0  0  0  0  0
  161.3100  207.3500  149.3860 C   0  0  1  0  0  3  0  0  0  0  0  0
  161.2080  204.8040  147.6330 C   0  0  0  0  0  0  0  0  0  0  0  0
  160.0010  210.3350  152.8170 C   0  0  0  0  0  2  0  0  0  0  0  0
  158.6750  212.2890  152.4710 C   0  0  0  0  0  3  0  0  0  0  0  0
  159.1910  211.2060  151.9830 N   0  0  0  0  0  0  0  0  0  0  0  0
  157.7580  213.0230  150.3880 C   0  0  0  0  0  3  0  0  0  0  0  0
  157.8680  213.1570  151.6710 N   0  0  0  0  0  0  0  0  0  0  0  0
  156.9210  213.9320  149.6050 C   0  0  0  0  0  0  0  0  0  0  0  0
  157.3790  214.4530  148.3610 N   0  0  0  0  0  2  0  0  0  0  0  0
  155.7550  214.2640  150.0470 N   0  0  0  0  0  1  0  0  0  0  0  0
  1 20  1  1  0  0  0
  1 11  1  0  0  0  0
  4 21  1  6  0  0  0
  4 23  1  0  0  0  0
  5 24  1  0  0  0  0
  5  4  1  0  0  0  0
  6 25  1  1  0  0  0
  6 15  1  0  0  0  0
  8 22  1  0  0  0  0
  9 15  1  0  0  0  0
 10 12  1  0  0  0  0
 10  2  1  1  0  0  0
 11 12  1  0  0  0  0
 11  9  1  1  0  0  0
 11 15  1  0  0  0  0
 12  2  1  1  0  0  0
 13 18  1  0  0  0  0
 14  8  2  0  0  0  0
 14 16  1  0  0  0  0
 15  7  1  1  0  0  0
 16  5  2  0  0  0  0
 17 10  1  0  0  0  0
 17  3  1  6  0  0  0
 18 19  1  6  0  0  0
 18 17  1  0  0  0  0
 20  6  1  0  0  0  0
 22 24  2  0  0  0  0
 23 13  1  1  0  0  0
 23  1  1  0  0  0  0
 24 19  1  0  0  0  0
 27 26  2  0  0  0  0
 27 25  1  0  0  0  0
 28 29  2  0  0  0  0
 29 26  1  0  0  0  0
 30 32  1  0  0  0  0
 30 28  1  0  0  0  0
 31 30  2  0  0  0  0
M  END
>  <MODEL>
6

>  <REMARK>
 VINA RESULT:      -3.5      2.384      4.475
  Name = 
  4 active torsions:
  status: ('A' for Active; 'I' for Inactive)
    1  A    between atoms: C_1  and  C_10
    2  A    between atoms: C_2  and  N_24
    3  A    between atoms: C_8  and  C_23
    4  A    between atoms: N_19  and  C_23
                            x       y       z     vdW  Elec       q    Type
                         _______ _______ _______ _____ _____    ______ ____

>  <TORSDO>
F 4

$$$$
