=
 OpenBabel11052423073D

 27 31  0  0  1  0  0  0  0  0999 V2000
  159.9340  211.3770  151.6320 C   0  0  0  0  0  2  0  0  0  0  0  0
  161.5890  209.7310  150.9180 N   0  0  0  0  0  0  0  0  0  0  0  0
  161.3060  209.0210  153.3480 N   0  0  0  0  0  2  0  0  0  0  0  0
  160.9500  205.3650  149.6720 C   0  0  0  0  0  3  0  0  0  0  0  0
  160.6210  203.8150  151.4130 O   0  0  0  0  0  1  0  0  0  0  0  0
  161.5120  209.0630  149.7120 O   0  0  0  0  0  0  0  0  0  0  0  0
  161.0420  206.2030  152.0520 C   0  0  0  0  0  0  0  0  0  0  0  0
  161.1610  209.7490  156.3420 N   0  0  0  0  0  0  0  0  0  0  0  0
  162.2030  205.8510  152.9660 C   0  0  0  0  0  1  0  0  0  0  0  0
  159.7630  209.9920  156.0870 C   0  0  0  0  0  3  0  0  0  0  0  0
  161.2820  207.5400  151.4130 C   0  0  0  0  0  0  0  0  0  0  0  0
  161.3340  211.1550  151.0800 C   0  0  1  0  0  3  0  0  0  0  0  0
  160.8740  205.1160  150.9970 C   0  0  0  0  0  0  0  0  0  0  0  0
  161.1880  206.7210  149.1250 C   0  0  0  0  0  3  0  0  0  0  0  0
  160.0360  212.1020  152.9580 C   0  0  0  0  0  2  0  0  0  0  0  0
  161.4190  208.7470  151.9480 C   0  0  0  0  0  0  0  0  0  0  0  0
  162.0730  209.9130  155.4200 C   0  0  0  0  0  3  0  0  0  0  0  0
  161.3350  207.7200  149.9840 C   0  0  1  0  0  3  0  0  0  0  0  0
  159.3850  210.6760  155.0020 C   0  0  0  0  0  3  0  0  0  0  0  0
  160.4740  211.2220  154.1310 C   0  0  1  0  0  3  0  0  0  0  0  0
  161.6790  210.2690  154.0100 C   0  0  2  0  0  3  0  0  0  0  0  0
  162.0090  213.4130  147.4840 C   0  0  0  0  0  3  0  0  0  0  0  0
  161.5760  211.9220  149.8150 C   0  0  0  0  0  0  0  0  0  0  0  0
  160.7610  213.0210  149.5210 C   0  0  0  0  0  3  0  0  0  0  0  0
  160.9750  213.7640  148.3570 C   0  0  0  0  0  3  0  0  0  0  0  0
  162.8300  212.3210  147.7750 C   0  0  0  0  0  3  0  0  0  0  0  0
  162.6160  211.5770  148.9390 C   0  0  0  0  0  3  0  0  0  0  0  0
  1 15  1  0  0  0  0
  2 12  1  0  0  0  0
  2 16  1  0  0  0  0
  3 21  1  0  0  0  0
  4 13  1  0  0  0  0
  6 18  1  0  0  0  0
  6  2  1  0  0  0  0
  7  9  1  0  0  0  0
 10  8  1  0  0  0  0
 11 16  2  0  0  0  0
 11  7  1  0  0  0  0
 12 23  1  6  0  0  0
 12  1  1  0  0  0  0
 13  5  1  0  0  0  0
 13  7  2  0  0  0  0
 14  4  2  0  0  0  0
 16  3  1  0  0  0  0
 17  8  2  0  0  0  0
 18 14  1  6  0  0  0
 18 11  1  0  0  0  0
 19 10  2  0  0  0  0
 20 15  1  6  0  0  0
 20 19  1  0  0  0  0
 21 20  1  0  0  0  0
 21 17  1  1  0  0  0
 22 26  2  0  0  0  0
 22 25  1  0  0  0  0
 24 23  1  0  0  0  0
 25 24  2  0  0  0  0
 26 27  1  0  0  0  0
 27 23  2  0  0  0  0
M  END
>  <MODEL>
1

>  <REMARK>
 VINA RESULT:      -7.1      0.000      0.000
  Name = 
  1 active torsions:
  status: ('A' for Active; 'I' for Inactive)
    1  A    between atoms: C_9  and  C_15
                            x       y       z     vdW  Elec       q    Type
                         _______ _______ _______ _____ _____    ______ ____

>  <TORSDO>
F 1

$$$$
=
 OpenBabel11052423073D

 27 31  0  0  1  0  0  0  0  0999 V2000
  162.6960  207.2630  149.1490 C   0  0  0  0  0  2  0  0  0  0  0  0
  160.9560  205.9280  150.2190 N   0  0  0  0  0  0  0  0  0  0  0  0
  160.8260  204.9790  147.8600 N   0  0  0  0  0  2  0  0  0  0  0  0
  161.1980  201.6410  151.8270 C   0  0  0  0  0  3  0  0  0  0  0  0
  161.0990  199.9160  150.2280 O   0  0  0  0  0  1  0  0  0  0  0  0
  161.1050  205.3640  151.4710 O   0  0  0  0  0  0  0  0  0  0  0  0
  160.9010  202.2740  149.4000 C   0  0  1  0  0  3  0  0  0  0  0  0
  160.6680  205.4160  144.8110 N   0  0  0  0  0  0  0  0  0  0  0  0
  159.5950  202.0070  148.6720 C   0  0  0  0  0  1  0  0  0  0  0  0
  162.1060  205.4860  144.8720 C   0  0  0  0  0  3  0  0  0  0  0  0
  160.9170  203.6820  149.9210 C   0  0  0  0  0  0  0  0  0  0  0  0
  161.3640  207.2850  149.8820 C   0  0  1  0  0  3  0  0  0  0  0  0
  161.0690  201.2700  150.5350 C   0  0  0  0  0  0  0  0  0  0  0  0
  161.2060  203.0600  152.2540 C   0  0  0  0  0  3  0  0  0  0  0  0
  162.5140  207.8770  147.7760 C   0  0  0  0  0  2  0  0  0  0  0  0
  160.8650  204.8450  149.2840 C   0  0  0  0  0  0  0  0  0  0  0  0
  159.9130  205.7840  145.8120 C   0  0  0  0  0  3  0  0  0  0  0  0
  161.0750  203.9900  151.3200 C   0  0  0  0  0  0  0  0  0  0  0  0
  162.7060  206.2030  145.8280 C   0  0  0  0  0  3  0  0  0  0  0  0
  161.8180  206.9670  146.7600 C   0  0  1  0  0  3  0  0  0  0  0  0
  160.5300  206.2030  147.1210 C   0  0  2  0  0  3  0  0  0  0  0  0
  161.4250  209.9200  153.2790 C   0  0  0  0  0  3  0  0  0  0  0  0
  161.3890  208.1840  151.0800 C   0  0  0  0  0  0  0  0  0  0  0  0
  161.9560  209.4580  150.9620 C   0  0  0  0  0  3  0  0  0  0  0  0
  161.9770  210.3240  152.0590 C   0  0  0  0  0  3  0  0  0  0  0  0
  160.8520  208.6520  153.4020 C   0  0  0  0  0  3  0  0  0  0  0  0
  160.8310  207.7860  152.3050 C   0  0  0  0  0  3  0  0  0  0  0  0
  1 12  1  0  0  0  0
  2  6  1  0  0  0  0
  3 16  1  0  0  0  0
  4 14  1  0  0  0  0
  5 13  1  0  0  0  0
  7  9  1  1  0  0  0
  7 11  1  0  0  0  0
  7 13  1  0  0  0  0
  8 10  1  0  0  0  0
  8 17  2  0  0  0  0
 10 19  2  0  0  0  0
 11 18  1  0  0  0  0
 12  2  1  0  0  0  0
 12 23  1  1  0  0  0
 13  4  2  0  0  0  0
 15  1  1  0  0  0  0
 16 11  2  0  0  0  0
 16  2  1  0  0  0  0
 18  6  1  0  0  0  0
 18 14  2  0  0  0  0
 20 19  1  1  0  0  0
 20 21  1  0  0  0  0
 20 15  1  0  0  0  0
 21 17  1  6  0  0  0
 21  3  1  0  0  0  0
 22 26  1  0  0  0  0
 23 27  1  0  0  0  0
 24 23  2  0  0  0  0
 24 25  1  0  0  0  0
 25 22  2  0  0  0  0
 27 26  2  0  0  0  0
M  END
>  <MODEL>
2

>  <REMARK>
 VINA RESULT:      -5.9      3.138      6.732
  Name = 
  1 active torsions:
  status: ('A' for Active; 'I' for Inactive)
    1  A    between atoms: C_9  and  C_15
                            x       y       z     vdW  Elec       q    Type
                         _______ _______ _______ _____ _____    ______ ____

>  <TORSDO>
F 1

$$$$
=
 OpenBabel11052423073D

 27 31  0  0  1  0  0  0  0  0999 V2000
  161.5810  209.2320  153.8640 C   0  0  0  0  0  2  0  0  0  0  0  0
  160.7220  209.5580  151.6030 N   0  0  0  0  0  0  0  0  0  0  0  0
  159.8430  211.6820  152.7000 N   0  0  0  0  0  2  0  0  0  0  0  0
  162.4370  212.1350  148.2200 C   0  0  0  0  0  3  0  0  0  0  0  0
  162.0450  214.4520  148.3660 O   0  0  0  0  0  1  0  0  0  0  0  0
  161.4720  209.3070  150.4710 O   0  0  0  0  0  0  0  0  0  0  0  0
  161.0670  212.9970  150.1580 C   0  0  0  0  0  0  0  0  0  0  0  0
  158.3840  213.0720  155.0350 N   0  0  0  0  0  0  0  0  0  0  0  0
  159.6590  213.5290  149.9520 C   0  0  0  0  0  1  0  0  0  0  0  0
  159.6800  213.0970  155.6660 C   0  0  0  0  0  3  0  0  0  0  0  0
  161.0130  211.5530  150.5670 C   0  0  0  0  0  0  0  0  0  0  0  0
  160.6820  208.6840  152.7660 C   0  0  1  0  0  3  0  0  0  0  0  0
  161.8730  213.1710  148.8760 C   0  0  0  0  0  0  0  0  0  0  0  0
  162.3350  210.7360  148.6970 C   0  0  0  0  0  3  0  0  0  0  0  0
  160.7420  209.5100  155.0950 C   0  0  0  0  0  2  0  0  0  0  0  0
  160.4780  210.9710  151.6330 C   0  0  0  0  0  0  0  0  0  0  0  0
  158.0410  212.1350  154.1920 C   0  0  0  0  0  3  0  0  0  0  0  0
  161.6560  210.5080  149.8120 C   0  0  1  0  0  3  0  0  0  0  0  0
  160.4600  212.0100  155.6460 C   0  0  0  0  0  3  0  0  0  0  0  0
  159.8910  210.7800  155.0090 C   0  0  1  0  0  3  0  0  0  0  0  0
  159.0370  211.0880  153.7650 C   0  0  2  0  0  3  0  0  0  0  0  0
  161.5830  204.5860  151.8240 C   0  0  0  0  0  3  0  0  0  0  0  0
  161.0100  207.2630  152.4190 C   0  0  0  0  0  0  0  0  0  0  0  0
  161.1730  206.3320  153.4510 C   0  0  0  0  0  3  0  0  0  0  0  0
  161.4610  204.9970  153.1540 C   0  0  0  0  0  3  0  0  0  0  0  0
  161.4150  205.5100  150.7880 C   0  0  0  0  0  3  0  0  0  0  0  0
  161.1270  206.8450  151.0840 C   0  0  0  0  0  3  0  0  0  0  0  0
  1 15  1  0  0  0  0
  2 16  1  0  0  0  0
  2 12  1  0  0  0  0
  3 21  1  0  0  0  0
  4 14  2  0  0  0  0
  4 13  1  0  0  0  0
  5 13  1  0  0  0  0
  6  2  1  0  0  0  0
  7 11  1  0  0  0  0
  8 10  1  0  0  0  0
  9  7  1  0  0  0  0
 11 16  2  0  0  0  0
 12 23  1  6  0  0  0
 12  1  1  0  0  0  0
 13  7  2  0  0  0  0
 16  3  1  0  0  0  0
 17  8  2  0  0  0  0
 18 14  1  1  0  0  0
 18  6  1  0  0  0  0
 18 11  1  0  0  0  0
 19 10  2  0  0  0  0
 20 15  1  6  0  0  0
 20 19  1  0  0  0  0
 21 17  1  1  0  0  0
 21 20  1  0  0  0  0
 22 25  1  0  0  0  0
 23 24  1  0  0  0  0
 25 24  2  0  0  0  0
 26 27  1  0  0  0  0
 26 22  2  0  0  0  0
 27 23  2  0  0  0  0
M  END
>  <MODEL>
3

>  <REMARK>
 VINA RESULT:      -5.5      1.904      5.776
  Name = 
  1 active torsions:
  status: ('A' for Active; 'I' for Inactive)
    1  A    between atoms: C_9  and  C_15
                            x       y       z     vdW  Elec       q    Type
                         _______ _______ _______ _____ _____    ______ ____

>  <TORSDO>
F 1

$$$$
=
 OpenBabel11052423073D

 27 31  0  0  1  0  0  0  0  0999 V2000
  162.0810  206.7590  153.4760 C   0  0  0  0  0  2  0  0  0  0  0  0
  160.8620  207.6860  151.5750 N   0  0  0  0  0  0  0  0  0  0  0  0
  160.6600  209.6370  153.2000 N   0  0  0  0  0  2  0  0  0  0  0  0
  162.3260  210.6290  148.3780 C   0  0  0  0  0  3  0  0  0  0  0  0
  162.4360  212.8940  149.0110 O   0  0  0  0  0  1  0  0  0  0  0  0
  161.3020  207.5690  150.2720 O   0  0  0  0  0  0  0  0  0  0  0  0
  161.5760  211.2590  150.7060 C   0  0  0  0  0  0  0  0  0  0  0  0
  160.0100  210.7070  156.0190 N   0  0  0  0  0  0  0  0  0  0  0  0
  160.2890  212.0320  150.9350 C   0  0  0  0  0  1  0  0  0  0  0  0
  161.3860  210.3980  156.3180 C   0  0  0  0  0  3  0  0  0  0  0  0
  161.3230  209.7870  150.8600 C   0  0  0  0  0  0  0  0  0  0  0  0
  160.8880  206.6010  152.5460 C   0  0  1  0  0  3  0  0  0  0  0  0
  162.1230  211.5760  149.3190 C   0  0  0  0  0  0  0  0  0  0  0  0
  162.0500  209.1930  148.6170 C   0  0  0  0  0  3  0  0  0  0  0  0
  161.5820  206.8950  154.9000 C   0  0  0  0  0  2  0  0  0  0  0  0
  160.9130  209.0810  151.9060 C   0  0  0  0  0  0  0  0  0  0  0  0
  159.3240  210.0330  155.1330 C   0  0  0  0  0  3  0  0  0  0  0  0
  161.5810  208.8400  149.8050 C   0  0  1  0  0  3  0  0  0  0  0  0
  161.9150  209.2340  155.9250 C   0  0  0  0  0  3  0  0  0  0  0  0
  160.9990  208.2690  155.2400 C   0  0  1  0  0  3  0  0  0  0  0  0
  159.9870  208.9620  154.3070 C   0  0  2  0  0  3  0  0  0  0  0  0
  160.8260  202.7600  150.6150 C   0  0  0  0  0  3  0  0  0  0  0  0
  160.8520  205.2540  151.8910 C   0  0  0  0  0  0  0  0  0  0  0  0
  160.8470  205.1780  150.4930 C   0  0  0  0  0  3  0  0  0  0  0  0
  160.8310  203.9340  149.8570 C   0  0  0  0  0  3  0  0  0  0  0  0
  160.8370  202.8280  152.0110 C   0  0  0  0  0  3  0  0  0  0  0  0
  160.8520  204.0720  152.6480 C   0  0  0  0  0  3  0  0  0  0  0  0
  1 15  1  0  0  0  0
  2 16  1  0  0  0  0
  2 12  1  0  0  0  0
  3 21  1  0  0  0  0
  4 14  2  0  0  0  0
  4 13  1  0  0  0  0
  5 13  1  0  0  0  0
  6  2  1  0  0  0  0
  7 11  1  0  0  0  0
  7  9  1  0  0  0  0
  8 10  1  0  0  0  0
 11 16  2  0  0  0  0
 12 23  1  6  0  0  0
 12  1  1  0  0  0  0
 13  7  2  0  0  0  0
 16  3  1  0  0  0  0
 17  8  2  0  0  0  0
 18 14  1  1  0  0  0
 18  6  1  0  0  0  0
 18 11  1  0  0  0  0
 19 10  2  0  0  0  0
 20 15  1  6  0  0  0
 20 19  1  0  0  0  0
 21 17  1  1  0  0  0
 21 20  1  0  0  0  0
 22 26  1  0  0  0  0
 23 27  1  0  0  0  0
 24 23  2  0  0  0  0
 25 24  1  0  0  0  0
 25 22  2  0  0  0  0
 26 27  2  0  0  0  0
M  END
>  <MODEL>
4

>  <REMARK>
 VINA RESULT:      -5.5      1.669      5.801
  Name = 
  1 active torsions:
  status: ('A' for Active; 'I' for Inactive)
    1  A    between atoms: C_9  and  C_15
                            x       y       z     vdW  Elec       q    Type
                         _______ _______ _______ _____ _____    ______ ____

>  <TORSDO>
F 1

$$$$
=
 OpenBabel11052423073D

 27 31  0  0  1  0  0  0  0  0999 V2000
  159.2530  212.7420  147.5910 C   0  0  0  0  0  2  0  0  0  0  0  0
  161.3730  211.8450  148.4010 N   0  0  0  0  0  0  0  0  0  0  0  0
  160.2760  212.4140  150.6280 N   0  0  0  0  0  2  0  0  0  0  0  0
  162.2890  207.6590  150.0340 C   0  0  0  0  0  3  0  0  0  0  0  0
  161.6210  207.2290  152.2500 O   0  0  0  0  0  1  0  0  0  0  0  0
  161.9520  210.7020  147.8840 O   0  0  0  0  0  0  0  0  0  0  0  0
  161.2020  209.5270  151.3390 C   0  0  0  0  0  0  0  0  0  0  0  0
  158.7500  214.4070  152.4200 N   0  0  0  0  0  0  0  0  0  0  0  0
  161.9280  210.2140  152.4830 C   0  0  0  0  0  1  0  0  0  0  0  0
  157.5660  213.8690  151.7970 C   0  0  0  0  0  3  0  0  0  0  0  0
  161.3820  210.3140  150.0730 C   0  0  0  0  0  0  0  0  0  0  0  0
  160.7670  212.8910  147.5900 C   0  0  1  0  0  3  0  0  0  0  0  0
  161.7290  208.1060  151.1780 C   0  0  0  0  0  0  0  0  0  0  0  0
  162.4260  208.5070  148.8260 C   0  0  0  0  0  3  0  0  0  0  0  0
  158.6340  213.9990  148.1680 C   0  0  0  0  0  2  0  0  0  0  0  0
  161.0150  211.5500  149.7580 C   0  0  0  0  0  0  0  0  0  0  0  0
  159.9000  214.4530  151.8000 C   0  0  0  0  0  3  0  0  0  0  0  0
  161.9800  209.7530  148.8880 C   0  0  1  0  0  3  0  0  0  0  0  0
  157.5300  213.6780  150.4730 C   0  0  0  0  0  3  0  0  0  0  0  0
  158.7310  214.1120  149.6920 C   0  0  1  0  0  3  0  0  0  0  0  0
  160.0560  213.8440  150.4310 C   0  0  2  0  0  3  0  0  0  0  0  0
  162.4530  212.9900  143.6360 C   0  0  0  0  0  3  0  0  0  0  0  0
  161.3330  212.9330  146.2030 C   0  0  0  0  0  0  0  0  0  0  0  0
  162.6730  213.2970  146.0280 C   0  0  0  0  0  3  0  0  0  0  0  0
  163.2320  213.3280  144.7470 C   0  0  0  0  0  3  0  0  0  0  0  0
  161.1170  212.6210  143.8050 C   0  0  0  0  0  3  0  0  0  0  0  0
  160.5570  212.5900  145.0860 C   0  0  0  0  0  3  0  0  0  0  0  0
  1 15  1  0  0  0  0
  2 16  1  0  0  0  0
  4 13  1  0  0  0  0
  6  2  1  0  0  0  0
  6 18  1  0  0  0  0
  7  9  1  0  0  0  0
 10  8  1  0  0  0  0
 11  7  1  0  0  0  0
 12 23  1  6  0  0  0
 12  1  1  0  0  0  0
 12  2  1  0  0  0  0
 13  7  2  0  0  0  0
 13  5  1  0  0  0  0
 14  4  2  0  0  0  0
 16 11  2  0  0  0  0
 16  3  1  0  0  0  0
 17  8  2  0  0  0  0
 18 14  1  6  0  0  0
 18 11  1  0  0  0  0
 19 10  2  0  0  0  0
 20 15  1  6  0  0  0
 20 21  1  0  0  0  0
 20 19  1  0  0  0  0
 21  3  1  0  0  0  0
 21 17  1  1  0  0  0
 22 26  2  0  0  0  0
 22 25  1  0  0  0  0
 24 23  1  0  0  0  0
 25 24  2  0  0  0  0
 26 27  1  0  0  0  0
 27 23  2  0  0  0  0
M  END
>  <MODEL>
5

>  <REMARK>
 VINA RESULT:      -4.6      2.711      4.338
  Name = 
  1 active torsions:
  status: ('A' for Active; 'I' for Inactive)
    1  A    between atoms: C_9  and  C_15
                            x       y       z     vdW  Elec       q    Type
                         _______ _______ _______ _____ _____    ______ ____

>  <TORSDO>
F 1

$$$$
=
 OpenBabel11052423073D

 27 31  0  0  1  0  0  0  0  0999 V2000
  160.2720  208.4940  152.3840 C   0  0  0  0  0  2  0  0  0  0  0  0
  161.4030  210.6020  151.9020 N   0  0  0  0  0  0  0  0  0  0  0  0
  161.6650  209.4550  149.6430 N   0  0  0  0  0  2  0  0  0  0  0  0
  159.7880  214.3010  149.7250 C   0  0  0  0  0  3  0  0  0  0  0  0
  159.6940  214.1760  147.3760 O   0  0  0  0  0  1  0  0  0  0  0  0
  160.9080  211.8280  152.3000 O   0  0  0  0  0  0  0  0  0  0  0  0
  160.6340  212.2030  148.6030 C   0  0  1  0  0  3  0  0  0  0  0  0
  162.4310  206.9700  147.9840 N   0  0  0  0  0  0  0  0  0  0  0  0
  161.9270  212.2040  147.8050 C   0  0  0  0  0  1  0  0  0  0  0  0
  161.0710  206.5520  148.2140 C   0  0  0  0  0  3  0  0  0  0  0  0
  160.9010  211.7400  150.0070 C   0  0  0  0  0  0  0  0  0  0  0  0
  161.4240  209.4170  152.7470 C   0  0  1  0  0  3  0  0  0  0  0  0
  160.0270  213.6000  148.5960 C   0  0  0  0  0  0  0  0  0  0  0  0
  160.0810  213.7650  151.0750 C   0  0  0  0  0  3  0  0  0  0  0  0
  160.8310  207.1570  151.9420 C   0  0  0  0  0  2  0  0  0  0  0  0
  161.3600  210.5840  150.4690 C   0  0  0  0  0  0  0  0  0  0  0  0
  163.0810  207.7160  148.8390 C   0  0  0  0  0  3  0  0  0  0  0  0
  160.6030  212.5500  151.1610 C   0  0  0  0  0  0  0  0  0  0  0  0
  160.5310  206.6560  149.4330 C   0  0  0  0  0  3  0  0  0  0  0  0
  161.4220  207.1520  150.5290 C   0  0  1  0  0  3  0  0  0  0  0  0
  162.3890  208.2570  150.0620 C   0  0  2  0  0  3  0  0  0  0  0  0
  161.4290  210.3480  156.9460 C   0  0  0  0  0  3  0  0  0  0  0  0
  161.4390  209.7620  154.2060 C   0  0  0  0  0  0  0  0  0  0  0  0
  160.3190  209.4550  154.9870 C   0  0  0  0  0  3  0  0  0  0  0  0
  160.3130  209.7490  156.3540 C   0  0  0  0  0  3  0  0  0  0  0  0
  162.5520  210.6510  156.1720 C   0  0  0  0  0  3  0  0  0  0  0  0
  162.5590  210.3580  154.8050 C   0  0  0  0  0  3  0  0  0  0  0  0
  1 12  1  0  0  0  0
  2  6  1  0  0  0  0
  2 12  1  0  0  0  0
  3 21  1  0  0  0  0
  3 16  1  0  0  0  0
  4 14  1  0  0  0  0
  5 13  1  0  0  0  0
  7  9  1  6  0  0  0
  7 11  1  0  0  0  0
  8 10  1  0  0  0  0
  8 17  2  0  0  0  0
 10 19  2  0  0  0  0
 11 16  2  0  0  0  0
 11 18  1  0  0  0  0
 12 23  1  1  0  0  0
 13  7  1  0  0  0  0
 13  4  2  0  0  0  0
 14 18  2  0  0  0  0
 15  1  1  0  0  0  0
 16  2  1  0  0  0  0
 18  6  1  0  0  0  0
 20 19  1  6  0  0  0
 20 15  1  0  0  0  0
 21 17  1  6  0  0  0
 21 20  1  0  0  0  0
 23 27  2  0  0  0  0
 23 24  1  0  0  0  0
 24 25  2  0  0  0  0
 25 22  1  0  0  0  0
 26 22  2  0  0  0  0
 27 26  1  0  0  0  0
M  END
>  <MODEL>
6

>  <REMARK>
 VINA RESULT:      -4.4      2.299      6.762
  Name = 
  1 active torsions:
  status: ('A' for Active; 'I' for Inactive)
    1  A    between atoms: C_9  and  C_15
                            x       y       z     vdW  Elec       q    Type
                         _______ _______ _______ _____ _____    ______ ____

>  <TORSDO>
F 1

$$$$
