=
 OpenBabel11052422423D

 31 37  0  0  1  0  0  0  0  0999 V2000
  161.5450  205.6350  144.1700 C   0  0  0  0  0  0  0  0  0  0  0  0
  160.4540  205.8780  147.6220 C   0  0  1  0  0  3  0  0  0  0  0  0
  161.2140  206.3790  146.4900 N   0  0  2  0  0  0  0  0  0  0  0  0
  162.8030  205.1350  144.4760 O   0  0  0  0  0  0  0  0  0  0  0  0
  161.4360  205.4170  148.6050 C   0  0  1  0  0  0  0  0  0  0  0  0
  161.2280  205.8900  142.9800 O   0  0  0  0  0  0  0  0  0  0  0  0
  161.6900  207.4590  149.6830 C   0  0  1  0  0  3  0  0  0  0  0  0
  162.7430  205.5610  148.0870 O   0  0  0  0  0  0  0  0  0  0  0  0
  160.6120  206.7000  148.9470 C   0  0  2  0  0  0  0  0  0  0  0  0
  160.5680  205.8350  145.2830 C   0  0  0  0  0  2  0  0  0  0  0  0
  162.6010  205.9290  146.7400 C   0  0  1  0  0  3  0  0  0  0  0  0
  163.0870  204.7970  145.8250 C   0  0  0  0  0  2  0  0  0  0  0  0
  161.1570  207.9360  148.5020 O   0  0  0  0  0  0  0  0  0  0  0  0
  161.2950  203.9230  150.7270 C   0  0  0  0  0  2  0  0  0  0  0  0
  161.0690  204.0600  149.2300 C   0  0  0  0  0  0  0  0  0  0  0  0
  159.8900  204.1110  150.1900 C   0  0  0  0  0  2  0  0  0  0  0  0
  161.1580  200.4560  146.8620 C   0  0  0  0  0  0  0  0  0  0  0  0
  160.9400  202.8570  147.0370 C   0  0  0  0  0  3  0  0  0  0  0  0
  161.6650  201.3580  150.7490 Cl  0  0  0  0  0  0  0  0  0  0  0  0
  161.1790  199.0030  145.8870 Cl  0  0  0  0  0  0  0  0  0  0  0  0
  160.9540  201.6990  146.2590 C   0  0  0  0  0  3  0  0  0  0  0  0
  161.3610  201.5320  149.0260 C   0  0  0  0  0  0  0  0  0  0  0  0
  161.1260  202.7880  148.4260 C   0  0  0  0  0  0  0  0  0  0  0  0
  161.3670  200.3750  148.2410 C   0  0  0  0  0  3  0  0  0  0  0  0
  161.2090  208.3110  150.7720 N   0  0  0  0  0  2  0  0  0  0  0  0
  161.0670  208.0150  152.1700 C   0  0  0  0  0  0  0  0  0  0  0  0
  160.7230  208.6810  154.4790 C   0  0  0  0  0  3  0  0  0  0  0  0
  160.8260  209.0110  153.1250 C   0  0  0  0  0  3  0  0  0  0  0  0
  160.8560  207.3510  154.8870 C   0  0  0  0  0  3  0  0  0  0  0  0
  161.0960  206.3530  153.9400 C   0  0  0  0  0  3  0  0  0  0  0  0
  161.2040  206.6870  152.5870 C   0  0  0  0  0  3  0  0  0  0  0  0
  1  4  1  0  0  0  0
  1 10  1  0  0  0  0
  2  5  1  0  0  0  0
  2  9  1  0  0  0  0
  3 11  1  0  0  0  0
  3  2  1  0  0  0  0
  4 12  1  0  0  0  0
  5  9  1  0  0  0  0
  5 15  1  0  0  0  0
  6  1  2  0  0  0  0
  7 25  1  0  0  0  0
  8  5  1  0  0  0  0
  9  7  1  0  0  0  0
 10  3  1  0  0  0  0
 11  8  1  0  0  0  0
 12 11  1  0  0  0  0
 13  9  1  0  0  0  0
 13  7  1  0  0  0  0
 15 16  1  0  0  0  0
 15 14  1  0  0  0  0
 16 14  1  0  0  0  0
 17 24  1  0  0  0  0
 18 23  2  0  0  0  0
 20 17  1  0  0  0  0
 21 17  2  0  0  0  0
 21 18  1  0  0  0  0
 22 19  1  0  0  0  0
 23 22  1  0  0  0  0
 23 15  1  0  0  0  0
 24 22  2  0  0  0  0
 25 26  1  0  0  0  0
 26 31  2  0  0  0  0
 26 28  1  0  0  0  0
 27 29  1  0  0  0  0
 28 27  2  0  0  0  0
 30 29  2  0  0  0  0
 31 30  1  0  0  0  0
M  END
>  <MODEL>
1

>  <REMARK>
 VINA RESULT:      -9.6      0.000      0.000
  Name = 
  4 active torsions:
  status: ('A' for Active; 'I' for Inactive)
    1  A    between atoms: C_5  and  N_30
    2  A    between atoms: C_9  and  C_15
    3  A    between atoms: C_9  and  C_22
    4  A    between atoms: C_17  and  N_30
                            x       y       z     vdW  Elec       q    Type
                         _______ _______ _______ _____ _____    ______ ____

>  <TORSDO>
F 4

$$$$
=
 OpenBabel11052422423D

 31 37  0  0  1  0  0  0  0  0999 V2000
  161.2340  205.0740  144.9010 C   0  0  0  0  0  0  0  0  0  0  0  0
  160.6130  206.8960  147.9780 C   0  0  1  0  0  3  0  0  0  0  0  0
  161.2990  206.7410  146.7070 N   0  0  2  0  0  0  0  0  0  0  0  0
  162.4280  204.5140  145.3320 O   0  0  0  0  0  0  0  0  0  0  0  0
  161.6230  206.6960  149.0180 C   0  0  1  0  0  0  0  0  0  0  0  0
  160.8190  204.8790  143.7300 O   0  0  0  0  0  0  0  0  0  0  0  0
  162.3130  208.9120  149.1250 C   0  0  1  0  0  3  0  0  0  0  0  0
  162.8660  206.3690  148.4280 O   0  0  0  0  0  0  0  0  0  0  0  0
  161.0520  208.1380  148.8260 C   0  0  2  0  0  0  0  0  0  0  0  0
  160.4380  205.8870  145.8700 C   0  0  0  0  0  2  0  0  0  0  0  0
  162.6210  206.1790  147.0590 C   0  0  1  0  0  3  0  0  0  0  0  0
  162.8160  204.7050  146.6840 C   0  0  0  0  0  2  0  0  0  0  0  0
  161.7220  208.9600  147.8780 O   0  0  0  0  0  0  0  0  0  0  0  0
  160.1030  204.7450  149.8140 C   0  0  0  0  0  2  0  0  0  0  0  0
  161.1320  205.8050  150.1710 C   0  0  0  0  0  0  0  0  0  0  0  0
  161.5450  204.3450  150.0540 C   0  0  0  0  0  2  0  0  0  0  0  0
  161.1340  207.3200  154.2090 C   0  0  0  0  0  0  0  0  0  0  0  0
  161.0710  207.6880  151.8200 C   0  0  0  0  0  3  0  0  0  0  0  0
  161.1260  203.6780  152.5030 Cl  0  0  0  0  0  0  0  0  0  0  0  0
  161.1460  207.9530  155.8400 Cl  0  0  0  0  0  0  0  0  0  0  0  0
  161.0830  208.1940  153.1210 C   0  0  0  0  0  3  0  0  0  0  0  0
  161.1340  205.4250  152.6950 C   0  0  0  0  0  0  0  0  0  0  0  0
  161.1120  206.3040  151.5920 C   0  0  0  0  0  0  0  0  0  0  0  0
  161.1530  205.9400  153.9950 C   0  0  0  0  0  3  0  0  0  0  0  0
  162.1020  210.2060  149.7760 N   0  0  0  0  0  2  0  0  0  0  0  0
  162.0240  211.5180  149.1980 C   0  0  0  0  0  0  0  0  0  0  0  0
  162.8690  213.2840  147.7620 C   0  0  0  0  0  3  0  0  0  0  0  0
  162.9680  211.9880  148.2770 C   0  0  0  0  0  3  0  0  0  0  0  0
  161.8210  214.1170  148.1610 C   0  0  0  0  0  3  0  0  0  0  0  0
  160.8750  213.6540  149.0790 C   0  0  0  0  0  3  0  0  0  0  0  0
  160.9800  212.3600  149.5970 C   0  0  0  0  0  3  0  0  0  0  0  0
  1  4  1  0  0  0  0
  1 10  1  0  0  0  0
  2  9  1  0  0  0  0
  2  5  1  0  0  0  0
  3 11  1  0  0  0  0
  3  2  1  0  0  0  0
  4 12  1  0  0  0  0
  5 15  1  0  0  0  0
  6  1  2  0  0  0  0
  7 25  1  0  0  0  0
  8  5  1  0  0  0  0
  9  5  1  0  0  0  0
  9  7  1  0  0  0  0
 10  3  1  0  0  0  0
 11  8  1  0  0  0  0
 12 11  1  0  0  0  0
 13  9  1  0  0  0  0
 13  7  1  0  0  0  0
 14 16  1  0  0  0  0
 14 15  1  0  0  0  0
 15 23  1  0  0  0  0
 16 15  1  0  0  0  0
 17 20  1  0  0  0  0
 18 21  1  0  0  0  0
 19 22  1  0  0  0  0
 21 17  2  0  0  0  0
 22 24  2  0  0  0  0
 23 18  2  0  0  0  0
 23 22  1  0  0  0  0
 24 17  1  0  0  0  0
 26 31  1  0  0  0  0
 26 25  1  0  0  0  0
 27 29  2  0  0  0  0
 27 28  1  0  0  0  0
 28 26  2  0  0  0  0
 29 30  1  0  0  0  0
 30 31  2  0  0  0  0
M  END
>  <MODEL>
2

>  <REMARK>
 VINA RESULT:      -7.5      3.084      5.421
  Name = 
  4 active torsions:
  status: ('A' for Active; 'I' for Inactive)
    1  A    between atoms: C_5  and  N_30
    2  A    between atoms: C_9  and  C_15
    3  A    between atoms: C_9  and  C_22
    4  A    between atoms: C_17  and  N_30
                            x       y       z     vdW  Elec       q    Type
                         _______ _______ _______ _____ _____    ______ ____

>  <TORSDO>
F 4

$$$$
=
 OpenBabel11052422423D

 31 37  0  0  1  0  0  0  0  0999 V2000
  161.2790  210.9030  156.0940 C   0  0  0  0  0  0  0  0  0  0  0  0
  162.3510  209.5370  152.9080 C   0  0  1  0  0  3  0  0  0  0  0  0
  161.7310  210.5860  153.6980 N   0  0  2  0  0  0  0  0  0  0  0  0
  159.9390  210.5880  155.9160 O   0  0  0  0  0  0  0  0  0  0  0  0
  161.2800  208.9330  152.1140 C   0  0  1  0  0  0  0  0  0  0  0  0
  161.6590  211.5380  157.1120 O   0  0  0  0  0  0  0  0  0  0  0  0
  161.4550  210.3890  150.3110 C   0  0  1  0  0  3  0  0  0  0  0  0
  160.0410  209.5320  152.4380 O   0  0  0  0  0  0  0  0  0  0  0  0
  162.3550  209.7810  151.3610 C   0  0  2  0  0  0  0  0  0  0  0  0
  162.2620  210.4450  155.0660 C   0  0  0  0  0  2  0  0  0  0  0  0
  160.2770  210.3640  153.5430 C   0  0  1  0  0  3  0  0  0  0  0  0
  159.5720  209.8100  154.7870 C   0  0  0  0  0  2  0  0  0  0  0  0
  162.0930  211.1750  151.2500 O   0  0  0  0  0  0  0  0  0  0  0  0
  162.0980  206.7340  153.2320 C   0  0  0  0  0  2  0  0  0  0  0  0
  161.3390  207.3960  152.0930 C   0  0  0  0  0  0  0  0  0  0  0  0
  160.5820  206.7250  153.2300 C   0  0  0  0  0  2  0  0  0  0  0  0
  161.0830  205.2760  148.3460 C   0  0  0  0  0  0  0  0  0  0  0  0
  161.2570  207.3410  149.5910 C   0  0  0  0  0  3  0  0  0  0  0  0
  161.2910  204.2430  152.2270 Cl  0  0  0  0  0  0  0  0  0  0  0  0
  160.9680  204.4330  146.8170 Cl  0  0  0  0  0  0  0  0  0  0  0  0
  161.1630  206.6700  148.3710 C   0  0  0  0  0  3  0  0  0  0  0  0
  161.2190  205.2180  150.7670 C   0  0  0  0  0  0  0  0  0  0  0  0
  161.2700  206.6280  150.7990 C   0  0  0  0  0  0  0  0  0  0  0  0
  161.1180  204.5530  149.5400 C   0  0  0  0  0  3  0  0  0  0  0  0
  162.0930  210.6250  149.0150 N   0  0  0  0  0  2  0  0  0  0  0  0
  161.9740  211.7480  148.1290 C   0  0  0  0  0  0  0  0  0  0  0  0
  162.7890  213.8300  147.1810 C   0  0  0  0  0  3  0  0  0  0  0  0
  162.9590  212.7390  148.0380 C   0  0  0  0  0  3  0  0  0  0  0  0
  161.6320  213.9350  146.4050 C   0  0  0  0  0  3  0  0  0  0  0  0
  160.6450  212.9510  146.4900 C   0  0  0  0  0  3  0  0  0  0  0  0
  160.8160  211.8630  147.3510 C   0  0  0  0  0  3  0  0  0  0  0  0
  1  6  2  0  0  0  0
  2  3  1  0  0  0  0
  3 10  1  0  0  0  0
  4  1  1  0  0  0  0
  5  8  1  0  0  0  0
  5  2  1  0  0  0  0
  7 13  1  0  0  0  0
  7  9  1  0  0  0  0
  8 11  1  0  0  0  0
  9  5  1  0  0  0  0
  9  2  1  0  0  0  0
 10  1  1  0  0  0  0
 11  3  1  0  0  0  0
 11 12  1  0  0  0  0
 12  4  1  0  0  0  0
 13  9  1  0  0  0  0
 15  5  1  0  0  0  0
 15 16  1  0  0  0  0
 15 14  1  0  0  0  0
 16 14  1  0  0  0  0
 17 21  2  0  0  0  0
 17 24  1  0  0  0  0
 18 23  2  0  0  0  0
 20 17  1  0  0  0  0
 21 18  1  0  0  0  0
 22 23  1  0  0  0  0
 22 19  1  0  0  0  0
 23 15  1  0  0  0  0
 24 22  2  0  0  0  0
 25  7  1  0  0  0  0
 26 25  1  0  0  0  0
 27 28  2  0  0  0  0
 28 26  1  0  0  0  0
 29 30  2  0  0  0  0
 29 27  1  0  0  0  0
 30 31  1  0  0  0  0
 31 26  2  0  0  0  0
M  END
>  <MODEL>
3

>  <REMARK>
 VINA RESULT:      -7.3      4.070      7.567
  Name = 
  4 active torsions:
  status: ('A' for Active; 'I' for Inactive)
    1  A    between atoms: C_5  and  N_30
    2  A    between atoms: C_9  and  C_15
    3  A    between atoms: C_9  and  C_22
    4  A    between atoms: C_17  and  N_30
                            x       y       z     vdW  Elec       q    Type
                         _______ _______ _______ _____ _____    ______ ____

>  <TORSDO>
F 4

$$$$
=
 OpenBabel11052422423D

 31 37  0  0  1  0  0  0  0  0999 V2000
  161.5980  210.3200  154.1100 C   0  0  0  0  0  0  0  0  0  0  0  0
  162.5650  208.0080  151.4850 C   0  0  1  0  0  3  0  0  0  0  0  0
  161.9130  209.2270  151.9290 N   0  0  2  0  0  0  0  0  0  0  0  0
  160.2810  209.8860  154.1730 O   0  0  0  0  0  0  0  0  0  0  0  0
  161.4980  207.1090  151.0420 C   0  0  1  0  0  0  0  0  0  0  0  0
  161.9910  211.2850  154.8150 O   0  0  0  0  0  0  0  0  0  0  0  0
  161.4250  207.8670  148.8480 C   0  0  1  0  0  3  0  0  0  0  0  0
  160.2370  207.7110  151.2600 O   0  0  0  0  0  0  0  0  0  0  0  0
  162.4430  207.7080  149.9520 C   0  0  2  0  0  0  0  0  0  0  0  0
  162.5450  209.5940  153.2090 C   0  0  0  0  0  2  0  0  0  0  0  0
  160.4750  208.8830  151.9930 C   0  0  1  0  0  3  0  0  0  0  0  0
  159.9060  208.7490  153.4110 C   0  0  0  0  0  2  0  0  0  0  0  0
  162.0570  208.9620  149.4030 O   0  0  0  0  0  0  0  0  0  0  0  0
  162.7610  205.4440  152.5870 C   0  0  0  0  0  2  0  0  0  0  0  0
  161.6870  205.6640  151.5350 C   0  0  0  0  0  0  0  0  0  0  0  0
  161.3000  205.4430  152.9900 C   0  0  0  0  0  2  0  0  0  0  0  0
  160.7370  202.3650  148.9240 C   0  0  0  0  0  0  0  0  0  0  0  0
  161.5680  204.6090  149.2660 C   0  0  0  0  0  3  0  0  0  0  0  0
  160.6440  203.0130  152.8930 Cl  0  0  0  0  0  0  0  0  0  0  0  0
  160.3460  201.0410  147.8490 Cl  0  0  0  0  0  0  0  0  0  0  0  0
  161.2540  203.5540  148.4080 C   0  0  0  0  0  3  0  0  0  0  0  0
  160.8710  203.2730  151.1690 C   0  0  0  0  0  0  0  0  0  0  0  0
  161.3660  204.4880  150.6500 C   0  0  0  0  0  0  0  0  0  0  0  0
  160.5520  202.2240  150.3010 C   0  0  0  0  0  3  0  0  0  0  0  0
  161.9520  207.6810  147.4940 N   0  0  0  0  0  2  0  0  0  0  0  0
  161.7230  206.6120  146.5630 C   0  0  0  0  0  0  0  0  0  0  0  0
  162.4850  204.7430  145.2130 C   0  0  0  0  0  3  0  0  0  0  0  0
  162.7460  205.7520  146.1440 C   0  0  0  0  0  3  0  0  0  0  0  0
  161.1960  204.5820  144.7000 C   0  0  0  0  0  3  0  0  0  0  0  0
  160.1700  205.4360  145.1130 C   0  0  0  0  0  3  0  0  0  0  0  0
  160.4360  206.4480  146.0400 C   0  0  0  0  0  3  0  0  0  0  0  0
  1  4  1  0  0  0  0
  1  6  2  0  0  0  0
  2  3  1  0  0  0  0
  3 11  1  0  0  0  0
  3 10  1  0  0  0  0
  5  8  1  0  0  0  0
  5  2  1  0  0  0  0
  5 15  1  0  0  0  0
  7 13  1  0  0  0  0
  7  9  1  0  0  0  0
  8 11  1  0  0  0  0
  9  5  1  0  0  0  0
  9  2  1  0  0  0  0
 10  1  1  0  0  0  0
 11 12  1  0  0  0  0
 12  4  1  0  0  0  0
 13  9  1  0  0  0  0
 14 16  1  0  0  0  0
 15 14  1  0  0  0  0
 15 16  1  0  0  0  0
 17 24  1  0  0  0  0
 18 23  2  0  0  0  0
 20 17  1  0  0  0  0
 21 17  2  0  0  0  0
 21 18  1  0  0  0  0
 22 19  1  0  0  0  0
 23 22  1  0  0  0  0
 23 15  1  0  0  0  0
 24 22  2  0  0  0  0
 25  7  1  0  0  0  0
 26 25  1  0  0  0  0
 27 28  2  0  0  0  0
 28 26  1  0  0  0  0
 29 30  2  0  0  0  0
 29 27  1  0  0  0  0
 30 31  1  0  0  0  0
 31 26  2  0  0  0  0
M  END
>  <MODEL>
4

>  <REMARK>
 VINA RESULT:      -7.2      2.413      6.377
  Name = 
  4 active torsions:
  status: ('A' for Active; 'I' for Inactive)
    1  A    between atoms: C_5  and  N_30
    2  A    between atoms: C_9  and  C_15
    3  A    between atoms: C_9  and  C_22
    4  A    between atoms: C_17  and  N_30
                            x       y       z     vdW  Elec       q    Type
                         _______ _______ _______ _____ _____    ______ ____

>  <TORSDO>
F 4

$$$$
=
 OpenBabel11052422423D

 31 37  0  0  1  0  0  0  0  0999 V2000
  161.1490  205.0040  145.3370 C   0  0  0  0  0  0  0  0  0  0  0  0
  160.7570  207.1220  148.2570 C   0  0  1  0  0  3  0  0  0  0  0  0
  161.2740  206.8800  146.9210 N   0  0  2  0  0  0  0  0  0  0  0  0
  162.4480  204.6200  145.6400 O   0  0  0  0  0  0  0  0  0  0  0  0
  161.9170  207.1520  149.1480 C   0  0  1  0  0  0  0  0  0  0  0  0
  160.6020  204.6270  144.2690 O   0  0  0  0  0  0  0  0  0  0  0  0
  162.3580  209.4200  148.9110 C   0  0  1  0  0  3  0  0  0  0  0  0
  163.0960  206.8770  148.4160 O   0  0  0  0  0  0  0  0  0  0  0  0
  161.1640  208.4960  148.8900 C   0  0  2  0  0  0  0  0  0  0  0  0
  160.4080  205.8500  146.3210 C   0  0  0  0  0  2  0  0  0  0  0  0
  162.6870  206.4970  147.1290 C   0  0  1  0  0  3  0  0  0  0  0  0
  162.9950  205.0130  146.8890 C   0  0  0  0  0  2  0  0  0  0  0  0
  161.5980  209.2570  147.7700 O   0  0  0  0  0  0  0  0  0  0  0  0
  162.4310  206.8750  151.6800 C   0  0  0  0  0  2  0  0  0  0  0  0
  161.6950  206.3660  150.4520 C   0  0  0  0  0  0  0  0  0  0  0  0
  160.9460  207.1370  151.5280 C   0  0  0  0  0  2  0  0  0  0  0  0
  160.6830  202.1760  150.3060 C   0  0  0  0  0  0  0  0  0  0  0  0
  161.2280  204.2510  149.1930 C   0  0  0  0  0  3  0  0  0  0  0  0
  161.3870  204.8660  153.2120 Cl  0  0  0  0  0  0  0  0  0  0  0  0
  160.2620  200.4790  150.2280 Cl  0  0  0  0  0  0  0  0  0  0  0  0
  160.8900  202.8980  149.1300 C   0  0  0  0  0  3  0  0  0  0  0  0
  161.1810  204.1540  151.6180 C   0  0  0  0  0  0  0  0  0  0  0  0
  161.3620  204.8970  150.4320 C   0  0  0  0  0  0  0  0  0  0  0  0
  160.8340  202.8010  151.5460 C   0  0  0  0  0  3  0  0  0  0  0  0
  162.0920  210.7580  149.4430 N   0  0  0  0  0  2  0  0  0  0  0  0
  161.8210  211.9820  148.7440 C   0  0  0  0  0  0  0  0  0  0  0  0
  160.3210  213.7380  147.9940 C   0  0  0  0  0  3  0  0  0  0  0  0
  160.5450  212.5600  148.7110 C   0  0  0  0  0  3  0  0  0  0  0  0
  161.3730  214.3510  147.3090 C   0  0  0  0  0  3  0  0  0  0  0  0
  162.6480  213.7820  147.3380 C   0  0  0  0  0  3  0  0  0  0  0  0
  162.8690  212.6000  148.0520 C   0  0  0  0  0  3  0  0  0  0  0  0
  1  4  1  0  0  0  0
  1 10  1  0  0  0  0
  2  9  1  0  0  0  0
  2  5  1  0  0  0  0
  3 11  1  0  0  0  0
  3  2  1  0  0  0  0
  4 12  1  0  0  0  0
  5 15  1  0  0  0  0
  6  1  2  0  0  0  0
  7 25  1  0  0  0  0
  8  5  1  0  0  0  0
  9  7  1  0  0  0  0
  9  5  1  0  0  0  0
 10  3  1  0  0  0  0
 11  8  1  0  0  0  0
 12 11  1  0  0  0  0
 13  9  1  0  0  0  0
 13  7  1  0  0  0  0
 15 16  1  0  0  0  0
 15 14  1  0  0  0  0
 16 14  1  0  0  0  0
 17 24  1  0  0  0  0
 18 23  2  0  0  0  0
 20 17  1  0  0  0  0
 21 18  1  0  0  0  0
 21 17  2  0  0  0  0
 22 19  1  0  0  0  0
 23 15  1  0  0  0  0
 23 22  1  0  0  0  0
 24 22  2  0  0  0  0
 26 25  1  0  0  0  0
 27 28  2  0  0  0  0
 28 26  1  0  0  0  0
 29 30  2  0  0  0  0
 29 27  1  0  0  0  0
 30 31  1  0  0  0  0
 31 26  2  0  0  0  0
M  END
>  <MODEL>
5

>  <REMARK>
 VINA RESULT:      -6.9      3.050      4.299
  Name = 
  4 active torsions:
  status: ('A' for Active; 'I' for Inactive)
    1  A    between atoms: C_5  and  N_30
    2  A    between atoms: C_9  and  C_15
    3  A    between atoms: C_9  and  C_22
    4  A    between atoms: C_17  and  N_30
                            x       y       z     vdW  Elec       q    Type
                         _______ _______ _______ _____ _____    ______ ____

>  <TORSDO>
F 4

$$$$
=
 OpenBabel11052422423D

 31 37  0  0  1  0  0  0  0  0999 V2000
  157.4070  211.8800  156.2530 C   0  0  0  0  0  0  0  0  0  0  0  0
  158.6370  211.1520  152.9170 C   0  0  1  0  0  3  0  0  0  0  0  0
  158.7680  211.0910  154.3620 N   0  0  2  0  0  0  0  0  0  0  0  0
  158.2680  212.9470  156.4680 O   0  0  0  0  0  0  0  0  0  0  0  0
  159.6900  212.0520  152.4460 C   0  0  1  0  0  0  0  0  0  0  0  0
  156.6290  211.4900  157.1610 O   0  0  0  0  0  0  0  0  0  0  0  0
  161.3330  210.4240  152.2260 C   0  0  1  0  0  3  0  0  0  0  0  0
  160.4030  212.5800  153.5480 O   0  0  0  0  0  0  0  0  0  0  0  0
  159.8300  210.5320  152.1130 C   0  0  2  0  0  0  0  0  0  0  0  0
  157.4060  211.2260  154.9090 C   0  0  0  0  0  2  0  0  0  0  0  0
  159.7110  212.1780  154.7010 C   0  0  1  0  0  3  0  0  0  0  0  0
  159.0750  213.3930  155.3890 C   0  0  0  0  0  2  0  0  0  0  0  0
  160.4980  209.7340  153.0830 O   0  0  0  0  0  0  0  0  0  0  0  0
  157.7780  213.5600  151.5390 C   0  0  0  0  0  2  0  0  0  0  0  0
  159.1990  213.0470  151.3800 C   0  0  0  0  0  0  0  0  0  0  0  0
  158.9470  214.4530  151.9040 C   0  0  0  0  0  2  0  0  0  0  0  0
  160.8600  213.0450  147.4000 C   0  0  0  0  0  0  0  0  0  0  0  0
  161.1420  213.0130  149.8000 C   0  0  0  0  0  3  0  0  0  0  0  0
  157.1590  212.9710  148.9740 Cl  0  0  0  0  0  0  0  0  0  0  0  0
  161.5510  213.0560  145.7920 Cl  0  0  0  0  0  0  0  0  0  0  0  0
  161.6940  213.0240  148.5180 C   0  0  0  0  0  3  0  0  0  0  0  0
  158.9110  213.0160  148.8440 C   0  0  0  0  0  0  0  0  0  0  0  0
  159.7510  213.0250  149.9790 C   0  0  0  0  0  0  0  0  0  0  0  0
  159.4730  213.0350  147.5630 C   0  0  0  0  0  3  0  0  0  0  0  0
  161.9500  209.4550  151.3190 N   0  0  0  0  0  2  0  0  0  0  0  0
  161.6280  208.0730  151.1010 C   0  0  0  0  0  0  0  0  0  0  0  0
  161.4690  205.7650  151.8380 C   0  0  0  0  0  3  0  0  0  0  0  0
  161.7670  207.1040  152.1030 C   0  0  0  0  0  3  0  0  0  0  0  0
  161.0250  205.3850  150.5690 C   0  0  0  0  0  3  0  0  0  0  0  0
  160.8840  206.3460  149.5640 C   0  0  0  0  0  3  0  0  0  0  0  0
  161.1880  207.6840  149.8310 C   0  0  0  0  0  3  0  0  0  0  0  0
  1  4  1  0  0  0  0
  1  6  2  0  0  0  0
  2  3  1  0  0  0  0
  3 11  1  0  0  0  0
  3 10  1  0  0  0  0
  5  2  1  0  0  0  0
  5  8  1  0  0  0  0
  7 13  1  0  0  0  0
  8 11  1  0  0  0  0
  9  7  1  0  0  0  0
  9  5  1  0  0  0  0
  9  2  1  0  0  0  0
  9 13  1  0  0  0  0
 10  1  1  0  0  0  0
 11 12  1  0  0  0  0
 12  4  1  0  0  0  0
 14 16  1  0  0  0  0
 15 14  1  0  0  0  0
 15 16  1  0  0  0  0
 15  5  1  0  0  0  0
 17 24  2  0  0  0  0
 17 21  1  0  0  0  0
 18 23  1  0  0  0  0
 20 17  1  0  0  0  0
 21 18  2  0  0  0  0
 22 19  1  0  0  0  0
 22 23  2  0  0  0  0
 23 15  1  0  0  0  0
 24 22  1  0  0  0  0
 25  7  1  0  0  0  0
 26 25  1  0  0  0  0
 26 28  1  0  0  0  0
 27 28  2  0  0  0  0
 29 27  1  0  0  0  0
 30 31  1  0  0  0  0
 30 29  2  0  0  0  0
 31 26  2  0  0  0  0
M  END
>  <MODEL>
6

>  <REMARK>
 VINA RESULT:      -6.9      5.772      9.867
  Name = 
  4 active torsions:
  status: ('A' for Active; 'I' for Inactive)
    1  A    between atoms: C_5  and  N_30
    2  A    between atoms: C_9  and  C_15
    3  A    between atoms: C_9  and  C_22
    4  A    between atoms: C_17  and  N_30
                            x       y       z     vdW  Elec       q    Type
                         _______ _______ _______ _____ _____    ______ ____

>  <TORSDO>
F 4

$$$$
=
 OpenBabel11052422423D

 31 37  0  0  1  0  0  0  0  0999 V2000
  161.9760  207.4810  138.3360 C   0  0  0  0  0  0  0  0  0  0  0  0
  159.9940  210.2240  139.6460 C   0  0  1  0  0  3  0  0  0  0  0  0
  160.1620  209.0870  138.7600 N   0  0  2  0  0  0  0  0  0  0  0  0
  162.3200  208.1330  137.1600 O   0  0  0  0  0  0  0  0  0  0  0  0
  159.9560  211.4110  138.7910 C   0  0  1  0  0  0  0  0  0  0  0  0
  162.3310  206.2920  138.5380 O   0  0  0  0  0  0  0  0  0  0  0  0
  157.6640  211.3720  138.4120 C   0  0  1  0  0  3  0  0  0  0  0  0
  160.1540  211.0400  137.4410 O   0  0  0  0  0  0  0  0  0  0  0  0
  158.6320  210.9850  139.5040 C   0  0  2  0  0  0  0  0  0  0  0  0
  161.2000  208.2350  139.3670 C   0  0  0  0  0  2  0  0  0  0  0  0
  160.4970  209.6790  137.4470 C   0  0  1  0  0  3  0  0  0  0  0  0
  161.9570  209.4970  137.0110 C   0  0  0  0  0  2  0  0  0  0  0  0
  157.8110  210.0570  138.8070 O   0  0  0  0  0  0  0  0  0  0  0  0
  161.9480  213.0450  138.4560 C   0  0  0  0  0  2  0  0  0  0  0  0
  160.8020  212.5740  139.3350 C   0  0  0  0  0  0  0  0  0  0  0  0
  160.6760  213.8660  138.5410 C   0  0  0  0  0  2  0  0  0  0  0  0
  161.3070  213.1330  143.5820 C   0  0  0  0  0  0  0  0  0  0  0  0
  162.1560  212.4140  141.4360 C   0  0  0  0  0  3  0  0  0  0  0  0
  158.4310  213.9570  140.8940 Cl  0  0  0  0  0  0  0  0  0  0  0  0
  161.5240  213.3420  145.3060 Cl  0  0  0  0  0  0  0  0  0  0  0  0
  162.3290  212.5780  142.8110 C   0  0  0  0  0  3  0  0  0  0  0  0
  159.9390  213.3890  141.5960 C   0  0  0  0  0  0  0  0  0  0  0  0
  160.9580  212.8010  140.8160 C   0  0  0  0  0  0  0  0  0  0  0  0
  160.1180  213.5430  142.9740 C   0  0  0  0  0  3  0  0  0  0  0  0
  156.3600  211.8430  138.8840 N   0  0  0  0  0  2  0  0  0  0  0  0
  155.0520  211.2990  138.6490 C   0  0  0  0  0  0  0  0  0  0  0  0
  152.8090  210.7160  139.3720 C   0  0  0  0  0  3  0  0  0  0  0  0
  154.0590  211.2820  139.6360 C   0  0  0  0  0  3  0  0  0  0  0  0
  152.5410  210.1690  138.1150 C   0  0  0  0  0  3  0  0  0  0  0  0
  153.5260  210.1830  137.1250 C   0  0  0  0  0  3  0  0  0  0  0  0
  154.7770  210.7440  137.3940 C   0  0  0  0  0  3  0  0  0  0  0  0
  1  6  2  0  0  0  0
  1 10  1  0  0  0  0
  3 10  1  0  0  0  0
  3  2  1  0  0  0  0
  4  1  1  0  0  0  0
  5 15  1  0  0  0  0
  5  9  1  0  0  0  0
  5  2  1  0  0  0  0
  7 13  1  0  0  0  0
  7 25  1  0  0  0  0
  7  9  1  0  0  0  0
  8 11  1  0  0  0  0
  8  5  1  0  0  0  0
  9  2  1  0  0  0  0
 11  3  1  0  0  0  0
 12  4  1  0  0  0  0
 12 11  1  0  0  0  0
 13  9  1  0  0  0  0
 14 16  1  0  0  0  0
 14 15  1  0  0  0  0
 15 23  1  0  0  0  0
 16 15  1  0  0  0  0
 17 20  1  0  0  0  0
 18 21  1  0  0  0  0
 19 22  1  0  0  0  0
 21 17  2  0  0  0  0
 22 24  2  0  0  0  0
 23 18  2  0  0  0  0
 23 22  1  0  0  0  0
 24 17  1  0  0  0  0
 26 25  1  0  0  0  0
 26 28  1  0  0  0  0
 27 28  2  0  0  0  0
 29 27  1  0  0  0  0
 30 31  1  0  0  0  0
 30 29  2  0  0  0  0
 31 26  2  0  0  0  0
M  END
>  <MODEL>
7

>  <REMARK>
 VINA RESULT:      -6.8     10.123     12.971
  Name = 
  4 active torsions:
  status: ('A' for Active; 'I' for Inactive)
    1  A    between atoms: C_5  and  N_30
    2  A    between atoms: C_9  and  C_15
    3  A    between atoms: C_9  and  C_22
    4  A    between atoms: C_17  and  N_30
                            x       y       z     vdW  Elec       q    Type
                         _______ _______ _______ _____ _____    ______ ____

>  <TORSDO>
F 4

$$$$
=
 OpenBabel11052422423D

 31 37  0  0  1  0  0  0  0  0999 V2000
  164.6730  213.2350  138.8850 C   0  0  0  0  0  0  0  0  0  0  0  0
  161.2080  213.7850  139.8100 C   0  0  1  0  0  3  0  0  0  0  0  0
  162.5670  213.3990  140.1440 N   0  0  2  0  0  0  0  0  0  0  0  0
  164.5620  211.8530  138.8160 O   0  0  0  0  0  0  0  0  0  0  0  0
  160.4010  212.5680  139.8980 C   0  0  1  0  0  0  0  0  0  0  0  0
  165.7840  213.7990  138.7100 O   0  0  0  0  0  0  0  0  0  0  0  0
  159.8980  212.7630  142.1580 C   0  0  1  0  0  3  0  0  0  0  0  0
  161.2260  211.4620  140.2090 O   0  0  0  0  0  0  0  0  0  0  0  0
  160.1750  213.6700  140.9830 C   0  0  2  0  0  0  0  0  0  0  0  0
  163.4390  214.0380  139.1420 C   0  0  0  0  0  2  0  0  0  0  0  0
  162.5500  211.9200  140.1380 C   0  0  1  0  0  3  0  0  0  0  0  0
  163.2740  211.2710  138.9500 C   0  0  0  0  0  2  0  0  0  0  0  0
  161.0000  213.5950  142.1390 O   0  0  0  0  0  0  0  0  0  0  0  0
  159.4280  213.5170  137.6830 C   0  0  0  0  0  2  0  0  0  0  0  0
  159.4190  212.4100  138.7240 C   0  0  0  0  0  0  0  0  0  0  0  0
  160.0870  212.1870  137.3750 C   0  0  0  0  0  2  0  0  0  0  0  0
  155.6900  210.3060  139.2420 C   0  0  0  0  0  0  0  0  0  0  0  0
  156.9410  212.3690  139.0810 C   0  0  0  0  0  3  0  0  0  0  0  0
  159.5080  209.2610  138.5290 Cl  0  0  0  0  0  0  0  0  0  0  0  0
  154.1700  209.4690  139.4650 Cl  0  0  0  0  0  0  0  0  0  0  0  0
  155.7280  211.7010  139.2610 C   0  0  0  0  0  3  0  0  0  0  0  0
  158.0800  210.2390  138.8330 C   0  0  0  0  0  0  0  0  0  0  0  0
  158.1290  211.6490  138.8810 C   0  0  0  0  0  0  0  0  0  0  0  0
  156.8620  209.5790  139.0230 C   0  0  0  0  0  3  0  0  0  0  0  0
  158.9480  213.2960  143.1360 N   0  0  0  0  0  2  0  0  0  0  0  0
  158.9470  213.1810  144.5670 C   0  0  0  0  0  0  0  0  0  0  0  0
  159.9410  212.4620  146.6630 C   0  0  0  0  0  3  0  0  0  0  0  0
  159.9970  212.5780  145.2710 C   0  0  0  0  0  3  0  0  0  0  0  0
  158.8350  212.9540  147.3610 C   0  0  0  0  0  3  0  0  0  0  0  0
  157.7840  213.5560  146.6660 C   0  0  0  0  0  3  0  0  0  0  0  0
  157.8410  213.6660  145.2730 C   0  0  0  0  0  3  0  0  0  0  0  0
  1 10  1  0  0  0  0
  2  5  1  0  0  0  0
  2  3  1  0  0  0  0
  2  9  1  0  0  0  0
  4  1  1  0  0  0  0
  4 12  1  0  0  0  0
  5  8  1  0  0  0  0
  5  9  1  0  0  0  0
  6  1  2  0  0  0  0
  7 25  1  0  0  0  0
  9 13  1  0  0  0  0
  9  7  1  0  0  0  0
 10  3  1  0  0  0  0
 11  3  1  0  0  0  0
 11  8  1  0  0  0  0
 12 11  1  0  0  0  0
 13  7  1  0  0  0  0
 14 15  1  0  0  0  0
 15 23  1  0  0  0  0
 15  5  1  0  0  0  0
 16 14  1  0  0  0  0
 16 15  1  0  0  0  0
 17 21  1  0  0  0  0
 17 20  1  0  0  0  0
 18 21  2  0  0  0  0
 19 22  1  0  0  0  0
 22 23  2  0  0  0  0
 22 24  1  0  0  0  0
 23 18  1  0  0  0  0
 24 17  2  0  0  0  0
 25 26  1  0  0  0  0
 26 28  2  0  0  0  0
 26 31  1  0  0  0  0
 27 29  2  0  0  0  0
 28 27  1  0  0  0  0
 30 29  1  0  0  0  0
 31 30  2  0  0  0  0
M  END
>  <MODEL>
8

>  <REMARK>
 VINA RESULT:      -6.7      9.175     11.513
  Name = 
  4 active torsions:
  status: ('A' for Active; 'I' for Inactive)
    1  A    between atoms: C_5  and  N_30
    2  A    between atoms: C_9  and  C_15
    3  A    between atoms: C_9  and  C_22
    4  A    between atoms: C_17  and  N_30
                            x       y       z     vdW  Elec       q    Type
                         _______ _______ _______ _____ _____    ______ ____

>  <TORSDO>
F 4

$$$$
