=
 OpenBabel11052423063D

 27 31  0  0  1  0  0  0  0  0999 V2000
  161.3740  210.0950  151.2010 N   0  0  0  0  0  0  0  0  0  0  0  0
  162.1440  209.2900  149.1790 C   0  0  2  0  0  3  0  0  0  0  0  0
  161.3790  207.6630  152.3540 N   0  0  0  0  0  0  0  0  0  0  0  0
  161.0560  205.2080  148.2810 C   0  0  0  0  0  3  0  0  0  0  0  0
  160.6780  204.1070  149.0310 C   0  0  0  0  0  3  0  0  0  0  0  0
  162.1490  207.1880  148.0760 N   0  0  0  0  0  2  0  0  0  0  0  0
  161.3300  205.2700  151.0470 C   0  0  0  0  0  0  0  0  0  0  0  0
  160.8690  209.9270  155.3110 C   0  0  0  0  0  2  0  0  0  0  0  0
  161.5400  205.1590  152.4180 O   0  0  0  0  0  1  0  0  0  0  0  0
  160.1010  210.9160  154.5580 N   0  0  0  0  0  0  0  0  0  0  0  0
  161.5770  206.4880  150.3210 C   0  0  0  0  0  0  0  0  0  0  0  0
  161.6840  209.0200  150.4180 C   0  0  0  0  0  0  0  0  0  0  0  0
  160.8570  204.1250  150.4030 C   0  0  0  0  0  3  0  0  0  0  0  0
  161.5760  206.3560  148.8850 C   0  0  0  0  0  0  0  0  0  0  0  0
  161.0780  209.9960  152.5150 C   0  0  0  0  0  0  0  0  0  0  0  0
  161.6170  207.7000  151.0060 C   0  0  0  0  0  0  0  0  0  0  0  0
  160.8370  208.5830  154.5830 C   0  0  0  0  0  2  0  0  0  0  0  0
  162.9770  208.2910  148.4850 C   0  0  0  0  0  2  0  0  0  0  0  0
  160.0820  212.1280  155.3570 C   0  0  0  0  0  1  0  0  0  0  0  0
  160.8340  211.2330  153.3310 C   0  0  0  0  0  2  0  0  0  0  0  0
  161.1520  208.7510  153.1250 C   0  0  0  0  0  0  0  0  0  0  0  0
  161.8390  213.1420  147.2890 C   0  0  0  0  0  3  0  0  0  0  0  0
  162.0230  210.6330  148.5440 C   0  0  0  0  0  0  0  0  0  0  0  0
  163.0910  211.5430  148.6050 C   0  0  0  0  0  3  0  0  0  0  0  0
  162.9980  212.7920  147.9860 C   0  0  0  0  0  3  0  0  0  0  0  0
  160.7740  212.2420  147.2090 C   0  0  0  0  0  3  0  0  0  0  0  0
  160.8680  210.9920  147.8280 C   0  0  0  0  0  3  0  0  0  0  0  0
  1 15  1  0  0  0  0
  2 23  1  1  0  0  0
  2 12  1  0  0  0  0
  3 21  1  0  0  0  0
  4 14  2  0  0  0  0
  4  5  1  0  0  0  0
  5 13  2  0  0  0  0
  6 18  1  0  0  0  0
  6 14  1  0  0  0  0
  7  9  1  0  0  0  0
 10  8  1  0  0  0  0
 10 19  1  0  0  0  0
 11 16  1  0  0  0  0
 11  7  2  0  0  0  0
 12 16  1  0  0  0  0
 12  1  2  0  0  0  0
 13  7  1  0  0  0  0
 14 11  1  0  0  0  0
 15 21  2  0  0  0  0
 15 20  1  0  0  0  0
 16  3  2  0  0  0  0
 17  8  1  0  0  0  0
 18  2  1  0  0  0  0
 20 10  1  0  0  0  0
 21 17  1  0  0  0  0
 22 25  1  0  0  0  0
 23 24  1  0  0  0  0
 25 24  2  0  0  0  0
 26 22  2  0  0  0  0
 26 27  1  0  0  0  0
 27 23  2  0  0  0  0
M  END
>  <MODEL>
1

>  <REMARK>
 VINA RESULT:      -7.5      0.000      0.000
  Name = 
  1 active torsions:
  status: ('A' for Active; 'I' for Inactive)
    1  A    between atoms: C_2  and  C_9
                            x       y       z     vdW  Elec       q    Type
                         _______ _______ _______ _____ _____    ______ ____

>  <TORSDO>
F 1

$$$$
=
 OpenBabel11052423063D

 27 31  0  0  1  0  0  0  0  0999 V2000
  160.9910  209.3870  152.4090 N   0  0  0  0  0  0  0  0  0  0  0  0
  161.8590  208.8930  150.3270 C   0  0  2  0  0  3  0  0  0  0  0  0
  161.0440  206.8210  153.2170 N   0  0  0  0  0  0  0  0  0  0  0  0
  160.9510  204.9430  148.8380 C   0  0  0  0  0  3  0  0  0  0  0  0
  160.5860  203.7370  149.4150 C   0  0  0  0  0  3  0  0  0  0  0  0
  161.9780  206.9650  148.9490 N   0  0  0  0  0  2  0  0  0  0  0  0
  161.1260  204.6310  151.5950 C   0  0  0  0  0  0  0  0  0  0  0  0
  160.3510  208.6390  156.4350 C   0  0  0  0  0  2  0  0  0  0  0  0
  161.2930  204.3390  152.9450 O   0  0  0  0  0  1  0  0  0  0  0  0
  159.5740  209.6980  155.7940 N   0  0  0  0  0  0  0  0  0  0  0  0
  161.3540  205.9440  151.0520 C   0  0  0  0  0  0  0  0  0  0  0  0
  161.3670  208.4410  151.4990 C   0  0  0  0  0  0  0  0  0  0  0  0
  160.7180  203.5720  150.7820 C   0  0  0  0  0  3  0  0  0  0  0  0
  161.4080  206.0120  149.6130 C   0  0  0  0  0  0  0  0  0  0  0  0
  160.6530  209.0990  153.6840 C   0  0  0  0  0  0  0  0  0  0  0  0
  161.3270  207.0510  151.8980 C   0  0  0  0  0  0  0  0  0  0  0  0
  160.3920  207.4070  155.5280 C   0  0  0  0  0  2  0  0  0  0  0  0
  162.7510  208.0260  149.5360 C   0  0  0  0  0  2  0  0  0  0  0  0
  159.4840  210.7870  156.7490 C   0  0  0  0  0  1  0  0  0  0  0  0
  160.3370  210.2030  154.6520 C   0  0  0  0  0  2  0  0  0  0  0  0
  160.7520  207.7850  154.1210 C   0  0  0  0  0  0  0  0  0  0  0  0
  161.3770  212.9520  148.9860 C   0  0  0  0  0  3  0  0  0  0  0  0
  161.7120  210.3070  149.8780 C   0  0  0  0  0  0  0  0  0  0  0  0
  162.1780  210.6990  148.6120 C   0  0  0  0  0  3  0  0  0  0  0  0
  162.0150  212.0150  148.1700 C   0  0  0  0  0  3  0  0  0  0  0  0
  160.8970  212.5730  150.2420 C   0  0  0  0  0  3  0  0  0  0  0  0
  161.0590  211.2570  150.6830 C   0  0  0  0  0  3  0  0  0  0  0  0
  1 15  1  0  0  0  0
  2 23  1  1  0  0  0
  2 12  1  0  0  0  0
  3 21  1  0  0  0  0
  4  5  2  0  0  0  0
  4 14  1  0  0  0  0
  5 13  1  0  0  0  0
  6 18  1  0  0  0  0
  6 14  1  0  0  0  0
  7  9  1  0  0  0  0
 10  8  1  0  0  0  0
 10 19  1  0  0  0  0
 11  7  1  0  0  0  0
 11 16  1  0  0  0  0
 12 16  1  0  0  0  0
 12  1  2  0  0  0  0
 13  7  2  0  0  0  0
 14 11  2  0  0  0  0
 15 21  2  0  0  0  0
 15 20  1  0  0  0  0
 16  3  2  0  0  0  0
 17  8  1  0  0  0  0
 18  2  1  0  0  0  0
 20 10  1  0  0  0  0
 21 17  1  0  0  0  0
 22 26  1  0  0  0  0
 23 27  1  0  0  0  0
 24 23  2  0  0  0  0
 25 24  1  0  0  0  0
 25 22  2  0  0  0  0
 26 27  2  0  0  0  0
M  END
>  <MODEL>
2

>  <REMARK>
 VINA RESULT:      -7.2      1.315      1.504
  Name = 
  1 active torsions:
  status: ('A' for Active; 'I' for Inactive)
    1  A    between atoms: C_2  and  C_9
                            x       y       z     vdW  Elec       q    Type
                         _______ _______ _______ _____ _____    ______ ____

>  <TORSDO>
F 1

$$$$
=
 OpenBabel11052423063D

 27 31  0  0  1  0  0  0  0  0999 V2000
  161.3190  208.6510  150.2330 N   0  0  0  0  0  0  0  0  0  0  0  0
  160.9890  210.5960  151.4340 C   0  0  2  0  0  3  0  0  0  0  0  0
  160.8700  207.0690  152.3630 N   0  0  0  0  0  0  0  0  0  0  0  0
  161.9640  210.3580  155.6340 C   0  0  0  0  0  3  0  0  0  0  0  0
  162.0760  209.3320  156.5590 C   0  0  0  0  0  3  0  0  0  0  0  0
  161.0930  211.2190  153.7220 N   0  0  0  0  0  2  0  0  0  0  0  0
  161.0540  207.8140  154.9800 C   0  0  0  0  0  0  0  0  0  0  0  0
  160.8310  204.5960  149.5320 C   0  0  0  0  0  2  0  0  0  0  0  0
  160.5200  206.5430  154.7920 O   0  0  0  0  0  1  0  0  0  0  0  0
  161.8230  205.3220  148.7410 N   0  0  0  0  0  0  0  0  0  0  0  0
  161.0710  208.8090  153.9400 C   0  0  0  0  0  0  0  0  0  0  0  0
  161.1250  209.2530  151.4430 C   0  0  0  0  0  0  0  0  0  0  0  0
  161.5810  208.0780  156.2450 C   0  0  0  0  0  3  0  0  0  0  0  0
  161.4000  210.1440  154.3740 C   0  0  0  0  0  0  0  0  0  0  0  0
  161.2900  207.3130  150.0560 C   0  0  0  0  0  0  0  0  0  0  0  0
  160.9580  208.4130  152.6080 C   0  0  0  0  0  0  0  0  0  0  0  0
  160.9380  205.0080  151.0010 C   0  0  0  0  0  2  0  0  0  0  0  0
  160.2740  211.2560  152.5400 C   0  0  0  0  0  2  0  0  0  0  0  0
  161.7400  204.8040  147.3880 C   0  0  0  0  0  1  0  0  0  0  0  0
  161.4240  206.7280  148.6790 C   0  0  0  0  0  2  0  0  0  0  0  0
  160.9860  206.5020  151.1410 C   0  0  0  0  0  0  0  0  0  0  0  0
  162.0780  213.0730  148.0900 C   0  0  0  0  0  3  0  0  0  0  0  0
  161.3510  211.4390  150.2600 C   0  0  0  0  0  0  0  0  0  0  0  0
  160.7550  212.6980  150.0820 C   0  0  0  0  0  3  0  0  0  0  0  0
  161.1120  213.5090  149.0010 C   0  0  0  0  0  3  0  0  0  0  0  0
  162.6880  211.8280  148.2610 C   0  0  0  0  0  3  0  0  0  0  0  0
  162.3310  211.0190  149.3430 C   0  0  0  0  0  3  0  0  0  0  0  0
  1 12  1  0  0  0  0
  2 23  1  6  0  0  0
  2 12  1  0  0  0  0
  2 18  1  0  0  0  0
  3 16  1  0  0  0  0
  4  5  1  0  0  0  0
  6 14  1  0  0  0  0
  7 13  1  0  0  0  0
  8 17  1  0  0  0  0
  9  7  1  0  0  0  0
 10  8  1  0  0  0  0
 11 14  1  0  0  0  0
 11  7  2  0  0  0  0
 12 16  2  0  0  0  0
 13  5  2  0  0  0  0
 14  4  2  0  0  0  0
 15  1  2  0  0  0  0
 15 21  1  0  0  0  0
 16 11  1  0  0  0  0
 17 21  1  0  0  0  0
 18  6  1  0  0  0  0
 19 10  1  0  0  0  0
 20 10  1  0  0  0  0
 20 15  1  0  0  0  0
 21  3  2  0  0  0  0
 22 26  2  0  0  0  0
 22 25  1  0  0  0  0
 24 23  1  0  0  0  0
 25 24  2  0  0  0  0
 26 27  1  0  0  0  0
 27 23  2  0  0  0  0
M  END
>  <MODEL>
3

>  <REMARK>
 VINA RESULT:      -6.9      1.429      5.368
  Name = 
  1 active torsions:
  status: ('A' for Active; 'I' for Inactive)
    1  A    between atoms: C_2  and  C_9
                            x       y       z     vdW  Elec       q    Type
                         _______ _______ _______ _____ _____    ______ ____

>  <TORSDO>
F 1

$$$$
=
 OpenBabel11052423063D

 27 31  0  0  1  0  0  0  0  0999 V2000
  161.6330  208.7520  149.2330 N   0  0  0  0  0  0  0  0  0  0  0  0
  161.9800  206.8200  150.4510 C   0  0  2  0  0  3  0  0  0  0  0  0
  161.6590  210.3240  151.4170 N   0  0  0  0  0  0  0  0  0  0  0  0
  160.4560  206.8860  154.4910 C   0  0  0  0  0  3  0  0  0  0  0  0
  160.1330  207.8790  155.4010 C   0  0  0  0  0  3  0  0  0  0  0  0
  161.6390  206.1440  152.7000 N   0  0  0  0  0  2  0  0  0  0  0  0
  161.2090  209.5130  153.9820 C   0  0  0  0  0  0  0  0  0  0  0  0
  161.8380  212.8470  148.6360 C   0  0  0  0  0  2  0  0  0  0  0  0
  161.6460  210.8300  153.8750 O   0  0  0  0  0  1  0  0  0  0  0  0
  161.0260  212.0530  147.7170 N   0  0  0  0  0  0  0  0  0  0  0  0
  161.4150  208.5420  152.9390 C   0  0  0  0  0  0  0  0  0  0  0  0
  161.7230  208.1450  150.4530 C   0  0  0  0  0  0  0  0  0  0  0  0
  160.5490  209.1780  155.1650 C   0  0  0  0  0  3  0  0  0  0  0  0
  161.1560  207.1740  153.3160 C   0  0  0  0  0  0  0  0  0  0  0  0
  161.5630  210.0900  149.0730 C   0  0  0  0  0  0  0  0  0  0  0  0
  161.6620  208.9730  151.6370 C   0  0  0  0  0  0  0  0  0  0  0  0
  161.5810  212.3980  150.0750 C   0  0  0  0  0  2  0  0  0  0  0  0
  162.6040  206.2030  151.6350 C   0  0  0  0  0  2  0  0  0  0  0  0
  161.2350  212.6030  146.3910 C   0  0  0  0  0  1  0  0  0  0  0  0
  161.5550  210.6880  147.6950 C   0  0  0  0  0  2  0  0  0  0  0  0
  161.6510  210.9030  150.1950 C   0  0  0  0  0  0  0  0  0  0  0  0
  161.6780  204.3540  146.9390 C   0  0  0  0  0  3  0  0  0  0  0  0
  161.8500  205.9720  149.2320 C   0  0  0  0  0  0  0  0  0  0  0  0
  162.3310  206.4310  147.9950 C   0  0  0  0  0  3  0  0  0  0  0  0
  162.2420  205.6300  146.8540 C   0  0  0  0  0  3  0  0  0  0  0  0
  161.2060  203.8800  148.1640 C   0  0  0  0  0  3  0  0  0  0  0  0
  161.2970  204.6810  149.3060 C   0  0  0  0  0  3  0  0  0  0  0  0
  1 12  1  0  0  0  0
  2 23  1  6  0  0  0
  2 12  1  0  0  0  0
  2 18  1  0  0  0  0
  3 16  1  0  0  0  0
  4  5  1  0  0  0  0
  6 14  1  0  0  0  0
  7 13  1  0  0  0  0
  8 17  1  0  0  0  0
  9  7  1  0  0  0  0
 10  8  1  0  0  0  0
 11 14  1  0  0  0  0
 11  7  2  0  0  0  0
 12 16  2  0  0  0  0
 13  5  2  0  0  0  0
 14  4  2  0  0  0  0
 15  1  2  0  0  0  0
 15 21  1  0  0  0  0
 16 11  1  0  0  0  0
 17 21  1  0  0  0  0
 18  6  1  0  0  0  0
 19 10  1  0  0  0  0
 20 10  1  0  0  0  0
 20 15  1  0  0  0  0
 21  3  2  0  0  0  0
 22 26  1  0  0  0  0
 23 27  1  0  0  0  0
 24 23  2  0  0  0  0
 25 22  2  0  0  0  0
 25 24  1  0  0  0  0
 26 27  2  0  0  0  0
M  END
>  <MODEL>
4

>  <REMARK>
 VINA RESULT:      -6.6      1.866      5.678
  Name = 
  1 active torsions:
  status: ('A' for Active; 'I' for Inactive)
    1  A    between atoms: C_2  and  C_9
                            x       y       z     vdW  Elec       q    Type
                         _______ _______ _______ _____ _____    ______ ____

>  <TORSDO>
F 1

$$$$
=
 OpenBabel11052423063D

 27 31  0  0  1  0  0  0  0  0999 V2000
  160.7900  210.4250  152.8490 N   0  0  0  0  0  0  0  0  0  0  0  0
  161.5390  209.9460  150.7180 C   0  0  2  0  0  3  0  0  0  0  0  0
  161.1060  207.8930  153.7030 N   0  0  0  0  0  0  0  0  0  0  0  0
  160.8410  205.8990  149.3830 C   0  0  0  0  0  3  0  0  0  0  0  0
  160.6170  204.6840  150.0100 C   0  0  0  0  0  3  0  0  0  0  0  0
  161.7100  207.9970  149.3740 N   0  0  0  0  0  2  0  0  0  0  0  0
  161.2430  205.6740  152.1240 C   0  0  0  0  0  0  0  0  0  0  0  0
  160.5080  209.7360  156.9260 C   0  0  0  0  0  2  0  0  0  0  0  0
  161.5310  205.4320  153.4640 O   0  0  0  0  0  1  0  0  0  0  0  0
  159.6050  210.7140  156.3240 N   0  0  0  0  0  0  0  0  0  0  0  0
  161.3250  206.9870  151.5390 C   0  0  0  0  0  0  0  0  0  0  0  0
  161.1720  209.4880  151.9330 C   0  0  0  0  0  0  0  0  0  0  0  0
  160.8620  204.5660  151.3670 C   0  0  0  0  0  3  0  0  0  0  0  0
  161.2670  207.0210  150.0990 C   0  0  0  0  0  0  0  0  0  0  0  0
  160.5710  210.1450  154.1510 C   0  0  0  0  0  0  0  0  0  0  0  0
  161.2720  208.1100  152.3620 C   0  0  0  0  0  0  0  0  0  0  0  0
  160.5810  208.4880  156.0440 C   0  0  0  0  0  2  0  0  0  0  0  0
  162.4360  209.1310  149.8800 C   0  0  0  0  0  2  0  0  0  0  0  0
  159.4990  211.8170  157.2610 C   0  0  0  0  0  1  0  0  0  0  0  0
  160.2390  211.2470  155.1170 C   0  0  0  0  0  2  0  0  0  0  0  0
  160.8050  208.8550  154.6060 C   0  0  0  0  0  0  0  0  0  0  0  0
  160.7440  213.9710  149.4260 C   0  0  0  0  0  3  0  0  0  0  0  0
  161.2470  211.3310  150.2520 C   0  0  0  0  0  0  0  0  0  0  0  0
  160.3820  212.1580  150.9870 C   0  0  0  0  0  3  0  0  0  0  0  0
  160.1280  213.4680  150.5750 C   0  0  0  0  0  3  0  0  0  0  0  0
  161.6170  213.1650  148.6920 C   0  0  0  0  0  3  0  0  0  0  0  0
  161.8710  211.8550  149.1060 C   0  0  0  0  0  3  0  0  0  0  0  0
  1 15  1  0  0  0  0
  2 23  1  1  0  0  0
  2 12  1  0  0  0  0
  3 21  1  0  0  0  0
  4  5  2  0  0  0  0
  4 14  1  0  0  0  0
  5 13  1  0  0  0  0
  6 18  1  0  0  0  0
  6 14  1  0  0  0  0
  7  9  1  0  0  0  0
 10  8  1  0  0  0  0
 10 19  1  0  0  0  0
 11  7  1  0  0  0  0
 11 16  1  0  0  0  0
 12 16  1  0  0  0  0
 12  1  2  0  0  0  0
 13  7  2  0  0  0  0
 14 11  2  0  0  0  0
 15 21  2  0  0  0  0
 15 20  1  0  0  0  0
 16  3  2  0  0  0  0
 17  8  1  0  0  0  0
 18  2  1  0  0  0  0
 20 10  1  0  0  0  0
 21 17  1  0  0  0  0
 22 25  1  0  0  0  0
 23 24  1  0  0  0  0
 25 24  2  0  0  0  0
 26 27  1  0  0  0  0
 26 22  2  0  0  0  0
 27 23  2  0  0  0  0
M  END
>  <MODEL>
5

>  <REMARK>
 VINA RESULT:      -6.4      1.561      1.893
  Name = 
  1 active torsions:
  status: ('A' for Active; 'I' for Inactive)
    1  A    between atoms: C_2  and  C_9
                            x       y       z     vdW  Elec       q    Type
                         _______ _______ _______ _____ _____    ______ ____

>  <TORSDO>
F 1

$$$$
=
 OpenBabel11052423063D

 27 31  0  0  1  0  0  0  0  0999 V2000
  160.9080  210.6910  151.4180 N   0  0  0  0  0  0  0  0  0  0  0  0
  160.6260  209.6840  153.4770 C   0  0  2  0  0  3  0  0  0  0  0  0
  159.7050  212.9710  152.1890 N   0  0  0  0  0  0  0  0  0  0  0  0
  157.1810  211.0050  155.7210 C   0  0  0  0  0  3  0  0  0  0  0  0
  156.3850  212.1390  155.7190 C   0  0  0  0  0  3  0  0  0  0  0  0
  159.1640  209.9730  155.3250 N   0  0  0  0  0  2  0  0  0  0  0  0
  157.9880  213.2470  154.2900 C   0  0  0  0  0  0  0  0  0  0  0  0
  161.2430  213.9700  148.9070 C   0  0  0  0  0  2  0  0  0  0  0  0
  158.3640  214.4530  153.7060 O   0  0  0  0  0  1  0  0  0  0  0  0
  161.0770  212.6500  148.3040 N   0  0  0  0  0  0  0  0  0  0  0  0
  158.7560  212.0390  154.1340 C   0  0  0  0  0  0  0  0  0  0  0  0
  160.3570  210.7280  152.6670 C   0  0  0  0  0  0  0  0  0  0  0  0
  156.8130  213.2670  155.0410 C   0  0  0  0  0  3  0  0  0  0  0  0
  158.3880  210.9610  155.0180 C   0  0  0  0  0  0  0  0  0  0  0  0
  160.8830  211.7350  150.5630 C   0  0  0  0  0  0  0  0  0  0  0  0
  159.6420  211.9210  153.0650 C   0  0  0  0  0  0  0  0  0  0  0  0
  160.2750  214.1280  150.0810 C   0  0  0  0  0  2  0  0  0  0  0  0
  160.5450  209.8630  154.9370 C   0  0  0  0  0  2  0  0  0  0  0  0
  161.9400  212.6100  147.1380 C   0  0  0  0  0  1  0  0  0  0  0  0
  161.5890  211.6470  149.2400 C   0  0  0  0  0  2  0  0  0  0  0  0
  160.3280  212.9340  150.9890 C   0  0  0  0  0  0  0  0  0  0  0  0
  162.2080  205.9560  152.0250 C   0  0  0  0  0  3  0  0  0  0  0  0
  161.1980  208.4000  152.9810 C   0  0  0  0  0  0  0  0  0  0  0  0
  161.0670  207.2260  153.7410 C   0  0  0  0  0  3  0  0  0  0  0  0
  161.5720  206.0120  153.2680 C   0  0  0  0  0  3  0  0  0  0  0  0
  162.3340  207.1130  151.2540 C   0  0  0  0  0  3  0  0  0  0  0  0
  161.8280  208.3270  151.7260 C   0  0  0  0  0  3  0  0  0  0  0  0
  1 12  1  0  0  0  0
  2 23  1  1  0  0  0
  2 18  1  0  0  0  0
  3 16  1  0  0  0  0
  5  4  1  0  0  0  0
  7 13  1  0  0  0  0
  8 17  1  0  0  0  0
  9  7  1  0  0  0  0
 10  8  1  0  0  0  0
 10 20  1  0  0  0  0
 11  7  2  0  0  0  0
 11 14  1  0  0  0  0
 12 16  2  0  0  0  0
 12  2  1  0  0  0  0
 13  5  2  0  0  0  0
 14  6  1  0  0  0  0
 14  4  2  0  0  0  0
 15 21  1  0  0  0  0
 15  1  2  0  0  0  0
 16 11  1  0  0  0  0
 17 21  1  0  0  0  0
 18  6  1  0  0  0  0
 19 10  1  0  0  0  0
 20 15  1  0  0  0  0
 21  3  2  0  0  0  0
 22 25  1  0  0  0  0
 23 24  1  0  0  0  0
 25 24  2  0  0  0  0
 26 27  1  0  0  0  0
 26 22  2  0  0  0  0
 27 23  2  0  0  0  0
M  END
>  <MODEL>
6

>  <REMARK>
 VINA RESULT:      -5.6      2.887      7.276
  Name = 
  1 active torsions:
  status: ('A' for Active; 'I' for Inactive)
    1  A    between atoms: C_2  and  C_9
                            x       y       z     vdW  Elec       q    Type
                         _______ _______ _______ _____ _____    ______ ____

>  <TORSDO>
F 1

$$$$
=
 OpenBabel11052423063D

 27 31  0  0  1  0  0  0  0  0999 V2000
  161.0680  207.2680  152.3890 N   0  0  0  0  0  0  0  0  0  0  0  0
  161.2260  209.1410  153.7310 C   0  0  2  0  0  3  0  0  0  0  0  0
  161.5690  208.6450  150.1320 N   0  0  0  0  0  0  0  0  0  0  0  0
  160.1550  212.8680  151.8310 C   0  0  0  0  0  3  0  0  0  0  0  0
  160.0900  213.3180  150.5230 C   0  0  0  0  0  3  0  0  0  0  0  0
  161.0150  211.4830  153.4120 N   0  0  0  0  0  2  0  0  0  0  0  0
  161.2610  211.3340  149.7940 C   0  0  0  0  0  0  0  0  0  0  0  0
  161.8610  205.0860  148.9560 C   0  0  0  0  0  2  0  0  0  0  0  0
  161.8880  210.6990  148.7260 O   0  0  0  0  0  1  0  0  0  0  0  0
  160.8430  204.5850  149.8760 N   0  0  0  0  0  0  0  0  0  0  0  0
  161.2010  210.7570  151.1110 C   0  0  0  0  0  0  0  0  0  0  0  0
  161.1850  208.6250  152.4850 C   0  0  0  0  0  0  0  0  0  0  0  0
  160.6810  212.5730  149.5180 C   0  0  0  0  0  3  0  0  0  0  0  0
  160.7670  211.6540  152.1540 C   0  0  0  0  0  0  0  0  0  0  0  0
  161.1960  206.5910  151.2280 C   0  0  0  0  0  0  0  0  0  0  0  0
  161.3790  209.3840  151.2690 C   0  0  0  0  0  0  0  0  0  0  0  0
  161.6850  206.5930  148.7600 C   0  0  0  0  0  2  0  0  0  0  0  0
  161.8610  210.4520  153.9490 C   0  0  0  0  0  2  0  0  0  0  0  0
  160.9990  203.1430  149.9290 C   0  0  0  0  0  1  0  0  0  0  0  0
  161.1430  205.0900  151.2170 C   0  0  0  0  0  2  0  0  0  0  0  0
  161.5270  207.2940  150.0780 C   0  0  0  0  0  0  0  0  0  0  0  0
  160.0810  206.9630  157.2600 C   0  0  0  0  0  3  0  0  0  0  0  0
  160.8380  208.3640  154.9420 C   0  0  0  0  0  0  0  0  0  0  0  0
  161.6400  208.4020  156.0950 C   0  0  0  0  0  3  0  0  0  0  0  0
  161.2670  207.7020  157.2450 C   0  0  0  0  0  3  0  0  0  0  0  0
  159.2670  206.9270  156.1260 C   0  0  0  0  0  3  0  0  0  0  0  0
  159.6400  207.6270  154.9750 C   0  0  0  0  0  3  0  0  0  0  0  0
  1 12  1  0  0  0  0
  2 18  1  0  0  0  0
  2 23  1  1  0  0  0
  3 16  1  0  0  0  0
  4 14  1  0  0  0  0
  5  4  2  0  0  0  0
  6 18  1  0  0  0  0
  7 11  1  0  0  0  0
  8 10  1  0  0  0  0
  9  7  1  0  0  0  0
 10 19  1  0  0  0  0
 10 20  1  0  0  0  0
 11 16  1  0  0  0  0
 11 14  2  0  0  0  0
 12  2  1  0  0  0  0
 13  7  2  0  0  0  0
 13  5  1  0  0  0  0
 14  6  1  0  0  0  0
 15  1  2  0  0  0  0
 16 12  2  0  0  0  0
 17  8  1  0  0  0  0
 17 21  1  0  0  0  0
 20 15  1  0  0  0  0
 21  3  2  0  0  0  0
 21 15  1  0  0  0  0
 23 27  2  0  0  0  0
 23 24  1  0  0  0  0
 24 25  2  0  0  0  0
 25 22  1  0  0  0  0
 26 22  2  0  0  0  0
 27 26  1  0  0  0  0
M  END
>  <MODEL>
7

>  <REMARK>
 VINA RESULT:      -5.6      2.212      7.176
  Name = 
  1 active torsions:
  status: ('A' for Active; 'I' for Inactive)
    1  A    between atoms: C_2  and  C_9
                            x       y       z     vdW  Elec       q    Type
                         _______ _______ _______ _____ _____    ______ ____

>  <TORSDO>
F 1

$$$$
=
 OpenBabel11052423063D

 27 31  0  0  1  0  0  0  0  0999 V2000
  160.9350  206.6380  152.4790 N   0  0  0  0  0  0  0  0  0  0  0  0
  160.9310  206.3200  150.1910 C   0  0  2  0  0  3  0  0  0  0  0  0
  160.9200  209.3210  152.2670 N   0  0  0  0  0  0  0  0  0  0  0  0
  162.7950  209.4610  147.8880 C   0  0  0  0  0  3  0  0  0  0  0  0
  163.0790  210.8000  148.1050 C   0  0  0  0  0  3  0  0  0  0  0  0
  161.5510  207.6060  148.2950 N   0  0  0  0  0  2  0  0  0  0  0  0
  161.6930  210.7610  150.0840 C   0  0  0  0  0  0  0  0  0  0  0  0
  160.1920  208.8220  155.9220 C   0  0  0  0  0  2  0  0  0  0  0  0
  161.0960  211.5260  151.0820 O   0  0  0  0  0  1  0  0  0  0  0  0
  161.0060  207.6130  156.0300 N   0  0  0  0  0  0  0  0  0  0  0  0
  161.5100  209.3370  149.9860 C   0  0  0  0  0  0  0  0  0  0  0  0
  161.0280  207.1780  151.2280 C   0  0  0  0  0  0  0  0  0  0  0  0
  162.4920  211.4540  149.1740 C   0  0  0  0  0  3  0  0  0  0  0  0
  161.9630  208.7440  148.7520 C   0  0  0  0  0  0  0  0  0  0  0  0
  160.8310  207.3790  153.6020 C   0  0  0  0  0  0  0  0  0  0  0  0
  161.0970  208.6180  151.1060 C   0  0  0  0  0  0  0  0  0  0  0  0
  160.6300  209.6340  154.7010 C   0  0  0  0  0  2  0  0  0  0  0  0
  160.4940  206.8220  148.8770 C   0  0  0  0  0  2  0  0  0  0  0  0
  160.6150  206.9520  157.2610 C   0  0  0  0  0  1  0  0  0  0  0  0
  160.6430  206.7120  154.9350 C   0  0  0  0  0  2  0  0  0  0  0  0
  160.7490  208.7600  153.4870 C   0  0  0  0  0  0  0  0  0  0  0  0
  161.2060  202.0550  150.6770 C   0  0  0  0  0  3  0  0  0  0  0  0
  161.0500  204.8430  150.3490 C   0  0  0  0  0  0  0  0  0  0  0  0
  161.3300  204.2850  151.6070 C   0  0  0  0  0  3  0  0  0  0  0  0
  161.4120  202.9000  151.7700 C   0  0  0  0  0  3  0  0  0  0  0  0
  160.9140  202.5950  149.4220 C   0  0  0  0  0  3  0  0  0  0  0  0
  160.8310  203.9800  149.2600 C   0  0  0  0  0  3  0  0  0  0  0  0
  1 15  1  0  0  0  0
  2 23  1  1  0  0  0
  2 12  1  0  0  0  0
  3 21  1  0  0  0  0
  4  5  2  0  0  0  0
  4 14  1  0  0  0  0
  5 13  1  0  0  0  0
  6 14  1  0  0  0  0
  6 18  1  0  0  0  0
  7  9  1  0  0  0  0
  8 10  1  0  0  0  0
 10 19  1  0  0  0  0
 11  7  1  0  0  0  0
 11 16  1  0  0  0  0
 12  1  2  0  0  0  0
 13  7  2  0  0  0  0
 14 11  2  0  0  0  0
 15 20  1  0  0  0  0
 16 12  1  0  0  0  0
 16  3  2  0  0  0  0
 17  8  1  0  0  0  0
 18  2  1  0  0  0  0
 20 10  1  0  0  0  0
 21 15  2  0  0  0  0
 21 17  1  0  0  0  0
 22 25  1  0  0  0  0
 23 24  1  0  0  0  0
 24 25  2  0  0  0  0
 26 22  2  0  0  0  0
 27 26  1  0  0  0  0
 27 23  2  0  0  0  0
M  END
>  <MODEL>
8

>  <REMARK>
 VINA RESULT:      -5.6      1.959      5.583
  Name = 
  1 active torsions:
  status: ('A' for Active; 'I' for Inactive)
    1  A    between atoms: C_2  and  C_9
                            x       y       z     vdW  Elec       q    Type
                         _______ _______ _______ _____ _____    ______ ____

>  <TORSDO>
F 1

$$$$
=
 OpenBabel11052423063D

 27 31  0  0  1  0  0  0  0  0999 V2000
  161.0580  208.4290  152.6710 N   0  0  0  0  0  0  0  0  0  0  0  0
  160.8180  209.9750  154.3700 C   0  0  2  0  0  3  0  0  0  0  0  0
  161.1570  210.3140  150.7530 N   0  0  0  0  0  0  0  0  0  0  0  0
  158.8550  213.6550  153.2520 C   0  0  0  0  0  3  0  0  0  0  0  0
  158.6470  214.3340  152.0620 C   0  0  0  0  0  3  0  0  0  0  0  0
  160.0600  212.2180  154.5320 N   0  0  0  0  0  2  0  0  0  0  0  0
  160.2240  212.8670  150.9650 C   0  0  0  0  0  0  0  0  0  0  0  0
  162.2310  207.2360  148.8800 C   0  0  0  0  0  2  0  0  0  0  0  0
  160.9490  212.6270  149.8020 O   0  0  0  0  0  1  0  0  0  0  0  0
  161.3850  206.3350  149.6590 N   0  0  0  0  0  0  0  0  0  0  0  0
  160.3400  212.0380  152.1350 C   0  0  0  0  0  0  0  0  0  0  0  0
  160.8600  209.7270  153.0440 C   0  0  0  0  0  0  0  0  0  0  0  0
  159.3640  213.9660  150.9370 C   0  0  0  0  0  3  0  0  0  0  0  0
  159.7410  212.5780  153.3310 C   0  0  0  0  0  0  0  0  0  0  0  0
  161.3040  208.0510  151.3990 C   0  0  0  0  0  0  0  0  0  0  0  0
  160.8350  210.7410  152.0130 C   0  0  0  0  0  0  0  0  0  0  0  0
  161.7040  208.6680  148.9920 C   0  0  0  0  0  2  0  0  0  0  0  0
  161.1380  211.3260  154.8630 C   0  0  0  0  0  2  0  0  0  0  0  0
  161.8730  204.9900  149.4190 C   0  0  0  0  0  1  0  0  0  0  0  0
  161.6000  206.6130  151.0800 C   0  0  0  0  0  2  0  0  0  0  0  0
  161.4280  209.0300  150.4220 C   0  0  0  0  0  0  0  0  0  0  0  0
  160.3720  206.8210  157.2610 C   0  0  0  0  0  3  0  0  0  0  0  0
  160.6570  208.9000  155.3900 C   0  0  0  0  0  0  0  0  0  0  0  0
  159.5070  208.0940  155.3940 C   0  0  0  0  0  3  0  0  0  0  0  0
  159.3620  207.0640  156.3260 C   0  0  0  0  0  3  0  0  0  0  0  0
  161.5270  207.6060  157.2600 C   0  0  0  0  0  3  0  0  0  0  0  0
  161.6710  208.6360  156.3270 C   0  0  0  0  0  3  0  0  0  0  0  0
  1 12  1  0  0  0  0
  2 18  1  0  0  0  0
  2 23  1  1  0  0  0
  3 16  1  0  0  0  0
  4 14  1  0  0  0  0
  5  4  2  0  0  0  0
  6 18  1  0  0  0  0
  7 11  1  0  0  0  0
  8 17  1  0  0  0  0
  8 10  1  0  0  0  0
  9  7  1  0  0  0  0
 10 20  1  0  0  0  0
 11 14  2  0  0  0  0
 12  2  1  0  0  0  0
 13  7  2  0  0  0  0
 13  5  1  0  0  0  0
 14  6  1  0  0  0  0
 15  1  2  0  0  0  0
 16 11  1  0  0  0  0
 16 12  2  0  0  0  0
 17 21  1  0  0  0  0
 19 10  1  0  0  0  0
 20 15  1  0  0  0  0
 21  3  2  0  0  0  0
 21 15  1  0  0  0  0
 23 24  2  0  0  0  0
 23 27  1  0  0  0  0
 24 25  1  0  0  0  0
 25 22  2  0  0  0  0
 26 22  1  0  0  0  0
 27 26  2  0  0  0  0
M  END
>  <MODEL>
9

>  <REMARK>
 VINA RESULT:      -5.2      2.476      7.612
  Name = 
  1 active torsions:
  status: ('A' for Active; 'I' for Inactive)
    1  A    between atoms: C_2  and  C_9
                            x       y       z     vdW  Elec       q    Type
                         _______ _______ _______ _____ _____    ______ ____

>  <TORSDO>
F 1

$$$$
