=
 OpenBabel11052422463D

 31 34  0  0  1  0  0  0  0  0999 V2000
  161.8550  210.0140  149.2340 C   0  0  1  0  0  3  0  0  0  0  0  0
  162.5160  206.7470  147.3410 C   0  0  0  0  0  2  0  0  0  0  0  0
  161.8840  207.7680  148.2510 C   0  0  0  0  0  0  0  0  0  0  0  0
  161.7530  209.4050  150.6400 C   0  0  0  0  0  2  0  0  0  0  0  0
  161.4300  205.0160  148.8050 C   0  0  2  0  0  3  0  0  0  0  0  0
  162.6860  211.1330  149.2620 O   0  0  0  0  0  1  0  0  0  0  0  0
  160.3760  205.9740  149.3480 C   0  0  0  0  0  2  0  0  0  0  0  0
  161.8540  205.3690  147.3740 C   0  0  1  0  0  3  0  0  0  0  0  0
  162.3890  209.0060  148.2570 C   0  0  0  0  0  3  0  0  0  0  0  0
  160.8100  207.4390  149.2770 C   0  0  1  0  0  3  0  0  0  0  0  0
  161.2070  207.9600  150.6630 C   0  0  0  0  0  2  0  0  0  0  0  0
  160.7240  205.2220  146.3370 C   0  0  1  0  0  3  0  0  0  0  0  0
  160.2310  206.4450  145.9130 F   0  0  0  0  0  0  0  0  0  0  0  0
  159.8100  204.2690  144.3700 O   0  0  0  0  0  1  0  0  0  0  0  0
  160.9720  204.2600  145.1460 C   0  0  1  0  0  0  0  0  0  0  0  0
  161.4980  205.5780  143.4470 O   0  0  0  0  0  1  0  0  0  0  0  0
  162.0180  204.7390  144.3240 O   0  0  0  0  0  0  0  0  0  0  0  0
  161.2480  202.7980  145.5670 C   0  0  0  0  0  2  0  0  0  0  0  0
  160.0550  201.8970  145.4630 C   0  0  0  0  0  3  0  0  0  0  0  0
  160.0740  200.9220  144.7300 O   0  0  0  0  0  0  0  0  0  0  0  0
  161.1150  203.5340  149.0540 C   0  0  0  0  0  2  0  0  0  0  0  0
  161.3280  201.5750  150.6410 C   0  0  0  0  0  2  0  0  0  0  0  0
  161.1420  203.0710  150.5150 C   0  0  0  0  0  0  0  0  0  0  0  0
  159.9910  202.2110  150.9820 C   0  0  0  0  0  2  0  0  0  0  0  0
  161.8700  203.8540  151.5980 C   0  0  0  0  0  2  0  0  0  0  0  0
  160.8850  204.5210  152.5400 C   0  0  0  0  0  2  0  0  0  0  0  0
  161.5740  205.6580  153.2660 C   0  0  0  0  0  2  0  0  0  0  0  0
  160.8580  206.8580  155.2940 C   0  0  2  0  0  3  0  0  0  0  0  0
  159.6940  207.2400  155.9580 O   0  0  0  0  0  1  0  0  0  0  0  0
  161.1980  207.8940  154.2440 C   0  0  0  0  0  2  0  0  0  0  0  0
  160.5340  206.5960  153.8380 C   0  0  1  0  0  3  0  0  0  0  0  0
  1  6  1  1  0  0  0
  1  4  1  0  0  0  0
  2  8  1  0  0  0  0
  2  3  1  0  0  0  0
  3  9  2  0  0  0  0
  3 10  1  0  0  0  0
  4 11  1  0  0  0  0
  5 21  1  6  0  0  0
  5  7  1  0  0  0  0
  8 12  1  6  0  0  0
  8  5  1  0  0  0  0
  9  1  1  0  0  0  0
 10  7  1  1  0  0  0
 10 11  1  0  0  0  0
 12 13  1  6  0  0  0
 15 14  1  6  0  0  0
 15 18  1  0  0  0  0
 15 12  1  0  0  0  0
 16 17  1  0  0  0  0
 17 15  1  0  0  0  0
 19 18  1  0  0  0  0
 20 19  2  0  0  0  0
 21 23  1  0  0  0  0
 22 24  1  0  0  0  0
 23 22  1  0  0  0  0
 23 24  1  0  0  0  0
 23 25  1  0  0  0  0
 25 26  1  0  0  0  0
 26 27  1  0  0  0  0
 28 29  1  1  0  0  0
 30 28  1  0  0  0  0
 31 27  1  6  0  0  0
 31 30  1  0  0  0  0
 31 28  1  0  0  0  0
M  END
>  <MODEL>
1

>  <REMARK>
 VINA RESULT:      -7.0      0.000      0.000
  Name = 
  11 active torsions:
  status: ('A' for Active; 'I' for Inactive)
    1  A    between atoms: C_5  and  C_21
    2  A    between atoms: C_5  and  C_31
    3  A    between atoms: C_6  and  C_7
    4  A    between atoms: C_6  and  C_19
    5  A    between atoms: C_7  and  C_9
    6  A    between atoms: C_9  and  C_23
    7  A    between atoms: C_15  and  C_23
    8  A    between atoms: C_17  and  C_30
    9  A    between atoms: O_18  and  C_31
   10  A    between atoms: C_19  and  C_24
   11  A    between atoms: C_30  and  C_31
                            x       y       z     vdW  Elec       q    Type
                         _______ _______ _______ _____ _____    ______ ____

>  <TORSDO>
F 11

$$$$
=
 OpenBabel11052422463D

 31 34  0  0  1  0  0  0  0  0999 V2000
  161.9280  211.9360  149.1610 C   0  0  1  0  0  3  0  0  0  0  0  0
  160.3960  210.3210  152.2820 C   0  0  0  0  0  2  0  0  0  0  0  0
  161.3000  210.5790  151.1040 C   0  0  0  0  0  0  0  0  0  0  0  0
  161.9330  210.6810  148.2770 C   0  0  0  0  0  2  0  0  0  0  0  0
  161.0760  207.9110  152.0620 C   0  0  2  0  0  3  0  0  0  0  0  0
  161.4050  213.0140  148.4500 O   0  0  0  0  0  1  0  0  0  0  0  0
  162.3570  208.2250  151.2980 C   0  0  0  0  0  2  0  0  0  0  0  0
  160.6950  209.0280  153.0410 C   0  0  1  0  0  3  0  0  0  0  0  0
  161.1200  211.7050  150.4060 C   0  0  0  0  0  3  0  0  0  0  0  0
  162.3000  209.5670  150.5660 C   0  0  1  0  0  3  0  0  0  0  0  0
  162.1020  209.3600  149.0590 C   0  0  0  0  0  2  0  0  0  0  0  0
  161.7090  209.2250  154.1850 C   0  0  1  0  0  3  0  0  0  0  0  0
  162.4440  210.3910  154.0460 F   0  0  0  0  0  0  0  0  0  0  0  0
  161.5970  207.7740  156.0530 O   0  0  0  0  0  1  0  0  0  0  0  0
  161.1900  209.0430  155.6350 C   0  0  1  0  0  0  0  0  0  0  0  0
  162.6650  209.3280  157.2610 O   0  0  0  0  0  1  0  0  0  0  0  0
  161.7980  209.9770  156.5050 O   0  0  0  0  0  0  0  0  0  0  0  0
  159.6500  209.1130  155.7640 C   0  0  0  0  0  2  0  0  0  0  0  0
  159.1290  210.4690  156.1310 C   0  0  0  0  0  3  0  0  0  0  0  0
  158.8500  211.2840  155.2670 O   0  0  0  0  0  0  0  0  0  0  0  0
  161.0220  206.4860  152.6320 C   0  0  0  0  0  2  0  0  0  0  0  0
  160.7040  204.0080  152.2300 C   0  0  0  0  0  2  0  0  0  0  0  0
  161.0410  205.3460  151.6080 C   0  0  0  0  0  0  0  0  0  0  0  0
  162.1210  204.3010  151.7670 C   0  0  0  0  0  2  0  0  0  0  0  0
  160.4730  205.5080  150.2050 C   0  0  0  0  0  2  0  0  0  0  0  0
  161.2380  204.6560  149.2090 C   0  0  0  0  0  2  0  0  0  0  0  0
  161.5840  205.4920  147.9950 C   0  0  0  0  0  2  0  0  0  0  0  0
  161.5790  205.4740  145.5310 C   0  0  2  0  0  3  0  0  0  0  0  0
  161.0980  204.7130  144.4670 O   0  0  0  0  0  1  0  0  0  0  0  0
  162.9060  204.9090  145.9910 C   0  0  0  0  0  2  0  0  0  0  0  0
  161.6440  204.6050  146.7700 C   0  0  1  0  0  3  0  0  0  0  0  0
  1  6  1  6  0  0  0
  1  9  1  0  0  0  0
  2  8  1  0  0  0  0
  3  2  1  0  0  0  0
  4 11  1  0  0  0  0
  4  1  1  0  0  0  0
  5 21  1  1  0  0  0
  5  8  1  0  0  0  0
  7  5  1  0  0  0  0
  8 12  1  1  0  0  0
  9  3  2  0  0  0  0
 10 11  1  6  0  0  0
 10  3  1  0  0  0  0
 10  7  1  0  0  0  0
 12 13  1  1  0  0  0
 12 15  1  0  0  0  0
 15 18  1  0  0  0  0
 15 14  1  1  0  0  0
 15 17  1  0  0  0  0
 17 16  1  0  0  0  0
 18 19  1  0  0  0  0
 20 19  2  0  0  0  0
 23 24  1  0  0  0  0
 23 22  1  0  0  0  0
 23 21  1  0  0  0  0
 24 22  1  0  0  0  0
 25 23  1  0  0  0  0
 26 25  1  0  0  0  0
 27 26  1  0  0  0  0
 28 29  1  6  0  0  0
 28 30  1  0  0  0  0
 28 31  1  0  0  0  0
 30 31  1  0  0  0  0
 31 27  1  1  0  0  0
M  END
>  <MODEL>
2

>  <REMARK>
 VINA RESULT:      -6.9      2.562      8.098
  Name = 
  11 active torsions:
  status: ('A' for Active; 'I' for Inactive)
    1  A    between atoms: C_5  and  C_21
    2  A    between atoms: C_5  and  C_31
    3  A    between atoms: C_6  and  C_7
    4  A    between atoms: C_6  and  C_19
    5  A    between atoms: C_7  and  C_9
    6  A    between atoms: C_9  and  C_23
    7  A    between atoms: C_15  and  C_23
    8  A    between atoms: C_17  and  C_30
    9  A    between atoms: O_18  and  C_31
   10  A    between atoms: C_19  and  C_24
   11  A    between atoms: C_30  and  C_31
                            x       y       z     vdW  Elec       q    Type
                         _______ _______ _______ _____ _____    ______ ____

>  <TORSDO>
F 11

$$$$
=
 OpenBabel11052422463D

 31 34  0  0  1  0  0  0  0  0999 V2000
  161.1790  204.2050  152.1660 C   0  0  1  0  0  3  0  0  0  0  0  0
  160.3430  205.8900  148.8250 C   0  0  0  0  0  2  0  0  0  0  0  0
  161.0550  205.5240  150.1020 C   0  0  0  0  0  0  0  0  0  0  0  0
  161.3930  205.4890  152.9810 C   0  0  0  0  0  2  0  0  0  0  0  0
  161.5370  208.0970  148.9920 C   0  0  2  0  0  3  0  0  0  0  0  0
  160.3600  203.3270  152.8730 O   0  0  0  0  0  1  0  0  0  0  0  0
  162.6380  207.5600  149.8990 C   0  0  0  0  0  2  0  0  0  0  0  0
  160.9970  207.0250  148.0360 C   0  0  1  0  0  3  0  0  0  0  0  0
  160.5600  204.5200  150.8340 C   0  0  0  0  0  3  0  0  0  0  0  0
  162.2080  206.3230  150.6890 C   0  0  1  0  0  3  0  0  0  0  0  0
  161.9300  206.6780  152.1540 C   0  0  0  0  0  2  0  0  0  0  0  0
  162.0370  206.5230  147.0150 C   0  0  1  0  0  3  0  0  0  0  0  0
  163.2070  206.0920  147.6180 F   0  0  0  0  0  0  0  0  0  0  0  0
  160.2350  205.8850  145.6160 O   0  0  0  0  0  1  0  0  0  0  0  0
  161.5470  205.5240  145.9340 C   0  0  1  0  0  0  0  0  0  0  0  0
  161.4710  205.8340  143.7440 O   0  0  0  0  0  1  0  0  0  0  0  0
  162.3080  205.6560  144.7490 O   0  0  0  0  0  0  0  0  0  0  0  0
  161.5330  204.0500  146.4020 C   0  0  0  0  0  2  0  0  0  0  0  0
  161.0380  203.0860  145.3670 C   0  0  0  0  0  3  0  0  0  0  0  0
  160.6970  201.9570  145.6810 O   0  0  0  0  0  0  0  0  0  0  0  0
  161.8620  209.4520  148.3480 C   0  0  0  0  0  2  0  0  0  0  0  0
  161.2260  211.8490  148.8500 C   0  0  0  0  0  2  0  0  0  0  0  0
  162.0120  210.6390  149.3050 C   0  0  0  0  0  0  0  0  0  0  0  0
  162.7440  211.8540  148.7830 C   0  0  0  0  0  2  0  0  0  0  0  0
  162.0080  210.4640  150.8180 C   0  0  0  0  0  2  0  0  0  0  0  0
  160.8610  211.2320  151.4490 C   0  0  0  0  0  2  0  0  0  0  0  0
  160.3950  210.5050  152.6930 C   0  0  0  0  0  2  0  0  0  0  0  0
  161.4730  210.6610  154.9020 C   0  0  2  0  0  3  0  0  0  0  0  0
  162.7420  210.7520  155.4710 O   0  0  0  0  0  1  0  0  0  0  0  0
  161.1360  209.2060  154.6590 C   0  0  0  0  0  2  0  0  0  0  0  0
  161.5950  210.0780  153.5100 C   0  0  1  0  0  3  0  0  0  0  0  0
  1  6  1  1  0  0  0
  1  4  1  0  0  0  0
  2  3  1  0  0  0  0
  3 10  1  0  0  0  0
  3  9  2  0  0  0  0
  5 21  1  6  0  0  0
  5  7  1  0  0  0  0
  8 12  1  1  0  0  0
  8  2  1  0  0  0  0
  8  5  1  0  0  0  0
  9  1  1  0  0  0  0
 10  7  1  6  0  0  0
 10 11  1  0  0  0  0
 11  4  1  0  0  0  0
 12 13  1  1  0  0  0
 15 14  1  6  0  0  0
 15 18  1  0  0  0  0
 15 12  1  0  0  0  0
 16 17  1  0  0  0  0
 17 15  1  0  0  0  0
 19 20  2  0  0  0  0
 19 18  1  0  0  0  0
 21 23  1  0  0  0  0
 22 23  1  0  0  0  0
 23 25  1  0  0  0  0
 24 22  1  0  0  0  0
 24 23  1  0  0  0  0
 25 26  1  0  0  0  0
 26 27  1  0  0  0  0
 28 29  1  1  0  0  0
 30 28  1  0  0  0  0
 31 27  1  6  0  0  0
 31 30  1  0  0  0  0
 31 28  1  0  0  0  0
M  END
>  <MODEL>
3

>  <REMARK>
 VINA RESULT:      -6.4      2.049      4.852
  Name = 
  11 active torsions:
  status: ('A' for Active; 'I' for Inactive)
    1  A    between atoms: C_5  and  C_21
    2  A    between atoms: C_5  and  C_31
    3  A    between atoms: C_6  and  C_7
    4  A    between atoms: C_6  and  C_19
    5  A    between atoms: C_7  and  C_9
    6  A    between atoms: C_9  and  C_23
    7  A    between atoms: C_15  and  C_23
    8  A    between atoms: C_17  and  C_30
    9  A    between atoms: O_18  and  C_31
   10  A    between atoms: C_19  and  C_24
   11  A    between atoms: C_30  and  C_31
                            x       y       z     vdW  Elec       q    Type
                         _______ _______ _______ _____ _____    ______ ____

>  <TORSDO>
F 11

$$$$
=
 OpenBabel11052422463D

 31 34  0  0  1  0  0  0  0  0999 V2000
  161.6960  205.5020  144.2470 C   0  0  1  0  0  3  0  0  0  0  0  0
  160.5190  207.0210  147.5640 C   0  0  0  0  0  2  0  0  0  0  0  0
  161.2280  206.1400  146.5680 C   0  0  0  0  0  0  0  0  0  0  0  0
  161.3590  204.0400  144.5740 C   0  0  0  0  0  2  0  0  0  0  0  0
  160.7860  205.1160  149.1830 C   0  0  2  0  0  3  0  0  0  0  0  0
  161.2190  205.8250  142.9780 O   0  0  0  0  0  1  0  0  0  0  0  0
  161.9440  204.4820  148.4200 C   0  0  0  0  0  2  0  0  0  0  0  0
  160.7530  206.6410  149.0270 C   0  0  1  0  0  3  0  0  0  0  0  0
  161.0960  206.4260  145.2680 C   0  0  0  0  0  3  0  0  0  0  0  0
  161.9560  204.8570  146.9380 C   0  0  1  0  0  3  0  0  0  0  0  0
  161.4670  203.6890  146.0740 C   0  0  0  0  0  2  0  0  0  0  0  0
  161.9710  207.3560  149.6430 C   0  0  1  0  0  3  0  0  0  0  0  0
  162.5600  208.2520  148.7660 F   0  0  0  0  0  0  0  0  0  0  0  0
  160.4440  207.8460  151.3860 O   0  0  0  0  0  1  0  0  0  0  0  0
  161.7960  207.9690  151.0570 C   0  0  1  0  0  0  0  0  0  0  0  0
  161.6730  206.8100  152.9380 O   0  0  0  0  0  1  0  0  0  0  0  0
  162.5220  207.2290  152.0180 O   0  0  0  0  0  0  0  0  0  0  0  0
  162.1680  209.4680  151.1410 C   0  0  0  0  0  2  0  0  0  0  0  0
  161.5560  210.1850  152.3060 C   0  0  0  0  0  3  0  0  0  0  0  0
  162.2010  210.3850  153.3230 O   0  0  0  0  0  0  0  0  0  0  0  0
  160.6240  204.5960  150.6190 C   0  0  0  0  0  2  0  0  0  0  0  0
  160.6340  202.6710  152.2620 C   0  0  0  0  0  2  0  0  0  0  0  0
  160.7720  203.0830  150.8120 C   0  0  0  0  0  0  0  0  0  0  0  0
  161.9870  202.6050  151.5730 C   0  0  0  0  0  2  0  0  0  0  0  0
  160.1530  202.0790  149.8490 C   0  0  0  0  0  2  0  0  0  0  0  0
  161.0600  200.8760  149.6630 C   0  0  0  0  0  2  0  0  0  0  0  0
  161.6590  200.9090  148.2720 C   0  0  0  0  0  2  0  0  0  0  0  0
  161.0630  200.7710  145.8860 C   0  0  2  0  0  3  0  0  0  0  0  0
  159.9390  200.7340  145.0630 O   0  0  0  0  0  1  0  0  0  0  0  0
  161.3840  199.3700  146.3600 C   0  0  0  0  0  2  0  0  0  0  0  0
  160.6700  200.3350  147.2820 C   0  0  1  0  0  3  0  0  0  0  0  0
  1  6  1  6  0  0  0
  1  4  1  0  0  0  0
  1  9  1  0  0  0  0
  2  8  1  0  0  0  0
  3 10  1  0  0  0  0
  3  2  1  0  0  0  0
  4 11  1  0  0  0  0
  5 21  1  1  0  0  0
  7  5  1  0  0  0  0
  8  5  1  0  0  0  0
  8 12  1  6  0  0  0
  9  3  2  0  0  0  0
 10 11  1  6  0  0  0
 10  7  1  0  0  0  0
 12 13  1  6  0  0  0
 12 15  1  0  0  0  0
 15 18  1  0  0  0  0
 15 14  1  1  0  0  0
 15 17  1  0  0  0  0
 17 16  1  0  0  0  0
 18 19  1  0  0  0  0
 19 20  2  0  0  0  0
 21 23  1  0  0  0  0
 23 24  1  0  0  0  0
 23 22  1  0  0  0  0
 24 22  1  0  0  0  0
 25 23  1  0  0  0  0
 26 25  1  0  0  0  0
 27 26  1  0  0  0  0
 28 29  1  6  0  0  0
 28 30  1  0  0  0  0
 28 31  1  0  0  0  0
 30 31  1  0  0  0  0
 31 27  1  1  0  0  0
M  END
>  <MODEL>
4

>  <REMARK>
 VINA RESULT:      -6.3      2.154      7.031
  Name = 
  11 active torsions:
  status: ('A' for Active; 'I' for Inactive)
    1  A    between atoms: C_5  and  C_21
    2  A    between atoms: C_5  and  C_31
    3  A    between atoms: C_6  and  C_7
    4  A    between atoms: C_6  and  C_19
    5  A    between atoms: C_7  and  C_9
    6  A    between atoms: C_9  and  C_23
    7  A    between atoms: C_15  and  C_23
    8  A    between atoms: C_17  and  C_30
    9  A    between atoms: O_18  and  C_31
   10  A    between atoms: C_19  and  C_24
   11  A    between atoms: C_30  and  C_31
                            x       y       z     vdW  Elec       q    Type
                         _______ _______ _______ _____ _____    ______ ____

>  <TORSDO>
F 11

$$$$
=
 OpenBabel11052422463D

 31 34  0  0  1  0  0  0  0  0999 V2000
  160.8060  202.4470  150.8160 C   0  0  1  0  0  3  0  0  0  0  0  0
  162.1510  205.5110  152.6870 C   0  0  0  0  0  2  0  0  0  0  0  0
  161.3430  204.6490  151.7510 C   0  0  0  0  0  0  0  0  0  0  0  0
  160.9650  203.0050  149.3930 C   0  0  0  0  0  2  0  0  0  0  0  0
  161.6550  207.4010  151.1050 C   0  0  2  0  0  3  0  0  0  0  0  0
  161.3200  201.1530  150.8770 O   0  0  0  0  0  1  0  0  0  0  0  0
  160.4310  206.7230  150.5010 C   0  0  0  0  0  2  0  0  0  0  0  0
  161.8710  207.0100  152.5720 C   0  0  1  0  0  3  0  0  0  0  0  0
  161.5110  203.3230  151.8110 C   0  0  0  0  0  3  0  0  0  0  0  0
  160.4660  205.2000  150.6370 C   0  0  1  0  0  3  0  0  0  0  0  0
  160.8130  204.5390  149.2980 C   0  0  0  0  0  2  0  0  0  0  0  0
  160.7460  207.4820  153.5140 C   0  0  1  0  0  3  0  0  0  0  0  0
  160.0520  206.4260  154.0820 F   0  0  0  0  0  0  0  0  0  0  0  0
  159.9050  208.9720  155.1520 O   0  0  0  0  0  1  0  0  0  0  0  0
  161.1050  208.5640  154.5650 C   0  0  1  0  0  0  0  0  0  0  0  0
  161.8560  208.8380  156.6290 O   0  0  0  0  0  1  0  0  0  0  0  0
  161.9010  208.0160  155.5970 O   0  0  0  0  0  0  0  0  0  0  0  0
  161.7900  209.8160  153.9680 C   0  0  0  0  0  2  0  0  0  0  0  0
  160.9390  211.0490  153.9970 C   0  0  0  0  0  3  0  0  0  0  0  0
  160.6290  211.6160  152.9610 O   0  0  0  0  0  0  0  0  0  0  0  0
  161.7510  208.9030  150.8020 C   0  0  0  0  0  2  0  0  0  0  0  0
  162.6830  210.6650  149.2430 C   0  0  0  0  0  2  0  0  0  0  0  0
  162.0800  209.2820  149.3540 C   0  0  0  0  0  0  0  0  0  0  0  0
  161.2740  210.4030  148.7390 C   0  0  0  0  0  2  0  0  0  0  0  0
  162.6910  208.2880  148.3760 C   0  0  0  0  0  2  0  0  0  0  0  0
  161.6110  207.5600  147.5970 C   0  0  0  0  0  2  0  0  0  0  0  0
  162.2050  206.3300  146.9420 C   0  0  0  0  0  2  0  0  0  0  0  0
  162.0880  205.3100  144.7040 C   0  0  2  0  0  3  0  0  0  0  0  0
  161.3140  205.3540  143.5450 O   0  0  0  0  0  1  0  0  0  0  0  0
  161.4680  204.3370  145.6840 C   0  0  0  0  0  2  0  0  0  0  0  0
  161.2680  205.8270  145.8670 C   0  0  1  0  0  3  0  0  0  0  0  0
  1  6  1  6  0  0  0
  1  9  1  0  0  0  0
  3  9  2  0  0  0  0
  3  2  1  0  0  0  0
  4  1  1  0  0  0  0
  5 21  1  1  0  0  0
  5  8  1  0  0  0  0
  7 10  1  0  0  0  0
  7  5  1  0  0  0  0
  8  2  1  0  0  0  0
  8 12  1  1  0  0  0
 10 11  1  6  0  0  0
 10  3  1  0  0  0  0
 11  4  1  0  0  0  0
 12 13  1  1  0  0  0
 12 15  1  0  0  0  0
 15 14  1  1  0  0  0
 15 17  1  0  0  0  0
 17 16  1  0  0  0  0
 18 19  1  0  0  0  0
 18 15  1  0  0  0  0
 20 19  2  0  0  0  0
 22 23  1  0  0  0  0
 23 21  1  0  0  0  0
 24 22  1  0  0  0  0
 24 23  1  0  0  0  0
 25 23  1  0  0  0  0
 26 25  1  0  0  0  0
 27 26  1  0  0  0  0
 28 29  1  6  0  0  0
 28 30  1  0  0  0  0
 28 31  1  0  0  0  0
 30 31  1  0  0  0  0
 31 27  1  1  0  0  0
M  END
>  <MODEL>
5

>  <REMARK>
 VINA RESULT:      -6.0      2.386      8.589
  Name = 
  11 active torsions:
  status: ('A' for Active; 'I' for Inactive)
    1  A    between atoms: C_5  and  C_21
    2  A    between atoms: C_5  and  C_31
    3  A    between atoms: C_6  and  C_7
    4  A    between atoms: C_6  and  C_19
    5  A    between atoms: C_7  and  C_9
    6  A    between atoms: C_9  and  C_23
    7  A    between atoms: C_15  and  C_23
    8  A    between atoms: C_17  and  C_30
    9  A    between atoms: O_18  and  C_31
   10  A    between atoms: C_19  and  C_24
   11  A    between atoms: C_30  and  C_31
                            x       y       z     vdW  Elec       q    Type
                         _______ _______ _______ _____ _____    ______ ____

>  <TORSDO>
F 11

$$$$
=
 OpenBabel11052422463D

 31 34  0  0  1  0  0  0  0  0999 V2000
  161.1330  208.9990  155.0100 C   0  0  1  0  0  3  0  0  0  0  0  0
  162.6610  210.3170  151.7510 C   0  0  0  0  0  2  0  0  0  0  0  0
  161.7700  209.5760  152.7130 C   0  0  0  0  0  0  0  0  0  0  0  0
  161.1790  207.5050  154.6540 C   0  0  0  0  0  2  0  0  0  0  0  0
  162.0570  208.5350  150.0820 C   0  0  2  0  0  3  0  0  0  0  0  0
  161.6350  209.1960  156.2950 O   0  0  0  0  0  1  0  0  0  0  0  0
  160.7800  208.1300  150.8090 C   0  0  0  0  0  2  0  0  0  0  0  0
  162.3900  210.0200  150.2750 C   0  0  1  0  0  3  0  0  0  0  0  0
  161.9270  209.8040  154.0220 C   0  0  0  0  0  3  0  0  0  0  0  0
  160.8090  208.4720  152.3000 C   0  0  1  0  0  3  0  0  0  0  0  0
  161.0370  207.2120  153.1450 C   0  0  0  0  0  2  0  0  0  0  0  0
  161.3520  210.9750  149.6540 C   0  0  1  0  0  3  0  0  0  0  0  0
  160.6950  211.7370  150.6070 F   0  0  0  0  0  0  0  0  0  0  0  0
  161.8740  213.1580  148.8960 O   0  0  0  0  0  1  0  0  0  0  0  0
  161.8100  211.8360  148.4480 C   0  0  1  0  0  0  0  0  0  0  0  0
  163.8590  212.5660  148.0440 O   0  0  0  0  0  1  0  0  0  0  0  0
  163.1150  211.4760  148.0420 O   0  0  0  0  0  0  0  0  0  0  0  0
  160.8410  211.7920  147.2430 C   0  0  0  0  0  2  0  0  0  0  0  0
  159.8330  212.9010  147.2280 C   0  0  0  0  0  3  0  0  0  0  0  0
  158.6390  212.6550  147.1860 O   0  0  0  0  0  0  0  0  0  0  0  0
  162.1450  208.0220  148.6380 C   0  0  0  0  0  2  0  0  0  0  0  0
  162.1170  205.8700  147.3070 C   0  0  0  0  0  2  0  0  0  0  0  0
  161.4010  206.7160  148.3370 C   0  0  0  0  0  0  0  0  0  0  0  0
  160.8130  206.5660  146.9530 C   0  0  0  0  0  2  0  0  0  0  0  0
  160.7440  205.8880  149.4330 C   0  0  0  0  0  2  0  0  0  0  0  0
  161.6540  204.7570  149.8770 C   0  0  0  0  0  2  0  0  0  0  0  0
  160.8150  203.5520  150.2460 C   0  0  0  0  0  2  0  0  0  0  0  0
  161.1940  201.5070  148.9260 C   0  0  2  0  0  3  0  0  0  0  0  0
  161.2710  201.0880  147.5990 O   0  0  0  0  0  1  0  0  0  0  0  0
  159.7460  201.5050  149.3680 C   0  0  0  0  0  2  0  0  0  0  0  0
  160.4200  202.8070  148.9890 C   0  0  1  0  0  3  0  0  0  0  0  0
  1  6  1  1  0  0  0
  2  3  1  0  0  0  0
  3  9  2  0  0  0  0
  4  1  1  0  0  0  0
  5 21  1  6  0  0  0
  5  8  1  0  0  0  0
  5  7  1  0  0  0  0
  8 12  1  1  0  0  0
  8  2  1  0  0  0  0
  9  1  1  0  0  0  0
 10  7  1  6  0  0  0
 10  3  1  0  0  0  0
 10 11  1  0  0  0  0
 11  4  1  0  0  0  0
 12 13  1  1  0  0  0
 15 14  1  1  0  0  0
 15 12  1  0  0  0  0
 17 16  1  0  0  0  0
 17 15  1  0  0  0  0
 18 15  1  0  0  0  0
 19 18  1  0  0  0  0
 20 19  2  0  0  0  0
 22 23  1  0  0  0  0
 23 21  1  0  0  0  0
 23 25  1  0  0  0  0
 24 22  1  0  0  0  0
 24 23  1  0  0  0  0
 25 26  1  0  0  0  0
 26 27  1  0  0  0  0
 28 29  1  6  0  0  0
 28 31  1  0  0  0  0
 28 30  1  0  0  0  0
 31 30  1  0  0  0  0
 31 27  1  1  0  0  0
M  END
>  <MODEL>
6

>  <REMARK>
 VINA RESULT:      -5.7      2.669      6.831
  Name = 
  11 active torsions:
  status: ('A' for Active; 'I' for Inactive)
    1  A    between atoms: C_5  and  C_21
    2  A    between atoms: C_5  and  C_31
    3  A    between atoms: C_6  and  C_7
    4  A    between atoms: C_6  and  C_19
    5  A    between atoms: C_7  and  C_9
    6  A    between atoms: C_9  and  C_23
    7  A    between atoms: C_15  and  C_23
    8  A    between atoms: C_17  and  C_30
    9  A    between atoms: O_18  and  C_31
   10  A    between atoms: C_19  and  C_24
   11  A    between atoms: C_30  and  C_31
                            x       y       z     vdW  Elec       q    Type
                         _______ _______ _______ _____ _____    ______ ____

>  <TORSDO>
F 11

$$$$
=
 OpenBabel11052422463D

 31 34  0  0  1  0  0  0  0  0999 V2000
  160.8280  202.2750  150.6970 C   0  0  1  0  0  3  0  0  0  0  0  0
  162.2200  205.4050  152.4190 C   0  0  0  0  0  2  0  0  0  0  0  0
  161.3910  204.5100  151.5340 C   0  0  0  0  0  0  0  0  0  0  0  0
  160.9570  202.7770  149.2510 C   0  0  0  0  0  2  0  0  0  0  0  0
  161.6940  207.2340  150.7760 C   0  0  2  0  0  3  0  0  0  0  0  0
  161.3410  200.9830  150.7970 O   0  0  0  0  0  1  0  0  0  0  0  0
  160.4550  206.5370  150.2250 C   0  0  0  0  0  2  0  0  0  0  0  0
  161.9410  206.8990  152.2520 C   0  0  1  0  0  3  0  0  0  0  0  0
  161.5560  203.1870  151.6420 C   0  0  0  0  0  3  0  0  0  0  0  0
  160.4900  205.0200  150.4190 C   0  0  1  0  0  3  0  0  0  0  0  0
  160.8070  204.3070  149.1000 C   0  0  0  0  0  2  0  0  0  0  0  0
  160.8380  207.4110  153.1990 C   0  0  1  0  0  3  0  0  0  0  0  0
  160.4620  206.4630  154.1360 F   0  0  0  0  0  0  0  0  0  0  0  0
  162.3440  209.2110  153.5230 O   0  0  0  0  0  1  0  0  0  0  0  0
  161.0460  208.8060  153.8460 C   0  0  1  0  0  0  0  0  0  0  0  0
  160.8650  210.8390  152.9920 O   0  0  0  0  0  1  0  0  0  0  0  0
  160.1670  209.7570  153.2800 O   0  0  0  0  0  0  0  0  0  0  0  0
  160.9190  208.8070  155.3870 C   0  0  0  0  0  2  0  0  0  0  0  0
  161.8990  209.7050  156.0800 C   0  0  0  0  0  3  0  0  0  0  0  0
  161.6630  210.8940  156.2200 O   0  0  0  0  0  0  0  0  0  0  0  0
  161.7870  208.7230  150.4130 C   0  0  0  0  0  2  0  0  0  0  0  0
  161.5810  208.0400  147.9850 C   0  0  0  0  0  2  0  0  0  0  0  0
  162.1560  209.0440  148.9600 C   0  0  0  0  0  0  0  0  0  0  0  0
  163.0760  208.0730  148.2560 C   0  0  0  0  0  2  0  0  0  0  0  0
  162.1500  210.4670  148.4200 C   0  0  0  0  0  2  0  0  0  0  0  0
  161.8110  211.4610  149.5150 C   0  0  0  0  0  2  0  0  0  0  0  0
  161.1860  212.6950  148.8980 C   0  0  0  0  0  2  0  0  0  0  0  0
  159.7050  213.2610  147.0130 C   0  0  2  0  0  3  0  0  0  0  0  0
  159.1160  212.6680  145.8970 O   0  0  0  0  0  1  0  0  0  0  0  0
  161.1000  213.7260  146.6560 C   0  0  0  0  0  2  0  0  0  0  0  0
  160.9070  212.4420  147.4330 C   0  0  1  0  0  3  0  0  0  0  0  0
  1  6  1  6  0  0  0
  1  9  1  0  0  0  0
  3  9  2  0  0  0  0
  3  2  1  0  0  0  0
  4  1  1  0  0  0  0
  5 21  1  1  0  0  0
  5  8  1  0  0  0  0
  7 10  1  0  0  0  0
  7  5  1  0  0  0  0
  8  2  1  0  0  0  0
  8 12  1  1  0  0  0
 10 11  1  6  0  0  0
 10  3  1  0  0  0  0
 11  4  1  0  0  0  0
 12 15  1  0  0  0  0
 12 13  1  1  0  0  0
 15 14  1  6  0  0  0
 15 18  1  0  0  0  0
 16 17  1  0  0  0  0
 17 15  1  0  0  0  0
 18 19  1  0  0  0  0
 19 20  2  0  0  0  0
 22 24  1  0  0  0  0
 22 23  1  0  0  0  0
 23 21  1  0  0  0  0
 24 23  1  0  0  0  0
 25 23  1  0  0  0  0
 25 26  1  0  0  0  0
 27 26  1  0  0  0  0
 28 29  1  6  0  0  0
 28 31  1  0  0  0  0
 30 28  1  0  0  0  0
 30 31  1  0  0  0  0
 31 27  1  1  0  0  0
M  END
>  <MODEL>
7

>  <REMARK>
 VINA RESULT:      -5.7      3.550      8.485
  Name = 
  11 active torsions:
  status: ('A' for Active; 'I' for Inactive)
    1  A    between atoms: C_5  and  C_21
    2  A    between atoms: C_5  and  C_31
    3  A    between atoms: C_6  and  C_7
    4  A    between atoms: C_6  and  C_19
    5  A    between atoms: C_7  and  C_9
    6  A    between atoms: C_9  and  C_23
    7  A    between atoms: C_15  and  C_23
    8  A    between atoms: C_17  and  C_30
    9  A    between atoms: O_18  and  C_31
   10  A    between atoms: C_19  and  C_24
   11  A    between atoms: C_30  and  C_31
                            x       y       z     vdW  Elec       q    Type
                         _______ _______ _______ _____ _____    ______ ____

>  <TORSDO>
F 11

$$$$
=
 OpenBabel11052422463D

 31 34  0  0  1  0  0  0  0  0999 V2000
  161.5840  207.1470  154.5510 C   0  0  1  0  0  3  0  0  0  0  0  0
  160.0540  204.7400  151.9900 C   0  0  0  0  0  2  0  0  0  0  0  0
  160.9560  205.7680  152.6240 C   0  0  0  0  0  0  0  0  0  0  0  0
  161.5840  208.4000  153.6630 C   0  0  0  0  0  2  0  0  0  0  0  0
  160.7260  205.7550  149.7900 C   0  0  2  0  0  3  0  0  0  0  0  0
  161.0620  207.4570  155.8060 O   0  0  0  0  0  1  0  0  0  0  0  0
  162.0060  206.3740  150.3390 C   0  0  0  0  0  2  0  0  0  0  0  0
  160.3500  204.4570  150.5170 C   0  0  1  0  0  3  0  0  0  0  0  0
  160.7790  206.0490  153.9200 C   0  0  0  0  0  3  0  0  0  0  0  0
  161.9510  206.6160  151.8480 C   0  0  1  0  0  3  0  0  0  0  0  0
  161.7490  208.1040  152.1560 C   0  0  0  0  0  2  0  0  0  0  0  0
  161.3670  203.3170  150.3190 C   0  0  1  0  0  3  0  0  0  0  0  0
  161.9650  202.9270  151.5060 F   0  0  0  0  0  0  0  0  0  0  0  0
  161.2710  200.9530  150.1980 O   0  0  0  0  0  1  0  0  0  0  0  0
  160.9120  202.0950  149.4780 C   0  0  1  0  0  0  0  0  0  0  0  0
  159.0740  200.8960  149.7610 O   0  0  0  0  0  1  0  0  0  0  0  0
  159.5050  202.0730  149.3470 O   0  0  0  0  0  0  0  0  0  0  0  0
  161.5820  202.0070  148.0860 C   0  0  0  0  0  2  0  0  0  0  0  0
  160.6150  202.0290  146.9410 C   0  0  0  0  0  3  0  0  0  0  0  0
  160.9920  202.3070  145.8140 O   0  0  0  0  0  0  0  0  0  0  0  0
  160.6680  205.6930  148.2570 C   0  0  0  0  0  2  0  0  0  0  0  0
  161.7980  206.0080  146.0150 C   0  0  0  0  0  2  0  0  0  0  0  0
  161.9050  206.2050  147.5110 C   0  0  0  0  0  0  0  0  0  0  0  0
  162.7700  205.1710  146.8280 C   0  0  0  0  0  2  0  0  0  0  0  0
  162.5970  207.5070  147.8910 C   0  0  0  0  0  2  0  0  0  0  0  0
  161.5810  208.5800  148.2360 C   0  0  0  0  0  2  0  0  0  0  0  0
  162.2980  209.7850  148.8080 C   0  0  0  0  0  2  0  0  0  0  0  0
  161.6730  212.1060  149.3450 C   0  0  2  0  0  3  0  0  0  0  0  0
  160.6700  213.0360  149.0740 O   0  0  0  0  0  1  0  0  0  0  0  0
  162.7120  212.1550  148.2470 C   0  0  0  0  0  2  0  0  0  0  0  0
  161.6760  211.0510  148.2590 C   0  0  1  0  0  3  0  0  0  0  0  0
  1  6  1  1  0  0  0
  2  3  1  0  0  0  0
  3  9  2  0  0  0  0
  4  1  1  0  0  0  0
  5 21  1  6  0  0  0
  5  7  1  0  0  0  0
  5  8  1  0  0  0  0
  8 12  1  1  0  0  0
  8  2  1  0  0  0  0
  9  1  1  0  0  0  0
 10  7  1  6  0  0  0
 10 11  1  0  0  0  0
 10  3  1  0  0  0  0
 11  4  1  0  0  0  0
 12 13  1  1  0  0  0
 15 14  1  1  0  0  0
 15 12  1  0  0  0  0
 17 15  1  0  0  0  0
 17 16  1  0  0  0  0
 18 15  1  0  0  0  0
 19 18  1  0  0  0  0
 20 19  2  0  0  0  0
 22 24  1  0  0  0  0
 22 23  1  0  0  0  0
 23 25  1  0  0  0  0
 23 21  1  0  0  0  0
 24 23  1  0  0  0  0
 25 26  1  0  0  0  0
 26 27  1  0  0  0  0
 28 29  1  6  0  0  0
 30 31  1  0  0  0  0
 30 28  1  0  0  0  0
 31 27  1  1  0  0  0
 31 28  1  0  0  0  0
M  END
>  <MODEL>
8

>  <REMARK>
 VINA RESULT:      -5.6      2.437      5.525
  Name = 
  11 active torsions:
  status: ('A' for Active; 'I' for Inactive)
    1  A    between atoms: C_5  and  C_21
    2  A    between atoms: C_5  and  C_31
    3  A    between atoms: C_6  and  C_7
    4  A    between atoms: C_6  and  C_19
    5  A    between atoms: C_7  and  C_9
    6  A    between atoms: C_9  and  C_23
    7  A    between atoms: C_15  and  C_23
    8  A    between atoms: C_17  and  C_30
    9  A    between atoms: O_18  and  C_31
   10  A    between atoms: C_19  and  C_24
   11  A    between atoms: C_30  and  C_31
                            x       y       z     vdW  Elec       q    Type
                         _______ _______ _______ _____ _____    ______ ____

>  <TORSDO>
F 11

$$$$
=
 OpenBabel11052422463D

 31 34  0  0  1  0  0  0  0  0999 V2000
  160.7380  203.8630  150.5910 C   0  0  1  0  0  3  0  0  0  0  0  0
  161.9460  206.0660  153.4860 C   0  0  0  0  0  2  0  0  0  0  0  0
  161.2420  205.6120  152.2330 C   0  0  0  0  0  0  0  0  0  0  0  0
  161.1300  204.8130  149.4490 C   0  0  0  0  0  2  0  0  0  0  0  0
  161.7820  208.3880  152.5360 C   0  0  2  0  0  3  0  0  0  0  0  0
  161.1730  202.5710  150.3020 O   0  0  0  0  0  1  0  0  0  0  0  0
  160.6260  208.0450  151.6020 C   0  0  0  0  0  2  0  0  0  0  0  0
  161.7610  207.5470  153.8180 C   0  0  1  0  0  3  0  0  0  0  0  0
  161.3330  204.3230  151.8910 C   0  0  0  0  0  3  0  0  0  0  0  0
  160.5660  206.5570  151.2520 C   0  0  1  0  0  3  0  0  0  0  0  0
  161.0710  206.3090  149.8260 C   0  0  0  0  0  2  0  0  0  0  0  0
  160.5360  207.8110  154.7150 C   0  0  1  0  0  3  0  0  0  0  0  0
  159.6890  206.7170  154.7910 F   0  0  0  0  0  0  0  0  0  0  0  0
  159.9030  207.8240  156.9970 O   0  0  0  0  0  1  0  0  0  0  0  0
  160.7970  208.4310  156.1120 C   0  0  1  0  0  0  0  0  0  0  0  0
  162.6610  209.2310  156.9970 O   0  0  0  0  0  1  0  0  0  0  0  0
  162.1000  208.1180  156.5650 O   0  0  0  0  0  0  0  0  0  0  0  0
  160.5610  209.9590  156.1750 C   0  0  0  0  0  2  0  0  0  0  0  0
  159.1300  210.3470  156.3900 C   0  0  0  0  0  3  0  0  0  0  0  0
  158.8370  211.4800  156.7360 O   0  0  0  0  0  0  0  0  0  0  0  0
  161.9960  209.8950  152.7370 C   0  0  0  0  0  2  0  0  0  0  0  0
  160.4250  211.8320  153.1640 C   0  0  0  0  0  2  0  0  0  0  0  0
  160.9180  210.8170  152.1560 C   0  0  0  0  0  0  0  0  0  0  0  0
  159.5250  210.6880  152.7280 C   0  0  0  0  0  2  0  0  0  0  0  0
  161.0090  211.3770  150.7440 C   0  0  0  0  0  2  0  0  0  0  0  0
  162.2460  210.8580  150.0330 C   0  0  0  0  0  2  0  0  0  0  0  0
  162.1070  211.0970  148.5440 C   0  0  0  0  0  2  0  0  0  0  0  0
  162.2330  212.8790  146.8490 C   0  0  2  0  0  3  0  0  0  0  0  0
  162.5490  214.2320  146.7380 O   0  0  0  0  0  1  0  0  0  0  0  0
  160.7830  212.7350  147.2550 C   0  0  0  0  0  2  0  0  0  0  0  0
  161.8770  212.5700  148.2880 C   0  0  1  0  0  3  0  0  0  0  0  0
  1  6  1  6  0  0  0
  1  9  1  0  0  0  0
  2  8  1  0  0  0  0
  3  2  1  0  0  0  0
  4 11  1  0  0  0  0
  4  1  1  0  0  0  0
  5 21  1  1  0  0  0
  5  8  1  0  0  0  0
  7  5  1  0  0  0  0
  8 12  1  6  0  0  0
  9  3  2  0  0  0  0
 10 11  1  6  0  0  0
 10  7  1  0  0  0  0
 10  3  1  0  0  0  0
 12 13  1  1  0  0  0
 12 15  1  0  0  0  0
 15 18  1  0  0  0  0
 15 17  1  0  0  0  0
 15 14  1  1  0  0  0
 17 16  1  0  0  0  0
 18 19  1  0  0  0  0
 19 20  2  0  0  0  0
 23 24  1  0  0  0  0
 23 21  1  0  0  0  0
 23 22  1  0  0  0  0
 24 22  1  0  0  0  0
 25 23  1  0  0  0  0
 26 25  1  0  0  0  0
 27 26  1  0  0  0  0
 28 29  1  1  0  0  0
 28 30  1  0  0  0  0
 28 31  1  0  0  0  0
 30 31  1  0  0  0  0
 31 27  1  6  0  0  0
M  END
>  <MODEL>
9

>  <REMARK>
 VINA RESULT:      -5.5      3.554      9.193
  Name = 
  11 active torsions:
  status: ('A' for Active; 'I' for Inactive)
    1  A    between atoms: C_5  and  C_21
    2  A    between atoms: C_5  and  C_31
    3  A    between atoms: C_6  and  C_7
    4  A    between atoms: C_6  and  C_19
    5  A    between atoms: C_7  and  C_9
    6  A    between atoms: C_9  and  C_23
    7  A    between atoms: C_15  and  C_23
    8  A    between atoms: C_17  and  C_30
    9  A    between atoms: O_18  and  C_31
   10  A    between atoms: C_19  and  C_24
   11  A    between atoms: C_30  and  C_31
                            x       y       z     vdW  Elec       q    Type
                         _______ _______ _______ _____ _____    ______ ____

>  <TORSDO>
F 11

$$$$
