=
 OpenBabel11062409503D

 34 38  0  0  1  0  0  0  0  0999 V2000
  161.2540  209.3350  153.4460 C   0  0  1  0  0  0  0  0  0  0  0  0
  157.3820  211.1820  155.5210 O   0  0  0  0  0  0  0  0  0  0  0  0
  160.1550  209.6350  155.5190 C   0  0  1  0  0  3  0  0  0  0  0  0
  162.3110  209.9120  152.7160 O   0  0  0  0  0  1  0  0  0  0  0  0
  161.4750  209.4670  154.9030 N   0  0  2  0  0  0  0  0  0  0  0  0
  158.3920  211.1900  154.7680 C   0  0  0  0  0  0  0  0  0  0  0  0
  158.8740  212.4050  154.1810 N   0  0  0  0  0  0  0  0  0  0  0  0
  160.1220  212.3930  153.6400 O   0  0  0  0  0  0  0  0  0  0  0  0
  159.1180  209.9210  154.4450 C   0  0  1  0  0  3  0  0  0  0  0  0
  160.0580  211.4640  152.5880 C   0  0  0  0  0  2  0  0  0  0  0  0
  159.9120  210.0210  153.1370 C   0  0  1  0  0  3  0  0  0  0  0  0
  158.0980  213.6420  154.2190 C   0  0  0  0  0  3  0  0  0  0  0  0
  158.3370  214.4480  152.9540 C   0  0  0  0  0  2  0  0  0  0  0  0
  157.0670  213.6430  153.1030 C   0  0  0  0  0  2  0  0  0  0  0  0
  161.8170  211.1950  156.5980 C   0  0  0  0  0  2  0  0  0  0  0  0
  162.2530  210.6620  155.2420 C   0  0  0  0  0  3  0  0  0  0  0  0
  163.0900  210.3890  156.4800 C   0  0  0  0  0  2  0  0  0  0  0  0
  159.7770  208.4150  156.3540 C   0  0  0  0  0  2  0  0  0  0  0  0
  160.8580  207.5420  156.4860 O   0  0  0  0  0  1  0  0  0  0  0  0
  161.1820  207.9480  153.1540 O   0  0  0  0  0  0  0  0  0  0  0  0
  161.9170  207.6520  151.9890 C   0  0  2  0  0  3  0  0  0  0  0  0
  160.8110  207.7550  150.5440 S   0  0  0  0  0  0  0  0  0  0  0  0
  162.1480  207.4360  149.3430 C   0  0  1  0  0  3  0  0  0  0  0  0
  160.7850  205.4980  148.5820 C   0  0  0  0  0  2  0  0  0  0  0  0
  161.8150  206.3220  148.3890 C   0  0  0  0  0  3  0  0  0  0  0  0
  162.6240  208.7110  148.6470 C   0  0  0  0  0  2  0  0  0  0  0  0
  162.2410  210.8170  149.7010 O   0  0  0  0  0  0  0  0  0  0  0  0
  162.2860  211.1170  148.3280 C   0  0  1  0  0  3  0  0  0  0  0  0
  161.6630  209.8750  148.8310 C   0  0  1  0  0  3  0  0  0  0  0  0
  161.7970  213.3790  147.7920 O   0  0  0  0  0  1  0  0  0  0  0  0
  161.2110  212.1320  148.0060 C   0  0  0  0  0  2  0  0  0  0  0  0
  162.4790  206.2440  152.0860 C   0  0  0  0  0  2  0  0  0  0  0  0
  161.1690  204.1500  151.9980 C   0  0  0  0  0  1  0  0  0  0  0  0
  161.5220  205.3500  152.8490 C   0  0  0  0  0  2  0  0  0  0  0  0
  1  4  1  6  0  0  0
  1  5  1  0  0  0  0
  3 18  1  6  0  0  0
  5 16  1  6  0  0  0
  5  3  1  0  0  0  0
  6  2  2  0  0  0  0
  7 12  1  0  0  0  0
  7  6  1  0  0  0  0
  8  7  1  0  0  0  0
  9  6  1  1  0  0  0
  9  3  1  0  0  0  0
 10  8  1  0  0  0  0
 11 10  1  1  0  0  0
 11  1  1  0  0  0  0
 11  9  1  0  0  0  0
 13 14  1  0  0  0  0
 13 12  1  0  0  0  0
 14 12  1  0  0  0  0
 16 17  1  0  0  0  0
 16 15  1  0  0  0  0
 17 15  1  0  0  0  0
 18 19  1  0  0  0  0
 20  1  1  0  0  0  0
 21 32  1  1  0  0  0
 21 20  1  0  0  0  0
 22 21  1  0  0  0  0
 23 25  1  6  0  0  0
 23 22  1  0  0  0  0
 25 24  2  0  0  0  0
 26 23  1  0  0  0  0
 28 31  1  1  0  0  0
 28 29  1  0  0  0  0
 28 27  1  0  0  0  0
 29 26  1  6  0  0  0
 29 27  1  0  0  0  0
 30 31  1  0  0  0  0
 32 34  1  0  0  0  0
 33 34  1  0  0  0  0
M  END
>  <MODEL>
1

>  <REMARK>
 VINA RESULT:      -5.1      0.000      0.000
  Name = 
  13 active torsions:
  status: ('A' for Active; 'I' for Inactive)
    1  A    between atoms: C_1  and  O_8
    2  A    between atoms: C_3  and  N_25
    3  A    between atoms: C_5  and  C_19
    4  A    between atoms: S_6  and  C_18
    5  A    between atoms: S_6  and  C_28
    6  A    between atoms: O_8  and  C_18
    7  A    between atoms: C_11  and  C_21
    8  A    between atoms: C_12  and  N_20
    9  A    between atoms: C_16  and  C_28
   10  A    between atoms: C_18  and  C_30
   11  A    between atoms: C_26  and  C_28
   12  A    between atoms: C_26  and  C_29
   13  A    between atoms: C_30  and  C_31
                            x       y       z     vdW  Elec       q    Type
                         _______ _______ _______ _____ _____    ______ ____

>  <TORSDO>
F 13

$$$$
=
 OpenBabel11062409503D

 34 38  0  0  1  0  0  0  0  0999 V2000
  161.1220  209.4160  153.0950 C   0  0  1  0  0  0  0  0  0  0  0  0
  157.3420  211.0420  155.4990 O   0  0  0  0  0  0  0  0  0  0  0  0
  160.1060  209.5030  155.2290 C   0  0  1  0  0  3  0  0  0  0  0  0
  162.1520  210.0650  152.3870 O   0  0  0  0  0  1  0  0  0  0  0  0
  161.4010  209.3980  154.5480 N   0  0  2  0  0  0  0  0  0  0  0  0
  158.3220  211.1270  154.7110 C   0  0  0  0  0  0  0  0  0  0  0  0
  158.7860  212.3960  154.2330 N   0  0  0  0  0  0  0  0  0  0  0  0
  160.0110  212.4380  153.6450 O   0  0  0  0  0  0  0  0  0  0  0  0
  159.0290  209.8970  154.2320 C   0  0  1  0  0  3  0  0  0  0  0  0
  159.9030  211.6220  152.5070 C   0  0  0  0  0  2  0  0  0  0  0  0
  159.7720  210.1300  152.9100 C   0  0  1  0  0  3  0  0  0  0  0  0
  158.0170  213.6220  154.4280 C   0  0  0  0  0  3  0  0  0  0  0  0
  158.0270  214.4530  153.1560 C   0  0  0  0  0  2  0  0  0  0  0  0
  156.8100  213.6300  153.5060 C   0  0  0  0  0  2  0  0  0  0  0  0
  161.6110  211.1380  156.2520 C   0  0  0  0  0  2  0  0  0  0  0  0
  162.1960  210.5520  154.9770 C   0  0  0  0  0  3  0  0  0  0  0  0
  162.8360  210.2560  156.3220 C   0  0  0  0  0  2  0  0  0  0  0  0
  159.7560  208.2040  155.9500 C   0  0  0  0  0  2  0  0  0  0  0  0
  160.8560  207.3470  156.0050 O   0  0  0  0  0  1  0  0  0  0  0  0
  161.0330  208.0670  152.6660 O   0  0  0  0  0  0  0  0  0  0  0  0
  161.9780  207.8090  151.6540 C   0  0  2  0  0  3  0  0  0  0  0  0
  161.1660  207.9530  150.0290 S   0  0  0  0  0  0  0  0  0  0  0  0
  161.6920  206.2940  149.4810 C   0  0  1  0  0  3  0  0  0  0  0  0
  160.7610  203.9870  149.4440 C   0  0  0  0  0  2  0  0  0  0  0  0
  160.5600  205.3040  149.4610 C   0  0  0  0  0  3  0  0  0  0  0  0
  162.4860  206.3340  148.1740 C   0  0  0  0  0  2  0  0  0  0  0  0
  162.3300  206.2300  145.7960 O   0  0  0  0  0  0  0  0  0  0  0  0
  162.4880  204.8910  146.1950 C   0  0  1  0  0  3  0  0  0  0  0  0
  161.6800  205.8450  146.9820 C   0  0  1  0  0  3  0  0  0  0  0  0
  161.4240  202.7760  145.9880 O   0  0  0  0  0  1  0  0  0  0  0  0
  161.5760  204.0140  145.3640 C   0  0  0  0  0  2  0  0  0  0  0  0
  162.5240  206.4000  151.8140 C   0  0  0  0  0  2  0  0  0  0  0  0
  161.1740  204.5590  152.7620 C   0  0  0  0  0  1  0  0  0  0  0  0
  162.0030  205.7800  153.0950 C   0  0  0  0  0  2  0  0  0  0  0  0
  1  4  1  6  0  0  0
  1  5  1  0  0  0  0
  3 18  1  6  0  0  0
  5 16  1  6  0  0  0
  5  3  1  0  0  0  0
  6  2  2  0  0  0  0
  7 12  1  0  0  0  0
  7  6  1  0  0  0  0
  8  7  1  0  0  0  0
  9  6  1  1  0  0  0
  9  3  1  0  0  0  0
 10  8  1  0  0  0  0
 11 10  1  1  0  0  0
 11  1  1  0  0  0  0
 11  9  1  0  0  0  0
 13 14  1  0  0  0  0
 13 12  1  0  0  0  0
 14 12  1  0  0  0  0
 15 17  1  0  0  0  0
 16 15  1  0  0  0  0
 16 17  1  0  0  0  0
 18 19  1  0  0  0  0
 20  1  1  0  0  0  0
 21 32  1  1  0  0  0
 21 20  1  0  0  0  0
 22 21  1  0  0  0  0
 23 26  1  6  0  0  0
 23 22  1  0  0  0  0
 24 25  2  0  0  0  0
 25 23  1  0  0  0  0
 27 28  1  0  0  0  0
 27 29  1  0  0  0  0
 28 31  1  6  0  0  0
 28 29  1  0  0  0  0
 29 26  1  1  0  0  0
 31 30  1  0  0  0  0
 32 34  1  0  0  0  0
 33 34  1  0  0  0  0
M  END
>  <MODEL>
2

>  <REMARK>
 VINA RESULT:      -5.0      2.079      3.003
  Name = 
  13 active torsions:
  status: ('A' for Active; 'I' for Inactive)
    1  A    between atoms: C_1  and  O_8
    2  A    between atoms: C_3  and  N_25
    3  A    between atoms: C_5  and  C_19
    4  A    between atoms: S_6  and  C_18
    5  A    between atoms: S_6  and  C_28
    6  A    between atoms: O_8  and  C_18
    7  A    between atoms: C_11  and  C_21
    8  A    between atoms: C_12  and  N_20
    9  A    between atoms: C_16  and  C_28
   10  A    between atoms: C_18  and  C_30
   11  A    between atoms: C_26  and  C_28
   12  A    between atoms: C_26  and  C_29
   13  A    between atoms: C_30  and  C_31
                            x       y       z     vdW  Elec       q    Type
                         _______ _______ _______ _____ _____    ______ ____

>  <TORSDO>
F 13

$$$$
=
 OpenBabel11062409503D

 34 38  0  0  1  0  0  0  0  0999 V2000
  161.6040  209.6070  154.0920 C   0  0  1  0  0  0  0  0  0  0  0  0
  157.3230  210.6400  155.9160 O   0  0  0  0  0  0  0  0  0  0  0  0
  160.3190  209.6010  156.0790 C   0  0  1  0  0  3  0  0  0  0  0  0
  162.5920  210.3970  153.4740 O   0  0  0  0  0  1  0  0  0  0  0  0
  161.6900  209.6980  155.5670 N   0  0  2  0  0  0  0  0  0  0  0  0
  158.3680  210.8640  155.2480 C   0  0  0  0  0  0  0  0  0  0  0  0
  158.6690  212.1730  154.7510 N   0  0  0  0  0  0  0  0  0  0  0  0
  159.9350  212.4070  154.3130 O   0  0  0  0  0  0  0  0  0  0  0  0
  159.3300  209.7590  154.9360 C   0  0  1  0  0  3  0  0  0  0  0  0
  160.1150  211.5380  153.2240 C   0  0  0  0  0  2  0  0  0  0  0  0
  160.1880  210.0640  153.7020 C   0  0  1  0  0  3  0  0  0  0  0  0
  157.6850  213.2520  154.7730 C   0  0  0  0  0  3  0  0  0  0  0  0
  158.1070  214.3650  153.8300 C   0  0  0  0  0  2  0  0  0  0  0  0
  157.0330  213.3900  153.4080 C   0  0  0  0  0  2  0  0  0  0  0  0
  163.0850  210.7970  157.2470 C   0  0  0  0  0  2  0  0  0  0  0  0
  162.2160  210.9910  156.0150 C   0  0  0  0  0  3  0  0  0  0  0  0
  163.7300  210.9920  155.8960 C   0  0  0  0  0  2  0  0  0  0  0  0
  160.1030  208.2920  156.8320 C   0  0  0  0  0  2  0  0  0  0  0  0
  159.4000  207.3730  156.0510 O   0  0  0  0  0  1  0  0  0  0  0  0
  161.8000  208.2470  153.7420 O   0  0  0  0  0  0  0  0  0  0  0  0
  161.1810  207.9630  152.5080 C   0  0  2  0  0  3  0  0  0  0  0  0
  160.4170  206.3110  152.5920 S   0  0  0  0  0  0  0  0  0  0  0  0
  161.4370  205.6350  151.2380 C   0  0  1  0  0  3  0  0  0  0  0  0
  161.1910  203.2360  151.8520 C   0  0  0  0  0  2  0  0  0  0  0  0
  161.9800  204.2670  151.5500 C   0  0  0  0  0  3  0  0  0  0  0  0
  160.7350  205.7150  149.8810 C   0  0  0  0  0  2  0  0  0  0  0  0
  161.0240  204.2370  148.0300 O   0  0  0  0  0  0  0  0  0  0  0  0
  160.9330  205.5140  147.4480 C   0  0  1  0  0  3  0  0  0  0  0  0
  161.6340  205.2940  148.7300 C   0  0  1  0  0  3  0  0  0  0  0  0
  161.7110  204.6100  145.3930 O   0  0  0  0  0  1  0  0  0  0  0  0
  161.9440  205.6200  146.3260 C   0  0  0  0  0  2  0  0  0  0  0  0
  162.2230  207.9740  151.4020 C   0  0  0  0  0  2  0  0  0  0  0  0
  162.0520  208.8080  149.0810 C   0  0  0  0  0  1  0  0  0  0  0  0
  162.0570  209.2100  150.5400 C   0  0  0  0  0  2  0  0  0  0  0  0
  1  4  1  6  0  0  0
  1  5  1  0  0  0  0
  3 18  1  6  0  0  0
  5 16  1  6  0  0  0
  5  3  1  0  0  0  0
  6  2  2  0  0  0  0
  7 12  1  0  0  0  0
  7  6  1  0  0  0  0
  8  7  1  0  0  0  0
  9  6  1  1  0  0  0
  9  3  1  0  0  0  0
 10  8  1  0  0  0  0
 11 10  1  1  0  0  0
 11  1  1  0  0  0  0
 11  9  1  0  0  0  0
 13 12  1  0  0  0  0
 14 13  1  0  0  0  0
 14 12  1  0  0  0  0
 16 15  1  0  0  0  0
 17 16  1  0  0  0  0
 17 15  1  0  0  0  0
 19 18  1  0  0  0  0
 20  1  1  0  0  0  0
 21 32  1  6  0  0  0
 21 22  1  0  0  0  0
 21 20  1  0  0  0  0
 23 26  1  6  0  0  0
 23 25  1  0  0  0  0
 23 22  1  0  0  0  0
 25 24  2  0  0  0  0
 27 29  1  0  0  0  0
 28 31  1  6  0  0  0
 28 27  1  0  0  0  0
 28 29  1  0  0  0  0
 29 26  1  1  0  0  0
 30 31  1  0  0  0  0
 33 34  1  0  0  0  0
 34 32  1  0  0  0  0
M  END
>  <MODEL>
3

>  <REMARK>
 VINA RESULT:      -4.7      1.988      3.251
  Name = 
  13 active torsions:
  status: ('A' for Active; 'I' for Inactive)
    1  A    between atoms: C_1  and  O_8
    2  A    between atoms: C_3  and  N_25
    3  A    between atoms: C_5  and  C_19
    4  A    between atoms: S_6  and  C_18
    5  A    between atoms: S_6  and  C_28
    6  A    between atoms: O_8  and  C_18
    7  A    between atoms: C_11  and  C_21
    8  A    between atoms: C_12  and  N_20
    9  A    between atoms: C_16  and  C_28
   10  A    between atoms: C_18  and  C_30
   11  A    between atoms: C_26  and  C_28
   12  A    between atoms: C_26  and  C_29
   13  A    between atoms: C_30  and  C_31
                            x       y       z     vdW  Elec       q    Type
                         _______ _______ _______ _____ _____    ______ ____

>  <TORSDO>
F 13

$$$$
=
 OpenBabel11062409503D

 34 38  0  0  1  0  0  0  0  0999 V2000
  161.4360  209.7690  153.7600 C   0  0  1  0  0  0  0  0  0  0  0  0
  157.1730  210.6990  155.6770 O   0  0  0  0  0  0  0  0  0  0  0  0
  160.1600  209.6230  155.7460 C   0  0  1  0  0  3  0  0  0  0  0  0
  162.4300  210.5950  153.1990 O   0  0  0  0  0  1  0  0  0  0  0  0
  161.5300  209.7460  155.2370 N   0  0  2  0  0  0  0  0  0  0  0  0
  158.2180  210.9640  155.0240 C   0  0  0  0  0  0  0  0  0  0  0  0
  158.5290  212.3050  154.6270 N   0  0  0  0  0  0  0  0  0  0  0  0
  159.7960  212.5590  154.2020 O   0  0  0  0  0  0  0  0  0  0  0  0
  159.1680  209.8770  154.6230 C   0  0  1  0  0  3  0  0  0  0  0  0
  159.9630  211.7750  153.0480 C   0  0  0  0  0  2  0  0  0  0  0  0
  160.0230  210.2680  153.4120 C   0  0  1  0  0  3  0  0  0  0  0  0
  157.5550  213.3870  154.7360 C   0  0  0  0  0  3  0  0  0  0  0  0
  157.8380  214.4530  153.6910 C   0  0  0  0  0  2  0  0  0  0  0  0
  156.7180  213.4630  153.4720 C   0  0  0  0  0  2  0  0  0  0  0  0
  162.3710  210.8290  157.2600 C   0  0  0  0  0  2  0  0  0  0  0  0
  162.0700  210.9960  155.7800 C   0  0  0  0  0  3  0  0  0  0  0  0
  163.4960  210.7700  156.2530 C   0  0  0  0  0  2  0  0  0  0  0  0
  159.9350  208.2620  156.3980 C   0  0  0  0  0  2  0  0  0  0  0  0
  159.5930  207.2990  155.4470 O   0  0  0  0  0  1  0  0  0  0  0  0
  161.6190  208.4370  153.3050 O   0  0  0  0  0  0  0  0  0  0  0  0
  161.5820  208.3900  151.8980 C   0  0  2  0  0  3  0  0  0  0  0  0
  162.3350  206.8290  151.3350 S   0  0  0  0  0  0  0  0  0  0  0  0
  160.7770  206.1860  150.6360 C   0  0  1  0  0  3  0  0  0  0  0  0
  161.7380  206.6740  148.3930 C   0  0  0  0  0  2  0  0  0  0  0  0
  160.6760  206.4020  149.1510 C   0  0  0  0  0  3  0  0  0  0  0  0
  160.4970  204.7430  151.0610 C   0  0  0  0  0  2  0  0  0  0  0  0
  161.1830  202.4670  150.8570 O   0  0  0  0  0  0  0  0  0  0  0  0
  160.3600  202.6860  149.7380 C   0  0  1  0  0  3  0  0  0  0  0  0
  161.2780  203.7280  150.2420 C   0  0  1  0  0  3  0  0  0  0  0  0
  161.2180  200.6660  148.8270 O   0  0  0  0  0  1  0  0  0  0  0  0
  160.9730  202.0070  148.5310 C   0  0  0  0  0  2  0  0  0  0  0  0
  162.3720  209.5570  151.3280 C   0  0  0  0  0  2  0  0  0  0  0  0
  161.9320  211.2160  149.5490 C   0  0  0  0  0  1  0  0  0  0  0  0
  162.0490  209.7390  149.8590 C   0  0  0  0  0  2  0  0  0  0  0  0
  1  4  1  6  0  0  0
  1  5  1  0  0  0  0
  3 18  1  6  0  0  0
  5  3  1  0  0  0  0
  5 16  1  1  0  0  0
  6  2  2  0  0  0  0
  7 12  1  0  0  0  0
  7  6  1  0  0  0  0
  8  7  1  0  0  0  0
  9  6  1  1  0  0  0
  9  3  1  0  0  0  0
 10  8  1  0  0  0  0
 11 10  1  1  0  0  0
 11  1  1  0  0  0  0
 11  9  1  0  0  0  0
 13 12  1  0  0  0  0
 14 13  1  0  0  0  0
 14 12  1  0  0  0  0
 16 17  1  0  0  0  0
 16 15  1  0  0  0  0
 17 15  1  0  0  0  0
 19 18  1  0  0  0  0
 20  1  1  0  0  0  0
 21 32  1  6  0  0  0
 21 20  1  0  0  0  0
 22 21  1  0  0  0  0
 23 25  1  6  0  0  0
 23 26  1  0  0  0  0
 23 22  1  0  0  0  0
 24 25  2  0  0  0  0
 28 31  1  6  0  0  0
 28 29  1  0  0  0  0
 28 27  1  0  0  0  0
 29 27  1  0  0  0  0
 29 26  1  1  0  0  0
 31 30  1  0  0  0  0
 33 34  1  0  0  0  0
 34 32  1  0  0  0  0
M  END
>  <MODEL>
4

>  <REMARK>
 VINA RESULT:      -4.4      2.165      4.204
  Name = 
  13 active torsions:
  status: ('A' for Active; 'I' for Inactive)
    1  A    between atoms: C_1  and  O_8
    2  A    between atoms: C_3  and  N_25
    3  A    between atoms: C_5  and  C_19
    4  A    between atoms: S_6  and  C_18
    5  A    between atoms: S_6  and  C_28
    6  A    between atoms: O_8  and  C_18
    7  A    between atoms: C_11  and  C_21
    8  A    between atoms: C_12  and  N_20
    9  A    between atoms: C_16  and  C_28
   10  A    between atoms: C_18  and  C_30
   11  A    between atoms: C_26  and  C_28
   12  A    between atoms: C_26  and  C_29
   13  A    between atoms: C_30  and  C_31
                            x       y       z     vdW  Elec       q    Type
                         _______ _______ _______ _____ _____    ______ ____

>  <TORSDO>
F 13

$$$$
=
 OpenBabel11062409503D

 34 38  0  0  1  0  0  0  0  0999 V2000
  159.5280  210.8180  154.5790 C   0  0  1  0  0  0  0  0  0  0  0  0
  155.5010  213.0850  153.4140 O   0  0  0  0  0  0  0  0  0  0  0  0
  157.7430  212.1090  155.4390 C   0  0  1  0  0  3  0  0  0  0  0  0
  160.8690  210.9950  154.1870 O   0  0  0  0  0  1  0  0  0  0  0  0
  159.1540  211.7670  155.6510 N   0  0  2  0  0  0  0  0  0  0  0  0
  156.7180  212.7770  153.2960 C   0  0  0  0  0  0  0  0  0  0  0  0
  157.5870  213.4980  152.4140 N   0  0  0  0  0  0  0  0  0  0  0  0
  158.9270  213.3170  152.5630 O   0  0  0  0  0  0  0  0  0  0  0  0
  157.2960  211.6310  154.0670 C   0  0  1  0  0  3  0  0  0  0  0  0
  159.1490  211.9580  152.2850 C   0  0  0  0  0  2  0  0  0  0  0  0
  158.5600  211.0640  153.4090 C   0  0  1  0  0  3  0  0  0  0  0  0
  157.0750  214.4510  151.4340 C   0  0  0  0  0  3  0  0  0  0  0  0
  157.9540  214.4520  150.1960 C   0  0  0  0  0  2  0  0  0  0  0  0
  156.6340  213.7190  150.1780 C   0  0  0  0  0  2  0  0  0  0  0  0
  159.1310  214.1350  156.2560 C   0  0  0  0  0  2  0  0  0  0  0  0
  159.9070  213.0210  155.5720 C   0  0  0  0  0  3  0  0  0  0  0  0
  160.2860  213.4750  156.9710 C   0  0  0  0  0  2  0  0  0  0  0  0
  156.8650  211.5360  156.5480 C   0  0  0  0  0  2  0  0  0  0  0  0
  155.6550  211.0610  156.0360 O   0  0  0  0  0  1  0  0  0  0  0  0
  159.3580  209.5080  155.0960 O   0  0  0  0  0  0  0  0  0  0  0  0
  160.6100  208.9020  155.3220 C   0  0  2  0  0  3  0  0  0  0  0  0
  160.5150  207.1450  154.8510 S   0  0  0  0  0  0  0  0  0  0  0  0
  161.5650  207.3560  153.3740 C   0  0  1  0  0  3  0  0  0  0  0  0
  161.2270  204.9200  152.9950 C   0  0  0  0  0  2  0  0  0  0  0  0
  161.8450  206.0560  152.6710 C   0  0  0  0  0  3  0  0  0  0  0  0
  161.0460  208.4510  152.4400 C   0  0  0  0  0  2  0  0  0  0  0  0
  162.4350  208.3990  150.5010 O   0  0  0  0  0  0  0  0  0  0  0  0
  161.6560  209.5580  150.3420 C   0  0  1  0  0  3  0  0  0  0  0  0
  162.1600  209.1380  151.6650 C   0  0  1  0  0  3  0  0  0  0  0  0
  161.8100  211.3960  148.8430 O   0  0  0  0  0  1  0  0  0  0  0  0
  162.5260  210.6700  149.7950 C   0  0  0  0  0  2  0  0  0  0  0  0
  160.9660  209.0040  156.7960 C   0  0  0  0  0  2  0  0  0  0  0  0
  162.8000  210.6120  157.1950 C   0  0  0  0  0  1  0  0  0  0  0  0
  162.4650  209.1560  156.9630 C   0  0  0  0  0  2  0  0  0  0  0  0
  1  4  1  6  0  0  0
  1 20  1  0  0  0  0
  1  5  1  0  0  0  0
  3  5  1  0  0  0  0
  3 18  1  1  0  0  0
  5 16  1  6  0  0  0
  6  2  2  0  0  0  0
  7  8  1  0  0  0  0
  7  6  1  0  0  0  0
  9  6  1  6  0  0  0
  9  3  1  0  0  0  0
 10  8  1  0  0  0  0
 11 10  1  6  0  0  0
 11  9  1  0  0  0  0
 11  1  1  0  0  0  0
 12  7  1  0  0  0  0
 13 12  1  0  0  0  0
 14 13  1  0  0  0  0
 14 12  1  0  0  0  0
 15 17  1  0  0  0  0
 16 15  1  0  0  0  0
 16 17  1  0  0  0  0
 19 18  1  0  0  0  0
 20 21  1  0  0  0  0
 21 32  1  1  0  0  0
 22 21  1  0  0  0  0
 23 26  1  6  0  0  0
 23 22  1  0  0  0  0
 25 24  2  0  0  0  0
 25 23  1  0  0  0  0
 27 29  1  0  0  0  0
 28 31  1  6  0  0  0
 28 27  1  0  0  0  0
 28 29  1  0  0  0  0
 29 26  1  1  0  0  0
 30 31  1  0  0  0  0
 32 34  1  0  0  0  0
 34 33  1  0  0  0  0
M  END
>  <MODEL>
5

>  <REMARK>
 VINA RESULT:      -4.1      2.115      3.788
  Name = 
  13 active torsions:
  status: ('A' for Active; 'I' for Inactive)
    1  A    between atoms: C_1  and  O_8
    2  A    between atoms: C_3  and  N_25
    3  A    between atoms: C_5  and  C_19
    4  A    between atoms: S_6  and  C_18
    5  A    between atoms: S_6  and  C_28
    6  A    between atoms: O_8  and  C_18
    7  A    between atoms: C_11  and  C_21
    8  A    between atoms: C_12  and  N_20
    9  A    between atoms: C_16  and  C_28
   10  A    between atoms: C_18  and  C_30
   11  A    between atoms: C_26  and  C_28
   12  A    between atoms: C_26  and  C_29
   13  A    between atoms: C_30  and  C_31
                            x       y       z     vdW  Elec       q    Type
                         _______ _______ _______ _____ _____    ______ ____

>  <TORSDO>
F 13

$$$$
=
 OpenBabel11062409503D

 34 38  0  0  1  0  0  0  0  0999 V2000
  159.3050  210.9630  154.9070 C   0  0  1  0  0  0  0  0  0  0  0  0
  155.3000  213.2040  153.6220 O   0  0  0  0  0  0  0  0  0  0  0  0
  157.5410  212.3290  155.6940 C   0  0  1  0  0  3  0  0  0  0  0  0
  160.6460  211.0990  154.4990 O   0  0  0  0  0  1  0  0  0  0  0  0
  158.9480  211.9820  155.9200 N   0  0  2  0  0  0  0  0  0  0  0  0
  156.5120  212.8740  153.5180 C   0  0  0  0  0  0  0  0  0  0  0  0
  157.3850  213.5270  152.5890 N   0  0  0  0  0  0  0  0  0  0  0  0
  158.7230  213.3390  152.7420 O   0  0  0  0  0  0  0  0  0  0  0  0
  157.0810  211.7710  154.3570 C   0  0  1  0  0  3  0  0  0  0  0  0
  158.9270  211.9620  152.5490 C   0  0  0  0  0  2  0  0  0  0  0  0
  158.3340  211.1490  153.7290 C   0  0  1  0  0  3  0  0  0  0  0  0
  156.8790  214.4240  151.5530 C   0  0  0  0  0  3  0  0  0  0  0  0
  157.3420  213.9560  150.1840 C   0  0  0  0  0  2  0  0  0  0  0  0
  155.9280  213.6740  150.6360 C   0  0  0  0  0  2  0  0  0  0  0  0
  158.8630  214.4140  156.1540 C   0  0  0  0  0  2  0  0  0  0  0  0
  159.7170  213.2200  155.7590 C   0  0  0  0  0  3  0  0  0  0  0  0
  159.9020  213.8820  157.1130 C   0  0  0  0  0  2  0  0  0  0  0  0
  156.6620  211.8370  156.8400 C   0  0  0  0  0  2  0  0  0  0  0  0
  155.5910  211.0790  156.3630 O   0  0  0  0  0  1  0  0  0  0  0  0
  159.1220  209.6910  155.5070 O   0  0  0  0  0  0  0  0  0  0  0  0
  160.3660  209.0740  155.7420 C   0  0  2  0  0  3  0  0  0  0  0  0
  160.1600  207.2660  155.6620 S   0  0  0  0  0  0  0  0  0  0  0  0
  160.6940  207.1580  153.9200 C   0  0  1  0  0  3  0  0  0  0  0  0
  161.3740  208.9670  152.3520 C   0  0  0  0  0  2  0  0  0  0  0  0
  161.5520  208.3210  153.5050 C   0  0  0  0  0  3  0  0  0  0  0  0
  161.3070  205.7990  153.5800 C   0  0  0  0  0  2  0  0  0  0  0  0
  161.8650  204.2980  151.8110 O   0  0  0  0  0  0  0  0  0  0  0  0
  160.6050  204.8090  151.4520 C   0  0  1  0  0  3  0  0  0  0  0  0
  161.6290  205.6530  152.1010 C   0  0  1  0  0  3  0  0  0  0  0  0
  160.8480  203.9030  149.2690 O   0  0  0  0  0  1  0  0  0  0  0  0
  160.5880  205.0840  149.9630 C   0  0  0  0  0  2  0  0  0  0  0  0
  160.8710  209.4570  157.1230 C   0  0  0  0  0  2  0  0  0  0  0  0
  163.0930  210.5400  157.1100 C   0  0  0  0  0  1  0  0  0  0  0  0
  162.3650  209.2190  157.2190 C   0  0  0  0  0  2  0  0  0  0  0  0
  1  4  1  6  0  0  0
  1 20  1  0  0  0  0
  1  5  1  0  0  0  0
  3  5  1  0  0  0  0
  3 18  1  1  0  0  0
  5 16  1  6  0  0  0
  6  2  2  0  0  0  0
  7  8  1  0  0  0  0
  7  6  1  0  0  0  0
  9  6  1  6  0  0  0
  9  3  1  0  0  0  0
 10  8  1  0  0  0  0
 11 10  1  6  0  0  0
 11  9  1  0  0  0  0
 11  1  1  0  0  0  0
 12  7  1  0  0  0  0
 13 14  1  0  0  0  0
 13 12  1  0  0  0  0
 14 12  1  0  0  0  0
 15 17  1  0  0  0  0
 16 15  1  0  0  0  0
 16 17  1  0  0  0  0
 19 18  1  0  0  0  0
 20 21  1  0  0  0  0
 21 32  1  1  0  0  0
 22 21  1  0  0  0  0
 23 25  1  1  0  0  0
 23 22  1  0  0  0  0
 24 25  2  0  0  0  0
 26 23  1  0  0  0  0
 27 29  1  0  0  0  0
 28 31  1  6  0  0  0
 28 27  1  0  0  0  0
 28 29  1  0  0  0  0
 29 26  1  1  0  0  0
 30 31  1  0  0  0  0
 32 34  1  0  0  0  0
 33 34  1  0  0  0  0
M  END
>  <MODEL>
6

>  <REMARK>
 VINA RESULT:      -3.9      2.756      4.913
  Name = 
  13 active torsions:
  status: ('A' for Active; 'I' for Inactive)
    1  A    between atoms: C_1  and  O_8
    2  A    between atoms: C_3  and  N_25
    3  A    between atoms: C_5  and  C_19
    4  A    between atoms: S_6  and  C_18
    5  A    between atoms: S_6  and  C_28
    6  A    between atoms: O_8  and  C_18
    7  A    between atoms: C_11  and  C_21
    8  A    between atoms: C_12  and  N_20
    9  A    between atoms: C_16  and  C_28
   10  A    between atoms: C_18  and  C_30
   11  A    between atoms: C_26  and  C_28
   12  A    between atoms: C_26  and  C_29
   13  A    between atoms: C_30  and  C_31
                            x       y       z     vdW  Elec       q    Type
                         _______ _______ _______ _____ _____    ______ ____

>  <TORSDO>
F 13

$$$$
=
 OpenBabel11062409503D

 34 38  0  0  1  0  0  0  0  0999 V2000
  160.5070  209.7290  153.6490 C   0  0  1  0  0  0  0  0  0  0  0  0
  157.1970  213.0100  152.6540 O   0  0  0  0  0  0  0  0  0  0  0  0
  158.9090  211.1850  154.6090 C   0  0  1  0  0  3  0  0  0  0  0  0
  161.8980  209.6820  153.4300 O   0  0  0  0  0  1  0  0  0  0  0  0
  160.1830  210.5060  154.8660 N   0  0  2  0  0  0  0  0  0  0  0  0
  158.3340  212.4720  152.5830 C   0  0  0  0  0  0  0  0  0  0  0  0
  159.4390  213.1440  151.9650 N   0  0  0  0  0  0  0  0  0  0  0  0
  160.6850  212.6470  152.1910 O   0  0  0  0  0  0  0  0  0  0  0  0
  158.5680  211.0980  153.1300 C   0  0  1  0  0  3  0  0  0  0  0  0
  160.6730  211.3550  151.6410 C   0  0  0  0  0  2  0  0  0  0  0  0
  159.7730  210.4090  152.4800 C   0  0  1  0  0  3  0  0  0  0  0  0
  159.2600  214.3610  151.1790 C   0  0  0  0  0  3  0  0  0  0  0  0
  160.3320  214.4530  150.1060 C   0  0  0  0  0  2  0  0  0  0  0  0
  158.9370  214.0060  149.7380 C   0  0  0  0  0  2  0  0  0  0  0  0
  160.7960  212.3040  156.4050 C   0  0  0  0  0  2  0  0  0  0  0  0
  161.1710  211.5550  155.1360 C   0  0  0  0  0  3  0  0  0  0  0  0
  161.8830  211.2560  156.4440 C   0  0  0  0  0  2  0  0  0  0  0  0
  157.7930  210.6110  155.4770 C   0  0  0  0  0  2  0  0  0  0  0  0
  157.5620  211.4160  156.5950 O   0  0  0  0  0  1  0  0  0  0  0  0
  160.0160  208.4130  153.8450 O   0  0  0  0  0  0  0  0  0  0  0  0
  161.0500  207.4720  153.6760 C   0  0  2  0  0  3  0  0  0  0  0  0
  160.4430  206.0980  152.6450 S   0  0  0  0  0  0  0  0  0  0  0  0
  161.0910  206.8110  151.0950 C   0  0  1  0  0  3  0  0  0  0  0  0
  162.6180  208.7110  150.5920 C   0  0  0  0  0  2  0  0  0  0  0  0
  162.3400  207.6220  151.3090 C   0  0  0  0  0  3  0  0  0  0  0  0
  161.2270  205.7690  149.9840 C   0  0  0  0  0  2  0  0  0  0  0  0
  161.0740  207.3890  148.2390 O   0  0  0  0  0  0  0  0  0  0  0  0
  161.4920  206.2140  147.5900 C   0  0  1  0  0  3  0  0  0  0  0  0
  160.5200  206.1830  148.7030 C   0  0  1  0  0  3  0  0  0  0  0  0
  161.6680  205.7710  145.2620 O   0  0  0  0  0  1  0  0  0  0  0  0
  160.7590  206.0890  146.2700 C   0  0  0  0  0  2  0  0  0  0  0  0
  161.4710  206.9290  155.0320 C   0  0  0  0  0  2  0  0  0  0  0  0
  161.1890  207.9630  157.2590 C   0  0  0  0  0  1  0  0  0  0  0  0
  160.4640  207.3310  156.0910 C   0  0  0  0  0  2  0  0  0  0  0  0
  1  4  1  6  0  0  0
  1 20  1  0  0  0  0
  1  5  1  0  0  0  0
  3  5  1  0  0  0  0
  3 18  1  1  0  0  0
  5 16  1  6  0  0  0
  6  2  2  0  0  0  0
  7  8  1  0  0  0  0
  7  6  1  0  0  0  0
  9  6  1  6  0  0  0
  9  3  1  0  0  0  0
 10  8  1  0  0  0  0
 11 10  1  1  0  0  0
 11  9  1  0  0  0  0
 11  1  1  0  0  0  0
 12  7  1  0  0  0  0
 13 12  1  0  0  0  0
 14 13  1  0  0  0  0
 14 12  1  0  0  0  0
 15 17  1  0  0  0  0
 16 15  1  0  0  0  0
 16 17  1  0  0  0  0
 18 19  1  0  0  0  0
 21 20  1  0  0  0  0
 21 32  1  1  0  0  0
 22 21  1  0  0  0  0
 23 26  1  6  0  0  0
 23 25  1  0  0  0  0
 23 22  1  0  0  0  0
 24 25  2  0  0  0  0
 27 29  1  0  0  0  0
 28 31  1  6  0  0  0
 28 27  1  0  0  0  0
 28 29  1  0  0  0  0
 29 26  1  1  0  0  0
 30 31  1  0  0  0  0
 32 34  1  0  0  0  0
 34 33  1  0  0  0  0
M  END
>  <MODEL>
7

>  <REMARK>
 VINA RESULT:      -3.4      2.192      3.457
  Name = 
  13 active torsions:
  status: ('A' for Active; 'I' for Inactive)
    1  A    between atoms: C_1  and  O_8
    2  A    between atoms: C_3  and  N_25
    3  A    between atoms: C_5  and  C_19
    4  A    between atoms: S_6  and  C_18
    5  A    between atoms: S_6  and  C_28
    6  A    between atoms: O_8  and  C_18
    7  A    between atoms: C_11  and  C_21
    8  A    between atoms: C_12  and  N_20
    9  A    between atoms: C_16  and  C_28
   10  A    between atoms: C_18  and  C_30
   11  A    between atoms: C_26  and  C_28
   12  A    between atoms: C_26  and  C_29
   13  A    between atoms: C_30  and  C_31
                            x       y       z     vdW  Elec       q    Type
                         _______ _______ _______ _____ _____    ______ ____

>  <TORSDO>
F 13

$$$$
