=
 OpenBabel11052423023D

 28 33  0  0  1  0  0  0  0  0999 V2000
  159.4280  212.2090  154.2460 O   0  0  0  0  0  0  0  0  0  0  0  0
  159.0730  211.1180  156.7680 O   0  0  0  0  0  1  0  0  0  0  0  0
  160.3400  211.5840  156.4100 C   0  0  1  0  0  0  0  0  0  0  0  0
  157.7420  212.3930  151.4600 C   0  0  0  0  0  2  0  0  0  0  0  0
  161.4650  209.1580  155.8290 S   0  0  0  0  0  0  0  0  0  0  0  0
  161.1950  209.7040  153.0850 C   0  0  2  0  0  3  0  0  0  0  0  0
  161.3720  210.5900  156.9610 C   0  0  1  0  0  3  0  0  0  0  0  0
  159.5790  211.3660  152.1770 C   0  0  2  0  0  3  0  0  0  0  0  0
  160.5630  210.0250  154.4920 C   0  0  2  0  0  3  0  0  0  0  0  0
  158.0250  213.4040  152.3470 O   0  0  0  0  0  0  0  0  0  0  0  0
  160.9360  210.7490  151.9640 C   0  0  0  0  0  2  0  0  0  0  0  0
  159.1610  212.7840  151.7520 C   0  0  2  0  0  0  0  0  0  0  0  0
  160.0010  212.4990  153.0100 C   0  0  1  0  0  3  0  0  0  0  0  0
  160.4760  211.5190  154.8950 C   0  0  1  0  0  3  0  0  0  0  0  0
  161.2330  205.9360  152.2640 C   0  0  0  0  0  2  0  0  0  0  0  0
  161.0060  208.1150  151.0350 C   0  0  1  0  0  3  0  0  0  0  0  0
  161.1200  206.6150  150.9230 C   0  0  2  0  0  0  0  0  0  0  0  0
  160.7600  208.3260  152.5370 C   0  0  1  0  0  3  0  0  0  0  0  0
  160.0230  206.0970  150.2110 O   0  0  0  0  0  0  0  0  0  0  0  0
  161.2960  205.8960  149.6440 C   0  0  0  0  0  2  0  0  0  0  0  0
  161.3150  207.0910  153.2520 C   0  0  0  0  0  2  0  0  0  0  0  0
  162.2540  208.8240  150.4790 C   0  0  0  0  0  2  0  0  0  0  0  0
  162.2110  209.0770  148.6720 S   0  0  0  0  0  0  0  0  0  0  0  0
  162.2630  210.8800  148.8590 C   0  0  0  0  0  1  0  0  0  0  0  0
  162.7720  211.1480  157.2610 C   0  0  0  0  0  2  0  0  0  0  0  0
  163.7610  210.9370  156.1220 C   0  0  0  0  0  1  0  0  0  0  0  0
  160.4760  213.0110  156.9740 C   0  0  0  0  0  2  0  0  0  0  0  0
  159.1550  213.7240  157.2280 C   0  0  0  0  0  1  0  0  0  0  0  0
  3  2  1  1  0  0  0
  3  7  1  0  0  0  0
  3 27  1  0  0  0  0
  4 10  1  0  0  0  0
  5  7  1  0  0  0  0
  6 11  1  6  0  0  0
  6  9  1  0  0  0  0
  7 25  1  6  0  0  0
  8 11  1  6  0  0  0
  8 13  1  0  0  0  0
  9 14  1  0  0  0  0
  9  5  1  1  0  0  0
 12  4  1  6  0  0  0
 12  8  1  0  0  0  0
 12 10  1  0  0  0  0
 12 13  1  0  0  0  0
 13  1  1  1  0  0  0
 14  1  1  6  0  0  0
 14  3  1  0  0  0  0
 15 21  1  0  0  0  0
 16 22  1  1  0  0  0
 16 18  1  0  0  0  0
 17 20  1  6  0  0  0
 17 16  1  0  0  0  0
 17 15  1  0  0  0  0
 18  6  1  0  0  0  0
 18 21  1  1  0  0  0
 19 17  1  0  0  0  0
 20 19  1  0  0  0  0
 23 24  1  0  0  0  0
 23 22  1  0  0  0  0
 26 25  1  0  0  0  0
 27 28  1  0  0  0  0
M  END
>  <MODEL>
1

>  <REMARK>
 VINA RESULT:      -4.9      0.000      0.000
  Name = 
  5 active torsions:
  status: ('A' for Active; 'I' for Inactive)
    1  A    between atoms: C_3  and  C_7
    2  A    between atoms: C_6  and  C_11
    3  A    between atoms: C_9  and  C_18
    4  A    between atoms: C_10  and  C_13
    5  A    between atoms: S_14  and  C_18
                            x       y       z     vdW  Elec       q    Type
                         _______ _______ _______ _____ _____    ______ ____

>  <TORSDO>
F 5

$$$$
=
 OpenBabel11052423023D

 28 33  0  0  1  0  0  0  0  0999 V2000
  161.0270  211.8080  155.9650 O   0  0  0  0  0  0  0  0  0  0  0  0
  159.3950  213.7530  154.8570 O   0  0  0  0  0  1  0  0  0  0  0  0
  158.8220  212.5440  155.2600 C   0  0  1  0  0  0  0  0  0  0  0  0
  164.2280  211.2670  156.2800 C   0  0  0  0  0  2  0  0  0  0  0  0
  158.6440  211.3890  152.7850 S   0  0  0  0  0  0  0  0  0  0  0  0
  160.8760  209.7910  153.3860 C   0  0  2  0  0  3  0  0  0  0  0  0
  157.7790  212.1520  154.2040 C   0  0  1  0  0  3  0  0  0  0  0  0
  162.5380  210.3730  155.1450 C   0  0  2  0  0  3  0  0  0  0  0  0
  160.2040  211.1760  153.7190 C   0  0  2  0  0  3  0  0  0  0  0  0
  163.3240  211.5990  157.2610 O   0  0  0  0  0  0  0  0  0  0  0  0
  161.8470  209.2240  154.4590 C   0  0  0  0  0  2  0  0  0  0  0  0
  163.0670  210.3690  156.5900 C   0  0  2  0  0  0  0  0  0  0  0  0
  161.5800  210.5600  156.2410 C   0  0  1  0  0  3  0  0  0  0  0  0
  159.8850  211.4570  155.2090 C   0  0  1  0  0  3  0  0  0  0  0  0
  161.6220  210.2500  149.6300 C   0  0  0  0  0  2  0  0  0  0  0  0
  161.7870  208.4370  151.3610 C   0  0  1  0  0  3  0  0  0  0  0  0
  161.9400  208.8020  149.9050 C   0  0  2  0  0  0  0  0  0  0  0  0
  161.6380  209.8070  152.0420 C   0  0  1  0  0  3  0  0  0  0  0  0
  163.2400  208.5010  149.4630 O   0  0  0  0  0  0  0  0  0  0  0  0
  162.1840  207.8180  148.8300 C   0  0  0  0  0  2  0  0  0  0  0  0
  161.1310  210.7770  150.9710 C   0  0  0  0  0  2  0  0  0  0  0  0
  160.6100  207.4720  151.5860 C   0  0  0  0  0  2  0  0  0  0  0  0
  161.1150  205.7290  151.7830 S   0  0  0  0  0  0  0  0  0  0  0  0
  161.2070  205.8930  153.5870 C   0  0  0  0  0  1  0  0  0  0  0  0
  156.6160  211.2680  154.6810 C   0  0  0  0  0  2  0  0  0  0  0  0
  155.2840  212.0040  154.7380 C   0  0  0  0  0  1  0  0  0  0  0  0
  158.2390  212.7650  156.6690 C   0  0  0  0  0  2  0  0  0  0  0  0
  157.5180  214.0920  156.8600 C   0  0  0  0  0  1  0  0  0  0  0  0
  3  2  1  6  0  0  0
  3 27  1  0  0  0  0
  4 10  1  0  0  0  0
  5  7  1  0  0  0  0
  6  9  1  0  0  0  0
  6 11  1  1  0  0  0
  7 25  1  1  0  0  0
  7  3  1  0  0  0  0
  8 11  1  1  0  0  0
  8 13  1  0  0  0  0
  8 12  1  0  0  0  0
  9  5  1  6  0  0  0
  9 14  1  0  0  0  0
 12  4  1  1  0  0  0
 12 10  1  0  0  0  0
 13  1  1  6  0  0  0
 13 12  1  0  0  0  0
 14  3  1  0  0  0  0
 14  1  1  1  0  0  0
 15 17  1  0  0  0  0
 15 21  1  0  0  0  0
 16 22  1  6  0  0  0
 16 18  1  0  0  0  0
 17 20  1  6  0  0  0
 17 16  1  0  0  0  0
 18 21  1  6  0  0  0
 18  6  1  0  0  0  0
 19 17  1  0  0  0  0
 20 19  1  0  0  0  0
 22 23  1  0  0  0  0
 23 24  1  0  0  0  0
 25 26  1  0  0  0  0
 27 28  1  0  0  0  0
M  END
>  <MODEL>
2

>  <REMARK>
 VINA RESULT:      -3.3      2.337      4.474
  Name = 
  5 active torsions:
  status: ('A' for Active; 'I' for Inactive)
    1  A    between atoms: C_3  and  C_7
    2  A    between atoms: C_6  and  C_11
    3  A    between atoms: C_9  and  C_18
    4  A    between atoms: C_10  and  C_13
    5  A    between atoms: S_14  and  C_18
                            x       y       z     vdW  Elec       q    Type
                         _______ _______ _______ _____ _____    ______ ____

>  <TORSDO>
F 5

$$$$
=
 OpenBabel11052423023D

 28 33  0  0  1  0  0  0  0  0999 V2000
  162.3320  209.8010  148.6600 O   0  0  0  0  0  0  0  0  0  0  0  0
  163.5370  207.3970  149.3230 O   0  0  0  0  0  1  0  0  0  0  0  0
  162.1560  207.4210  149.1120 C   0  0  1  0  0  0  0  0  0  0  0  0
  163.1580  212.9560  148.6080 C   0  0  0  0  0  2  0  0  0  0  0  0
  161.3900  207.4350  151.7390 S   0  0  0  0  0  0  0  0  0  0  0  0
  160.8190  210.1800  151.5440 C   0  0  2  0  0  3  0  0  0  0  0  0
  161.5100  206.5110  150.1660 C   0  0  1  0  0  3  0  0  0  0  0  0
  161.8000  211.6570  149.7950 C   0  0  2  0  0  3  0  0  0  0  0  0
  161.7290  209.0460  150.9370 C   0  0  2  0  0  3  0  0  0  0  0  0
  162.9360  212.1210  147.5390 O   0  0  0  0  0  0  0  0  0  0  0  0
  160.5740  211.4190  150.6370 C   0  0  0  0  0  2  0  0  0  0  0  0
  161.8190  212.3100  148.4030 C   0  0  2  0  0  0  0  0  0  0  0  0
  161.4100  210.8450  148.6360 C   0  0  1  0  0  3  0  0  0  0  0  0
  161.6400  208.8210  149.4070 C   0  0  1  0  0  3  0  0  0  0  0  0
  162.0540  210.2190  155.1970 C   0  0  0  0  0  2  0  0  0  0  0  0
  160.2770  211.3310  153.8110 C   0  0  1  0  0  3  0  0  0  0  0  0
  160.8630  211.1440  155.1900 C   0  0  2  0  0  0  0  0  0  0  0  0
  161.3430  210.7020  152.9010 C   0  0  1  0  0  3  0  0  0  0  0  0
  161.2160  212.3890  155.7390 O   0  0  0  0  0  0  0  0  0  0  0  0
  160.2350  211.6500  156.4270 C   0  0  0  0  0  2  0  0  0  0  0  0
  162.1320  209.7130  153.7640 C   0  0  0  0  0  2  0  0  0  0  0  0
  158.8770  210.7010  153.6980 C   0  0  0  0  0  2  0  0  0  0  0  0
  157.5140  211.8940  153.9280 S   0  0  0  0  0  0  0  0  0  0  0  0
  158.5000  213.2510  153.2370 C   0  0  0  0  0  1  0  0  0  0  0  0
  160.1610  205.8780  149.7940 C   0  0  0  0  0  2  0  0  0  0  0  0
  160.0820  204.3930  150.1220 C   0  0  0  0  0  1  0  0  0  0  0  0
  161.9110  206.9720  147.6590 C   0  0  0  0  0  2  0  0  0  0  0  0
  162.5380  205.6350  147.2890 C   0  0  0  0  0  1  0  0  0  0  0  0
  3  2  1  1  0  0  0
  3 14  1  0  0  0  0
  3  7  1  0  0  0  0
  6 11  1  6  0  0  0
  6 18  1  0  0  0  0
  7 25  1  6  0  0  0
  7  5  1  0  0  0  0
  8 11  1  1  0  0  0
  9  6  1  0  0  0  0
  9  5  1  1  0  0  0
 10 12  1  0  0  0  0
 10  4  1  0  0  0  0
 12  4  1  6  0  0  0
 12 13  1  0  0  0  0
 12  8  1  0  0  0  0
 13  1  1  6  0  0  0
 13  8  1  0  0  0  0
 14  1  1  6  0  0  0
 14  9  1  0  0  0  0
 16 22  1  1  0  0  0
 16 17  1  0  0  0  0
 17 15  1  1  0  0  0
 17 19  1  0  0  0  0
 17 20  1  0  0  0  0
 18 21  1  1  0  0  0
 18 16  1  0  0  0  0
 19 20  1  0  0  0  0
 21 15  1  0  0  0  0
 22 23  1  0  0  0  0
 24 23  1  0  0  0  0
 25 26  1  0  0  0  0
 27  3  1  0  0  0  0
 28 27  1  0  0  0  0
M  END
>  <MODEL>
3

>  <REMARK>
 VINA RESULT:      -3.0      2.535      6.933
  Name = 
  5 active torsions:
  status: ('A' for Active; 'I' for Inactive)
    1  A    between atoms: C_3  and  C_7
    2  A    between atoms: C_6  and  C_11
    3  A    between atoms: C_9  and  C_18
    4  A    between atoms: C_10  and  C_13
    5  A    between atoms: S_14  and  C_18
                            x       y       z     vdW  Elec       q    Type
                         _______ _______ _______ _____ _____    ______ ____

>  <TORSDO>
F 5

$$$$
=
 OpenBabel11052423023D

 28 33  0  0  1  0  0  0  0  0999 V2000
  161.0430  210.4940  151.9690 O   0  0  0  0  0  0  0  0  0  0  0  0
  158.9620  210.4780  153.7970 O   0  0  0  0  0  1  0  0  0  0  0  0
  160.2720  210.3650  154.2690 C   0  0  1  0  0  0  0  0  0  0  0  0
  161.3860  210.2720  148.7320 C   0  0  0  0  0  2  0  0  0  0  0  0
  160.2760  207.6590  154.6790 S   0  0  0  0  0  0  0  0  0  0  0  0
  161.7760  207.3190  152.3270 C   0  0  2  0  0  3  0  0  0  0  0  0
  160.2670  209.3360  155.4070 C   0  0  1  0  0  3  0  0  0  0  0  0
  161.8560  209.0100  150.5010 C   0  0  2  0  0  3  0  0  0  0  0  0
  160.7290  208.2740  153.0140 C   0  0  2  0  0  3  0  0  0  0  0  0
  161.5830  211.3720  149.5320 O   0  0  0  0  0  0  0  0  0  0  0  0
  162.6590  207.9560  151.2170 C   0  0  0  0  0  2  0  0  0  0  0  0
  162.4270  210.2600  149.8120 C   0  0  2  0  0  0  0  0  0  0  0  0
  162.2370  210.1560  151.3360 C   0  0  1  0  0  3  0  0  0  0  0  0
  161.1370  209.7600  153.1730 C   0  0  1  0  0  3  0  0  0  0  0  0
  161.2000  203.6320  151.3530 C   0  0  0  0  0  2  0  0  0  0  0  0
  161.3400  205.8670  150.2140 C   0  0  1  0  0  3  0  0  0  0  0  0
  161.2060  204.3740  150.0400 C   0  0  2  0  0  0  0  0  0  0  0  0
  161.1240  206.0540  151.7240 C   0  0  1  0  0  3  0  0  0  0  0  0
  160.0430  204.0720  149.3100 O   0  0  0  0  0  0  0  0  0  0  0  0
  161.2680  203.6880  148.7330 C   0  0  0  0  0  2  0  0  0  0  0  0
  161.4650  204.7170  152.3870 C   0  0  0  0  0  2  0  0  0  0  0  0
  162.6900  206.3830  149.6850 C   0  0  0  0  0  2  0  0  0  0  0  0
  162.7060  206.6900  147.8860 S   0  0  0  0  0  0  0  0  0  0  0  0
  160.9120  206.9550  147.8510 C   0  0  0  0  0  1  0  0  0  0  0  0
  161.3680  209.4800  156.4700 C   0  0  0  0  0  2  0  0  0  0  0  0
  161.9570  208.1470  156.9120 C   0  0  0  0  0  1  0  0  0  0  0  0
  160.7240  211.7740  154.6960 C   0  0  0  0  0  2  0  0  0  0  0  0
  159.6140  212.6600  155.2460 C   0  0  0  0  0  1  0  0  0  0  0  0
  3  2  1  6  0  0  0
  3 27  1  0  0  0  0
  3  7  1  0  0  0  0
  4 10  1  0  0  0  0
  5  7  1  0  0  0  0
  6 11  1  6  0  0  0
  6  9  1  0  0  0  0
  7 25  1  1  0  0  0
  8 11  1  1  0  0  0
  8 13  1  0  0  0  0
  9 14  1  0  0  0  0
  9  5  1  1  0  0  0
 10 12  1  0  0  0  0
 12  4  1  6  0  0  0
 12  8  1  0  0  0  0
 12 13  1  0  0  0  0
 13  1  1  6  0  0  0
 14  1  1  6  0  0  0
 14  3  1  0  0  0  0
 15 21  1  0  0  0  0
 16 22  1  1  0  0  0
 16 18  1  0  0  0  0
 17 20  1  6  0  0  0
 17 16  1  0  0  0  0
 17 15  1  0  0  0  0
 18  6  1  0  0  0  0
 18 21  1  1  0  0  0
 19 17  1  0  0  0  0
 20 19  1  0  0  0  0
 23 22  1  0  0  0  0
 24 23  1  0  0  0  0
 25 26  1  0  0  0  0
 27 28  1  0  0  0  0
M  END
>  <MODEL>
4

>  <REMARK>
 VINA RESULT:      -3.0      2.039      3.076
  Name = 
  5 active torsions:
  status: ('A' for Active; 'I' for Inactive)
    1  A    between atoms: C_3  and  C_7
    2  A    between atoms: C_6  and  C_11
    3  A    between atoms: C_9  and  C_18
    4  A    between atoms: C_10  and  C_13
    5  A    between atoms: S_14  and  C_18
                            x       y       z     vdW  Elec       q    Type
                         _______ _______ _______ _____ _____    ______ ____

>  <TORSDO>
F 5

$$$$
=
 OpenBabel11052423023D

 28 33  0  0  1  0  0  0  0  0999 V2000
  161.3840  204.7240  152.2810 O   0  0  0  0  0  0  0  0  0  0  0  0
  162.9230  206.8590  153.1450 O   0  0  0  0  0  1  0  0  0  0  0  0
  161.5630  207.0660  152.8980 C   0  0  1  0  0  0  0  0  0  0  0  0
  161.8970  201.6970  151.1790 C   0  0  0  0  0  2  0  0  0  0  0  0
  161.8190  208.2440  150.4420 S   0  0  0  0  0  0  0  0  0  0  0  0
  161.0150  205.8420  149.2220 C   0  0  2  0  0  3  0  0  0  0  0  0
  161.4200  208.4330  152.2150 C   0  0  1  0  0  3  0  0  0  0  0  0
  161.1710  203.6240  150.3420 C   0  0  2  0  0  3  0  0  0  0  0  0
  161.7190  206.4170  150.5090 C   0  0  2  0  0  3  0  0  0  0  0  0
  161.3600  202.0800  152.3850 O   0  0  0  0  0  0  0  0  0  0  0  0
  160.3630  204.4390  149.3670 C   0  0  0  0  0  2  0  0  0  0  0  0
  160.6290  202.4970  151.2360 C   0  0  2  0  0  0  0  0  0  0  0  0
  160.4430  203.9890  151.5630 C   0  0  1  0  0  3  0  0  0  0  0  0
  161.0900  206.0450  151.8750 C   0  0  1  0  0  3  0  0  0  0  0  0
  162.3320  206.2150  145.6170 C   0  0  0  0  0  2  0  0  0  0  0  0
  162.0850  204.4030  147.3390 C   0  0  1  0  0  3  0  0  0  0  0  0
  162.4770  204.7450  145.9230 C   0  0  2  0  0  0  0  0  0  0  0  0
  161.9610  205.7840  148.0020 C   0  0  1  0  0  3  0  0  0  0  0  0
  163.7950  204.3280  145.6700 O   0  0  0  0  0  0  0  0  0  0  0  0
  162.7850  203.7380  144.8870 C   0  0  0  0  0  2  0  0  0  0  0  0
  161.7010  206.7900  146.8770 C   0  0  0  0  0  2  0  0  0  0  0  0
  160.8060  203.5470  147.3840 C   0  0  0  0  0  2  0  0  0  0  0  0
  161.1180  201.7520  147.2710 S   0  0  0  0  0  0  0  0  0  0  0  0
  160.3370  201.6550  145.6370 C   0  0  0  0  0  1  0  0  0  0  0  0
  160.0790  209.1590  152.4040 C   0  0  0  0  0  2  0  0  0  0  0  0
  160.2360  210.6310  152.7610 C   0  0  0  0  0  1  0  0  0  0  0  0
  160.8350  206.9590  154.2520 C   0  0  0  0  0  2  0  0  0  0  0  0
  161.3970  207.8490  155.3510 C   0  0  0  0  0  1  0  0  0  0  0  0
  3  2  1  1  0  0  0
  3 27  1  0  0  0  0
  4 10  1  0  0  0  0
  5  7  1  0  0  0  0
  6 11  1  1  0  0  0
  6  9  1  0  0  0  0
  7 25  1  6  0  0  0
  7  3  1  0  0  0  0
  8 11  1  6  0  0  0
  8 12  1  0  0  0  0
  8 13  1  0  0  0  0
  9  5  1  6  0  0  0
  9 14  1  0  0  0  0
 12  4  1  6  0  0  0
 12 13  1  0  0  0  0
 12 10  1  0  0  0  0
 13  1  1  1  0  0  0
 14  1  1  1  0  0  0
 14  3  1  0  0  0  0
 15 17  1  0  0  0  0
 15 21  1  0  0  0  0
 16 22  1  6  0  0  0
 16 18  1  0  0  0  0
 17 20  1  6  0  0  0
 17 16  1  0  0  0  0
 18 21  1  6  0  0  0
 18  6  1  0  0  0  0
 19 17  1  0  0  0  0
 20 19  1  0  0  0  0
 23 22  1  0  0  0  0
 24 23  1  0  0  0  0
 25 26  1  0  0  0  0
 27 28  1  0  0  0  0
M  END
>  <MODEL>
5

>  <REMARK>
 VINA RESULT:      -2.9      3.626      7.197
  Name = 
  5 active torsions:
  status: ('A' for Active; 'I' for Inactive)
    1  A    between atoms: C_3  and  C_7
    2  A    between atoms: C_6  and  C_11
    3  A    between atoms: C_9  and  C_18
    4  A    between atoms: C_10  and  C_13
    5  A    between atoms: S_14  and  C_18
                            x       y       z     vdW  Elec       q    Type
                         _______ _______ _______ _____ _____    ______ ____

>  <TORSDO>
F 5

$$$$
=
 OpenBabel11052423023D

 28 33  0  0  1  0  0  0  0  0999 V2000
  162.2100  208.1400  150.4010 O   0  0  0  0  0  0  0  0  0  0  0  0
  163.5580  205.9750  151.4820 O   0  0  0  0  0  1  0  0  0  0  0  0
  162.1770  205.8800  151.2920 C   0  0  1  0  0  0  0  0  0  0  0  0
  162.8490  211.2720  149.7490 C   0  0  0  0  0  2  0  0  0  0  0  0
  161.4230  206.3430  153.8810 S   0  0  0  0  0  0  0  0  0  0  0  0
  160.6920  208.9660  153.1860 C   0  0  2  0  0  3  0  0  0  0  0  0
  161.5900  205.1490  152.5070 C   0  0  1  0  0  3  0  0  0  0  0  0
  161.5760  210.1430  151.1780 C   0  0  2  0  0  3  0  0  0  0  0  0
  161.6640  207.7920  152.7880 C   0  0  2  0  0  3  0  0  0  0  0  0
  162.6730  210.2400  148.8580 O   0  0  0  0  0  0  0  0  0  0  0  0
  160.3700  209.9970  152.0690 C   0  0  0  0  0  2  0  0  0  0  0  0
  161.5500  210.5230  149.6880 C   0  0  2  0  0  0  0  0  0  0  0  0
  161.2290  209.1070  150.1970 C   0  0  1  0  0  3  0  0  0  0  0  0
  161.5800  207.2800  151.3280 C   0  0  1  0  0  3  0  0  0  0  0  0
  161.4920  209.8910  156.8430 C   0  0  0  0  0  2  0  0  0  0  0  0
  160.2450  210.8730  154.8960 C   0  0  1  0  0  3  0  0  0  0  0  0
  160.6070  211.0100  156.3550 C   0  0  2  0  0  0  0  0  0  0  0  0
  161.1900  209.7610  154.4140 C   0  0  1  0  0  3  0  0  0  0  0  0
  161.2260  212.2500  156.5870 O   0  0  0  0  0  0  0  0  0  0  0  0
  160.0130  212.0140  157.2610 C   0  0  0  0  0  2  0  0  0  0  0  0
  161.5810  208.9490  155.6520 C   0  0  0  0  0  2  0  0  0  0  0  0
  158.7470  210.5760  154.7070 C   0  0  0  0  0  2  0  0  0  0  0  0
  157.7790  212.0140  154.1330 S   0  0  0  0  0  0  0  0  0  0  0  0
  156.3020  211.4570  155.0250 C   0  0  0  0  0  1  0  0  0  0  0  0
  160.2790  204.3820  152.2800 C   0  0  0  0  0  2  0  0  0  0  0  0
  160.4890  202.9010  151.9970 C   0  0  0  0  0  1  0  0  0  0  0  0
  161.9520  205.1550  149.9510 C   0  0  0  0  0  2  0  0  0  0  0  0
  160.7610  205.6570  149.1460 C   0  0  0  0  0  1  0  0  0  0  0  0
  3 14  1  0  0  0  0
  3  2  1  1  0  0  0
  3  7  1  0  0  0  0
  6 11  1  6  0  0  0
  6 18  1  0  0  0  0
  7 25  1  6  0  0  0
  7  5  1  0  0  0  0
  8 11  1  1  0  0  0
  9  6  1  0  0  0  0
  9  5  1  1  0  0  0
 10 12  1  0  0  0  0
 10  4  1  0  0  0  0
 12  4  1  6  0  0  0
 12 13  1  0  0  0  0
 12  8  1  0  0  0  0
 13  1  1  6  0  0  0
 13  8  1  0  0  0  0
 14  1  1  6  0  0  0
 14  9  1  0  0  0  0
 16 22  1  1  0  0  0
 16 17  1  0  0  0  0
 17 19  1  0  0  0  0
 17 15  1  1  0  0  0
 17 20  1  0  0  0  0
 18 16  1  0  0  0  0
 18 21  1  1  0  0  0
 19 20  1  0  0  0  0
 21 15  1  0  0  0  0
 23 22  1  0  0  0  0
 23 24  1  0  0  0  0
 26 25  1  0  0  0  0
 27  3  1  0  0  0  0
 28 27  1  0  0  0  0
M  END
>  <MODEL>
6

>  <REMARK>
 VINA RESULT:      -2.9      2.371      6.755
  Name = 
  5 active torsions:
  status: ('A' for Active; 'I' for Inactive)
    1  A    between atoms: C_3  and  C_7
    2  A    between atoms: C_6  and  C_11
    3  A    between atoms: C_9  and  C_18
    4  A    between atoms: C_10  and  C_13
    5  A    between atoms: S_14  and  C_18
                            x       y       z     vdW  Elec       q    Type
                         _______ _______ _______ _____ _____    ______ ____

>  <TORSDO>
F 5

$$$$
=
 OpenBabel11052423023D

 28 33  0  0  1  0  0  0  0  0999 V2000
  161.7230  206.5770  150.5060 O   0  0  0  0  0  0  0  0  0  0  0  0
  160.5970  207.9130  148.3550 O   0  0  0  0  0  1  0  0  0  0  0  0
  161.8730  208.2870  148.7860 C   0  0  1  0  0  0  0  0  0  0  0  0
  160.7350  204.4820  152.8020 C   0  0  0  0  0  2  0  0  0  0  0  0
  161.1390  210.5170  150.1900 S   0  0  0  0  0  0  0  0  0  0  0  0
  161.4480  209.0910  152.5920 C   0  0  2  0  0  3  0  0  0  0  0  0
  161.9560  209.8170  148.7130 C   0  0  1  0  0  3  0  0  0  0  0  0
  161.3900  206.6050  152.7200 C   0  0  2  0  0  3  0  0  0  0  0  0
  161.1110  208.9090  151.0640 C   0  0  2  0  0  3  0  0  0  0  0  0
  161.5670  204.2400  151.7360 O   0  0  0  0  0  0  0  0  0  0  0  0
  162.0070  207.8380  153.3240 C   0  0  0  0  0  2  0  0  0  0  0  0
  162.0390  205.2120  152.6640 C   0  0  2  0  0  0  0  0  0  0  0  0
  162.4090  206.3490  151.6960 C   0  0  1  0  0  3  0  0  0  0  0  0
  162.0140  207.9380  150.2600 C   0  0  1  0  0  3  0  0  0  0  0  0
  158.6620  211.4070  153.9120 C   0  0  0  0  0  2  0  0  0  0  0  0
  160.5710  210.0620  154.8390 C   0  0  1  0  0  3  0  0  0  0  0  0
  159.4640  211.0440  155.1360 C   0  0  2  0  0  0  0  0  0  0  0  0
  160.2410  209.5990  153.4110 C   0  0  1  0  0  3  0  0  0  0  0  0
  158.6160  210.5320  156.1340 O   0  0  0  0  0  0  0  0  0  0  0  0
  159.2960  211.7270  156.4350 C   0  0  0  0  0  2  0  0  0  0  0  0
  159.3900  210.7030  152.7760 C   0  0  0  0  0  2  0  0  0  0  0  0
  161.9600  210.7030  155.0050 C   0  0  0  0  0  2  0  0  0  0  0  0
  162.7060  210.4230  156.6480 S   0  0  0  0  0  0  0  0  0  0  0  0
  161.9100  208.8020  156.8050 C   0  0  0  0  0  1  0  0  0  0  0  0
  163.3560  210.4210  148.5180 C   0  0  0  0  0  2  0  0  0  0  0  0
  163.3260  211.8630  148.0280 C   0  0  0  0  0  1  0  0  0  0  0  0
  162.8880  207.5570  147.8860 C   0  0  0  0  0  2  0  0  0  0  0  0
  162.3310  206.3480  147.1460 C   0  0  0  0  0  1  0  0  0  0  0  0
  3  2  1  6  0  0  0
  3 14  1  0  0  0  0
  6 11  1  1  0  0  0
  6 18  1  0  0  0  0
  7 25  1  1  0  0  0
  7  3  1  0  0  0  0
  7  5  1  0  0  0  0
  8 11  1  1  0  0  0
  9  5  1  6  0  0  0
  9  6  1  0  0  0  0
 10 12  1  0  0  0  0
 10  4  1  0  0  0  0
 12  8  1  0  0  0  0
 12  4  1  1  0  0  0
 13  1  1  6  0  0  0
 13 12  1  0  0  0  0
 13  8  1  0  0  0  0
 14  1  1  6  0  0  0
 14  9  1  0  0  0  0
 16 22  1  6  0  0  0
 16 17  1  0  0  0  0
 17 15  1  6  0  0  0
 17 19  1  0  0  0  0
 17 20  1  0  0  0  0
 18 21  1  6  0  0  0
 18 16  1  0  0  0  0
 19 20  1  0  0  0  0
 21 15  1  0  0  0  0
 22 23  1  0  0  0  0
 23 24  1  0  0  0  0
 26 25  1  0  0  0  0
 27  3  1  0  0  0  0
 28 27  1  0  0  0  0
M  END
>  <MODEL>
7

>  <REMARK>
 VINA RESULT:      -2.8      1.903      7.374
  Name = 
  5 active torsions:
  status: ('A' for Active; 'I' for Inactive)
    1  A    between atoms: C_3  and  C_7
    2  A    between atoms: C_6  and  C_11
    3  A    between atoms: C_9  and  C_18
    4  A    between atoms: C_10  and  C_13
    5  A    between atoms: S_14  and  C_18
                            x       y       z     vdW  Elec       q    Type
                         _______ _______ _______ _____ _____    ______ ____

>  <TORSDO>
F 5

$$$$
=
 OpenBabel11052423023D

 28 33  0  0  1  0  0  0  0  0999 V2000
  161.1170  208.2410  154.2810 O   0  0  0  0  0  0  0  0  0  0  0  0
  160.1360  208.0080  151.7010 O   0  0  0  0  0  1  0  0  0  0  0  0
  161.1490  208.9370  151.9530 C   0  0  1  0  0  0  0  0  0  0  0  0
  160.2830  207.2060  157.2600 C   0  0  0  0  0  2  0  0  0  0  0  0
  159.5730  211.1720  152.0460 S   0  0  0  0  0  0  0  0  0  0  0  0
  159.7590  211.1700  154.8510 C   0  0  2  0  0  3  0  0  0  0  0  0
  160.8310  210.2000  151.1430 C   0  0  1  0  0  3  0  0  0  0  0  0
  160.3460  209.1470  156.1790 C   0  0  2  0  0  3  0  0  0  0  0  0
  159.8020  210.2210  153.5940 C   0  0  2  0  0  3  0  0  0  0  0  0
  161.3490  206.8040  156.4900 O   0  0  0  0  0  0  0  0  0  0  0  0
  160.4730  210.6470  156.1290 C   0  0  0  0  0  2  0  0  0  0  0  0
  161.3430  208.1840  156.8440 C   0  0  2  0  0  0  0  0  0  0  0  0
  161.5830  208.8160  155.4610 C   0  0  1  0  0  3  0  0  0  0  0  0
  161.0750  209.3570  153.4140 C   0  0  1  0  0  3  0  0  0  0  0  0
  155.9580  211.7840  154.6350 C   0  0  0  0  0  2  0  0  0  0  0  0
  158.0270  213.0660  155.2600 C   0  0  1  0  0  3  0  0  0  0  0  0
  156.5350  213.1180  155.0390 C   0  0  2  0  0  0  0  0  0  0  0  0
  158.3190  211.5570  155.2560 C   0  0  1  0  0  3  0  0  0  0  0  0
  155.8900  213.5910  156.1950 O   0  0  0  0  0  0  0  0  0  0  0  0
  155.7460  214.3670  155.0300 C   0  0  0  0  0  2  0  0  0  0  0  0
  157.1800  210.8900  154.4800 C   0  0  0  0  0  2  0  0  0  0  0  0
  158.7870  213.8740  154.1940 C   0  0  0  0  0  2  0  0  0  0  0  0
  157.7500  214.3870  152.7820 S   0  0  0  0  0  0  0  0  0  0  0  0
  159.1820  214.4510  151.6710 C   0  0  0  0  0  1  0  0  0  0  0  0
  162.0260  211.0810  150.7450 C   0  0  0  0  0  2  0  0  0  0  0  0
  162.0440  211.4380  149.2650 C   0  0  0  0  0  1  0  0  0  0  0  0
  162.4840  208.2660  151.5770 C   0  0  0  0  0  2  0  0  0  0  0  0
  162.3520  206.8640  150.9980 C   0  0  0  0  0  1  0  0  0  0  0  0
  3  2  1  6  0  0  0
  3 14  1  0  0  0  0
  6 18  1  0  0  0  0
  6 11  1  1  0  0  0
  7 25  1  1  0  0  0
  7  3  1  0  0  0  0
  7  5  1  0  0  0  0
  8 11  1  1  0  0  0
  8 12  1  0  0  0  0
  9  5  1  6  0  0  0
  9  6  1  0  0  0  0
 10 12  1  0  0  0  0
 10  4  1  0  0  0  0
 12  4  1  1  0  0  0
 13  1  1  6  0  0  0
 13  8  1  0  0  0  0
 13 12  1  0  0  0  0
 14  9  1  0  0  0  0
 14  1  1  1  0  0  0
 16 22  1  6  0  0  0
 17 15  1  6  0  0  0
 17 16  1  0  0  0  0
 17 19  1  0  0  0  0
 18 21  1  6  0  0  0
 18 16  1  0  0  0  0
 20 17  1  0  0  0  0
 20 19  1  0  0  0  0
 21 15  1  0  0  0  0
 23 22  1  0  0  0  0
 24 23  1  0  0  0  0
 26 25  1  0  0  0  0
 27  3  1  0  0  0  0
 28 27  1  0  0  0  0
M  END
>  <MODEL>
8

>  <REMARK>
 VINA RESULT:      -2.7      2.966      6.800
  Name = 
  5 active torsions:
  status: ('A' for Active; 'I' for Inactive)
    1  A    between atoms: C_3  and  C_7
    2  A    between atoms: C_6  and  C_11
    3  A    between atoms: C_9  and  C_18
    4  A    between atoms: C_10  and  C_13
    5  A    between atoms: S_14  and  C_18
                            x       y       z     vdW  Elec       q    Type
                         _______ _______ _______ _____ _____    ______ ____

>  <TORSDO>
F 5

$$$$
=
 OpenBabel11052423023D

 28 33  0  0  1  0  0  0  0  0999 V2000
  161.3200  207.6240  154.3670 O   0  0  0  0  0  0  0  0  0  0  0  0
  160.0830  206.3610  152.2350 O   0  0  0  0  0  1  0  0  0  0  0  0
  161.3960  206.8110  152.0800 C   0  0  1  0  0  0  0  0  0  0  0  0
  160.4390  208.8540  157.2580 C   0  0  0  0  0  2  0  0  0  0  0  0
  160.8310  209.0960  150.6850 S   0  0  0  0  0  0  0  0  0  0  0  0
  161.2700  210.6090  153.0130 C   0  0  2  0  0  3  0  0  0  0  0  0
  161.5190  207.4030  150.6690 C   0  0  1  0  0  3  0  0  0  0  0  0
  161.1480  209.6500  155.3070 C   0  0  2  0  0  3  0  0  0  0  0  0
  160.8190  209.1840  152.5140 C   0  0  2  0  0  3  0  0  0  0  0  0
  161.1850  207.7270  157.0080 O   0  0  0  0  0  0  0  0  0  0  0  0
  161.8430  210.6800  154.4560 C   0  0  0  0  0  2  0  0  0  0  0  0
  161.7500  208.9450  156.5340 C   0  0  2  0  0  0  0  0  0  0  0  0
  162.0830  208.5410  155.0870 C   0  0  1  0  0  3  0  0  0  0  0  0
  161.6320  207.9720  153.0340 C   0  0  1  0  0  3  0  0  0  0  0  0
  157.8240  212.1940  152.3140 C   0  0  0  0  0  2  0  0  0  0  0  0
  160.2270  212.6010  151.7060 C   0  0  1  0  0  3  0  0  0  0  0  0
  158.7910  213.0170  151.5010 C   0  0  2  0  0  0  0  0  0  0  0  0
  160.1400  211.6590  152.9160 C   0  0  1  0  0  3  0  0  0  0  0  0
  158.6340  214.3810  151.8020 O   0  0  0  0  0  0  0  0  0  0  0  0
  158.3530  213.9900  150.4800 C   0  0  0  0  0  2  0  0  0  0  0  0
  158.7020  211.1330  152.9620 C   0  0  0  0  0  2  0  0  0  0  0  0
  160.8220  211.9670  150.4350 C   0  0  0  0  0  2  0  0  0  0  0  0
  161.2010  213.1750  149.1200 S   0  0  0  0  0  0  0  0  0  0  0  0
  162.3310  212.0200  148.2970 C   0  0  0  0  0  1  0  0  0  0  0  0
  162.9180  207.3820  150.0340 C   0  0  0  0  0  2  0  0  0  0  0  0
  162.9000  207.6180  148.5300 C   0  0  0  0  0  1  0  0  0  0  0  0
  162.3220  205.6080  152.3410 C   0  0  0  0  0  2  0  0  0  0  0  0
  161.8020  204.2770  151.8160 C   0  0  0  0  0  1  0  0  0  0  0  0
  3  2  1  1  0  0  0
  3 27  1  0  0  0  0
  3 14  1  0  0  0  0
  6 11  1  1  0  0  0
  7 25  1  1  0  0  0
  7  5  1  0  0  0  0
  7  3  1  0  0  0  0
  8 11  1  6  0  0  0
  8 12  1  0  0  0  0
  9  5  1  6  0  0  0
  9  6  1  0  0  0  0
  9 14  1  0  0  0  0
 10  4  1  0  0  0  0
 12 10  1  0  0  0  0
 12  4  1  1  0  0  0
 13  1  1  1  0  0  0
 13  8  1  0  0  0  0
 13 12  1  0  0  0  0
 14  1  1  1  0  0  0
 15 21  1  0  0  0  0
 16 22  1  6  0  0  0
 16 18  1  0  0  0  0
 17 20  1  6  0  0  0
 17 16  1  0  0  0  0
 17 19  1  0  0  0  0
 17 15  1  0  0  0  0
 18 21  1  6  0  0  0
 18  6  1  0  0  0  0
 20 19  1  0  0  0  0
 23 22  1  0  0  0  0
 24 23  1  0  0  0  0
 26 25  1  0  0  0  0
 28 27  1  0  0  0  0
M  END
>  <MODEL>
9

>  <REMARK>
 VINA RESULT:      -2.3      2.279      6.249
  Name = 
  5 active torsions:
  status: ('A' for Active; 'I' for Inactive)
    1  A    between atoms: C_3  and  C_7
    2  A    between atoms: C_6  and  C_11
    3  A    between atoms: C_9  and  C_18
    4  A    between atoms: C_10  and  C_13
    5  A    between atoms: S_14  and  C_18
                            x       y       z     vdW  Elec       q    Type
                         _______ _______ _______ _____ _____    ______ ____

>  <TORSDO>
F 5

$$$$
