=
 OpenBabel11052421513D

 30 35  0  0  1  0  0  0  0  0999 V2000
  158.9770  211.2390  152.8140 C   0  0  2  0  0  3  0  0  0  0  0  0
  162.8710  210.6210  155.5030 S   0  0  0  0  0  1  0  0  0  0  0  0
  160.3340  210.9410  153.5530 C   0  0  1  0  0  0  0  0  0  0  0  0
  159.0960  212.2020  151.6030 C   0  0  0  0  0  2  0  0  0  0  0  0
  162.3190  211.0130  150.1540 C   0  0  0  0  0  2  0  0  0  0  0  0
  161.7730  208.2580  153.8100 C   0  0  1  0  0  3  0  0  0  0  0  0
  161.1390  210.9070  151.1050 C   0  0  2  0  0  3  0  0  0  0  0  0
  160.7450  212.7870  149.8360 O   0  0  0  0  0  0  0  0  0  0  0  0
  160.8350  208.7180  154.9070 C   0  0  2  0  0  0  0  0  0  0  0  0
  161.2270  209.8770  155.8140 C   0  0  1  0  0  0  0  0  0  0  0  0
  160.5430  212.2940  151.1420 C   0  0  1  0  0  3  0  0  0  0  0  0
  161.3610  210.3440  152.5160 C   0  0  2  0  0  3  0  0  0  0  0  0
  160.1270  207.5520  155.4800 C   0  0  0  0  0  3  0  0  0  0  0  0
  161.6620  206.7310  153.8780 C   0  0  0  0  0  2  0  0  0  0  0  0
  162.3540  212.4350  148.1100 C   0  0  0  0  0  2  0  0  0  0  0  0
  161.8280  212.1180  149.2830 C   0  0  0  0  0  0  0  0  0  0  0  0
  160.8470  212.1640  153.9970 O   0  0  0  0  0  1  0  0  0  0  0  0
  160.7710  209.8060  157.2610 C   0  0  0  0  0  1  0  0  0  0  0  0
  160.0690  210.0420  154.8010 C   0  0  1  0  0  3  0  0  0  0  0  0
  160.5960  206.4520  154.9020 C   0  0  0  0  0  3  0  0  0  0  0  0
  160.0160  208.2570  151.9600 C   0  0  0  0  0  1  0  0  0  0  0  0
  161.3560  208.8120  152.4510 C   0  0  2  0  0  3  0  0  0  0  0  0
  157.1600  212.9880  153.6220 C   0  0  1  0  0  3  0  0  0  0  0  0
  155.8400  213.0100  154.1360 O   0  0  0  0  0  0  0  0  0  0  0  0
  158.0500  214.0150  154.3230 C   0  0  0  0  0  1  0  0  0  0  0  0
  155.2510  210.1990  155.0080 C   0  0  0  0  0  1  0  0  0  0  0  0
  155.8480  212.5910  155.4900 C   0  0  0  0  0  2  0  0  0  0  0  0
  157.7120  211.5520  153.6330 C   0  0  2  0  0  3  0  0  0  0  0  0
  156.2770  211.1260  155.6370 C   0  0  2  0  0  3  0  0  0  0  0  0
  157.6580  210.9130  155.0160 C   0  0  0  0  0  2  0  0  0  0  0  0
  1  4  1  6  0  0  0
  1  3  1  0  0  0  0
  1 28  1  0  0  0  0
  2 10  1  0  0  0  0
  3 17  1  1  0  0  0
  3 19  1  0  0  0  0
  6 14  1  6  0  0  0
  6  9  1  0  0  0  0
  7  5  1  1  0  0  0
  7 11  1  0  0  0  0
  7 12  1  0  0  0  0
  8 11  1  0  0  0  0
  9 13  1  1  0  0  0
  9 10  1  0  0  0  0
 10 18  1  1  0  0  0
 11  4  1  6  0  0  0
 12  3  1  0  0  0  0
 14 20  1  0  0  0  0
 15 16  2  0  0  0  0
 16  8  1  0  0  0  0
 16  5  1  0  0  0  0
 19  9  1  0  0  0  0
 19 10  1  0  0  0  0
 20 13  2  0  0  0  0
 21 22  1  0  0  0  0
 22 12  1  0  0  0  0
 22  6  1  0  0  0  0
 23 28  1  0  0  0  0
 23 24  1  0  0  0  0
 23 25  1  0  0  0  0
 24 27  1  0  0  0  0
 26 29  1  0  0  0  0
 27 29  1  0  0  0  0
 28 30  1  0  0  0  0
 30 29  1  0  0  0  0
M  END
>  <MODEL>
1

>  <REMARK>
 VINA RESULT:      -3.6      0.000      0.000
  Name = 
  1 active torsions:
  status: ('A' for Active; 'I' for Inactive)
    1  A    between atoms: C_1  and  C_22
                            x       y       z     vdW  Elec       q    Type
                         _______ _______ _______ _____ _____    ______ ____

>  <TORSDO>
F 1

$$$$
=
 OpenBabel11052421513D

 30 35  0  0  1  0  0  0  0  0999 V2000
  159.8740  211.1520  154.1830 C   0  0  2  0  0  3  0  0  0  0  0  0
  155.1700  211.0360  153.3770 S   0  0  0  0  0  1  0  0  0  0  0  0
  158.3380  211.2960  153.8710 C   0  0  1  0  0  0  0  0  0  0  0  0
  160.8020  211.2880  152.9480 C   0  0  0  0  0  2  0  0  0  0  0  0
  159.0500  214.0300  151.1290 C   0  0  0  0  0  2  0  0  0  0  0  0
  156.4220  213.4560  154.8730 C   0  0  1  0  0  3  0  0  0  0  0  0
  159.2840  213.1370  152.3350 C   0  0  2  0  0  3  0  0  0  0  0  0
  160.8650  212.5090  150.7820 O   0  0  0  0  0  0  0  0  0  0  0  0
  156.5360  212.1440  155.6200 C   0  0  2  0  0  0  0  0  0  0  0  0
  155.9800  210.8630  155.0100 C   0  0  1  0  0  0  0  0  0  0  0  0
  160.0600  211.9560  151.8000 C   0  0  1  0  0  3  0  0  0  0  0  0
  158.0850  212.6940  153.1850 C   0  0  2  0  0  3  0  0  0  0  0  0
  156.3860  212.3820  157.0720 C   0  0  0  0  0  3  0  0  0  0  0  0
  156.0600  214.4530  155.9770 C   0  0  0  0  0  2  0  0  0  0  0  0
  160.6850  214.3520  149.2780 C   0  0  0  0  0  2  0  0  0  0  0  0
  160.2470  213.6630  150.3210 C   0  0  0  0  0  0  0  0  0  0  0  0
  158.0030  210.3050  152.9420 O   0  0  0  0  0  1  0  0  0  0  0  0
  155.3830  209.8460  155.9670 C   0  0  0  0  0  1  0  0  0  0  0  0
  157.5090  211.0480  155.1700 C   0  0  1  0  0  3  0  0  0  0  0  0
  156.1200  213.6700  157.2600 C   0  0  0  0  0  3  0  0  0  0  0  0
  158.8710  214.1150  155.1430 C   0  0  0  0  0  1  0  0  0  0  0  0
  157.7280  213.8120  154.1700 C   0  0  2  0  0  3  0  0  0  0  0  0
  161.3090  210.3750  156.2680 C   0  0  1  0  0  3  0  0  0  0  0  0
  161.3760  209.3010  157.1900 O   0  0  0  0  0  0  0  0  0  0  0  0
  162.7030  210.8270  155.8350 C   0  0  0  0  0  1  0  0  0  0  0  0
  159.7150  207.0990  156.0070 C   0  0  0  0  0  1  0  0  0  0  0  0
  161.9260  208.1600  156.5540 C   0  0  0  0  0  2  0  0  0  0  0  0
  160.3630  210.0230  155.1080 C   0  0  2  0  0  3  0  0  0  0  0  0
  161.0180  207.6320  155.4360 C   0  0  2  0  0  3  0  0  0  0  0  0
  160.7540  208.7280  154.4040 C   0  0  0  0  0  2  0  0  0  0  0  0
  1  4  1  6  0  0  0
  1 28  1  0  0  0  0
  2 10  1  0  0  0  0
  3 17  1  6  0  0  0
  3  1  1  0  0  0  0
  3 19  1  0  0  0  0
  6  9  1  0  0  0  0
  6 14  1  1  0  0  0
  7  5  1  6  0  0  0
  7 12  1  0  0  0  0
  8 11  1  0  0  0  0
  9 13  1  1  0  0  0
 10 19  1  0  0  0  0
 10  9  1  0  0  0  0
 10 18  1  1  0  0  0
 11  7  1  0  0  0  0
 11  4  1  1  0  0  0
 12  3  1  0  0  0  0
 12 22  1  0  0  0  0
 13 20  2  0  0  0  0
 14 20  1  0  0  0  0
 15 16  2  0  0  0  0
 16  8  1  0  0  0  0
 16  5  1  0  0  0  0
 19  9  1  0  0  0  0
 22  6  1  0  0  0  0
 22 21  1  0  0  0  0
 23 24  1  0  0  0  0
 25 23  1  0  0  0  0
 27 24  1  0  0  0  0
 28 23  1  0  0  0  0
 29 26  1  0  0  0  0
 29 27  1  0  0  0  0
 30 28  1  0  0  0  0
 30 29  1  0  0  0  0
M  END
>  <MODEL>
2

>  <REMARK>
 VINA RESULT:      -1.3      2.197      5.401
  Name = 
  1 active torsions:
  status: ('A' for Active; 'I' for Inactive)
    1  A    between atoms: C_1  and  C_22
                            x       y       z     vdW  Elec       q    Type
                         _______ _______ _______ _____ _____    ______ ____

>  <TORSDO>
F 1

$$$$
=
 OpenBabel11052421513D

 30 35  0  0  1  0  0  0  0  0999 V2000
  161.4110  213.1240  141.0340 C   0  0  2  0  0  3  0  0  0  0  0  0
  160.2510  209.3450  138.3590 S   0  0  0  0  0  1  0  0  0  0  0  0
  161.0580  211.9890  140.0020 C   0  0  1  0  0  0  0  0  0  0  0  0
  162.8950  213.5750  141.0180 C   0  0  0  0  0  2  0  0  0  0  0  0
  163.5540  213.4850  137.3510 C   0  0  0  0  0  2  0  0  0  0  0  0
  159.1480  212.1550  137.6220 C   0  0  1  0  0  3  0  0  0  0  0  0
  162.6460  213.4240  138.5660 C   0  0  2  0  0  3  0  0  0  0  0  0
  164.7610  213.8080  139.3910 O   0  0  0  0  0  0  0  0  0  0  0  0
  158.6510  211.6280  138.9520 C   0  0  2  0  0  0  0  0  0  0  0  0
  159.1130  210.2670  139.4580 C   0  0  1  0  0  0  0  0  0  0  0  0
  163.5670  213.1350  139.7270 C   0  0  1  0  0  3  0  0  0  0  0  0
  161.4340  212.4820  138.5520 C   0  0  2  0  0  3  0  0  0  0  0  0
  157.2460  212.0430  139.1600 C   0  0  0  0  0  3  0  0  0  0  0  0
  157.8940  212.7890  137.0110 C   0  0  0  0  0  2  0  0  0  0  0  0
  165.8640  214.4160  137.3650 C   0  0  0  0  0  2  0  0  0  0  0  0
  164.8110  213.9380  138.0110 C   0  0  0  0  0  0  0  0  0  0  0  0
  161.8680  210.8880  140.2960 O   0  0  0  0  0  1  0  0  0  0  0  0
  158.1070  209.4470  140.2470 C   0  0  0  0  0  1  0  0  0  0  0  0
  159.5680  211.5590  140.1790 C   0  0  1  0  0  3  0  0  0  0  0  0
  156.8350  212.6870  138.0730 C   0  0  0  0  0  3  0  0  0  0  0  0
  159.8260  214.4530  138.4990 C   0  0  0  0  0  1  0  0  0  0  0  0
  160.2780  213.1630  137.8100 C   0  0  2  0  0  3  0  0  0  0  0  0
  159.4000  212.7060  142.7060 C   0  0  1  0  0  3  0  0  0  0  0  0
  159.1810  212.3360  144.0550 O   0  0  0  0  0  0  0  0  0  0  0  0
  158.4330  213.8040  142.2640 C   0  0  0  0  0  1  0  0  0  0  0  0
  161.8240  212.6720  145.4390 C   0  0  0  0  0  1  0  0  0  0  0  0
  159.4880  213.4280  144.9060 C   0  0  0  0  0  2  0  0  0  0  0  0
  160.8860  213.0340  142.4780 C   0  0  2  0  0  3  0  0  0  0  0  0
  160.9770  213.7920  144.8600 C   0  0  2  0  0  3  0  0  0  0  0  0
  161.4010  214.1120  143.4260 C   0  0  0  0  0  2  0  0  0  0  0  0
  1  4  1  1  0  0  0
  1 28  1  0  0  0  0
  2 10  1  0  0  0  0
  3 19  1  0  0  0  0
  3 17  1  1  0  0  0
  3  1  1  0  0  0  0
  5 16  1  0  0  0  0
  6 14  1  1  0  0  0
  6 22  1  0  0  0  0
  6  9  1  0  0  0  0
  7  5  1  6  0  0  0
  7 11  1  0  0  0  0
  8 11  1  0  0  0  0
  9 13  1  1  0  0  0
  9 10  1  0  0  0  0
  9 19  1  0  0  0  0
 10 19  1  0  0  0  0
 10 18  1  1  0  0  0
 11  4  1  1  0  0  0
 12  7  1  0  0  0  0
 12  3  1  0  0  0  0
 14 20  1  0  0  0  0
 15 16  2  0  0  0  0
 16  8  1  0  0  0  0
 20 13  2  0  0  0  0
 22 21  1  0  0  0  0
 22 12  1  0  0  0  0
 23 24  1  0  0  0  0
 24 27  1  0  0  0  0
 25 23  1  0  0  0  0
 28 23  1  0  0  0  0
 28 30  1  0  0  0  0
 29 27  1  0  0  0  0
 29 26  1  0  0  0  0
 30 29  1  0  0  0  0
M  END
>  <MODEL>
3

>  <REMARK>
 VINA RESULT:      -1.1      9.516     13.997
  Name = 
  1 active torsions:
  status: ('A' for Active; 'I' for Inactive)
    1  A    between atoms: C_1  and  C_22
                            x       y       z     vdW  Elec       q    Type
                         _______ _______ _______ _____ _____    ______ ____

>  <TORSDO>
F 1

$$$$
=
 OpenBabel11052421513D

 30 35  0  0  1  0  0  0  0  0999 V2000
  159.9380  211.0470  152.7490 C   0  0  2  0  0  3  0  0  0  0  0  0
  161.3320  212.0030  157.2130 S   0  0  0  0  0  1  0  0  0  0  0  0
  160.3150  211.2000  154.2700 C   0  0  1  0  0  0  0  0  0  0  0  0
  160.6470  209.8750  152.0200 C   0  0  0  0  0  2  0  0  0  0  0  0
  160.5460  207.2940  154.7080 C   0  0  0  0  0  2  0  0  0  0  0  0
  158.4720  210.9040  156.6900 C   0  0  1  0  0  3  0  0  0  0  0  0
  160.1650  208.6320  154.0990 C   0  0  2  0  0  3  0  0  0  0  0  0
  161.5010  207.5970  152.5350 O   0  0  0  0  0  0  0  0  0  0  0  0
  158.7230  212.2750  156.0960 C   0  0  2  0  0  0  0  0  0  0  0  0
  160.0830  212.9420  156.2580 C   0  0  1  0  0  0  0  0  0  0  0  0
  161.2030  208.8840  153.0310 C   0  0  1  0  0  3  0  0  0  0  0  0
  159.9840  209.8500  155.0160 C   0  0  2  0  0  3  0  0  0  0  0  0
  157.4940  213.0930  156.1940 C   0  0  0  0  0  3  0  0  0  0  0  0
  157.0560  211.0280  157.2610 C   0  0  0  0  0  2  0  0  0  0  0  0
  161.4950  205.3830  153.4240 C   0  0  0  0  0  2  0  0  0  0  0  0
  161.2100  206.6720  153.5280 C   0  0  0  0  0  0  0  0  0  0  0  0
  161.6980  211.3930  154.3430 O   0  0  0  0  0  1  0  0  0  0  0  0
  160.0950  214.4530  156.4130 C   0  0  0  0  0  1  0  0  0  0  0  0
  159.6140  212.4620  154.8630 C   0  0  1  0  0  3  0  0  0  0  0  0
  156.5740  212.3900  156.8440 C   0  0  0  0  0  3  0  0  0  0  0  0
  157.4790  209.8890  154.5700 C   0  0  0  0  0  1  0  0  0  0  0  0
  158.5800  209.8110  155.6310 C   0  0  2  0  0  3  0  0  0  0  0  0
  158.6530  213.2140  151.9320 C   0  0  1  0  0  3  0  0  0  0  0  0
  158.9240  214.4530  151.3030 O   0  0  0  0  0  0  0  0  0  0  0  0
  157.3580  212.5930  151.4100 C   0  0  0  0  0  1  0  0  0  0  0  0
  161.6780  214.1980  150.1370 C   0  0  0  0  0  1  0  0  0  0  0  0
  159.1750  214.2430  149.9240 C   0  0  0  0  0  2  0  0  0  0  0  0
  159.8820  212.2930  151.8470 C   0  0  2  0  0  3  0  0  0  0  0  0
  160.4500  213.4240  149.6890 C   0  0  2  0  0  3  0  0  0  0  0  0
  160.3580  212.0810  150.4140 C   0  0  0  0  0  2  0  0  0  0  0  0
  1  4  1  6  0  0  0
  1  3  1  0  0  0  0
  3 17  1  1  0  0  0
  3 19  1  0  0  0  0
  3 12  1  0  0  0  0
  6 14  1  6  0  0  0
  7  5  1  1  0  0  0
  7 12  1  0  0  0  0
  8 11  1  0  0  0  0
  8 16  1  0  0  0  0
  9 13  1  1  0  0  0
  9 10  1  0  0  0  0
  9  6  1  0  0  0  0
 10 18  1  1  0  0  0
 10  2  1  0  0  0  0
 11  4  1  6  0  0  0
 11  7  1  0  0  0  0
 12 22  1  0  0  0  0
 13 20  2  0  0  0  0
 15 16  2  0  0  0  0
 16  5  1  0  0  0  0
 19  9  1  0  0  0  0
 19 10  1  0  0  0  0
 20 14  1  0  0  0  0
 21 22  1  0  0  0  0
 22  6  1  0  0  0  0
 24 23  1  0  0  0  0
 25 23  1  0  0  0  0
 27 24  1  0  0  0  0
 28 23  1  0  0  0  0
 28  1  1  0  0  0  0
 29 27  1  0  0  0  0
 29 26  1  0  0  0  0
 29 30  1  0  0  0  0
 30 28  1  0  0  0  0
M  END
>  <MODEL>
4

>  <REMARK>
 VINA RESULT:      -1.0      1.928      5.093
  Name = 
  1 active torsions:
  status: ('A' for Active; 'I' for Inactive)
    1  A    between atoms: C_1  and  C_22
                            x       y       z     vdW  Elec       q    Type
                         _______ _______ _______ _____ _____    ______ ____

>  <TORSDO>
F 1

$$$$
