=
 OpenBabel11062409083D

 37 42  0  0  1  0  0  0  0  0999 V2000
  159.5680  210.6730  155.7120 C   0  0  0  0  0  0  0  0  0  0  0  0
  158.4200  213.5390  157.0800 C   0  0  2  0  0  3  0  0  0  0  0  0
  160.0110  210.2950  152.3160 C   0  0  2  0  0  3  0  0  0  0  0  0
  158.1170  211.0630  156.0620 C   0  0  2  0  0  0  0  0  0  0  0  0
  161.0130  208.4080  153.6270 C   0  0  1  0  0  3  0  0  0  0  0  0
  158.9770  214.4530  152.8500 C   0  0  0  0  0  3  0  0  0  0  0  0
  161.6560  209.3250  155.9210 C   0  0  0  0  0  2  0  0  0  0  0  0
  157.4680  211.6140  154.9550 O   0  0  0  0  0  0  0  0  0  0  0  0
  158.0750  212.0390  157.2610 C   0  0  0  0  0  2  0  0  0  0  0  0
  159.8320  212.3880  153.8080 C   0  0  0  0  0  0  0  0  0  0  0  0
  158.9710  213.8730  151.5860 C   0  0  0  0  0  3  0  0  0  0  0  0
  156.3070  209.6970  155.4320 O   0  0  0  0  0  0  0  0  0  0  0  0
  160.4470  211.6490  154.9600 C   0  0  0  0  0  2  0  0  0  0  0  0
  157.8100  214.1890  155.8530 C   0  0  0  0  0  2  0  0  0  0  0  0
  157.2600  209.8710  156.4320 C   0  0  0  0  0  2  0  0  0  0  0  0
  159.3490  212.5440  151.4290 C   0  0  0  0  0  3  0  0  0  0  0  0
  159.8110  213.8080  156.5430 C   0  0  0  0  0  2  0  0  0  0  0  0
  161.8150  208.1860  154.9110 C   0  0  0  0  0  2  0  0  0  0  0  0
  159.7780  211.7810  152.5230 C   0  0  0  0  0  0  0  0  0  0  0  0
  160.2090  209.6070  156.2690 C   0  0  0  0  0  0  0  0  0  0  0  0
  159.3880  213.7330  153.9760 C   0  0  0  0  0  0  0  0  0  0  0  0
  161.2970  209.7520  152.9440 C   0  0  1  0  0  3  0  0  0  0  0  0
  159.2040  214.4530  155.3010 C   0  0  1  0  0  3  0  0  0  0  0  0
  156.7090  210.5680  154.4160 C   0  0  0  0  0  2  0  0  0  0  0  0
  159.8960  209.9110  150.9740 O   0  0  0  0  0  1  0  0  0  0  0  0
  161.3600  205.9400  153.1830 C   0  0  0  0  0  3  0  0  0  0  0  0
  161.0290  207.2200  152.7110 C   0  0  0  0  0  0  0  0  0  0  0  0
  160.7290  207.4010  151.3570 C   0  0  0  0  0  3  0  0  0  0  0  0
  160.4620  206.4930  149.1690 F   0  0  0  0  0  0  0  0  0  0  0  0
  161.0810  205.0380  150.9540 C   0  0  0  0  0  3  0  0  0  0  0  0
  160.7530  206.3130  150.4790 C   0  0  0  0  0  0  0  0  0  0  0  0
  161.3840  204.8520  152.3050 C   0  0  0  0  0  3  0  0  0  0  0  0
  159.8100  207.3710  157.2590 C   0  0  0  0  0  1  0  0  0  0  0  0
  159.5550  208.7660  157.1760 O   0  0  0  0  0  0  0  0  0  0  0  0
  162.5210  209.7600  152.0270 C   0  0  0  0  0  2  0  0  0  0  0  0
  162.3180  209.5300  149.4120 C   0  0  0  0  0  1  0  0  0  0  0  0
  162.2670  210.8850  150.6210 S   0  0  0  0  0  0  0  0  0  0  0  0
  1  4  1  0  0  0  0
  1 20  2  0  0  0  0
  2 14  1  6  0  0  0
  2  9  1  0  0  0  0
  3 25  1  6  0  0  0
  3 19  1  0  0  0  0
  3 22  1  0  0  0  0
  4 15  1  1  0  0  0
  4  9  1  0  0  0  0
  5 27  1  6  0  0  0
  5 18  1  0  0  0  0
  6 21  1  0  0  0  0
  7 20  1  0  0  0  0
  8  4  1  0  0  0  0
 10 21  2  0  0  0  0
 10 13  1  0  0  0  0
 11  6  2  0  0  0  0
 12 15  1  0  0  0  0
 13  1  1  0  0  0  0
 16 11  1  0  0  0  0
 16 19  2  0  0  0  0
 17  2  1  0  0  0  0
 18  7  1  0  0  0  0
 19 10  1  0  0  0  0
 20 34  1  0  0  0  0
 21 23  1  0  0  0  0
 22 35  1  6  0  0  0
 22  5  1  0  0  0  0
 23 14  1  1  0  0  0
 23 17  1  0  0  0  0
 24  8  1  0  0  0  0
 24 12  1  0  0  0  0
 27 26  1  0  0  0  0
 28 27  2  0  0  0  0
 29 31  1  0  0  0  0
 30 32  1  0  0  0  0
 31 30  2  0  0  0  0
 31 28  1  0  0  0  0
 32 26  2  0  0  0  0
 34 33  1  0  0  0  0
 36 37  1  0  0  0  0
 37 35  1  0  0  0  0
M  END
>  <MODEL>
1

>  <REMARK>
 VINA RESULT:      -0.7      0.000      0.000
  Name = 
  4 active torsions:
  status: ('A' for Active; 'I' for Inactive)
    1  A    between atoms: C_6  and  C_7
    2  A    between atoms: C_14  and  C_31
    3  A    between atoms: C_14  and  S_37
    4  A    between atoms: C_29  and  O_33
                            x       y       z     vdW  Elec       q    Type
                         _______ _______ _______ _____ _____    ______ ____

>  <TORSDO>
F 4

$$$$
=
 OpenBabel11062409083D

 37 42  0  0  1  0  0  0  0  0999 V2000
  159.6970  210.6750  155.6710 C   0  0  0  0  0  0  0  0  0  0  0  0
  158.6060  213.5560  157.0550 C   0  0  2  0  0  3  0  0  0  0  0  0
  160.0180  210.2680  152.2640 C   0  0  2  0  0  3  0  0  0  0  0  0
  158.2610  211.0730  156.0690 C   0  0  2  0  0  0  0  0  0  0  0  0
  161.0600  208.3890  153.5550 C   0  0  1  0  0  3  0  0  0  0  0  0
  159.0150  214.4330  152.8000 C   0  0  0  0  0  3  0  0  0  0  0  0
  161.7880  209.3230  155.8170 C   0  0  0  0  0  2  0  0  0  0  0  0
  157.5740  211.6160  154.9810 O   0  0  0  0  0  0  0  0  0  0  0  0
  158.2640  212.0580  157.2610 C   0  0  0  0  0  2  0  0  0  0  0  0
  159.8980  212.3730  153.7440 C   0  0  0  0  0  0  0  0  0  0  0  0
  158.9620  213.8430  151.5420 C   0  0  0  0  0  3  0  0  0  0  0  0
  156.4260  209.7060  155.5160 O   0  0  0  0  0  0  0  0  0  0  0  0
  160.5510  211.6420  154.8800 C   0  0  0  0  0  2  0  0  0  0  0  0
  157.9550  214.1980  155.8450 C   0  0  0  0  0  2  0  0  0  0  0  0
  157.4140  209.8860  156.4800 C   0  0  0  0  0  2  0  0  0  0  0  0
  159.3300  212.5110  151.3830 C   0  0  0  0  0  3  0  0  0  0  0  0
  159.9780  213.8160  156.4660 C   0  0  0  0  0  2  0  0  0  0  0  0
  161.9070  208.1750  154.8110 C   0  0  0  0  0  2  0  0  0  0  0  0
  159.7960  211.7550  152.4670 C   0  0  0  0  0  0  0  0  0  0  0  0
  160.3550  209.6120  156.2140 C   0  0  0  0  0  0  0  0  0  0  0  0
  159.4640  213.7210  153.9170 C   0  0  0  0  0  0  0  0  0  0  0  0
  161.3240  209.7260  152.8510 C   0  0  1  0  0  3  0  0  0  0  0  0
  159.3290  214.4530  155.2420 C   0  0  1  0  0  3  0  0  0  0  0  0
  156.7940  210.5680  154.4790 C   0  0  0  0  0  2  0  0  0  0  0  0
  159.8530  209.8730  150.9310 O   0  0  0  0  0  1  0  0  0  0  0  0
  160.9980  207.3360  151.2530 C   0  0  0  0  0  3  0  0  0  0  0  0
  161.0410  207.1930  152.6490 C   0  0  0  0  0  0  0  0  0  0  0  0
  161.0440  205.9120  153.2130 C   0  0  0  0  0  3  0  0  0  0  0  0
  161.0140  203.5440  152.9410 F   0  0  0  0  0  0  0  0  0  0  0  0
  160.9690  204.9280  151.0000 C   0  0  0  0  0  3  0  0  0  0  0  0
  161.0100  204.7820  152.3900 C   0  0  0  0  0  0  0  0  0  0  0  0
  160.9630  206.2050  150.4320 C   0  0  0  0  0  3  0  0  0  0  0  0
  159.8900  207.3690  157.1580 C   0  0  0  0  0  1  0  0  0  0  0  0
  159.7310  208.7800  157.1510 O   0  0  0  0  0  0  0  0  0  0  0  0
  162.5140  209.7230  151.8910 C   0  0  0  0  0  2  0  0  0  0  0  0
  162.3230  209.9500  149.2740 C   0  0  0  0  0  1  0  0  0  0  0  0
  162.3800  211.0840  150.6920 S   0  0  0  0  0  0  0  0  0  0  0  0
  1  4  1  0  0  0  0
  1 20  2  0  0  0  0
  2 14  1  6  0  0  0
  2  9  1  0  0  0  0
  3 25  1  6  0  0  0
  3 19  1  0  0  0  0
  3 22  1  0  0  0  0
  4 15  1  1  0  0  0
  4  9  1  0  0  0  0
  5 27  1  6  0  0  0
  5 18  1  0  0  0  0
  6 21  1  0  0  0  0
  7 20  1  0  0  0  0
  8  4  1  0  0  0  0
 10 21  2  0  0  0  0
 10 13  1  0  0  0  0
 11  6  2  0  0  0  0
 12 15  1  0  0  0  0
 13  1  1  0  0  0  0
 16 11  1  0  0  0  0
 16 19  2  0  0  0  0
 17  2  1  0  0  0  0
 18  7  1  0  0  0  0
 19 10  1  0  0  0  0
 20 34  1  0  0  0  0
 21 23  1  0  0  0  0
 22 35  1  6  0  0  0
 22  5  1  0  0  0  0
 23 14  1  1  0  0  0
 23 17  1  0  0  0  0
 24  8  1  0  0  0  0
 24 12  1  0  0  0  0
 26 27  1  0  0  0  0
 27 28  2  0  0  0  0
 30 31  2  0  0  0  0
 31 29  1  0  0  0  0
 31 28  1  0  0  0  0
 32 30  1  0  0  0  0
 32 26  2  0  0  0  0
 34 33  1  0  0  0  0
 36 37  1  0  0  0  0
 37 35  1  0  0  0  0
M  END
>  <MODEL>
2

>  <REMARK>
 VINA RESULT:      -0.5      0.812      1.129
  Name = 
  4 active torsions:
  status: ('A' for Active; 'I' for Inactive)
    1  A    between atoms: C_6  and  C_7
    2  A    between atoms: C_14  and  C_31
    3  A    between atoms: C_14  and  S_37
    4  A    between atoms: C_29  and  O_33
                            x       y       z     vdW  Elec       q    Type
                         _______ _______ _______ _____ _____    ______ ____

>  <TORSDO>
F 4

$$$$
