=
 OpenBabel11062407523D

 34 39  0  0  1  0  0  0  0  0999 V2000
  160.6910  209.1700  153.9280 C   0  0  0  0  0  0  0  0  0  0  0  0
  161.2680  206.9440  153.1510 C   0  0  0  0  0  3  0  0  0  0  0  0
  161.5070  208.8680  151.6370 C   0  0  0  0  0  0  0  0  0  0  0  0
  162.6940  208.6750  149.3970 N   0  0  1  0  0  0  0  0  0  0  0  0
  160.4390  207.2650  155.4020 C   0  0  0  0  0  3  0  0  0  0  0  0
  160.9110  206.4200  154.3960 C   0  0  0  0  0  3  0  0  0  0  0  0
  161.0420  207.0850  149.8820 C   0  0  0  0  0  0  0  0  0  0  0  0
  161.1530  208.3200  152.8940 C   0  0  0  0  0  0  0  0  0  0  0  0
  162.5020  207.7860  148.2360 C   0  0  0  0  0  2  0  0  0  0  0  0
  160.3320  208.6380  155.1700 C   0  0  0  0  0  3  0  0  0  0  0  0
  161.4290  210.2670  151.4480 C   0  0  0  0  0  0  0  0  0  0  0  0
  160.6150  210.5450  153.7230 C   0  0  0  0  0  3  0  0  0  0  0  0
  160.1040  206.4730  150.4570 O   0  0  0  0  0  0  0  0  0  0  0  0
  161.9620  209.8920  149.0370 C   0  0  0  0  0  2  0  0  0  0  0  0
  161.9550  210.8940  150.1810 C   0  0  1  0  0  3  0  0  0  0  0  0
  161.3500  206.9480  148.5180 N   0  0  0  0  0  0  0  0  0  0  0  0
  162.0320  207.9730  150.5240 C   0  0  2  0  0  3  0  0  0  0  0  0
  160.9970  211.0880  152.4990 C   0  0  0  0  0  3  0  0  0  0  0  0
  159.4760  213.7910  150.1740 C   0  0  0  0  0  0  0  0  0  0  0  0
  159.8110  214.4240  148.9730 C   0  0  0  0  0  3  0  0  0  0  0  0
  161.1950  212.1230  149.7720 C   0  0  0  0  0  0  0  0  0  0  0  0
  160.8350  213.9100  148.1730 C   0  0  0  0  0  3  0  0  0  0  0  0
  160.1660  212.6430  150.5740 C   0  0  0  0  0  3  0  0  0  0  0  0
  161.5260  212.7620  148.5720 C   0  0  0  0  0  3  0  0  0  0  0  0
  158.4850  214.2890  150.9490 F   0  0  0  0  0  0  0  0  0  0  0  0
  160.7530  206.0060  147.5830 C   0  0  0  0  0  2  0  0  0  0  0  0
  161.6640  205.7480  146.4770 N   0  0  0  0  0  2  0  0  0  0  0  0
  161.7030  204.5190  144.1300 F   0  0  0  0  0  0  0  0  0  0  0  0
  162.0370  204.3410  146.5300 C   0  0  2  0  0  3  0  0  0  0  0  0
  161.7240  203.6350  145.1960 C   0  0  1  0  0  3  0  0  0  0  0  0
  160.7610  201.7980  146.0600 C   0  0  0  0  0  2  0  0  0  0  0  0
  161.1740  202.1580  147.4990 C   0  0  0  0  0  2  0  0  0  0  0  0
  161.2980  203.6710  147.6950 C   0  0  0  0  0  2  0  0  0  0  0  0
  160.5060  202.9390  145.2740 O   0  0  0  0  0  0  0  0  0  0  0  0
  1 10  2  0  0  0  0
  2  6  1  0  0  0  0
  3  8  1  0  0  0  0
  4  9  1  6  0  0  0
  4 17  1  0  0  0  0
  6  5  2  0  0  0  0
  7 13  2  0  0  0  0
  8  2  2  0  0  0  0
  8  1  1  0  0  0  0
  9 16  1  0  0  0  0
 10  5  1  0  0  0  0
 11  3  2  0  0  0  0
 11 18  1  0  0  0  0
 12  1  1  0  0  0  0
 14  4  1  0  0  0  0
 14 15  1  0  0  0  0
 15 21  1  6  0  0  0
 15 11  1  0  0  0  0
 16  7  1  0  0  0  0
 17  7  1  6  0  0  0
 17  3  1  0  0  0  0
 18 12  2  0  0  0  0
 19 23  1  0  0  0  0
 19 25  1  0  0  0  0
 20 19  2  0  0  0  0
 21 23  2  0  0  0  0
 22 24  2  0  0  0  0
 22 20  1  0  0  0  0
 24 21  1  0  0  0  0
 26 16  1  0  0  0  0
 27 26  1  0  0  0  0
 29 27  1  6  0  0  0
 29 33  1  0  0  0  0
 30 28  1  6  0  0  0
 30 34  1  0  0  0  0
 30 29  1  0  0  0  0
 31 32  1  0  0  0  0
 32 33  1  0  0  0  0
 34 31  1  0  0  0  0
M  END
>  <MODEL>
1

>  <REMARK>
 VINA RESULT:      -8.7      0.000      0.000
  Name = 
  4 active torsions:
  status: ('A' for Active; 'I' for Inactive)
    1  A    between atoms: N_3  and  C_13
    2  A    between atoms: N_3  and  C_17
    3  A    between atoms: C_12  and  C_28
    4  A    between atoms: C_17  and  N_29
                            x       y       z     vdW  Elec       q    Type
                         _______ _______ _______ _____ _____    ______ ____

>  <TORSDO>
F 4

$$$$
=
 OpenBabel11062407523D

 34 39  0  0  1  0  0  0  0  0999 V2000
  160.7340  209.2040  153.5880 C   0  0  0  0  0  0  0  0  0  0  0  0
  161.3090  206.9390  152.9320 C   0  0  0  0  0  3  0  0  0  0  0  0
  161.5750  208.7830  151.3250 C   0  0  0  0  0  0  0  0  0  0  0  0
  162.7870  208.4710  149.1110 N   0  0  1  0  0  0  0  0  0  0  0  0
  160.4550  207.3780  155.1540 C   0  0  0  0  0  3  0  0  0  0  0  0
  160.9340  206.4810  154.1970 C   0  0  0  0  0  3  0  0  0  0  0  0
  161.1220  206.9160  149.6570 C   0  0  0  0  0  0  0  0  0  0  0  0
  161.2040  208.3010  152.6030 C   0  0  0  0  0  0  0  0  0  0  0  0
  162.6040  207.5260  147.9950 C   0  0  0  0  0  2  0  0  0  0  0  0
  160.3580  208.7380  154.8510 C   0  0  0  0  0  3  0  0  0  0  0  0
  161.5070  210.1710  151.0640 C   0  0  0  0  0  0  0  0  0  0  0  0
  160.6670  210.5680  153.3120 C   0  0  0  0  0  3  0  0  0  0  0  0
  160.1740  206.3370  150.2510 O   0  0  0  0  0  0  0  0  0  0  0  0
  162.0660  209.6720  148.6820 C   0  0  0  0  0  2  0  0  0  0  0  0
  162.0500  210.7300  149.7730 C   0  0  1  0  0  3  0  0  0  0  0  0
  161.4450  206.7080  148.3060 N   0  0  0  0  0  0  0  0  0  0  0  0
  162.1080  207.8300  150.2640 C   0  0  2  0  0  3  0  0  0  0  0  0
  161.0660  211.0460  152.0670 C   0  0  0  0  0  3  0  0  0  0  0  0
  160.5290  213.3910  147.5050 C   0  0  0  0  0  0  0  0  0  0  0  0
  159.8860  214.2040  148.4430 C   0  0  0  0  0  3  0  0  0  0  0  0
  161.3010  211.9410  149.2940 C   0  0  0  0  0  0  0  0  0  0  0  0
  159.9490  213.8880  149.8030 C   0  0  0  0  0  3  0  0  0  0  0  0
  161.2360  212.2610  147.9270 C   0  0  0  0  0  3  0  0  0  0  0  0
  160.6560  212.7590  150.2270 C   0  0  0  0  0  3  0  0  0  0  0  0
  160.4670  213.6970  146.1880 F   0  0  0  0  0  0  0  0  0  0  0  0
  160.8530  205.7230  147.4120 C   0  0  0  0  0  2  0  0  0  0  0  0
  161.7040  204.5440  147.3280 N   0  0  0  0  0  2  0  0  0  0  0  0
  161.3100  203.4970  149.7300 F   0  0  0  0  0  0  0  0  0  0  0  0
  160.8390  203.3720  147.3490 C   0  0  2  0  0  3  0  0  0  0  0  0
  160.9240  202.6470  148.7070 C   0  0  1  0  0  3  0  0  0  0  0  0
  161.1110  200.5560  147.9050 C   0  0  0  0  0  2  0  0  0  0  0  0
  160.8020  200.9930  146.4610 C   0  0  0  0  0  2  0  0  0  0  0  0
  161.2340  202.4380  146.1990 C   0  0  0  0  0  2  0  0  0  0  0  0
  161.7970  201.5490  148.6310 O   0  0  0  0  0  0  0  0  0  0  0  0
  1 10  2  0  0  0  0
  2  6  1  0  0  0  0
  3  8  1  0  0  0  0
  4  9  1  6  0  0  0
  4 17  1  0  0  0  0
  6  5  2  0  0  0  0
  7 13  2  0  0  0  0
  8  2  2  0  0  0  0
  8  1  1  0  0  0  0
  9 16  1  0  0  0  0
 10  5  1  0  0  0  0
 11  3  2  0  0  0  0
 11 18  1  0  0  0  0
 12  1  1  0  0  0  0
 14  4  1  0  0  0  0
 14 15  1  0  0  0  0
 15 21  1  6  0  0  0
 15 11  1  0  0  0  0
 16  7  1  0  0  0  0
 17  7  1  6  0  0  0
 17  3  1  0  0  0  0
 18 12  2  0  0  0  0
 19 23  2  0  0  0  0
 19 20  1  0  0  0  0
 20 22  2  0  0  0  0
 21 24  2  0  0  0  0
 22 24  1  0  0  0  0
 23 21  1  0  0  0  0
 25 19  1  0  0  0  0
 26 16  1  0  0  0  0
 27 26  1  0  0  0  0
 29 27  1  1  0  0  0
 29 30  1  0  0  0  0
 30 28  1  1  0  0  0
 31 34  1  0  0  0  0
 32 31  1  0  0  0  0
 33 32  1  0  0  0  0
 33 29  1  0  0  0  0
 34 30  1  0  0  0  0
M  END
>  <MODEL>
2

>  <REMARK>
 VINA RESULT:      -8.4      1.628      1.966
  Name = 
  4 active torsions:
  status: ('A' for Active; 'I' for Inactive)
    1  A    between atoms: N_3  and  C_13
    2  A    between atoms: N_3  and  C_17
    3  A    between atoms: C_12  and  C_28
    4  A    between atoms: C_17  and  N_29
                            x       y       z     vdW  Elec       q    Type
                         _______ _______ _______ _____ _____    ______ ____

>  <TORSDO>
F 4

$$$$
=
 OpenBabel11062407523D

 34 39  0  0  1  0  0  0  0  0999 V2000
  160.8400  203.7420  150.7280 C   0  0  0  0  0  0  0  0  0  0  0  0
  161.6200  204.6430  148.6140 C   0  0  0  0  0  3  0  0  0  0  0  0
  161.6700  206.0460  150.6350 C   0  0  0  0  0  0  0  0  0  0  0  0
  162.8610  208.2920  150.6810 N   0  0  1  0  0  0  0  0  0  0  0  0
  160.7740  202.3780  148.7280 C   0  0  0  0  0  3  0  0  0  0  0  0
  161.3190  203.4310  147.9890 C   0  0  0  0  0  3  0  0  0  0  0  0
  161.3680  207.8990  148.9190 C   0  0  0  0  0  0  0  0  0  0  0  0
  161.3750  204.8230  149.9860 C   0  0  0  0  0  0  0  0  0  0  0  0
  162.7480  209.5010  149.8460 C   0  0  0  0  0  2  0  0  0  0  0  0
  160.5380  202.5320  150.0960 C   0  0  0  0  0  3  0  0  0  0  0  0
  161.4610  206.1550  152.0280 C   0  0  0  0  0  0  0  0  0  0  0  0
  160.6340  203.8680  152.0990 C   0  0  0  0  0  3  0  0  0  0  0  0
  160.4940  207.3620  148.1890 O   0  0  0  0  0  0  0  0  0  0  0  0
  162.0170  208.5820  151.8420 C   0  0  0  0  0  2  0  0  0  0  0  0
  161.9200  207.3840  152.7730 C   0  0  1  0  0  3  0  0  0  0  0  0
  161.6810  209.2680  148.8880 N   0  0  0  0  0  0  0  0  0  0  0  0
  162.2730  207.2070  149.8570 C   0  0  2  0  0  3  0  0  0  0  0  0
  160.9580  205.0590  152.7450 C   0  0  0  0  0  3  0  0  0  0  0  0
  159.7180  209.3090  155.2180 C   0  0  0  0  0  0  0  0  0  0  0  0
  159.4140  208.3090  156.1460 C   0  0  0  0  0  3  0  0  0  0  0  0
  161.0470  207.7230  153.9460 C   0  0  0  0  0  0  0  0  0  0  0  0
  159.9250  207.0190  155.9770 C   0  0  0  0  0  3  0  0  0  0  0  0
  160.5320  209.0190  154.1190 C   0  0  0  0  0  3  0  0  0  0  0  0
  160.7400  206.7270  154.8800 C   0  0  0  0  0  3  0  0  0  0  0  0
  159.2230  210.5580  155.3820 F   0  0  0  0  0  0  0  0  0  0  0  0
  161.1710  210.2570  147.9490 C   0  0  0  0  0  2  0  0  0  0  0  0
  161.8520  211.5300  148.1370 N   0  0  0  0  0  2  0  0  0  0  0  0
  161.1190  213.6830  149.4940 F   0  0  0  0  0  0  0  0  0  0  0  0
  161.1420  212.5310  147.3540 C   0  0  2  0  0  3  0  0  0  0  0  0
  160.4790  213.5800  148.2700 C   0  0  1  0  0  3  0  0  0  0  0  0
  158.4770  213.6300  147.2490 C   0  0  0  0  0  2  0  0  0  0  0  0
  158.9680  212.7780  146.0640 C   0  0  0  0  0  2  0  0  0  0  0  0
  160.1000  211.8320  146.4720 C   0  0  0  0  0  2  0  0  0  0  0  0
  159.1170  213.2870  148.4570 O   0  0  0  0  0  0  0  0  0  0  0  0
  1 12  1  0  0  0  0
  2  8  1  0  0  0  0
  3 11  2  0  0  0  0
  4  9  1  6  0  0  0
  4 14  1  0  0  0  0
  5 10  2  0  0  0  0
  6  2  2  0  0  0  0
  6  5  1  0  0  0  0
  8  3  1  0  0  0  0
  8  1  2  0  0  0  0
 10  1  1  0  0  0  0
 11 18  1  0  0  0  0
 11 15  1  0  0  0  0
 12 18  2  0  0  0  0
 13  7  2  0  0  0  0
 14 15  1  0  0  0  0
 15 21  1  1  0  0  0
 16  7  1  0  0  0  0
 16  9  1  0  0  0  0
 17  7  1  1  0  0  0
 17  3  1  0  0  0  0
 17  4  1  0  0  0  0
 19 25  1  0  0  0  0
 19 20  1  0  0  0  0
 21 23  1  0  0  0  0
 21 24  2  0  0  0  0
 22 20  2  0  0  0  0
 23 19  2  0  0  0  0
 24 22  1  0  0  0  0
 26 27  1  0  0  0  0
 26 16  1  0  0  0  0
 29 27  1  1  0  0  0
 29 30  1  0  0  0  0
 30 34  1  0  0  0  0
 30 28  1  1  0  0  0
 31 34  1  0  0  0  0
 32 33  1  0  0  0  0
 32 31  1  0  0  0  0
 33 29  1  0  0  0  0
M  END
>  <MODEL>
3

>  <REMARK>
 VINA RESULT:      -8.3      2.718      6.960
  Name = 
  4 active torsions:
  status: ('A' for Active; 'I' for Inactive)
    1  A    between atoms: N_3  and  C_13
    2  A    between atoms: N_3  and  C_17
    3  A    between atoms: C_12  and  C_28
    4  A    between atoms: C_17  and  N_29
                            x       y       z     vdW  Elec       q    Type
                         _______ _______ _______ _____ _____    ______ ____

>  <TORSDO>
F 4

$$$$
=
 OpenBabel11062407523D

 34 39  0  0  1  0  0  0  0  0999 V2000
  160.7530  209.2610  153.8170 C   0  0  0  0  0  0  0  0  0  0  0  0
  161.2730  206.9260  153.4060 C   0  0  0  0  0  3  0  0  0  0  0  0
  161.6080  208.5860  151.6220 C   0  0  0  0  0  0  0  0  0  0  0  0
  162.8370  208.0140  149.4700 N   0  0  1  0  0  0  0  0  0  0  0  0
  160.4060  207.6150  155.5590 C   0  0  0  0  0  3  0  0  0  0  0  0
  160.8710  206.6110  154.7070 C   0  0  0  0  0  3  0  0  0  0  0  0
  161.1230  206.5680  150.1490 C   0  0  0  0  0  0  0  0  0  0  0  0
  161.2100  208.2490  152.9370 C   0  0  0  0  0  0  0  0  0  0  0  0
  162.6410  206.9640  148.4550 C   0  0  0  0  0  2  0  0  0  0  0  0
  160.3500  208.9380  155.1160 C   0  0  0  0  0  3  0  0  0  0  0  0
  161.5820  209.9400  151.2180 C   0  0  0  0  0  0  0  0  0  0  0  0
  160.7280  210.5900  153.4010 C   0  0  0  0  0  3  0  0  0  0  0  0
  160.1530  206.0800  150.7860 O   0  0  0  0  0  0  0  0  0  0  0  0
  162.1540  209.1830  148.9090 C   0  0  0  0  0  2  0  0  0  0  0  0
  162.1550  210.3490  149.8840 C   0  0  1  0  0  3  0  0  0  0  0  0
  161.4560  206.2130  148.8320 N   0  0  0  0  0  0  0  0  0  0  0  0
  162.1280  207.5150  150.6730 C   0  0  2  0  0  3  0  0  0  0  0  0
  161.1540  210.9270  152.1190 C   0  0  0  0  0  3  0  0  0  0  0  0
  160.7890  212.8330  147.3350 C   0  0  0  0  0  0  0  0  0  0  0  0
  160.1020  213.7200  148.1700 C   0  0  0  0  0  3  0  0  0  0  0  0
  161.4460  211.5220  149.2710 C   0  0  0  0  0  0  0  0  0  0  0  0
  160.0860  213.5100  149.5520 C   0  0  0  0  0  3  0  0  0  0  0  0
  161.4600  211.7360  147.8830 C   0  0  0  0  0  3  0  0  0  0  0  0
  160.7570  212.4130  150.1010 C   0  0  0  0  0  3  0  0  0  0  0  0
  160.8020  213.0360  145.9970 F   0  0  0  0  0  0  0  0  0  0  0  0
  160.8480  205.1570  148.0360 C   0  0  0  0  0  2  0  0  0  0  0  0
  161.8310  204.1260  147.7320 N   0  0  0  0  0  2  0  0  0  0  0  0
  164.0320  204.8100  146.4270 F   0  0  0  0  0  0  0  0  0  0  0  0
  161.7890  203.8850  146.2960 C   0  0  2  0  0  3  0  0  0  0  0  0
  162.9560  204.5970  145.5820 C   0  0  1  0  0  3  0  0  0  0  0  0
  161.7660  205.4710  143.8880 C   0  0  0  0  0  2  0  0  0  0  0  0
  160.5030  204.6680  144.2510 C   0  0  0  0  0  2  0  0  0  0  0  0
  160.4360  204.3570  145.7490 C   0  0  0  0  0  2  0  0  0  0  0  0
  162.5280  205.8120  145.0220 O   0  0  0  0  0  0  0  0  0  0  0  0
  1 10  2  0  0  0  0
  2  6  1  0  0  0  0
  3  8  1  0  0  0  0
  4  9  1  6  0  0  0
  4 17  1  0  0  0  0
  6  5  2  0  0  0  0
  7 13  2  0  0  0  0
  8  2  2  0  0  0  0
  8  1  1  0  0  0  0
  9 16  1  0  0  0  0
 10  5  1  0  0  0  0
 11  3  2  0  0  0  0
 11 18  1  0  0  0  0
 12  1  1  0  0  0  0
 14  4  1  0  0  0  0
 14 15  1  0  0  0  0
 15 21  1  6  0  0  0
 15 11  1  0  0  0  0
 16  7  1  0  0  0  0
 17  7  1  6  0  0  0
 17  3  1  0  0  0  0
 18 12  2  0  0  0  0
 19 23  2  0  0  0  0
 19 20  1  0  0  0  0
 20 22  2  0  0  0  0
 21 24  2  0  0  0  0
 22 24  1  0  0  0  0
 23 21  1  0  0  0  0
 25 19  1  0  0  0  0
 26 16  1  0  0  0  0
 27 26  1  0  0  0  0
 29 27  1  1  0  0  0
 30 29  1  0  0  0  0
 30 28  1  1  0  0  0
 31 32  1  0  0  0  0
 31 34  1  0  0  0  0
 32 33  1  0  0  0  0
 33 29  1  0  0  0  0
 34 30  1  0  0  0  0
M  END
>  <MODEL>
4

>  <REMARK>
 VINA RESULT:      -8.2      1.571      2.007
  Name = 
  4 active torsions:
  status: ('A' for Active; 'I' for Inactive)
    1  A    between atoms: N_3  and  C_13
    2  A    between atoms: N_3  and  C_17
    3  A    between atoms: C_12  and  C_28
    4  A    between atoms: C_17  and  N_29
                            x       y       z     vdW  Elec       q    Type
                         _______ _______ _______ _____ _____    ______ ____

>  <TORSDO>
F 4

$$$$
=
 OpenBabel11062407523D

 34 39  0  0  1  0  0  0  0  0999 V2000
  160.1190  209.9160  155.7050 C   0  0  0  0  0  0  0  0  0  0  0  0
  161.3460  207.9380  155.0200 C   0  0  0  0  0  3  0  0  0  0  0  0
  161.0050  209.7790  153.4240 C   0  0  0  0  0  0  0  0  0  0  0  0
  162.2120  209.8580  151.1870 N   0  0  1  0  0  0  0  0  0  0  0  0
  160.4420  208.0880  157.2600 C   0  0  0  0  0  3  0  0  0  0  0  0
  161.1540  207.3830  156.2880 C   0  0  0  0  0  3  0  0  0  0  0  0
  161.1120  207.8660  151.7490 C   0  0  0  0  0  0  0  0  0  0  0  0
  160.8240  209.2030  154.7050 C   0  0  0  0  0  0  0  0  0  0  0  0
  162.3050  208.9050  150.0670 C   0  0  0  0  0  2  0  0  0  0  0  0
  159.9280  209.3540  156.9710 C   0  0  0  0  0  3  0  0  0  0  0  0
  160.5110  211.0790  153.1770 C   0  0  0  0  0  0  0  0  0  0  0  0
  159.6330  211.1950  155.4420 C   0  0  0  0  0  3  0  0  0  0  0  0
  160.3980  207.0240  152.3550 O   0  0  0  0  0  0  0  0  0  0  0  0
  161.1500  210.7810  150.7810 C   0  0  0  0  0  2  0  0  0  0  0  0
  160.8320  211.7820  151.8810 C   0  0  1  0  0  3  0  0  0  0  0  0
  161.4580  207.7710  150.3910 N   0  0  0  0  0  0  0  0  0  0  0  0
  161.7840  209.0370  152.3470 C   0  0  2  0  0  3  0  0  0  0  0  0
  159.8430  211.7760  154.1950 C   0  0  0  0  0  3  0  0  0  0  0  0
  157.5160  213.6520  151.6670 C   0  0  0  0  0  0  0  0  0  0  0  0
  157.7350  214.4530  150.5420 C   0  0  0  0  0  3  0  0  0  0  0  0
  159.7400  212.7060  151.4250 C   0  0  0  0  0  0  0  0  0  0  0  0
  158.9520  214.3810  149.8590 C   0  0  0  0  0  3  0  0  0  0  0  0
  158.5160  212.7800  152.1090 C   0  0  0  0  0  3  0  0  0  0  0  0
  159.9520  213.5100  150.2990 C   0  0  0  0  0  3  0  0  0  0  0  0
  156.3380  213.7220  152.3300 F   0  0  0  0  0  0  0  0  0  0  0  0
  161.1790  206.6540  149.5000 C   0  0  0  0  0  2  0  0  0  0  0  0
  161.7380  205.4240  150.0430 N   0  0  0  0  0  2  0  0  0  0  0  0
  160.9570  204.1310  152.2190 F   0  0  0  0  0  0  0  0  0  0  0  0
  160.7750  204.3580  149.8060 C   0  0  2  0  0  3  0  0  0  0  0  0
  160.6250  203.4620  151.0520 C   0  0  1  0  0  3  0  0  0  0  0  0
  160.7190  201.4810  149.9960 C   0  0  0  0  0  2  0  0  0  0  0  0
  160.6330  202.1270  148.6010 C   0  0  0  0  0  2  0  0  0  0  0  0
  161.2230  203.5390  148.5890 C   0  0  0  0  0  2  0  0  0  0  0  0
  161.3980  202.2960  150.9230 O   0  0  0  0  0  0  0  0  0  0  0  0
  1 10  2  0  0  0  0
  2  6  1  0  0  0  0
  3  8  1  0  0  0  0
  4  9  1  6  0  0  0
  4 17  1  0  0  0  0
  6  5  2  0  0  0  0
  7 13  2  0  0  0  0
  8  2  2  0  0  0  0
  8  1  1  0  0  0  0
  9 16  1  0  0  0  0
 10  5  1  0  0  0  0
 11  3  2  0  0  0  0
 11 18  1  0  0  0  0
 12  1  1  0  0  0  0
 14  4  1  0  0  0  0
 14 15  1  0  0  0  0
 15 21  1  6  0  0  0
 15 11  1  0  0  0  0
 16  7  1  0  0  0  0
 17  7  1  6  0  0  0
 17  3  1  0  0  0  0
 18 12  2  0  0  0  0
 19 23  1  0  0  0  0
 19 25  1  0  0  0  0
 20 19  2  0  0  0  0
 21 23  2  0  0  0  0
 22 24  2  0  0  0  0
 22 20  1  0  0  0  0
 24 21  1  0  0  0  0
 26 27  1  0  0  0  0
 26 16  1  0  0  0  0
 29 27  1  1  0  0  0
 29 30  1  0  0  0  0
 30 28  1  1  0  0  0
 31 34  1  0  0  0  0
 32 31  1  0  0  0  0
 33 32  1  0  0  0  0
 33 29  1  0  0  0  0
 34 30  1  0  0  0  0
M  END
>  <MODEL>
5

>  <REMARK>
 VINA RESULT:      -7.9      2.423      2.988
  Name = 
  4 active torsions:
  status: ('A' for Active; 'I' for Inactive)
    1  A    between atoms: N_3  and  C_13
    2  A    between atoms: N_3  and  C_17
    3  A    between atoms: C_12  and  C_28
    4  A    between atoms: C_17  and  N_29
                            x       y       z     vdW  Elec       q    Type
                         _______ _______ _______ _____ _____    ______ ____

>  <TORSDO>
F 4

$$$$
=
 OpenBabel11062407523D

 34 39  0  0  1  0  0  0  0  0999 V2000
  161.8020  210.5270  148.9280 C   0  0  0  0  0  0  0  0  0  0  0  0
  161.2480  212.3060  150.4830 C   0  0  0  0  0  3  0  0  0  0  0  0
  161.4600  209.9930  151.2950 C   0  0  0  0  0  0  0  0  0  0  0  0
  161.4900  209.4390  153.7770 N   0  0  1  0  0  0  0  0  0  0  0  0
  161.5680  212.8030  148.1360 C   0  0  0  0  0  3  0  0  0  0  0  0
  161.2810  213.2290  149.4350 C   0  0  0  0  0  3  0  0  0  0  0  0
  159.7630  210.8180  153.0020 C   0  0  0  0  0  0  0  0  0  0  0  0
  161.4940  210.9430  150.2460 C   0  0  0  0  0  0  0  0  0  0  0  0
  160.5610  209.7400  154.8810 C   0  0  0  0  0  2  0  0  0  0  0  0
  161.8320  211.4550  147.8840 C   0  0  0  0  0  3  0  0  0  0  0  0
  161.7750  208.6440  151.0150 C   0  0  0  0  0  0  0  0  0  0  0  0
  162.1040  209.1920  148.6680 C   0  0  0  0  0  3  0  0  0  0  0  0
  158.9980  211.4620  152.2350 O   0  0  0  0  0  0  0  0  0  0  0  0
  161.1190  208.0850  153.3590 C   0  0  0  0  0  2  0  0  0  0  0  0
  161.9080  207.6450  152.1360 C   0  0  1  0  0  3  0  0  0  0  0  0
  159.4220  210.4360  154.3090 N   0  0  0  0  0  0  0  0  0  0  0  0
  161.1590  210.4280  152.7230 C   0  0  2  0  0  3  0  0  0  0  0  0
  162.1060  208.2640  149.7060 C   0  0  0  0  0  3  0  0  0  0  0  0
  160.8820  204.6200  150.0540 C   0  0  0  0  0  0  0  0  0  0  0  0
  160.7380  203.6490  151.0500 C   0  0  0  0  0  3  0  0  0  0  0  0
  161.4960  206.2550  151.7410 C   0  0  0  0  0  0  0  0  0  0  0  0
  160.9720  203.9780  152.3870 C   0  0  0  0  0  3  0  0  0  0  0  0
  161.2610  205.9210  150.3970 C   0  0  0  0  0  3  0  0  0  0  0  0
  161.3500  205.2790  152.7330 C   0  0  0  0  0  3  0  0  0  0  0  0
  160.6570  204.3000  148.7580 F   0  0  0  0  0  0  0  0  0  0  0  0
  158.2210  210.8150  155.0410 C   0  0  0  0  0  2  0  0  0  0  0  0
  158.4560  212.0390  155.7940 N   0  0  0  0  0  2  0  0  0  0  0  0
  158.1630  214.2370  157.2430 F   0  0  0  0  0  0  0  0  0  0  0  0
  157.7210  213.1110  155.1360 C   0  0  2  0  0  3  0  0  0  0  0  0
  157.3210  214.2060  156.1440 C   0  0  1  0  0  3  0  0  0  0  0  0
  155.1910  214.4530  155.4720 C   0  0  0  0  0  2  0  0  0  0  0  0
  155.3940  213.5710  154.2260 C   0  0  0  0  0  2  0  0  0  0  0  0
  156.4860  212.5200  154.4450 C   0  0  0  0  0  2  0  0  0  0  0  0
  155.9880  214.0400  156.5570 O   0  0  0  0  0  0  0  0  0  0  0  0
  1  8  1  0  0  0  0
  4 14  1  6  0  0  0
  4  9  1  0  0  0  0
  5  6  1  0  0  0  0
  6  2  2  0  0  0  0
  7 16  1  0  0  0  0
  8  2  1  0  0  0  0
  8  3  2  0  0  0  0
 10  5  2  0  0  0  0
 10  1  1  0  0  0  0
 11  3  1  0  0  0  0
 11 15  1  0  0  0  0
 12  1  2  0  0  0  0
 12 18  1  0  0  0  0
 13  7  2  0  0  0  0
 15 21  1  6  0  0  0
 15 14  1  0  0  0  0
 16  9  1  0  0  0  0
 16 26  1  0  0  0  0
 17  3  1  6  0  0  0
 17  7  1  0  0  0  0
 17  4  1  0  0  0  0
 18 11  2  0  0  0  0
 19 23  2  0  0  0  0
 19 20  1  0  0  0  0
 20 22  2  0  0  0  0
 21 24  2  0  0  0  0
 22 24  1  0  0  0  0
 23 21  1  0  0  0  0
 25 19  1  0  0  0  0
 26 27  1  0  0  0  0
 29 27  1  1  0  0  0
 29 30  1  0  0  0  0
 30 34  1  0  0  0  0
 30 28  1  1  0  0  0
 31 34  1  0  0  0  0
 32 33  1  0  0  0  0
 32 31  1  0  0  0  0
 33 29  1  0  0  0  0
M  END
>  <MODEL>
6

>  <REMARK>
 VINA RESULT:      -7.8      3.965      9.382
  Name = 
  4 active torsions:
  status: ('A' for Active; 'I' for Inactive)
    1  A    between atoms: N_3  and  C_13
    2  A    between atoms: N_3  and  C_17
    3  A    between atoms: C_12  and  C_28
    4  A    between atoms: C_17  and  N_29
                            x       y       z     vdW  Elec       q    Type
                         _______ _______ _______ _____ _____    ______ ____

>  <TORSDO>
F 4

$$$$
=
 OpenBabel11062407523D

 34 39  0  0  1  0  0  0  0  0999 V2000
  161.9460  208.9140  148.9270 C   0  0  0  0  0  0  0  0  0  0  0  0
  161.9500  210.1520  151.0150 C   0  0  0  0  0  3  0  0  0  0  0  0
  161.9130  207.6920  151.0510 C   0  0  0  0  0  0  0  0  0  0  0  0
  162.2570  206.3760  153.2000 N   0  0  1  0  0  0  0  0  0  0  0  0
  161.9610  211.3350  148.9040 C   0  0  0  0  0  3  0  0  0  0  0  0
  161.9620  211.3520  150.3000 C   0  0  0  0  0  3  0  0  0  0  0  0
  160.6740  208.1030  153.2350 C   0  0  0  0  0  0  0  0  0  0  0  0
  161.9300  208.9180  150.3430 C   0  0  0  0  0  0  0  0  0  0  0  0
  161.5810  206.4050  154.5100 C   0  0  0  0  0  2  0  0  0  0  0  0
  161.9560  210.1180  148.2180 C   0  0  0  0  0  3  0  0  0  0  0  0
  161.9540  206.4780  150.3300 C   0  0  0  0  0  0  0  0  0  0  0  0
  161.9800  207.7080  148.2310 C   0  0  0  0  0  3  0  0  0  0  0  0
  159.9100  209.0330  152.8650 O   0  0  0  0  0  0  0  0  0  0  0  0
  161.6060  205.2730  152.4890 C   0  0  0  0  0  2  0  0  0  0  0  0
  162.1040  205.1650  151.0560 C   0  0  1  0  0  3  0  0  0  0  0  0
  160.4930  207.3610  154.4150 N   0  0  0  0  0  0  0  0  0  0  0  0
  161.9230  207.6790  152.5740 C   0  0  2  0  0  3  0  0  0  0  0  0
  162.0000  206.5030  148.9280 C   0  0  0  0  0  3  0  0  0  0  0  0
  160.7970  202.8230  148.3460 C   0  0  0  0  0  0  0  0  0  0  0  0
  160.1150  201.8770  149.1190 C   0  0  0  0  0  3  0  0  0  0  0  0
  161.4120  204.0250  150.3650 C   0  0  0  0  0  0  0  0  0  0  0  0
  160.0810  202.0040  150.5100 C   0  0  0  0  0  3  0  0  0  0  0  0
  161.4450  203.8950  148.9670 C   0  0  0  0  0  3  0  0  0  0  0  0
  160.7280  203.0760  151.1320 C   0  0  0  0  0  3  0  0  0  0  0  0
  160.8310  202.6990  146.9990 F   0  0  0  0  0  0  0  0  0  0  0  0
  159.5060  207.6110  155.4550 C   0  0  0  0  0  2  0  0  0  0  0  0
  160.0910  208.4060  156.5250 N   0  0  0  0  0  2  0  0  0  0  0  0
  162.3430  209.5790  155.7690 F   0  0  0  0  0  0  0  0  0  0  0  0
  159.9560  209.8090  156.1580 C   0  0  2  0  0  3  0  0  0  0  0  0
  161.3360  210.4870  156.0480 C   0  0  1  0  0  3  0  0  0  0  0  0
  160.8310  212.3560  157.1890 C   0  0  0  0  0  2  0  0  0  0  0  0
  159.3280  212.0250  157.2290 C   0  0  0  0  0  2  0  0  0  0  0  0
  159.0750  210.5150  157.1970 C   0  0  0  0  0  2  0  0  0  0  0  0
  161.6350  211.2000  157.2210 O   0  0  0  0  0  0  0  0  0  0  0  0
  1  8  1  0  0  0  0
  4 14  1  6  0  0  0
  4  9  1  0  0  0  0
  5  6  1  0  0  0  0
  6  2  2  0  0  0  0
  7 16  1  0  0  0  0
  8  2  1  0  0  0  0
  8  3  2  0  0  0  0
 10  5  2  0  0  0  0
 10  1  1  0  0  0  0
 11  3  1  0  0  0  0
 11 15  1  0  0  0  0
 12  1  2  0  0  0  0
 12 18  1  0  0  0  0
 13  7  2  0  0  0  0
 15 21  1  6  0  0  0
 15 14  1  0  0  0  0
 16  9  1  0  0  0  0
 16 26  1  0  0  0  0
 17  3  1  6  0  0  0
 17  4  1  0  0  0  0
 17  7  1  0  0  0  0
 18 11  2  0  0  0  0
 19 23  2  0  0  0  0
 19 20  1  0  0  0  0
 20 22  2  0  0  0  0
 21 24  2  0  0  0  0
 22 24  1  0  0  0  0
 23 21  1  0  0  0  0
 25 19  1  0  0  0  0
 26 27  1  0  0  0  0
 29 27  1  1  0  0  0
 29 33  1  0  0  0  0
 30 28  1  1  0  0  0
 30 29  1  0  0  0  0
 30 34  1  0  0  0  0
 31 34  1  0  0  0  0
 31 32  1  0  0  0  0
 33 32  1  0  0  0  0
M  END
>  <MODEL>
7

>  <REMARK>
 VINA RESULT:      -7.8      3.307      8.979
  Name = 
  4 active torsions:
  status: ('A' for Active; 'I' for Inactive)
    1  A    between atoms: N_3  and  C_13
    2  A    between atoms: N_3  and  C_17
    3  A    between atoms: C_12  and  C_28
    4  A    between atoms: C_17  and  N_29
                            x       y       z     vdW  Elec       q    Type
                         _______ _______ _______ _____ _____    ______ ____

>  <TORSDO>
F 4

$$$$
=
 OpenBabel11062407523D

 34 39  0  0  1  0  0  0  0  0999 V2000
  161.6780  210.8660  148.9200 C   0  0  0  0  0  0  0  0  0  0  0  0
  161.0980  212.6550  150.4540 C   0  0  0  0  0  3  0  0  0  0  0  0
  161.3620  210.3580  151.2960 C   0  0  0  0  0  0  0  0  0  0  0  0
  161.4180  209.8380  153.7840 N   0  0  1  0  0  0  0  0  0  0  0  0
  161.3940  213.1270  148.0990 C   0  0  0  0  0  3  0  0  0  0  0  0
  161.1070  213.5640  149.3940 C   0  0  0  0  0  3  0  0  0  0  0  0
  159.6590  211.1720  153.0020 C   0  0  0  0  0  0  0  0  0  0  0  0
  161.3700  211.2940  150.2340 C   0  0  0  0  0  0  0  0  0  0  0  0
  160.4900  210.1350  154.8900 C   0  0  0  0  0  2  0  0  0  0  0  0
  161.6830  211.7810  147.8630 C   0  0  0  0  0  3  0  0  0  0  0  0
  161.7010  209.0120  151.0310 C   0  0  0  0  0  0  0  0  0  0  0  0
  162.0040  209.5350  148.6750 C   0  0  0  0  0  3  0  0  0  0  0  0
  158.8770  211.7900  152.2320 O   0  0  0  0  0  0  0  0  0  0  0  0
  161.0710  208.4720  153.3870 C   0  0  0  0  0  2  0  0  0  0  0  0
  161.8620  208.0300  152.1650 C   0  0  1  0  0  3  0  0  0  0  0  0
  159.3330  210.8010  154.3170 N   0  0  0  0  0  0  0  0  0  0  0  0
  161.0600  210.8060  152.7190 C   0  0  2  0  0  3  0  0  0  0  0  0
  162.0310  208.6210  149.7250 C   0  0  0  0  0  3  0  0  0  0  0  0
  160.8220  204.9730  150.1380 C   0  0  0  0  0  0  0  0  0  0  0  0
  160.7670  203.9970  151.1390 C   0  0  0  0  0  3  0  0  0  0  0  0
  161.4750  206.6280  151.7910 C   0  0  0  0  0  0  0  0  0  0  0  0
  161.0640  204.3350  152.4620 C   0  0  0  0  0  3  0  0  0  0  0  0
  161.1760  206.2860  150.4620 C   0  0  0  0  0  3  0  0  0  0  0  0
  161.4170  205.6470  152.7880 C   0  0  0  0  0  3  0  0  0  0  0  0
  160.5360  204.6450  148.8570 F   0  0  0  0  0  0  0  0  0  0  0  0
  158.1300  211.1660  155.0510 C   0  0  0  0  0  2  0  0  0  0  0  0
  156.9880  211.2220  154.1500 N   0  0  0  0  0  2  0  0  0  0  0  0
  156.3300  213.5290  153.0260 F   0  0  0  0  0  0  0  0  0  0  0  0
  155.9250  211.9500  154.8290 C   0  0  2  0  0  3  0  0  0  0  0  0
  155.8310  213.4000  154.3120 C   0  0  1  0  0  3  0  0  0  0  0  0
  155.6630  214.4100  156.3120 C   0  0  0  0  0  2  0  0  0  0  0  0
  155.4880  213.0770  157.0630 C   0  0  0  0  0  2  0  0  0  0  0  0
  156.1830  211.9200  156.3400 C   0  0  0  0  0  2  0  0  0  0  0  0
  156.4930  214.2830  155.1810 O   0  0  0  0  0  0  0  0  0  0  0  0
  1  8  1  0  0  0  0
  4 14  1  6  0  0  0
  4  9  1  0  0  0  0
  5  6  1  0  0  0  0
  6  2  2  0  0  0  0
  7 16  1  0  0  0  0
  8  2  1  0  0  0  0
  8  3  2  0  0  0  0
 10  5  2  0  0  0  0
 10  1  1  0  0  0  0
 11  3  1  0  0  0  0
 11 15  1  0  0  0  0
 12  1  2  0  0  0  0
 12 18  1  0  0  0  0
 13  7  2  0  0  0  0
 15 21  1  6  0  0  0
 15 14  1  0  0  0  0
 16  9  1  0  0  0  0
 16 26  1  0  0  0  0
 17  3  1  6  0  0  0
 17  7  1  0  0  0  0
 17  4  1  0  0  0  0
 18 11  2  0  0  0  0
 19 23  2  0  0  0  0
 19 20  1  0  0  0  0
 20 22  2  0  0  0  0
 21 24  2  0  0  0  0
 22 24  1  0  0  0  0
 23 21  1  0  0  0  0
 25 19  1  0  0  0  0
 27 26  1  0  0  0  0
 29 27  1  6  0  0  0
 29 33  1  0  0  0  0
 30 28  1  6  0  0  0
 30 29  1  0  0  0  0
 30 34  1  0  0  0  0
 31 32  1  0  0  0  0
 33 32  1  0  0  0  0
 34 31  1  0  0  0  0
M  END
>  <MODEL>
8

>  <REMARK>
 VINA RESULT:      -7.5      3.870      9.173
  Name = 
  4 active torsions:
  status: ('A' for Active; 'I' for Inactive)
    1  A    between atoms: N_3  and  C_13
    2  A    between atoms: N_3  and  C_17
    3  A    between atoms: C_12  and  C_28
    4  A    between atoms: C_17  and  N_29
                            x       y       z     vdW  Elec       q    Type
                         _______ _______ _______ _____ _____    ______ ____

>  <TORSDO>
F 4

$$$$
=
 OpenBabel11062407523D

 34 39  0  0  1  0  0  0  0  0999 V2000
  156.6540  210.8480  138.8740 C   0  0  0  0  0  0  0  0  0  0  0  0
  156.9330  213.0760  139.7960 C   0  0  0  0  0  3  0  0  0  0  0  0
  158.9130  211.7220  139.2490 C   0  0  0  0  0  0  0  0  0  0  0  0
  161.2580  212.7060  139.2600 N   0  0  1  0  0  0  0  0  0  0  0  0
  154.7130  212.1820  139.4370 C   0  0  0  0  0  3  0  0  0  0  0  0
  155.5450  213.2210  139.8590 C   0  0  0  0  0  3  0  0  0  0  0  0
  159.9220  213.0830  141.1480 C   0  0  0  0  0  0  0  0  0  0  0  0
  157.5090  211.8880  139.3160 C   0  0  0  0  0  0  0  0  0  0  0  0
  162.0350  213.4280  140.2840 C   0  0  0  0  0  2  0  0  0  0  0  0
  155.2660  210.9990  138.9420 C   0  0  0  0  0  3  0  0  0  0  0  0
  159.4410  210.5310  138.7020 C   0  0  0  0  0  0  0  0  0  0  0  0
  157.1920  209.6780  138.3440 C   0  0  0  0  0  3  0  0  0  0  0  0
  158.9660  213.0330  141.9650 O   0  0  0  0  0  0  0  0  0  0  0  0
  161.7120  211.3190  139.3810 C   0  0  0  0  0  2  0  0  0  0  0  0
  160.9250  210.3940  138.4660 C   0  0  1  0  0  3  0  0  0  0  0  0
  161.2280  213.4700  141.4900 N   0  0  0  0  0  0  0  0  0  0  0  0
  159.8450  212.8400  139.6930 C   0  0  2  0  0  3  0  0  0  0  0  0
  158.5730  209.5300  138.2440 C   0  0  0  0  0  3  0  0  0  0  0  0
  161.9570  207.0630  140.0050 C   0  0  0  0  0  0  0  0  0  0  0  0
  162.3430  206.3510  138.8640 C   0  0  0  0  0  3  0  0  0  0  0  0
  161.4200  208.9850  138.6220 C   0  0  0  0  0  0  0  0  0  0  0  0
  162.2690  206.9540  137.6060 C   0  0  0  0  0  3  0  0  0  0  0  0
  161.4960  208.3770  139.8860 C   0  0  0  0  0  3  0  0  0  0  0  0
  161.8090  208.2680  137.4850 C   0  0  0  0  0  3  0  0  0  0  0  0
  162.0280  206.4780  141.2240 F   0  0  0  0  0  0  0  0  0  0  0  0
  161.6700  213.9960  142.7740 C   0  0  0  0  0  2  0  0  0  0  0  0
  161.6330  212.9500  143.7870 N   0  0  0  0  0  2  0  0  0  0  0  0
  163.0800  214.0680  145.7040 F   0  0  0  0  0  0  0  0  0  0  0  0
  160.8640  213.4550  144.9150 C   0  0  2  0  0  3  0  0  0  0  0  0
  161.7850  213.7870  146.1070 C   0  0  1  0  0  3  0  0  0  0  0  0
  160.5450  212.8150  147.7090 C   0  0  0  0  0  2  0  0  0  0  0  0
  159.3550  212.5790  146.7610 C   0  0  0  0  0  2  0  0  0  0  0  0
  159.8080  212.4150  145.3070 C   0  0  0  0  0  2  0  0  0  0  0  0
  161.7840  212.7390  147.0430 O   0  0  0  0  0  0  0  0  0  0  0  0
  1 10  2  0  0  0  0
  1  8  1  0  0  0  0
  2  6  1  0  0  0  0
  3  8  1  0  0  0  0
  4 14  1  1  0  0  0
  4 17  1  0  0  0  0
  4  9  1  0  0  0  0
  5  6  2  0  0  0  0
  7 16  1  0  0  0  0
  7 13  2  0  0  0  0
  8  2  2  0  0  0  0
  9 16  1  0  0  0  0
 10  5  1  0  0  0  0
 11  3  2  0  0  0  0
 12  1  1  0  0  0  0
 15 21  1  1  0  0  0
 15 11  1  0  0  0  0
 15 14  1  0  0  0  0
 16 26  1  0  0  0  0
 17  3  1  1  0  0  0
 17  7  1  0  0  0  0
 18 12  2  0  0  0  0
 18 11  1  0  0  0  0
 19 25  1  0  0  0  0
 20 19  2  0  0  0  0
 21 23  2  0  0  0  0
 22 20  1  0  0  0  0
 23 19  1  0  0  0  0
 24 22  2  0  0  0  0
 24 21  1  0  0  0  0
 26 27  1  0  0  0  0
 29 27  1  6  0  0  0
 29 33  1  0  0  0  0
 29 30  1  0  0  0  0
 30 28  1  6  0  0  0
 30 34  1  0  0  0  0
 32 31  1  0  0  0  0
 33 32  1  0  0  0  0
 34 31  1  0  0  0  0
M  END
>  <MODEL>
9

>  <REMARK>
 VINA RESULT:      -7.4      8.167     12.394
  Name = 
  4 active torsions:
  status: ('A' for Active; 'I' for Inactive)
    1  A    between atoms: N_3  and  C_13
    2  A    between atoms: N_3  and  C_17
    3  A    between atoms: C_12  and  C_28
    4  A    between atoms: C_17  and  N_29
                            x       y       z     vdW  Elec       q    Type
                         _______ _______ _______ _____ _____    ______ ____

>  <TORSDO>
F 4

$$$$
