=
 OpenBabel11052422103D

 25 28  0  0  1  0  0  0  0  0999 V2000
  161.6520  206.4620  148.3640 C   0  0  0  0  0  0  0  0  0  0  0  0
  161.4220  205.6390  149.4860 C   0  0  0  0  0  0  0  0  0  0  0  0
  162.3350  208.2680  149.8440 C   0  0  0  0  0  3  0  0  0  0  0  0
  162.0960  207.4600  150.9560 C   0  0  0  0  0  3  0  0  0  0  0  0
  161.4090  205.2990  151.8790 C   0  0  0  0  0  0  0  0  0  0  0  0
  161.5840  205.7040  153.0590 O   0  0  0  0  0  0  0  0  0  0  0  0
  161.0110  204.3520  149.3340 N   0  0  0  0  0  0  0  0  0  0  0  0
  162.1200  207.7700  148.5570 C   0  0  0  0  0  3  0  0  0  0  0  0
  160.9930  204.0230  151.6640 N   0  0  0  0  0  2  0  0  0  0  0  0
  160.8000  203.5470  150.4060 C   0  0  0  0  0  0  0  0  0  0  0  0
  161.6430  206.1450  150.7860 C   0  0  0  0  0  0  0  0  0  0  0  0
  161.4490  205.9730  146.9850 C   0  0  0  0  0  0  0  0  0  0  0  0
  160.9820  205.0910  144.3600 C   0  0  0  0  0  3  0  0  0  0  0  0
  162.4260  205.2100  146.3050 C   0  0  0  0  0  0  0  0  0  0  0  0
  162.1850  204.7790  144.9970 C   0  0  0  0  0  3  0  0  0  0  0  0
  160.0080  205.8330  145.0320 C   0  0  0  0  0  3  0  0  0  0  0  0
  163.7060  204.8050  146.9560 C   0  0  0  0  0  1  0  0  0  0  0  0
  160.2410  206.2680  146.3380 C   0  0  0  0  0  3  0  0  0  0  0  0
  160.2570  201.8550  150.1620 S   0  0  0  0  0  0  0  0  0  0  0  0
  162.0040  200.0510  146.9950 O   0  0  0  0  0  0  0  0  0  0  0  0
  160.1060  202.1690  147.4030 C   0  0  0  0  0  2  0  0  0  0  0  0
  161.0250  200.3160  146.0190 C   0  0  0  0  0  2  0  0  0  0  0  0
  161.0160  201.6400  148.5130 C   0  0  2  0  0  3  0  0  0  0  0  0
  160.6680  201.8030  146.0330 C   0  0  0  0  0  2  0  0  0  0  0  0
  161.3740  200.1750  148.2470 C   0  0  0  0  0  2  0  0  0  0  0  0
  1  8  2  0  0  0  0
  1  2  1  0  0  0  0
  2 11  2  0  0  0  0
  3  4  2  0  0  0  0
  5  6  2  0  0  0  0
  7  2  1  0  0  0  0
  7 10  2  0  0  0  0
  8  3  1  0  0  0  0
  9  5  1  0  0  0  0
 10  9  1  0  0  0  0
 11  4  1  0  0  0  0
 11  5  1  0  0  0  0
 12  1  1  0  0  0  0
 13 15  2  0  0  0  0
 13 16  1  0  0  0  0
 14 17  1  0  0  0  0
 14 12  2  0  0  0  0
 15 14  1  0  0  0  0
 16 18  2  0  0  0  0
 18 12  1  0  0  0  0
 19 10  1  0  0  0  0
 20 25  1  0  0  0  0
 21 23  1  0  0  0  0
 22 24  1  0  0  0  0
 22 20  1  0  0  0  0
 23 19  1  1  0  0  0
 24 21  1  0  0  0  0
 25 23  1  0  0  0  0
M  END
>  <MODEL>
1

>  <REMARK>
 VINA RESULT:      -7.6      0.000      0.000
  Name = 
  3 active torsions:
  status: ('A' for Active; 'I' for Inactive)
    1  A    between atoms: C_1  and  C_5
    2  A    between atoms: S_6  and  C_15
    3  A    between atoms: S_6  and  C_23
                            x       y       z     vdW  Elec       q    Type
                         _______ _______ _______ _____ _____    ______ ____

>  <TORSDO>
F 3

$$$$
=
 OpenBabel11052422103D

 25 28  0  0  1  0  0  0  0  0999 V2000
  161.0530  204.3260  149.4800 C   0  0  0  0  0  0  0  0  0  0  0  0
  161.1930  205.2060  150.5740 C   0  0  0  0  0  0  0  0  0  0  0  0
  160.7840  202.4670  151.0260 C   0  0  0  0  0  3  0  0  0  0  0  0
  160.9350  203.3340  152.1090 C   0  0  0  0  0  3  0  0  0  0  0  0
  161.2750  205.6060  152.9560 C   0  0  0  0  0  0  0  0  0  0  0  0
  161.2400  205.2060  154.1500 O   0  0  0  0  0  0  0  0  0  0  0  0
  161.3590  206.5410  150.3770 N   0  0  0  0  0  0  0  0  0  0  0  0
  160.8370  202.9620  149.7200 C   0  0  0  0  0  3  0  0  0  0  0  0
  161.4450  206.9290  152.6970 N   0  0  0  0  0  2  0  0  0  0  0  0
  161.4810  207.3980  151.4230 C   0  0  0  0  0  0  0  0  0  0  0  0
  161.1370  204.7020  151.8920 C   0  0  0  0  0  0  0  0  0  0  0  0
  161.0900  204.8080  148.0830 C   0  0  0  0  0  0  0  0  0  0  0  0
  161.1430  205.8120  145.4610 C   0  0  0  0  0  3  0  0  0  0  0  0
  161.4430  203.9650  147.0050 C   0  0  0  0  0  0  0  0  0  0  0  0
  161.4690  204.4750  145.7030 C   0  0  0  0  0  3  0  0  0  0  0  0
  160.7820  206.6450  146.5210 C   0  0  0  0  0  3  0  0  0  0  0  0
  161.7490  202.5170  147.2020 C   0  0  0  0  0  1  0  0  0  0  0  0
  160.7530  206.1440  147.8240 C   0  0  0  0  0  3  0  0  0  0  0  0
  161.7010  209.1530  151.1200 S   0  0  0  0  0  0  0  0  0  0  0  0
  161.3230  210.7580  154.8110 O   0  0  0  0  0  0  0  0  0  0  0  0
  159.7590  210.6760  152.4020 C   0  0  0  0  0  2  0  0  0  0  0  0
  160.4460  211.8160  154.5050 C   0  0  0  0  0  2  0  0  0  0  0  0
  160.9220  209.7200  152.6740 C   0  0  2  0  0  3  0  0  0  0  0  0
  159.2550  211.2860  153.7060 C   0  0  0  0  0  2  0  0  0  0  0  0
  161.9420  210.3830  153.6040 C   0  0  0  0  0  2  0  0  0  0  0  0
  1  8  2  0  0  0  0
  1  2  1  0  0  0  0
  2 11  2  0  0  0  0
  3  4  2  0  0  0  0
  5  6  2  0  0  0  0
  7  2  1  0  0  0  0
  7 10  2  0  0  0  0
  8  3  1  0  0  0  0
  9  5  1  0  0  0  0
 10  9  1  0  0  0  0
 11  4  1  0  0  0  0
 11  5  1  0  0  0  0
 12  1  1  0  0  0  0
 13 15  2  0  0  0  0
 13 16  1  0  0  0  0
 14 17  1  0  0  0  0
 14 12  2  0  0  0  0
 15 14  1  0  0  0  0
 16 18  2  0  0  0  0
 18 12  1  0  0  0  0
 19 10  1  0  0  0  0
 21 23  1  0  0  0  0
 21 24  1  0  0  0  0
 22 20  1  0  0  0  0
 23 19  1  6  0  0  0
 23 25  1  0  0  0  0
 24 22  1  0  0  0  0
 25 20  1  0  0  0  0
M  END
>  <MODEL>
2

>  <REMARK>
 VINA RESULT:      -7.3      3.051      6.493
  Name = 
  3 active torsions:
  status: ('A' for Active; 'I' for Inactive)
    1  A    between atoms: C_1  and  C_5
    2  A    between atoms: S_6  and  C_15
    3  A    between atoms: S_6  and  C_23
                            x       y       z     vdW  Elec       q    Type
                         _______ _______ _______ _____ _____    ______ ____

>  <TORSDO>
F 3

$$$$
=
 OpenBabel11052422103D

 25 28  0  0  1  0  0  0  0  0999 V2000
  161.2280  203.1610  147.9670 C   0  0  0  0  0  0  0  0  0  0  0  0
  161.1990  203.7890  149.2300 C   0  0  0  0  0  0  0  0  0  0  0  0
  160.8470  201.0120  149.0390 C   0  0  0  0  0  3  0  0  0  0  0  0
  160.8310  201.6280  150.2910 C   0  0  0  0  0  3  0  0  0  0  0  0
  160.9750  203.6710  151.6340 C   0  0  0  0  0  0  0  0  0  0  0  0
  160.8110  203.0250  152.7030 O   0  0  0  0  0  0  0  0  0  0  0  0
  161.3360  205.1370  149.3410 N   0  0  0  0  0  0  0  0  0  0  0  0
  161.0390  201.7740  147.8850 C   0  0  0  0  0  3  0  0  0  0  0  0
  161.1230  205.0210  151.6830 N   0  0  0  0  0  2  0  0  0  0  0  0
  161.2950  205.7520  150.5510 C   0  0  0  0  0  0  0  0  0  0  0  0
  161.0030  203.0140  150.3950 C   0  0  0  0  0  0  0  0  0  0  0  0
  161.4160  203.9310  146.7190 C   0  0  0  0  0  0  0  0  0  0  0  0
  161.8300  205.4530  144.3960 C   0  0  0  0  0  3  0  0  0  0  0  0
  160.8980  203.4930  145.4790 C   0  0  0  0  0  0  0  0  0  0  0  0
  161.1120  204.2570  144.3270 C   0  0  0  0  0  3  0  0  0  0  0  0
  162.3320  205.8970  145.6210 C   0  0  0  0  0  3  0  0  0  0  0  0
  160.0810  202.2490  145.3590 C   0  0  0  0  0  1  0  0  0  0  0  0
  162.1230  205.1400  146.7760 C   0  0  0  0  0  3  0  0  0  0  0  0
  161.4810  207.5330  150.6550 S   0  0  0  0  0  0  0  0  0  0  0  0
  161.1840  207.1050  154.6630 O   0  0  0  0  0  0  0  0  0  0  0  0
  160.6370  209.1680  152.7410 C   0  0  0  0  0  2  0  0  0  0  0  0
  161.2720  208.4580  155.0400 C   0  0  0  0  0  2  0  0  0  0  0  0
  160.8310  207.7010  152.3560 C   0  0  2  0  0  3  0  0  0  0  0  0
  160.2850  209.2890  154.2200 C   0  0  0  0  0  2  0  0  0  0  0  0
  161.7390  207.0050  153.3740 C   0  0  0  0  0  2  0  0  0  0  0  0
  1  2  1  0  0  0  0
  2  7  1  0  0  0  0
  2 11  2  0  0  0  0
  3  4  2  0  0  0  0
  4 11  1  0  0  0  0
  5  9  1  0  0  0  0
  5  6  2  0  0  0  0
  7 10  2  0  0  0  0
  8  1  2  0  0  0  0
  8  3  1  0  0  0  0
 10 19  1  0  0  0  0
 10  9  1  0  0  0  0
 11  5  1  0  0  0  0
 12 18  1  0  0  0  0
 12  1  1  0  0  0  0
 13 16  1  0  0  0  0
 14 12  2  0  0  0  0
 15 13  2  0  0  0  0
 15 14  1  0  0  0  0
 16 18  2  0  0  0  0
 17 14  1  0  0  0  0
 20 22  1  0  0  0  0
 21 24  1  0  0  0  0
 23 19  1  6  0  0  0
 23 21  1  0  0  0  0
 23 25  1  0  0  0  0
 24 22  1  0  0  0  0
 25 20  1  0  0  0  0
M  END
>  <MODEL>
3

>  <REMARK>
 VINA RESULT:      -7.2      2.331      5.777
  Name = 
  3 active torsions:
  status: ('A' for Active; 'I' for Inactive)
    1  A    between atoms: C_1  and  C_5
    2  A    between atoms: S_6  and  C_15
    3  A    between atoms: S_6  and  C_23
                            x       y       z     vdW  Elec       q    Type
                         _______ _______ _______ _____ _____    ______ ____

>  <TORSDO>
F 3

$$$$
=
 OpenBabel11052422103D

 25 28  0  0  1  0  0  0  0  0999 V2000
  161.1020  204.4850  151.2970 C   0  0  0  0  0  0  0  0  0  0  0  0
  161.3730  205.8070  150.8850 C   0  0  0  0  0  0  0  0  0  0  0  0
  160.9250  205.2510  153.5990 C   0  0  0  0  0  3  0  0  0  0  0  0
  161.2060  206.5570  153.1960 C   0  0  0  0  0  3  0  0  0  0  0  0
  161.6940  208.1470  151.3990 C   0  0  0  0  0  0  0  0  0  0  0  0
  161.7610  209.1060  152.2140 O   0  0  0  0  0  0  0  0  0  0  0  0
  161.5600  206.1030  149.5720 N   0  0  0  0  0  0  0  0  0  0  0  0
  160.8690  204.2230  152.6540 C   0  0  0  0  0  3  0  0  0  0  0  0
  161.8790  208.3810  150.0730 N   0  0  0  0  0  2  0  0  0  0  0  0
  161.8070  207.3740  149.1630 C   0  0  0  0  0  0  0  0  0  0  0  0
  161.4270  206.8440  151.8430 C   0  0  0  0  0  0  0  0  0  0  0  0
  161.0200  203.3700  150.3300 C   0  0  0  0  0  0  0  0  0  0  0  0
  160.8370  201.3140  148.4270 C   0  0  0  0  0  3  0  0  0  0  0  0
  161.4460  202.0610  150.6530 C   0  0  0  0  0  0  0  0  0  0  0  0
  161.3530  201.0450  149.6970 C   0  0  0  0  0  3  0  0  0  0  0  0
  160.4040  202.6020  148.1080 C   0  0  0  0  0  3  0  0  0  0  0  0
  161.9560  201.7090  152.0110 C   0  0  0  0  0  1  0  0  0  0  0  0
  160.4930  203.6230  149.0560 C   0  0  0  0  0  3  0  0  0  0  0  0
  162.0500  207.7230  147.4210 S   0  0  0  0  0  0  0  0  0  0  0  0
  160.0400  204.9250  145.3060 O   0  0  0  0  0  0  0  0  0  0  0  0
  162.7080  205.2560  146.3190 C   0  0  0  0  0  2  0  0  0  0  0  0
  161.1260  204.3280  144.6370 C   0  0  0  0  0  2  0  0  0  0  0  0
  161.5200  206.0810  146.8150 C   0  0  2  0  0  3  0  0  0  0  0  0
  162.2240  203.9780  145.6410 C   0  0  0  0  0  2  0  0  0  0  0  0
  160.4660  206.2040  145.7110 C   0  0  0  0  0  2  0  0  0  0  0  0
  1  8  1  0  0  0  0
  2  1  2  0  0  0  0
  2 11  1  0  0  0  0
  4  3  1  0  0  0  0
  5 11  1  0  0  0  0
  5  6  2  0  0  0  0
  7  2  1  0  0  0  0
  8  3  2  0  0  0  0
  9  5  1  0  0  0  0
 10  7  2  0  0  0  0
 10  9  1  0  0  0  0
 11  4  2  0  0  0  0
 12 14  1  0  0  0  0
 12  1  1  0  0  0  0
 13 15  1  0  0  0  0
 14 17  1  0  0  0  0
 15 14  2  0  0  0  0
 16 13  2  0  0  0  0
 16 18  1  0  0  0  0
 18 12  2  0  0  0  0
 19 10  1  0  0  0  0
 20 25  1  0  0  0  0
 21 23  1  0  0  0  0
 22 20  1  0  0  0  0
 22 24  1  0  0  0  0
 23 19  1  6  0  0  0
 24 21  1  0  0  0  0
 25 23  1  0  0  0  0
M  END
>  <MODEL>
4

>  <REMARK>
 VINA RESULT:      -6.8      2.357      4.543
  Name = 
  3 active torsions:
  status: ('A' for Active; 'I' for Inactive)
    1  A    between atoms: C_1  and  C_5
    2  A    between atoms: S_6  and  C_15
    3  A    between atoms: S_6  and  C_23
                            x       y       z     vdW  Elec       q    Type
                         _______ _______ _______ _____ _____    ______ ____

>  <TORSDO>
F 3

$$$$
=
 OpenBabel11052422103D

 25 28  0  0  1  0  0  0  0  0999 V2000
  161.1970  206.2200  151.5680 C   0  0  0  0  0  0  0  0  0  0  0  0
  161.4580  207.5920  151.3680 C   0  0  0  0  0  0  0  0  0  0  0  0
  160.8770  206.6390  153.9430 C   0  0  0  0  0  3  0  0  0  0  0  0
  161.1490  207.9950  153.7500 C   0  0  0  0  0  3  0  0  0  0  0  0
  161.6970  209.8360  152.2330 C   0  0  0  0  0  0  0  0  0  0  0  0
  161.6960  210.6670  153.1800 O   0  0  0  0  0  0  0  0  0  0  0  0
  161.7100  208.0790  150.1240 N   0  0  0  0  0  0  0  0  0  0  0  0
  160.8960  205.7590  152.8580 C   0  0  0  0  0  3  0  0  0  0  0  0
  161.9470  210.2640  150.9680 N   0  0  0  0  0  2  0  0  0  0  0  0
  161.9490  209.4000  149.9190 C   0  0  0  0  0  0  0  0  0  0  0  0
  161.4360  208.4780  152.4680 C   0  0  0  0  0  0  0  0  0  0  0  0
  161.1940  205.2570  150.4480 C   0  0  0  0  0  0  0  0  0  0  0  0
  161.2010  203.4990  148.2580 C   0  0  0  0  0  3  0  0  0  0  0  0
  161.1710  203.8590  150.6560 C   0  0  0  0  0  0  0  0  0  0  0  0
  161.1780  202.9920  149.5590 C   0  0  0  0  0  3  0  0  0  0  0  0
  161.2100  204.8790  148.0460 C   0  0  0  0  0  3  0  0  0  0  0  0
  161.0940  203.2650  152.0240 C   0  0  0  0  0  1  0  0  0  0  0  0
  161.2040  205.7520  149.1360 C   0  0  0  0  0  3  0  0  0  0  0  0
  162.2780  210.0020  148.2620 S   0  0  0  0  0  0  0  0  0  0  0  0
  163.0770  213.9650  148.2610 O   0  0  0  0  0  0  0  0  0  0  0  0
  160.7340  212.3100  148.4160 C   0  0  0  0  0  2  0  0  0  0  0  0
  161.8460  214.4400  147.7710 C   0  0  0  0  0  2  0  0  0  0  0  0
  162.1460  211.7800  148.6680 C   0  0  2  0  0  3  0  0  0  0  0  0
  160.6970  213.8260  148.5730 C   0  0  0  0  0  2  0  0  0  0  0  0
  163.1670  212.6110  147.8860 C   0  0  0  0  0  2  0  0  0  0  0  0
  1  8  1  0  0  0  0
  2  1  2  0  0  0  0
  2 11  1  0  0  0  0
  4  3  1  0  0  0  0
  5 11  1  0  0  0  0
  5  6  2  0  0  0  0
  7  2  1  0  0  0  0
  8  3  2  0  0  0  0
  9  5  1  0  0  0  0
 10  7  2  0  0  0  0
 10  9  1  0  0  0  0
 11  4  2  0  0  0  0
 12 14  1  0  0  0  0
 12  1  1  0  0  0  0
 13 15  1  0  0  0  0
 14 17  1  0  0  0  0
 15 14  2  0  0  0  0
 16 13  2  0  0  0  0
 16 18  1  0  0  0  0
 18 12  2  0  0  0  0
 19 10  1  0  0  0  0
 21 24  1  0  0  0  0
 21 23  1  0  0  0  0
 22 20  1  0  0  0  0
 22 24  1  0  0  0  0
 23 19  1  6  0  0  0
 25 20  1  0  0  0  0
 25 23  1  0  0  0  0
M  END
>  <MODEL>
5

>  <REMARK>
 VINA RESULT:      -6.8      4.118      7.325
  Name = 
  3 active torsions:
  status: ('A' for Active; 'I' for Inactive)
    1  A    between atoms: C_1  and  C_5
    2  A    between atoms: S_6  and  C_15
    3  A    between atoms: S_6  and  C_23
                            x       y       z     vdW  Elec       q    Type
                         _______ _______ _______ _____ _____    ______ ____

>  <TORSDO>
F 3

$$$$
=
 OpenBabel11052422103D

 25 28  0  0  1  0  0  0  0  0999 V2000
  161.2420  206.0570  148.6080 C   0  0  0  0  0  0  0  0  0  0  0  0
  161.5260  207.2840  149.2430 C   0  0  0  0  0  0  0  0  0  0  0  0
  160.8260  205.0420  150.7790 C   0  0  0  0  0  3  0  0  0  0  0  0
  161.1190  206.2520  151.4110 C   0  0  0  0  0  3  0  0  0  0  0  0
  161.7490  208.6120  151.2500 C   0  0  0  0  0  0  0  0  0  0  0  0
  161.7180  208.7450  152.5030 O   0  0  0  0  0  0  0  0  0  0  0  0
  161.8350  208.3900  148.5160 N   0  0  0  0  0  0  0  0  0  0  0  0
  160.8830  204.9470  149.3870 C   0  0  0  0  0  3  0  0  0  0  0  0
  162.0580  209.6820  150.4710 N   0  0  0  0  0  2  0  0  0  0  0  0
  162.0950  209.5790  149.1170 C   0  0  0  0  0  0  0  0  0  0  0  0
  161.4660  207.3760  150.6520 C   0  0  0  0  0  0  0  0  0  0  0  0
  161.2770  205.9150  147.1380 C   0  0  0  0  0  0  0  0  0  0  0  0
  161.2600  205.6910  144.3380 C   0  0  0  0  0  3  0  0  0  0  0  0
  162.4020  205.3930  146.4580 C   0  0  0  0  0  0  0  0  0  0  0  0
  162.3840  205.2880  145.0640 C   0  0  0  0  0  3  0  0  0  0  0  0
  160.1430  206.1950  145.0060 C   0  0  0  0  0  3  0  0  0  0  0  0
  163.6070  204.9010  147.1880 C   0  0  0  0  0  1  0  0  0  0  0  0
  160.1510  206.3040  146.3980 C   0  0  0  0  0  3  0  0  0  0  0  0
  162.5010  211.0150  148.1210 S   0  0  0  0  0  0  0  0  0  0  0  0
  159.6320  213.5940  149.3280 O   0  0  0  0  0  0  0  0  0  0  0  0
  160.3260  212.2390  146.8920 C   0  0  0  0  0  2  0  0  0  0  0  0
  159.3170  214.1750  148.0860 C   0  0  0  0  0  2  0  0  0  0  0  0
  160.8660  211.8210  148.2610 C   0  0  2  0  0  3  0  0  0  0  0  0
  159.0630  213.0790  147.0510 C   0  0  0  0  0  2  0  0  0  0  0  0
  160.9150  213.0310  149.1990 C   0  0  0  0  0  2  0  0  0  0  0  0
  1  2  2  0  0  0  0
  1  8  1  0  0  0  0
  2 11  1  0  0  0  0
  3  4  1  0  0  0  0
  5  6  2  0  0  0  0
  7 10  2  0  0  0  0
  7  2  1  0  0  0  0
  8  3  2  0  0  0  0
  9  5  1  0  0  0  0
 10  9  1  0  0  0  0
 11  5  1  0  0  0  0
 11  4  2  0  0  0  0
 12  1  1  0  0  0  0
 13 16  2  0  0  0  0
 13 15  1  0  0  0  0
 14 12  1  0  0  0  0
 14 17  1  0  0  0  0
 15 14  2  0  0  0  0
 16 18  1  0  0  0  0
 18 12  2  0  0  0  0
 19 10  1  0  0  0  0
 21 24  1  0  0  0  0
 21 23  1  0  0  0  0
 22 20  1  0  0  0  0
 23 19  1  6  0  0  0
 23 25  1  0  0  0  0
 24 22  1  0  0  0  0
 25 20  1  0  0  0  0
M  END
>  <MODEL>
6

>  <REMARK>
 VINA RESULT:      -6.7      3.982      6.737
  Name = 
  3 active torsions:
  status: ('A' for Active; 'I' for Inactive)
    1  A    between atoms: C_1  and  C_5
    2  A    between atoms: S_6  and  C_15
    3  A    between atoms: S_6  and  C_23
                            x       y       z     vdW  Elec       q    Type
                         _______ _______ _______ _____ _____    ______ ____

>  <TORSDO>
F 3

$$$$
=
 OpenBabel11052422103D

 25 28  0  0  1  0  0  0  0  0999 V2000
  161.4480  204.8850  148.4140 C   0  0  0  0  0  0  0  0  0  0  0  0
  161.4960  206.0880  149.1490 C   0  0  0  0  0  0  0  0  0  0  0  0
  161.9170  206.1250  146.3750 C   0  0  0  0  0  3  0  0  0  0  0  0
  161.9520  207.3190  147.0980 C   0  0  0  0  0  3  0  0  0  0  0  0
  161.7910  208.4850  149.2440 C   0  0  0  0  0  0  0  0  0  0  0  0
  162.0030  209.6000  148.6980 O   0  0  0  0  0  0  0  0  0  0  0  0
  161.3260  206.0880  150.4980 N   0  0  0  0  0  0  0  0  0  0  0  0
  161.6720  204.9160  147.0300 C   0  0  0  0  0  3  0  0  0  0  0  0
  161.6080  208.4230  150.5890 N   0  0  0  0  0  2  0  0  0  0  0  0
  161.3840  207.2380  151.2160 C   0  0  0  0  0  0  0  0  0  0  0  0
  161.7460  207.3080  148.4830 C   0  0  0  0  0  0  0  0  0  0  0  0
  161.2040  203.5820  149.0680 C   0  0  0  0  0  0  0  0  0  0  0  0
  160.7330  201.1520  150.3940 C   0  0  0  0  0  3  0  0  0  0  0  0
  161.0640  202.3840  148.3310 C   0  0  0  0  0  0  0  0  0  0  0  0
  160.8270  201.1800  149.0010 C   0  0  0  0  0  3  0  0  0  0  0  0
  160.8830  202.3310  151.1270 C   0  0  0  0  0  3  0  0  0  0  0  0
  161.2070  202.3490  146.8460 C   0  0  0  0  0  1  0  0  0  0  0  0
  161.1200  203.5380  150.4670 C   0  0  0  0  0  3  0  0  0  0  0  0
  161.1540  207.1950  152.9940 S   0  0  0  0  0  0  0  0  0  0  0  0
  160.2610  211.1370  152.9290 O   0  0  0  0  0  0  0  0  0  0  0  0
  161.5780  209.3260  154.7290 C   0  0  0  0  0  2  0  0  0  0  0  0
  160.2410  211.3840  154.3140 C   0  0  0  0  0  2  0  0  0  0  0  0
  161.3170  208.9960  153.2590 C   0  0  2  0  0  3  0  0  0  0  0  0
  161.5150  210.8330  154.9570 C   0  0  0  0  0  2  0  0  0  0  0  0
  160.0810  209.7510  152.7610 C   0  0  0  0  0  2  0  0  0  0  0  0
  1 12  1  0  0  0  0
  1  2  1  0  0  0  0
  2  7  1  0  0  0  0
  3  8  1  0  0  0  0
  3  4  2  0  0  0  0
  4 11  1  0  0  0  0
  5  9  1  0  0  0  0
  6  5  2  0  0  0  0
  7 10  2  0  0  0  0
  8  1  2  0  0  0  0
  9 10  1  0  0  0  0
 10 19  1  0  0  0  0
 11  2  2  0  0  0  0
 11  5  1  0  0  0  0
 12 18  1  0  0  0  0
 13 16  1  0  0  0  0
 14 15  1  0  0  0  0
 14 12  2  0  0  0  0
 15 13  2  0  0  0  0
 17 14  1  0  0  0  0
 18 16  2  0  0  0  0
 20 22  1  0  0  0  0
 21 24  1  0  0  0  0
 22 24  1  0  0  0  0
 23 19  1  1  0  0  0
 23 21  1  0  0  0  0
 25 20  1  0  0  0  0
 25 23  1  0  0  0  0
M  END
>  <MODEL>
7

>  <REMARK>
 VINA RESULT:      -6.7      3.101      6.894
  Name = 
  3 active torsions:
  status: ('A' for Active; 'I' for Inactive)
    1  A    between atoms: C_1  and  C_5
    2  A    between atoms: S_6  and  C_15
    3  A    between atoms: S_6  and  C_23
                            x       y       z     vdW  Elec       q    Type
                         _______ _______ _______ _____ _____    ______ ____

>  <TORSDO>
F 3

$$$$
=
 OpenBabel11052422103D

 25 28  0  0  1  0  0  0  0  0999 V2000
  161.4190  206.0680  149.8210 C   0  0  0  0  0  0  0  0  0  0  0  0
  161.4010  207.1300  150.7500 C   0  0  0  0  0  0  0  0  0  0  0  0
  161.9760  207.6420  148.0510 C   0  0  0  0  0  3  0  0  0  0  0  0
  161.9450  208.6960  148.9660 C   0  0  0  0  0  3  0  0  0  0  0  0
  161.6410  209.4790  151.2650 C   0  0  0  0  0  0  0  0  0  0  0  0
  161.8600  210.6730  150.9280 O   0  0  0  0  0  0  0  0  0  0  0  0
  161.1570  206.8990  152.0670 N   0  0  0  0  0  0  0  0  0  0  0  0
  161.7190  206.3360  148.4780 C   0  0  0  0  0  3  0  0  0  0  0  0
  161.3850  209.1870  152.5680 N   0  0  0  0  0  2  0  0  0  0  0  0
  161.1510  207.9110  152.9710 C   0  0  0  0  0  0  0  0  0  0  0  0
  161.6620  208.4480  150.3150 C   0  0  0  0  0  0  0  0  0  0  0  0
  161.1660  204.6710  150.2300 C   0  0  0  0  0  0  0  0  0  0  0  0
  160.6630  202.0470  151.0960 C   0  0  0  0  0  3  0  0  0  0  0  0
  161.2100  203.5970  149.3120 C   0  0  0  0  0  0  0  0  0  0  0  0
  160.9550  202.2950  149.7520 C   0  0  0  0  0  3  0  0  0  0  0  0
  160.6320  203.1020  152.0090 C   0  0  0  0  0  3  0  0  0  0  0  0
  161.5670  203.7990  147.8770 C   0  0  0  0  0  1  0  0  0  0  0  0
  160.8850  204.4070  151.5780 C   0  0  0  0  0  3  0  0  0  0  0  0
  160.8230  207.5640  154.7000 S   0  0  0  0  0  0  0  0  0  0  0  0
  160.0270  211.3340  155.9230 O   0  0  0  0  0  0  0  0  0  0  0  0
  161.9270  209.2840  156.5870 C   0  0  0  0  0  2  0  0  0  0  0  0
  160.5610  211.2650  157.2240 C   0  0  0  0  0  2  0  0  0  0  0  0
  161.1010  209.2690  155.3000 C   0  0  2  0  0  3  0  0  0  0  0  0
  161.9780  210.6920  157.1720 C   0  0  0  0  0  2  0  0  0  0  0  0
  159.7780  210.0110  155.5150 C   0  0  0  0  0  2  0  0  0  0  0  0
  1 12  1  0  0  0  0
  1  2  1  0  0  0  0
  2  7  1  0  0  0  0
  3  8  1  0  0  0  0
  3  4  2  0  0  0  0
  4 11  1  0  0  0  0
  5  9  1  0  0  0  0
  6  5  2  0  0  0  0
  7 10  2  0  0  0  0
  8  1  2  0  0  0  0
  9 10  1  0  0  0  0
 10 19  1  0  0  0  0
 11  2  2  0  0  0  0
 11  5  1  0  0  0  0
 12 18  1  0  0  0  0
 13 16  1  0  0  0  0
 14 15  1  0  0  0  0
 14 12  2  0  0  0  0
 15 13  2  0  0  0  0
 17 14  1  0  0  0  0
 18 16  2  0  0  0  0
 20 22  1  0  0  0  0
 21 24  1  0  0  0  0
 23 19  1  1  0  0  0
 23 25  1  0  0  0  0
 23 21  1  0  0  0  0
 24 22  1  0  0  0  0
 25 20  1  0  0  0  0
M  END
>  <MODEL>
8

>  <REMARK>
 VINA RESULT:      -6.7      3.929      7.621
  Name = 
  3 active torsions:
  status: ('A' for Active; 'I' for Inactive)
    1  A    between atoms: C_1  and  C_5
    2  A    between atoms: S_6  and  C_15
    3  A    between atoms: S_6  and  C_23
                            x       y       z     vdW  Elec       q    Type
                         _______ _______ _______ _____ _____    ______ ____

>  <TORSDO>
F 3

$$$$
=
 OpenBabel11052422103D

 25 28  0  0  1  0  0  0  0  0999 V2000
  160.8850  203.0780  148.0560 C   0  0  0  0  0  0  0  0  0  0  0  0
  161.2190  204.2590  147.3600 C   0  0  0  0  0  0  0  0  0  0  0  0
  160.5930  201.9240  145.9350 C   0  0  0  0  0  3  0  0  0  0  0  0
  160.9090  203.0940  145.2440 C   0  0  0  0  0  3  0  0  0  0  0  0
  161.5670  205.4530  145.2880 C   0  0  0  0  0  0  0  0  0  0  0  0
  161.5810  205.5110  144.0290 O   0  0  0  0  0  0  0  0  0  0  0  0
  161.5560  205.3910  148.0320 N   0  0  0  0  0  0  0  0  0  0  0  0
  160.5860  201.9150  147.3320 C   0  0  0  0  0  3  0  0  0  0  0  0
  161.8900  206.5550  146.0130 N   0  0  0  0  0  2  0  0  0  0  0  0
  161.8930  206.5290  147.3720 C   0  0  0  0  0  0  0  0  0  0  0  0
  161.2260  204.2630  145.9480 C   0  0  0  0  0  0  0  0  0  0  0  0
  160.8780  203.0200  149.5330 C   0  0  0  0  0  0  0  0  0  0  0  0
  160.8300  203.0000  152.3400 C   0  0  0  0  0  3  0  0  0  0  0  0
  161.1810  201.8350  150.2420 C   0  0  0  0  0  0  0  0  0  0  0  0
  161.1520  201.8350  151.6400 C   0  0  0  0  0  3  0  0  0  0  0  0
  160.5420  204.1760  151.6450 C   0  0  0  0  0  3  0  0  0  0  0  0
  161.5810  200.5780  149.5440 C   0  0  0  0  0  1  0  0  0  0  0  0
  160.5690  204.1850  150.2490 C   0  0  0  0  0  3  0  0  0  0  0  0
  162.3310  208.0030  148.2950 S   0  0  0  0  0  0  0  0  0  0  0  0
  162.6780  206.3760  151.9800 O   0  0  0  0  0  0  0  0  0  0  0  0
  161.0410  208.3790  150.7300 C   0  0  0  0  0  2  0  0  0  0  0  0
  162.1640  207.4410  152.7430 C   0  0  0  0  0  2  0  0  0  0  0  0
  161.8560  207.3560  149.9370 C   0  0  2  0  0  3  0  0  0  0  0  0
  160.8250  207.8970  152.1610 C   0  0  0  0  0  2  0  0  0  0  0  0
  163.0810  206.9190  150.7450 C   0  0  0  0  0  2  0  0  0  0  0  0
  1 12  1  0  0  0  0
  2  7  1  0  0  0  0
  2  1  1  0  0  0  0
  3  8  1  0  0  0  0
  4  3  2  0  0  0  0
  4 11  1  0  0  0  0
  5 11  1  0  0  0  0
  5  9  1  0  0  0  0
  6  5  2  0  0  0  0
  8  1  2  0  0  0  0
  9 10  1  0  0  0  0
 10  7  2  0  0  0  0
 10 19  1  0  0  0  0
 11  2  2  0  0  0  0
 12 14  2  0  0  0  0
 12 18  1  0  0  0  0
 14 15  1  0  0  0  0
 15 13  2  0  0  0  0
 16 13  1  0  0  0  0
 17 14  1  0  0  0  0
 18 16  2  0  0  0  0
 20 22  1  0  0  0  0
 21 24  1  0  0  0  0
 23 19  1  6  0  0  0
 23 21  1  0  0  0  0
 23 25  1  0  0  0  0
 24 22  1  0  0  0  0
 25 20  1  0  0  0  0
M  END
>  <MODEL>
9

>  <REMARK>
 VINA RESULT:      -6.4      2.418      6.533
  Name = 
  3 active torsions:
  status: ('A' for Active; 'I' for Inactive)
    1  A    between atoms: C_1  and  C_5
    2  A    between atoms: S_6  and  C_15
    3  A    between atoms: S_6  and  C_23
                            x       y       z     vdW  Elec       q    Type
                         _______ _______ _______ _____ _____    ______ ____

>  <TORSDO>
F 3

$$$$
