=
 OpenBabel11062409443D

 34 39  0  0  1  0  0  0  0  0999 V2000
  160.8710  209.0070  152.1780 C   0  0  0  0  0  0  0  0  0  0  0  0
  160.6530  211.5410  151.6850 C   0  0  0  0  0  0  0  0  0  0  0  0
  159.9540  211.3180  154.0340 C   0  0  0  0  0  3  0  0  0  0  0  0
  161.1680  206.5340  153.5090 C   0  0  0  0  0  3  0  0  0  0  0  0
  160.9070  207.7820  151.4820 C   0  0  0  0  0  3  0  0  0  0  0  0
  161.1150  207.7160  154.2420 C   0  0  0  0  0  0  0  0  0  0  0  0
  161.1480  208.7660  156.4130 C   0  0  0  0  0  3  0  0  0  0  0  0
  161.2780  207.6320  155.6240 C   0  0  0  0  0  3  0  0  0  0  0  0
  161.0200  206.5480  152.1250 C   0  0  0  0  0  0  0  0  0  0  0  0
  160.6500  210.0950  154.4360 C   0  0  0  0  0  0  0  0  0  0  0  0
  160.8790  208.9710  153.6010 C   0  0  0  0  0  0  0  0  0  0  0  0
  160.8050  209.9760  155.8210 C   0  0  0  0  0  3  0  0  0  0  0  0
  160.8640  212.5940  150.7850 C   0  0  0  0  0  3  0  0  0  0  0  0
  161.5170  212.3940  149.5650 C   0  0  0  0  0  0  0  0  0  0  0  0
  161.9570  211.1190  149.2330 C   0  0  0  0  0  3  0  0  0  0  0  0
  159.9550  211.8880  152.8760 N   0  0  0  0  0  0  0  0  0  0  0  0
  161.7350  210.0600  150.1100 C   0  0  0  0  0  3  0  0  0  0  0  0
  161.0750  210.2330  151.3470 C   0  0  0  0  0  0  0  0  0  0  0  0
  161.0390  202.8580  151.2610 C   0  0  0  0  0  3  0  0  0  0  0  0
  161.1000  205.3150  149.9450 C   0  0  0  0  0  3  0  0  0  0  0  0
  161.0780  201.5950  149.1260 C   0  0  0  0  0  1  0  0  0  0  0  0
  161.0900  202.8910  149.8660 C   0  0  0  0  0  0  0  0  0  0  0  0
  161.1420  204.1300  149.1940 C   0  0  0  0  0  0  0  0  0  0  0  0
  161.0470  205.2870  151.3460 C   0  0  0  0  0  0  0  0  0  0  0  0
  161.0210  204.0440  151.9960 C   0  0  0  0  0  3  0  0  0  0  0  0
  162.2500  205.1550  147.2270 C   0  0  2  0  0  3  0  0  0  0  0  0
  161.1540  204.2050  147.6890 C   0  0  2  0  0  3  0  0  0  0  0  0
  160.8030  205.5980  147.1950 C   0  0  0  0  0  2  0  0  0  0  0  0
  162.7010  204.7750  145.8560 C   0  0  0  0  0  0  0  0  0  0  0  0
  163.8450  204.2780  145.6820 O   0  0  0  0  0  1  0  0  0  0  0  0
  161.8430  204.9230  144.7730 O   0  0  0  0  0  0  0  0  0  0  0  0
  161.7400  213.4720  148.6530 N   0  0  0  0  0  2  0  0  0  0  0  0
  162.7050  213.4150  147.6050 C   0  0  0  0  0  3  0  0  0  0  0  0
  162.3100  213.3750  146.3420 C   0  0  0  0  0  2  0  0  0  0  0  0
  1 11  1  0  0  0  0
  2 16  1  0  0  0  0
  3 10  1  0  0  0  0
  4  6  1  0  0  0  0
  5  9  1  0  0  0  0
  5  1  2  0  0  0  0
  6  8  1  0  0  0  0
  8  7  2  0  0  0  0
  9  4  2  0  0  0  0
 10 12  2  0  0  0  0
 11  6  2  0  0  0  0
 11 10  1  0  0  0  0
 12  7  1  0  0  0  0
 13  2  2  0  0  0  0
 14 13  1  0  0  0  0
 15 14  2  0  0  0  0
 15 17  1  0  0  0  0
 16  3  2  0  0  0  0
 17 18  2  0  0  0  0
 18  2  1  0  0  0  0
 18  1  1  0  0  0  0
 19 25  1  0  0  0  0
 20 24  1  0  0  0  0
 21 22  1  0  0  0  0
 22 19  2  0  0  0  0
 23 22  1  0  0  0  0
 23 20  2  0  0  0  0
 24 25  2  0  0  0  0
 24  9  1  0  0  0  0
 26 29  1  6  0  0  0
 26 27  1  0  0  0  0
 27 23  1  1  0  0  0
 28 26  1  0  0  0  0
 28 27  1  0  0  0  0
 30 29  1  0  0  0  0
 31 29  2  0  0  0  0
 32 14  1  0  0  0  0
 33 32  1  0  0  0  0
 34 33  2  0  0  0  0
M  END
>  <MODEL>
1

>  <REMARK>
 VINA RESULT:     -10.1      0.000      0.000
  Name = 
  5 active torsions:
  status: ('A' for Active; 'I' for Inactive)
    1  A    between atoms: N_3  and  C_13
    2  A    between atoms: N_3  and  C_25
    3  A    between atoms: C_7  and  C_11
    4  A    between atoms: C_18  and  C_30
    5  A    between atoms: C_26  and  C_28
                            x       y       z     vdW  Elec       q    Type
                         _______ _______ _______ _____ _____    ______ ____

>  <TORSDO>
F 5

$$$$
=
 OpenBabel11062409443D

 34 39  0  0  1  0  0  0  0  0999 V2000
  161.5430  208.0720  150.6030 C   0  0  0  0  0  0  0  0  0  0  0  0
  161.5900  205.4860  150.7670 C   0  0  0  0  0  0  0  0  0  0  0  0
  161.8460  206.2470  153.0940 C   0  0  0  0  0  3  0  0  0  0  0  0
  161.2510  210.8090  151.2320 C   0  0  0  0  0  3  0  0  0  0  0  0
  161.7670  209.0870  149.6510 C   0  0  0  0  0  3  0  0  0  0  0  0
  161.0420  209.8450  152.2120 C   0  0  0  0  0  0  0  0  0  0  0  0
  160.4860  209.3680  154.5100 C   0  0  0  0  0  3  0  0  0  0  0  0
  160.6260  210.2770  153.4710 C   0  0  0  0  0  3  0  0  0  0  0  0
  161.6600  210.4450  149.9520 C   0  0  0  0  0  0  0  0  0  0  0  0
  161.2140  207.5660  153.0460 C   0  0  0  0  0  0  0  0  0  0  0  0
  161.2660  208.4590  151.9450 C   0  0  0  0  0  0  0  0  0  0  0  0
  160.8100  208.0330  154.3010 C   0  0  0  0  0  3  0  0  0  0  0  0
  161.4490  204.2560  150.1110 C   0  0  0  0  0  3  0  0  0  0  0  0
  161.0660  204.1820  148.7700 C   0  0  0  0  0  0  0  0  0  0  0  0
  160.8310  205.3570  148.0660 C   0  0  0  0  0  3  0  0  0  0  0  0
  162.0080  205.4090  152.1260 N   0  0  0  0  0  0  0  0  0  0  0  0
  160.9880  206.5870  148.7000 C   0  0  0  0  0  3  0  0  0  0  0  0
  161.3780  206.6900  150.0550 C   0  0  0  0  0  0  0  0  0  0  0  0
  163.4560  212.7390  147.5290 C   0  0  0  0  0  3  0  0  0  0  0  0
  160.8450  212.1610  148.3170 C   0  0  0  0  0  3  0  0  0  0  0  0
  162.6930  214.4200  145.8700 C   0  0  0  0  0  1  0  0  0  0  0  0
  162.3900  213.4210  146.9370 C   0  0  0  0  0  0  0  0  0  0  0  0
  161.0680  213.1480  147.3450 C   0  0  0  0  0  0  0  0  0  0  0  0
  161.9120  211.4740  148.9140 C   0  0  0  0  0  0  0  0  0  0  0  0
  163.2210  211.7770  148.5110 C   0  0  0  0  0  3  0  0  0  0  0  0
  158.6710  212.9220  146.7520 C   0  0  2  0  0  3  0  0  0  0  0  0
  159.8920  213.8310  146.6970 C   0  0  2  0  0  3  0  0  0  0  0  0
  159.4310  213.0920  145.4530 C   0  0  0  0  0  2  0  0  0  0  0  0
  157.4280  213.7480  146.7310 C   0  0  0  0  0  0  0  0  0  0  0  0
  156.8510  213.9940  145.6390 O   0  0  0  0  0  0  0  0  0  0  0  0
  156.8760  214.2090  147.9200 O   0  0  0  0  0  1  0  0  0  0  0  0
  160.9120  202.9250  148.1060 N   0  0  0  0  0  2  0  0  0  0  0  0
  160.8100  201.6860  148.8040 C   0  0  0  0  0  3  0  0  0  0  0  0
  161.2900  200.5780  148.2610 C   0  0  0  0  0  2  0  0  0  0  0  0
  1 11  1  0  0  0  0
  2 16  1  0  0  0  0
  4  6  1  0  0  0  0
  5  9  1  0  0  0  0
  5  1  2  0  0  0  0
  6  8  1  0  0  0  0
  8  7  2  0  0  0  0
  9  4  2  0  0  0  0
 10  3  1  0  0  0  0
 10 12  2  0  0  0  0
 11  6  2  0  0  0  0
 11 10  1  0  0  0  0
 12  7  1  0  0  0  0
 13  2  1  0  0  0  0
 14 13  2  0  0  0  0
 15 17  2  0  0  0  0
 15 14  1  0  0  0  0
 16  3  2  0  0  0  0
 17 18  1  0  0  0  0
 18  1  1  0  0  0  0
 18  2  2  0  0  0  0
 19 25  1  0  0  0  0
 20 24  1  0  0  0  0
 21 22  1  0  0  0  0
 22 23  1  0  0  0  0
 22 19  2  0  0  0  0
 23 20  2  0  0  0  0
 24  9  1  0  0  0  0
 25 24  2  0  0  0  0
 26 29  1  6  0  0  0
 27 26  1  0  0  0  0
 27 23  1  1  0  0  0
 28 27  1  0  0  0  0
 28 26  1  0  0  0  0
 29 31  1  0  0  0  0
 30 29  2  0  0  0  0
 32 14  1  0  0  0  0
 32 33  1  0  0  0  0
 34 33  2  0  0  0  0
M  END
>  <MODEL>
2

>  <REMARK>
 VINA RESULT:      -8.4      3.681      7.884
  Name = 
  5 active torsions:
  status: ('A' for Active; 'I' for Inactive)
    1  A    between atoms: N_3  and  C_13
    2  A    between atoms: N_3  and  C_25
    3  A    between atoms: C_7  and  C_11
    4  A    between atoms: C_18  and  C_30
    5  A    between atoms: C_26  and  C_28
                            x       y       z     vdW  Elec       q    Type
                         _______ _______ _______ _____ _____    ______ ____

>  <TORSDO>
F 5

$$$$
=
 OpenBabel11062409443D

 34 39  0  0  1  0  0  0  0  0999 V2000
  161.3300  204.6840  148.0390 C   0  0  0  0  0  0  0  0  0  0  0  0
  161.6230  203.8720  145.5960 C   0  0  0  0  0  0  0  0  0  0  0  0
  161.8350  201.8250  146.9460 C   0  0  0  0  0  3  0  0  0  0  0  0
  160.7880  204.7590  150.8090 C   0  0  0  0  0  3  0  0  0  0  0  0
  161.4440  205.8700  148.7930 C   0  0  0  0  0  3  0  0  0  0  0  0
  160.6830  203.5600  150.1130 C   0  0  0  0  0  0  0  0  0  0  0  0
  160.2050  201.1970  150.1930 C   0  0  0  0  0  3  0  0  0  0  0  0
  160.2450  202.4370  150.8150 C   0  0  0  0  0  3  0  0  0  0  0  0
  161.2130  205.9200  150.1680 C   0  0  0  0  0  0  0  0  0  0  0  0
  161.0810  202.1830  148.1480 C   0  0  0  0  0  0  0  0  0  0  0  0
  161.0350  203.4750  148.7310 C   0  0  0  0  0  0  0  0  0  0  0  0
  160.6510  201.0730  148.8830 C   0  0  0  0  0  3  0  0  0  0  0  0
  161.5900  204.1890  144.2320 C   0  0  0  0  0  3  0  0  0  0  0  0
  161.1980  205.4540  143.7840 C   0  0  0  0  0  0  0  0  0  0  0  0
  160.8450  206.4230  144.7140 C   0  0  0  0  0  3  0  0  0  0  0  0
  162.0640  202.5540  145.9060 N   0  0  0  0  0  0  0  0  0  0  0  0
  160.8930  206.1270  146.0740 C   0  0  0  0  0  3  0  0  0  0  0  0
  161.2890  204.8580  146.5550 C   0  0  0  0  0  0  0  0  0  0  0  0
  162.0700  209.5120  151.0150 C   0  0  0  0  0  3  0  0  0  0  0  0
  160.8960  207.2980  152.2360 C   0  0  0  0  0  3  0  0  0  0  0  0
  161.7420  210.9270  153.0270 C   0  0  0  0  0  1  0  0  0  0  0  0
  161.6120  209.6130  152.3310 C   0  0  0  0  0  0  0  0  0  0  0  0
  161.0350  208.4910  152.9620 C   0  0  0  0  0  0  0  0  0  0  0  0
  161.3530  207.1920  150.9150 C   0  0  0  0  0  0  0  0  0  0  0  0
  161.9450  208.3120  150.3140 C   0  0  0  0  0  3  0  0  0  0  0  0
  161.5470  208.1100  155.3580 C   0  0  2  0  0  3  0  0  0  0  0  0
  160.4910  208.5760  154.3640 C   0  0  2  0  0  3  0  0  0  0  0  0
  160.3860  207.2030  155.0070 C   0  0  0  0  0  2  0  0  0  0  0  0
  161.3110  208.7570  156.6830 C   0  0  0  0  0  0  0  0  0  0  0  0
  162.2450  209.3720  157.2600 O   0  0  0  0  0  0  0  0  0  0  0  0
  160.0470  208.7230  157.2610 O   0  0  0  0  0  1  0  0  0  0  0  0
  161.1560  205.7710  142.3900 N   0  0  0  0  0  2  0  0  0  0  0  0
  162.2440  206.3810  141.6990 C   0  0  0  0  0  3  0  0  0  0  0  0
  162.0820  206.8130  140.4590 C   0  0  0  0  0  2  0  0  0  0  0  0
  1 11  2  0  0  0  0
  1  5  1  0  0  0  0
  2 16  1  0  0  0  0
  2 18  1  0  0  0  0
  3 10  1  0  0  0  0
  5  9  2  0  0  0  0
  6  4  2  0  0  0  0
  6  8  1  0  0  0  0
  7  8  2  0  0  0  0
  9  4  1  0  0  0  0
  9 24  1  0  0  0  0
 10 11  1  0  0  0  0
 10 12  2  0  0  0  0
 11  6  1  0  0  0  0
 12  7  1  0  0  0  0
 13  2  2  0  0  0  0
 14 13  1  0  0  0  0
 14 15  2  0  0  0  0
 15 17  1  0  0  0  0
 16  3  2  0  0  0  0
 17 18  2  0  0  0  0
 18  1  1  0  0  0  0
 19 22  1  0  0  0  0
 20 23  1  0  0  0  0
 22 23  2  0  0  0  0
 22 21  1  0  0  0  0
 24 20  2  0  0  0  0
 25 24  1  0  0  0  0
 25 19  2  0  0  0  0
 26 29  1  1  0  0  0
 27 23  1  6  0  0  0
 27 28  1  0  0  0  0
 27 26  1  0  0  0  0
 28 26  1  0  0  0  0
 29 30  2  0  0  0  0
 29 31  1  0  0  0  0
 32 14  1  0  0  0  0
 33 32  1  0  0  0  0
 34 33  2  0  0  0  0
M  END
>  <MODEL>
3

>  <REMARK>
 VINA RESULT:      -7.6      4.530      8.465
  Name = 
  5 active torsions:
  status: ('A' for Active; 'I' for Inactive)
    1  A    between atoms: N_3  and  C_13
    2  A    between atoms: N_3  and  C_25
    3  A    between atoms: C_7  and  C_11
    4  A    between atoms: C_18  and  C_30
    5  A    between atoms: C_26  and  C_28
                            x       y       z     vdW  Elec       q    Type
                         _______ _______ _______ _____ _____    ______ ____

>  <TORSDO>
F 5

$$$$
