=
 OpenBabel11052423013D

 28 33  0  0  1  0  0  0  0  0999 V2000
  161.4650  203.3780  147.6120 C   0  0  2  0  0  3  0  0  0  0  0  0
  161.4980  208.0240  150.0420 C   0  0  0  0  0  3  0  0  0  0  0  0
  160.8700  202.3370  152.4790 C   0  0  0  0  0  1  0  0  0  0  0  0
  161.5370  207.3800  152.3820 C   0  0  0  0  0  0  0  0  0  0  0  0
  160.8780  205.6420  150.6580 C   0  0  1  0  0  3  0  0  0  0  0  0
  162.0870  209.6500  151.7350 C   0  0  0  0  0  0  0  0  0  0  0  0
  161.3590  207.0320  151.0260 C   0  0  0  0  0  0  0  0  0  0  0  0
  160.5730  205.1650  152.9610 C   0  0  0  0  0  2  0  0  0  0  0  0
  161.9180  208.6810  152.7260 C   0  0  0  0  0  3  0  0  0  0  0  0
  161.0370  202.8250  150.0500 C   0  0  1  0  0  3  0  0  0  0  0  0
  161.5030  205.1770  149.3460 C   0  0  0  0  0  2  0  0  0  0  0  0
  161.3780  206.3570  153.4650 C   0  0  0  0  0  2  0  0  0  0  0  0
  160.4620  201.1710  148.3030 C   0  0  0  0  0  2  0  0  0  0  0  0
  160.5400  203.3670  151.4020 C   0  0  2  0  0  3  0  0  0  0  0  0
  160.3390  201.5720  149.7150 N   0  0  0  0  0  2  0  0  0  0  0  0
  162.4510  210.9090  152.0740 F   0  0  0  0  0  0  0  0  0  0  0  0
  161.8690  209.3240  150.3940 C   0  0  0  0  0  3  0  0  0  0  0  0
  161.1720  204.6610  151.7230 N   0  0  1  0  0  0  0  0  0  0  0  0
  161.6250  201.8540  147.5790 C   0  0  0  0  0  2  0  0  0  0  0  0
  160.8610  203.8660  148.9370 C   0  0  1  0  0  3  0  0  0  0  0  0
  160.5840  203.8430  146.4460 C   0  0  2  0  0  3  0  0  0  0  0  0
  161.3030  203.9960  145.1050 C   0  0  2  0  0  3  0  0  0  0  0  0
  162.3050  205.8200  146.0750 C   0  0  0  0  0  0  0  0  0  0  0  0
  162.6940  203.7250  145.1840 O   0  0  0  0  0  0  0  0  0  0  0  0
  159.9070  206.0340  145.1990 C   0  0  0  0  0  1  0  0  0  0  0  0
  160.9670  205.2310  145.9240 C   0  0  2  0  0  0  0  0  0  0  0  0
  162.5670  206.7340  146.9340 N   0  0  0  0  0  2  0  0  0  0  0  0
  163.3400  204.9260  145.5350 C   0  0  0  0  0  2  0  0  0  0  0  0
  1 19  1  1  0  0  0
  1 20  1  0  0  0  0
  2 17  2  0  0  0  0
  2  7  1  0  0  0  0
  4  9  1  0  0  0  0
  4 12  1  0  0  0  0
  5 11  1  6  0  0  0
  5  7  1  0  0  0  0
  5 18  1  0  0  0  0
  6 16  1  0  0  0  0
  6  9  2  0  0  0  0
  7  4  2  0  0  0  0
  8 12  1  0  0  0  0
 10 15  1  6  0  0  0
 10 14  1  0  0  0  0
 13 15  1  0  0  0  0
 14 18  1  0  0  0  0
 14  3  1  1  0  0  0
 17  6  1  0  0  0  0
 18  8  1  1  0  0  0
 19 13  1  0  0  0  0
 20 11  1  1  0  0  0
 20 10  1  0  0  0  0
 21  1  1  1  0  0  0
 22 24  1  1  0  0  0
 22 26  1  0  0  0  0
 22 21  1  0  0  0  0
 23 27  2  0  0  0  0
 24 28  1  0  0  0  0
 26 25  1  6  0  0  0
 26 23  1  0  0  0  0
 26 21  1  0  0  0  0
 28 23  1  0  0  0  0
M  END
>  <MODEL>
1

>  <REMARK>
 VINA RESULT:      -7.3      0.000      0.000
  Name = 
  1 active torsions:
  status: ('A' for Active; 'I' for Inactive)
    1  A    between atoms: C_1  and  C_2
                            x       y       z     vdW  Elec       q    Type
                         _______ _______ _______ _____ _____    ______ ____

>  <TORSDO>
F 1

$$$$
=
 OpenBabel11052423013D

 28 33  0  0  1  0  0  0  0  0999 V2000
  161.4900  203.4230  147.8430 C   0  0  2  0  0  3  0  0  0  0  0  0
  161.6050  208.5860  148.7500 C   0  0  0  0  0  3  0  0  0  0  0  0
  161.0030  203.9110  152.8090 C   0  0  0  0  0  1  0  0  0  0  0  0
  161.6940  208.6800  151.1740 C   0  0  0  0  0  0  0  0  0  0  0  0
  160.9860  206.5090  150.0710 C   0  0  1  0  0  3  0  0  0  0  0  0
  162.2410  210.6400  149.8590 C   0  0  0  0  0  0  0  0  0  0  0  0
  161.4830  207.9400  149.9910 C   0  0  0  0  0  0  0  0  0  0  0  0
  160.7320  206.7560  152.4170 C   0  0  0  0  0  2  0  0  0  0  0  0
  162.0900  210.0190  151.1000 C   0  0  0  0  0  3  0  0  0  0  0  0
  161.1160  203.6400  150.3420 C   0  0  1  0  0  3  0  0  0  0  0  0
  161.5780  205.6620  148.9500 C   0  0  0  0  0  2  0  0  0  0  0  0
  161.5550  208.0350  152.5190 C   0  0  0  0  0  2  0  0  0  0  0  0
  160.4910  201.5410  149.1900 C   0  0  0  0  0  2  0  0  0  0  0  0
  160.6540  204.5710  151.4760 C   0  0  2  0  0  3  0  0  0  0  0  0
  160.4030  202.3520  150.4170 N   0  0  0  0  0  2  0  0  0  0  0  0
  162.6200  211.9390  149.7930 F   0  0  0  0  0  0  0  0  0  0  0  0
  161.9910  209.9270  148.6850 C   0  0  0  0  0  3  0  0  0  0  0  0
  161.3000  205.8930  151.3770 N   0  0  1  0  0  0  0  0  0  0  0  0
  161.6400  201.9590  148.2700 C   0  0  0  0  0  2  0  0  0  0  0  0
  160.9200  204.2970  148.9700 C   0  0  1  0  0  3  0  0  0  0  0  0
  160.5840  203.5240  146.6100 C   0  0  2  0  0  3  0  0  0  0  0  0
  161.2960  203.3830  145.2630 C   0  0  2  0  0  3  0  0  0  0  0  0
  162.1720  205.4520  145.7350 C   0  0  0  0  0  0  0  0  0  0  0  0
  162.7020  203.2310  145.3890 O   0  0  0  0  0  0  0  0  0  0  0  0
  159.7690  205.2850  144.8640 C   0  0  0  0  0  1  0  0  0  0  0  0
  160.8760  204.7590  145.7530 C   0  0  2  0  0  0  0  0  0  0  0  0
  162.3700  206.5660  146.3350 N   0  0  0  0  0  2  0  0  0  0  0  0
  163.2660  204.5210  145.4210 C   0  0  0  0  0  2  0  0  0  0  0  0
  1 19  1  1  0  0  0
  1 20  1  0  0  0  0
  2  7  1  0  0  0  0
  4 12  1  0  0  0  0
  5 11  1  6  0  0  0
  5 18  1  0  0  0  0
  6  9  2  0  0  0  0
  7  5  1  0  0  0  0
  7  4  2  0  0  0  0
  8 12  1  0  0  0  0
  9  4  1  0  0  0  0
 10 15  1  6  0  0  0
 10 14  1  0  0  0  0
 13 15  1  0  0  0  0
 14  3  1  1  0  0  0
 16  6  1  0  0  0  0
 17  2  2  0  0  0  0
 17  6  1  0  0  0  0
 18 14  1  0  0  0  0
 18  8  1  1  0  0  0
 19 13  1  0  0  0  0
 20 11  1  1  0  0  0
 20 10  1  0  0  0  0
 21  1  1  1  0  0  0
 22 24  1  1  0  0  0
 22 26  1  0  0  0  0
 22 21  1  0  0  0  0
 23 26  1  0  0  0  0
 23 27  2  0  0  0  0
 24 28  1  0  0  0  0
 26 25  1  6  0  0  0
 26 21  1  0  0  0  0
 28 23  1  0  0  0  0
M  END
>  <MODEL>
2

>  <REMARK>
 VINA RESULT:      -6.8      1.025      1.277
  Name = 
  1 active torsions:
  status: ('A' for Active; 'I' for Inactive)
    1  A    between atoms: C_1  and  C_2
                            x       y       z     vdW  Elec       q    Type
                         _______ _______ _______ _____ _____    ______ ____

>  <TORSDO>
F 1

$$$$
=
 OpenBabel11052423013D

 28 33  0  0  1  0  0  0  0  0999 V2000
  159.3600  211.9500  152.9140 C   0  0  2  0  0  3  0  0  0  0  0  0
  161.1340  207.8780  150.1270 C   0  0  0  0  0  3  0  0  0  0  0  0
  160.2970  208.3480  156.2720 C   0  0  0  0  0  1  0  0  0  0  0  0
  161.2350  206.1190  151.7960 C   0  0  0  0  0  0  0  0  0  0  0  0
  161.0600  208.5230  152.5800 C   0  0  1  0  0  3  0  0  0  0  0  0
  161.3350  205.5680  149.4380 C   0  0  0  0  0  0  0  0  0  0  0  0
  161.0970  207.4850  151.4740 C   0  0  0  0  0  0  0  0  0  0  0  0
  161.5310  206.8180  154.1610 C   0  0  0  0  0  2  0  0  0  0  0  0
  161.3340  205.1670  150.7750 C   0  0  0  0  0  3  0  0  0  0  0  0
  159.9420  210.1940  154.6490 C   0  0  1  0  0  3  0  0  0  0  0  0
  160.1380  209.6810  152.2120 C   0  0  0  0  0  2  0  0  0  0  0  0
  161.2210  205.6590  153.2210 C   0  0  0  0  0  2  0  0  0  0  0  0
  159.7110  212.5610  155.3340 C   0  0  0  0  0  2  0  0  0  0  0  0
  160.7730  208.9340  154.9450 C   0  0  2  0  0  3  0  0  0  0  0  0
  160.1570  211.2050  155.7000 N   0  0  0  0  0  2  0  0  0  0  0  0
  161.4360  204.6420  148.4540 F   0  0  0  0  0  0  0  0  0  0  0  0
  161.2430  206.9230  149.1140 C   0  0  0  0  0  3  0  0  0  0  0  0
  160.6310  207.9370  153.8670 N   0  0  1  0  0  0  0  0  0  0  0  0
  158.7280  212.5790  154.1600 C   0  0  0  0  0  2  0  0  0  0  0  0
  160.2710  210.7650  153.2630 C   0  0  1  0  0  3  0  0  0  0  0  0
  160.1630  213.0020  152.1400 C   0  0  2  0  0  3  0  0  0  0  0  0
  159.5250  214.3900  152.0690 C   0  0  2  0  0  3  0  0  0  0  0  0
  158.0090  213.4010  150.6560 C   0  0  0  0  0  0  0  0  0  0  0  0
  158.2540  214.4510  152.6980 O   0  0  0  0  0  0  0  0  0  0  0  0
  160.3170  214.0470  149.7530 C   0  0  0  0  0  1  0  0  0  0  0  0
  159.4620  213.4690  150.8610 C   0  0  2  0  0  0  0  0  0  0  0  0
  157.4540  212.5140  149.9170 N   0  0  0  0  0  2  0  0  0  0  0  0
  157.2890  214.0850  151.7410 C   0  0  0  0  0  2  0  0  0  0  0  0
  1 20  1  0  0  0  0
  1 19  1  1  0  0  0
  2  7  1  0  0  0  0
  4 12  1  0  0  0  0
  5 11  1  6  0  0  0
  5 18  1  0  0  0  0
  6  9  2  0  0  0  0
  7  4  2  0  0  0  0
  7  5  1  0  0  0  0
  9  4  1  0  0  0  0
 10 14  1  0  0  0  0
 10 15  1  1  0  0  0
 12  8  1  0  0  0  0
 13 15  1  0  0  0  0
 14  3  1  1  0  0  0
 16  6  1  0  0  0  0
 17  6  1  0  0  0  0
 17  2  2  0  0  0  0
 18  8  1  1  0  0  0
 18 14  1  0  0  0  0
 19 13  1  0  0  0  0
 20 11  1  6  0  0  0
 20 10  1  0  0  0  0
 21  1  1  1  0  0  0
 22 21  1  0  0  0  0
 22 24  1  1  0  0  0
 23 26  1  0  0  0  0
 23 28  1  0  0  0  0
 26 25  1  6  0  0  0
 26 22  1  0  0  0  0
 26 21  1  0  0  0  0
 27 23  2  0  0  0  0
 28 24  1  0  0  0  0
M  END
>  <MODEL>
3

>  <REMARK>
 VINA RESULT:      -6.3      4.884      8.360
  Name = 
  1 active torsions:
  status: ('A' for Active; 'I' for Inactive)
    1  A    between atoms: C_1  and  C_2
                            x       y       z     vdW  Elec       q    Type
                         _______ _______ _______ _____ _____    ______ ____

>  <TORSDO>
F 1

$$$$
=
 OpenBabel11052423013D

 28 33  0  0  1  0  0  0  0  0999 V2000
  161.2520  210.6200  150.2740 C   0  0  2  0  0  3  0  0  0  0  0  0
  162.0630  206.5040  147.1290 C   0  0  0  0  0  3  0  0  0  0  0  0
  160.7100  206.5860  153.1990 C   0  0  0  0  0  1  0  0  0  0  0  0
  161.4560  204.6390  148.5580 C   0  0  0  0  0  0  0  0  0  0  0  0
  161.9030  206.8910  149.6320 C   0  0  1  0  0  3  0  0  0  0  0  0
  161.6580  204.3230  146.1640 C   0  0  0  0  0  0  0  0  0  0  0  0
  161.7610  206.0080  148.4070 C   0  0  0  0  0  0  0  0  0  0  0  0
  161.6740  204.9740  151.0100 C   0  0  0  0  0  2  0  0  0  0  0  0
  161.3880  203.8090  147.4340 C   0  0  0  0  0  3  0  0  0  0  0  0
  161.0950  208.6060  151.8070 C   0  0  1  0  0  3  0  0  0  0  0  0
  161.4080  208.3050  149.3470 C   0  0  0  0  0  2  0  0  0  0  0  0
  161.1470  204.0640  149.9070 C   0  0  0  0  0  2  0  0  0  0  0  0
  161.4900  210.8500  152.7730 C   0  0  0  0  0  2  0  0  0  0  0  0
  161.4830  207.1300  152.0000 C   0  0  2  0  0  3  0  0  0  0  0  0
  161.4750  209.3930  152.9930 N   0  0  0  0  0  2  0  0  0  0  0  0
  161.5950  203.5140  145.0790 F   0  0  0  0  0  0  0  0  0  0  0  0
  162.0030  205.6670  146.0120 C   0  0  0  0  0  3  0  0  0  0  0  0
  161.1790  206.3370  150.7940 N   0  0  1  0  0  0  0  0  0  0  0  0
  160.6950  211.2830  151.5380 C   0  0  0  0  0  2  0  0  0  0  0  0
  161.7320  209.1860  150.5370 C   0  0  1  0  0  3  0  0  0  0  0  0
  162.4100  211.4510  149.7080 C   0  0  2  0  0  3  0  0  0  0  0  0
  162.0750  212.9100  149.3920 C   0  0  2  0  0  3  0  0  0  0  0  0
  160.8430  212.0440  147.6590 C   0  0  0  0  0  0  0  0  0  0  0  0
  160.7140  213.2340  149.6340 O   0  0  0  0  0  0  0  0  0  0  0  0
  163.3870  212.2220  147.4130 C   0  0  0  0  0  1  0  0  0  0  0  0
  162.1750  211.8980  148.2630 C   0  0  2  0  0  0  0  0  0  0  0  0
  160.3580  211.1890  146.8370 N   0  0  0  0  0  2  0  0  0  0  0  0
  159.9930  212.9350  148.4620 C   0  0  0  0  0  2  0  0  0  0  0  0
  1 20  1  0  0  0  0
  1 19  1  1  0  0  0
  2  7  1  0  0  0  0
  4 12  1  0  0  0  0
  5 11  1  6  0  0  0
  5 18  1  0  0  0  0
  6  9  2  0  0  0  0
  7  4  2  0  0  0  0
  7  5  1  0  0  0  0
  9  4  1  0  0  0  0
 10 14  1  0  0  0  0
 10 15  1  1  0  0  0
 12  8  1  0  0  0  0
 13 15  1  0  0  0  0
 14  3  1  1  0  0  0
 16  6  1  0  0  0  0
 17  6  1  0  0  0  0
 17  2  2  0  0  0  0
 18  8  1  1  0  0  0
 18 14  1  0  0  0  0
 19 13  1  0  0  0  0
 20 11  1  6  0  0  0
 20 10  1  0  0  0  0
 21  1  1  1  0  0  0
 22 24  1  1  0  0  0
 22 21  1  0  0  0  0
 23 26  1  0  0  0  0
 23 28  1  0  0  0  0
 26 25  1  6  0  0  0
 26 22  1  0  0  0  0
 26 21  1  0  0  0  0
 27 23  2  0  0  0  0
 28 24  1  0  0  0  0
M  END
>  <MODEL>
4

>  <REMARK>
 VINA RESULT:      -6.2      3.682      6.888
  Name = 
  1 active torsions:
  status: ('A' for Active; 'I' for Inactive)
    1  A    between atoms: C_1  and  C_2
                            x       y       z     vdW  Elec       q    Type
                         _______ _______ _______ _____ _____    ______ ____

>  <TORSDO>
F 1

$$$$
=
 OpenBabel11052423013D

 28 33  0  0  1  0  0  0  0  0999 V2000
  161.3190  208.8720  153.1630 C   0  0  2  0  0  3  0  0  0  0  0  0
  160.4530  204.0020  151.4240 C   0  0  0  0  0  3  0  0  0  0  0  0
  162.3590  209.0060  148.2610 C   0  0  0  0  0  1  0  0  0  0  0  0
  161.2950  204.1110  149.1500 C   0  0  0  0  0  0  0  0  0  0  0  0
  160.8230  206.2820  150.3720 C   0  0  1  0  0  3  0  0  0  0  0  0
  160.8900  201.9630  150.1970 C   0  0  0  0  0  0  0  0  0  0  0  0
  160.9010  204.7670  150.3350 C   0  0  0  0  0  0  0  0  0  0  0  0
  161.2880  206.3370  148.0470 C   0  0  0  0  0  2  0  0  0  0  0  0
  161.3050  202.7140  149.0950 C   0  0  0  0  0  3  0  0  0  0  0  0
  161.7320  209.0050  150.6640 C   0  0  1  0  0  3  0  0  0  0  0  0
  161.2090  206.8150  151.7480 C   0  0  0  0  0  2  0  0  0  0  0  0
  161.7600  204.8900  147.9580 C   0  0  0  0  0  2  0  0  0  0  0  0
  161.3030  211.0780  151.9440 C   0  0  0  0  0  2  0  0  0  0  0  0
  161.4480  208.3550  149.2990 C   0  0  2  0  0  3  0  0  0  0  0  0
  161.4200  210.4440  150.6190 N   0  0  0  0  0  2  0  0  0  0  0  0
  160.8970  200.6100  150.1360 F   0  0  0  0  0  0  0  0  0  0  0  0
  160.4560  202.6070  151.3580 C   0  0  0  0  0  3  0  0  0  0  0  0
  161.6830  206.8990  149.3410 N   0  0  1  0  0  0  0  0  0  0  0  0
  161.9530  210.2630  153.0650 C   0  0  0  0  0  2  0  0  0  0  0  0
  160.9480  208.3080  151.7840 C   0  0  1  0  0  3  0  0  0  0  0  0
  160.0680  208.9220  154.0480 C   0  0  2  0  0  3  0  0  0  0  0  0
  160.2010  209.7620  155.3200 C   0  0  2  0  0  3  0  0  0  0  0  0
  161.5810  208.0780  156.0490 C   0  0  0  0  0  0  0  0  0  0  0  0
  161.4970  210.3170  155.4880 O   0  0  0  0  0  0  0  0  0  0  0  0
  159.0440  207.7360  156.1360 C   0  0  0  0  0  1  0  0  0  0  0  0
  160.2700  208.2470  155.4070 C   0  0  2  0  0  0  0  0  0  0  0  0
  162.2000  206.9580  156.0770 N   0  0  0  0  0  2  0  0  0  0  0  0
  162.2790  209.3670  156.1730 C   0  0  0  0  0  2  0  0  0  0  0  0
  1 19  1  6  0  0  0
  4  7  1  0  0  0  0
  5 11  1  1  0  0  0
  6 17  2  0  0  0  0
  7  5  1  0  0  0  0
  7  2  2  0  0  0  0
  9  4  2  0  0  0  0
  9  6  1  0  0  0  0
 10 15  1  6  0  0  0
 10 20  1  0  0  0  0
 12  8  1  0  0  0  0
 12  4  1  0  0  0  0
 13 19  1  0  0  0  0
 14  3  1  6  0  0  0
 14 18  1  0  0  0  0
 14 10  1  0  0  0  0
 15 13  1  0  0  0  0
 16  6  1  0  0  0  0
 17  2  1  0  0  0  0
 18  8  1  6  0  0  0
 18  5  1  0  0  0  0
 20 11  1  1  0  0  0
 20  1  1  0  0  0  0
 21  1  1  6  0  0  0
 21 22  1  0  0  0  0
 21 26  1  0  0  0  0
 22 26  1  0  0  0  0
 22 24  1  6  0  0  0
 23 27  2  0  0  0  0
 23 28  1  0  0  0  0
 24 28  1  0  0  0  0
 26 23  1  0  0  0  0
 26 25  1  1  0  0  0
M  END
>  <MODEL>
5

>  <REMARK>
 VINA RESULT:      -6.1      3.818      8.091
  Name = 
  1 active torsions:
  status: ('A' for Active; 'I' for Inactive)
    1  A    between atoms: C_1  and  C_2
                            x       y       z     vdW  Elec       q    Type
                         _______ _______ _______ _____ _____    ______ ____

>  <TORSDO>
F 1

$$$$
=
 OpenBabel11052423013D

 28 33  0  0  1  0  0  0  0  0999 V2000
  159.6890  209.3870  155.2390 C   0  0  2  0  0  3  0  0  0  0  0  0
  161.3770  211.3680  150.6880 C   0  0  0  0  0  3  0  0  0  0  0  0
  161.5810  205.4910  152.7150 C   0  0  0  0  0  1  0  0  0  0  0  0
  161.9570  209.3680  149.4410 C   0  0  0  0  0  0  0  0  0  0  0  0
  161.6640  209.1870  151.9520 C   0  0  1  0  0  3  0  0  0  0  0  0
  161.7020  211.4870  148.2930 C   0  0  0  0  0  0  0  0  0  0  0  0
  161.6190  209.9850  150.6630 C   0  0  0  0  0  0  0  0  0  0  0  0
  162.5850  207.3570  150.7570 C   0  0  0  0  0  2  0  0  0  0  0  0
  161.9780  210.1180  148.2610 C   0  0  0  0  0  3  0  0  0  0  0  0
  160.7510  207.4190  154.0420 C   0  0  1  0  0  3  0  0  0  0  0  0
  160.5720  209.6420  152.9160 C   0  0  0  0  0  2  0  0  0  0  0  0
  162.2420  207.8980  149.3740 C   0  0  0  0  0  2  0  0  0  0  0  0
  160.3900  207.3120  156.4880 C   0  0  0  0  0  2  0  0  0  0  0  0
  161.7520  206.9900  152.9560 C   0  0  2  0  0  3  0  0  0  0  0  0
  161.0360  206.7160  155.3050 N   0  0  0  0  0  2  0  0  0  0  0  0
  161.7290  212.2100  147.1480 F   0  0  0  0  0  0  0  0  0  0  0  0
  161.4100  212.1130  149.5060 C   0  0  0  0  0  3  0  0  0  0  0  0
  161.5320  207.7360  151.7030 N   0  0  1  0  0  0  0  0  0  0  0  0
  159.2210  208.2370  156.1370 C   0  0  0  0  0  2  0  0  0  0  0  0
  160.7700  208.9400  154.2450 C   0  0  1  0  0  3  0  0  0  0  0  0
  160.2270  210.5400  156.0950 C   0  0  2  0  0  3  0  0  0  0  0  0
  159.1910  211.2400  156.9750 C   0  0  2  0  0  3  0  0  0  0  0  0
  158.3710  212.0770  155.0000 C   0  0  0  0  0  0  0  0  0  0  0  0
  157.8780  210.7250  156.8070 O   0  0  0  0  0  0  0  0  0  0  0  0
  160.4600  213.1400  156.0320 C   0  0  0  0  0  1  0  0  0  0  0  0
  159.6570  211.9020  155.6890 C   0  0  2  0  0  0  0  0  0  0  0  0
  158.2850  212.3440  153.7510 N   0  0  0  0  0  2  0  0  0  0  0  0
  157.2800  211.4280  155.7440 C   0  0  0  0  0  2  0  0  0  0  0  0
  1 19  1  1  0  0  0
  4  7  2  0  0  0  0
  5 11  1  1  0  0  0
  6 17  1  0  0  0  0
  7  2  1  0  0  0  0
  7  5  1  0  0  0  0
  9  6  2  0  0  0  0
  9  4  1  0  0  0  0
 10 20  1  0  0  0  0
 10 15  1  1  0  0  0
 12  4  1  0  0  0  0
 12  8  1  0  0  0  0
 14  3  1  6  0  0  0
 14 10  1  0  0  0  0
 15 13  1  0  0  0  0
 16  6  1  0  0  0  0
 17  2  2  0  0  0  0
 18  8  1  6  0  0  0
 18  5  1  0  0  0  0
 18 14  1  0  0  0  0
 19 13  1  0  0  0  0
 20 11  1  6  0  0  0
 20  1  1  0  0  0  0
 21  1  1  6  0  0  0
 21 22  1  0  0  0  0
 22 24  1  6  0  0  0
 23 26  1  0  0  0  0
 23 28  1  0  0  0  0
 26 25  1  1  0  0  0
 26 21  1  0  0  0  0
 26 22  1  0  0  0  0
 27 23  2  0  0  0  0
 28 24  1  0  0  0  0
M  END
>  <MODEL>
6

>  <REMARK>
 VINA RESULT:      -5.3      4.756      8.373
  Name = 
  1 active torsions:
  status: ('A' for Active; 'I' for Inactive)
    1  A    between atoms: C_1  and  C_2
                            x       y       z     vdW  Elec       q    Type
                         _______ _______ _______ _____ _____    ______ ____

>  <TORSDO>
F 1

$$$$
=
 OpenBabel11052423013D

 28 33  0  0  1  0  0  0  0  0999 V2000
  161.1130  204.3470  148.8330 C   0  0  2  0  0  3  0  0  0  0  0  0
  161.0230  206.3380  153.6820 C   0  0  0  0  0  3  0  0  0  0  0  0
  161.8440  209.2730  148.2610 C   0  0  0  0  0  1  0  0  0  0  0  0
  161.0530  208.7280  153.2570 C   0  0  0  0  0  0  0  0  0  0  0  0
  161.7140  207.1550  151.3820 C   0  0  1  0  0  3  0  0  0  0  0  0
  160.4340  207.8880  155.4450 C   0  0  0  0  0  0  0  0  0  0  0  0
  161.2090  207.4050  152.7890 C   0  0  0  0  0  0  0  0  0  0  0  0
  162.0840  209.4840  151.1270 C   0  0  0  0  0  2  0  0  0  0  0  0
  160.6480  208.9600  154.5760 C   0  0  0  0  0  3  0  0  0  0  0  0
  161.6100  206.8140  148.5180 C   0  0  1  0  0  3  0  0  0  0  0  0
  161.0710  205.9080  150.7840 C   0  0  0  0  0  2  0  0  0  0  0  0
  161.2620  209.8960  152.3430 C   0  0  0  0  0  2  0  0  0  0  0  0
  162.1860  205.2120  146.7220 C   0  0  0  0  0  2  0  0  0  0  0  0
  162.1240  208.0970  149.1940 C   0  0  2  0  0  3  0  0  0  0  0  0
  162.3310  206.5780  147.2550 N   0  0  0  0  0  2  0  0  0  0  0  0
  160.0470  208.1190  156.7220 F   0  0  0  0  0  0  0  0  0  0  0  0
  160.6280  206.5780  155.0010 C   0  0  0  0  0  3  0  0  0  0  0  0
  161.4690  208.3130  150.4970 N   0  0  1  0  0  0  0  0  0  0  0  0
  160.9900  204.4580  147.3100 C   0  0  0  0  0  2  0  0  0  0  0  0
  161.7350  205.6050  149.4550 C   0  0  1  0  0  3  0  0  0  0  0  0
  161.9560  203.1210  149.2080 C   0  0  2  0  0  3  0  0  0  0  0  0
  161.2380  201.7760  149.0980 C   0  0  2  0  0  3  0  0  0  0  0  0
  160.0600  202.4800  150.9390 C   0  0  0  0  0  0  0  0  0  0  0  0
  159.8770  201.9000  148.7110 O   0  0  0  0  0  0  0  0  0  0  0  0
  162.4340  201.5690  151.2510 C   0  0  0  0  0  1  0  0  0  0  0  0
  161.4490  202.4080  150.4640 C   0  0  2  0  0  0  0  0  0  0  0  0
  159.7060  203.2000  151.9370 N   0  0  0  0  0  2  0  0  0  0  0  0
  159.1180  202.0790  149.8830 C   0  0  0  0  0  2  0  0  0  0  0  0
  1 19  1  6  0  0  0
  1 20  1  0  0  0  0
  2 17  1  0  0  0  0
  4  9  2  0  0  0  0
  5 11  1  6  0  0  0
  5  7  1  0  0  0  0
  6 16  1  0  0  0  0
  7  4  1  0  0  0  0
  7  2  2  0  0  0  0
  8 12  1  0  0  0  0
  9  6  1  0  0  0  0
 10 15  1  6  0  0  0
 10 14  1  0  0  0  0
 10 20  1  0  0  0  0
 12  4  1  0  0  0  0
 13 15  1  0  0  0  0
 13 19  1  0  0  0  0
 14  3  1  6  0  0  0
 14 18  1  0  0  0  0
 17  6  2  0  0  0  0
 18  8  1  1  0  0  0
 18  5  1  0  0  0  0
 20 11  1  1  0  0  0
 21  1  1  6  0  0  0
 21 26  1  0  0  0  0
 22 24  1  6  0  0  0
 22 21  1  0  0  0  0
 22 26  1  0  0  0  0
 23 27  2  0  0  0  0
 24 28  1  0  0  0  0
 26 23  1  0  0  0  0
 26 25  1  1  0  0  0
 28 23  1  0  0  0  0
M  END
>  <MODEL>
7

>  <REMARK>
 VINA RESULT:      -5.3      2.091      4.761
  Name = 
  1 active torsions:
  status: ('A' for Active; 'I' for Inactive)
    1  A    between atoms: C_1  and  C_2
                            x       y       z     vdW  Elec       q    Type
                         _______ _______ _______ _____ _____    ______ ____

>  <TORSDO>
F 1

$$$$
=
 OpenBabel11052423013D

 28 33  0  0  1  0  0  0  0  0999 V2000
  160.3060  213.4750  140.3900 C   0  0  2  0  0  3  0  0  0  0  0  0
  158.2230  212.5750  145.1170 C   0  0  0  0  0  3  0  0  0  0  0  0
  163.9730  214.4520  143.6650 C   0  0  0  0  0  1  0  0  0  0  0  0
  159.9590  213.3890  146.6060 C   0  0  0  0  0  0  0  0  0  0  0  0
  160.5550  212.9370  144.1830 C   0  0  1  0  0  3  0  0  0  0  0  0
  157.7210  212.9920  147.4470 C   0  0  0  0  0  0  0  0  0  0  0  0
  159.5440  213.0110  145.3110 C   0  0  0  0  0  0  0  0  0  0  0  0
  162.2880  213.3720  145.7430 C   0  0  0  0  0  2  0  0  0  0  0  0
  159.0410  213.3950  147.6610 C   0  0  0  0  0  3  0  0  0  0  0  0
  162.2180  213.8550  142.0120 C   0  0  1  0  0  3  0  0  0  0  0  0
  159.9230  213.3420  142.8560 C   0  0  0  0  0  2  0  0  0  0  0  0
  161.3650  213.8400  146.8620 C   0  0  0  0  0  2  0  0  0  0  0  0
  162.7060  213.4470  139.6210 C   0  0  0  0  0  2  0  0  0  0  0  0
  162.7640  213.5520  143.4180 C   0  0  2  0  0  3  0  0  0  0  0  0
  163.2360  213.5460  140.9920 N   0  0  0  0  0  2  0  0  0  0  0  0
  156.8370  212.9950  148.4730 F   0  0  0  0  0  0  0  0  0  0  0  0
  157.3140  212.5750  146.1780 C   0  0  0  0  0  3  0  0  0  0  0  0
  161.7360  213.7840  144.4500 N   0  0  1  0  0  0  0  0  0  0  0  0
  161.3370  214.1100  139.4510 C   0  0  0  0  0  2  0  0  0  0  0  0
  160.9190  213.0850  141.7420 C   0  0  1  0  0  3  0  0  0  0  0  0
  159.6860  212.2350  139.7330 C   0  0  2  0  0  3  0  0  0  0  0  0
  158.9560  212.4910  138.4140 C   0  0  2  0  0  3  0  0  0  0  0  0
  157.3770  213.5280  139.7190 C   0  0  0  0  0  0  0  0  0  0  0  0
  158.9340  213.8620  138.0460 O   0  0  0  0  0  0  0  0  0  0  0  0
  157.4070  210.9700  139.5960 C   0  0  0  0  0  1  0  0  0  0  0  0
  158.1570  212.2830  139.6890 C   0  0  2  0  0  0  0  0  0  0  0  0
  156.7590  213.9340  140.7650 N   0  0  0  0  0  2  0  0  0  0  0  0
  157.8040  214.4450  138.6510 C   0  0  0  0  0  2  0  0  0  0  0  0
  1 19  1  6  0  0  0
  1 20  1  0  0  0  0
  2  7  2  0  0  0  0
  2 17  1  0  0  0  0
  4 12  1  0  0  0  0
  4  9  2  0  0  0  0
  5 11  1  6  0  0  0
  5 18  1  0  0  0  0
  5  7  1  0  0  0  0
  6  9  1  0  0  0  0
  6 16  1  0  0  0  0
  7  4  1  0  0  0  0
  8 12  1  0  0  0  0
 10 15  1  6  0  0  0
 10 14  1  0  0  0  0
 13 15  1  0  0  0  0
 14  3  1  1  0  0  0
 14 18  1  0  0  0  0
 17  6  2  0  0  0  0
 18  8  1  1  0  0  0
 19 13  1  0  0  0  0
 20 10  1  0  0  0  0
 20 11  1  1  0  0  0
 21  1  1  1  0  0  0
 22 24  1  1  0  0  0
 22 26  1  0  0  0  0
 22 21  1  0  0  0  0
 23 27  2  0  0  0  0
 24 28  1  0  0  0  0
 26 25  1  1  0  0  0
 26 23  1  0  0  0  0
 26 21  1  0  0  0  0
 28 23  1  0  0  0  0
M  END
>  <MODEL>
8

>  <REMARK>
 VINA RESULT:      -4.8      9.406     11.197
  Name = 
  1 active torsions:
  status: ('A' for Active; 'I' for Inactive)
    1  A    between atoms: C_1  and  C_2
                            x       y       z     vdW  Elec       q    Type
                         _______ _______ _______ _____ _____    ______ ____

>  <TORSDO>
F 1

$$$$
=
 OpenBabel11052423013D

 28 33  0  0  1  0  0  0  0  0999 V2000
  161.1100  204.1070  147.7930 C   0  0  2  0  0  3  0  0  0  0  0  0
  161.1810  205.4060  152.8720 C   0  0  0  0  0  3  0  0  0  0  0  0
  161.8120  209.0700  147.8860 C   0  0  0  0  0  1  0  0  0  0  0  0
  161.1920  207.8320  152.7820 C   0  0  0  0  0  0  0  0  0  0  0  0
  161.7920  206.5390  150.6850 C   0  0  1  0  0  3  0  0  0  0  0  0
  160.6490  206.6930  154.8510 C   0  0  0  0  0  0  0  0  0  0  0  0
  161.3340  206.5880  152.1300 C   0  0  0  0  0  0  0  0  0  0  0  0
  162.1490  208.8830  150.7440 C   0  0  0  0  0  2  0  0  0  0  0  0
  160.8320  207.8760  154.1330 C   0  0  0  0  0  3  0  0  0  0  0  0
  161.5910  206.5970  147.8070 C   0  0  1  0  0  3  0  0  0  0  0  0
  161.1310  205.3830  149.9420 C   0  0  0  0  0  2  0  0  0  0  0  0
  161.3680  209.1170  152.0320 C   0  0  0  0  0  2  0  0  0  0  0  0
  162.1080  205.2640  145.7880 C   0  0  0  0  0  2  0  0  0  0  0  0
  162.1260  207.7770  148.6360 C   0  0  2  0  0  3  0  0  0  0  0  0
  162.2690  206.5440  146.5000 N   0  0  0  0  0  2  0  0  0  0  0  0
  160.3060  206.7420  156.1600 F   0  0  0  0  0  0  0  0  0  0  0  0
  160.8310  205.4590  154.2230 C   0  0  0  0  0  3  0  0  0  0  0  0
  161.5140  207.8060  149.9790 N   0  0  1  0  0  0  0  0  0  0  0  0
  160.9340  204.4280  146.3050 C   0  0  0  0  0  2  0  0  0  0  0  0
  161.7500  205.2710  148.5620 C   0  0  1  0  0  3  0  0  0  0  0  0
  161.9670  202.8470  147.9650 C   0  0  2  0  0  3  0  0  0  0  0  0
  161.5810  201.6670  147.0710 C   0  0  2  0  0  3  0  0  0  0  0  0
  159.7250  201.5140  148.4150 C   0  0  0  0  0  0  0  0  0  0  0  0
  160.4460  201.9300  146.2600 O   0  0  0  0  0  0  0  0  0  0  0  0
  161.9560  200.5800  149.2590 C   0  0  0  0  0  1  0  0  0  0  0  0
  161.1820  201.6640  148.5380 C   0  0  2  0  0  0  0  0  0  0  0  0
  158.9210  201.7400  149.3860 N   0  0  0  0  0  2  0  0  0  0  0  0
  159.3030  201.5880  147.0080 C   0  0  0  0  0  2  0  0  0  0  0  0
  1 19  1  6  0  0  0
  1 20  1  0  0  0  0
  2 17  1  0  0  0  0
  4  9  2  0  0  0  0
  5 11  1  6  0  0  0
  5  7  1  0  0  0  0
  6 16  1  0  0  0  0
  7  4  1  0  0  0  0
  7  2  2  0  0  0  0
  8 12  1  0  0  0  0
  9  6  1  0  0  0  0
 10 15  1  6  0  0  0
 10 20  1  0  0  0  0
 10 14  1  0  0  0  0
 12  4  1  0  0  0  0
 13 19  1  0  0  0  0
 13 15  1  0  0  0  0
 14  3  1  6  0  0  0
 14 18  1  0  0  0  0
 17  6  2  0  0  0  0
 18  5  1  0  0  0  0
 18  8  1  1  0  0  0
 20 11  1  1  0  0  0
 21  1  1  6  0  0  0
 21 26  1  0  0  0  0
 22 24  1  6  0  0  0
 22 21  1  0  0  0  0
 22 26  1  0  0  0  0
 23 26  1  0  0  0  0
 23 27  2  0  0  0  0
 24 28  1  0  0  0  0
 26 25  1  1  0  0  0
 28 23  1  0  0  0  0
M  END
>  <MODEL>
9

>  <REMARK>
 VINA RESULT:      -4.8      1.931      4.426
  Name = 
  1 active torsions:
  status: ('A' for Active; 'I' for Inactive)
    1  A    between atoms: C_1  and  C_2
                            x       y       z     vdW  Elec       q    Type
                         _______ _______ _______ _____ _____    ______ ____

>  <TORSDO>
F 1

$$$$
