=
 OpenBabel11062409533D

 43 49  0  0  1  0  0  0  0  0999 V2000
  161.1040  202.9380  148.4590 C   0  0  0  0  0  0  0  0  0  0  0  0
  161.7260  207.9330  149.0580 C   0  0  0  0  0  0  0  0  0  0  0  0
  161.2740  208.4860  151.7790 C   0  0  0  0  0  0  0  0  0  0  0  0
  161.5090  205.3000  148.0900 C   0  0  0  0  0  0  0  0  0  0  0  0
  160.8630  203.1850  149.8140 C   0  0  0  0  0  3  0  0  0  0  0  0
  161.0050  201.3030  147.8410 Cl  0  0  0  0  0  0  0  0  0  0  0  0
  161.2710  205.5600  149.4620 C   0  0  0  0  0  0  0  0  0  0  0  0
  161.4240  203.9940  147.5990 C   0  0  0  0  0  3  0  0  0  0  0  0
  160.9450  204.4880  150.3130 C   0  0  0  0  0  3  0  0  0  0  0  0
  161.1410  207.1780  151.2980 C   0  0  0  0  0  3  0  0  0  0  0  0
  161.3740  206.8820  149.9470 C   0  0  0  0  0  0  0  0  0  0  0  0
  161.9480  207.6490  147.7040 C   0  0  0  0  0  3  0  0  0  0  0  0
  161.8530  209.2500  149.5380 C   0  0  0  0  0  0  0  0  0  0  0  0
  161.6260  209.5110  150.8970 C   0  0  0  0  0  3  0  0  0  0  0  0
  161.8380  206.3440  147.2230 C   0  0  0  0  0  3  0  0  0  0  0  0
  162.1980  210.3180  148.6420 N   0  0  0  0  0  2  0  0  0  0  0  0
  162.6870  212.5930  146.7050 C   0  0  0  0  0  2  0  0  0  0  0  0
  161.2590  213.1380  146.7010 C   0  0  1  0  0  0  0  0  0  0  0  0
  161.1930  214.4530  146.2120 O   0  0  0  0  0  0  0  0  0  0  0  0
  160.8390  212.3030  148.9820 C   0  0  0  0  0  3  0  0  0  0  0  0
  163.2080  212.5050  148.1430 C   0  0  0  0  0  2  0  0  0  0  0  0
  162.2320  211.7220  149.0370 C   0  0  2  0  0  3  0  0  0  0  0  0
  160.6250  213.4430  145.4070 C   0  0  0  0  0  2  0  0  0  0  0  0
  160.3740  212.9390  147.8950 C   0  0  0  0  0  3  0  0  0  0  0  0
  161.0140  208.8230  153.2240 C   0  0  1  0  0  3  0  0  0  0  0  0
  161.4440  207.6620  154.1160 C   0  0  0  0  0  2  0  0  0  0  0  0
  160.2880  207.2230  154.9950 C   0  0  0  0  0  1  0  0  0  0  0  0
  161.7130  210.0410  153.6210 N   0  0  0  0  0  2  0  0  0  0  0  0
  160.8150  210.7980  154.4820 C   0  0  0  0  0  2  0  0  0  0  0  0
  160.0970  211.8470  153.6500 C   0  0  0  0  0  2  0  0  0  0  0  0
  159.1260  212.5550  154.4700 N   0  0  0  0  0  0  0  0  0  0  0  0
  156.7940  211.8990  154.6700 C   0  0  0  0  0  2  0  0  0  0  0  0
  158.9430  211.7620  155.6790 C   0  0  0  0  0  2  0  0  0  0  0  0
  157.8480  212.5150  153.7580 C   0  0  1  0  0  3  0  0  0  0  0  0
  157.4660  211.7560  156.0090 C   0  0  0  0  0  2  0  0  0  0  0  0
  157.4570  213.9210  153.2940 C   0  0  2  0  0  3  0  0  0  0  0  0
  156.4430  214.4530  154.1010 O   0  0  0  0  0  1  0  0  0  0  0  0
  157.0460  213.9040  151.8940 N   0  0  0  0  0  0  0  0  0  0  0  0
  156.8120  212.4950  148.9240 F   0  0  0  0  0  0  0  0  0  0  0  0
  155.6620  214.1540  150.1340 C   0  0  0  0  0  3  0  0  0  0  0  0
  156.9700  213.7180  149.5510 C   0  0  1  0  0  3  0  0  0  0  0  0
  155.7470  214.2450  151.4480 C   0  0  0  0  0  3  0  0  0  0  0  0
  157.8850  213.5540  150.7640 C   0  0  0  0  0  2  0  0  0  0  0  0
  1  5  1  0  0  0  0
  2 13  2  0  0  0  0
  2 11  1  0  0  0  0
  3 25  1  0  0  0  0
  4  7  2  0  0  0  0
  5  9  2  0  0  0  0
  6  1  1  0  0  0  0
  7 11  1  0  0  0  0
  7  9  1  0  0  0  0
  8  4  1  0  0  0  0
  8  1  2  0  0  0  0
 10  3  1  0  0  0  0
 11 10  2  0  0  0  0
 12  2  1  0  0  0  0
 13 14  1  0  0  0  0
 14  3  2  0  0  0  0
 15 12  2  0  0  0  0
 15  4  1  0  0  0  0
 16 13  1  0  0  0  0
 17 21  1  0  0  0  0
 18 23  1  6  0  0  0
 18 17  1  0  0  0  0
 18 24  1  0  0  0  0
 19 18  1  0  0  0  0
 20 22  1  0  0  0  0
 21 22  1  0  0  0  0
 22 16  1  6  0  0  0
 23 19  1  0  0  0  0
 24 20  2  0  0  0  0
 25 28  1  0  0  0  0
 25 26  1  1  0  0  0
 26 27  1  0  0  0  0
 28 29  1  0  0  0  0
 30 31  1  0  0  0  0
 30 29  1  0  0  0  0
 31 33  1  0  0  0  0
 32 35  1  0  0  0  0
 33 35  1  0  0  0  0
 34 36  1  1  0  0  0
 34 31  1  0  0  0  0
 34 32  1  0  0  0  0
 36 37  1  1  0  0  0
 38 36  1  0  0  0  0
 40 42  2  0  0  0  0
 41 39  1  1  0  0  0
 41 40  1  0  0  0  0
 41 43  1  0  0  0  0
 42 38  1  0  0  0  0
 43 38  1  0  0  0  0
M  END
>  <MODEL>
1

>  <REMARK>
 VINA RESULT:      -9.5      0.000      0.000
  Name = 
  10 active torsions:
  status: ('A' for Active; 'I' for Inactive)
    1  A    between atoms: N_1  and  C_34
    2  A    between atoms: N_1  and  C_35
    3  A    between atoms: C_2  and  N_6
    4  A    between atoms: C_2  and  C_7
    5  A    between atoms: C_2  and  C_13
    6  A    between atoms: C_3  and  N_4
    7  A    between atoms: C_3  and  C_12
    8  A    between atoms: N_6  and  C_12
    9  A    between atoms: N_11  and  C_14
   10  A    between atoms: C_14  and  C_22
                            x       y       z     vdW  Elec       q    Type
                         _______ _______ _______ _____ _____    ______ ____

>  <TORSDO>
F 10

$$$$
=
 OpenBabel11062409533D

 43 49  0  0  1  0  0  0  0  0999 V2000
  161.0550  202.6920  148.2240 C   0  0  0  0  0  0  0  0  0  0  0  0
  161.7080  207.6570  149.0050 C   0  0  0  0  0  0  0  0  0  0  0  0
  161.2060  208.1210  151.7350 C   0  0  0  0  0  0  0  0  0  0  0  0
  161.4880  205.0610  147.9430 C   0  0  0  0  0  0  0  0  0  0  0  0
  160.7890  202.8950  149.5810 C   0  0  0  0  0  3  0  0  0  0  0  0
  160.9540  201.0800  147.5470 Cl  0  0  0  0  0  0  0  0  0  0  0  0
  161.2240  205.2770  149.3190 C   0  0  0  0  0  0  0  0  0  0  0  0
  161.4020  203.7740  147.4070 C   0  0  0  0  0  3  0  0  0  0  0  0
  160.8720  204.1790  150.1260 C   0  0  0  0  0  3  0  0  0  0  0  0
  161.0720  206.8310  151.2060 C   0  0  0  0  0  3  0  0  0  0  0  0
  161.3290  206.5800  149.8510 C   0  0  0  0  0  0  0  0  0  0  0  0
  161.9540  207.4180  147.6470 C   0  0  0  0  0  3  0  0  0  0  0  0
  161.8360  208.9560  149.5330 C   0  0  0  0  0  0  0  0  0  0  0  0
  161.5840  209.1730  150.8950 C   0  0  0  0  0  3  0  0  0  0  0  0
  161.8430  206.1310  147.1200 C   0  0  0  0  0  3  0  0  0  0  0  0
  162.2080  210.0510  148.6810 N   0  0  0  0  0  2  0  0  0  0  0  0
  163.1270  212.3570  146.9480 C   0  0  0  0  0  2  0  0  0  0  0  0
  161.7360  212.8540  146.5550 C   0  0  1  0  0  0  0  0  0  0  0  0
  161.7600  214.1700  146.0650 O   0  0  0  0  0  0  0  0  0  0  0  0
  160.7400  211.9860  148.6350 C   0  0  0  0  0  3  0  0  0  0  0  0
  163.2390  212.2750  148.4740 C   0  0  0  0  0  2  0  0  0  0  0  0
  162.0850  211.4520  149.0690 C   0  0  2  0  0  3  0  0  0  0  0  0
  161.4690  213.1480  145.1360 C   0  0  0  0  0  2  0  0  0  0  0  0
  160.5670  212.6150  147.4630 C   0  0  0  0  0  3  0  0  0  0  0  0
  160.9200  208.4110  153.1840 C   0  0  1  0  0  3  0  0  0  0  0  0
  161.0390  207.1310  154.0050 C   0  0  0  0  0  2  0  0  0  0  0  0
  160.3660  207.3100  155.3530 C   0  0  0  0  0  1  0  0  0  0  0  0
  161.8240  209.4280  153.7130 N   0  0  0  0  0  2  0  0  0  0  0  0
  161.0480  210.2810  154.6020 C   0  0  0  0  0  2  0  0  0  0  0  0
  160.5640  211.4940  153.8270 C   0  0  0  0  0  2  0  0  0  0  0  0
  159.2550  211.9050  154.3110 N   0  0  0  0  0  0  0  0  0  0  0  0
  158.3120  214.1160  153.9440 C   0  0  0  0  0  2  0  0  0  0  0  0
  158.3550  211.8690  153.1650 C   0  0  0  0  0  2  0  0  0  0  0  0
  159.3610  213.3110  154.7030 C   0  0  1  0  0  3  0  0  0  0  0  0
  157.4670  213.0910  153.2360 C   0  0  0  0  0  2  0  0  0  0  0  0
  159.2050  213.4510  156.2200 C   0  0  2  0  0  3  0  0  0  0  0  0
  160.0360  212.5480  156.8970 O   0  0  0  0  0  1  0  0  0  0  0  0
  157.8120  213.2630  156.6130 N   0  0  0  0  0  0  0  0  0  0  0  0
  154.5800  213.8350  156.3170 F   0  0  0  0  0  0  0  0  0  0  0  0
  155.9510  212.1280  157.1810 C   0  0  0  0  0  3  0  0  0  0  0  0
  155.5690  213.5750  157.2490 C   0  0  1  0  0  3  0  0  0  0  0  0
  157.2130  211.9980  156.8210 C   0  0  0  0  0  3  0  0  0  0  0  0
  156.8460  214.3170  156.8560 C   0  0  0  0  0  2  0  0  0  0  0  0
  1  5  1  0  0  0  0
  2 13  2  0  0  0  0
  2 11  1  0  0  0  0
  3 25  1  0  0  0  0
  4  7  2  0  0  0  0
  5  9  2  0  0  0  0
  6  1  1  0  0  0  0
  7 11  1  0  0  0  0
  7  9  1  0  0  0  0
  8  4  1  0  0  0  0
  8  1  2  0  0  0  0
 10  3  1  0  0  0  0
 11 10  2  0  0  0  0
 12  2  1  0  0  0  0
 13 14  1  0  0  0  0
 14  3  2  0  0  0  0
 15 12  2  0  0  0  0
 15  4  1  0  0  0  0
 16 13  1  0  0  0  0
 17 21  1  0  0  0  0
 18 23  1  6  0  0  0
 18 17  1  0  0  0  0
 18 24  1  0  0  0  0
 19 18  1  0  0  0  0
 20 22  1  0  0  0  0
 21 22  1  0  0  0  0
 22 16  1  6  0  0  0
 23 19  1  0  0  0  0
 24 20  2  0  0  0  0
 25 28  1  0  0  0  0
 25 26  1  1  0  0  0
 26 27  1  0  0  0  0
 28 29  1  0  0  0  0
 30 31  1  0  0  0  0
 30 29  1  0  0  0  0
 31 34  1  0  0  0  0
 32 34  1  0  0  0  0
 33 35  1  0  0  0  0
 33 31  1  0  0  0  0
 34 36  1  1  0  0  0
 35 32  1  0  0  0  0
 36 38  1  0  0  0  0
 36 37  1  1  0  0  0
 38 42  1  0  0  0  0
 38 43  1  0  0  0  0
 40 41  1  0  0  0  0
 41 39  1  6  0  0  0
 42 40  2  0  0  0  0
 43 41  1  0  0  0  0
M  END
>  <MODEL>
2

>  <REMARK>
 VINA RESULT:      -7.9      1.922      2.834
  Name = 
  10 active torsions:
  status: ('A' for Active; 'I' for Inactive)
    1  A    between atoms: N_1  and  C_34
    2  A    between atoms: N_1  and  C_35
    3  A    between atoms: C_2  and  N_6
    4  A    between atoms: C_2  and  C_7
    5  A    between atoms: C_2  and  C_13
    6  A    between atoms: C_3  and  N_4
    7  A    between atoms: C_3  and  C_12
    8  A    between atoms: N_6  and  C_12
    9  A    between atoms: N_11  and  C_14
   10  A    between atoms: C_14  and  C_22
                            x       y       z     vdW  Elec       q    Type
                         _______ _______ _______ _____ _____    ______ ____

>  <TORSDO>
F 10

$$$$
=
 OpenBabel11062409533D

 43 49  0  0  1  0  0  0  0  0999 V2000
  161.5730  204.3920  146.8510 C   0  0  0  0  0  0  0  0  0  0  0  0
  161.2110  207.5130  150.8280 C   0  0  0  0  0  0  0  0  0  0  0  0
  161.8340  210.0930  149.8930 C   0  0  0  0  0  0  0  0  0  0  0  0
  161.2560  205.3170  149.0700 C   0  0  0  0  0  0  0  0  0  0  0  0
  161.8980  205.6600  146.3620 C   0  0  0  0  0  3  0  0  0  0  0  0
  161.5640  203.0150  145.7680 Cl  0  0  0  0  0  0  0  0  0  0  0  0
  161.5800  206.6080  148.5820 C   0  0  0  0  0  0  0  0  0  0  0  0
  161.2550  204.2210  148.2030 C   0  0  0  0  0  3  0  0  0  0  0  0
  161.9020  206.7620  147.2210 C   0  0  0  0  0  3  0  0  0  0  0  0
  161.8810  209.0000  149.0190 C   0  0  0  0  0  3  0  0  0  0  0  0
  161.5620  207.7090  149.4650 C   0  0  0  0  0  0  0  0  0  0  0  0
  160.9040  206.2250  151.2860 C   0  0  0  0  0  3  0  0  0  0  0  0
  161.1700  208.6100  151.7100 C   0  0  0  0  0  0  0  0  0  0  0  0
  161.4820  209.8900  151.2300 C   0  0  0  0  0  3  0  0  0  0  0  0
  160.9290  205.1360  150.4140 C   0  0  0  0  0  3  0  0  0  0  0  0
  160.8270  208.4170  153.0910 N   0  0  0  0  0  2  0  0  0  0  0  0
  160.2250  211.0920  154.3750 C   0  0  0  0  0  2  0  0  0  0  0  0
  159.6640  210.5410  155.6860 C   0  0  1  0  0  0  0  0  0  0  0  0
  159.6460  211.5090  156.7050 O   0  0  0  0  0  0  0  0  0  0  0  0
  161.0230  208.4930  155.5110 C   0  0  0  0  0  3  0  0  0  0  0  0
  161.6180  210.5080  154.1180 C   0  0  0  0  0  2  0  0  0  0  0  0
  161.5970  208.9730  154.1990 C   0  0  2  0  0  3  0  0  0  0  0  0
  158.3960  211.0920  156.1960 C   0  0  0  0  0  2  0  0  0  0  0  0
  160.1110  209.2030  156.1930 C   0  0  0  0  0  3  0  0  0  0  0  0
  162.1860  211.4830  149.4340 C   0  0  1  0  0  3  0  0  0  0  0  0
  162.6710  211.4470  147.9880 C   0  0  0  0  0  2  0  0  0  0  0  0
  163.7870  212.4550  147.7860 C   0  0  0  0  0  1  0  0  0  0  0  0
  161.0490  212.3900  149.5560 N   0  0  0  0  0  2  0  0  0  0  0  0
  160.6640  212.7900  148.2110 C   0  0  0  0  0  2  0  0  0  0  0  0
  160.2440  214.2500  148.2290 C   0  0  0  0  0  2  0  0  0  0  0  0
  159.1050  214.4520  147.3450 N   0  0  0  0  0  0  0  0  0  0  0  0
  157.8980  212.6410  146.2620 C   0  0  0  0  0  2  0  0  0  0  0  0
  157.9130  214.1280  148.1180 C   0  0  0  0  0  2  0  0  0  0  0  0
  159.1940  213.4430  146.2890 C   0  0  1  0  0  3  0  0  0  0  0  0
  156.9780  213.3480  147.2210 C   0  0  0  0  0  2  0  0  0  0  0  0
  159.4840  214.1110  144.9410 C   0  0  2  0  0  3  0  0  0  0  0  0
  158.4190  213.9300  144.0500 O   0  0  0  0  0  1  0  0  0  0  0  0
  160.7260  213.5980  144.3710 N   0  0  0  0  0  0  0  0  0  0  0  0
  162.7910  213.0390  141.8640 F   0  0  0  0  0  0  0  0  0  0  0  0
  162.9460  213.2560  144.2020 C   0  0  0  0  0  3  0  0  0  0  0  0
  162.3410  212.5030  143.0580 C   0  0  1  0  0  3  0  0  0  0  0  0
  162.0090  213.8550  144.9110 C   0  0  0  0  0  3  0  0  0  0  0  0
  160.8400  212.7560  143.1960 C   0  0  0  0  0  2  0  0  0  0  0  0
  1  8  1  0  0  0  0
  2 12  1  0  0  0  0
  2 13  1  0  0  0  0
  3 14  1  0  0  0  0
  4 15  1  0  0  0  0
  5  1  2  0  0  0  0
  5  9  1  0  0  0  0
  6  1  1  0  0  0  0
  7  4  1  0  0  0  0
  7 11  1  0  0  0  0
  8  4  2  0  0  0  0
  9  7  2  0  0  0  0
 10 11  1  0  0  0  0
 10  3  2  0  0  0  0
 11  2  2  0  0  0  0
 13 16  1  0  0  0  0
 14 13  2  0  0  0  0
 15 12  2  0  0  0  0
 18 17  1  6  0  0  0
 18 24  1  0  0  0  0
 18 23  1  0  0  0  0
 18 19  1  0  0  0  0
 20 24  2  0  0  0  0
 21 22  1  0  0  0  0
 21 17  1  0  0  0  0
 22 16  1  6  0  0  0
 22 20  1  0  0  0  0
 23 19  1  0  0  0  0
 25 26  1  6  0  0  0
 25 28  1  0  0  0  0
 25  3  1  0  0  0  0
 27 26  1  0  0  0  0
 29 30  1  0  0  0  0
 29 28  1  0  0  0  0
 31 33  1  0  0  0  0
 31 30  1  0  0  0  0
 32 34  1  0  0  0  0
 32 35  1  0  0  0  0
 34 36  1  6  0  0  0
 34 31  1  0  0  0  0
 35 33  1  0  0  0  0
 36 37  1  6  0  0  0
 38 42  1  0  0  0  0
 38 36  1  0  0  0  0
 40 42  2  0  0  0  0
 41 39  1  6  0  0  0
 41 43  1  0  0  0  0
 41 40  1  0  0  0  0
 43 38  1  0  0  0  0
M  END
>  <MODEL>
3

>  <REMARK>
 VINA RESULT:      -7.7      2.564      6.813
  Name = 
  10 active torsions:
  status: ('A' for Active; 'I' for Inactive)
    1  A    between atoms: N_1  and  C_34
    2  A    between atoms: N_1  and  C_35
    3  A    between atoms: C_2  and  N_6
    4  A    between atoms: C_2  and  C_7
    5  A    between atoms: C_2  and  C_13
    6  A    between atoms: C_3  and  N_4
    7  A    between atoms: C_3  and  C_12
    8  A    between atoms: N_6  and  C_12
    9  A    between atoms: N_11  and  C_14
   10  A    between atoms: C_14  and  C_22
                            x       y       z     vdW  Elec       q    Type
                         _______ _______ _______ _____ _____    ______ ____

>  <TORSDO>
F 10

$$$$
=
 OpenBabel11062409533D

 43 49  0  0  1  0  0  0  0  0999 V2000
  161.2090  204.1080  148.0220 C   0  0  0  0  0  0  0  0  0  0  0  0
  161.9510  208.2180  150.8930 C   0  0  0  0  0  0  0  0  0  0  0  0
  161.8680  210.4390  149.1680 C   0  0  0  0  0  0  0  0  0  0  0  0
  161.6150  205.6160  149.8760 C   0  0  0  0  0  0  0  0  0  0  0  0
  161.1740  205.1910  147.1400 C   0  0  0  0  0  3  0  0  0  0  0  0
  160.9720  202.4820  147.4150 Cl  0  0  0  0  0  0  0  0  0  0  0  0
  161.5780  206.7220  148.9900 C   0  0  0  0  0  0  0  0  0  0  0  0
  161.4310  204.3200  149.3860 C   0  0  0  0  0  3  0  0  0  0  0  0
  161.3580  206.4910  147.6200 C   0  0  0  0  0  3  0  0  0  0  0  0
  161.7250  209.1440  148.6530 C   0  0  0  0  0  3  0  0  0  0  0  0
  161.7520  208.0270  149.5000 C   0  0  0  0  0  0  0  0  0  0  0  0
  161.9920  207.1060  151.7460 C   0  0  0  0  0  3  0  0  0  0  0  0
  162.1020  209.5180  151.4130 C   0  0  0  0  0  0  0  0  0  0  0  0
  162.0580  210.6160  150.5410 C   0  0  0  0  0  3  0  0  0  0  0  0
  161.8280  205.8160  151.2400 C   0  0  0  0  0  3  0  0  0  0  0  0
  162.3140  209.7160  152.8180 N   0  0  0  0  0  2  0  0  0  0  0  0
  160.2900  208.4990  154.7130 C   0  0  0  0  0  2  0  0  0  0  0  0
  161.0240  208.8430  156.0090 C   0  0  1  0  0  0  0  0  0  0  0  0
  160.1810  208.7810  157.1300 O   0  0  0  0  0  0  0  0  0  0  0  0
  162.1040  210.8050  154.9800 C   0  0  0  0  0  3  0  0  0  0  0  0
  160.0920  209.7650  153.8740 C   0  0  0  0  0  2  0  0  0  0  0  0
  161.4240  210.5040  153.6650 C   0  0  2  0  0  3  0  0  0  0  0  0
  161.1820  207.7920  157.0280 C   0  0  0  0  0  2  0  0  0  0  0  0
  161.9420  210.0270  156.0620 C   0  0  0  0  0  3  0  0  0  0  0  0
  161.8550  211.6480  148.2710 C   0  0  1  0  0  3  0  0  0  0  0  0
  163.2560  211.9040  147.7220 C   0  0  0  0  0  2  0  0  0  0  0  0
  163.7930  213.2200  148.2550 C   0  0  0  0  0  1  0  0  0  0  0  0
  160.9110  211.4870  147.1700 N   0  0  0  0  0  2  0  0  0  0  0  0
  160.9370  212.7150  146.3890 C   0  0  0  0  0  2  0  0  0  0  0  0
  159.9410  212.5980  145.2480 C   0  0  0  0  0  2  0  0  0  0  0  0
  160.3770  213.4100  144.1220 N   0  0  0  0  0  0  0  0  0  0  0  0
  159.7160  212.9910  141.8200 C   0  0  0  0  0  2  0  0  0  0  0  0
  159.2560  214.2730  143.7700 C   0  0  0  0  0  2  0  0  0  0  0  0
  160.5690  212.5060  142.9870 C   0  0  1  0  0  3  0  0  0  0  0  0
  159.1650  214.3210  142.2610 C   0  0  0  0  0  2  0  0  0  0  0  0
  162.0530  212.4260  142.6190 C   0  0  2  0  0  3  0  0  0  0  0  0
  162.6870  213.6600  142.8130 O   0  0  0  0  0  1  0  0  0  0  0  0
  162.2170  211.9730  141.2410 N   0  0  0  0  0  0  0  0  0  0  0  0
  164.0020  211.4370  138.5240 F   0  0  0  0  0  0  0  0  0  0  0  0
  162.0250  210.5870  139.4760 C   0  0  0  0  0  3  0  0  0  0  0  0
  162.7380  211.7970  138.9550 C   0  0  1  0  0  3  0  0  0  0  0  0
  161.7530  210.7260  140.7590 C   0  0  0  0  0  3  0  0  0  0  0  0
  162.8570  212.7140  140.1710 C   0  0  0  0  0  2  0  0  0  0  0  0
  1  8  1  0  0  0  0
  2 13  1  0  0  0  0
  2 12  1  0  0  0  0
  3 14  1  0  0  0  0
  4 15  1  0  0  0  0
  5  9  1  0  0  0  0
  5  1  2  0  0  0  0
  6  1  1  0  0  0  0
  7 11  1  0  0  0  0
  7  4  1  0  0  0  0
  8  4  2  0  0  0  0
  9  7  2  0  0  0  0
 10  3  2  0  0  0  0
 10 11  1  0  0  0  0
 11  2  2  0  0  0  0
 13 16  1  0  0  0  0
 14 13  2  0  0  0  0
 15 12  2  0  0  0  0
 18 17  1  6  0  0  0
 18 24  1  0  0  0  0
 18 23  1  0  0  0  0
 18 19  1  0  0  0  0
 20 24  2  0  0  0  0
 21 17  1  0  0  0  0
 22 16  1  6  0  0  0
 22 21  1  0  0  0  0
 22 20  1  0  0  0  0
 23 19  1  0  0  0  0
 25 26  1  6  0  0  0
 25  3  1  0  0  0  0
 26 27  1  0  0  0  0
 28 25  1  0  0  0  0
 29 28  1  0  0  0  0
 30 29  1  0  0  0  0
 31 30  1  0  0  0  0
 32 35  1  0  0  0  0
 32 34  1  0  0  0  0
 33 31  1  0  0  0  0
 34 36  1  6  0  0  0
 34 31  1  0  0  0  0
 35 33  1  0  0  0  0
 36 37  1  6  0  0  0
 38 36  1  0  0  0  0
 40 42  2  0  0  0  0
 41 39  1  1  0  0  0
 41 40  1  0  0  0  0
 41 43  1  0  0  0  0
 42 38  1  0  0  0  0
 43 38  1  0  0  0  0
M  END
>  <MODEL>
4

>  <REMARK>
 VINA RESULT:      -7.4      3.653      8.591
  Name = 
  10 active torsions:
  status: ('A' for Active; 'I' for Inactive)
    1  A    between atoms: N_1  and  C_34
    2  A    between atoms: N_1  and  C_35
    3  A    between atoms: C_2  and  N_6
    4  A    between atoms: C_2  and  C_7
    5  A    between atoms: C_2  and  C_13
    6  A    between atoms: C_3  and  N_4
    7  A    between atoms: C_3  and  C_12
    8  A    between atoms: N_6  and  C_12
    9  A    between atoms: N_11  and  C_14
   10  A    between atoms: C_14  and  C_22
                            x       y       z     vdW  Elec       q    Type
                         _______ _______ _______ _____ _____    ______ ____

>  <TORSDO>
F 10

$$$$
=
 OpenBabel11062409533D

 43 49  0  0  1  0  0  0  0  0999 V2000
  161.1410  202.5480  147.2580 C   0  0  0  0  0  0  0  0  0  0  0  0
  161.7440  207.4160  148.5310 C   0  0  0  0  0  0  0  0  0  0  0  0
  161.3200  207.5870  151.3080 C   0  0  0  0  0  0  0  0  0  0  0  0
  161.5300  204.9410  147.2130 C   0  0  0  0  0  0  0  0  0  0  0  0
  160.9140  202.6050  148.6350 C   0  0  0  0  0  3  0  0  0  0  0  0
  161.0430  201.0130  146.4200 Cl  0  0  0  0  0  0  0  0  0  0  0  0
  161.3060  205.0080  148.6100 C   0  0  0  0  0  0  0  0  0  0  0  0
  161.4460  203.7140  146.5480 C   0  0  0  0  0  3  0  0  0  0  0  0
  160.9950  203.8270  149.3090 C   0  0  0  0  0  3  0  0  0  0  0  0
  161.1890  206.3570  150.6520 C   0  0  0  0  0  3  0  0  0  0  0  0
  161.4080  206.2510  149.2710 C   0  0  0  0  0  0  0  0  0  0  0  0
  161.9520  207.3230  147.1490 C   0  0  0  0  0  3  0  0  0  0  0  0
  161.8700  208.6560  149.1870 C   0  0  0  0  0  0  0  0  0  0  0  0
  161.6560  208.7260  150.5720 C   0  0  0  0  0  3  0  0  0  0  0  0
  161.8440  206.0960  146.4940 C   0  0  0  0  0  3  0  0  0  0  0  0
  162.1990  209.8390  148.4440 N   0  0  0  0  0  2  0  0  0  0  0  0
  163.3730  212.3400  147.2050 C   0  0  0  0  0  2  0  0  0  0  0  0
  162.1010  212.8080  146.4990 C   0  0  1  0  0  0  0  0  0  0  0  0
  162.1590  214.1640  146.1400 O   0  0  0  0  0  0  0  0  0  0  0  0
  160.6630  211.7010  148.1660 C   0  0  0  0  0  3  0  0  0  0  0  0
  163.0920  212.1190  148.6940 C   0  0  0  0  0  2  0  0  0  0  0  0
  161.8820  211.1900  148.8960 C   0  0  2  0  0  3  0  0  0  0  0  0
  162.1900  213.2230  145.0880 C   0  0  0  0  0  2  0  0  0  0  0  0
  160.7560  212.4300  147.0430 C   0  0  0  0  0  3  0  0  0  0  0  0
  161.0750  207.7200  152.7880 C   0  0  1  0  0  3  0  0  0  0  0  0
  161.7880  206.5990  153.5370 C   0  0  0  0  0  2  0  0  0  0  0  0
  161.2030  205.2550  153.1450 C   0  0  0  0  0  1  0  0  0  0  0  0
  161.5220  209.0160  153.2880 N   0  0  0  0  0  2  0  0  0  0  0  0
  161.2810  209.0370  154.7230 C   0  0  0  0  0  2  0  0  0  0  0  0
  159.8620  209.5110  154.9810 C   0  0  0  0  0  2  0  0  0  0  0  0
  159.8330  210.9610  155.1000 N   0  0  0  0  0  0  0  0  0  0  0  0
  159.4000  212.1370  157.1840 C   0  0  0  0  0  2  0  0  0  0  0  0
  161.0970  211.3550  155.7110 C   0  0  0  0  0  2  0  0  0  0  0  0
  158.7890  211.2950  156.0700 C   0  0  1  0  0  3  0  0  0  0  0  0
  160.8020  212.4380  156.7250 C   0  0  0  0  0  2  0  0  0  0  0  0
  157.6310  212.0160  155.3730 C   0  0  2  0  0  3  0  0  0  0  0  0
  156.5160  211.1770  155.2520 O   0  0  0  0  0  1  0  0  0  0  0  0
  158.0480  212.5120  154.0650 N   0  0  0  0  0  0  0  0  0  0  0  0
  160.1960  213.9570  152.0260 F   0  0  0  0  0  0  0  0  0  0  0  0
  158.3870  212.4630  151.8390 C   0  0  0  0  0  3  0  0  0  0  0  0
  158.8430  213.8200  152.2800 C   0  0  1  0  0  3  0  0  0  0  0  0
  157.9510  211.7630  152.8690 C   0  0  0  0  0  3  0  0  0  0  0  0
  158.6060  213.8220  153.7890 C   0  0  0  0  0  2  0  0  0  0  0  0
  1  5  1  0  0  0  0
  2 13  2  0  0  0  0
  2 11  1  0  0  0  0
  3 25  1  0  0  0  0
  4  7  2  0  0  0  0
  5  9  2  0  0  0  0
  6  1  1  0  0  0  0
  7 11  1  0  0  0  0
  7  9  1  0  0  0  0
  8  4  1  0  0  0  0
  8  1  2  0  0  0  0
 10  3  1  0  0  0  0
 11 10  2  0  0  0  0
 12  2  1  0  0  0  0
 13 14  1  0  0  0  0
 14  3  2  0  0  0  0
 15 12  2  0  0  0  0
 15  4  1  0  0  0  0
 16 13  1  0  0  0  0
 17 21  1  0  0  0  0
 18 23  1  6  0  0  0
 18 24  1  0  0  0  0
 18 17  1  0  0  0  0
 19 18  1  0  0  0  0
 20 22  1  0  0  0  0
 21 22  1  0  0  0  0
 22 16  1  6  0  0  0
 23 19  1  0  0  0  0
 24 20  2  0  0  0  0
 25 28  1  0  0  0  0
 25 26  1  1  0  0  0
 27 26  1  0  0  0  0
 28 29  1  0  0  0  0
 29 30  1  0  0  0  0
 30 31  1  0  0  0  0
 31 33  1  0  0  0  0
 31 34  1  0  0  0  0
 33 35  1  0  0  0  0
 34 36  1  6  0  0  0
 34 32  1  0  0  0  0
 35 32  1  0  0  0  0
 36 37  1  6  0  0  0
 38 36  1  0  0  0  0
 40 41  1  0  0  0  0
 40 42  2  0  0  0  0
 41 39  1  1  0  0  0
 41 43  1  0  0  0  0
 42 38  1  0  0  0  0
 43 38  1  0  0  0  0
M  END
>  <MODEL>
5

>  <REMARK>
 VINA RESULT:      -7.3      1.666      2.082
  Name = 
  10 active torsions:
  status: ('A' for Active; 'I' for Inactive)
    1  A    between atoms: N_1  and  C_34
    2  A    between atoms: N_1  and  C_35
    3  A    between atoms: C_2  and  N_6
    4  A    between atoms: C_2  and  C_7
    5  A    between atoms: C_2  and  C_13
    6  A    between atoms: C_3  and  N_4
    7  A    between atoms: C_3  and  C_12
    8  A    between atoms: N_6  and  C_12
    9  A    between atoms: N_11  and  C_14
   10  A    between atoms: C_14  and  C_22
                            x       y       z     vdW  Elec       q    Type
                         _______ _______ _______ _____ _____    ______ ____

>  <TORSDO>
F 10

$$$$
=
 OpenBabel11062409533D

 43 49  0  0  1  0  0  0  0  0999 V2000
  161.3510  204.3100  147.0450 C   0  0  0  0  0  0  0  0  0  0  0  0
  161.6350  208.0000  150.5090 C   0  0  0  0  0  0  0  0  0  0  0  0
  161.8660  210.4220  149.0960 C   0  0  0  0  0  0  0  0  0  0  0  0
  161.4520  205.5600  149.1210 C   0  0  0  0  0  0  0  0  0  0  0  0
  161.4770  205.4970  146.3180 C   0  0  0  0  0  3  0  0  0  0  0  0
  161.2050  202.7820  146.2020 Cl  0  0  0  0  0  0  0  0  0  0  0  0
  161.5760  206.7690  148.3920 C   0  0  0  0  0  0  0  0  0  0  0  0
  161.3410  204.3420  148.4440 C   0  0  0  0  0  3  0  0  0  0  0  0
  161.5890  206.7190  146.9860 C   0  0  0  0  0  3  0  0  0  0  0  0
  161.8000  209.2080  148.4010 C   0  0  0  0  0  3  0  0  0  0  0  0
  161.6730  207.9930  149.0880 C   0  0  0  0  0  0  0  0  0  0  0  0
  161.5210  206.7890  151.2040 C   0  0  0  0  0  3  0  0  0  0  0  0
  161.7080  209.2190  151.2100 C   0  0  0  0  0  0  0  0  0  0  0  0
  161.8230  210.4190  150.4920 C   0  0  0  0  0  3  0  0  0  0  0  0
  161.4330  205.5790  150.5160 C   0  0  0  0  0  3  0  0  0  0  0  0
  161.6810  209.2320  152.6450 N   0  0  0  0  0  2  0  0  0  0  0  0
  161.5670  209.0150  155.6630 C   0  0  0  0  0  2  0  0  0  0  0  0
  161.4520  210.5130  155.9480 C   0  0  1  0  0  0  0  0  0  0  0  0
  160.9740  210.7720  157.2430 O   0  0  0  0  0  0  0  0  0  0  0  0
  160.3670  210.9340  153.7760 C   0  0  0  0  0  3  0  0  0  0  0  0
  160.4680  208.5850  154.6860 C   0  0  0  0  0  2  0  0  0  0  0  0
  160.4720  209.4680  153.4270 C   0  0  2  0  0  3  0  0  0  0  0  0
  162.3220  211.1010  156.9810 C   0  0  0  0  0  2  0  0  0  0  0  0
  160.8400  211.4280  154.9310 C   0  0  0  0  0  3  0  0  0  0  0  0
  162.0170  211.7350  148.3740 C   0  0  1  0  0  3  0  0  0  0  0  0
  163.4850  211.9780  148.0360 C   0  0  0  0  0  2  0  0  0  0  0  0
  163.8370  213.4380  148.2550 C   0  0  0  0  0  1  0  0  0  0  0  0
  161.2130  211.7700  147.1570 N   0  0  0  0  0  2  0  0  0  0  0  0
  161.1510  213.1560  146.7140 C   0  0  0  0  0  2  0  0  0  0  0  0
  160.6450  213.1970  145.2830 C   0  0  0  0  0  2  0  0  0  0  0  0
  161.7060  212.8090  144.3660 N   0  0  0  0  0  0  0  0  0  0  0  0
  162.3080  214.0790  142.3820 C   0  0  0  0  0  2  0  0  0  0  0  0
  162.8470  213.6660  144.6620 C   0  0  0  0  0  2  0  0  0  0  0  0
  161.2650  213.1670  143.0180 C   0  0  1  0  0  3  0  0  0  0  0  0
  163.4650  214.0840  143.3460 C   0  0  0  0  0  2  0  0  0  0  0  0
  161.0230  211.9030  142.1870 C   0  0  2  0  0  3  0  0  0  0  0  0
  162.1880  211.5140  141.5130 O   0  0  0  0  0  1  0  0  0  0  0  0
  159.9270  212.1090  141.2460 N   0  0  0  0  0  0  0  0  0  0  0  0
  157.5490  211.0340  139.2340 F   0  0  0  0  0  0  0  0  0  0  0  0
  158.0160  212.9940  140.4490 C   0  0  0  0  0  3  0  0  0  0  0  0
  158.4830  212.0430  139.3910 C   0  0  1  0  0  3  0  0  0  0  0  0
  158.8510  213.0010  141.4700 C   0  0  0  0  0  3  0  0  0  0  0  0
  159.7740  211.4570  139.9600 C   0  0  0  0  0  2  0  0  0  0  0  0
  1  8  1  0  0  0  0
  2 12  1  0  0  0  0
  2 13  1  0  0  0  0
  3 14  1  0  0  0  0
  4 15  1  0  0  0  0
  5  9  1  0  0  0  0
  5  1  2  0  0  0  0
  6  1  1  0  0  0  0
  7 11  1  0  0  0  0
  7  4  1  0  0  0  0
  8  4  2  0  0  0  0
  9  7  2  0  0  0  0
 10 11  1  0  0  0  0
 10  3  2  0  0  0  0
 11  2  2  0  0  0  0
 13 16  1  0  0  0  0
 14 13  2  0  0  0  0
 15 12  2  0  0  0  0
 17 18  1  0  0  0  0
 18 24  1  6  0  0  0
 18 23  1  0  0  0  0
 18 19  1  0  0  0  0
 20 24  2  0  0  0  0
 21 17  1  0  0  0  0
 22 16  1  1  0  0  0
 22 20  1  0  0  0  0
 22 21  1  0  0  0  0
 23 19  1  0  0  0  0
 25 26  1  6  0  0  0
 25  3  1  0  0  0  0
 26 27  1  0  0  0  0
 28 25  1  0  0  0  0
 29 28  1  0  0  0  0
 30 29  1  0  0  0  0
 31 33  1  0  0  0  0
 31 30  1  0  0  0  0
 32 34  1  0  0  0  0
 32 35  1  0  0  0  0
 34 36  1  6  0  0  0
 34 31  1  0  0  0  0
 35 33  1  0  0  0  0
 36 37  1  6  0  0  0
 38 42  1  0  0  0  0
 38 36  1  0  0  0  0
 40 42  2  0  0  0  0
 41 39  1  1  0  0  0
 41 43  1  0  0  0  0
 41 40  1  0  0  0  0
 43 38  1  0  0  0  0
M  END
>  <MODEL>
6

>  <REMARK>
 VINA RESULT:      -7.2      3.350      8.213
  Name = 
  10 active torsions:
  status: ('A' for Active; 'I' for Inactive)
    1  A    between atoms: N_1  and  C_34
    2  A    between atoms: N_1  and  C_35
    3  A    between atoms: C_2  and  N_6
    4  A    between atoms: C_2  and  C_7
    5  A    between atoms: C_2  and  C_13
    6  A    between atoms: C_3  and  N_4
    7  A    between atoms: C_3  and  C_12
    8  A    between atoms: N_6  and  C_12
    9  A    between atoms: N_11  and  C_14
   10  A    between atoms: C_14  and  C_22
                            x       y       z     vdW  Elec       q    Type
                         _______ _______ _______ _____ _____    ______ ____

>  <TORSDO>
F 10

$$$$
=
 OpenBabel11062409533D

 43 49  0  0  1  0  0  0  0  0999 V2000
  161.1870  202.3720  148.5090 C   0  0  0  0  0  0  0  0  0  0  0  0
  160.9360  205.8560  152.1810 C   0  0  0  0  0  0  0  0  0  0  0  0
  161.1450  208.3680  150.9310 C   0  0  0  0  0  0  0  0  0  0  0  0
  161.0270  203.4970  150.6500 C   0  0  0  0  0  0  0  0  0  0  0  0
  161.3050  203.6060  147.8620 C   0  0  0  0  0  3  0  0  0  0  0  0
  161.2100  200.8920  147.5730 Cl  0  0  0  0  0  0  0  0  0  0  0  0
  161.1410  204.7530  150.0040 C   0  0  0  0  0  0  0  0  0  0  0  0
  161.0510  202.3180  149.9000 C   0  0  0  0  0  3  0  0  0  0  0  0
  161.2820  204.7900  148.6050 C   0  0  0  0  0  3  0  0  0  0  0  0
  161.2150  207.1960  150.1680 C   0  0  0  0  0  3  0  0  0  0  0  0
  161.1010  205.9360  150.7720 C   0  0  0  0  0  0  0  0  0  0  0  0
  160.8350  204.6010  152.7960 C   0  0  0  0  0  3  0  0  0  0  0  0
  160.8730  207.0320  152.9520 C   0  0  0  0  0  0  0  0  0  0  0  0
  160.9770  208.2780  152.3160 C   0  0  0  0  0  3  0  0  0  0  0  0
  160.8820  203.4310  152.0370 C   0  0  0  0  0  3  0  0  0  0  0  0
  160.7170  206.9570  154.3780 N   0  0  0  0  0  2  0  0  0  0  0  0
  160.4430  209.9270  154.8980 C   0  0  0  0  0  2  0  0  0  0  0  0
  159.8290  209.8110  156.2930 C   0  0  1  0  0  0  0  0  0  0  0  0
  159.9300  211.0080  157.0210 O   0  0  0  0  0  0  0  0  0  0  0  0
  160.9350  207.6460  156.6970 C   0  0  0  0  0  3  0  0  0  0  0  0
  161.7550  209.1400  154.8390 C   0  0  0  0  0  2  0  0  0  0  0  0
  161.5540  207.6930  155.3200 C   0  0  2  0  0  3  0  0  0  0  0  0
  158.6380  210.6190  156.6080 C   0  0  0  0  0  2  0  0  0  0  0  0
  160.1170  208.6110  157.1450 C   0  0  0  0  0  3  0  0  0  0  0  0
  161.2790  209.7290  150.3000 C   0  0  1  0  0  3  0  0  0  0  0  0
  161.6670  210.7580  151.3580 C   0  0  0  0  0  2  0  0  0  0  0  0
  160.5250  211.7310  151.5830 C   0  0  0  0  0  1  0  0  0  0  0  0
  162.2660  209.7230  149.2250 N   0  0  0  0  0  2  0  0  0  0  0  0
  162.3640  211.0830  148.7160 C   0  0  0  0  0  2  0  0  0  0  0  0
  161.2270  211.3310  147.7410 C   0  0  0  0  0  2  0  0  0  0  0  0
  161.2900  212.6950  147.2370 N   0  0  0  0  0  0  0  0  0  0  0  0
  159.6420  213.6550  145.7290 C   0  0  0  0  0  2  0  0  0  0  0  0
  160.3200  213.4680  148.0020 C   0  0  0  0  0  2  0  0  0  0  0  0
  160.7980  212.6690  145.8590 C   0  0  1  0  0  3  0  0  0  0  0  0
  159.6050  214.3930  147.0410 C   0  0  0  0  0  2  0  0  0  0  0  0
  161.9360  212.9870  144.8850 C   0  0  2  0  0  3  0  0  0  0  0  0
  162.2520  214.3510  144.9070 O   0  0  0  0  0  1  0  0  0  0  0  0
  161.5880  212.5600  143.5330 N   0  0  0  0  0  0  0  0  0  0  0  0
  159.5830  212.4410  140.9200 F   0  0  0  0  0  0  0  0  0  0  0  0
  161.8880  212.1970  141.3300 C   0  0  0  0  0  3  0  0  0  0  0  0
  160.5080  211.6970  141.6300 C   0  0  1  0  0  3  0  0  0  0  0  0
  162.4570  212.6720  142.4210 C   0  0  0  0  0  3  0  0  0  0  0  0
  160.3330  211.9590  143.1250 C   0  0  0  0  0  2  0  0  0  0  0  0
  1  8  1  0  0  0  0
  2 12  1  0  0  0  0
  2 13  1  0  0  0  0
  3 14  1  0  0  0  0
  4 15  1  0  0  0  0
  5  1  2  0  0  0  0
  5  9  1  0  0  0  0
  6  1  1  0  0  0  0
  7  4  1  0  0  0  0
  7 11  1  0  0  0  0
  8  4  2  0  0  0  0
  9  7  2  0  0  0  0
 10 11  1  0  0  0  0
 10  3  2  0  0  0  0
 11  2  2  0  0  0  0
 13 16  1  0  0  0  0
 14 13  2  0  0  0  0
 15 12  2  0  0  0  0
 18 17  1  6  0  0  0
 18 23  1  0  0  0  0
 18 19  1  0  0  0  0
 18 24  1  0  0  0  0
 20 24  2  0  0  0  0
 21 17  1  0  0  0  0
 21 22  1  0  0  0  0
 22 16  1  6  0  0  0
 22 20  1  0  0  0  0
 23 19  1  0  0  0  0
 25  3  1  0  0  0  0
 25 26  1  1  0  0  0
 26 27  1  0  0  0  0
 28 25  1  0  0  0  0
 29 28  1  0  0  0  0
 30 29  1  0  0  0  0
 31 30  1  0  0  0  0
 31 33  1  0  0  0  0
 32 34  1  0  0  0  0
 32 35  1  0  0  0  0
 34 36  1  6  0  0  0
 34 31  1  0  0  0  0
 35 33  1  0  0  0  0
 36 37  1  6  0  0  0
 38 36  1  0  0  0  0
 40 41  1  0  0  0  0
 40 42  2  0  0  0  0
 41 39  1  6  0  0  0
 41 43  1  0  0  0  0
 42 38  1  0  0  0  0
 43 38  1  0  0  0  0
M  END
>  <MODEL>
7

>  <REMARK>
 VINA RESULT:      -7.1      2.891      7.201
  Name = 
  10 active torsions:
  status: ('A' for Active; 'I' for Inactive)
    1  A    between atoms: N_1  and  C_34
    2  A    between atoms: N_1  and  C_35
    3  A    between atoms: C_2  and  N_6
    4  A    between atoms: C_2  and  C_7
    5  A    between atoms: C_2  and  C_13
    6  A    between atoms: C_3  and  N_4
    7  A    between atoms: C_3  and  C_12
    8  A    between atoms: N_6  and  C_12
    9  A    between atoms: N_11  and  C_14
   10  A    between atoms: C_14  and  C_22
                            x       y       z     vdW  Elec       q    Type
                         _______ _______ _______ _____ _____    ______ ____

>  <TORSDO>
F 10

$$$$
=
 OpenBabel11062409533D

 43 49  0  0  1  0  0  0  0  0999 V2000
  161.9880  213.7090  146.4580 C   0  0  0  0  0  0  0  0  0  0  0  0
  159.7460  212.9220  150.9340 C   0  0  0  0  0  0  0  0  0  0  0  0
  161.0730  210.7510  152.1360 C   0  0  0  0  0  0  0  0  0  0  0  0
  160.5330  213.8360  148.3930 C   0  0  0  0  0  0  0  0  0  0  0  0
  162.6580  212.6220  147.0250 C   0  0  0  0  0  3  0  0  0  0  0  0
  162.4800  214.3160  144.8900 Cl  0  0  0  0  0  0  0  0  0  0  0  0
  161.2080  212.7370  148.9790 C   0  0  0  0  0  0  0  0  0  0  0  0
  160.9260  214.3140  147.1400 C   0  0  0  0  0  3  0  0  0  0  0  0
  162.2710  212.1380  148.2780 C   0  0  0  0  0  3  0  0  0  0  0  0
  161.4530  211.1870  150.8600 C   0  0  0  0  0  3  0  0  0  0  0  0
  160.8100  212.2750  150.2520 C   0  0  0  0  0  0  0  0  0  0  0  0
  159.0890  214.0010  150.3290 C   0  0  0  0  0  3  0  0  0  0  0  0
  159.3570  212.4810  152.2140 C   0  0  0  0  0  0  0  0  0  0  0  0
  160.0280  211.3980  152.8010 C   0  0  0  0  0  3  0  0  0  0  0  0
  159.4780  214.4530  149.0670 C   0  0  0  0  0  3  0  0  0  0  0  0
  158.2750  213.1230  152.9050 N   0  0  0  0  0  2  0  0  0  0  0  0
  155.8630  212.8800  154.7190 C   0  0  0  0  0  2  0  0  0  0  0  0
  156.3360  211.6450  155.4840 C   0  0  1  0  0  0  0  0  0  0  0  0
  155.6430  211.4710  156.6940 O   0  0  0  0  0  0  0  0  0  0  0  0
  158.7050  212.2120  155.1150 C   0  0  0  0  0  3  0  0  0  0  0  0
  156.9330  213.9740  154.7840 C   0  0  0  0  0  2  0  0  0  0  0  0
  158.3010  213.4370  154.3300 C   0  0  2  0  0  3  0  0  0  0  0  0
  155.3910  210.5300  155.6730 C   0  0  0  0  0  2  0  0  0  0  0  0
  157.8010  211.3660  155.6320 C   0  0  0  0  0  3  0  0  0  0  0  0
  161.7430  209.5760  152.7980 C   0  0  1  0  0  3  0  0  0  0  0  0
  160.7670  208.8850  153.7450 C   0  0  0  0  0  2  0  0  0  0  0  0
  161.1710  209.1370  155.1860 C   0  0  0  0  0  1  0  0  0  0  0  0
  162.2420  208.6210  151.8130 N   0  0  0  0  0  2  0  0  0  0  0  0
  161.5540  207.3590  152.0420 C   0  0  0  0  0  2  0  0  0  0  0  0
  161.8050  206.4360  150.8620 C   0  0  0  0  0  2  0  0  0  0  0  0
  160.9140  205.2870  150.9290 N   0  0  0  0  0  0  0  0  0  0  0  0
  161.6820  202.9990  151.2180 C   0  0  0  0  0  2  0  0  0  0  0  0
  160.8200  204.9140  152.3350 C   0  0  0  0  0  2  0  0  0  0  0  0
  161.5900  204.1770  150.2550 C   0  0  1  0  0  3  0  0  0  0  0  0
  160.8650  203.4040  152.4150 C   0  0  0  0  0  2  0  0  0  0  0  0
  160.8480  203.8110  148.9670 C   0  0  2  0  0  3  0  0  0  0  0  0
  161.0320  202.4590  148.6480 O   0  0  0  0  0  1  0  0  0  0  0  0
  161.2810  204.6640  147.8650 N   0  0  0  0  0  0  0  0  0  0  0  0
  161.9380  205.2440  144.6880 F   0  0  0  0  0  0  0  0  0  0  0  0
  161.3660  206.5150  146.5840 C   0  0  0  0  0  3  0  0  0  0  0  0
  162.3460  205.5630  145.9710 C   0  0  1  0  0  3  0  0  0  0  0  0
  160.7920  205.9730  147.6410 C   0  0  0  0  0  3  0  0  0  0  0  0
  162.2640  204.3200  146.8550 C   0  0  0  0  0  2  0  0  0  0  0  0
  1  5  2  0  0  0  0
  1  8  1  0  0  0  0
  2 13  1  0  0  0  0
  3 25  1  0  0  0  0
  3 14  1  0  0  0  0
  4  7  1  0  0  0  0
  4 15  1  0  0  0  0
  5  9  1  0  0  0  0
  6  1  1  0  0  0  0
  7 11  1  0  0  0  0
  8  4  2  0  0  0  0
  9  7  2  0  0  0  0
 10  3  2  0  0  0  0
 11 10  1  0  0  0  0
 11  2  2  0  0  0  0
 12  2  1  0  0  0  0
 13 14  2  0  0  0  0
 13 16  1  0  0  0  0
 15 12  2  0  0  0  0
 17 21  1  0  0  0  0
 18 17  1  6  0  0  0
 18 24  1  0  0  0  0
 18 23  1  0  0  0  0
 18 19  1  0  0  0  0
 20 24  2  0  0  0  0
 22 16  1  6  0  0  0
 22 21  1  0  0  0  0
 22 20  1  0  0  0  0
 23 19  1  0  0  0  0
 25 26  1  1  0  0  0
 26 27  1  0  0  0  0
 28 29  1  0  0  0  0
 28 25  1  0  0  0  0
 30 31  1  0  0  0  0
 30 29  1  0  0  0  0
 31 33  1  0  0  0  0
 32 35  1  0  0  0  0
 33 35  1  0  0  0  0
 34 36  1  6  0  0  0
 34 31  1  0  0  0  0
 34 32  1  0  0  0  0
 36 37  1  6  0  0  0
 38 36  1  0  0  0  0
 40 42  2  0  0  0  0
 41 39  1  6  0  0  0
 41 40  1  0  0  0  0
 41 43  1  0  0  0  0
 42 38  1  0  0  0  0
 43 38  1  0  0  0  0
M  END
>  <MODEL>
8

>  <REMARK>
 VINA RESULT:      -6.7      3.678      8.661
  Name = 
  10 active torsions:
  status: ('A' for Active; 'I' for Inactive)
    1  A    between atoms: N_1  and  C_34
    2  A    between atoms: N_1  and  C_35
    3  A    between atoms: C_2  and  N_6
    4  A    between atoms: C_2  and  C_7
    5  A    between atoms: C_2  and  C_13
    6  A    between atoms: C_3  and  N_4
    7  A    between atoms: C_3  and  C_12
    8  A    between atoms: N_6  and  C_12
    9  A    between atoms: N_11  and  C_14
   10  A    between atoms: C_14  and  C_22
                            x       y       z     vdW  Elec       q    Type
                         _______ _______ _______ _____ _____    ______ ____

>  <TORSDO>
F 10

$$$$
=
 OpenBabel11062409533D

 43 49  0  0  1  0  0  0  0  0999 V2000
  161.5320  212.4770  148.1490 C   0  0  0  0  0  0  0  0  0  0  0  0
  160.0600  211.9200  152.9660 C   0  0  0  0  0  0  0  0  0  0  0  0
  160.8900  209.3560  153.7760 C   0  0  0  0  0  0  0  0  0  0  0  0
  160.5800  212.8190  150.3520 C   0  0  0  0  0  0  0  0  0  0  0  0
  161.9460  211.1950  148.5200 C   0  0  0  0  0  3  0  0  0  0  0  0
  161.8720  213.0700  146.5360 Cl  0  0  0  0  0  0  0  0  0  0  0  0
  160.9990  211.5220  150.7390 C   0  0  0  0  0  0  0  0  0  0  0  0
  160.8490  213.2860  149.0620 C   0  0  0  0  0  3  0  0  0  0  0  0
  161.6810  210.7190  149.8070 C   0  0  0  0  0  3  0  0  0  0  0  0
  161.1290  209.7900  152.4670 C   0  0  0  0  0  3  0  0  0  0  0  0
  160.7330  211.0690  152.0490 C   0  0  0  0  0  0  0  0  0  0  0  0
  159.6480  213.1940  152.5540 C   0  0  0  0  0  3  0  0  0  0  0  0
  159.8110  211.4830  154.2820 C   0  0  0  0  0  0  0  0  0  0  0  0
  160.2310  210.2030  154.6720 C   0  0  0  0  0  3  0  0  0  0  0  0
  159.9040  213.6390  151.2570 C   0  0  0  0  0  3  0  0  0  0  0  0
  159.1210  212.3340  155.2090 N   0  0  0  0  0  2  0  0  0  0  0  0
  156.8250  214.3080  155.2230 C   0  0  0  0  0  2  0  0  0  0  0  0
  155.9930  213.6260  154.1360 C   0  0  1  0  0  0  0  0  0  0  0  0
  154.6530  214.0450  154.1500 O   0  0  0  0  0  0  0  0  0  0  0  0
  156.9370  211.4140  154.6770 C   0  0  0  0  0  3  0  0  0  0  0  0
  157.1580  213.3040  156.3310 C   0  0  0  0  0  2  0  0  0  0  0  0
  157.8000  212.0330  155.7510 C   0  0  2  0  0  3  0  0  0  0  0  0
  155.4390  214.4530  153.0510 C   0  0  0  0  0  2  0  0  0  0  0  0
  156.1160  212.1480  153.9110 C   0  0  0  0  0  3  0  0  0  0  0  0
  161.2960  207.9810  154.2370 C   0  0  1  0  0  3  0  0  0  0  0  0
  160.7030  207.6970  155.6140 C   0  0  0  0  0  2  0  0  0  0  0  0
  159.3630  206.9990  155.4710 C   0  0  0  0  0  1  0  0  0  0  0  0
  160.8730  206.9550  153.2900 N   0  0  0  0  0  2  0  0  0  0  0  0
  161.9660  206.0020  153.1620 C   0  0  0  0  0  2  0  0  0  0  0  0
  162.3380  205.8690  151.6960 C   0  0  0  0  0  2  0  0  0  0  0  0
  161.1900  205.4120  150.9280 N   0  0  0  0  0  0  0  0  0  0  0  0
  161.2950  203.6400  149.2670 C   0  0  0  0  0  2  0  0  0  0  0  0
  160.7620  204.1530  151.5270 C   0  0  0  0  0  2  0  0  0  0  0  0
  161.6700  205.0830  149.5860 C   0  0  1  0  0  3  0  0  0  0  0  0
  160.4110  203.2030  150.4040 C   0  0  0  0  0  2  0  0  0  0  0  0
  161.0950  206.0660  148.5620 C   0  0  2  0  0  3  0  0  0  0  0  0
  159.7060  206.1830  148.7020 O   0  0  0  0  0  1  0  0  0  0  0  0
  161.4450  205.6570  147.2050 N   0  0  0  0  0  0  0  0  0  0  0  0
  161.5320  206.0990  143.9410 F   0  0  0  0  0  0  0  0  0  0  0  0
  162.7530  204.8840  145.5440 C   0  0  0  0  0  3  0  0  0  0  0  0
  161.4160  205.1240  144.9150 C   0  0  1  0  0  3  0  0  0  0  0  0
  162.7270  205.1950  146.8250 C   0  0  0  0  0  3  0  0  0  0  0  0
  160.5530  205.6500  146.0610 C   0  0  0  0  0  2  0  0  0  0  0  0
  1  5  2  0  0  0  0
  1  8  1  0  0  0  0
  2 13  1  0  0  0  0
  3 25  1  0  0  0  0
  3 14  1  0  0  0  0
  4  7  1  0  0  0  0
  4 15  1  0  0  0  0
  5  9  1  0  0  0  0
  6  1  1  0  0  0  0
  7 11  1  0  0  0  0
  8  4  2  0  0  0  0
  9  7  2  0  0  0  0
 10  3  2  0  0  0  0
 11 10  1  0  0  0  0
 11  2  2  0  0  0  0
 12  2  1  0  0  0  0
 13 14  2  0  0  0  0
 13 16  1  0  0  0  0
 15 12  2  0  0  0  0
 17 21  1  0  0  0  0
 18 23  1  6  0  0  0
 18 19  1  0  0  0  0
 18 17  1  0  0  0  0
 20 22  1  0  0  0  0
 22 16  1  6  0  0  0
 22 21  1  0  0  0  0
 23 19  1  0  0  0  0
 24 18  1  0  0  0  0
 24 20  2  0  0  0  0
 25 26  1  1  0  0  0
 27 26  1  0  0  0  0
 28 25  1  0  0  0  0
 29 28  1  0  0  0  0
 30 29  1  0  0  0  0
 31 33  1  0  0  0  0
 31 30  1  0  0  0  0
 32 34  1  0  0  0  0
 32 35  1  0  0  0  0
 34 36  1  6  0  0  0
 34 31  1  0  0  0  0
 35 33  1  0  0  0  0
 36 37  1  6  0  0  0
 38 36  1  0  0  0  0
 40 42  2  0  0  0  0
 41 39  1  6  0  0  0
 41 40  1  0  0  0  0
 41 43  1  0  0  0  0
 42 38  1  0  0  0  0
 43 38  1  0  0  0  0
M  END
>  <MODEL>
9

>  <REMARK>
 VINA RESULT:      -6.7      3.242      8.301
  Name = 
  10 active torsions:
  status: ('A' for Active; 'I' for Inactive)
    1  A    between atoms: N_1  and  C_34
    2  A    between atoms: N_1  and  C_35
    3  A    between atoms: C_2  and  N_6
    4  A    between atoms: C_2  and  C_7
    5  A    between atoms: C_2  and  C_13
    6  A    between atoms: C_3  and  N_4
    7  A    between atoms: C_3  and  C_12
    8  A    between atoms: N_6  and  C_12
    9  A    between atoms: N_11  and  C_14
   10  A    between atoms: C_14  and  C_22
                            x       y       z     vdW  Elec       q    Type
                         _______ _______ _______ _____ _____    ______ ____

>  <TORSDO>
F 10

$$$$
