=
 OpenBabel11062407543D

 34 38  0  0  1  0  0  0  0  0999 V2000
  161.0830  203.0980  150.7090 C   0  0  0  0  0  0  0  0  0  0  0  0
  161.1000  203.7420  148.3560 C   0  0  0  0  0  0  0  0  0  0  0  0
  161.3020  205.4560  150.1560 C   0  0  0  0  0  0  0  0  0  0  0  0
  161.5190  207.7750  149.6530 C   0  0  0  0  0  0  0  0  0  0  0  0
  160.8850  201.4090  148.9850 C   0  0  0  0  0  3  0  0  0  0  0  0
  160.9620  202.3970  148.0040 C   0  0  0  0  0  3  0  0  0  0  0  0
  161.1620  204.1150  149.7230 C   0  0  0  0  0  0  0  0  0  0  0  0
  160.9450  201.7600  150.3330 C   0  0  0  0  0  3  0  0  0  0  0  0
  161.3560  205.7430  151.5410 C   0  0  0  0  0  0  0  0  0  0  0  0
  161.1400  203.4110  152.0290 N   0  0  0  0  0  0  0  0  0  0  0  0
  161.1690  204.6840  147.3360 O   0  0  0  0  0  1  0  0  0  0  0  0
  161.5760  208.0950  151.0080 C   0  0  0  0  0  3  0  0  0  0  0  0
  161.4950  207.0780  151.9670 C   0  0  0  0  0  0  0  0  0  0  0  0
  161.3880  206.4800  149.2630 N   0  0  0  0  0  0  0  0  0  0  0  0
  161.2720  204.6910  152.4580 C   0  0  0  0  0  3  0  0  0  0  0  0
  160.5570  207.0620  155.7130 C   0  0  2  0  0  3  0  0  0  0  0  0
  161.2530  208.2720  155.9690 O   0  0  0  0  0  0  0  0  0  0  0  0
  161.5520  207.4240  153.4280 C   0  0  2  0  0  3  0  0  0  0  0  0
  160.8530  209.2460  155.0330 C   0  0  0  0  0  2  0  0  0  0  0  0
  160.5010  206.6570  154.2290 C   0  0  0  0  0  2  0  0  0  0  0  0
  161.4410  208.9370  153.6530 C   0  0  0  0  0  2  0  0  0  0  0  0
  159.1670  207.0820  156.3250 C   0  0  0  0  0  1  0  0  0  0  0  0
  161.6340  208.8510  148.6280 C   0  0  0  0  0  2  0  0  0  0  0  0
  161.6670  210.5450  150.4530 C   0  0  0  0  0  1  0  0  0  0  0  0
  162.3690  210.0600  149.1990 C   0  0  2  0  0  3  0  0  0  0  0  0
  161.3120  211.7200  147.8840 C   0  0  0  0  0  3  0  0  0  0  0  0
  162.3950  211.1240  148.2300 N   0  0  0  0  0  0  0  0  0  0  0  0
  162.0160  214.4390  148.5690 O   0  0  0  0  0  1  0  0  0  0  0  0
  161.3370  212.8350  146.8790 C   0  0  2  0  0  3  0  0  0  0  0  0
  161.1270  214.2200  147.5130 C   0  0  1  0  0  3  0  0  0  0  0  0
  158.7680  214.2230  146.8630 N   0  0  0  0  0  2  0  0  0  0  0  0
  158.8700  212.8520  146.3700 C   0  0  0  0  0  2  0  0  0  0  0  0
  160.2700  212.5920  145.8080 C   0  0  0  0  0  2  0  0  0  0  0  0
  159.6840  214.3860  147.9910 C   0  0  0  0  0  2  0  0  0  0  0  0
  1 10  1  0  0  0  0
  2  7  1  0  0  0  0
  3  9  1  0  0  0  0
  4 12  2  0  0  0  0
  5  8  2  0  0  0  0
  6  2  2  0  0  0  0
  6  5  1  0  0  0  0
  7  3  1  0  0  0  0
  7  1  2  0  0  0  0
  8  1  1  0  0  0  0
  9 13  2  0  0  0  0
  9 15  1  0  0  0  0
 10 15  2  0  0  0  0
 11  2  1  0  0  0  0
 12 13  1  0  0  0  0
 14  4  1  0  0  0  0
 14  3  2  0  0  0  0
 16 17  1  0  0  0  0
 16 22  1  6  0  0  0
 18 13  1  6  0  0  0
 18 21  1  0  0  0  0
 18 20  1  0  0  0  0
 19 17  1  0  0  0  0
 20 16  1  0  0  0  0
 21 19  1  0  0  0  0
 23 25  1  0  0  0  0
 23  4  1  0  0  0  0
 25 24  1  1  0  0  0
 26 27  2  0  0  0  0
 27 25  1  0  0  0  0
 29 30  1  0  0  0  0
 29 26  1  1  0  0  0
 30 34  1  0  0  0  0
 30 28  1  1  0  0  0
 31 34  1  0  0  0  0
 32 31  1  0  0  0  0
 33 32  1  0  0  0  0
 33 29  1  0  0  0  0
M  END
>  <MODEL>
1

>  <REMARK>
 VINA RESULT:      -9.7      0.000      0.000
  Name = 
  5 active torsions:
  status: ('A' for Active; 'I' for Inactive)
    1  A    between atoms: C_3  and  C_13
    2  A    between atoms: C_5  and  C_18
    3  A    between atoms: C_12  and  C_28
    4  A    between atoms: N_17  and  C_29
    5  A    between atoms: C_18  and  C_29
                            x       y       z     vdW  Elec       q    Type
                         _______ _______ _______ _____ _____    ______ ____

>  <TORSDO>
F 5

$$$$
=
 OpenBabel11062407543D

 34 38  0  0  1  0  0  0  0  0999 V2000
  160.8670  207.5450  154.1540 C   0  0  0  0  0  0  0  0  0  0  0  0
  160.7500  209.9660  154.4290 C   0  0  0  0  0  0  0  0  0  0  0  0
  161.3080  208.9520  152.2210 C   0  0  0  0  0  0  0  0  0  0  0  0
  161.7450  210.2980  150.3030 C   0  0  0  0  0  0  0  0  0  0  0  0
  160.3230  208.4980  156.3120 C   0  0  0  0  0  3  0  0  0  0  0  0
  160.4260  209.7810  155.7760 C   0  0  0  0  0  3  0  0  0  0  0  0
  160.9770  208.8440  153.5930 C   0  0  0  0  0  0  0  0  0  0  0  0
  160.5430  207.3850  155.5030 C   0  0  0  0  0  3  0  0  0  0  0  0
  161.5200  207.7800  151.4560 C   0  0  0  0  0  0  0  0  0  0  0  0
  161.0750  206.4430  153.3890 N   0  0  0  0  0  0  0  0  0  0  0  0
  160.8420  211.2680  153.9490 O   0  0  0  0  0  1  0  0  0  0  0  0
  161.9600  209.1660  149.5190 C   0  0  0  0  0  3  0  0  0  0  0  0
  161.8480  207.8930  150.0910 C   0  0  0  0  0  0  0  0  0  0  0  0
  161.4250  210.1670  151.6170 N   0  0  0  0  0  0  0  0  0  0  0  0
  161.3950  206.5320  152.0740 C   0  0  0  0  0  3  0  0  0  0  0  0
  162.4370  205.7600  146.9260 C   0  0  2  0  0  3  0  0  0  0  0  0
  162.0730  204.5540  147.5800 O   0  0  0  0  0  0  0  0  0  0  0  0
  162.0850  206.6730  149.2470 C   0  0  2  0  0  3  0  0  0  0  0  0
  160.8320  204.7310  148.2260 C   0  0  0  0  0  2  0  0  0  0  0  0
  162.2350  207.0320  147.7690 C   0  0  0  0  0  2  0  0  0  0  0  0
  160.9940  205.6170  149.4630 C   0  0  0  0  0  2  0  0  0  0  0  0
  161.7510  205.8870  145.5770 C   0  0  0  0  0  1  0  0  0  0  0  0
  161.8340  211.6540  149.6920 C   0  0  0  0  0  2  0  0  0  0  0  0
  163.5080  212.0090  147.8830 C   0  0  0  0  0  1  0  0  0  0  0  0
  162.0950  211.5520  148.1930 C   0  0  2  0  0  3  0  0  0  0  0  0
  160.4580  213.2590  148.0880 C   0  0  0  0  0  3  0  0  0  0  0  0
  161.1620  212.3790  147.4730 N   0  0  0  0  0  0  0  0  0  0  0  0
  157.9910  214.2250  149.2450 O   0  0  0  0  0  1  0  0  0  0  0  0
  159.4890  214.1270  147.3380 C   0  0  2  0  0  3  0  0  0  0  0  0
  158.0490  214.0140  147.8650 C   0  0  1  0  0  3  0  0  0  0  0  0
  157.4490  212.4760  146.0600 N   0  0  0  0  0  2  0  0  0  0  0  0
  158.8340  212.4310  145.5950 C   0  0  0  0  0  2  0  0  0  0  0  0
  159.5220  213.7750  145.8490 C   0  0  0  0  0  2  0  0  0  0  0  0
  157.4460  212.6550  147.5110 C   0  0  0  0  0  2  0  0  0  0  0  0
  1  8  2  0  0  0  0
  2  6  1  0  0  0  0
  3  7  1  0  0  0  0
  4 14  2  0  0  0  0
  6  5  2  0  0  0  0
  7  1  1  0  0  0  0
  7  2  2  0  0  0  0
  8  5  1  0  0  0  0
  9 15  1  0  0  0  0
  9  3  2  0  0  0  0
 10  1  1  0  0  0  0
 11  2  1  0  0  0  0
 12 13  2  0  0  0  0
 12  4  1  0  0  0  0
 13  9  1  0  0  0  0
 14  3  1  0  0  0  0
 15 10  2  0  0  0  0
 16 22  1  6  0  0  0
 16 17  1  0  0  0  0
 16 20  1  0  0  0  0
 17 19  1  0  0  0  0
 18 21  1  0  0  0  0
 18 13  1  1  0  0  0
 19 21  1  0  0  0  0
 20 18  1  0  0  0  0
 23  4  1  0  0  0  0
 25 24  1  1  0  0  0
 25 23  1  0  0  0  0
 27 26  2  0  0  0  0
 27 25  1  0  0  0  0
 29 30  1  0  0  0  0
 29 26  1  1  0  0  0
 30 28  1  1  0  0  0
 31 34  1  0  0  0  0
 32 33  1  0  0  0  0
 32 31  1  0  0  0  0
 33 29  1  0  0  0  0
 34 30  1  0  0  0  0
M  END
>  <MODEL>
2

>  <REMARK>
 VINA RESULT:      -9.6      1.970      5.709
  Name = 
  5 active torsions:
  status: ('A' for Active; 'I' for Inactive)
    1  A    between atoms: C_3  and  C_13
    2  A    between atoms: C_5  and  C_18
    3  A    between atoms: C_12  and  C_28
    4  A    between atoms: N_17  and  C_29
    5  A    between atoms: C_18  and  C_29
                            x       y       z     vdW  Elec       q    Type
                         _______ _______ _______ _____ _____    ______ ____

>  <TORSDO>
F 5

$$$$
=
 OpenBabel11062407543D

 34 38  0  0  1  0  0  0  0  0999 V2000
  161.9930  208.8550  149.2400 C   0  0  0  0  0  0  0  0  0  0  0  0
  161.5350  210.2860  151.1620 C   0  0  0  0  0  0  0  0  0  0  0  0
  161.4840  207.8020  151.3720 C   0  0  0  0  0  0  0  0  0  0  0  0
  160.9910  206.7340  153.4440 C   0  0  0  0  0  0  0  0  0  0  0  0
  162.0500  211.2640  149.0020 C   0  0  0  0  0  3  0  0  0  0  0  0
  161.7280  211.4080  150.3510 C   0  0  0  0  0  3  0  0  0  0  0  0
  161.6640  208.9840  150.6140 C   0  0  0  0  0  0  0  0  0  0  0  0
  162.1810  209.9910  148.4490 C   0  0  0  0  0  3  0  0  0  0  0  0
  161.6320  206.5400  150.7470 C   0  0  0  0  0  0  0  0  0  0  0  0
  162.1280  207.6270  148.6750 N   0  0  0  0  0  0  0  0  0  0  0  0
  161.2130  210.4890  152.4990 O   0  0  0  0  0  1  0  0  0  0  0  0
  161.1290  205.4740  152.8630 C   0  0  0  0  0  3  0  0  0  0  0  0
  161.4520  205.3670  151.5050 C   0  0  0  0  0  0  0  0  0  0  0  0
  161.1730  207.8530  152.6960 N   0  0  0  0  0  0  0  0  0  0  0  0
  161.9560  206.4870  149.3880 C   0  0  0  0  0  3  0  0  0  0  0  0
  160.6370  202.3260  149.2680 C   0  0  2  0  0  3  0  0  0  0  0  0
  161.4800  201.4590  150.0110 O   0  0  0  0  0  0  0  0  0  0  0  0
  161.5950  204.0090  150.8780 C   0  0  2  0  0  3  0  0  0  0  0  0
  161.1700  201.5700  151.3810 C   0  0  0  0  0  2  0  0  0  0  0  0
  160.4860  203.7380  149.8630 C   0  0  0  0  0  2  0  0  0  0  0  0
  161.6730  202.9040  151.9380 C   0  0  0  0  0  2  0  0  0  0  0  0
  159.2790  201.6950  149.0130 C   0  0  0  0  0  1  0  0  0  0  0  0
  160.6760  206.8530  154.8960 C   0  0  0  0  0  2  0  0  0  0  0  0
  161.8070  208.1800  156.6740 C   0  0  0  0  0  1  0  0  0  0  0  0
  160.9890  208.2590  155.3990 C   0  0  2  0  0  3  0  0  0  0  0  0
  159.7170  210.2490  155.5520 C   0  0  0  0  0  3  0  0  0  0  0  0
  159.7670  208.9710  155.6650 N   0  0  0  0  0  0  0  0  0  0  0  0
  158.1160  211.4370  153.4580 O   0  0  0  0  0  1  0  0  0  0  0  0
  158.4420  210.9940  155.8220 C   0  0  2  0  0  3  0  0  0  0  0  0
  158.1030  212.0200  154.7280 C   0  0  1  0  0  3  0  0  0  0  0  0
  158.9910  213.8500  156.0880 N   0  0  0  0  0  2  0  0  0  0  0  0
  159.4640  212.9090  157.1000 C   0  0  0  0  0  2  0  0  0  0  0  0
  158.5300  211.6990  157.1780 C   0  0  0  0  0  2  0  0  0  0  0  0
  159.0660  213.2060  154.7770 C   0  0  0  0  0  2  0  0  0  0  0  0
  1  7  1  0  0  0  0
  2 11  1  0  0  0  0
  3 14  1  0  0  0  0
  4 23  1  0  0  0  0
  5  6  1  0  0  0  0
  6  2  2  0  0  0  0
  7  2  1  0  0  0  0
  7  3  2  0  0  0  0
  8  5  2  0  0  0  0
  8  1  1  0  0  0  0
  9  3  1  0  0  0  0
  9 13  1  0  0  0  0
 10  1  2  0  0  0  0
 10 15  1  0  0  0  0
 12  4  1  0  0  0  0
 13 12  2  0  0  0  0
 14  4  2  0  0  0  0
 15  9  2  0  0  0  0
 16 22  1  1  0  0  0
 16 20  1  0  0  0  0
 16 17  1  0  0  0  0
 17 19  1  0  0  0  0
 18 13  1  1  0  0  0
 18 21  1  0  0  0  0
 19 21  1  0  0  0  0
 20 18  1  0  0  0  0
 23 25  1  0  0  0  0
 25 27  1  0  0  0  0
 25 24  1  1  0  0  0
 26 27  2  0  0  0  0
 29 26  1  6  0  0  0
 29 33  1  0  0  0  0
 30 28  1  6  0  0  0
 30 34  1  0  0  0  0
 30 29  1  0  0  0  0
 31 32  1  0  0  0  0
 32 33  1  0  0  0  0
 34 31  1  0  0  0  0
M  END
>  <MODEL>
3

>  <REMARK>
 VINA RESULT:      -9.4      3.017      7.197
  Name = 
  5 active torsions:
  status: ('A' for Active; 'I' for Inactive)
    1  A    between atoms: C_3  and  C_13
    2  A    between atoms: C_5  and  C_18
    3  A    between atoms: C_12  and  C_28
    4  A    between atoms: N_17  and  C_29
    5  A    between atoms: C_18  and  C_29
                            x       y       z     vdW  Elec       q    Type
                         _______ _______ _______ _____ _____    ______ ____

>  <TORSDO>
F 5

$$$$
=
 OpenBabel11062407543D

 34 38  0  0  1  0  0  0  0  0999 V2000
  161.3240  204.7560  148.9380 C   0  0  0  0  0  0  0  0  0  0  0  0
  160.8030  203.4850  150.9540 C   0  0  0  0  0  0  0  0  0  0  0  0
  161.2600  205.9340  151.0640 C   0  0  0  0  0  0  0  0  0  0  0  0
  161.2060  207.1220  153.1290 C   0  0  0  0  0  0  0  0  0  0  0  0
  160.8860  202.3790  148.7960 C   0  0  0  0  0  3  0  0  0  0  0  0
  160.6870  202.3300  150.1760 C   0  0  0  0  0  3  0  0  0  0  0  0
  161.1260  204.7230  150.3420 C   0  0  0  0  0  0  0  0  0  0  0  0
  161.2040  203.5880  148.1810 C   0  0  0  0  0  3  0  0  0  0  0  0
  161.5860  207.1270  150.3760 C   0  0  0  0  0  0  0  0  0  0  0  0
  161.6340  205.9210  148.3120 N   0  0  0  0  0  0  0  0  0  0  0  0
  160.5970  203.3770  152.3250 O   0  0  0  0  0  1  0  0  0  0  0  0
  161.5240  208.3170  152.4850 C   0  0  0  0  0  3  0  0  0  0  0  0
  161.7170  208.3300  151.0990 C   0  0  0  0  0  0  0  0  0  0  0  0
  161.0790  205.9750  152.4130 N   0  0  0  0  0  0  0  0  0  0  0  0
  161.7670  207.0870  148.9910 C   0  0  0  0  0  3  0  0  0  0  0  0
  161.5860  212.0790  150.1830 C   0  0  2  0  0  3  0  0  0  0  0  0
  162.2740  211.8800  148.9570 O   0  0  0  0  0  0  0  0  0  0  0  0
  162.0660  209.6160  150.4060 C   0  0  2  0  0  3  0  0  0  0  0  0
  161.6500  210.8420  148.2360 C   0  0  0  0  0  2  0  0  0  0  0  0
  161.2350  210.7840  150.9380 C   0  0  0  0  0  2  0  0  0  0  0  0
  161.9480  209.4870  148.8830 C   0  0  0  0  0  2  0  0  0  0  0  0
  160.3560  212.9480  149.9930 C   0  0  0  0  0  1  0  0  0  0  0  0
  160.9700  207.1090  154.6010 C   0  0  0  0  0  2  0  0  0  0  0  0
  161.7820  208.4280  156.5500 C   0  0  0  0  0  1  0  0  0  0  0  0
  161.1310  208.5100  155.1830 C   0  0  2  0  0  3  0  0  0  0  0  0
  159.7250  210.4140  155.1790 C   0  0  0  0  0  3  0  0  0  0  0  0
  159.8440  209.1420  155.3100 N   0  0  0  0  0  0  0  0  0  0  0  0
  158.2610  211.4430  152.9070 O   0  0  0  0  0  1  0  0  0  0  0  0
  158.3830  211.0760  155.3030 C   0  0  2  0  0  3  0  0  0  0  0  0
  158.0850  212.0520  154.1520 C   0  0  1  0  0  3  0  0  0  0  0  0
  158.7130  213.9670  155.5380 N   0  0  0  0  0  2  0  0  0  0  0  0
  159.1460  213.0840  156.6180 C   0  0  0  0  0  2  0  0  0  0  0  0
  158.2910  211.8140  156.6410 C   0  0  0  0  0  2  0  0  0  0  0  0
  158.9580  213.3020  154.2600 C   0  0  0  0  0  2  0  0  0  0  0  0
  1  7  1  0  0  0  0
  2 11  1  0  0  0  0
  3 14  1  0  0  0  0
  4 23  1  0  0  0  0
  5  6  1  0  0  0  0
  6  2  2  0  0  0  0
  7  2  1  0  0  0  0
  7  3  2  0  0  0  0
  8  5  2  0  0  0  0
  8  1  1  0  0  0  0
  9  3  1  0  0  0  0
  9 13  1  0  0  0  0
 10  1  2  0  0  0  0
 10 15  1  0  0  0  0
 12  4  1  0  0  0  0
 13 12  2  0  0  0  0
 14  4  2  0  0  0  0
 15  9  2  0  0  0  0
 16 22  1  6  0  0  0
 16 20  1  0  0  0  0
 17 16  1  0  0  0  0
 18 20  1  0  0  0  0
 18 13  1  1  0  0  0
 19 21  1  0  0  0  0
 19 17  1  0  0  0  0
 21 18  1  0  0  0  0
 23 25  1  0  0  0  0
 25 27  1  0  0  0  0
 25 24  1  1  0  0  0
 26 27  2  0  0  0  0
 29 26  1  6  0  0  0
 29 33  1  0  0  0  0
 30 28  1  6  0  0  0
 30 34  1  0  0  0  0
 30 29  1  0  0  0  0
 31 32  1  0  0  0  0
 32 33  1  0  0  0  0
 34 31  1  0  0  0  0
M  END
>  <MODEL>
4

>  <REMARK>
 VINA RESULT:      -9.3      2.970      5.942
  Name = 
  5 active torsions:
  status: ('A' for Active; 'I' for Inactive)
    1  A    between atoms: C_3  and  C_13
    2  A    between atoms: C_5  and  C_18
    3  A    between atoms: C_12  and  C_28
    4  A    between atoms: N_17  and  C_29
    5  A    between atoms: C_18  and  C_29
                            x       y       z     vdW  Elec       q    Type
                         _______ _______ _______ _____ _____    ______ ____

>  <TORSDO>
F 5

$$$$
=
 OpenBabel11062407543D

 34 38  0  0  1  0  0  0  0  0999 V2000
  161.3920  208.4110  153.0810 C   0  0  0  0  0  0  0  0  0  0  0  0
  161.1600  206.1460  152.2080 C   0  0  0  0  0  0  0  0  0  0  0  0
  161.5620  208.0740  150.6790 C   0  0  0  0  0  0  0  0  0  0  0  0
  161.7350  207.7820  148.3200 C   0  0  0  0  0  0  0  0  0  0  0  0
  161.0020  206.5610  154.5930 C   0  0  0  0  0  3  0  0  0  0  0  0
  160.9780  205.6790  153.5130 C   0  0  0  0  0  3  0  0  0  0  0  0
  161.3700  207.5280  151.9710 C   0  0  0  0  0  0  0  0  0  0  0  0
  161.2070  207.9220  154.3760 C   0  0  0  0  0  3  0  0  0  0  0  0
  161.7650  209.4660  150.5300 C   0  0  0  0  0  0  0  0  0  0  0  0
  161.5920  209.7420  152.8990 N   0  0  0  0  0  0  0  0  0  0  0  0
  161.1230  205.2220  151.1690 O   0  0  0  0  0  1  0  0  0  0  0  0
  161.9390  209.1480  148.1360 C   0  0  0  0  0  3  0  0  0  0  0  0
  161.9560  210.0050  149.2430 C   0  0  0  0  0  0  0  0  0  0  0  0
  161.5570  207.2820  149.5710 N   0  0  0  0  0  0  0  0  0  0  0  0
  161.7750  210.2790  151.6680 C   0  0  0  0  0  3  0  0  0  0  0  0
  161.1020  213.7180  148.6160 C   0  0  2  0  0  3  0  0  0  0  0  0
  162.4330  214.0390  148.2390 O   0  0  0  0  0  0  0  0  0  0  0  0
  162.1710  211.4780  149.0420 C   0  0  2  0  0  3  0  0  0  0  0  0
  162.8720  213.1260  147.2590 C   0  0  0  0  0  2  0  0  0  0  0  0
  160.8470  212.2200  148.8580 C   0  0  0  0  0  2  0  0  0  0  0  0
  163.1390  211.7540  147.8860 C   0  0  0  0  0  2  0  0  0  0  0  0
  160.0960  214.2890  147.6310 C   0  0  0  0  0  1  0  0  0  0  0  0
  161.7450  206.8620  147.1480 C   0  0  0  0  0  2  0  0  0  0  0  0
  163.3520  205.0780  146.4880 C   0  0  0  0  0  1  0  0  0  0  0  0
  162.3390  205.5100  147.5310 C   0  0  2  0  0  3  0  0  0  0  0  0
  161.5170  203.3870  148.1760 C   0  0  0  0  0  3  0  0  0  0  0  0
  161.2970  204.5210  147.6160 N   0  0  0  0  0  0  0  0  0  0  0  0
  161.4790  201.3280  150.2060 O   0  0  0  0  0  1  0  0  0  0  0  0
  160.4310  202.3550  148.2730 C   0  0  2  0  0  3  0  0  0  0  0  0
  160.8910  201.0620  148.9680 C   0  0  1  0  0  3  0  0  0  0  0  0
  161.2060  199.9490  146.8120 N   0  0  0  0  0  2  0  0  0  0  0  0
  160.9150  201.1870  146.0940 C   0  0  0  0  0  2  0  0  0  0  0  0
  159.9000  202.0270  146.8750 C   0  0  0  0  0  2  0  0  0  0  0  0
  161.8580  200.2810  148.0780 C   0  0  0  0  0  2  0  0  0  0  0  0
  1  8  2  0  0  0  0
  2  6  1  0  0  0  0
  3  7  1  0  0  0  0
  4 14  1  0  0  0  0
  6  5  2  0  0  0  0
  7  2  2  0  0  0  0
  7  1  1  0  0  0  0
  8  5  1  0  0  0  0
  9  3  1  0  0  0  0
  9 15  1  0  0  0  0
 10  1  1  0  0  0  0
 11  2  1  0  0  0  0
 12  4  2  0  0  0  0
 12 13  1  0  0  0  0
 13  9  2  0  0  0  0
 14  3  2  0  0  0  0
 15 10  2  0  0  0  0
 16 22  1  6  0  0  0
 16 20  1  0  0  0  0
 17 16  1  0  0  0  0
 18 13  1  6  0  0  0
 19 21  1  0  0  0  0
 19 17  1  0  0  0  0
 20 18  1  0  0  0  0
 21 18  1  0  0  0  0
 23 25  1  0  0  0  0
 23  4  1  0  0  0  0
 25 24  1  6  0  0  0
 25 27  1  0  0  0  0
 27 26  2  0  0  0  0
 29 26  1  6  0  0  0
 29 30  1  0  0  0  0
 30 28  1  1  0  0  0
 31 34  1  0  0  0  0
 32 31  1  0  0  0  0
 32 33  1  0  0  0  0
 33 29  1  0  0  0  0
 34 30  1  0  0  0  0
M  END
>  <MODEL>
5

>  <REMARK>
 VINA RESULT:      -9.3      2.444      8.086
  Name = 
  5 active torsions:
  status: ('A' for Active; 'I' for Inactive)
    1  A    between atoms: C_3  and  C_13
    2  A    between atoms: C_5  and  C_18
    3  A    between atoms: C_12  and  C_28
    4  A    between atoms: N_17  and  C_29
    5  A    between atoms: C_18  and  C_29
                            x       y       z     vdW  Elec       q    Type
                         _______ _______ _______ _____ _____    ______ ____

>  <TORSDO>
F 5

$$$$
=
 OpenBabel11062407543D

 34 38  0  0  1  0  0  0  0  0999 V2000
  161.1280  205.6360  150.8230 C   0  0  0  0  0  0  0  0  0  0  0  0
  161.5010  206.6910  148.6560 C   0  0  0  0  0  0  0  0  0  0  0  0
  161.4140  208.0490  150.7440 C   0  0  0  0  0  0  0  0  0  0  0  0
  161.6910  210.4160  150.7070 C   0  0  0  0  0  0  0  0  0  0  0  0
  161.2060  204.2880  148.8140 C   0  0  0  0  0  3  0  0  0  0  0  0
  161.4260  205.4340  148.0500 C   0  0  0  0  0  3  0  0  0  0  0  0
  161.3510  206.8110  150.0600 C   0  0  0  0  0  0  0  0  0  0  0  0
  161.0570  204.3900  150.1950 C   0  0  0  0  0  3  0  0  0  0  0  0
  161.2540  208.0820  152.1500 C   0  0  0  0  0  0  0  0  0  0  0  0
  160.9810  205.7060  152.1720 N   0  0  0  0  0  0  0  0  0  0  0  0
  161.7190  207.7990  147.8440 O   0  0  0  0  0  1  0  0  0  0  0  0
  161.5390  210.4860  152.0910 C   0  0  0  0  0  3  0  0  0  0  0  0
  161.3180  209.3160  152.8270 C   0  0  0  0  0  0  0  0  0  0  0  0
  161.6300  209.2150  150.0750 N   0  0  0  0  0  0  0  0  0  0  0  0
  161.0370  206.8850  152.8400 C   0  0  0  0  0  3  0  0  0  0  0  0
  159.6320  210.0130  156.2300 C   0  0  2  0  0  3  0  0  0  0  0  0
  160.8670  209.9950  156.9300 O   0  0  0  0  0  0  0  0  0  0  0  0
  161.1490  209.3940  154.3170 C   0  0  2  0  0  3  0  0  0  0  0  0
  161.7810  210.8500  156.2830 C   0  0  0  0  0  2  0  0  0  0  0  0
  159.7610  209.9070  154.7000 C   0  0  0  0  0  2  0  0  0  0  0  0
  162.2590  210.2270  154.9680 C   0  0  0  0  0  2  0  0  0  0  0  0
  158.7900  211.2140  156.6230 C   0  0  0  0  0  1  0  0  0  0  0  0
  161.9560  211.6550  149.9230 C   0  0  0  0  0  2  0  0  0  0  0  0
  163.3790  211.4920  147.8870 C   0  0  0  0  0  1  0  0  0  0  0  0
  161.9690  211.3530  148.4280 C   0  0  2  0  0  3  0  0  0  0  0  0
  160.3580  213.0860  148.3830 C   0  0  0  0  0  3  0  0  0  0  0  0
  161.1030  212.2680  147.7320 N   0  0  0  0  0  0  0  0  0  0  0  0
  157.7920  213.9240  149.4200 O   0  0  0  0  0  1  0  0  0  0  0  0
  159.4590  214.0470  147.6600 C   0  0  2  0  0  3  0  0  0  0  0  0
  157.9770  213.8810  148.0360 C   0  0  1  0  0  3  0  0  0  0  0  0
  157.5490  212.5790  146.0100 N   0  0  0  0  0  2  0  0  0  0  0  0
  158.9700  212.5800  145.6710 C   0  0  0  0  0  2  0  0  0  0  0  0
  159.6280  213.8780  146.1480 C   0  0  0  0  0  2  0  0  0  0  0  0
  157.4130  212.5800  147.4650 C   0  0  0  0  0  2  0  0  0  0  0  0
  1 10  1  0  0  0  0
  2  7  1  0  0  0  0
  3  9  1  0  0  0  0
  4 12  2  0  0  0  0
  5  8  2  0  0  0  0
  6  2  2  0  0  0  0
  6  5  1  0  0  0  0
  7  3  1  0  0  0  0
  7  1  2  0  0  0  0
  8  1  1  0  0  0  0
  9 13  2  0  0  0  0
  9 15  1  0  0  0  0
 10 15  2  0  0  0  0
 11  2  1  0  0  0  0
 12 13  1  0  0  0  0
 14  4  1  0  0  0  0
 14  3  2  0  0  0  0
 16 22  1  6  0  0  0
 16 17  1  0  0  0  0
 18 13  1  6  0  0  0
 18 20  1  0  0  0  0
 18 21  1  0  0  0  0
 19 17  1  0  0  0  0
 20 16  1  0  0  0  0
 21 19  1  0  0  0  0
 23  4  1  0  0  0  0
 25 24  1  6  0  0  0
 25 23  1  0  0  0  0
 27 26  2  0  0  0  0
 27 25  1  0  0  0  0
 29 30  1  0  0  0  0
 29 26  1  1  0  0  0
 30 28  1  1  0  0  0
 31 34  1  0  0  0  0
 32 31  1  0  0  0  0
 32 33  1  0  0  0  0
 33 29  1  0  0  0  0
 34 30  1  0  0  0  0
M  END
>  <MODEL>
6

>  <REMARK>
 VINA RESULT:      -9.1      1.892      2.692
  Name = 
  5 active torsions:
  status: ('A' for Active; 'I' for Inactive)
    1  A    between atoms: C_3  and  C_13
    2  A    between atoms: C_5  and  C_18
    3  A    between atoms: C_12  and  C_28
    4  A    between atoms: N_17  and  C_29
    5  A    between atoms: C_18  and  C_29
                            x       y       z     vdW  Elec       q    Type
                         _______ _______ _______ _____ _____    ______ ____

>  <TORSDO>
F 5

$$$$
=
 OpenBabel11062407543D

 34 38  0  0  1  0  0  0  0  0999 V2000
  161.0720  205.0040  150.1100 C   0  0  0  0  0  0  0  0  0  0  0  0
  161.6740  205.6400  147.8330 C   0  0  0  0  0  0  0  0  0  0  0  0
  161.5130  207.3490  149.6410 C   0  0  0  0  0  0  0  0  0  0  0  0
  161.9380  209.6560  149.2210 C   0  0  0  0  0  0  0  0  0  0  0  0
  161.2200  203.3200  148.3760 C   0  0  0  0  0  3  0  0  0  0  0  0
  161.5680  204.3010  147.4490 C   0  0  0  0  0  3  0  0  0  0  0  0
  161.4250  206.0140  149.1780 C   0  0  0  0  0  0  0  0  0  0  0  0
  160.9730  203.6720  149.7020 C   0  0  0  0  0  3  0  0  0  0  0  0
  161.2480  207.6370  151.0020 C   0  0  0  0  0  0  0  0  0  0  0  0
  160.8280  205.3180  151.4080 N   0  0  0  0  0  0  0  0  0  0  0  0
  162.0220  206.5760  146.8650 O   0  0  0  0  0  1  0  0  0  0  0  0
  161.6850  209.9770  150.5540 C   0  0  0  0  0  3  0  0  0  0  0  0
  161.3370  208.9670  151.4580 C   0  0  0  0  0  0  0  0  0  0  0  0
  161.8510  208.3670  148.8020 N   0  0  0  0  0  0  0  0  0  0  0  0
  160.9060  206.5920  151.8650 C   0  0  0  0  0  3  0  0  0  0  0  0
  159.7100  210.7160  154.4930 C   0  0  2  0  0  3  0  0  0  0  0  0
  160.7660  210.3460  155.3670 O   0  0  0  0  0  0  0  0  0  0  0  0
  161.0600  209.3140  152.8930 C   0  0  2  0  0  3  0  0  0  0  0  0
  161.9980  210.7030  154.7840 C   0  0  0  0  0  2  0  0  0  0  0  0
  159.9440  210.3510  153.0150 C   0  0  0  0  0  2  0  0  0  0  0  0
  162.3320  209.7660  153.6200 C   0  0  0  0  0  2  0  0  0  0  0  0
  159.3560  212.1850  154.6410 C   0  0  0  0  0  1  0  0  0  0  0  0
  162.3370  210.7230  148.2610 C   0  0  0  0  0  2  0  0  0  0  0  0
  160.7880  212.1510  149.5890 C   0  0  0  0  0  1  0  0  0  0  0  0
  162.1250  212.1040  148.8730 C   0  0  2  0  0  3  0  0  0  0  0  0
  161.2760  213.0940  146.8980 C   0  0  0  0  0  3  0  0  0  0  0  0
  162.1450  213.1090  147.8440 N   0  0  0  0  0  0  0  0  0  0  0  0
  159.0260  213.5890  145.1520 O   0  0  0  0  0  1  0  0  0  0  0  0
  161.2900  214.1460  145.8260 C   0  0  2  0  0  3  0  0  0  0  0  0
  160.3150  213.8430  144.6760 C   0  0  1  0  0  3  0  0  0  0  0  0
  162.1320  212.9730  143.2880 N   0  0  0  0  0  2  0  0  0  0  0  0
  163.0800  213.1050  144.3920 C   0  0  0  0  0  2  0  0  0  0  0  0
  162.7080  214.3020  145.2710 C   0  0  0  0  0  2  0  0  0  0  0  0
  160.8120  212.6660  143.8370 C   0  0  0  0  0  2  0  0  0  0  0  0
  1 10  1  0  0  0  0
  2  7  1  0  0  0  0
  3  9  1  0  0  0  0
  4 12  2  0  0  0  0
  5  8  2  0  0  0  0
  6  2  2  0  0  0  0
  6  5  1  0  0  0  0
  7  3  1  0  0  0  0
  7  1  2  0  0  0  0
  8  1  1  0  0  0  0
  9 13  2  0  0  0  0
  9 15  1  0  0  0  0
 10 15  2  0  0  0  0
 11  2  1  0  0  0  0
 12 13  1  0  0  0  0
 14  4  1  0  0  0  0
 14  3  2  0  0  0  0
 16 22  1  6  0  0  0
 16 17  1  0  0  0  0
 18 13  1  6  0  0  0
 18 20  1  0  0  0  0
 18 21  1  0  0  0  0
 19 17  1  0  0  0  0
 20 16  1  0  0  0  0
 21 19  1  0  0  0  0
 23 25  1  0  0  0  0
 23  4  1  0  0  0  0
 25 24  1  6  0  0  0
 26 27  2  0  0  0  0
 27 25  1  0  0  0  0
 29 26  1  1  0  0  0
 30 28  1  1  0  0  0
 30 29  1  0  0  0  0
 31 34  1  0  0  0  0
 31 32  1  0  0  0  0
 32 33  1  0  0  0  0
 33 29  1  0  0  0  0
 34 30  1  0  0  0  0
M  END
>  <MODEL>
7

>  <REMARK>
 VINA RESULT:      -9.1      2.008      2.793
  Name = 
  5 active torsions:
  status: ('A' for Active; 'I' for Inactive)
    1  A    between atoms: C_3  and  C_13
    2  A    between atoms: C_5  and  C_18
    3  A    between atoms: C_12  and  C_28
    4  A    between atoms: N_17  and  C_29
    5  A    between atoms: C_18  and  C_29
                            x       y       z     vdW  Elec       q    Type
                         _______ _______ _______ _____ _____    ______ ____

>  <TORSDO>
F 5

$$$$
=
 OpenBabel11062407543D

 34 38  0  0  1  0  0  0  0  0999 V2000
  161.1370  207.2660  153.3870 C   0  0  0  0  0  0  0  0  0  0  0  0
  160.9650  209.6610  153.8180 C   0  0  0  0  0  0  0  0  0  0  0  0
  161.4620  208.8030  151.5310 C   0  0  0  0  0  0  0  0  0  0  0  0
  161.7860  210.2780  149.6870 C   0  0  0  0  0  0  0  0  0  0  0  0
  160.6530  208.0670  155.6200 C   0  0  0  0  0  3  0  0  0  0  0  0
  160.7000  209.3830  155.1620 C   0  0  0  0  0  3  0  0  0  0  0  0
  161.1890  208.6000  152.9050 C   0  0  0  0  0  0  0  0  0  0  0  0
  160.8710  207.0130  154.7340 C   0  0  0  0  0  3  0  0  0  0  0  0
  161.6750  207.6870  150.6860 C   0  0  0  0  0  0  0  0  0  0  0  0
  161.3440  206.2200  152.5460 N   0  0  0  0  0  0  0  0  0  0  0  0
  161.0030  210.9920  153.4180 O   0  0  0  0  0  1  0  0  0  0  0  0
  162.0000  209.2030  148.8250 C   0  0  0  0  0  3  0  0  0  0  0  0
  161.9450  207.8940  149.3190 C   0  0  0  0  0  0  0  0  0  0  0  0
  161.5220  210.0560  151.0010 N   0  0  0  0  0  0  0  0  0  0  0  0
  161.6080  206.4000  151.2280 C   0  0  0  0  0  3  0  0  0  0  0  0
  161.9180  205.8290  146.0570 C   0  0  2  0  0  3  0  0  0  0  0  0
  162.1400  204.6050  146.7410 O   0  0  0  0  0  0  0  0  0  0  0  0
  162.1810  206.7370  148.3910 C   0  0  2  0  0  3  0  0  0  0  0  0
  161.2070  204.4840  147.7910 C   0  0  0  0  0  2  0  0  0  0  0  0
  161.7000  207.0460  146.9740 C   0  0  0  0  0  2  0  0  0  0  0  0
  161.5550  205.4450  148.9310 C   0  0  0  0  0  2  0  0  0  0  0  0
  160.7930  205.7010  145.0440 C   0  0  0  0  0  1  0  0  0  0  0  0
  161.8140  211.6710  149.1600 C   0  0  0  0  0  2  0  0  0  0  0  0
  164.0750  212.1950  148.2600 C   0  0  0  0  0  1  0  0  0  0  0  0
  162.6700  211.7530  147.9000 C   0  0  2  0  0  3  0  0  0  0  0  0
  160.8810  212.5770  146.5880 C   0  0  0  0  0  3  0  0  0  0  0  0
  162.0990  212.6970  146.9760 N   0  0  0  0  0  0  0  0  0  0  0  0
  158.2880  212.2030  145.3640 O   0  0  0  0  0  1  0  0  0  0  0  0
  160.2800  213.5650  145.6290 C   0  0  2  0  0  3  0  0  0  0  0  0
  159.2620  212.9260  144.6700 C   0  0  1  0  0  3  0  0  0  0  0  0
  160.9300  212.8130  142.8840 N   0  0  0  0  0  2  0  0  0  0  0  0
  161.9760  213.2830  143.7890 C   0  0  0  0  0  2  0  0  0  0  0  0
  161.3890  214.2460  144.8240 C   0  0  0  0  0  2  0  0  0  0  0  0
  159.9630  212.0290  143.6510 C   0  0  0  0  0  2  0  0  0  0  0  0
  1  8  2  0  0  0  0
  2  6  1  0  0  0  0
  3  7  1  0  0  0  0
  4 14  2  0  0  0  0
  6  5  2  0  0  0  0
  7  1  1  0  0  0  0
  7  2  2  0  0  0  0
  8  5  1  0  0  0  0
  9 15  1  0  0  0  0
  9  3  2  0  0  0  0
 10  1  1  0  0  0  0
 11  2  1  0  0  0  0
 12 13  2  0  0  0  0
 12  4  1  0  0  0  0
 13  9  1  0  0  0  0
 14  3  1  0  0  0  0
 15 10  2  0  0  0  0
 16 22  1  1  0  0  0
 16 17  1  0  0  0  0
 16 20  1  0  0  0  0
 17 19  1  0  0  0  0
 18 21  1  0  0  0  0
 18 13  1  1  0  0  0
 19 21  1  0  0  0  0
 20 18  1  0  0  0  0
 23  4  1  0  0  0  0
 25 24  1  1  0  0  0
 25 23  1  0  0  0  0
 26 27  2  0  0  0  0
 27 25  1  0  0  0  0
 29 26  1  1  0  0  0
 30 28  1  1  0  0  0
 30 29  1  0  0  0  0
 31 34  1  0  0  0  0
 31 32  1  0  0  0  0
 32 33  1  0  0  0  0
 33 29  1  0  0  0  0
 34 30  1  0  0  0  0
M  END
>  <MODEL>
8

>  <REMARK>
 VINA RESULT:      -9.0      2.202      5.850
  Name = 
  5 active torsions:
  status: ('A' for Active; 'I' for Inactive)
    1  A    between atoms: C_3  and  C_13
    2  A    between atoms: C_5  and  C_18
    3  A    between atoms: C_12  and  C_28
    4  A    between atoms: N_17  and  C_29
    5  A    between atoms: C_18  and  C_29
                            x       y       z     vdW  Elec       q    Type
                         _______ _______ _______ _____ _____    ______ ____

>  <TORSDO>
F 5

$$$$
=
 OpenBabel11062407543D

 34 38  0  0  1  0  0  0  0  0999 V2000
  159.1350  213.0410  153.2000 C   0  0  0  0  0  0  0  0  0  0  0  0
  159.6430  210.9400  154.3310 C   0  0  0  0  0  0  0  0  0  0  0  0
  160.4830  211.3900  152.0280 C   0  0  0  0  0  0  0  0  0  0  0  0
  161.8060  209.7980  150.8470 C   0  0  0  0  0  0  0  0  0  0  0  0
  158.3050  212.6340  155.4370 C   0  0  0  0  0  3  0  0  0  0  0  0
  158.9170  211.3820  155.4410 C   0  0  0  0  0  3  0  0  0  0  0  0
  159.7630  211.7680  153.1870 C   0  0  0  0  0  0  0  0  0  0  0  0
  158.4140  213.4600  154.3200 C   0  0  0  0  0  3  0  0  0  0  0  0
  160.5540  212.2770  150.9270 C   0  0  0  0  0  0  0  0  0  0  0  0
  159.2270  213.8660  152.1250 N   0  0  0  0  0  0  0  0  0  0  0  0
  160.2300  209.6810  154.3900 O   0  0  0  0  0  1  0  0  0  0  0  0
  161.8980  210.6460  149.7450 C   0  0  0  0  0  3  0  0  0  0  0  0
  161.2710  211.8970  149.7750 C   0  0  0  0  0  0  0  0  0  0  0  0
  161.1130  210.1860  151.9500 N   0  0  0  0  0  0  0  0  0  0  0  0
  159.9110  213.5160  151.0080 C   0  0  0  0  0  3  0  0  0  0  0  0
  160.4530  213.3990  146.3130 C   0  0  2  0  0  3  0  0  0  0  0  0
  161.7030  214.0680  146.2250 O   0  0  0  0  0  0  0  0  0  0  0  0
  161.3660  212.8080  148.5850 C   0  0  2  0  0  3  0  0  0  0  0  0
  162.7400  213.1520  146.4920 C   0  0  0  0  0  2  0  0  0  0  0  0
  160.3050  212.4760  147.5360 C   0  0  0  0  0  2  0  0  0  0  0  0
  162.7760  212.8040  147.9830 C   0  0  0  0  0  2  0  0  0  0  0  0
  160.1300  212.6560  145.0280 C   0  0  0  0  0  1  0  0  0  0  0  0
  162.4970  208.4780  150.8310 C   0  0  0  0  0  2  0  0  0  0  0  0
  162.4770  206.3690  152.1540 C   0  0  0  0  0  1  0  0  0  0  0  0
  161.6140  207.4020  151.4550 C   0  0  2  0  0  3  0  0  0  0  0  0
  161.3610  206.4400  149.3070 C   0  0  0  0  0  3  0  0  0  0  0  0
  160.8330  206.7530  150.4350 N   0  0  0  0  0  0  0  0  0  0  0  0
  160.7550  203.6140  149.3650 O   0  0  0  0  0  1  0  0  0  0  0  0
  160.5510  205.7570  148.2440 C   0  0  2  0  0  3  0  0  0  0  0  0
  160.8590  204.2540  148.1280 C   0  0  1  0  0  3  0  0  0  0  0  0
  162.3180  204.6440  146.2030 N   0  0  0  0  0  2  0  0  0  0  0  0
  162.1770  206.0900  146.3500 C   0  0  0  0  0  2  0  0  0  0  0  0
  160.7880  206.4360  146.8930 C   0  0  0  0  0  2  0  0  0  0  0  0
  162.2460  204.0280  147.5270 C   0  0  0  0  0  2  0  0  0  0  0  0
  1  8  2  0  0  0  0
  2 11  1  0  0  0  0
  2  6  1  0  0  0  0
  3  7  1  0  0  0  0
  4 14  2  0  0  0  0
  5  6  2  0  0  0  0
  7  1  1  0  0  0  0
  7  2  2  0  0  0  0
  8  5  1  0  0  0  0
  9 15  1  0  0  0  0
  9  3  2  0  0  0  0
 10  1  1  0  0  0  0
 12 13  2  0  0  0  0
 12  4  1  0  0  0  0
 13  9  1  0  0  0  0
 14  3  1  0  0  0  0
 15 10  2  0  0  0  0
 16 22  1  6  0  0  0
 16 20  1  0  0  0  0
 17 16  1  0  0  0  0
 17 19  1  0  0  0  0
 18 13  1  1  0  0  0
 19 21  1  0  0  0  0
 20 18  1  0  0  0  0
 21 18  1  0  0  0  0
 23  4  1  0  0  0  0
 23 25  1  0  0  0  0
 25 24  1  6  0  0  0
 26 27  2  0  0  0  0
 27 25  1  0  0  0  0
 29 26  1  1  0  0  0
 30 29  1  0  0  0  0
 30 28  1  1  0  0  0
 31 32  1  0  0  0  0
 31 34  1  0  0  0  0
 32 33  1  0  0  0  0
 33 29  1  0  0  0  0
 34 30  1  0  0  0  0
M  END
>  <MODEL>
9

>  <REMARK>
 VINA RESULT:      -8.9      2.589      8.630
  Name = 
  5 active torsions:
  status: ('A' for Active; 'I' for Inactive)
    1  A    between atoms: C_3  and  C_13
    2  A    between atoms: C_5  and  C_18
    3  A    between atoms: C_12  and  C_28
    4  A    between atoms: N_17  and  C_29
    5  A    between atoms: C_18  and  C_29
                            x       y       z     vdW  Elec       q    Type
                         _______ _______ _______ _____ _____    ______ ____

>  <TORSDO>
F 5

$$$$
