=
 OpenBabel11062409353D

 34 39  0  0  1  0  0  0  0  0999 V2000
  158.7430  212.8320  154.1590 C   0  0  0  0  0  0  0  0  0  0  0  0
  157.5010  210.7340  153.6160 C   0  0  0  0  0  2  0  0  0  0  0  0
  156.1390  213.4780  155.2180 C   0  0  2  0  0  0  0  0  0  0  0  0
  157.3080  214.4530  155.3830 C   0  0  0  0  0  2  0  0  0  0  0  0
  158.6280  213.8070  155.0700 C   0  0  0  0  0  3  0  0  0  0  0  0
  156.1930  212.8860  153.8040 C   0  0  0  0  0  2  0  0  0  0  0  0
  157.5440  212.2490  153.4430 C   0  0  1  0  0  3  0  0  0  0  0  0
  154.8520  214.2670  155.3510 C   0  0  0  0  0  1  0  0  0  0  0  0
  158.8740  210.0470  153.4840 C   0  0  0  0  0  2  0  0  0  0  0  0
  160.0910  212.2090  153.9380 C   0  0  0  0  0  2  0  0  0  0  0  0
  160.0650  210.9440  153.0490 C   0  0  1  0  0  0  0  0  0  0  0  0
  162.2090  210.1070  151.8450 C   0  0  0  0  0  2  0  0  0  0  0  0
  161.1150  208.6250  155.2010 C   0  0  0  0  0  2  0  0  0  0  0  0
  161.9470  209.8810  157.2050 C   0  0  0  0  0  2  0  0  0  0  0  0
  160.5470  207.7940  152.8370 C   0  0  0  0  0  2  0  0  0  0  0  0
  162.1260  209.0400  149.5870 C   0  0  0  0  0  3  0  0  0  0  0  0
  161.0420  206.9130  149.1890 C   0  0  0  0  0  3  0  0  0  0  0  0
  163.6570  211.1080  156.2130 N   0  0  0  0  0  2  0  0  0  0  0  0
  161.7700  208.0070  148.7170 C   0  0  0  0  0  3  0  0  0  0  0  0
  161.0310  207.8690  151.4170 C   0  0  0  0  0  0  0  0  0  0  0  0
  161.7520  208.9910  150.9340 C   0  0  0  0  0  0  0  0  0  0  0  0
  160.6700  206.8470  150.5330 C   0  0  0  0  0  3  0  0  0  0  0  0
  162.3390  209.1660  155.9430 C   0  0  2  0  0  3  0  0  0  0  0  0
  162.7110  211.1230  157.2610 N   0  0  0  0  0  2  0  0  0  0  0  0
  162.3460  211.0120  154.1620 C   0  0  0  0  0  2  0  0  0  0  0  0
  163.1560  210.2040  155.1920 C   0  0  1  0  0  3  0  0  0  0  0  0
  161.3610  208.7320  153.7090 C   0  0  1  0  0  3  0  0  0  0  0  0
  161.4590  210.1910  153.1900 C   0  0  1  0  0  0  0  0  0  0  0  0
  156.1480  212.4010  156.2760 C   0  0  0  0  0  0  0  0  0  0  0  0
  156.9420  212.4780  157.2520 O   0  0  0  0  0  1  0  0  0  0  0  0
  155.3390  211.2780  156.1480 O   0  0  0  0  0  0  0  0  0  0  0  0
  159.8340  211.4350  151.5950 C   0  0  0  0  0  2  0  0  0  0  0  0
  160.6930  212.9960  150.0220 F   0  0  0  0  0  0  0  0  0  0  0  0
  160.2550  212.8740  151.3270 C   0  0  0  0  0  2  0  0  0  0  0  0
  1  5  2  0  0  0  0
  3  8  1  1  0  0  0
  3  4  1  0  0  0  0
  3 29  1  0  0  0  0
  5  4  1  0  0  0  0
  6  3  1  0  0  0  0
  7  2  1  1  0  0  0
  7  6  1  0  0  0  0
  7  1  1  0  0  0  0
  9  2  1  0  0  0  0
 10  1  1  0  0  0  0
 11 32  1  6  0  0  0
 11 28  1  0  0  0  0
 11  9  1  0  0  0  0
 11 10  1  0  0  0  0
 14 24  1  0  0  0  0
 16 21  1  0  0  0  0
 17 22  2  0  0  0  0
 18 24  1  0  0  0  0
 19 17  1  0  0  0  0
 19 16  2  0  0  0  0
 20 15  1  0  0  0  0
 21 20  2  0  0  0  0
 21 12  1  0  0  0  0
 22 20  1  0  0  0  0
 23 13  1  6  0  0  0
 23 14  1  0  0  0  0
 26 25  1  6  0  0  0
 26 23  1  0  0  0  0
 26 18  1  0  0  0  0
 27 15  1  6  0  0  0
 27 13  1  0  0  0  0
 28 12  1  6  0  0  0
 28 27  1  0  0  0  0
 28 25  1  0  0  0  0
 29 30  1  0  0  0  0
 31 29  2  0  0  0  0
 33 34  1  0  0  0  0
 34 32  1  0  0  0  0
M  END
>  <MODEL>
1

>  <REMARK>
 VINA RESULT:      -1.0      0.000      0.000
  Name = 
  4 active torsions:
  status: ('A' for Active; 'I' for Inactive)
    1  A    between atoms: C_7  and  C_11
    2  A    between atoms: C_9  and  C_18
    3  A    between atoms: C_9  and  C_33
    4  A    between atoms: C_33  and  C_34
                            x       y       z     vdW  Elec       q    Type
                         _______ _______ _______ _____ _____    ______ ____

>  <TORSDO>
F 4

$$$$
=
 OpenBabel11062409353D

 34 39  0  0  1  0  0  0  0  0999 V2000
  161.7490  209.8180  152.0080 C   0  0  0  0  0  0  0  0  0  0  0  0
  159.5950  208.9810  152.9570 C   0  0  0  0  0  2  0  0  0  0  0  0
  161.9930  206.9980  151.4500 C   0  0  2  0  0  0  0  0  0  0  0  0
  163.0680  207.9810  150.9750 C   0  0  0  0  0  2  0  0  0  0  0  0
  162.6060  209.4080  151.0650 C   0  0  0  0  0  3  0  0  0  0  0  0
  161.5600  207.3970  152.8670 C   0  0  0  0  0  2  0  0  0  0  0  0
  161.1150  208.8630  152.9960 C   0  0  1  0  0  3  0  0  0  0  0  0
  162.6180  205.6200  151.5190 C   0  0  0  0  0  1  0  0  0  0  0  0
  159.0790  210.4300  152.8630 C   0  0  0  0  0  2  0  0  0  0  0  0
  161.3030  211.2520  152.0010 C   0  0  0  0  0  2  0  0  0  0  0  0
  160.1420  211.5580  152.9740 C   0  0  1  0  0  0  0  0  0  0  0  0
  159.6600  213.9770  153.7880 C   0  0  0  0  0  2  0  0  0  0  0  0
  157.7600  212.4670  150.8260 C   0  0  0  0  0  2  0  0  0  0  0  0
  158.9060  212.7450  148.6150 C   0  0  0  0  0  2  0  0  0  0  0  0
  157.0960  212.4610  153.3090 C   0  0  0  0  0  2  0  0  0  0  0  0
  158.8050  214.4530  156.0870 C   0  0  0  0  0  3  0  0  0  0  0  0
  156.6190  213.7380  156.8400 C   0  0  0  0  0  3  0  0  0  0  0  0
  160.3990  214.4430  149.1600 N   0  0  0  0  0  2  0  0  0  0  0  0
  157.8250  214.3990  157.0810 C   0  0  0  0  0  3  0  0  0  0  0  0
  157.3560  213.1900  154.5970 C   0  0  0  0  0  0  0  0  0  0  0  0
  158.5900  213.8420  154.8480 C   0  0  0  0  0  0  0  0  0  0  0  0
  156.3880  213.1310  155.6040 C   0  0  0  0  0  3  0  0  0  0  0  0
  158.3600  213.4530  149.8210 C   0  0  2  0  0  3  0  0  0  0  0  0
  160.2140  213.3230  148.3220 N   0  0  0  0  0  2  0  0  0  0  0  0
  160.3540  213.5630  151.4320 C   0  0  0  0  0  2  0  0  0  0  0  0
  159.5460  214.2600  150.3210 C   0  0  1  0  0  3  0  0  0  0  0  0
  158.0320  212.9740  152.2290 C   0  0  1  0  0  3  0  0  0  0  0  0
  159.5360  212.9840  152.6150 C   0  0  1  0  0  0  0  0  0  0  0  0
  160.8200  206.9420  150.5010 C   0  0  0  0  0  0  0  0  0  0  0  0
  159.9440  206.0440  150.6280 O   0  0  0  0  0  1  0  0  0  0  0  0
  160.7320  207.8280  149.4340 O   0  0  0  0  0  0  0  0  0  0  0  0
  160.7520  211.5490  154.4010 C   0  0  0  0  0  2  0  0  0  0  0  0
  160.6410  210.0970  156.2810 F   0  0  0  0  0  0  0  0  0  0  0  0
  159.8740  210.9150  155.4730 C   0  0  0  0  0  2  0  0  0  0  0  0
  1  7  1  0  0  0  0
  2  7  1  0  0  0  0
  3  8  1  1  0  0  0
  3  6  1  0  0  0  0
  4  5  1  0  0  0  0
  4  3  1  0  0  0  0
  5  1  2  0  0  0  0
  7  6  1  6  0  0  0
  9  2  1  0  0  0  0
  9 11  1  0  0  0  0
 10  1  1  0  0  0  0
 10 11  1  0  0  0  0
 11 32  1  1  0  0  0
 12 21  1  0  0  0  0
 15 20  1  0  0  0  0
 16 19  1  0  0  0  0
 17 19  2  0  0  0  0
 18 26  1  0  0  0  0
 20 21  1  0  0  0  0
 20 22  2  0  0  0  0
 21 16  2  0  0  0  0
 22 17  1  0  0  0  0
 23 14  1  6  0  0  0
 23 26  1  0  0  0  0
 23 13  1  0  0  0  0
 24 14  1  0  0  0  0
 24 18  1  0  0  0  0
 26 25  1  1  0  0  0
 27 13  1  6  0  0  0
 27 28  1  0  0  0  0
 27 15  1  0  0  0  0
 28 25  1  6  0  0  0
 28 11  1  0  0  0  0
 28 12  1  0  0  0  0
 29 30  1  0  0  0  0
 29  3  1  0  0  0  0
 31 29  2  0  0  0  0
 32 34  1  0  0  0  0
 34 33  1  0  0  0  0
M  END
>  <MODEL>
2

>  <REMARK>
 VINA RESULT:       0.5      3.606      7.500
  Name = 
  4 active torsions:
  status: ('A' for Active; 'I' for Inactive)
    1  A    between atoms: C_7  and  C_11
    2  A    between atoms: C_9  and  C_18
    3  A    between atoms: C_9  and  C_33
    4  A    between atoms: C_33  and  C_34
                            x       y       z     vdW  Elec       q    Type
                         _______ _______ _______ _____ _____    ______ ____

>  <TORSDO>
F 4

$$$$
=
 OpenBabel11062409353D

 34 39  0  0  1  0  0  0  0  0999 V2000
  160.8430  207.3980  150.4100 C   0  0  0  0  0  0  0  0  0  0  0  0
  162.4730  206.3820  152.0080 C   0  0  0  0  0  2  0  0  0  0  0  0
  161.7130  205.1100  148.8840 C   0  0  2  0  0  0  0  0  0  0  0  0
  160.6200  206.0360  148.3420 C   0  0  0  0  0  2  0  0  0  0  0  0
  160.0810  206.9530  149.4040 C   0  0  0  0  0  3  0  0  0  0  0  0
  162.8010  205.9710  149.5380 C   0  0  0  0  0  2  0  0  0  0  0  0
  162.2740  206.9440  150.6040 C   0  0  1  0  0  3  0  0  0  0  0  0
  162.3310  204.3800  147.7090 C   0  0  0  0  0  1  0  0  0  0  0  0
  161.7770  207.1960  153.1160 C   0  0  0  0  0  2  0  0  0  0  0  0
  160.2160  208.2760  151.4550 C   0  0  0  0  0  2  0  0  0  0  0  0
  161.1130  208.5330  152.6870 C   0  0  1  0  0  0  0  0  0  0  0  0
  158.9340  209.8050  153.3030 C   0  0  0  0  0  2  0  0  0  0  0  0
  161.9180  209.7080  155.7010 C   0  0  0  0  0  2  0  0  0  0  0  0
  161.9560  207.7160  157.2210 C   0  0  0  0  0  2  0  0  0  0  0  0
  161.3740  211.4710  153.9130 C   0  0  0  0  0  2  0  0  0  0  0  0
  158.1030  211.7360  151.9520 C   0  0  0  0  0  3  0  0  0  0  0  0
  159.3080  213.8290  151.7900 C   0  0  0  0  0  3  0  0  0  0  0  0
  159.7410  207.0320  157.0230 N   0  0  0  0  0  2  0  0  0  0  0  0
  158.2010  213.0430  151.4670 C   0  0  0  0  0  3  0  0  0  0  0  0
  160.2280  212.0110  153.1040 C   0  0  0  0  0  0  0  0  0  0  0  0
  159.1140  211.2050  152.7590 C   0  0  0  0  0  0  0  0  0  0  0  0
  160.3210  213.3130  152.6020 C   0  0  0  0  0  3  0  0  0  0  0  0
  161.1590  208.9020  156.7580 C   0  0  2  0  0  3  0  0  0  0  0  0
  161.0530  206.5690  157.2590 N   0  0  0  0  0  2  0  0  0  0  0  0
  159.7900  207.9960  154.7860 C   0  0  0  0  0  2  0  0  0  0  0  0
  159.8490  208.2860  156.2980 C   0  0  1  0  0  3  0  0  0  0  0  0
  160.9230  210.2500  154.6930 C   0  0  1  0  0  3  0  0  0  0  0  0
  160.2210  209.1540  153.8480 C   0  0  1  0  0  0  0  0  0  0  0  0
  161.1590  204.0840  149.8440 C   0  0  0  0  0  0  0  0  0  0  0  0
  161.6610  203.9540  150.9930 O   0  0  0  0  0  1  0  0  0  0  0  0
  160.1450  203.2200  149.4460 O   0  0  0  0  0  0  0  0  0  0  0  0
  162.2120  209.5280  152.2280 C   0  0  0  0  0  2  0  0  0  0  0  0
  161.5830  211.0960  150.5550 F   0  0  0  0  0  0  0  0  0  0  0  0
  162.1920  209.8700  150.7440 C   0  0  0  0  0  2  0  0  0  0  0  0
  1  7  1  0  0  0  0
  1 10  1  0  0  0  0
  2  9  1  0  0  0  0
  3  8  1  6  0  0  0
  3  6  1  0  0  0  0
  3 29  1  0  0  0  0
  4  3  1  0  0  0  0
  4  5  1  0  0  0  0
  5  1  2  0  0  0  0
  7  6  1  6  0  0  0
  7  2  1  0  0  0  0
 10 11  1  0  0  0  0
 11 32  1  6  0  0  0
 11  9  1  0  0  0  0
 11 28  1  0  0  0  0
 14 24  1  0  0  0  0
 16 21  1  0  0  0  0
 17 22  2  0  0  0  0
 18 24  1  0  0  0  0
 19 17  1  0  0  0  0
 19 16  2  0  0  0  0
 20 15  1  0  0  0  0
 21 20  2  0  0  0  0
 21 12  1  0  0  0  0
 22 20  1  0  0  0  0
 23 13  1  6  0  0  0
 23 14  1  0  0  0  0
 26 25  1  6  0  0  0
 26 23  1  0  0  0  0
 26 18  1  0  0  0  0
 27 15  1  6  0  0  0
 27 13  1  0  0  0  0
 28 12  1  6  0  0  0
 28 27  1  0  0  0  0
 28 25  1  0  0  0  0
 29 30  1  0  0  0  0
 31 29  2  0  0  0  0
 33 34  1  0  0  0  0
 34 32  1  0  0  0  0
M  END
>  <MODEL>
3

>  <REMARK>
 VINA RESULT:       0.5      3.640      6.966
  Name = 
  4 active torsions:
  status: ('A' for Active; 'I' for Inactive)
    1  A    between atoms: C_7  and  C_11
    2  A    between atoms: C_9  and  C_18
    3  A    between atoms: C_9  and  C_33
    4  A    between atoms: C_33  and  C_34
                            x       y       z     vdW  Elec       q    Type
                         _______ _______ _______ _____ _____    ______ ____

>  <TORSDO>
F 4

$$$$
=
 OpenBabel11062409353D

 34 39  0  0  1  0  0  0  0  0999 V2000
  161.9510  209.0400  150.2090 C   0  0  0  0  0  0  0  0  0  0  0  0
  160.5510  207.9230  151.9500 C   0  0  0  0  0  2  0  0  0  0  0  0
  161.8340  206.3610  149.1450 C   0  0  2  0  0  0  0  0  0  0  0  0
  162.5420  207.4760  148.3680 C   0  0  0  0  0  2  0  0  0  0  0  0
  162.2120  208.8380  148.9110 C   0  0  0  0  0  3  0  0  0  0  0  0
  162.1780  206.5100  150.6330 C   0  0  0  0  0  2  0  0  0  0  0  0
  161.8830  207.9050  151.2070 C   0  0  1  0  0  3  0  0  0  0  0  0
  162.3850  205.0350  148.6640 C   0  0  0  0  0  1  0  0  0  0  0  0
  160.0820  209.3300  152.3670 C   0  0  0  0  0  2  0  0  0  0  0  0
  161.5860  210.4240  150.6630 C   0  0  0  0  0  2  0  0  0  0  0  0
  161.0760  210.4980  152.1200 C   0  0  1  0  0  0  0  0  0  0  0  0
  160.7230  212.4950  153.7440 C   0  0  0  0  0  2  0  0  0  0  0  0
  158.3250  211.8660  150.8260 C   0  0  0  0  0  2  0  0  0  0  0  0
  159.0370  212.9120  148.6610 C   0  0  0  0  0  2  0  0  0  0  0  0
  158.1350  211.0280  153.2470 C   0  0  0  0  0  2  0  0  0  0  0  0
  160.3050  212.1560  156.1840 C   0  0  0  0  0  3  0  0  0  0  0  0
  158.3060  211.0840  157.0280 C   0  0  0  0  0  3  0  0  0  0  0  0
  160.5840  214.4530  149.4630 N   0  0  0  0  0  2  0  0  0  0  0  0
  159.5270  211.7190  157.2590 C   0  0  0  0  0  3  0  0  0  0  0  0
  158.6200  211.3280  154.6370 C   0  0  0  0  0  0  0  0  0  0  0  0
  159.8700  211.9550  154.8700 C   0  0  0  0  0  0  0  0  0  0  0  0
  157.8570  210.8840  155.7210 C   0  0  0  0  0  3  0  0  0  0  0  0
  158.7160  213.1600  150.1070 C   0  0  2  0  0  3  0  0  0  0  0  0
  160.2600  213.6460  148.3520 N   0  0  0  0  0  2  0  0  0  0  0  0
  160.9730  212.8980  151.2990 C   0  0  0  0  0  2  0  0  0  0  0  0
  159.9630  213.8510  150.6300 C   0  0  1  0  0  3  0  0  0  0  0  0
  158.8470  211.9220  152.2480 C   0  0  1  0  0  3  0  0  0  0  0  0
  160.3960  211.9180  152.3520 C   0  0  1  0  0  0  0  0  0  0  0  0
  160.3420  206.3690  148.9120 C   0  0  0  0  0  0  0  0  0  0  0  0
  159.5560  205.9860  149.8200 O   0  0  0  0  0  1  0  0  0  0  0  0
  159.8230  206.7230  147.6710 O   0  0  0  0  0  0  0  0  0  0  0  0
  162.3200  210.3150  153.0290 C   0  0  0  0  0  2  0  0  0  0  0  0
  162.8460  210.2850  155.3480 F   0  0  0  0  0  0  0  0  0  0  0  0
  162.0350  209.7000  154.3940 C   0  0  0  0  0  2  0  0  0  0  0  0
  1 10  1  0  0  0  0
  1  7  1  0  0  0  0
  2  9  1  0  0  0  0
  3  8  1  6  0  0  0
  3  6  1  0  0  0  0
  4  5  1  0  0  0  0
  4  3  1  0  0  0  0
  5  1  2  0  0  0  0
  7  6  1  6  0  0  0
  7  2  1  0  0  0  0
 10 11  1  0  0  0  0
 11 28  1  0  0  0  0
 11  9  1  0  0  0  0
 11 32  1  1  0  0  0
 12 21  1  0  0  0  0
 15 20  1  0  0  0  0
 16 19  1  0  0  0  0
 17 19  2  0  0  0  0
 18 26  1  0  0  0  0
 20 21  1  0  0  0  0
 20 22  2  0  0  0  0
 21 16  2  0  0  0  0
 22 17  1  0  0  0  0
 23 14  1  6  0  0  0
 23 26  1  0  0  0  0
 23 13  1  0  0  0  0
 24 14  1  0  0  0  0
 24 18  1  0  0  0  0
 26 25  1  6  0  0  0
 27 13  1  6  0  0  0
 27 28  1  0  0  0  0
 27 15  1  0  0  0  0
 28 25  1  6  0  0  0
 28 12  1  0  0  0  0
 29  3  1  0  0  0  0
 29 30  1  0  0  0  0
 31 29  2  0  0  0  0
 32 34  1  0  0  0  0
 34 33  1  0  0  0  0
M  END
>  <MODEL>
4

>  <REMARK>
 VINA RESULT:       1.0      3.725      7.507
  Name = 
  4 active torsions:
  status: ('A' for Active; 'I' for Inactive)
    1  A    between atoms: C_7  and  C_11
    2  A    between atoms: C_9  and  C_18
    3  A    between atoms: C_9  and  C_33
    4  A    between atoms: C_33  and  C_34
                            x       y       z     vdW  Elec       q    Type
                         _______ _______ _______ _____ _____    ______ ____

>  <TORSDO>
F 4

$$$$
=
 OpenBabel11062409353D

 34 39  0  0  1  0  0  0  0  0999 V2000
  161.2320  209.3380  152.0330 C   0  0  0  0  0  0  0  0  0  0  0  0
  160.1660  208.2580  154.0170 C   0  0  0  0  0  2  0  0  0  0  0  0
  162.1960  206.6360  151.7360 C   0  0  2  0  0  0  0  0  0  0  0  0
  162.5260  207.6990  150.6840 C   0  0  0  0  0  2  0  0  0  0  0  0
  161.6740  208.9270  150.8380 C   0  0  0  0  0  3  0  0  0  0  0  0
  162.3150  207.2730  153.1270 C   0  0  0  0  0  2  0  0  0  0  0  0
  161.4810  208.5530  153.3020 C   0  0  1  0  0  3  0  0  0  0  0  0
  163.2340  205.5370  151.6310 C   0  0  0  0  0  1  0  0  0  0  0  0
  159.1820  209.4440  154.0380 C   0  0  0  0  0  2  0  0  0  0  0  0
  160.3490  210.5510  152.0960 C   0  0  0  0  0  2  0  0  0  0  0  0
  159.7070  210.7950  153.4800 C   0  0  1  0  0  0  0  0  0  0  0  0
  157.9810  211.9010  151.8850 C   0  0  0  0  0  2  0  0  0  0  0  0
  159.0550  213.6150  155.1360 C   0  0  0  0  0  2  0  0  0  0  0  0
  157.7280  212.9320  157.1500 C   0  0  0  0  0  2  0  0  0  0  0  0
  160.0590  213.8930  152.7870 C   0  0  0  0  0  2  0  0  0  0  0  0
  158.5670  212.5360  149.5400 C   0  0  0  0  0  3  0  0  0  0  0  0
  160.1870  214.2580  149.0210 C   0  0  0  0  0  3  0  0  0  0  0  0
  155.8780  211.9930  156.0970 N   0  0  0  0  0  2  0  0  0  0  0  0
  159.2610  213.3020  148.6000 C   0  0  0  0  0  3  0  0  0  0  0  0
  159.7230  213.7020  151.3350 C   0  0  0  0  0  0  0  0  0  0  0  0
  158.7980  212.7170  150.9070 C   0  0  0  0  0  0  0  0  0  0  0  0
  160.4210  214.4530  150.3840 C   0  0  0  0  0  3  0  0  0  0  0  0
  157.6630  213.5020  155.7620 C   0  0  2  0  0  3  0  0  0  0  0  0
  156.6740  211.9280  157.2610 N   0  0  0  0  0  2  0  0  0  0  0  0
  157.3780  211.4440  154.2570 C   0  0  0  0  0  2  0  0  0  0  0  0
  156.6940  212.5760  155.0470 C   0  0  1  0  0  3  0  0  0  0  0  0
  158.9470  213.3260  153.6510 C   0  0  1  0  0  3  0  0  0  0  0  0
  158.5400  211.8650  153.3210 C   0  0  1  0  0  0  0  0  0  0  0  0
  160.8330  206.0250  151.5150 C   0  0  0  0  0  0  0  0  0  0  0  0
  160.3080  205.3060  152.4070 O   0  0  0  0  0  1  0  0  0  0  0  0
  160.1770  206.1840  150.3000 O   0  0  0  0  0  0  0  0  0  0  0  0
  160.8370  211.3270  154.4010 C   0  0  0  0  0  2  0  0  0  0  0  0
  161.7310  210.2430  156.3190 F   0  0  0  0  0  0  0  0  0  0  0  0
  160.6660  211.0070  155.8800 C   0  0  0  0  0  2  0  0  0  0  0  0
  1 10  1  0  0  0  0
  1  7  1  0  0  0  0
  2  9  1  0  0  0  0
  3  8  1  6  0  0  0
  3  6  1  0  0  0  0
  4  5  1  0  0  0  0
  4  3  1  0  0  0  0
  5  1  2  0  0  0  0
  7  6  1  6  0  0  0
  7  2  1  0  0  0  0
 10 11  1  0  0  0  0
 11  9  1  0  0  0  0
 11 32  1  1  0  0  0
 14 24  1  0  0  0  0
 16 21  1  0  0  0  0
 17 22  2  0  0  0  0
 18 24  1  0  0  0  0
 19 17  1  0  0  0  0
 19 16  2  0  0  0  0
 20 15  1  0  0  0  0
 21 20  2  0  0  0  0
 21 12  1  0  0  0  0
 22 20  1  0  0  0  0
 23 13  1  6  0  0  0
 23 14  1  0  0  0  0
 26 25  1  1  0  0  0
 26 23  1  0  0  0  0
 26 18  1  0  0  0  0
 27 15  1  6  0  0  0
 27 13  1  0  0  0  0
 28 12  1  6  0  0  0
 28 11  1  0  0  0  0
 28 27  1  0  0  0  0
 28 25  1  0  0  0  0
 29  3  1  0  0  0  0
 29 30  1  0  0  0  0
 31 29  2  0  0  0  0
 32 34  1  0  0  0  0
 34 33  1  0  0  0  0
M  END
>  <MODEL>
5

>  <REMARK>
 VINA RESULT:       1.2      3.287      6.587
  Name = 
  4 active torsions:
  status: ('A' for Active; 'I' for Inactive)
    1  A    between atoms: C_7  and  C_11
    2  A    between atoms: C_9  and  C_18
    3  A    between atoms: C_9  and  C_33
    4  A    between atoms: C_33  and  C_34
                            x       y       z     vdW  Elec       q    Type
                         _______ _______ _______ _____ _____    ______ ____

>  <TORSDO>
F 4

$$$$
=
 OpenBabel11062409353D

 34 39  0  0  1  0  0  0  0  0999 V2000
  159.1420  212.3910  153.8500 C   0  0  0  0  0  0  0  0  0  0  0  0
  157.8200  210.3080  154.2360 C   0  0  0  0  0  2  0  0  0  0  0  0
  156.6640  213.5160  154.8060 C   0  0  2  0  0  0  0  0  0  0  0  0
  157.8600  214.4210  154.4950 C   0  0  0  0  0  2  0  0  0  0  0  0
  159.1330  213.6390  154.3360 C   0  0  0  0  0  3  0  0  0  0  0  0
  156.5710  212.4400  153.7160 C   0  0  0  0  0  2  0  0  0  0  0  0
  157.8700  211.6470  153.5070 C   0  0  1  0  0  3  0  0  0  0  0  0
  155.4090  214.3620  154.7420 C   0  0  0  0  0  1  0  0  0  0  0  0
  159.1620  209.5510  154.2550 C   0  0  0  0  0  2  0  0  0  0  0  0
  160.4520  211.6620  153.7640 C   0  0  0  0  0  2  0  0  0  0  0  0
  160.3190  210.1610  153.4180 C   0  0  1  0  0  0  0  0  0  0  0  0
  162.2220  208.6570  152.4900 C   0  0  0  0  0  2  0  0  0  0  0  0
  161.6860  209.0730  156.2580 C   0  0  0  0  0  2  0  0  0  0  0  0
  162.8550  211.0540  157.2540 C   0  0  0  0  0  2  0  0  0  0  0  0
  160.7210  207.2660  154.7060 C   0  0  0  0  0  2  0  0  0  0  0  0
  161.7500  206.6500  151.0780 C   0  0  0  0  0  3  0  0  0  0  0  0
  160.5900  204.7020  151.9250 C   0  0  0  0  0  3  0  0  0  0  0  0
  164.3910  211.4920  155.5620 N   0  0  0  0  0  2  0  0  0  0  0  0
  161.2420  205.3640  150.8820 C   0  0  0  0  0  3  0  0  0  0  0  0
  160.9620  206.6060  153.3780 C   0  0  0  0  0  0  0  0  0  0  0  0
  161.6060  207.2870  152.3140 C   0  0  0  0  0  0  0  0  0  0  0  0
  160.4460  205.3240  153.1670 C   0  0  0  0  0  3  0  0  0  0  0  0
  163.0230  209.7890  156.4610 C   0  0  2  0  0  3  0  0  0  0  0  0
  163.6330  212.0950  156.5890 N   0  0  0  0  0  2  0  0  0  0  0  0
  162.7550  210.5450  154.0240 C   0  0  0  0  0  2  0  0  0  0  0  0
  163.7160  210.2590  155.1940 C   0  0  1  0  0  3  0  0  0  0  0  0
  161.6810  208.4280  154.8860 C   0  0  1  0  0  3  0  0  0  0  0  0
  161.7080  209.4440  153.7120 C   0  0  1  0  0  0  0  0  0  0  0  0
  156.7580  212.9090  156.1850 C   0  0  0  0  0  0  0  0  0  0  0  0
  156.3510  211.7340  156.3900 O   0  0  0  0  0  0  0  0  0  0  0  0
  157.2220  213.6620  157.2580 O   0  0  0  0  0  1  0  0  0  0  0  0
  159.9560  210.0900  151.9120 C   0  0  0  0  0  2  0  0  0  0  0  0
  162.0000  210.5970  150.8080 F   0  0  0  0  0  0  0  0  0  0  0  0
  160.7160  211.0620  151.0190 C   0  0  0  0  0  2  0  0  0  0  0  0
  1  5  2  0  0  0  0
  2  9  1  0  0  0  0
  3  8  1  6  0  0  0
  3 29  1  0  0  0  0
  4  3  1  0  0  0  0
  5  4  1  0  0  0  0
  6  3  1  0  0  0  0
  7  6  1  1  0  0  0
  7  1  1  0  0  0  0
  7  2  1  0  0  0  0
 10  1  1  0  0  0  0
 11 32  1  6  0  0  0
 11 28  1  0  0  0  0
 11 10  1  0  0  0  0
 11  9  1  0  0  0  0
 16 21  1  0  0  0  0
 17 22  2  0  0  0  0
 18 24  1  0  0  0  0
 19 16  2  0  0  0  0
 19 17  1  0  0  0  0
 20 15  1  0  0  0  0
 21 12  1  0  0  0  0
 21 20  2  0  0  0  0
 22 20  1  0  0  0  0
 23 13  1  6  0  0  0
 23 14  1  0  0  0  0
 24 14  1  0  0  0  0
 26 25  1  6  0  0  0
 26 18  1  0  0  0  0
 26 23  1  0  0  0  0
 27 15  1  6  0  0  0
 27 13  1  0  0  0  0
 28 12  1  6  0  0  0
 28 25  1  0  0  0  0
 28 27  1  0  0  0  0
 29 30  2  0  0  0  0
 29 31  1  0  0  0  0
 33 34  1  0  0  0  0
 34 32  1  0  0  0  0
M  END
>  <MODEL>
6

>  <REMARK>
 VINA RESULT:       1.8      1.342      1.745
  Name = 
  4 active torsions:
  status: ('A' for Active; 'I' for Inactive)
    1  A    between atoms: C_7  and  C_11
    2  A    between atoms: C_9  and  C_18
    3  A    between atoms: C_9  and  C_33
    4  A    between atoms: C_33  and  C_34
                            x       y       z     vdW  Elec       q    Type
                         _______ _______ _______ _____ _____    ______ ____

>  <TORSDO>
F 4

$$$$
=
 OpenBabel11062409353D

 34 39  0  0  1  0  0  0  0  0999 V2000
  160.8540  207.6750  150.2890 C   0  0  0  0  0  0  0  0  0  0  0  0
  162.8160  207.1440  151.7410 C   0  0  0  0  0  2  0  0  0  0  0  0
  161.3720  204.9520  149.4910 C   0  0  2  0  0  0  0  0  0  0  0  0
  160.1750  205.7160  148.9160 C   0  0  0  0  0  2  0  0  0  0  0  0
  159.8850  206.9720  149.6890 C   0  0  0  0  0  3  0  0  0  0  0  0
  162.5730  205.9040  149.5540 C   0  0  0  0  0  2  0  0  0  0  0  0
  162.2950  207.2140  150.3090 C   0  0  1  0  0  3  0  0  0  0  0  0
  161.7110  203.8280  148.5330 C   0  0  0  0  0  1  0  0  0  0  0  0
  162.3850  208.3300  152.6250 C   0  0  0  0  0  2  0  0  0  0  0  0
  160.4740  208.8950  151.0790 C   0  0  0  0  0  2  0  0  0  0  0  0
  161.6280  209.4880  151.9190 C   0  0  1  0  0  0  0  0  0  0  0  0
  161.8290  210.5660  154.2740 C   0  0  0  0  0  2  0  0  0  0  0  0
  158.5260  210.6360  152.3390 C   0  0  0  0  0  2  0  0  0  0  0  0
  158.2950  212.5690  150.7610 C   0  0  0  0  0  2  0  0  0  0  0  0
  159.3260  208.8980  154.0540 C   0  0  0  0  0  2  0  0  0  0  0  0
  162.4020  209.2200  156.2990 C   0  0  0  0  0  3  0  0  0  0  0  0
  160.9400  207.5050  157.1820 C   0  0  0  0  0  3  0  0  0  0  0  0
  159.9530  213.9650  151.6080 N   0  0  0  0  0  2  0  0  0  0  0  0
  162.1220  208.2430  157.2580 C   0  0  0  0  0  3  0  0  0  0  0  0
  160.2940  208.7260  155.1900 C   0  0  0  0  0  0  0  0  0  0  0  0
  161.5050  209.4610  155.2540 C   0  0  0  0  0  0  0  0  0  0  0  0
  160.0320  207.7430  156.1480 C   0  0  0  0  0  3  0  0  0  0  0  0
  158.5440  212.1590  152.1830 C   0  0  2  0  0  3  0  0  0  0  0  0
  159.2660  213.6070  150.4280 N   0  0  0  0  0  2  0  0  0  0  0  0
  161.0960  211.9370  152.3280 C   0  0  0  0  0  2  0  0  0  0  0  0
  159.8610  212.8370  152.5190 C   0  0  1  0  0  3  0  0  0  0  0  0
  159.5530  210.2400  153.3820 C   0  0  1  0  0  3  0  0  0  0  0  0
  161.0190  210.5240  152.9620 C   0  0  1  0  0  0  0  0  0  0  0  0
  161.0630  204.3500  150.8410 C   0  0  0  0  0  0  0  0  0  0  0  0
  159.8670  204.1800  151.2010 O   0  0  0  0  0  0  0  0  0  0  0  0
  162.0880  204.0490  151.7310 O   0  0  0  0  0  1  0  0  0  0  0  0
  162.5820  210.1910  150.9190 C   0  0  0  0  0  2  0  0  0  0  0  0
  162.2970  210.0060  148.5650 F   0  0  0  0  0  0  0  0  0  0  0  0
  161.9110  210.7440  149.6680 C   0  0  0  0  0  2  0  0  0  0  0  0
  1  7  1  0  0  0  0
  1 10  1  0  0  0  0
  2  9  1  0  0  0  0
  3  8  1  6  0  0  0
  3  6  1  0  0  0  0
  3 29  1  0  0  0  0
  4  3  1  0  0  0  0
  4  5  1  0  0  0  0
  5  1  2  0  0  0  0
  7  6  1  1  0  0  0
  7  2  1  0  0  0  0
 10 11  1  0  0  0  0
 11 32  1  6  0  0  0
 11  9  1  0  0  0  0
 11 28  1  0  0  0  0
 12 21  1  0  0  0  0
 15 20  1  0  0  0  0
 16 19  1  0  0  0  0
 17 19  2  0  0  0  0
 18 26  1  0  0  0  0
 20 21  1  0  0  0  0
 20 22  2  0  0  0  0
 21 16  2  0  0  0  0
 22 17  1  0  0  0  0
 23 14  1  6  0  0  0
 23 13  1  0  0  0  0
 23 26  1  0  0  0  0
 24 14  1  0  0  0  0
 24 18  1  0  0  0  0
 26 25  1  6  0  0  0
 27 13  1  6  0  0  0
 27 15  1  0  0  0  0
 28 25  1  6  0  0  0
 28 27  1  0  0  0  0
 28 12  1  0  0  0  0
 29 30  2  0  0  0  0
 29 31  1  0  0  0  0
 33 34  1  0  0  0  0
 34 32  1  0  0  0  0
M  END
>  <MODEL>
7

>  <REMARK>
 VINA RESULT:       1.8      3.666      7.159
  Name = 
  4 active torsions:
  status: ('A' for Active; 'I' for Inactive)
    1  A    between atoms: C_7  and  C_11
    2  A    between atoms: C_9  and  C_18
    3  A    between atoms: C_9  and  C_33
    4  A    between atoms: C_33  and  C_34
                            x       y       z     vdW  Elec       q    Type
                         _______ _______ _______ _____ _____    ______ ____

>  <TORSDO>
F 4

$$$$
=
 OpenBabel11062409353D

 34 39  0  0  1  0  0  0  0  0999 V2000
  160.4640  212.9430  151.3090 C   0  0  0  0  0  0  0  0  0  0  0  0
  161.1170  210.6130  150.6900 C   0  0  0  0  0  2  0  0  0  0  0  0
  160.9930  213.2800  148.4940 C   0  0  2  0  0  0  0  0  0  0  0  0
  160.4690  214.4510  149.3320 C   0  0  0  0  0  2  0  0  0  0  0  0
  159.9480  213.9980  150.6670 C   0  0  0  0  0  3  0  0  0  0  0  0
  162.0420  212.5210  149.3180 C   0  0  0  0  0  2  0  0  0  0  0  0
  161.5470  212.0770  150.7030 C   0  0  1  0  0  3  0  0  0  0  0  0
  161.6790  213.8530  147.2700 C   0  0  0  0  0  1  0  0  0  0  0  0
  160.4090  210.1530  151.9780 C   0  0  0  0  0  2  0  0  0  0  0  0
  159.8560  212.5290  152.6190 C   0  0  0  0  0  2  0  0  0  0  0  0
  160.3650  211.1710  153.1510 C   0  0  1  0  0  0  0  0  0  0  0  0
  157.9230  210.6790  153.8870 C   0  0  0  0  0  2  0  0  0  0  0  0
  160.6820  211.3020  156.4680 C   0  0  0  0  0  2  0  0  0  0  0  0
  161.9760  209.2540  157.1110 C   0  0  0  0  0  2  0  0  0  0  0  0
  159.0710  213.0080  155.4210 C   0  0  0  0  0  2  0  0  0  0  0  0
  156.0260  212.1810  153.2630 C   0  0  0  0  0  3  0  0  0  0  0  0
  155.8400  214.4530  154.0780 C   0  0  0  0  0  3  0  0  0  0  0  0
  160.5090  207.6130  156.3550 N   0  0  0  0  0  2  0  0  0  0  0  0
  155.3310  213.3910  153.3270 C   0  0  0  0  0  3  0  0  0  0  0  0
  157.7430  213.0970  154.7230 C   0  0  0  0  0  0  0  0  0  0  0  0
  157.2380  212.0260  153.9440 C   0  0  0  0  0  0  0  0  0  0  0  0
  157.0450  214.3080  154.7690 C   0  0  0  0  0  3  0  0  0  0  0  0
  160.6120  209.8770  157.0210 C   0  0  2  0  0  3  0  0  0  0  0  0
  161.8730  207.8970  156.5830 N   0  0  0  0  0  2  0  0  0  0  0  0
  159.7860  209.2280  154.6800 C   0  0  0  0  0  2  0  0  0  0  0  0
  159.8270  208.8840  156.1810 C   0  0  1  0  0  3  0  0  0  0  0  0
  159.4570  211.5530  155.6090 C   0  0  1  0  0  3  0  0  0  0  0  0
  159.4020  210.6870  154.3220 C   0  0  1  0  0  0  0  0  0  0  0  0
  159.8790  212.3720  148.0330 C   0  0  0  0  0  0  0  0  0  0  0  0
  160.1450  211.2730  147.4760 O   0  0  0  0  0  0  0  0  0  0  0  0
  158.5510  212.7700  148.1450 O   0  0  0  0  0  1  0  0  0  0  0  0
  161.8060  211.4160  153.6720 C   0  0  0  0  0  2  0  0  0  0  0  0
  163.6070  210.3330  152.5610 F   0  0  0  0  0  0  0  0  0  0  0  0
  162.7260  210.2030  153.6170 C   0  0  0  0  0  2  0  0  0  0  0  0
  1 10  1  0  0  0  0
  2  7  1  0  0  0  0
  2  9  1  0  0  0  0
  3  8  1  6  0  0  0
  3  6  1  0  0  0  0
  3  4  1  0  0  0  0
  4  5  1  0  0  0  0
  5  1  2  0  0  0  0
  7  6  1  6  0  0  0
  7  1  1  0  0  0  0
  9 11  1  0  0  0  0
 10 11  1  0  0  0  0
 11 32  1  1  0  0  0
 11 28  1  0  0  0  0
 12 21  1  0  0  0  0
 16 19  2  0  0  0  0
 16 21  1  0  0  0  0
 17 22  2  0  0  0  0
 18 24  1  0  0  0  0
 19 17  1  0  0  0  0
 20 22  1  0  0  0  0
 20 15  1  0  0  0  0
 21 20  2  0  0  0  0
 23 13  1  6  0  0  0
 23 14  1  0  0  0  0
 24 14  1  0  0  0  0
 26 25  1  6  0  0  0
 26 18  1  0  0  0  0
 26 23  1  0  0  0  0
 27 15  1  6  0  0  0
 27 13  1  0  0  0  0
 28 12  1  6  0  0  0
 28 25  1  0  0  0  0
 28 27  1  0  0  0  0
 29 31  1  0  0  0  0
 29  3  1  0  0  0  0
 30 29  2  0  0  0  0
 33 34  1  0  0  0  0
 34 32  1  0  0  0  0
M  END
>  <MODEL>
8

>  <REMARK>
 VINA RESULT:       2.0      3.054      6.103
  Name = 
  4 active torsions:
  status: ('A' for Active; 'I' for Inactive)
    1  A    between atoms: C_7  and  C_11
    2  A    between atoms: C_9  and  C_18
    3  A    between atoms: C_9  and  C_33
    4  A    between atoms: C_33  and  C_34
                            x       y       z     vdW  Elec       q    Type
                         _______ _______ _______ _____ _____    ______ ____

>  <TORSDO>
F 4

$$$$
