=
 OpenBabel11062407593D

 34 38  0  0  0  0  0  0  0  0999 V2000
  160.8300  203.6590  150.1950 C   0  0  0  0  0  0  0  0  0  0  0  0
  161.3390  204.3460  147.9290 C   0  0  0  0  0  3  0  0  0  0  0  0
  161.3130  206.0210  149.7630 C   0  0  0  0  0  0  0  0  0  0  0  0
  161.7310  208.4010  149.4670 C   0  0  0  0  0  0  0  0  0  0  0  0
  160.8540  202.0260  148.4050 C   0  0  0  0  0  3  0  0  0  0  0  0
  161.3740  202.6930  146.0580 C   0  0  0  0  0  1  0  0  0  0  0  0
  161.8040  206.9600  147.5470 O   0  0  0  0  0  1  0  0  0  0  0  0
  161.1660  204.6890  149.2820 C   0  0  0  0  0  0  0  0  0  0  0  0
  160.6760  202.3420  149.7530 C   0  0  0  0  0  3  0  0  0  0  0  0
  161.1320  206.2660  151.1530 C   0  0  0  0  0  0  0  0  0  0  0  0
  160.6490  203.9410  151.5070 N   0  0  0  0  0  0  0  0  0  0  0  0
  161.1850  203.0280  147.4940 C   0  0  0  0  0  0  0  0  0  0  0  0
  161.5490  208.5930  150.7960 N   0  0  0  0  0  0  0  0  0  0  0  0
  161.2700  207.5830  151.6610 C   0  0  0  0  0  0  0  0  0  0  0  0
  161.6190  207.1190  148.9190 C   0  0  0  0  0  0  0  0  0  0  0  0
  160.7890  205.1980  151.9920 C   0  0  0  0  0  3  0  0  0  0  0  0
  161.1720  209.6260  154.8480 C   0  0  0  0  0  0  0  0  0  0  0  0
  160.9150  208.6480  155.8110 C   0  0  0  0  0  3  0  0  0  0  0  0
  161.1130  207.9340  153.0980 C   0  0  0  0  0  0  0  0  0  0  0  0
  160.7640  207.3140  155.4270 C   0  0  0  0  0  3  0  0  0  0  0  0
  161.2770  209.2700  153.5000 C   0  0  0  0  0  3  0  0  0  0  0  0
  160.8690  206.9600  154.0790 C   0  0  0  0  0  3  0  0  0  0  0  0
  161.3240  210.9200  155.2200 F   0  0  0  0  0  0  0  0  0  0  0  0
  162.0140  209.5790  148.5990 C   0  0  0  0  0  2  0  0  0  0  0  0
  161.9840  210.7930  149.3960 N   0  0  0  0  0  2  0  0  0  0  0  0
  162.3130  211.8860  148.5010 C   0  0  0  0  0  2  0  0  0  0  0  0
  161.3040  213.0040  148.6790 C   0  0  0  0  0  2  0  0  0  0  0  0
  158.4860  213.6760  149.3420 C   0  0  0  0  0  1  0  0  0  0  0  0
  160.2090  212.8750  147.6700 C   0  0  0  0  0  0  0  0  0  0  0  0
  158.8760  213.2040  147.9820 C   0  0  0  0  0  0  0  0  0  0  0  0
  158.2120  212.6450  145.7170 C   0  0  0  0  0  3  0  0  0  0  0  0
  159.5340  212.3250  145.4050 C   0  0  0  0  0  3  0  0  0  0  0  0
  160.5310  212.4410  146.3780 C   0  0  0  0  0  3  0  0  0  0  0  0
  157.8830  213.0850  147.0030 C   0  0  0  0  0  3  0  0  0  0  0  0
  1 11  1  0  0  0  0
  2  8  1  0  0  0  0
  3 10  1  0  0  0  0
  4 13  2  0  0  0  0
  5  9  2  0  0  0  0
  6 12  1  0  0  0  0
  7 15  1  0  0  0  0
  8  3  1  0  0  0  0
  8  1  2  0  0  0  0
  9  1  1  0  0  0  0
 10 14  2  0  0  0  0
 10 16  1  0  0  0  0
 11 16  2  0  0  0  0
 12  2  2  0  0  0  0
 12  5  1  0  0  0  0
 13 14  1  0  0  0  0
 14 19  1  0  0  0  0
 15  4  1  0  0  0  0
 15  3  2  0  0  0  0
 17 23  1  0  0  0  0
 17 18  1  0  0  0  0
 19 21  1  0  0  0  0
 19 22  2  0  0  0  0
 20 18  2  0  0  0  0
 21 17  2  0  0  0  0
 22 20  1  0  0  0  0
 24 25  1  0  0  0  0
 24  4  1  0  0  0  0
 26 27  1  0  0  0  0
 26 25  1  0  0  0  0
 29 30  1  0  0  0  0
 29 27  1  0  0  0  0
 30 28  1  0  0  0  0
 31 34  1  0  0  0  0
 32 31  2  0  0  0  0
 32 33  1  0  0  0  0
 33 29  2  0  0  0  0
 34 30  2  0  0  0  0
M  END
>  <MODEL>
1

>  <REMARK>
 VINA RESULT:     -10.6      0.000      0.000
  Name = 
  6 active torsions:
  status: ('A' for Active; 'I' for Inactive)
    1  A    between atoms: C_3  and  C_13
    2  A    between atoms: C_3  and  C_17
    3  A    between atoms: C_5  and  C_18
    4  A    between atoms: C_12  and  C_28
    5  A    between atoms: C_17  and  N_29
    6  A    between atoms: C_18  and  N_29
                            x       y       z     vdW  Elec       q    Type
                         _______ _______ _______ _____ _____    ______ ____

>  <TORSDO>
F 6

$$$$
=
 OpenBabel11062407593D

 34 38  0  0  0  0  0  0  0  0999 V2000
  160.8490  203.5970  150.5660 C   0  0  0  0  0  0  0  0  0  0  0  0
  161.3030  204.1590  148.2540 C   0  0  0  0  0  3  0  0  0  0  0  0
  161.3060  205.9330  149.9920 C   0  0  0  0  0  0  0  0  0  0  0  0
  161.7010  208.2960  149.5540 C   0  0  0  0  0  0  0  0  0  0  0  0
  160.8440  201.8670  148.8700 C   0  0  0  0  0  3  0  0  0  0  0  0
  161.3070  202.4040  146.4780 C   0  0  0  0  0  1  0  0  0  0  0  0
  161.7410  206.7500  147.7170 O   0  0  0  0  0  1  0  0  0  0  0  0
  161.1570  204.5760  149.5900 C   0  0  0  0  0  0  0  0  0  0  0  0
  160.6940  202.2560  150.2020 C   0  0  0  0  0  3  0  0  0  0  0  0
  161.1550  206.2550  151.3700 C   0  0  0  0  0  0  0  0  0  0  0  0
  160.6960  203.9510  151.8640 N   0  0  0  0  0  0  0  0  0  0  0  0
  161.1480  202.8180  147.8970 C   0  0  0  0  0  0  0  0  0  0  0  0
  161.5480  208.5610  150.8730 N   0  0  0  0  0  0  0  0  0  0  0  0
  161.2940  207.5990  151.8000 C   0  0  0  0  0  0  0  0  0  0  0  0
  161.5850  206.9850  149.0810 C   0  0  0  0  0  0  0  0  0  0  0  0
  160.8370  205.2340  152.2750 C   0  0  0  0  0  3  0  0  0  0  0  0
  160.6520  207.4660  155.5300 C   0  0  0  0  0  0  0  0  0  0  0  0
  160.8290  208.8000  155.9020 C   0  0  0  0  0  3  0  0  0  0  0  0
  161.1680  208.0300  153.2180 C   0  0  0  0  0  0  0  0  0  0  0  0
  161.1680  209.7530  154.9390 C   0  0  0  0  0  3  0  0  0  0  0  0
  160.8140  207.0850  154.1950 C   0  0  0  0  0  3  0  0  0  0  0  0
  161.3300  209.3700  153.6040 C   0  0  0  0  0  3  0  0  0  0  0  0
  160.3170  206.5420  156.4620 F   0  0  0  0  0  0  0  0  0  0  0  0
  161.9560  209.4250  148.6150 C   0  0  0  0  0  2  0  0  0  0  0  0
  161.9960  210.6750  149.3530 N   0  0  0  0  0  2  0  0  0  0  0  0
  162.2340  211.7250  148.3800 C   0  0  0  0  0  2  0  0  0  0  0  0
  161.2670  212.8670  148.6240 C   0  0  0  0  0  2  0  0  0  0  0  0
  158.5020  213.6590  149.3720 C   0  0  0  0  0  1  0  0  0  0  0  0
  160.1420  212.8080  147.6420 C   0  0  0  0  0  0  0  0  0  0  0  0
  158.8340  213.1940  147.9940 C   0  0  0  0  0  0  0  0  0  0  0  0
  158.0870  212.7090  145.7380 C   0  0  0  0  0  3  0  0  0  0  0  0
  159.3840  212.3320  145.3860 C   0  0  0  0  0  3  0  0  0  0  0  0
  160.4090  212.3830  146.3350 C   0  0  0  0  0  3  0  0  0  0  0  0
  157.8130  213.1410  147.0400 C   0  0  0  0  0  3  0  0  0  0  0  0
  1 11  1  0  0  0  0
  2  8  1  0  0  0  0
  3 10  1  0  0  0  0
  4 13  2  0  0  0  0
  5  9  2  0  0  0  0
  6 12  1  0  0  0  0
  7 15  1  0  0  0  0
  8  3  1  0  0  0  0
  8  1  2  0  0  0  0
  9  1  1  0  0  0  0
 10 14  2  0  0  0  0
 10 16  1  0  0  0  0
 11 16  2  0  0  0  0
 12  2  2  0  0  0  0
 12  5  1  0  0  0  0
 13 14  1  0  0  0  0
 14 19  1  0  0  0  0
 15  4  1  0  0  0  0
 15  3  2  0  0  0  0
 17 18  1  0  0  0  0
 17 23  1  0  0  0  0
 19 22  2  0  0  0  0
 19 21  1  0  0  0  0
 20 18  2  0  0  0  0
 21 17  2  0  0  0  0
 22 20  1  0  0  0  0
 24 25  1  0  0  0  0
 24  4  1  0  0  0  0
 26 27  1  0  0  0  0
 26 25  1  0  0  0  0
 29 30  1  0  0  0  0
 29 27  1  0  0  0  0
 30 28  1  0  0  0  0
 31 34  1  0  0  0  0
 32 31  2  0  0  0  0
 32 33  1  0  0  0  0
 33 29  2  0  0  0  0
 34 30  2  0  0  0  0
M  END
>  <MODEL>
2

>  <REMARK>
 VINA RESULT:     -10.5      0.839      1.179
  Name = 
  6 active torsions:
  status: ('A' for Active; 'I' for Inactive)
    1  A    between atoms: C_3  and  C_13
    2  A    between atoms: C_3  and  C_17
    3  A    between atoms: C_5  and  C_18
    4  A    between atoms: C_12  and  C_28
    5  A    between atoms: C_17  and  N_29
    6  A    between atoms: C_18  and  N_29
                            x       y       z     vdW  Elec       q    Type
                         _______ _______ _______ _____ _____    ______ ____

>  <TORSDO>
F 6

$$$$
=
 OpenBabel11062407593D

 34 38  0  0  0  0  0  0  0  0999 V2000
  161.0840  206.1510  152.2240 C   0  0  0  0  0  0  0  0  0  0  0  0
  161.3730  208.4040  153.0660 C   0  0  0  0  0  3  0  0  0  0  0  0
  161.5360  207.9530  150.6290 C   0  0  0  0  0  0  0  0  0  0  0  0
  162.0240  209.6380  148.9410 C   0  0  0  0  0  0  0  0  0  0  0  0
  160.9260  206.5910  154.6020 C   0  0  0  0  0  3  0  0  0  0  0  0
  161.2170  208.8970  155.5080 C   0  0  0  0  0  1  0  0  0  0  0  0
  161.9150  210.3000  151.2470 O   0  0  0  0  0  1  0  0  0  0  0  0
  161.3340  207.5220  151.9700 C   0  0  0  0  0  0  0  0  0  0  0  0
  160.8830  205.6960  153.5310 C   0  0  0  0  0  3  0  0  0  0  0  0
  161.4630  206.9870  149.5860 C   0  0  0  0  0  0  0  0  0  0  0  0
  161.0410  205.2630  151.2020 N   0  0  0  0  0  0  0  0  0  0  0  0
  161.1700  207.9440  154.3690 C   0  0  0  0  0  0  0  0  0  0  0  0
  161.9480  208.6890  147.9770 N   0  0  0  0  0  0  0  0  0  0  0  0
  161.6640  207.3860  148.2400 C   0  0  0  0  0  0  0  0  0  0  0  0
  161.8220  209.2980  150.2830 C   0  0  0  0  0  0  0  0  0  0  0  0
  161.2240  205.6470  149.9170 C   0  0  0  0  0  3  0  0  0  0  0  0
  162.6690  204.7640  145.6990 C   0  0  0  0  0  0  0  0  0  0  0  0
  161.5540  204.7330  144.8590 C   0  0  0  0  0  3  0  0  0  0  0  0
  161.5930  206.4540  147.0830 C   0  0  0  0  0  0  0  0  0  0  0  0
  160.4610  205.5620  145.1200 C   0  0  0  0  0  3  0  0  0  0  0  0
  162.6900  205.6240  146.8000 C   0  0  0  0  0  3  0  0  0  0  0  0
  160.4840  206.4220  146.2220 C   0  0  0  0  0  3  0  0  0  0  0  0
  163.7320  203.9630  145.4440 F   0  0  0  0  0  0  0  0  0  0  0  0
  162.3620  211.0370  148.5520 C   0  0  0  0  0  2  0  0  0  0  0  0
  161.1970  211.6770  147.9660 N   0  0  0  0  0  2  0  0  0  0  0  0
  161.5010  213.0920  147.8760 C   0  0  0  0  0  2  0  0  0  0  0  0
  160.6900  213.7120  146.7550 C   0  0  0  0  0  2  0  0  0  0  0  0
  159.0020  212.4660  144.6510 C   0  0  0  0  0  1  0  0  0  0  0  0
  161.2550  213.3160  145.4300 C   0  0  0  0  0  0  0  0  0  0  0  0
  160.4520  212.7350  144.4290 C   0  0  0  0  0  0  0  0  0  0  0  0
  162.3730  212.6320  142.9520 C   0  0  0  0  0  3  0  0  0  0  0  0
  163.1690  213.2130  143.9410 C   0  0  0  0  0  3  0  0  0  0  0  0
  162.6110  213.5560  145.1760 C   0  0  0  0  0  3  0  0  0  0  0  0
  161.0170  212.3940  143.1960 C   0  0  0  0  0  3  0  0  0  0  0  0
  1  9  2  0  0  0  0
  2 12  1  0  0  0  0
  3  8  1  0  0  0  0
  4 15  2  0  0  0  0
  8  1  1  0  0  0  0
  8  2  2  0  0  0  0
  9  5  1  0  0  0  0
 10 16  1  0  0  0  0
 10  3  2  0  0  0  0
 11  1  1  0  0  0  0
 12  5  2  0  0  0  0
 12  6  1  0  0  0  0
 13 14  2  0  0  0  0
 13  4  1  0  0  0  0
 14 10  1  0  0  0  0
 15  3  1  0  0  0  0
 15  7  1  0  0  0  0
 16 11  2  0  0  0  0
 17 21  1  0  0  0  0
 18 20  1  0  0  0  0
 18 17  2  0  0  0  0
 19 14  1  0  0  0  0
 20 22  2  0  0  0  0
 21 19  2  0  0  0  0
 22 19  1  0  0  0  0
 23 17  1  0  0  0  0
 24  4  1  0  0  0  0
 25 24  1  0  0  0  0
 26 25  1  0  0  0  0
 27 26  1  0  0  0  0
 29 27  1  0  0  0  0
 30 28  1  0  0  0  0
 30 29  2  0  0  0  0
 31 34  2  0  0  0  0
 31 32  1  0  0  0  0
 32 33  2  0  0  0  0
 33 29  1  0  0  0  0
 34 30  1  0  0  0  0
M  END
>  <MODEL>
3

>  <REMARK>
 VINA RESULT:     -10.4      2.889      5.982
  Name = 
  6 active torsions:
  status: ('A' for Active; 'I' for Inactive)
    1  A    between atoms: C_3  and  C_13
    2  A    between atoms: C_3  and  C_17
    3  A    between atoms: C_5  and  C_18
    4  A    between atoms: C_12  and  C_28
    5  A    between atoms: C_17  and  N_29
    6  A    between atoms: C_18  and  N_29
                            x       y       z     vdW  Elec       q    Type
                         _______ _______ _______ _____ _____    ______ ____

>  <TORSDO>
F 6

$$$$
=
 OpenBabel11062407593D

 34 38  0  0  0  0  0  0  0  0999 V2000
  160.8850  203.7520  150.5170 C   0  0  0  0  0  0  0  0  0  0  0  0
  161.2950  204.2670  148.1850 C   0  0  0  0  0  3  0  0  0  0  0  0
  161.3270  206.0770  149.8860 C   0  0  0  0  0  0  0  0  0  0  0  0
  161.7090  208.4300  149.3930 C   0  0  0  0  0  0  0  0  0  0  0  0
  160.8520  201.9870  148.8570 C   0  0  0  0  0  3  0  0  0  0  0  0
  161.2700  202.4760  146.4460 C   0  0  0  0  0  1  0  0  0  0  0  0
  161.7190  206.8470  147.5870 O   0  0  0  0  0  1  0  0  0  0  0  0
  161.1730  204.7110  149.5150 C   0  0  0  0  0  0  0  0  0  0  0  0
  160.7260  202.4040  150.1830 C   0  0  0  0  0  3  0  0  0  0  0  0
  161.2010  206.4260  151.2600 C   0  0  0  0  0  0  0  0  0  0  0  0
  160.7550  204.1320  151.8100 N   0  0  0  0  0  0  0  0  0  0  0  0
  161.1370  202.9180  147.8590 C   0  0  0  0  0  0  0  0  0  0  0  0
  161.5800  208.7220  150.7090 N   0  0  0  0  0  0  0  0  0  0  0  0
  161.3460  207.7790  151.6590 C   0  0  0  0  0  0  0  0  0  0  0  0
  161.5870  207.1090  148.9490 C   0  0  0  0  0  0  0  0  0  0  0  0
  160.9020  205.4230  152.1910 C   0  0  0  0  0  3  0  0  0  0  0  0
  161.3560  210.0600  154.6820 C   0  0  0  0  0  0  0  0  0  0  0  0
  161.1490  209.1570  155.7270 C   0  0  0  0  0  3  0  0  0  0  0  0
  161.2440  208.2390  153.0700 C   0  0  0  0  0  0  0  0  0  0  0  0
  160.9980  207.7960  155.4530 C   0  0  0  0  0  3  0  0  0  0  0  0
  161.4090  209.6020  153.3630 C   0  0  0  0  0  3  0  0  0  0  0  0
  161.0510  207.3400  154.1320 C   0  0  0  0  0  3  0  0  0  0  0  0
  161.5090  211.3800  154.9480 F   0  0  0  0  0  0  0  0  0  0  0  0
  161.9450  209.5400  148.4260 C   0  0  0  0  0  2  0  0  0  0  0  0
  161.9570  210.8090  149.1320 N   0  0  0  0  0  2  0  0  0  0  0  0
  162.5880  211.7710  148.2480 C   0  0  0  0  0  2  0  0  0  0  0  0
  161.7330  213.0210  148.1710 C   0  0  0  0  0  2  0  0  0  0  0  0
  162.6900  213.3330  145.3750 C   0  0  0  0  0  1  0  0  0  0  0  0
  160.7980  212.9350  147.0080 C   0  0  0  0  0  0  0  0  0  0  0  0
  161.2550  213.0720  145.6830 C   0  0  0  0  0  0  0  0  0  0  0  0
  158.9950  212.7230  144.8720 C   0  0  0  0  0  3  0  0  0  0  0  0
  158.5430  212.5810  146.1850 C   0  0  0  0  0  3  0  0  0  0  0  0
  159.4420  212.6850  147.2510 C   0  0  0  0  0  3  0  0  0  0  0  0
  160.3490  212.9670  144.6220 C   0  0  0  0  0  3  0  0  0  0  0  0
  1 11  1  0  0  0  0
  2  8  1  0  0  0  0
  3 10  1  0  0  0  0
  4 13  2  0  0  0  0
  5  9  2  0  0  0  0
  6 12  1  0  0  0  0
  7 15  1  0  0  0  0
  8  3  1  0  0  0  0
  8  1  2  0  0  0  0
  9  1  1  0  0  0  0
 10 14  2  0  0  0  0
 10 16  1  0  0  0  0
 11 16  2  0  0  0  0
 12  2  2  0  0  0  0
 12  5  1  0  0  0  0
 13 14  1  0  0  0  0
 14 19  1  0  0  0  0
 15  4  1  0  0  0  0
 15  3  2  0  0  0  0
 17 23  1  0  0  0  0
 17 18  1  0  0  0  0
 19 21  1  0  0  0  0
 19 22  2  0  0  0  0
 20 18  2  0  0  0  0
 21 17  2  0  0  0  0
 22 20  1  0  0  0  0
 24 25  1  0  0  0  0
 24  4  1  0  0  0  0
 26 25  1  0  0  0  0
 27 26  1  0  0  0  0
 28 30  1  0  0  0  0
 29 33  1  0  0  0  0
 29 27  1  0  0  0  0
 30 29  2  0  0  0  0
 31 32  1  0  0  0  0
 32 33  2  0  0  0  0
 34 31  2  0  0  0  0
 34 30  1  0  0  0  0
M  END
>  <MODEL>
4

>  <REMARK>
 VINA RESULT:     -10.2      0.683      1.391
  Name = 
  6 active torsions:
  status: ('A' for Active; 'I' for Inactive)
    1  A    between atoms: C_3  and  C_13
    2  A    between atoms: C_3  and  C_17
    3  A    between atoms: C_5  and  C_18
    4  A    between atoms: C_12  and  C_28
    5  A    between atoms: C_17  and  N_29
    6  A    between atoms: C_18  and  N_29
                            x       y       z     vdW  Elec       q    Type
                         _______ _______ _______ _____ _____    ______ ____

>  <TORSDO>
F 6

$$$$
=
 OpenBabel11062407593D

 34 38  0  0  0  0  0  0  0  0999 V2000
  160.4760  210.6440  153.1820 C   0  0  0  0  0  0  0  0  0  0  0  0
  160.8980  208.2710  153.4340 C   0  0  0  0  0  3  0  0  0  0  0  0
  161.3650  209.3980  151.2700 C   0  0  0  0  0  0  0  0  0  0  0  0
  162.2060  208.2740  149.2800 C   0  0  0  0  0  0  0  0  0  0  0  0
  160.0190  209.5440  155.2920 C   0  0  0  0  0  3  0  0  0  0  0  0
  160.4400  207.1030  155.5920 C   0  0  0  0  0  1  0  0  0  0  0  0
  161.8220  206.9840  151.2690 O   0  0  0  0  0  1  0  0  0  0  0  0
  160.9190  209.4200  152.6220 C   0  0  0  0  0  0  0  0  0  0  0  0
  160.0300  210.6970  154.5060 C   0  0  0  0  0  3  0  0  0  0  0  0
  161.3640  210.6150  150.5330 C   0  0  0  0  0  0  0  0  0  0  0  0
  160.4750  211.7750  152.4380 N   0  0  0  0  0  0  0  0  0  0  0  0
  160.4530  208.3320  154.7560 C   0  0  0  0  0  0  0  0  0  0  0  0
  162.1880  209.4520  148.6130 N   0  0  0  0  0  0  0  0  0  0  0  0
  161.7990  210.6230  149.1840 C   0  0  0  0  0  0  0  0  0  0  0  0
  161.7980  208.2150  150.6170 C   0  0  0  0  0  0  0  0  0  0  0  0
  160.8990  211.7830  151.1520 C   0  0  0  0  0  3  0  0  0  0  0  0
  160.7700  213.2930  146.7020 C   0  0  0  0  0  0  0  0  0  0  0  0
  161.9100  214.0980  146.6550 C   0  0  0  0  0  3  0  0  0  0  0  0
  161.8470  211.8460  148.3390 C   0  0  0  0  0  0  0  0  0  0  0  0
  163.0220  213.7800  147.4380 C   0  0  0  0  0  3  0  0  0  0  0  0
  160.7420  212.1710  147.5350 C   0  0  0  0  0  3  0  0  0  0  0  0
  162.9910  212.6580  148.2700 C   0  0  0  0  0  3  0  0  0  0  0  0
  159.6930  213.5970  145.9390 F   0  0  0  0  0  0  0  0  0  0  0  0
  162.6310  207.0410  148.5580 C   0  0  0  0  0  2  0  0  0  0  0  0
  161.9040  206.9330  147.3060 N   0  0  0  0  0  2  0  0  0  0  0  0
  160.9280  205.8740  147.4800 C   0  0  0  0  0  2  0  0  0  0  0  0
  161.5890  204.5330  147.2310 C   0  0  0  0  0  2  0  0  0  0  0  0
  160.8370  201.7360  146.5660 C   0  0  0  0  0  1  0  0  0  0  0  0
  161.1890  203.5560  148.2890 C   0  0  0  0  0  0  0  0  0  0  0  0
  160.8440  202.2270  147.9740 C   0  0  0  0  0  0  0  0  0  0  0  0
  160.4860  201.7660  150.3280 C   0  0  0  0  0  3  0  0  0  0  0  0
  160.8350  203.0810  150.6420 C   0  0  0  0  0  3  0  0  0  0  0  0
  161.1870  203.9730  149.6250 C   0  0  0  0  0  3  0  0  0  0  0  0
  160.4920  201.3400  148.9970 C   0  0  0  0  0  3  0  0  0  0  0  0
  1  9  2  0  0  0  0
  2 12  1  0  0  0  0
  3  8  1  0  0  0  0
  4 15  2  0  0  0  0
  8  1  1  0  0  0  0
  8  2  2  0  0  0  0
  9  5  1  0  0  0  0
 10 16  1  0  0  0  0
 10  3  2  0  0  0  0
 11  1  1  0  0  0  0
 12  5  2  0  0  0  0
 12  6  1  0  0  0  0
 13 14  2  0  0  0  0
 13  4  1  0  0  0  0
 14 10  1  0  0  0  0
 15  7  1  0  0  0  0
 15  3  1  0  0  0  0
 16 11  2  0  0  0  0
 17 21  1  0  0  0  0
 18 17  2  0  0  0  0
 18 20  1  0  0  0  0
 19 14  1  0  0  0  0
 20 22  2  0  0  0  0
 21 19  2  0  0  0  0
 22 19  1  0  0  0  0
 23 17  1  0  0  0  0
 24  4  1  0  0  0  0
 25 26  1  0  0  0  0
 25 24  1  0  0  0  0
 27 26  1  0  0  0  0
 27 29  1  0  0  0  0
 28 30  1  0  0  0  0
 29 33  1  0  0  0  0
 30 29  2  0  0  0  0
 30 34  1  0  0  0  0
 31 32  1  0  0  0  0
 33 32  2  0  0  0  0
 34 31  2  0  0  0  0
M  END
>  <MODEL>
5

>  <REMARK>
 VINA RESULT:     -10.1      2.528      8.152
  Name = 
  6 active torsions:
  status: ('A' for Active; 'I' for Inactive)
    1  A    between atoms: C_3  and  C_13
    2  A    between atoms: C_3  and  C_17
    3  A    between atoms: C_5  and  C_18
    4  A    between atoms: C_12  and  C_28
    5  A    between atoms: C_17  and  N_29
    6  A    between atoms: C_18  and  N_29
                            x       y       z     vdW  Elec       q    Type
                         _______ _______ _______ _____ _____    ______ ____

>  <TORSDO>
F 6

$$$$
=
 OpenBabel11062407593D

 34 38  0  0  0  0  0  0  0  0999 V2000
  161.1180  205.9610  152.1780 C   0  0  0  0  0  0  0  0  0  0  0  0
  161.3580  208.1940  153.0860 C   0  0  0  0  0  3  0  0  0  0  0  0
  161.4980  207.8230  150.6340 C   0  0  0  0  0  0  0  0  0  0  0  0
  161.9150  209.5730  148.9930 C   0  0  0  0  0  0  0  0  0  0  0  0
  160.9830  206.3220  154.5700 C   0  0  0  0  0  3  0  0  0  0  0  0
  161.2260  208.6060  155.5440 C   0  0  0  0  0  1  0  0  0  0  0  0
  161.8220  210.1590  151.3200 O   0  0  0  0  0  1  0  0  0  0  0  0
  161.3270  207.3460  151.9640 C   0  0  0  0  0  0  0  0  0  0  0  0
  160.9490  205.4610  153.4720 C   0  0  0  0  0  3  0  0  0  0  0  0
  161.4350  206.8890  149.5620 C   0  0  0  0  0  0  0  0  0  0  0  0
  161.0840  205.1050  151.1290 N   0  0  0  0  0  0  0  0  0  0  0  0
  161.1880  207.6880  154.3760 C   0  0  0  0  0  0  0  0  0  0  0  0
  161.8500  208.6530  148.0020 N   0  0  0  0  0  0  0  0  0  0  0  0
  161.6050  207.3350  148.2270 C   0  0  0  0  0  0  0  0  0  0  0  0
  161.7420  209.1860  150.3260 C   0  0  0  0  0  0  0  0  0  0  0  0
  161.2380  205.5330  149.8540 C   0  0  0  0  0  3  0  0  0  0  0  0
  162.6210  204.7760  145.6260 C   0  0  0  0  0  0  0  0  0  0  0  0
  161.5190  204.7820  144.7690 C   0  0  0  0  0  3  0  0  0  0  0  0
  161.5420  206.4380  147.0420 C   0  0  0  0  0  0  0  0  0  0  0  0
  160.4320  205.6170  145.0360 C   0  0  0  0  0  3  0  0  0  0  0  0
  162.6350  205.6040  146.7520 C   0  0  0  0  0  3  0  0  0  0  0  0
  160.4470  206.4430  146.1630 C   0  0  0  0  0  3  0  0  0  0  0  0
  163.6790  203.9720  145.3640 F   0  0  0  0  0  0  0  0  0  0  0  0
  162.2090  210.9930  148.6440 C   0  0  0  0  0  2  0  0  0  0  0  0
  161.2540  211.4610  147.6560 N   0  0  0  0  0  2  0  0  0  0  0  0
  161.5460  212.8630  147.4260 C   0  0  0  0  0  2  0  0  0  0  0  0
  160.3060  213.5560  146.8950 C   0  0  0  0  0  2  0  0  0  0  0  0
  157.5800  212.5320  146.3030 C   0  0  0  0  0  1  0  0  0  0  0  0
  159.2290  213.5510  147.9310 C   0  0  0  0  0  0  0  0  0  0  0  0
  157.9410  213.0550  147.6530 C   0  0  0  0  0  0  0  0  0  0  0  0
  157.2680  213.5340  149.9330 C   0  0  0  0  0  3  0  0  0  0  0  0
  158.5470  214.0200  150.2120 C   0  0  0  0  0  3  0  0  0  0  0  0
  159.5250  214.0270  149.2140 C   0  0  0  0  0  3  0  0  0  0  0  0
  156.9660  213.0520  148.6560 C   0  0  0  0  0  3  0  0  0  0  0  0
  1  9  2  0  0  0  0
  2 12  1  0  0  0  0
  3  8  1  0  0  0  0
  4 15  2  0  0  0  0
  8  1  1  0  0  0  0
  8  2  2  0  0  0  0
  9  5  1  0  0  0  0
 10 16  1  0  0  0  0
 10  3  2  0  0  0  0
 11  1  1  0  0  0  0
 12  5  2  0  0  0  0
 12  6  1  0  0  0  0
 13 14  2  0  0  0  0
 13  4  1  0  0  0  0
 14 10  1  0  0  0  0
 15  3  1  0  0  0  0
 15  7  1  0  0  0  0
 16 11  2  0  0  0  0
 17 21  1  0  0  0  0
 18 20  1  0  0  0  0
 18 17  2  0  0  0  0
 19 14  1  0  0  0  0
 20 22  2  0  0  0  0
 21 19  2  0  0  0  0
 22 19  1  0  0  0  0
 23 17  1  0  0  0  0
 24  4  1  0  0  0  0
 25 24  1  0  0  0  0
 26 25  1  0  0  0  0
 27 26  1  0  0  0  0
 27 29  1  0  0  0  0
 28 30  1  0  0  0  0
 29 33  1  0  0  0  0
 30 29  2  0  0  0  0
 30 34  1  0  0  0  0
 31 32  1  0  0  0  0
 33 32  2  0  0  0  0
 34 31  2  0  0  0  0
M  END
>  <MODEL>
6

>  <REMARK>
 VINA RESULT:     -10.1      2.763      5.857
  Name = 
  6 active torsions:
  status: ('A' for Active; 'I' for Inactive)
    1  A    between atoms: C_3  and  C_13
    2  A    between atoms: C_3  and  C_17
    3  A    between atoms: C_5  and  C_18
    4  A    between atoms: C_12  and  C_28
    5  A    between atoms: C_17  and  N_29
    6  A    between atoms: C_18  and  N_29
                            x       y       z     vdW  Elec       q    Type
                         _______ _______ _______ _____ _____    ______ ____

>  <TORSDO>
F 6

$$$$
=
 OpenBabel11062407593D

 34 38  0  0  0  0  0  0  0  0999 V2000
  160.9400  206.7770  153.1140 C   0  0  0  0  0  0  0  0  0  0  0  0
  161.2410  209.1510  153.4880 C   0  0  0  0  0  3  0  0  0  0  0  0
  161.4640  208.2110  151.2000 C   0  0  0  0  0  0  0  0  0  0  0  0
  162.0220  209.5120  149.2200 C   0  0  0  0  0  0  0  0  0  0  0  0
  160.7250  207.6940  155.3470 C   0  0  0  0  0  3  0  0  0  0  0  0
  161.0280  210.1330  155.7730 C   0  0  0  0  0  1  0  0  0  0  0  0
  161.8620  210.6310  151.3380 O   0  0  0  0  0  1  0  0  0  0  0  0
  161.2190  208.0650  152.5950 C   0  0  0  0  0  0  0  0  0  0  0  0
  160.6980  206.6000  154.4800 C   0  0  0  0  0  3  0  0  0  0  0  0
  161.4040  207.0540  150.3740 C   0  0  0  0  0  0  0  0  0  0  0  0
  160.9120  205.7000  152.2940 N   0  0  0  0  0  0  0  0  0  0  0  0
  160.9970  208.9680  154.8510 C   0  0  0  0  0  0  0  0  0  0  0  0
  161.9580  208.3880  148.4670 N   0  0  0  0  0  0  0  0  0  0  0  0
  161.6460  207.1680  148.9810 C   0  0  0  0  0  0  0  0  0  0  0  0
  161.7790  209.4550  150.5960 C   0  0  0  0  0  0  0  0  0  0  0  0
  161.1350  205.8120  150.9630 C   0  0  0  0  0  3  0  0  0  0  0  0
  161.5070  203.6120  147.6850 C   0  0  0  0  0  0  0  0  0  0  0  0
  161.5750  203.8060  146.3030 C   0  0  0  0  0  3  0  0  0  0  0  0
  161.5930  206.0200  148.0370 C   0  0  0  0  0  0  0  0  0  0  0  0
  161.6600  205.0990  145.7830 C   0  0  0  0  0  3  0  0  0  0  0  0
  161.5220  204.7130  148.5450 C   0  0  0  0  0  3  0  0  0  0  0  0
  161.6740  206.1990  146.6460 C   0  0  0  0  0  3  0  0  0  0  0  0
  161.4310  202.3580  148.1900 F   0  0  0  0  0  0  0  0  0  0  0  0
  162.3920  210.7990  148.5640 C   0  0  0  0  0  2  0  0  0  0  0  0
  161.2050  211.4240  148.0090 N   0  0  0  0  0  2  0  0  0  0  0  0
  161.4610  212.8520  147.9800 C   0  0  0  0  0  2  0  0  0  0  0  0
  160.6230  213.4920  146.8900 C   0  0  0  0  0  2  0  0  0  0  0  0
  158.9690  212.4380  144.6580 C   0  0  0  0  0  1  0  0  0  0  0  0
  161.2120  213.2000  145.5480 C   0  0  0  0  0  0  0  0  0  0  0  0
  160.4250  212.7110  144.4880 C   0  0  0  0  0  0  0  0  0  0  0  0
  162.3750  212.7110  143.0460 C   0  0  0  0  0  3  0  0  0  0  0  0
  163.1550  213.2020  144.0940 C   0  0  0  0  0  3  0  0  0  0  0  0
  162.5750  213.4480  145.3420 C   0  0  0  0  0  3  0  0  0  0  0  0
  161.0130  212.4670  143.2420 C   0  0  0  0  0  3  0  0  0  0  0  0
  1  9  2  0  0  0  0
  2 12  1  0  0  0  0
  3  8  1  0  0  0  0
  4 15  2  0  0  0  0
  8  1  1  0  0  0  0
  8  2  2  0  0  0  0
  9  5  1  0  0  0  0
 10 16  1  0  0  0  0
 10  3  2  0  0  0  0
 11  1  1  0  0  0  0
 12  5  2  0  0  0  0
 12  6  1  0  0  0  0
 13 14  2  0  0  0  0
 13  4  1  0  0  0  0
 14 10  1  0  0  0  0
 15  3  1  0  0  0  0
 15  7  1  0  0  0  0
 16 11  2  0  0  0  0
 17 23  1  0  0  0  0
 17 21  1  0  0  0  0
 18 17  2  0  0  0  0
 19 21  2  0  0  0  0
 19 14  1  0  0  0  0
 20 18  1  0  0  0  0
 20 22  2  0  0  0  0
 22 19  1  0  0  0  0
 24  4  1  0  0  0  0
 25 24  1  0  0  0  0
 26 25  1  0  0  0  0
 27 26  1  0  0  0  0
 29 27  1  0  0  0  0
 30 28  1  0  0  0  0
 30 29  2  0  0  0  0
 31 34  2  0  0  0  0
 31 32  1  0  0  0  0
 32 33  2  0  0  0  0
 33 29  1  0  0  0  0
 34 30  1  0  0  0  0
M  END
>  <MODEL>
7

>  <REMARK>
 VINA RESULT:      -9.9      2.618      5.938
  Name = 
  6 active torsions:
  status: ('A' for Active; 'I' for Inactive)
    1  A    between atoms: C_3  and  C_13
    2  A    between atoms: C_3  and  C_17
    3  A    between atoms: C_5  and  C_18
    4  A    between atoms: C_12  and  C_28
    5  A    between atoms: C_17  and  N_29
    6  A    between atoms: C_18  and  N_29
                            x       y       z     vdW  Elec       q    Type
                         _______ _______ _______ _____ _____    ______ ____

>  <TORSDO>
F 6

$$$$
=
 OpenBabel11062407593D

 34 38  0  0  0  0  0  0  0  0999 V2000
  161.5080  208.6490  151.6010 C   0  0  0  0  0  0  0  0  0  0  0  0
  161.1080  207.3040  153.5760 C   0  0  0  0  0  3  0  0  0  0  0  0
  161.2870  206.2240  151.3470 C   0  0  0  0  0  0  0  0  0  0  0  0
  161.0440  203.8350  150.9460 C   0  0  0  0  0  0  0  0  0  0  0  0
  161.3320  209.7030  153.7760 C   0  0  0  0  0  3  0  0  0  0  0  0
  160.9210  208.3530  155.8340 C   0  0  0  0  0  1  0  0  0  0  0  0
  160.8300  204.6640  153.1890 O   0  0  0  0  0  1  0  0  0  0  0  0
  161.2980  207.3750  152.1840 C   0  0  0  0  0  0  0  0  0  0  0  0
  161.5220  209.7990  152.3970 C   0  0  0  0  0  3  0  0  0  0  0  0
  161.5040  206.3960  149.9510 C   0  0  0  0  0  0  0  0  0  0  0  0
  161.6910  208.7680  150.2650 N   0  0  0  0  0  0  0  0  0  0  0  0
  161.1250  208.4560  154.3650 C   0  0  0  0  0  0  0  0  0  0  0  0
  161.2530  204.0400  149.6230 N   0  0  0  0  0  0  0  0  0  0  0  0
  161.4950  205.2670  149.0920 C   0  0  0  0  0  0  0  0  0  0  0  0
  161.0560  204.9130  151.8370 C   0  0  0  0  0  0  0  0  0  0  0  0
  161.6910  207.6890  149.4470 C   0  0  0  0  0  3  0  0  0  0  0  0
  160.9210  205.9950  145.4200 C   0  0  0  0  0  0  0  0  0  0  0  0
  162.0630  205.4450  144.8340 C   0  0  0  0  0  3  0  0  0  0  0  0
  161.7250  205.3450  147.6240 C   0  0  0  0  0  0  0  0  0  0  0  0
  163.0330  204.8390  145.6340 C   0  0  0  0  0  3  0  0  0  0  0  0
  160.7500  205.9390  146.8060 C   0  0  0  0  0  3  0  0  0  0  0  0
  162.8620  204.7840  147.0200 C   0  0  0  0  0  3  0  0  0  0  0  0
  159.9750  206.5790  144.6440 F   0  0  0  0  0  0  0  0  0  0  0  0
  160.7680  202.4510  151.4270 C   0  0  0  0  0  2  0  0  0  0  0  0
  161.5850  201.5040  150.6900 N   0  0  0  0  0  2  0  0  0  0  0  0
  160.7440  200.9530  149.6450 C   0  0  0  0  0  2  0  0  0  0  0  0
  161.6140  200.4610  148.5040 C   0  0  0  0  0  2  0  0  0  0  0  0
  161.5800  198.6190  146.1720 C   0  0  0  0  0  1  0  0  0  0  0  0
  161.0230  200.8670  147.1930 C   0  0  0  0  0  0  0  0  0  0  0  0
  160.9980  199.9900  146.0920 C   0  0  0  0  0  0  0  0  0  0  0  0
  159.8650  201.6820  144.7740 C   0  0  0  0  0  3  0  0  0  0  0  0
  159.8840  202.5500  145.8670 C   0  0  0  0  0  3  0  0  0  0  0  0
  160.4600  202.1440  147.0740 C   0  0  0  0  0  3  0  0  0  0  0  0
  160.4200  200.4030  144.8870 C   0  0  0  0  0  3  0  0  0  0  0  0
  1  8  1  0  0  0  0
  1  9  2  0  0  0  0
  2 12  1  0  0  0  0
  3 15  1  0  0  0  0
  3  8  1  0  0  0  0
  4 24  1  0  0  0  0
  4 15  2  0  0  0  0
  5 12  2  0  0  0  0
  8  2  2  0  0  0  0
  9  5  1  0  0  0  0
 10  3  2  0  0  0  0
 11  1  1  0  0  0  0
 12  6  1  0  0  0  0
 13  4  1  0  0  0  0
 14 13  2  0  0  0  0
 14 10  1  0  0  0  0
 15  7  1  0  0  0  0
 16 10  1  0  0  0  0
 16 11  2  0  0  0  0
 17 21  1  0  0  0  0
 18 17  2  0  0  0  0
 18 20  1  0  0  0  0
 19 14  1  0  0  0  0
 20 22  2  0  0  0  0
 21 19  2  0  0  0  0
 22 19  1  0  0  0  0
 23 17  1  0  0  0  0
 25 24  1  0  0  0  0
 26 25  1  0  0  0  0
 27 26  1  0  0  0  0
 29 27  1  0  0  0  0
 30 28  1  0  0  0  0
 30 29  2  0  0  0  0
 31 34  2  0  0  0  0
 31 32  1  0  0  0  0
 32 33  2  0  0  0  0
 33 29  1  0  0  0  0
 34 30  1  0  0  0  0
M  END
>  <MODEL>
8

>  <REMARK>
 VINA RESULT:      -9.8      3.919      8.943
  Name = 
  6 active torsions:
  status: ('A' for Active; 'I' for Inactive)
    1  A    between atoms: C_3  and  C_13
    2  A    between atoms: C_3  and  C_17
    3  A    between atoms: C_5  and  C_18
    4  A    between atoms: C_12  and  C_28
    5  A    between atoms: C_17  and  N_29
    6  A    between atoms: C_18  and  N_29
                            x       y       z     vdW  Elec       q    Type
                         _______ _______ _______ _____ _____    ______ ____

>  <TORSDO>
F 6

$$$$
=
 OpenBabel11062407593D

 34 38  0  0  0  0  0  0  0  0999 V2000
  160.9010  205.1260  151.4640 C   0  0  0  0  0  0  0  0  0  0  0  0
  161.4100  205.2560  149.0990 C   0  0  0  0  0  3  0  0  0  0  0  0
  161.4600  207.3060  150.5010 C   0  0  0  0  0  0  0  0  0  0  0  0
  161.9560  209.5390  149.6660 C   0  0  0  0  0  0  0  0  0  0  0  0
  160.8500  203.1260  150.0960 C   0  0  0  0  0  3  0  0  0  0  0  0
  161.3680  203.2190  147.6570 C   0  0  0  0  0  1  0  0  0  0  0  0
  161.9600  207.6960  148.1270 O   0  0  0  0  0  1  0  0  0  0  0  0
  161.2620  205.9060  150.3380 C   0  0  0  0  0  0  0  0  0  0  0  0
  160.6970  203.7480  151.3360 C   0  0  0  0  0  3  0  0  0  0  0  0
  161.3030  207.8700  151.7980 C   0  0  0  0  0  0  0  0  0  0  0  0
  160.7440  205.7070  152.6770 N   0  0  0  0  0  0  0  0  0  0  0  0
  161.2060  203.8800  148.9780 C   0  0  0  0  0  0  0  0  0  0  0  0
  161.7950  210.0370  150.9150 N   0  0  0  0  0  0  0  0  0  0  0  0
  161.4900  209.2620  151.9900 C   0  0  0  0  0  0  0  0  0  0  0  0
  161.7940  208.1710  149.4270 C   0  0  0  0  0  0  0  0  0  0  0  0
  160.9310  207.0350  152.8600 C   0  0  0  0  0  3  0  0  0  0  0  0
  161.9330  210.0220  155.6740 C   0  0  0  0  0  0  0  0  0  0  0  0
  161.0910  211.1230  155.8450 C   0  0  0  0  0  3  0  0  0  0  0  0
  161.3610  209.9390  153.3080 C   0  0  0  0  0  0  0  0  0  0  0  0
  160.3770  211.6310  154.7570 C   0  0  0  0  0  3  0  0  0  0  0  0
  162.0610  209.4300  154.4140 C   0  0  0  0  0  3  0  0  0  0  0  0
  160.5080  211.0380  153.4980 C   0  0  0  0  0  3  0  0  0  0  0  0
  162.6210  209.5250  156.7290 F   0  0  0  0  0  0  0  0  0  0  0  0
  162.2700  210.4760  148.5500 C   0  0  0  0  0  2  0  0  0  0  0  0
  161.8740  211.8240  148.9170 N   0  0  0  0  0  2  0  0  0  0  0  0
  162.5740  212.7230  148.0190 C   0  0  0  0  0  2  0  0  0  0  0  0
  161.5670  213.5770  147.2740 C   0  0  0  0  0  2  0  0  0  0  0  0
  159.0850  212.5780  145.9810 C   0  0  0  0  0  1  0  0  0  0  0  0
  161.5350  213.1950  145.8290 C   0  0  0  0  0  0  0  0  0  0  0  0
  160.3550  212.7320  145.2150 C   0  0  0  0  0  0  0  0  0  0  0  0
  161.5360  212.5310  143.1060 C   0  0  0  0  0  3  0  0  0  0  0  0
  162.7050  212.9960  143.7130 C   0  0  0  0  0  3  0  0  0  0  0  0
  162.7040  213.3280  145.0700 C   0  0  0  0  0  3  0  0  0  0  0  0
  160.3630  212.4000  143.8560 C   0  0  0  0  0  3  0  0  0  0  0  0
  1 11  1  0  0  0  0
  2  8  1  0  0  0  0
  3 10  1  0  0  0  0
  4 13  2  0  0  0  0
  5  9  2  0  0  0  0
  6 12  1  0  0  0  0
  7 15  1  0  0  0  0
  8  3  1  0  0  0  0
  8  1  2  0  0  0  0
  9  1  1  0  0  0  0
 10 14  2  0  0  0  0
 10 16  1  0  0  0  0
 11 16  2  0  0  0  0
 12  2  2  0  0  0  0
 12  5  1  0  0  0  0
 13 14  1  0  0  0  0
 14 19  1  0  0  0  0
 15  4  1  0  0  0  0
 15  3  2  0  0  0  0
 17 18  1  0  0  0  0
 17 23  1  0  0  0  0
 19 22  2  0  0  0  0
 19 21  1  0  0  0  0
 20 18  2  0  0  0  0
 21 17  2  0  0  0  0
 22 20  1  0  0  0  0
 24 25  1  0  0  0  0
 24  4  1  0  0  0  0
 26 25  1  0  0  0  0
 27 26  1  0  0  0  0
 29 27  1  0  0  0  0
 30 29  1  0  0  0  0
 30 28  1  0  0  0  0
 31 32  2  0  0  0  0
 31 34  1  0  0  0  0
 32 33  1  0  0  0  0
 33 29  2  0  0  0  0
 34 30  2  0  0  0  0
M  END
>  <MODEL>
9

>  <REMARK>
 VINA RESULT:      -9.7      1.517      2.362
  Name = 
  6 active torsions:
  status: ('A' for Active; 'I' for Inactive)
    1  A    between atoms: C_3  and  C_13
    2  A    between atoms: C_3  and  C_17
    3  A    between atoms: C_5  and  C_18
    4  A    between atoms: C_12  and  C_28
    5  A    between atoms: C_17  and  N_29
    6  A    between atoms: C_18  and  N_29
                            x       y       z     vdW  Elec       q    Type
                         _______ _______ _______ _____ _____    ______ ____

>  <TORSDO>
F 6

$$$$
