=
 OpenBabel11062410483D

 32 36  0  0  1  0  0  0  0  0999 V2000
  160.7510  201.3560  147.9870 C   0  0  0  0  0  2  0  0  0  0  0  0
  161.2870  205.6000  150.8390 C   0  0  0  0  0  0  0  0  0  0  0  0
  163.1670  209.1260  148.3960 N   0  0  0  0  0  2  0  0  0  0  0  0
  162.2210  210.1330  148.8610 C   0  0  0  0  0  2  0  0  0  0  0  0
  161.1410  203.3070  150.0620 C   0  0  0  0  0  0  0  0  0  0  0  0
  161.2470  205.1310  148.4650 C   0  0  0  0  0  3  0  0  0  0  0  0
  161.1270  202.7800  147.5640 C   0  0  2  0  0  3  0  0  0  0  0  0
  162.4690  207.8570  148.1560 C   0  0  0  0  0  2  0  0  0  0  0  0
  161.3370  206.0550  149.5140 C   0  0  0  0  0  0  0  0  0  0  0  0
  161.3980  207.5310  149.2210 C   0  0  1  0  0  3  0  0  0  0  0  0
  161.4410  207.8090  151.7550 C   0  0  0  0  0  0  0  0  0  0  0  0
  161.4890  200.9650  149.2570 C   0  0  0  0  0  2  0  0  0  0  0  0
  161.1270  203.7570  148.7210 C   0  0  0  0  0  0  0  0  0  0  0  0
  161.0130  201.8510  150.4020 C   0  0  0  0  0  2  0  0  0  0  0  0
  161.8050  209.7960  150.2870 C   0  0  0  0  0  2  0  0  0  0  0  0
  161.5660  208.3580  150.4300 N   0  0  0  0  0  0  0  0  0  0  0  0
  161.1940  204.2320  151.1060 C   0  0  0  0  0  3  0  0  0  0  0  0
  161.3200  206.5260  151.9260 N   0  0  0  0  0  0  0  0  0  0  0  0
  160.1890  203.2360  146.4530 C   0  0  0  0  0  2  0  0  0  0  0  0
  160.8040  205.0350  144.8010 C   0  0  0  0  0  0  0  0  0  0  0  0
  160.9570  203.7130  145.3140 N   0  0  0  0  0  2  0  0  0  0  0  0
  159.9890  205.8380  145.3290 O   0  0  0  0  0  0  0  0  0  0  0  0
  161.5800  205.4520  143.6840 N   0  0  0  0  0  1  0  0  0  0  0  0
  161.4720  208.6650  152.8610 O   0  0  0  0  0  0  0  0  0  0  0  0
  160.0490  210.6000  153.2240 C   0  0  2  0  0  3  0  0  0  0  0  0
  160.5330  211.5100  154.3550 C   0  0  0  0  0  2  0  0  0  0  0  0
  160.4100  208.7990  155.0260 C   0  0  1  0  0  3  0  0  0  0  0  0
  159.4930  209.6960  155.8480 C   0  0  0  0  0  2  0  0  0  0  0  0
  159.8750  211.1750  155.7020 C   0  0  0  0  0  2  0  0  0  0  0  0
  158.6910  210.8160  152.9810 O   0  0  0  0  0  1  0  0  0  0  0  0
  160.0600  207.3470  155.2760 C   0  0  0  0  0  1  0  0  0  0  0  0
  160.2960  209.1110  153.5270 C   0  0  2  0  0  3  0  0  0  0  0  0
  1 12  1  0  0  0  0
  2 17  1  0  0  0  0
  2 18  1  0  0  0  0
  3  4  1  0  0  0  0
  4 15  1  0  0  0  0
  5 14  1  0  0  0  0
  5 17  2  0  0  0  0
  6 13  2  0  0  0  0
  6  9  1  0  0  0  0
  7 19  1  6  0  0  0
  7  1  1  0  0  0  0
  7 13  1  0  0  0  0
  8  3  1  0  0  0  0
  9  2  2  0  0  0  0
 10  8  1  6  0  0  0
 10  9  1  0  0  0  0
 10 16  1  0  0  0  0
 11 18  2  0  0  0  0
 11 24  1  0  0  0  0
 12 14  1  0  0  0  0
 13  5  1  0  0  0  0
 15 16  1  0  0  0  0
 16 11  1  0  0  0  0
 20 21  1  0  0  0  0
 20 22  2  0  0  0  0
 21 19  1  0  0  0  0
 23 20  1  0  0  0  0
 25 30  1  1  0  0  0
 25 32  1  0  0  0  0
 25 26  1  0  0  0  0
 26 29  1  0  0  0  0
 27 31  1  6  0  0  0
 27 28  1  0  0  0  0
 29 28  1  0  0  0  0
 32 24  1  6  0  0  0
 32 27  1  0  0  0  0
M  END
>  <MODEL>
1

>  <REMARK>
 VINA RESULT:      -8.6      0.000      0.000
  Name = 
  4 active torsions:
  status: ('A' for Active; 'I' for Inactive)
    1  A    between atoms: N_10  and  C_24
    2  A    between atoms: C_12  and  C_24
    3  A    between atoms: C_16  and  O_27
    4  A    between atoms: O_27  and  C_32
                            x       y       z     vdW  Elec       q    Type
                         _______ _______ _______ _____ _____    ______ ____

>  <TORSDO>
F 4

$$$$
=
 OpenBabel11062410483D

 32 36  0  0  1  0  0  0  0  0999 V2000
  160.9180  201.3350  149.4960 C   0  0  0  0  0  2  0  0  0  0  0  0
  161.2310  206.0320  151.5650 C   0  0  0  0  0  0  0  0  0  0  0  0
  162.9770  209.1610  148.5490 N   0  0  0  0  0  2  0  0  0  0  0  0
  161.9810  210.1880  148.8280 C   0  0  0  0  0  2  0  0  0  0  0  0
  161.1970  203.6340  151.1990 C   0  0  0  0  0  0  0  0  0  0  0  0
  161.2390  205.1540  149.3090 C   0  0  0  0  0  3  0  0  0  0  0  0
  161.2340  202.6790  148.8320 C   0  0  2  0  0  3  0  0  0  0  0  0
  162.3390  207.8390  148.5330 C   0  0  0  0  0  2  0  0  0  0  0  0
  161.2750  206.2510  150.1810 C   0  0  0  0  0  0  0  0  0  0  0  0
  161.2730  207.6540  149.6350 C   0  0  1  0  0  3  0  0  0  0  0  0
  161.2750  208.3710  152.0810 C   0  0  0  0  0  0  0  0  0  0  0  0
  161.6590  201.2060  150.8180 C   0  0  0  0  0  2  0  0  0  0  0  0
  161.1780  203.8430  149.8010 C   0  0  0  0  0  0  0  0  0  0  0  0
  161.1310  202.2550  151.7880 C   0  0  0  0  0  2  0  0  0  0  0  0
  161.5650  210.0860  150.2900 C   0  0  0  0  0  2  0  0  0  0  0  0
  161.3900  208.6870  150.6810 N   0  0  0  0  0  0  0  0  0  0  0  0
  161.1960  204.7290  152.0660 C   0  0  0  0  0  3  0  0  0  0  0  0
  161.2100  207.1340  152.4730 N   0  0  0  0  0  0  0  0  0  0  0  0
  160.2900  202.8910  147.6560 C   0  0  0  0  0  2  0  0  0  0  0  0
  160.2560  201.7160  145.4280 C   0  0  0  0  0  0  0  0  0  0  0  0
  160.2120  201.6810  146.8530 N   0  0  0  0  0  2  0  0  0  0  0  0
  160.3680  202.8120  144.8170 O   0  0  0  0  0  0  0  0  0  0  0  0
  160.1740  200.5030  144.6900 N   0  0  0  0  0  1  0  0  0  0  0  0
  161.2550  209.4080  153.0210 O   0  0  0  0  0  0  0  0  0  0  0  0
  159.6390  211.1890  153.3630 C   0  0  2  0  0  3  0  0  0  0  0  0
  160.0920  212.2370  154.3810 C   0  0  0  0  0  2  0  0  0  0  0  0
  160.3510  209.5940  155.2530 C   0  0  1  0  0  3  0  0  0  0  0  0
  159.3970  210.4430  156.0830 C   0  0  0  0  0  2  0  0  0  0  0  0
  159.5840  211.9390  155.7990 C   0  0  0  0  0  2  0  0  0  0  0  0
  158.2500  211.2270  153.2210 O   0  0  0  0  0  1  0  0  0  0  0  0
  160.2000  208.1360  155.6350 C   0  0  0  0  0  1  0  0  0  0  0  0
  160.0870  209.7670  153.7510 C   0  0  2  0  0  3  0  0  0  0  0  0
  1 12  1  0  0  0  0
  2 17  1  0  0  0  0
  2 18  1  0  0  0  0
  3  4  1  0  0  0  0
  4 15  1  0  0  0  0
  5 14  1  0  0  0  0
  5 17  2  0  0  0  0
  6 13  2  0  0  0  0
  6  9  1  0  0  0  0
  7 19  1  6  0  0  0
  7  1  1  0  0  0  0
  7 13  1  0  0  0  0
  8  3  1  0  0  0  0
  9  2  2  0  0  0  0
 10  8  1  6  0  0  0
 10  9  1  0  0  0  0
 10 16  1  0  0  0  0
 11 18  2  0  0  0  0
 11 24  1  0  0  0  0
 12 14  1  0  0  0  0
 13  5  1  0  0  0  0
 15 16  1  0  0  0  0
 16 11  1  0  0  0  0
 20 21  1  0  0  0  0
 21 19  1  0  0  0  0
 22 20  2  0  0  0  0
 23 20  1  0  0  0  0
 25 30  1  1  0  0  0
 25 32  1  0  0  0  0
 25 26  1  0  0  0  0
 26 29  1  0  0  0  0
 27 31  1  1  0  0  0
 27 28  1  0  0  0  0
 29 28  1  0  0  0  0
 32 24  1  6  0  0  0
 32 27  1  0  0  0  0
M  END
>  <MODEL>
2

>  <REMARK>
 VINA RESULT:      -7.6      1.500      1.573
  Name = 
  4 active torsions:
  status: ('A' for Active; 'I' for Inactive)
    1  A    between atoms: N_10  and  C_24
    2  A    between atoms: C_12  and  C_24
    3  A    between atoms: C_16  and  O_27
    4  A    between atoms: O_27  and  C_32
                            x       y       z     vdW  Elec       q    Type
                         _______ _______ _______ _____ _____    ______ ____

>  <TORSDO>
F 4

$$$$
=
 OpenBabel11062410483D

 32 36  0  0  1  0  0  0  0  0999 V2000
  161.1700  205.1720  148.6510 C   0  0  0  0  0  2  0  0  0  0  0  0
  161.3570  208.6620  152.4220 C   0  0  0  0  0  0  0  0  0  0  0  0
  159.4910  207.0430  156.4000 N   0  0  0  0  0  2  0  0  0  0  0  0
  160.5690  207.5160  157.2590 C   0  0  0  0  0  2  0  0  0  0  0  0
  161.2100  207.5440  150.2740 C   0  0  0  0  0  0  0  0  0  0  0  0
  161.0590  206.2620  152.3280 C   0  0  0  0  0  3  0  0  0  0  0  0
  160.8660  205.0180  150.1440 C   0  0  2  0  0  3  0  0  0  0  0  0
  160.0440  206.5270  155.1430 C   0  0  0  0  0  2  0  0  0  0  0  0
  161.1800  207.4370  153.0810 C   0  0  0  0  0  0  0  0  0  0  0  0
  161.2080  207.3750  154.5850 C   0  0  1  0  0  3  0  0  0  0  0  0
  161.5070  209.9040  154.4660 C   0  0  0  0  0  0  0  0  0  0  0  0
  160.5680  206.4610  148.1140 C   0  0  0  0  0  2  0  0  0  0  0  0
  161.0930  206.2950  150.9270 C   0  0  0  0  0  0  0  0  0  0  0  0
  161.2560  207.6470  148.7780 C   0  0  0  0  0  2  0  0  0  0  0  0
  161.1310  208.8070  156.6770 C   0  0  0  0  0  2  0  0  0  0  0  0
  161.2640  208.7040  155.2220 N   0  0  0  0  0  0  0  0  0  0  0  0
  161.3670  208.7110  151.0260 C   0  0  0  0  0  3  0  0  0  0  0  0
  161.5390  209.8670  153.1670 N   0  0  0  0  0  0  0  0  0  0  0  0
  161.6920  203.8690  150.7070 C   0  0  0  0  0  2  0  0  0  0  0  0
  160.7020  201.7200  149.8410 C   0  0  0  0  0  0  0  0  0  0  0  0
  160.8580  202.6890  150.8760 N   0  0  0  0  0  2  0  0  0  0  0  0
  161.2920  201.8600  148.7370 O   0  0  0  0  0  0  0  0  0  0  0  0
  159.8730  200.5840  150.0590 N   0  0  0  0  0  1  0  0  0  0  0  0
  161.6880  211.1170  155.1390 O   0  0  0  0  0  0  0  0  0  0  0  0
  160.2230  212.1200  156.7960 C   0  0  2  0  0  3  0  0  0  0  0  0
  158.9600  211.3000  157.0710 C   0  0  0  0  0  2  0  0  0  0  0  0
  159.4870  211.7360  154.3600 C   0  0  1  0  0  3  0  0  0  0  0  0
  158.1740  212.3330  154.8540 C   0  0  0  0  0  2  0  0  0  0  0  0
  157.7690  211.7500  156.2130 C   0  0  0  0  0  2  0  0  0  0  0  0
  160.0280  213.4460  157.1880 O   0  0  0  0  0  1  0  0  0  0  0  0
  159.7990  212.2660  152.9760 C   0  0  0  0  0  1  0  0  0  0  0  0
  160.6420  212.0670  155.3160 C   0  0  2  0  0  3  0  0  0  0  0  0
  1  7  1  0  0  0  0
  2  9  1  0  0  0  0
  2 18  1  0  0  0  0
  3  4  1  0  0  0  0
  5 13  2  0  0  0  0
  5 17  1  0  0  0  0
  6  9  2  0  0  0  0
  7 19  1  1  0  0  0
  7 13  1  0  0  0  0
  8  3  1  0  0  0  0
  9 10  1  0  0  0  0
 10  8  1  1  0  0  0
 10 16  1  0  0  0  0
 11 24  1  0  0  0  0
 11 16  1  0  0  0  0
 12  1  1  0  0  0  0
 12 14  1  0  0  0  0
 13  6  1  0  0  0  0
 14  5  1  0  0  0  0
 15  4  1  0  0  0  0
 16 15  1  0  0  0  0
 17  2  2  0  0  0  0
 18 11  2  0  0  0  0
 19 21  1  0  0  0  0
 20 23  1  0  0  0  0
 20 21  1  0  0  0  0
 22 20  2  0  0  0  0
 25 26  1  0  0  0  0
 25 30  1  6  0  0  0
 27 31  1  6  0  0  0
 27 28  1  0  0  0  0
 27 32  1  0  0  0  0
 28 29  1  0  0  0  0
 29 26  1  0  0  0  0
 32 24  1  1  0  0  0
 32 25  1  0  0  0  0
M  END
>  <MODEL>
3

>  <REMARK>
 VINA RESULT:      -7.3      2.866      5.122
  Name = 
  4 active torsions:
  status: ('A' for Active; 'I' for Inactive)
    1  A    between atoms: N_10  and  C_24
    2  A    between atoms: C_12  and  C_24
    3  A    between atoms: C_16  and  O_27
    4  A    between atoms: O_27  and  C_32
                            x       y       z     vdW  Elec       q    Type
                         _______ _______ _______ _____ _____    ______ ____

>  <TORSDO>
F 4

$$$$
=
 OpenBabel11062410483D

 32 36  0  0  1  0  0  0  0  0999 V2000
  161.2980  214.2840  148.3510 C   0  0  0  0  0  2  0  0  0  0  0  0
  161.8670  209.4720  150.0700 C   0  0  0  0  0  0  0  0  0  0  0  0
  161.5680  209.2330  154.7380 N   0  0  0  0  0  2  0  0  0  0  0  0
  160.6790  208.0780  154.7580 C   0  0  0  0  0  2  0  0  0  0  0  0
  162.0050  211.5340  148.8000 C   0  0  0  0  0  0  0  0  0  0  0  0
  160.9570  211.5180  150.9880 C   0  0  0  0  0  3  0  0  0  0  0  0
  161.0800  213.7140  149.7560 C   0  0  2  0  0  3  0  0  0  0  0  0
  161.1870  210.1370  153.6450 C   0  0  0  0  0  2  0  0  0  0  0  0
  161.2370  210.1520  151.1220 C   0  0  0  0  0  0  0  0  0  0  0  0
  160.7860  209.4020  152.3470 C   0  0  1  0  0  3  0  0  0  0  0  0
  161.8150  207.3660  151.2100 C   0  0  0  0  0  0  0  0  0  0  0  0
  162.5740  213.7270  147.7410 C   0  0  0  0  0  2  0  0  0  0  0  0
  161.3140  212.2190  149.8270 C   0  0  0  0  0  0  0  0  0  0  0  0
  162.4120  212.2260  147.5320 C   0  0  0  0  0  2  0  0  0  0  0  0
  161.0030  207.1880  153.5640 C   0  0  0  0  0  2  0  0  0  0  0  0
  161.2260  207.9940  152.3630 N   0  0  0  0  0  0  0  0  0  0  0  0
  162.2510  210.1650  148.9190 C   0  0  0  0  0  3  0  0  0  0  0  0
  162.1130  208.0680  150.1580 N   0  0  0  0  0  0  0  0  0  0  0  0
  159.6810  214.0790  150.2330 C   0  0  0  0  0  2  0  0  0  0  0  0
  157.5600  213.8400  148.8940 C   0  0  0  0  0  0  0  0  0  0  0  0
  158.8420  214.4330  149.0990 N   0  0  0  0  0  2  0  0  0  0  0  0
  157.1130  212.9850  149.7040 O   0  0  0  0  0  0  0  0  0  0  0  0
  156.7800  214.2210  147.7680 N   0  0  0  0  0  1  0  0  0  0  0  0
  162.0850  205.9920  151.2370 O   0  0  0  0  0  0  0  0  0  0  0  0
  161.1160  203.9080  152.0220 C   0  0  2  0  0  3  0  0  0  0  0  0
  161.8950  202.6680  151.5810 C   0  0  0  0  0  2  0  0  0  0  0  0
  161.3310  204.4710  149.5200 C   0  0  1  0  0  3  0  0  0  0  0  0
  160.7070  203.0920  149.3430 C   0  0  0  0  0  2  0  0  0  0  0  0
  161.3480  202.0610  150.2810 C   0  0  0  0  0  2  0  0  0  0  0  0
  159.8060  203.5580  152.3580 O   0  0  0  0  0  1  0  0  0  0  0  0
  160.7370  205.4320  148.5100 C   0  0  0  0  0  1  0  0  0  0  0  0
  161.1030  205.0050  150.9420 C   0  0  2  0  0  3  0  0  0  0  0  0
  1  7  1  0  0  0  0
  2 18  1  0  0  0  0
  2  9  1  0  0  0  0
  3  4  1  0  0  0  0
  5 17  1  0  0  0  0
  5 13  2  0  0  0  0
  6  9  2  0  0  0  0
  7 13  1  0  0  0  0
  7 19  1  6  0  0  0
  8  3  1  0  0  0  0
  9 10  1  0  0  0  0
 10 16  1  0  0  0  0
 10  8  1  1  0  0  0
 11 24  1  0  0  0  0
 11 16  1  0  0  0  0
 12  1  1  0  0  0  0
 13  6  1  0  0  0  0
 14 12  1  0  0  0  0
 14  5  1  0  0  0  0
 15  4  1  0  0  0  0
 16 15  1  0  0  0  0
 17  2  2  0  0  0  0
 18 11  2  0  0  0  0
 20 21  1  0  0  0  0
 20 22  2  0  0  0  0
 21 19  1  0  0  0  0
 23 20  1  0  0  0  0
 25 30  1  6  0  0  0
 26 25  1  0  0  0  0
 27 31  1  6  0  0  0
 27 32  1  0  0  0  0
 28 27  1  0  0  0  0
 28 29  1  0  0  0  0
 29 26  1  0  0  0  0
 32 24  1  1  0  0  0
 32 25  1  0  0  0  0
M  END
>  <MODEL>
4

>  <REMARK>
 VINA RESULT:      -6.6      3.187      8.096
  Name = 
  4 active torsions:
  status: ('A' for Active; 'I' for Inactive)
    1  A    between atoms: N_10  and  C_24
    2  A    between atoms: C_12  and  C_24
    3  A    between atoms: C_16  and  O_27
    4  A    between atoms: O_27  and  C_32
                            x       y       z     vdW  Elec       q    Type
                         _______ _______ _______ _____ _____    ______ ____

>  <TORSDO>
F 4

$$$$
=
 OpenBabel11062410483D

 32 36  0  0  1  0  0  0  0  0999 V2000
  160.9240  208.3590  156.8850 C   0  0  0  0  0  2  0  0  0  0  0  0
  161.2170  207.5930  151.8090 C   0  0  0  0  0  0  0  0  0  0  0  0
  161.1430  211.6240  149.4240 N   0  0  0  0  0  2  0  0  0  0  0  0
  162.2470  211.2770  148.5370 C   0  0  0  0  0  2  0  0  0  0  0  0
  160.7670  207.3870  154.1840 C   0  0  0  0  0  0  0  0  0  0  0  0
  161.5970  209.4790  153.2780 C   0  0  0  0  0  3  0  0  0  0  0  0
  161.1300  209.3690  155.7520 C   0  0  2  0  0  3  0  0  0  0  0  0
  161.4240  211.1420  150.7820 C   0  0  0  0  0  2  0  0  0  0  0  0
  161.5960  208.9320  151.9880 C   0  0  0  0  0  0  0  0  0  0  0  0
  162.0820  209.7450  150.8180 C   0  0  1  0  0  3  0  0  0  0  0  0
  161.6040  207.6510  149.4450 C   0  0  0  0  0  0  0  0  0  0  0  0
  159.8510  207.3480  156.5100 C   0  0  0  0  0  2  0  0  0  0  0  0
  161.2060  208.7160  154.3870 C   0  0  0  0  0  0  0  0  0  0  0  0
  160.3390  206.5180  155.3300 C   0  0  0  0  0  2  0  0  0  0  0  0
  162.2230  209.7740  148.2860 C   0  0  0  0  0  2  0  0  0  0  0  0
  161.9450  209.0470  149.5260 N   0  0  0  0  0  0  0  0  0  0  0  0
  160.8020  206.8310  152.9030 C   0  0  0  0  0  3  0  0  0  0  0  0
  161.2620  206.9940  150.5130 N   0  0  0  0  0  0  0  0  0  0  0  0
  162.3740  210.1980  156.0410 C   0  0  0  0  0  2  0  0  0  0  0  0
  160.9350  212.2220  156.4620 C   0  0  0  0  0  0  0  0  0  0  0  0
  162.0230  211.3730  156.8230 N   0  0  0  0  0  2  0  0  0  0  0  0
  160.2370  211.9720  155.4430 O   0  0  0  0  0  0  0  0  0  0  0  0
  160.6340  213.3600  157.2610 N   0  0  0  0  0  1  0  0  0  0  0  0
  161.6240  207.0090  148.2020 O   0  0  0  0  0  0  0  0  0  0  0  0
  162.7060  205.5220  146.6150 C   0  0  2  0  0  3  0  0  0  0  0  0
  161.7310  204.8520  145.6450 C   0  0  0  0  0  2  0  0  0  0  0  0
  160.9830  204.6840  148.3330 C   0  0  1  0  0  3  0  0  0  0  0  0
  161.2380  203.3390  147.6620 C   0  0  0  0  0  2  0  0  0  0  0  0
  161.2700  203.4710  146.1340 C   0  0  0  0  0  2  0  0  0  0  0  0
  163.8940  204.7920  146.6830 O   0  0  0  0  0  1  0  0  0  0  0  0
  160.8630  204.4920  149.8300 C   0  0  0  0  0  1  0  0  0  0  0  0
  162.1080  205.6820  148.0250 C   0  0  2  0  0  3  0  0  0  0  0  0
  2  9  2  0  0  0  0
  2 17  1  0  0  0  0
  3  8  1  0  0  0  0
  4  3  1  0  0  0  0
  5 13  1  0  0  0  0
  5 14  1  0  0  0  0
  6 13  2  0  0  0  0
  7 19  1  1  0  0  0
  7  1  1  0  0  0  0
  9  6  1  0  0  0  0
 10  8  1  6  0  0  0
 10  9  1  0  0  0  0
 11 16  1  0  0  0  0
 11 18  2  0  0  0  0
 12  1  1  0  0  0  0
 13  7  1  0  0  0  0
 14 12  1  0  0  0  0
 15  4  1  0  0  0  0
 15 16  1  0  0  0  0
 16 10  1  0  0  0  0
 17  5  2  0  0  0  0
 18  2  1  0  0  0  0
 19 21  1  0  0  0  0
 20 21  1  0  0  0  0
 20 23  1  0  0  0  0
 22 20  2  0  0  0  0
 24 11  1  0  0  0  0
 25 30  1  1  0  0  0
 25 32  1  0  0  0  0
 26 29  1  0  0  0  0
 26 25  1  0  0  0  0
 27 31  1  1  0  0  0
 28 27  1  0  0  0  0
 29 28  1  0  0  0  0
 32 24  1  6  0  0  0
 32 27  1  0  0  0  0
M  END
>  <MODEL>
5

>  <REMARK>
 VINA RESULT:      -6.6      2.611      8.374
  Name = 
  4 active torsions:
  status: ('A' for Active; 'I' for Inactive)
    1  A    between atoms: N_10  and  C_24
    2  A    between atoms: C_12  and  C_24
    3  A    between atoms: C_16  and  O_27
    4  A    between atoms: O_27  and  C_32
                            x       y       z     vdW  Elec       q    Type
                         _______ _______ _______ _____ _____    ______ ____

>  <TORSDO>
F 4

$$$$
=
 OpenBabel11062410483D

 32 36  0  0  1  0  0  0  0  0999 V2000
  160.3510  208.9620  156.7110 C   0  0  0  0  0  2  0  0  0  0  0  0
  161.3520  206.2770  152.4420 C   0  0  0  0  0  0  0  0  0  0  0  0
  161.4650  209.0110  148.6410 N   0  0  0  0  0  2  0  0  0  0  0  0
  162.6890  208.4360  148.0970 C   0  0  0  0  0  2  0  0  0  0  0  0
  160.5930  206.9910  154.6330 C   0  0  0  0  0  0  0  0  0  0  0  0
  161.4660  208.6150  153.0570 C   0  0  0  0  0  3  0  0  0  0  0  0
  160.6730  209.4550  155.2970 C   0  0  2  0  0  3  0  0  0  0  0  0
  161.5750  209.1320  150.0990 C   0  0  0  0  0  2  0  0  0  0  0  0
  161.6580  207.6040  152.1060 C   0  0  0  0  0  0  0  0  0  0  0  0
  162.2700  207.9250  150.7690 C   0  0  1  0  0  3  0  0  0  0  0  0
  162.0530  205.4260  150.3150 C   0  0  0  0  0  0  0  0  0  0  0  0
  159.3730  207.7980  156.6610 C   0  0  0  0  0  2  0  0  0  0  0  0
  160.9550  208.3240  154.3290 C   0  0  0  0  0  0  0  0  0  0  0  0
  160.0440  206.6140  155.9770 C   0  0  0  0  0  2  0  0  0  0  0  0
  162.7500  206.9610  148.4730 C   0  0  0  0  0  2  0  0  0  0  0  0
  162.3310  206.7640  149.8620 N   0  0  0  0  0  0  0  0  0  0  0  0
  160.8190  205.9780  153.6980 C   0  0  0  0  0  3  0  0  0  0  0  0
  161.5910  205.2200  151.5120 N   0  0  0  0  0  0  0  0  0  0  0  0
  161.8390  210.4330  155.3620 C   0  0  0  0  0  2  0  0  0  0  0  0
  160.6040  212.4510  156.2280 C   0  0  0  0  0  0  0  0  0  0  0  0
  161.5940  211.4360  156.3860 N   0  0  0  0  0  2  0  0  0  0  0  0
  159.9040  212.5060  155.1820 O   0  0  0  0  0  0  0  0  0  0  0  0
  160.4060  213.4090  157.2600 N   0  0  0  0  0  1  0  0  0  0  0  0
  162.2620  204.3480  149.4470 O   0  0  0  0  0  0  0  0  0  0  0  0
  160.8320  202.3940  149.6350 C   0  0  2  0  0  3  0  0  0  0  0  0
  161.4590  201.1220  149.0610 C   0  0  0  0  0  2  0  0  0  0  0  0
  161.5810  203.3380  147.3620 C   0  0  1  0  0  3  0  0  0  0  0  0
  160.7770  202.1650  146.8140 C   0  0  0  0  0  2  0  0  0  0  0  0
  161.0580  200.8770  147.5980 C   0  0  0  0  0  2  0  0  0  0  0  0
  159.4440  202.2580  149.7020 O   0  0  0  0  0  1  0  0  0  0  0  0
  161.3480  204.5620  146.5000 C   0  0  0  0  0  1  0  0  0  0  0  0
  161.1970  203.6460  148.8160 C   0  0  2  0  0  3  0  0  0  0  0  0
  2 17  1  0  0  0  0
  3  8  1  0  0  0  0
  4 15  1  0  0  0  0
  4  3  1  0  0  0  0
  5 14  1  0  0  0  0
  6 13  2  0  0  0  0
  7 19  1  1  0  0  0
  7  1  1  0  0  0  0
  9  2  2  0  0  0  0
  9  6  1  0  0  0  0
 10  8  1  6  0  0  0
 10  9  1  0  0  0  0
 11 18  2  0  0  0  0
 12  1  1  0  0  0  0
 13  5  1  0  0  0  0
 13  7  1  0  0  0  0
 14 12  1  0  0  0  0
 15 16  1  0  0  0  0
 16 11  1  0  0  0  0
 16 10  1  0  0  0  0
 17  5  2  0  0  0  0
 18  2  1  0  0  0  0
 19 21  1  0  0  0  0
 20 21  1  0  0  0  0
 20 23  1  0  0  0  0
 22 20  2  0  0  0  0
 24 11  1  0  0  0  0
 25 30  1  6  0  0  0
 26 25  1  0  0  0  0
 27 31  1  6  0  0  0
 27 32  1  0  0  0  0
 28 27  1  0  0  0  0
 28 29  1  0  0  0  0
 29 26  1  0  0  0  0
 32 24  1  1  0  0  0
 32 25  1  0  0  0  0
M  END
>  <MODEL>
6

>  <REMARK>
 VINA RESULT:      -6.0      2.661      8.573
  Name = 
  4 active torsions:
  status: ('A' for Active; 'I' for Inactive)
    1  A    between atoms: N_10  and  C_24
    2  A    between atoms: C_12  and  C_24
    3  A    between atoms: C_16  and  O_27
    4  A    between atoms: O_27  and  C_32
                            x       y       z     vdW  Elec       q    Type
                         _______ _______ _______ _____ _____    ______ ____

>  <TORSDO>
F 4

$$$$
=
 OpenBabel11062410483D

 32 36  0  0  1  0  0  0  0  0999 V2000
  161.5430  209.7100  152.9310 C   0  0  0  0  0  2  0  0  0  0  0  0
  161.2090  205.8370  149.5670 C   0  0  0  0  0  0  0  0  0  0  0  0
  162.0310  201.6900  151.5840 N   0  0  0  0  0  2  0  0  0  0  0  0
  160.8990  201.0110  150.9650 C   0  0  0  0  0  2  0  0  0  0  0  0
  161.5740  207.9850  150.6320 C   0  0  0  0  0  0  0  0  0  0  0  0
  161.1410  206.0150  151.9800 C   0  0  0  0  0  3  0  0  0  0  0  0
  161.5370  208.1980  153.1760 C   0  0  2  0  0  3  0  0  0  0  0  0
  161.6460  203.0540  151.9660 C   0  0  0  0  0  2  0  0  0  0  0  0
  161.0680  205.2280  150.8230 C   0  0  0  0  0  0  0  0  0  0  0  0
  160.7520  203.7600  150.9220 C   0  0  1  0  0  3  0  0  0  0  0  0
  160.8800  203.7830  148.3770 C   0  0  0  0  0  0  0  0  0  0  0  0
  162.4280  210.0550  151.7440 C   0  0  0  0  0  2  0  0  0  0  0  0
  161.3720  207.3960  151.9020 C   0  0  0  0  0  0  0  0  0  0  0  0
  161.8230  209.4570  150.4810 C   0  0  0  0  0  2  0  0  0  0  0  0
  160.6640  201.6080  149.5830 C   0  0  0  0  0  2  0  0  0  0  0  0
  160.7880  203.0660  149.6210 N   0  0  0  0  0  0  0  0  0  0  0  0
  161.4650  207.2060  149.4780 C   0  0  0  0  0  3  0  0  0  0  0  0
  161.0830  205.0670  148.3700 N   0  0  0  0  0  0  0  0  0  0  0  0
  160.4520  207.8590  154.1900 C   0  0  0  0  0  2  0  0  0  0  0  0
  160.9800  208.9990  156.3730 C   0  0  0  0  0  0  0  0  0  0  0  0
  160.2840  208.9570  155.1290 N   0  0  0  0  0  2  0  0  0  0  0  0
  161.7720  208.0740  156.6960 O   0  0  0  0  0  0  0  0  0  0  0  0
  160.7790  210.0960  157.2560 N   0  0  0  0  0  1  0  0  0  0  0  0
  160.7690  203.0840  147.1690 O   0  0  0  0  0  0  0  0  0  0  0  0
  162.6360  204.3890  146.3270 C   0  0  2  0  0  3  0  0  0  0  0  0
  162.3120  205.8740  146.1490 C   0  0  0  0  0  2  0  0  0  0  0  0
  160.4310  204.1390  145.0230 C   0  0  1  0  0  3  0  0  0  0  0  0
  161.1310  205.0500  144.0210 C   0  0  0  0  0  2  0  0  0  0  0  0
  161.8490  206.2090  144.7230 C   0  0  0  0  0  2  0  0  0  0  0  0
  163.7380  204.0410  145.5420 O   0  0  0  0  0  1  0  0  0  0  0  0
  159.6570  203.0680  144.2830 C   0  0  0  0  0  1  0  0  0  0  0  0
  161.4390  203.4850  145.9790 C   0  0  2  0  0  3  0  0  0  0  0  0
  1  7  1  0  0  0  0
  2  9  1  0  0  0  0
  3  8  1  0  0  0  0
  4  3  1  0  0  0  0
  5 13  2  0  0  0  0
  7 19  1  1  0  0  0
  9 10  1  0  0  0  0
  9  6  2  0  0  0  0
 10  8  1  1  0  0  0
 11 16  1  0  0  0  0
 12  1  1  0  0  0  0
 13  6  1  0  0  0  0
 13  7  1  0  0  0  0
 14  5  1  0  0  0  0
 14 12  1  0  0  0  0
 15 16  1  0  0  0  0
 15  4  1  0  0  0  0
 16 10  1  0  0  0  0
 17  2  2  0  0  0  0
 17  5  1  0  0  0  0
 18 11  2  0  0  0  0
 18  2  1  0  0  0  0
 19 21  1  0  0  0  0
 20 22  2  0  0  0  0
 20 23  1  0  0  0  0
 21 20  1  0  0  0  0
 24 11  1  0  0  0  0
 25 30  1  6  0  0  0
 26 25  1  0  0  0  0
 27 31  1  6  0  0  0
 27 32  1  0  0  0  0
 28 29  1  0  0  0  0
 28 27  1  0  0  0  0
 29 26  1  0  0  0  0
 32 25  1  0  0  0  0
 32 24  1  1  0  0  0
M  END
>  <MODEL>
7

>  <REMARK>
 VINA RESULT:      -6.0      2.479      8.805
  Name = 
  4 active torsions:
  status: ('A' for Active; 'I' for Inactive)
    1  A    between atoms: N_10  and  C_24
    2  A    between atoms: C_12  and  C_24
    3  A    between atoms: C_16  and  O_27
    4  A    between atoms: O_27  and  C_32
                            x       y       z     vdW  Elec       q    Type
                         _______ _______ _______ _____ _____    ______ ____

>  <TORSDO>
F 4

$$$$
=
 OpenBabel11062410483D

 32 36  0  0  1  0  0  0  0  0999 V2000
  160.9310  202.5770  150.0720 C   0  0  0  0  0  2  0  0  0  0  0  0
  161.1490  207.1600  152.3930 C   0  0  0  0  0  0  0  0  0  0  0  0
  162.9130  210.4630  149.5800 N   0  0  0  0  0  2  0  0  0  0  0  0
  161.9000  211.4640  149.8940 C   0  0  0  0  0  2  0  0  0  0  0  0
  161.1500  204.7840  151.9000 C   0  0  0  0  0  0  0  0  0  0  0  0
  161.2090  206.4030  150.0940 C   0  0  0  0  0  3  0  0  0  0  0  0
  161.2430  203.9570  149.4860 C   0  0  2  0  0  3  0  0  0  0  0  0
  162.2910  209.1380  149.4820 C   0  0  0  0  0  2  0  0  0  0  0  0
  161.2160  207.4520  151.0230 C   0  0  0  0  0  0  0  0  0  0  0  0
  161.2070  208.8820  150.5520 C   0  0  1  0  0  3  0  0  0  0  0  0
  161.1550  209.4690  153.0320 C   0  0  0  0  0  0  0  0  0  0  0  0
  161.6480  202.3860  151.3990 C   0  0  0  0  0  2  0  0  0  0  0  0
  161.1550  205.0670  150.5140 C   0  0  0  0  0  0  0  0  0  0  0  0
  161.0900  203.3760  152.4130 C   0  0  0  0  0  2  0  0  0  0  0  0
  161.4580  211.2800  151.3400 C   0  0  0  0  0  2  0  0  0  0  0  0
  161.2920  209.8590  151.6540 N   0  0  0  0  0  0  0  0  0  0  0  0
  161.1200  205.8320  152.8230 C   0  0  0  0  0  3  0  0  0  0  0  0
  161.0980  208.2110  153.3570 N   0  0  0  0  0  0  0  0  0  0  0  0
  160.3180  204.2210  148.3050 C   0  0  0  0  0  2  0  0  0  0  0  0
  161.5840  203.9950  146.1390 C   0  0  0  0  0  0  0  0  0  0  0  0
  161.0680  204.7960  147.2000 N   0  0  0  0  0  2  0  0  0  0  0  0
  161.3990  202.7490  146.1280 O   0  0  0  0  0  0  0  0  0  0  0  0
  162.3120  204.6090  145.0820 N   0  0  0  0  0  1  0  0  0  0  0  0
  161.1050  210.4540  154.0250 O   0  0  0  0  0  0  0  0  0  0  0  0
  158.9390  211.4710  153.6110 C   0  0  2  0  0  3  0  0  0  0  0  0
  158.9700  213.0000  153.6260 C   0  0  0  0  0  2  0  0  0  0  0  0
  160.2150  211.7990  155.8220 C   0  0  1  0  0  3  0  0  0  0  0  0
  159.0160  212.6730  156.1740 C   0  0  0  0  0  2  0  0  0  0  0  0
  158.6220  213.5830  155.0040 C   0  0  0  0  0  2  0  0  0  0  0  0
  157.6380  211.0150  153.8340 O   0  0  0  0  0  1  0  0  0  0  0  0
  160.6280  210.9900  157.0340 C   0  0  0  0  0  1  0  0  0  0  0  0
  159.8930  210.8580  154.6530 C   0  0  2  0  0  3  0  0  0  0  0  0
  1 12  1  0  0  0  0
  2 17  1  0  0  0  0
  2 18  1  0  0  0  0
  3  4  1  0  0  0  0
  4 15  1  0  0  0  0
  5 14  1  0  0  0  0
  5 17  2  0  0  0  0
  6 13  2  0  0  0  0
  6  9  1  0  0  0  0
  7 19  1  6  0  0  0
  7  1  1  0  0  0  0
  7 13  1  0  0  0  0
  8  3  1  0  0  0  0
  9  2  2  0  0  0  0
 10  8  1  6  0  0  0
 10  9  1  0  0  0  0
 10 16  1  0  0  0  0
 11 18  2  0  0  0  0
 11 24  1  0  0  0  0
 12 14  1  0  0  0  0
 13  5  1  0  0  0  0
 15 16  1  0  0  0  0
 16 11  1  0  0  0  0
 20 21  1  0  0  0  0
 21 19  1  0  0  0  0
 22 20  2  0  0  0  0
 23 20  1  0  0  0  0
 25 26  1  0  0  0  0
 25 30  1  1  0  0  0
 25 32  1  0  0  0  0
 26 29  1  0  0  0  0
 27 28  1  0  0  0  0
 27 31  1  1  0  0  0
 29 28  1  0  0  0  0
 32 24  1  6  0  0  0
 32 27  1  0  0  0  0
M  END
>  <MODEL>
8

>  <REMARK>
 VINA RESULT:      -6.0      1.690      2.326
  Name = 
  4 active torsions:
  status: ('A' for Active; 'I' for Inactive)
    1  A    between atoms: N_10  and  C_24
    2  A    between atoms: C_12  and  C_24
    3  A    between atoms: C_16  and  O_27
    4  A    between atoms: O_27  and  C_32
                            x       y       z     vdW  Elec       q    Type
                         _______ _______ _______ _____ _____    ______ ____

>  <TORSDO>
F 4

$$$$
=
 OpenBabel11062410483D

 32 36  0  0  1  0  0  0  0  0999 V2000
  161.0700  203.0490  150.3800 C   0  0  0  0  0  2  0  0  0  0  0  0
  161.2260  207.9470  151.9360 C   0  0  0  0  0  0  0  0  0  0  0  0
  162.9760  210.7760  148.6400 N   0  0  0  0  0  2  0  0  0  0  0  0
  161.9510  211.8030  148.7840 C   0  0  0  0  0  2  0  0  0  0  0  0
  161.2540  205.5230  151.8310 C   0  0  0  0  0  0  0  0  0  0  0  0
  161.3090  206.8320  149.7890 C   0  0  0  0  0  3  0  0  0  0  0  0
  161.3720  204.3210  149.5820 C   0  0  2  0  0  3  0  0  0  0  0  0
  162.3680  209.4450  148.7520 C   0  0  0  0  0  2  0  0  0  0  0  0
  161.2990  208.0170  150.5380 C   0  0  0  0  0  0  0  0  0  0  0  0
  161.2790  209.3530  149.8440 C   0  0  1  0  0  3  0  0  0  0  0  0
  161.2050  210.3280  152.1970 C   0  0  0  0  0  0  0  0  0  0  0  0
  161.7800  203.0810  151.7240 C   0  0  0  0  0  2  0  0  0  0  0  0
  161.2660  205.5800  150.4180 C   0  0  0  0  0  0  0  0  0  0  0  0
  161.2050  204.2150  152.5640 C   0  0  0  0  0  2  0  0  0  0  0  0
  161.5010  211.8480  150.2390 C   0  0  0  0  0  2  0  0  0  0  0  0
  161.3470  210.4940  150.7750 N   0  0  0  0  0  0  0  0  0  0  0  0
  161.2080  206.7050  152.5750 C   0  0  0  0  0  3  0  0  0  0  0  0
  161.1580  209.1390  152.7200 N   0  0  0  0  0  0  0  0  0  0  0  0
  160.4530  204.3810  148.3690 C   0  0  0  0  0  2  0  0  0  0  0  0
  161.5550  203.8120  146.1770 C   0  0  0  0  0  0  0  0  0  0  0  0
  161.2090  204.7590  147.1860 N   0  0  0  0  0  2  0  0  0  0  0  0
  161.2080  202.6060  146.2840 O   0  0  0  0  0  0  0  0  0  0  0  0
  162.2970  204.2340  145.0390 N   0  0  0  0  0  1  0  0  0  0  0  0
  161.1380  211.4590  153.0190 O   0  0  0  0  0  0  0  0  0  0  0  0
  161.3970  210.9870  155.3870 C   0  0  2  0  0  3  0  0  0  0  0  0
  161.1690  209.5170  155.7450 C   0  0  0  0  0  2  0  0  0  0  0  0
  159.1670  210.6420  154.1510 C   0  0  1  0  0  3  0  0  0  0  0  0
  158.6920  210.1620  155.5170 C   0  0  0  0  0  2  0  0  0  0  0  0
  159.7220  209.2340  156.1740 C   0  0  0  0  0  2  0  0  0  0  0  0
  161.2370  211.7870  156.5200 O   0  0  0  0  0  1  0  0  0  0  0  0
  158.0820  211.4740  153.4980 C   0  0  0  0  0  1  0  0  0  0  0  0
  160.4560  211.4680  154.2680 C   0  0  2  0  0  3  0  0  0  0  0  0
  1 12  1  0  0  0  0
  2 17  1  0  0  0  0
  2 18  1  0  0  0  0
  3  8  1  0  0  0  0
  3  4  1  0  0  0  0
  4 15  1  0  0  0  0
  5 14  1  0  0  0  0
  5 17  2  0  0  0  0
  6 13  2  0  0  0  0
  6  9  1  0  0  0  0
  7 19  1  6  0  0  0
  7  1  1  0  0  0  0
  7 13  1  0  0  0  0
  9  2  2  0  0  0  0
 10  8  1  6  0  0  0
 10  9  1  0  0  0  0
 10 16  1  0  0  0  0
 11 18  2  0  0  0  0
 11 24  1  0  0  0  0
 12 14  1  0  0  0  0
 13  5  1  0  0  0  0
 15 16  1  0  0  0  0
 16 11  1  0  0  0  0
 20 22  2  0  0  0  0
 20 21  1  0  0  0  0
 21 19  1  0  0  0  0
 23 20  1  0  0  0  0
 25 26  1  0  0  0  0
 25 30  1  1  0  0  0
 26 29  1  0  0  0  0
 27 31  1  1  0  0  0
 27 32  1  0  0  0  0
 27 28  1  0  0  0  0
 28 29  1  0  0  0  0
 32 24  1  6  0  0  0
 32 25  1  0  0  0  0
M  END
>  <MODEL>
9

>  <REMARK>
 VINA RESULT:      -5.9      1.752      2.637
  Name = 
  4 active torsions:
  status: ('A' for Active; 'I' for Inactive)
    1  A    between atoms: N_10  and  C_24
    2  A    between atoms: C_12  and  C_24
    3  A    between atoms: C_16  and  O_27
    4  A    between atoms: O_27  and  C_32
                            x       y       z     vdW  Elec       q    Type
                         _______ _______ _______ _____ _____    ______ ____

>  <TORSDO>
F 4

$$$$
