=
 OpenBabel11062409193D

 37 41  0  0  1  0  0  0  0  0999 V2000
  159.9520  211.6730  153.8370 C   0  0  1  0  0  3  0  0  0  0  0  0
  155.7100  213.8220  154.6130 C   0  0  0  0  0  1  0  0  0  0  0  0
  160.0720  214.4530  156.8740 C   0  0  0  0  0  1  0  0  0  0  0  0
  158.6310  210.1660  155.3750 C   0  0  0  0  0  1  0  0  0  0  0  0
  159.2470  213.7040  155.8490 C   0  0  1  0  0  3  0  0  0  0  0  0
  158.8700  211.6090  154.9520 C   0  0  1  0  0  0  0  0  0  0  0  0
  156.8280  213.1270  155.3600 C   0  0  0  0  0  0  0  0  0  0  0  0
  159.3080  212.3210  156.1020 O   0  0  0  0  0  0  0  0  0  0  0  0
  156.2230  212.3630  156.5240 C   0  0  0  0  0  1  0  0  0  0  0  0
  157.7970  214.1850  155.8940 C   0  0  0  0  0  2  0  0  0  0  0  0
  157.5270  212.1520  154.4040 C   0  0  0  0  0  2  0  0  0  0  0  0
  161.4160  210.1250  155.0980 C   0  0  0  0  0  3  0  0  0  0  0  0
  160.8260  210.4990  153.8490 N   0  0  0  0  0  0  0  0  0  0  0  0
  161.3740  209.9800  152.5970 C   0  0  0  0  0  2  0  0  0  0  0  0
  161.0840  207.6740  154.7000 C   0  0  0  0  0  2  0  0  0  0  0  0
  161.5830  208.8550  155.4740 C   0  0  0  0  0  3  0  0  0  0  0  0
  160.9430  208.5400  152.3660 C   0  0  2  0  0  3  0  0  0  0  0  0
  161.6830  207.5970  153.3050 C   0  0  0  0  0  2  0  0  0  0  0  0
  161.7290  209.0840  150.0630 C   0  0  0  0  0  3  0  0  0  0  0  0
  161.1610  208.1520  150.9390 C   0  0  0  0  0  0  0  0  0  0  0  0
  160.8310  206.8700  150.4680 C   0  0  0  0  0  3  0  0  0  0  0  0
  160.7330  205.2660  148.6700 O   0  0  0  0  0  1  0  0  0  0  0  0
  161.6210  207.4710  148.2600 C   0  0  0  0  0  3  0  0  0  0  0  0
  161.0580  206.5330  149.1310 C   0  0  0  0  0  0  0  0  0  0  0  0
  161.9580  208.7450  148.7260 C   0  0  0  0  0  3  0  0  0  0  0  0
  159.2080  213.1520  151.9990 C   0  0  0  0  0  3  0  0  0  0  0  0
  159.4230  211.9240  152.4530 C   0  0  0  0  0  3  0  0  0  0  0  0
  158.6930  213.4720  150.6490 C   0  0  0  0  0  0  0  0  0  0  0  0
  159.4420  213.6620  149.5520 C   0  0  0  0  0  3  0  0  0  0  0  0
  161.3630  213.0210  148.2080 C   0  0  2  0  0  3  0  0  0  0  0  0
  160.9320  213.5940  149.5010 C   0  0  2  0  0  3  0  0  0  0  0  0
  161.3350  212.2530  149.3880 O   0  0  0  0  0  0  0  0  0  0  0  0
  162.9690  213.1410  146.5050 C   0  0  0  0  0  2  0  0  0  0  0  0
  163.4480  212.2060  147.5140 C   0  0  0  0  0  2  0  0  0  0  0  0
  162.7320  213.4210  147.9290 N   0  0  0  0  0  0  0  0  0  0  0  0
  156.9920  213.2430  148.6770 C   0  0  0  0  0  1  0  0  0  0  0  0
  156.9170  213.5800  150.4600 S   0  0  0  0  0  0  0  0  0  0  0  0
  1 27  1  6  0  0  0
  1 13  1  0  0  0  0
  1  6  1  0  0  0  0
  2  7  1  0  0  0  0
  5 10  1  0  0  0  0
  5  8  1  0  0  0  0
  5  3  1  1  0  0  0
  6  4  1  1  0  0  0
  6  8  1  0  0  0  0
  7 10  1  0  0  0  0
  7  9  1  0  0  0  0
 11  6  1  0  0  0  0
 11  7  1  0  0  0  0
 12 16  2  0  0  0  0
 13 12  1  0  0  0  0
 14 13  1  0  0  0  0
 15 16  1  0  0  0  0
 17 20  1  6  0  0  0
 17 14  1  0  0  0  0
 17 18  1  0  0  0  0
 18 15  1  0  0  0  0
 19 20  1  0  0  0  0
 21 20  2  0  0  0  0
 22 24  1  0  0  0  0
 23 25  1  0  0  0  0
 23 24  2  0  0  0  0
 24 21  1  0  0  0  0
 25 19  2  0  0  0  0
 26 27  2  0  0  0  0
 28 26  1  0  0  0  0
 29 28  2  0  0  0  0
 30 35  1  1  0  0  0
 30 32  1  0  0  0  0
 30 31  1  0  0  0  0
 31 29  1  6  0  0  0
 32 31  1  0  0  0  0
 33 34  1  0  0  0  0
 33 35  1  0  0  0  0
 34 35  1  0  0  0  0
 36 37  1  0  0  0  0
 37 28  1  0  0  0  0
M  END
>  <MODEL>
1

>  <REMARK>
 VINA RESULT:      -6.6      0.000      0.000
  Name = 
  8 active torsions:
  status: ('A' for Active; 'I' for Inactive)
    1  A    between atoms: C_1  and  C_5
    2  A    between atoms: C_5  and  S_23
    3  A    between atoms: C_6  and  C_31
    4  A    between atoms: N_10  and  C_29
    5  A    between atoms: C_11  and  N_33
    6  A    between atoms: C_17  and  C_26
    7  A    between atoms: C_20  and  C_29
    8  A    between atoms: C_29  and  C_36
                            x       y       z     vdW  Elec       q    Type
                         _______ _______ _______ _____ _____    ______ ____

>  <TORSDO>
F 8

$$$$
=
 OpenBabel11062409193D

 37 41  0  0  1  0  0  0  0  0999 V2000
  160.8380  209.6240  151.8430 C   0  0  1  0  0  3  0  0  0  0  0  0
  161.1880  212.6100  148.0770 C   0  0  0  0  0  1  0  0  0  0  0  0
  161.8190  207.7030  148.3340 C   0  0  0  0  0  1  0  0  0  0  0  0
  163.1730  210.5860  151.8770 C   0  0  0  0  0  1  0  0  0  0  0  0
  161.5460  209.0080  149.0510 C   0  0  1  0  0  3  0  0  0  0  0  0
  162.0070  210.1860  150.9840 C   0  0  1  0  0  0  0  0  0  0  0  0
  161.9450  211.4940  148.7650 C   0  0  0  0  0  0  0  0  0  0  0  0
  162.4810  209.1900  150.0880 O   0  0  0  0  0  0  0  0  0  0  0  0
  163.4310  211.7790  148.6430 C   0  0  0  0  0  1  0  0  0  0  0  0
  161.6210  210.1720  148.0650 C   0  0  0  0  0  2  0  0  0  0  0  0
  161.5400  211.4640  150.2440 C   0  0  0  0  0  2  0  0  0  0  0  0
  161.6080  208.6860  154.0010 C   0  0  0  0  0  3  0  0  0  0  0  0
  161.2440  208.4630  152.6340 N   0  0  0  0  0  0  0  0  0  0  0  0
  161.6350  207.2220  151.9670 C   0  0  0  0  0  2  0  0  0  0  0  0
  160.4590  206.6110  154.8080 C   0  0  0  0  0  2  0  0  0  0  0  0
  161.3020  207.8360  154.9840 C   0  0  0  0  0  3  0  0  0  0  0  0
  160.7390  206.0680  152.3910 C   0  0  2  0  0  3  0  0  0  0  0  0
  161.0580  205.6290  153.8130 C   0  0  0  0  0  2  0  0  0  0  0  0
  160.9230  203.6210  151.9430 C   0  0  0  0  0  3  0  0  0  0  0  0
  160.8750  204.9240  151.4360 C   0  0  0  0  0  0  0  0  0  0  0  0
  160.9310  205.1310  150.0480 C   0  0  0  0  0  3  0  0  0  0  0  0
  161.0990  204.2470  147.8090 O   0  0  0  0  0  1  0  0  0  0  0  0
  161.0970  202.7410  149.6940 C   0  0  0  0  0  3  0  0  0  0  0  0
  161.0450  204.0400  149.1800 C   0  0  0  0  0  0  0  0  0  0  0  0
  161.0340  202.5310  151.0750 C   0  0  0  0  0  3  0  0  0  0  0  0
  158.9610  211.1450  152.3790 C   0  0  0  0  0  3  0  0  0  0  0  0
  160.1430  210.6370  152.7080 C   0  0  0  0  0  3  0  0  0  0  0  0
  158.2200  212.1410  153.1840 C   0  0  0  0  0  0  0  0  0  0  0  0
  157.8960  213.3810  152.7860 C   0  0  0  0  0  3  0  0  0  0  0  0
  157.2730  213.5180  150.4400 C   0  0  2  0  0  3  0  0  0  0  0  0
  158.2370  213.9810  151.4620 C   0  0  2  0  0  3  0  0  0  0  0  0
  158.5590  212.9570  150.5550 O   0  0  0  0  0  0  0  0  0  0  0  0
  155.8820  214.4530  148.8020 C   0  0  0  0  0  2  0  0  0  0  0  0
  156.9120  213.6740  148.1300 C   0  0  0  0  0  2  0  0  0  0  0  0
  157.2550  214.4530  149.3280 N   0  0  0  0  0  0  0  0  0  0  0  0
  156.2800  212.7900  154.8120 C   0  0  0  0  0  1  0  0  0  0  0  0
  157.6800  211.6320  154.8120 S   0  0  0  0  0  0  0  0  0  0  0  0
  1 13  1  0  0  0  0
  1 27  1  1  0  0  0
  2  7  1  0  0  0  0
  5  3  1  6  0  0  0
  5  8  1  0  0  0  0
  6  1  1  0  0  0  0
  6  4  1  1  0  0  0
  7 11  1  0  0  0  0
  8  6  1  0  0  0  0
  9  7  1  0  0  0  0
 10  7  1  0  0  0  0
 10  5  1  0  0  0  0
 11  6  1  0  0  0  0
 12 16  2  0  0  0  0
 13 12  1  0  0  0  0
 14 17  1  0  0  0  0
 14 13  1  0  0  0  0
 15 16  1  0  0  0  0
 17 20  1  6  0  0  0
 17 18  1  0  0  0  0
 18 15  1  0  0  0  0
 20 19  1  0  0  0  0
 21 20  2  0  0  0  0
 22 24  1  0  0  0  0
 23 25  1  0  0  0  0
 24 23  2  0  0  0  0
 24 21  1  0  0  0  0
 25 19  2  0  0  0  0
 26 27  2  0  0  0  0
 26 28  1  0  0  0  0
 28 37  1  0  0  0  0
 29 28  2  0  0  0  0
 30 35  1  6  0  0  0
 30 32  1  0  0  0  0
 30 31  1  0  0  0  0
 31 29  1  1  0  0  0
 32 31  1  0  0  0  0
 33 35  1  0  0  0  0
 34 33  1  0  0  0  0
 34 35  1  0  0  0  0
 36 37  1  0  0  0  0
M  END
>  <MODEL>
2

>  <REMARK>
 VINA RESULT:      -5.4      2.345      5.531
  Name = 
  8 active torsions:
  status: ('A' for Active; 'I' for Inactive)
    1  A    between atoms: C_1  and  C_5
    2  A    between atoms: C_5  and  S_23
    3  A    between atoms: C_6  and  C_31
    4  A    between atoms: N_10  and  C_29
    5  A    between atoms: C_11  and  N_33
    6  A    between atoms: C_17  and  C_26
    7  A    between atoms: C_20  and  C_29
    8  A    between atoms: C_29  and  C_36
                            x       y       z     vdW  Elec       q    Type
                         _______ _______ _______ _____ _____    ______ ____

>  <TORSDO>
F 8

$$$$
=
 OpenBabel11062409193D

 37 41  0  0  1  0  0  0  0  0999 V2000
  159.3950  212.5820  154.1600 C   0  0  1  0  0  3  0  0  0  0  0  0
  155.4990  209.9470  155.2060 C   0  0  0  0  0  1  0  0  0  0  0  0
  155.8580  214.4530  153.1810 C   0  0  0  0  0  1  0  0  0  0  0  0
  158.8510  213.0000  156.5910 C   0  0  0  0  0  1  0  0  0  0  0  0
  156.5510  213.2610  153.8050 C   0  0  1  0  0  3  0  0  0  0  0  0
  158.2670  212.6560  155.2280 C   0  0  1  0  0  0  0  0  0  0  0  0
  156.0550  211.3430  155.3860 C   0  0  0  0  0  0  0  0  0  0  0  0
  157.3390  213.6790  154.8940 O   0  0  0  0  0  0  0  0  0  0  0  0
  155.5860  211.8750  156.7280 C   0  0  0  0  0  1  0  0  0  0  0  0
  155.5140  212.2380  154.2670 C   0  0  0  0  0  2  0  0  0  0  0  0
  157.5870  211.2700  155.3610 C   0  0  0  0  0  2  0  0  0  0  0  0
  161.0000  211.6050  155.7720 C   0  0  0  0  0  3  0  0  0  0  0  0
  160.3890  211.5570  154.4780 N   0  0  0  0  0  0  0  0  0  0  0  0
  161.0060  210.7770  153.4070 C   0  0  0  0  0  2  0  0  0  0  0  0
  160.9380  209.1170  156.0650 C   0  0  0  0  0  2  0  0  0  0  0  0
  161.2970  210.5120  156.4780 C   0  0  0  0  0  3  0  0  0  0  0  0
  160.7360  209.2910  153.5860 C   0  0  2  0  0  3  0  0  0  0  0  0
  161.5600  208.7260  154.7340 C   0  0  0  0  0  2  0  0  0  0  0  0
  160.8420  207.1640  152.2880 C   0  0  0  0  0  3  0  0  0  0  0  0
  161.0130  208.5530  152.3150 C   0  0  0  0  0  0  0  0  0  0  0  0
  161.4170  209.2250  151.1510 C   0  0  0  0  0  3  0  0  0  0  0  0
  162.0540  209.1760  148.8240 O   0  0  0  0  0  1  0  0  0  0  0  0
  161.4880  207.1200  149.9540 C   0  0  0  0  0  3  0  0  0  0  0  0
  161.6570  208.5090  149.9740 C   0  0  0  0  0  0  0  0  0  0  0  0
  161.0790  206.4490  151.1100 C   0  0  0  0  0  3  0  0  0  0  0  0
  159.0740  213.4030  151.8480 C   0  0  0  0  0  3  0  0  0  0  0  0
  158.9180  212.4350  152.7430 C   0  0  0  0  0  3  0  0  0  0  0  0
  158.6330  213.3250  150.4380 C   0  0  0  0  0  0  0  0  0  0  0  0
  159.4360  213.3830  149.3650 C   0  0  0  0  0  3  0  0  0  0  0  0
  161.5390  212.7590  148.3170 C   0  0  2  0  0  3  0  0  0  0  0  0
  160.9190  213.5490  149.4030 C   0  0  2  0  0  3  0  0  0  0  0  0
  161.5220  212.3040  149.6490 O   0  0  0  0  0  0  0  0  0  0  0  0
  162.9410  213.3820  146.5460 C   0  0  0  0  0  2  0  0  0  0  0  0
  163.5610  212.2640  147.2420 C   0  0  0  0  0  2  0  0  0  0  0  0
  162.8530  213.2970  148.0110 N   0  0  0  0  0  0  0  0  0  0  0  0
  156.9310  214.0200  148.5800 C   0  0  0  0  0  1  0  0  0  0  0  0
  156.8830  213.0980  150.1440 S   0  0  0  0  0  0  0  0  0  0  0  0
  1 27  1  6  0  0  0
  1 13  1  0  0  0  0
  1  6  1  0  0  0  0
  2  7  1  0  0  0  0
  5  3  1  1  0  0  0
  5 10  1  0  0  0  0
  5  8  1  0  0  0  0
  6 11  1  0  0  0  0
  6  4  1  1  0  0  0
  7  9  1  0  0  0  0
  8  6  1  0  0  0  0
 10  7  1  0  0  0  0
 11  7  1  0  0  0  0
 12 16  2  0  0  0  0
 13 12  1  0  0  0  0
 14 17  1  0  0  0  0
 14 13  1  0  0  0  0
 15 16  1  0  0  0  0
 17 20  1  6  0  0  0
 17 18  1  0  0  0  0
 18 15  1  0  0  0  0
 19 20  1  0  0  0  0
 21 20  2  0  0  0  0
 22 24  1  0  0  0  0
 23 24  2  0  0  0  0
 23 25  1  0  0  0  0
 24 21  1  0  0  0  0
 25 19  2  0  0  0  0
 26 27  2  0  0  0  0
 28 26  1  0  0  0  0
 29 28  2  0  0  0  0
 30 35  1  1  0  0  0
 30 31  1  0  0  0  0
 30 32  1  0  0  0  0
 31 29  1  6  0  0  0
 31 32  1  0  0  0  0
 33 34  1  0  0  0  0
 33 35  1  0  0  0  0
 34 35  1  0  0  0  0
 36 37  1  0  0  0  0
 37 28  1  0  0  0  0
M  END
>  <MODEL>
3

>  <REMARK>
 VINA RESULT:      -5.2      1.303      2.155
  Name = 
  8 active torsions:
  status: ('A' for Active; 'I' for Inactive)
    1  A    between atoms: C_1  and  C_5
    2  A    between atoms: C_5  and  S_23
    3  A    between atoms: C_6  and  C_31
    4  A    between atoms: N_10  and  C_29
    5  A    between atoms: C_11  and  N_33
    6  A    between atoms: C_17  and  C_26
    7  A    between atoms: C_20  and  C_29
    8  A    between atoms: C_29  and  C_36
                            x       y       z     vdW  Elec       q    Type
                         _______ _______ _______ _____ _____    ______ ____

>  <TORSDO>
F 8

$$$$
=
 OpenBabel11062409193D

 37 41  0  0  1  0  0  0  0  0999 V2000
  160.8630  208.7350  151.5190 C   0  0  1  0  0  3  0  0  0  0  0  0
  161.0150  212.4480  148.4510 C   0  0  0  0  0  1  0  0  0  0  0  0
  162.3310  207.7160  147.8080 C   0  0  0  0  0  1  0  0  0  0  0  0
  163.0280  209.9630  151.9510 C   0  0  0  0  0  1  0  0  0  0  0  0
  161.8280  208.7990  148.7370 C   0  0  1  0  0  3  0  0  0  0  0  0
  161.9900  209.6060  150.8960 C   0  0  1  0  0  0  0  0  0  0  0  0
  161.8800  211.3220  148.9760 C   0  0  0  0  0  0  0  0  0  0  0  0
  162.6590  208.8840  149.8700 O   0  0  0  0  0  0  0  0  0  0  0  0
  163.3140  211.8150  149.0470 C   0  0  0  0  0  1  0  0  0  0  0  0
  161.7960  210.1400  148.0060 C   0  0  0  0  0  2  0  0  0  0  0  0
  161.3910  210.9380  150.3780 C   0  0  0  0  0  2  0  0  0  0  0  0
  161.7980  207.3160  153.3190 C   0  0  0  0  0  3  0  0  0  0  0  0
  161.3570  207.4310  151.9630 N   0  0  0  0  0  0  0  0  0  0  0  0
  161.7450  206.4210  150.9790 C   0  0  0  0  0  2  0  0  0  0  0  0
  160.7710  205.0510  153.6260 C   0  0  0  0  0  2  0  0  0  0  0  0
  161.5840  206.2300  154.0660 C   0  0  0  0  0  3  0  0  0  0  0  0
  160.9160  205.1550  151.1380 C   0  0  2  0  0  3  0  0  0  0  0  0
  161.3380  204.3850  152.3820 C   0  0  0  0  0  2  0  0  0  0  0  0
  160.7540  202.9320  150.0190 C   0  0  0  0  0  3  0  0  0  0  0  0
  161.0290  204.3010  149.9160 C   0  0  0  0  0  0  0  0  0  0  0  0
  161.3800  204.8460  148.6710 C   0  0  0  0  0  3  0  0  0  0  0  0
  161.8100  204.5640  146.3130 O   0  0  0  0  0  1  0  0  0  0  0  0
  161.1930  202.6550  147.6540 C   0  0  0  0  0  3  0  0  0  0  0  0
  161.4650  204.0230  147.5430 C   0  0  0  0  0  0  0  0  0  0  0  0
  160.8360  202.1110  148.8910 C   0  0  0  0  0  3  0  0  0  0  0  0
  160.6580  209.8630  153.7120 C   0  0  0  0  0  3  0  0  0  0  0  0
  160.0760  209.4020  152.6110 C   0  0  0  0  0  3  0  0  0  0  0  0
  159.9470  210.5320  154.8240 C   0  0  0  0  0  0  0  0  0  0  0  0
  158.8810  211.3360  154.6960 C   0  0  0  0  0  3  0  0  0  0  0  0
  158.7450  213.0140  152.9430 C   0  0  2  0  0  3  0  0  0  0  0  0
  158.2280  211.7080  153.4070 C   0  0  2  0  0  3  0  0  0  0  0  0
  157.4950  212.8950  153.5800 O   0  0  0  0  0  0  0  0  0  0  0  0
  159.3540  214.2820  151.0690 C   0  0  0  0  0  2  0  0  0  0  0  0
  157.9250  214.4520  151.2850 C   0  0  0  0  0  2  0  0  0  0  0  0
  158.5430  213.1380  151.5100 N   0  0  0  0  0  0  0  0  0  0  0  0
  162.2820  210.3810  155.9900 C   0  0  0  0  0  1  0  0  0  0  0  0
  160.5410  210.2100  156.4800 S   0  0  0  0  0  0  0  0  0  0  0  0
  1 13  1  0  0  0  0
  1 27  1  1  0  0  0
  2  7  1  0  0  0  0
  5  3  1  6  0  0  0
  5  8  1  0  0  0  0
  6  1  1  0  0  0  0
  6  4  1  1  0  0  0
  7  9  1  0  0  0  0
  7 11  1  0  0  0  0
  8  6  1  0  0  0  0
 10  5  1  0  0  0  0
 10  7  1  0  0  0  0
 11  6  1  0  0  0  0
 12 16  2  0  0  0  0
 13 12  1  0  0  0  0
 14 17  1  0  0  0  0
 14 13  1  0  0  0  0
 15 16  1  0  0  0  0
 17 20  1  6  0  0  0
 17 18  1  0  0  0  0
 18 15  1  0  0  0  0
 20 19  1  0  0  0  0
 21 20  2  0  0  0  0
 22 24  1  0  0  0  0
 23 25  1  0  0  0  0
 24 23  2  0  0  0  0
 24 21  1  0  0  0  0
 25 19  2  0  0  0  0
 26 28  1  0  0  0  0
 27 26  2  0  0  0  0
 28 37  1  0  0  0  0
 29 28  2  0  0  0  0
 30 35  1  6  0  0  0
 30 31  1  0  0  0  0
 30 32  1  0  0  0  0
 31 32  1  0  0  0  0
 31 29  1  1  0  0  0
 33 34  1  0  0  0  0
 33 35  1  0  0  0  0
 34 35  1  0  0  0  0
 36 37  1  0  0  0  0
M  END
>  <MODEL>
4

>  <REMARK>
 VINA RESULT:      -5.1      2.612      6.125
  Name = 
  8 active torsions:
  status: ('A' for Active; 'I' for Inactive)
    1  A    between atoms: C_1  and  C_5
    2  A    between atoms: C_5  and  S_23
    3  A    between atoms: C_6  and  C_31
    4  A    between atoms: N_10  and  C_29
    5  A    between atoms: C_11  and  N_33
    6  A    between atoms: C_17  and  C_26
    7  A    between atoms: C_20  and  C_29
    8  A    between atoms: C_29  and  C_36
                            x       y       z     vdW  Elec       q    Type
                         _______ _______ _______ _____ _____    ______ ____

>  <TORSDO>
F 8

$$$$
=
 OpenBabel11062409193D

 37 41  0  0  1  0  0  0  0  0999 V2000
  160.8890  209.9130  151.7380 C   0  0  1  0  0  3  0  0  0  0  0  0
  161.3220  212.6380  147.7880 C   0  0  0  0  0  1  0  0  0  0  0  0
  161.6090  207.7210  148.3250 C   0  0  0  0  0  1  0  0  0  0  0  0
  163.2870  210.7010  151.6430 C   0  0  0  0  0  1  0  0  0  0  0  0
  161.4560  209.0830  148.9700 C   0  0  1  0  0  3  0  0  0  0  0  0
  162.0650  210.3350  150.8120 C   0  0  1  0  0  0  0  0  0  0  0  0
  162.0210  211.5120  148.5200 C   0  0  0  0  0  0  0  0  0  0  0  0
  162.4360  209.2560  149.9650 O   0  0  0  0  0  0  0  0  0  0  0  0
  163.5180  211.6790  148.3370 C   0  0  0  0  0  1  0  0  0  0  0  0
  161.5790  210.1780  147.9120 C   0  0  0  0  0  2  0  0  0  0  0  0
  161.6660  211.5990  150.0100 C   0  0  0  0  0  2  0  0  0  0  0  0
  161.5800  209.1770  153.9990 C   0  0  0  0  0  3  0  0  0  0  0  0
  161.2660  208.8290  152.6470 N   0  0  0  0  0  0  0  0  0  0  0  0
  161.6790  207.5330  152.1100 C   0  0  0  0  0  2  0  0  0  0  0  0
  160.4000  207.1820  154.9510 C   0  0  0  0  0  2  0  0  0  0  0  0
  161.2380  208.4200  155.0440 C   0  0  0  0  0  3  0  0  0  0  0  0
  160.7670  206.4210  152.6050 C   0  0  2  0  0  3  0  0  0  0  0  0
  161.0340  206.1150  154.0720 C   0  0  0  0  0  2  0  0  0  0  0  0
  160.9890  203.9460  152.3930 C   0  0  0  0  0  3  0  0  0  0  0  0
  160.9360  205.1950  151.7650 C   0  0  0  0  0  0  0  0  0  0  0  0
  161.0180  205.2720  150.3650 C   0  0  0  0  0  3  0  0  0  0  0  0
  161.2420  204.1860  148.2230 O   0  0  0  0  0  1  0  0  0  0  0  0
  161.2200  202.8620  150.2400 C   0  0  0  0  0  3  0  0  0  0  0  0
  161.1630  204.1070  149.6050 C   0  0  0  0  0  0  0  0  0  0  0  0
  161.1310  202.7810  151.6330 C   0  0  0  0  0  3  0  0  0  0  0  0
  159.2290  211.7300  151.9890 C   0  0  0  0  0  3  0  0  0  0  0  0
  160.2420  211.0370  152.4960 C   0  0  0  0  0  3  0  0  0  0  0  0
  158.5440  212.8450  152.6790 C   0  0  0  0  0  0  0  0  0  0  0  0
  157.9030  212.7590  153.8550 C   0  0  0  0  0  3  0  0  0  0  0  0
  156.4920  211.5670  155.4340 C   0  0  2  0  0  3  0  0  0  0  0  0
  157.7580  211.5190  154.6720 C   0  0  2  0  0  3  0  0  0  0  0  0
  157.7320  211.8570  156.0350 O   0  0  0  0  0  0  0  0  0  0  0  0
  154.8320  209.9510  155.0810 C   0  0  0  0  0  2  0  0  0  0  0  0
  154.7940  210.3390  156.4840 C   0  0  0  0  0  2  0  0  0  0  0  0
  156.0880  210.2190  155.7960 N   0  0  0  0  0  0  0  0  0  0  0  0
  158.5750  213.7380  150.2230 C   0  0  0  0  0  1  0  0  0  0  0  0
  158.6080  214.4510  151.8930 S   0  0  0  0  0  0  0  0  0  0  0  0
  1 27  1  1  0  0  0
  1 13  1  0  0  0  0
  2  7  1  0  0  0  0
  5  3  1  6  0  0  0
  5  8  1  0  0  0  0
  6  4  1  1  0  0  0
  6  1  1  0  0  0  0
  7 11  1  0  0  0  0
  8  6  1  0  0  0  0
  9  7  1  0  0  0  0
 10  7  1  0  0  0  0
 10  5  1  0  0  0  0
 11  6  1  0  0  0  0
 12 16  2  0  0  0  0
 13 12  1  0  0  0  0
 14 17  1  0  0  0  0
 14 13  1  0  0  0  0
 15 16  1  0  0  0  0
 17 20  1  6  0  0  0
 17 18  1  0  0  0  0
 18 15  1  0  0  0  0
 20 19  1  0  0  0  0
 21 20  2  0  0  0  0
 22 24  1  0  0  0  0
 23 25  1  0  0  0  0
 24 23  2  0  0  0  0
 24 21  1  0  0  0  0
 25 19  2  0  0  0  0
 26 27  2  0  0  0  0
 26 28  1  0  0  0  0
 28 29  2  0  0  0  0
 30 35  1  1  0  0  0
 30 32  1  0  0  0  0
 31 29  1  6  0  0  0
 31 30  1  0  0  0  0
 31 32  1  0  0  0  0
 33 35  1  0  0  0  0
 33 34  1  0  0  0  0
 35 34  1  0  0  0  0
 36 37  1  0  0  0  0
 37 28  1  0  0  0  0
M  END
>  <MODEL>
5

>  <REMARK>
 VINA RESULT:      -5.0      2.098      6.405
  Name = 
  8 active torsions:
  status: ('A' for Active; 'I' for Inactive)
    1  A    between atoms: C_1  and  C_5
    2  A    between atoms: C_5  and  S_23
    3  A    between atoms: C_6  and  C_31
    4  A    between atoms: N_10  and  C_29
    5  A    between atoms: C_11  and  N_33
    6  A    between atoms: C_17  and  C_26
    7  A    between atoms: C_20  and  C_29
    8  A    between atoms: C_29  and  C_36
                            x       y       z     vdW  Elec       q    Type
                         _______ _______ _______ _____ _____    ______ ____

>  <TORSDO>
F 8

$$$$
=
 OpenBabel11062409193D

 37 41  0  0  1  0  0  0  0  0999 V2000
  159.1640  210.5400  153.8110 C   0  0  1  0  0  3  0  0  0  0  0  0
  163.7100  210.8140  155.3850 C   0  0  0  0  0  1  0  0  0  0  0  0
  160.1480  207.5440  156.4620 C   0  0  0  0  0  1  0  0  0  0  0  0
  159.1780  212.1550  155.7530 C   0  0  0  0  0  1  0  0  0  0  0  0
  160.5630  208.8080  155.7390 C   0  0  1  0  0  3  0  0  0  0  0  0
  159.8460  210.9240  155.1550 C   0  0  1  0  0  0  0  0  0  0  0  0
  162.2970  210.6490  155.9010 C   0  0  0  0  0  0  0  0  0  0  0  0
  159.7080  209.8680  156.0950 O   0  0  0  0  0  0  0  0  0  0  0  0
  162.1930  211.3540  157.2410 C   0  0  0  0  0  1  0  0  0  0  0  0
  162.0090  209.1570  156.0870 C   0  0  0  0  0  2  0  0  0  0  0  0
  161.3290  211.2900  154.8990 C   0  0  0  0  0  2  0  0  0  0  0  0
  157.0520  211.7320  154.3110 C   0  0  0  0  0  3  0  0  0  0  0  0
  158.1450  211.5110  153.4130 N   0  0  0  0  0  0  0  0  0  0  0  0
  158.0400  211.9320  152.0160 C   0  0  0  0  0  2  0  0  0  0  0  0
  157.0290  214.2070  153.9220 C   0  0  0  0  0  2  0  0  0  0  0  0
  156.5080  212.9340  154.5140 C   0  0  0  0  0  3  0  0  0  0  0  0
  158.2370  213.4340  151.8820 C   0  0  2  0  0  3  0  0  0  0  0  0
  157.0210  214.1880  152.4020 C   0  0  0  0  0  2  0  0  0  0  0  0
  159.8480  214.0250  150.0720 C   0  0  0  0  0  3  0  0  0  0  0  0
  158.5230  213.7980  150.4600 C   0  0  0  0  0  0  0  0  0  0  0  0
  157.4960  213.8930  149.5070 C   0  0  0  0  0  3  0  0  0  0  0  0
  156.7800  214.3130  147.2420 O   0  0  0  0  0  1  0  0  0  0  0  0
  159.1230  214.4530  147.8020 C   0  0  0  0  0  3  0  0  0  0  0  0
  157.7960  214.2230  148.1820 C   0  0  0  0  0  0  0  0  0  0  0  0
  160.1480  214.3520  148.7470 C   0  0  0  0  0  3  0  0  0  0  0  0
  160.3180  209.0400  152.2160 C   0  0  0  0  0  3  0  0  0  0  0  0
  160.1090  210.2690  152.6750 C   0  0  0  0  0  3  0  0  0  0  0  0
  161.2290  208.7020  151.1010 C   0  0  0  0  0  0  0  0  0  0  0  0
  161.2650  207.5280  150.4520 C   0  0  0  0  0  3  0  0  0  0  0  0
  161.1770  205.1030  150.5830 C   0  0  2  0  0  3  0  0  0  0  0  0
  160.3990  206.3500  150.7470 C   0  0  2  0  0  3  0  0  0  0  0  0
  160.2830  205.5550  149.5940 O   0  0  0  0  0  0  0  0  0  0  0  0
  161.6210  203.0910  151.6990 C   0  0  0  0  0  2  0  0  0  0  0  0
  160.7490  202.7990  150.5700 C   0  0  0  0  0  2  0  0  0  0  0  0
  160.5510  204.0340  151.3420 N   0  0  0  0  0  0  0  0  0  0  0  0
  162.0110  209.6590  148.7980 C   0  0  0  0  0  1  0  0  0  0  0  0
  162.3530  209.9810  150.5520 S   0  0  0  0  0  0  0  0  0  0  0  0
  1 27  1  6  0  0  0
  1  6  1  0  0  0  0
  2  7  1  0  0  0  0
  5 10  1  0  0  0  0
  5  8  1  0  0  0  0
  5  3  1  1  0  0  0
  6  4  1  1  0  0  0
  6  8  1  0  0  0  0
  7 10  1  0  0  0  0
  7  9  1  0  0  0  0
 11  6  1  0  0  0  0
 11  7  1  0  0  0  0
 12 16  2  0  0  0  0
 13  1  1  0  0  0  0
 13 12  1  0  0  0  0
 14 13  1  0  0  0  0
 15 16  1  0  0  0  0
 17 20  1  6  0  0  0
 17 14  1  0  0  0  0
 17 18  1  0  0  0  0
 18 15  1  0  0  0  0
 19 20  1  0  0  0  0
 21 20  2  0  0  0  0
 22 24  1  0  0  0  0
 23 24  2  0  0  0  0
 23 25  1  0  0  0  0
 24 21  1  0  0  0  0
 25 19  2  0  0  0  0
 26 27  2  0  0  0  0
 28 26  1  0  0  0  0
 29 28  2  0  0  0  0
 30 31  1  0  0  0  0
 30 35  1  1  0  0  0
 31 29  1  6  0  0  0
 32 30  1  0  0  0  0
 32 31  1  0  0  0  0
 34 35  1  0  0  0  0
 34 33  1  0  0  0  0
 35 33  1  0  0  0  0
 36 37  1  0  0  0  0
 37 28  1  0  0  0  0
M  END
>  <MODEL>
6

>  <REMARK>
 VINA RESULT:      -4.8      2.478      6.595
  Name = 
  8 active torsions:
  status: ('A' for Active; 'I' for Inactive)
    1  A    between atoms: C_1  and  C_5
    2  A    between atoms: C_5  and  S_23
    3  A    between atoms: C_6  and  C_31
    4  A    between atoms: N_10  and  C_29
    5  A    between atoms: C_11  and  N_33
    6  A    between atoms: C_17  and  C_26
    7  A    between atoms: C_20  and  C_29
    8  A    between atoms: C_29  and  C_36
                            x       y       z     vdW  Elec       q    Type
                         _______ _______ _______ _____ _____    ______ ____

>  <TORSDO>
F 8

$$$$
=
 OpenBabel11062409193D

 37 41  0  0  1  0  0  0  0  0999 V2000
  160.5360  211.1460  153.3740 C   0  0  1  0  0  3  0  0  0  0  0  0
  159.8680  207.5980  156.5650 C   0  0  0  0  0  1  0  0  0  0  0  0
  160.2170  212.4910  157.2540 C   0  0  0  0  0  1  0  0  0  0  0  0
  162.8200  210.2390  153.9590 C   0  0  0  0  0  1  0  0  0  0  0  0
  160.2750  211.3150  156.3020 C   0  0  1  0  0  3  0  0  0  0  0  0
  161.4050  210.4720  154.4730 C   0  0  1  0  0  0  0  0  0  0  0  0
  160.7280  208.8220  156.3320 C   0  0  0  0  0  0  0  0  0  0  0  0
  161.5010  211.3180  155.6110 O   0  0  0  0  0  0  0  0  0  0  0  0
  162.1130  208.5440  156.8870 C   0  0  0  0  0  1  0  0  0  0  0  0
  160.1100  210.0080  157.0770 C   0  0  0  0  0  2  0  0  0  0  0  0
  160.8140  209.0840  154.8240 C   0  0  0  0  0  2  0  0  0  0  0  0
  160.8370  211.3890  150.9280 C   0  0  0  0  0  3  0  0  0  0  0  0
  160.7250  210.5240  152.0630 N   0  0  0  0  0  0  0  0  0  0  0  0
  160.4210  209.1060  151.8740 C   0  0  0  0  0  2  0  0  0  0  0  0
  162.6500  210.0210  149.8690 C   0  0  0  0  0  2  0  0  0  0  0  0
  161.6650  211.1490  149.9090 C   0  0  0  0  0  3  0  0  0  0  0  0
  161.6520  208.3390  151.4150 C   0  0  2  0  0  3  0  0  0  0  0  0
  161.9790  208.6600  149.9640 C   0  0  0  0  0  2  0  0  0  0  0  0
  161.4070  206.3540  152.9060 C   0  0  0  0  0  3  0  0  0  0  0  0
  161.4520  206.8690  151.6050 C   0  0  0  0  0  0  0  0  0  0  0  0
  161.2860  206.0040  150.5110 C   0  0  0  0  0  3  0  0  0  0  0  0
  160.9220  203.7850  149.6380 O   0  0  0  0  0  1  0  0  0  0  0  0
  161.0490  204.1280  152.0230 C   0  0  0  0  0  3  0  0  0  0  0  0
  161.0880  204.6360  150.7210 C   0  0  0  0  0  0  0  0  0  0  0  0
  161.2070  204.9870  153.1150 C   0  0  0  0  0  3  0  0  0  0  0  0
  158.4840  212.4330  153.8790 C   0  0  0  0  0  3  0  0  0  0  0  0
  159.0730  211.2570  153.7000 C   0  0  0  0  0  3  0  0  0  0  0  0
  157.0510  212.6160  154.1980 C   0  0  0  0  0  0  0  0  0  0  0  0
  156.2210  213.4790  153.5930 C   0  0  0  0  0  3  0  0  0  0  0  0
  157.0960  213.6510  151.3320 C   0  0  2  0  0  3  0  0  0  0  0  0
  156.5980  214.4170  152.4950 C   0  0  2  0  0  3  0  0  0  0  0  0
  157.9720  214.2940  152.2280 O   0  0  0  0  0  0  0  0  0  0  0  0
  156.7390  213.5140  149.0200 C   0  0  0  0  0  2  0  0  0  0  0  0
  158.0720  214.0590  149.2410 C   0  0  0  0  0  2  0  0  0  0  0  0
  156.9680  214.4530  150.1280 N   0  0  0  0  0  0  0  0  0  0  0  0
  155.5850  212.9720  156.3330 C   0  0  0  0  0  1  0  0  0  0  0  0
  156.3630  211.5720  155.4780 S   0  0  0  0  0  0  0  0  0  0  0  0
  1 27  1  1  0  0  0
  1  6  1  0  0  0  0
  5 10  1  0  0  0  0
  5  3  1  1  0  0  0
  6  4  1  6  0  0  0
  6 11  1  0  0  0  0
  6  8  1  0  0  0  0
  7  2  1  0  0  0  0
  7  9  1  0  0  0  0
  7 10  1  0  0  0  0
  8  5  1  0  0  0  0
 11  7  1  0  0  0  0
 12 13  1  0  0  0  0
 13  1  1  0  0  0  0
 14 13  1  0  0  0  0
 15 16  1  0  0  0  0
 15 18  1  0  0  0  0
 16 12  2  0  0  0  0
 17 20  1  6  0  0  0
 17 14  1  0  0  0  0
 18 17  1  0  0  0  0
 19 25  1  0  0  0  0
 20 19  2  0  0  0  0
 21 24  2  0  0  0  0
 21 20  1  0  0  0  0
 22 24  1  0  0  0  0
 23 25  2  0  0  0  0
 24 23  1  0  0  0  0
 26 28  1  0  0  0  0
 27 26  2  0  0  0  0
 28 37  1  0  0  0  0
 29 28  2  0  0  0  0
 30 35  1  6  0  0  0
 30 32  1  0  0  0  0
 30 31  1  0  0  0  0
 31 29  1  1  0  0  0
 32 31  1  0  0  0  0
 33 34  1  0  0  0  0
 33 35  1  0  0  0  0
 34 35  1  0  0  0  0
 37 36  1  0  0  0  0
M  END
>  <MODEL>
7

>  <REMARK>
 VINA RESULT:      -4.8      2.272      4.554
  Name = 
  8 active torsions:
  status: ('A' for Active; 'I' for Inactive)
    1  A    between atoms: C_1  and  C_5
    2  A    between atoms: C_5  and  S_23
    3  A    between atoms: C_6  and  C_31
    4  A    between atoms: N_10  and  C_29
    5  A    between atoms: C_11  and  N_33
    6  A    between atoms: C_17  and  C_26
    7  A    between atoms: C_20  and  C_29
    8  A    between atoms: C_29  and  C_36
                            x       y       z     vdW  Elec       q    Type
                         _______ _______ _______ _____ _____    ______ ____

>  <TORSDO>
F 8

$$$$
=
 OpenBabel11062409193D

 37 41  0  0  1  0  0  0  0  0999 V2000
  160.7920  210.4550  153.2350 C   0  0  1  0  0  3  0  0  0  0  0  0
  158.2710  214.4490  154.1860 C   0  0  0  0  0  1  0  0  0  0  0  0
  161.3160  211.8270  157.0830 C   0  0  0  0  0  1  0  0  0  0  0  0
  158.4680  209.7210  153.8960 C   0  0  0  0  0  1  0  0  0  0  0  0
  160.6130  211.9750  155.7500 C   0  0  1  0  0  3  0  0  0  0  0  0
  159.5350  210.7900  154.0860 C   0  0  1  0  0  0  0  0  0  0  0  0
  158.5580  213.0770  154.7580 C   0  0  0  0  0  0  0  0  0  0  0  0
  159.8700  210.8140  155.4670 O   0  0  0  0  0  0  0  0  0  0  0  0
  157.3050  212.5780  155.4540 C   0  0  0  0  0  1  0  0  0  0  0  0
  159.6940  213.1950  155.7780 C   0  0  0  0  0  2  0  0  0  0  0  0
  158.9270  212.1310  153.6090 C   0  0  0  0  0  2  0  0  0  0  0  0
  161.5970  208.6770  154.7590 C   0  0  0  0  0  3  0  0  0  0  0  0
  161.2390  209.0750  153.4310 N   0  0  0  0  0  0  0  0  0  0  0  0
  161.6710  208.2750  152.2860 C   0  0  0  0  0  2  0  0  0  0  0  0
  160.5200  206.4250  154.5410 C   0  0  0  0  0  2  0  0  0  0  0  0
  161.3220  207.4690  155.2560 C   0  0  0  0  0  3  0  0  0  0  0  0
  160.8160  207.0250  152.1390 C   0  0  2  0  0  3  0  0  0  0  0  0
  161.1510  206.0090  153.2220 C   0  0  0  0  0  2  0  0  0  0  0  0
  161.2190  207.2840  149.6910 C   0  0  0  0  0  3  0  0  0  0  0  0
  160.9890  206.4320  150.7770 C   0  0  0  0  0  0  0  0  0  0  0  0
  160.9480  205.0430  150.5720 C   0  0  0  0  0  3  0  0  0  0  0  0
  161.0880  203.1450  149.0900 O   0  0  0  0  0  1  0  0  0  0  0  0
  161.3510  205.3750  148.2070 C   0  0  0  0  0  3  0  0  0  0  0  0
  161.1260  204.5170  149.2890 C   0  0  0  0  0  0  0  0  0  0  0  0
  161.3990  206.7580  148.4090 C   0  0  0  0  0  3  0  0  0  0  0  0
  161.7240  211.0910  151.0320 C   0  0  0  0  0  3  0  0  0  0  0  0
  160.6690  210.7660  151.7700 C   0  0  0  0  0  3  0  0  0  0  0  0
  161.6750  211.4060  149.5870 C   0  0  0  0  0  0  0  0  0  0  0  0
  160.9130  212.3530  149.0210 C   0  0  0  0  0  3  0  0  0  0  0  0
  158.7710  213.4980  148.9120 C   0  0  2  0  0  3  0  0  0  0  0  0
  159.9670  213.2500  149.7470 C   0  0  2  0  0  3  0  0  0  0  0  0
  159.8080  214.4450  149.0230 O   0  0  0  0  0  0  0  0  0  0  0  0
  156.5690  212.9520  149.4970 C   0  0  0  0  0  2  0  0  0  0  0  0
  156.5560  214.2590  148.8550 C   0  0  0  0  0  2  0  0  0  0  0  0
  157.6610  213.9020  149.7570 N   0  0  0  0  0  0  0  0  0  0  0  0
  163.5590  211.9590  147.8610 C   0  0  0  0  0  1  0  0  0  0  0  0
  162.7540  210.4660  148.5130 S   0  0  0  0  0  0  0  0  0  0  0  0
  1 27  1  6  0  0  0
  1 13  1  0  0  0  0
  1  6  1  0  0  0  0
  2  7  1  0  0  0  0
  5 10  1  0  0  0  0
  5  3  1  1  0  0  0
  6  4  1  6  0  0  0
  6  8  1  0  0  0  0
  7  9  1  0  0  0  0
  7 10  1  0  0  0  0
  8  5  1  0  0  0  0
 11  6  1  0  0  0  0
 11  7  1  0  0  0  0
 12 16  2  0  0  0  0
 13 12  1  0  0  0  0
 14 13  1  0  0  0  0
 15 16  1  0  0  0  0
 17 20  1  6  0  0  0
 17 14  1  0  0  0  0
 17 18  1  0  0  0  0
 18 15  1  0  0  0  0
 19 20  1  0  0  0  0
 21 20  2  0  0  0  0
 22 24  1  0  0  0  0
 23 25  1  0  0  0  0
 23 24  2  0  0  0  0
 24 21  1  0  0  0  0
 25 19  2  0  0  0  0
 26 27  2  0  0  0  0
 28 26  1  0  0  0  0
 29 28  2  0  0  0  0
 30 32  1  0  0  0  0
 30 31  1  0  0  0  0
 30 35  1  1  0  0  0
 31 29  1  6  0  0  0
 32 31  1  0  0  0  0
 33 35  1  0  0  0  0
 34 33  1  0  0  0  0
 34 35  1  0  0  0  0
 36 37  1  0  0  0  0
 37 28  1  0  0  0  0
M  END
>  <MODEL>
8

>  <REMARK>
 VINA RESULT:      -4.7      2.029      3.131
  Name = 
  8 active torsions:
  status: ('A' for Active; 'I' for Inactive)
    1  A    between atoms: C_1  and  C_5
    2  A    between atoms: C_5  and  S_23
    3  A    between atoms: C_6  and  C_31
    4  A    between atoms: N_10  and  C_29
    5  A    between atoms: C_11  and  N_33
    6  A    between atoms: C_17  and  C_26
    7  A    between atoms: C_20  and  C_29
    8  A    between atoms: C_29  and  C_36
                            x       y       z     vdW  Elec       q    Type
                         _______ _______ _______ _____ _____    ______ ____

>  <TORSDO>
F 8

$$$$
=
 OpenBabel11062409193D

 37 41  0  0  1  0  0  0  0  0999 V2000
  161.1110  210.5130  152.8880 C   0  0  1  0  0  3  0  0  0  0  0  0
  159.0700  210.6870  157.2500 C   0  0  0  0  0  1  0  0  0  0  0  0
  163.8320  211.0540  155.9340 C   0  0  0  0  0  1  0  0  0  0  0  0
  160.8300  208.1270  153.6690 C   0  0  0  0  0  1  0  0  0  0  0  0
  162.3940  210.8180  155.5220 C   0  0  1  0  0  3  0  0  0  0  0  0
  161.0540  209.5640  154.1190 C   0  0  1  0  0  0  0  0  0  0  0  0
  160.2050  210.0110  156.5100 C   0  0  0  0  0  0  0  0  0  0  0  0
  162.2880  209.6000  154.8240 O   0  0  0  0  0  0  0  0  0  0  0  0
  160.3620  208.6050  157.0590 C   0  0  0  0  0  1  0  0  0  0  0  0
  161.4940  210.8000  156.7560 C   0  0  0  0  0  2  0  0  0  0  0  0
  159.8540  209.9520  155.0180 C   0  0  0  0  0  2  0  0  0  0  0  0
  162.1580  208.5140  151.8690 C   0  0  0  0  0  3  0  0  0  0  0  0
  161.7400  209.8760  151.7300 N   0  0  0  0  0  0  0  0  0  0  0  0
  162.2640  210.6950  150.6390 C   0  0  0  0  0  2  0  0  0  0  0  0
  161.3900  207.8810  149.5700 C   0  0  0  0  0  2  0  0  0  0  0  0
  162.0510  207.6160  150.8870 C   0  0  0  0  0  3  0  0  0  0  0  0
  161.5820  210.3540  149.3230 C   0  0  2  0  0  3  0  0  0  0  0  0
  162.0590  209.0070  148.7990 C   0  0  0  0  0  2  0  0  0  0  0  0
  163.0790  212.0440  148.2620 C   0  0  0  0  0  3  0  0  0  0  0  0
  161.8210  211.4340  148.3160 C   0  0  0  0  0  0  0  0  0  0  0  0
  160.8200  211.8290  147.4130 C   0  0  0  0  0  3  0  0  0  0  0  0
  160.0870  213.2200  145.5830 O   0  0  0  0  0  1  0  0  0  0  0  0
  162.3360  213.4420  146.4300 C   0  0  0  0  0  3  0  0  0  0  0  0
  161.0770  212.8330  146.4750 C   0  0  0  0  0  0  0  0  0  0  0  0
  163.3360  213.0460  147.3220 C   0  0  0  0  0  3  0  0  0  0  0  0
  159.6270  212.4490  152.4730 C   0  0  0  0  0  3  0  0  0  0  0  0
  159.7980  211.1320  152.5030 C   0  0  0  0  0  3  0  0  0  0  0  0
  158.3650  213.1250  152.1010 C   0  0  0  0  0  0  0  0  0  0  0  0
  157.3350  213.3640  152.9260 C   0  0  0  0  0  3  0  0  0  0  0  0
  156.0490  212.1910  154.6220 C   0  0  2  0  0  3  0  0  0  0  0  0
  157.2740  212.9790  154.3660 C   0  0  2  0  0  3  0  0  0  0  0  0
  156.1370  213.5560  154.9570 O   0  0  0  0  0  0  0  0  0  0  0  0
  155.2100  210.3290  155.7710 C   0  0  0  0  0  2  0  0  0  0  0  0
  154.9770  211.5090  156.5910 C   0  0  0  0  0  2  0  0  0  0  0  0
  156.2240  211.3910  155.8220 N   0  0  0  0  0  0  0  0  0  0  0  0
  159.9940  214.0730  150.2880 C   0  0  0  0  0  1  0  0  0  0  0  0
  158.2190  213.7040  150.4140 S   0  0  0  0  0  0  0  0  0  0  0  0
  1 27  1  6  0  0  0
  1  6  1  0  0  0  0
  5  3  1  1  0  0  0
  5 10  1  0  0  0  0
  6  4  1  6  0  0  0
  6  8  1  0  0  0  0
  6 11  1  0  0  0  0
  7 10  1  0  0  0  0
  7  9  1  0  0  0  0
  7  2  1  0  0  0  0
  8  5  1  0  0  0  0
 11  7  1  0  0  0  0
 13 12  1  0  0  0  0
 13  1  1  0  0  0  0
 14 13  1  0  0  0  0
 15 16  1  0  0  0  0
 16 12  2  0  0  0  0
 17 20  1  6  0  0  0
 17 14  1  0  0  0  0
 18 17  1  0  0  0  0
 18 15  1  0  0  0  0
 19 20  1  0  0  0  0
 21 20  2  0  0  0  0
 22 24  1  0  0  0  0
 23 24  2  0  0  0  0
 23 25  1  0  0  0  0
 24 21  1  0  0  0  0
 25 19  2  0  0  0  0
 26 27  2  0  0  0  0
 28 26  1  0  0  0  0
 28 29  2  0  0  0  0
 30 32  1  0  0  0  0
 30 35  1  1  0  0  0
 31 29  1  6  0  0  0
 31 30  1  0  0  0  0
 31 32  1  0  0  0  0
 33 35  1  0  0  0  0
 33 34  1  0  0  0  0
 35 34  1  0  0  0  0
 36 37  1  0  0  0  0
 37 28  1  0  0  0  0
M  END
>  <MODEL>
9

>  <REMARK>
 VINA RESULT:      -4.6      2.351      5.652
  Name = 
  8 active torsions:
  status: ('A' for Active; 'I' for Inactive)
    1  A    between atoms: C_1  and  C_5
    2  A    between atoms: C_5  and  S_23
    3  A    between atoms: C_6  and  C_31
    4  A    between atoms: N_10  and  C_29
    5  A    between atoms: C_11  and  N_33
    6  A    between atoms: C_17  and  C_26
    7  A    between atoms: C_20  and  C_29
    8  A    between atoms: C_29  and  C_36
                            x       y       z     vdW  Elec       q    Type
                         _______ _______ _______ _____ _____    ______ ____

>  <TORSDO>
F 8

$$$$
