=
 OpenBabel11062410133D

 43 47  0  0  1  0  0  0  0  0999 V2000
  161.2150  204.0650  148.7990 C   0  0  0  0  0  0  0  0  0  0  0  0
  161.1900  208.1880  151.8350 C   0  0  0  0  0  0  0  0  0  0  0  0
  161.7260  210.4480  150.2740 N   0  0  0  0  0  0  0  0  0  0  0  0
  161.3300  205.5440  150.7200 C   0  0  0  0  0  0  0  0  0  0  0  0
  161.2140  205.2570  147.9200 C   0  0  0  0  0  3  0  0  0  0  0  0
  161.1300  202.7990  148.2390 O   0  0  0  0  0  1  0  0  0  0  0  0
  161.8560  206.6670  149.8510 C   0  0  1  0  0  3  0  0  0  0  0  0
  161.2390  204.2000  150.1300 C   0  0  0  0  0  3  0  0  0  0  0  0
  161.4560  206.4800  148.4080 C   0  0  0  0  0  3  0  0  0  0  0  0
  161.8570  209.1360  149.6930 C   0  0  0  0  0  3  0  0  0  0  0  0
  161.5820  208.0410  150.4100 C   0  0  0  0  0  0  0  0  0  0  0  0
  160.9270  207.1000  152.5700 C   0  0  0  0  0  3  0  0  0  0  0  0
  161.0890  209.5470  152.4170 C   0  0  0  0  0  0  0  0  0  0  0  0
  161.3380  210.6080  151.6450 C   0  0  0  0  0  3  0  0  0  0  0  0
  160.9590  205.7470  151.9860 C   0  0  0  0  0  3  0  0  0  0  0  0
  161.9270  211.6470  149.4710 C   0  0  1  0  0  3  0  0  0  0  0  0
  161.7880  211.3530  147.9830 C   0  0  0  0  0  2  0  0  0  0  0  0
  160.7520  212.9470  149.9370 S   0  0  0  0  0  0  0  0  0  0  0  0
  161.0700  212.5110  147.3110 C   0  0  1  0  0  3  0  0  0  0  0  0
  160.9800  213.6630  148.2930 C   0  0  0  0  0  2  0  0  0  0  0  0
  161.8280  212.9240  146.0580 C   0  0  0  0  0  2  0  0  0  0  0  0
  160.8790  213.2380  144.8950 C   0  0  1  0  0  3  0  0  0  0  0  0
  161.0690  214.4520  142.7130 C   0  0  0  0  0  1  0  0  0  0  0  0
  161.6010  213.2810  143.5290 C   0  0  0  0  0  0  0  0  0  0  0  0
  163.0880  213.5270  143.7650 C   0  0  0  0  0  1  0  0  0  0  0  0
  161.3900  211.9600  142.7650 C   0  0  0  0  0  2  0  0  0  0  0  0
  161.2280  212.1340  141.2590 C   0  0  0  0  0  3  0  0  0  0  0  0
  159.8590  211.4910  139.2850 C   0  0  0  0  0  2  0  0  0  0  0  0
  162.1010  211.4840  139.0200 C   0  0  0  0  0  2  0  0  0  0  0  0
  160.9340  210.7390  138.7730 O   0  0  0  0  0  0  0  0  0  0  0  0
  162.4030  211.4950  140.5190 C   0  0  0  0  0  2  0  0  0  0  0  0
  159.9120  211.4990  140.8120 C   0  0  0  0  0  2  0  0  0  0  0  0
  159.6740  212.3310  144.9180 C   0  0  0  0  0  3  0  0  0  0  0  0
  158.5410  212.7840  144.8720 O   0  0  0  0  0  0  0  0  0  0  0  0
  160.6300  209.7670  153.8240 C   0  0  0  0  0  2  0  0  0  0  0  0
  162.2110  210.2050  155.3700 O   0  0  0  0  0  1  0  0  0  0  0  0
  161.4270  210.8120  154.4490 N   0  0  0  0  0  0  0  0  0  0  0  0
  160.5140  211.6800  155.1770 C   0  0  0  0  0  2  0  0  0  0  0  0
  159.1400  211.6740  154.5160 C   0  0  0  0  0  2  0  0  0  0  0  0
  158.3620  211.2180  156.7370 O   0  0  0  0  0  1  0  0  0  0  0  0
  157.9990  211.8010  155.5220 C   0  0  0  0  0  0  0  0  0  0  0  0
  156.8490  211.1820  155.0330 O   0  0  0  0  0  1  0  0  0  0  0  0
  157.7070  213.2690  155.7480 C   0  0  0  0  0  1  0  0  0  0  0  0
  1  8  2  0  0  0  0
  2 13  1  0  0  0  0
  2 12  2  0  0  0  0
  3 14  1  0  0  0  0
  4 15  2  0  0  0  0
  5  9  2  0  0  0  0
  5  1  1  0  0  0  0
  6  1  1  0  0  0  0
  7  9  1  6  0  0  0
  7 11  1  0  0  0  0
  7  4  1  0  0  0  0
  8  4  1  0  0  0  0
 10  3  1  0  0  0  0
 10 11  2  0  0  0  0
 11  2  1  0  0  0  0
 13 35  1  0  0  0  0
 14 13  2  0  0  0  0
 15 12  1  0  0  0  0
 16 17  1  6  0  0  0
 16 18  1  0  0  0  0
 16  3  1  0  0  0  0
 19 21  1  6  0  0  0
 19 17  1  0  0  0  0
 19 20  1  0  0  0  0
 20 18  1  0  0  0  0
 22 33  1  6  0  0  0
 22 21  1  0  0  0  0
 23 24  1  0  0  0  0
 24 25  1  0  0  0  0
 24 22  1  0  0  0  0
 26 24  1  0  0  0  0
 27 26  1  0  0  0  0
 28 32  1  0  0  0  0
 29 31  1  0  0  0  0
 30 29  1  0  0  0  0
 30 28  1  0  0  0  0
 31 27  1  0  0  0  0
 32 27  1  0  0  0  0
 34 33  2  0  0  0  0
 35 37  1  0  0  0  0
 37 38  1  0  0  0  0
 37 36  1  0  0  0  0
 39 38  1  0  0  0  0
 39 41  1  0  0  0  0
 41 43  1  0  0  0  0
 41 40  1  0  0  0  0
 42 41  1  0  0  0  0
M  END
>  <MODEL>
1

>  <REMARK>
 VINA RESULT:      -7.8      0.000      0.000
  Name = 
  12 active torsions:
  status: ('A' for Active; 'I' for Inactive)
    1  A    between atoms: C_1  and  C_34
    2  A    between atoms: C_1  and  N_35
    3  A    between atoms: C_2  and  N_13
    4  A    between atoms: C_3  and  C_4
    5  A    between atoms: C_3  and  C_12
    6  A    between atoms: C_4  and  C_15
    7  A    between atoms: C_4  and  C_22
    8  A    between atoms: C_11  and  C_14
    9  A    between atoms: C_14  and  C_22
   10  A    between atoms: C_19  and  C_39
   11  A    between atoms: C_28  and  N_35
   12  A    between atoms: C_28  and  C_39
                            x       y       z     vdW  Elec       q    Type
                         _______ _______ _______ _____ _____    ______ ____

>  <TORSDO>
F 12

$$$$
=
 OpenBabel11062410133D

 43 47  0  0  1  0  0  0  0  0999 V2000
  161.0640  204.0580  148.4870 C   0  0  0  0  0  0  0  0  0  0  0  0
  161.7140  208.5750  150.8090 C   0  0  0  0  0  0  0  0  0  0  0  0
  162.1470  210.5280  148.8520 N   0  0  0  0  0  0  0  0  0  0  0  0
  161.5400  205.7920  150.1160 C   0  0  0  0  0  0  0  0  0  0  0  0
  161.0030  205.1030  147.4380 C   0  0  0  0  0  3  0  0  0  0  0  0
  160.8260  202.7340  148.1500 O   0  0  0  0  0  1  0  0  0  0  0  0
  161.9980  206.7280  149.0190 C   0  0  1  0  0  3  0  0  0  0  0  0
  161.2880  204.3870  149.7640 C   0  0  0  0  0  3  0  0  0  0  0  0
  161.3830  206.3620  147.6910 C   0  0  0  0  0  3  0  0  0  0  0  0
  162.1170  209.1390  148.4750 C   0  0  0  0  0  3  0  0  0  0  0  0
  161.8870  208.1880  149.3850 C   0  0  0  0  0  0  0  0  0  0  0  0
  161.4990  207.6320  151.7350 C   0  0  0  0  0  3  0  0  0  0  0  0
  161.7760  210.0090  151.1770 C   0  0  0  0  0  0  0  0  0  0  0  0
  161.9720  210.9200  150.2210 C   0  0  0  0  0  3  0  0  0  0  0  0
  161.3680  206.2090  151.3730 C   0  0  0  0  0  3  0  0  0  0  0  0
  162.2980  211.5750  147.8500 C   0  0  1  0  0  3  0  0  0  0  0  0
  160.9500  212.1460  147.4300 C   0  0  0  0  0  2  0  0  0  0  0  0
  163.3510  212.9180  148.4650 S   0  0  0  0  0  0  0  0  0  0  0  0
  161.0820  213.6470  147.2390 C   0  0  1  0  0  3  0  0  0  0  0  0
  162.5530  214.0150  147.2710 C   0  0  0  0  0  2  0  0  0  0  0  0
  160.4510  214.0510  145.9140 C   0  0  0  0  0  2  0  0  0  0  0  0
  161.0500  213.2710  144.7370 C   0  0  1  0  0  3  0  0  0  0  0  0
  158.6340  212.9440  144.1660 C   0  0  0  0  0  1  0  0  0  0  0  0
  160.0400  213.0540  143.5880 C   0  0  0  0  0  0  0  0  0  0  0  0
  160.0630  214.2750  142.6740 C   0  0  0  0  0  1  0  0  0  0  0  0
  160.3900  211.7820  142.7940 C   0  0  0  0  0  2  0  0  0  0  0  0
  160.7660  212.0430  141.3390 C   0  0  0  0  0  3  0  0  0  0  0  0
  160.3170  211.3830  138.9840 C   0  0  0  0  0  2  0  0  0  0  0  0
  162.4780  211.6680  139.5720 C   0  0  0  0  0  2  0  0  0  0  0  0
  161.5990  210.8060  138.8920 O   0  0  0  0  0  0  0  0  0  0  0  0
  162.2070  211.6080  141.0750 C   0  0  0  0  0  2  0  0  0  0  0  0
  159.8070  211.2860  140.4210 C   0  0  0  0  0  2  0  0  0  0  0  0
  162.3560  213.8810  144.2910 C   0  0  0  0  0  3  0  0  0  0  0  0
  163.3080  213.1800  143.9820 O   0  0  0  0  0  0  0  0  0  0  0  0
  161.5400  210.4710  152.5800 C   0  0  0  0  0  2  0  0  0  0  0  0
  159.7720  211.8680  152.6400 O   0  0  0  0  0  1  0  0  0  0  0  0
  160.1110  210.5730  152.8350 N   0  0  0  0  0  0  0  0  0  0  0  0
  159.8990  210.2900  154.2470 C   0  0  0  0  0  2  0  0  0  0  0  0
  161.1880  209.7780  154.8810 C   0  0  0  0  0  2  0  0  0  0  0  0
  159.9690  209.1420  156.8450 O   0  0  0  0  0  1  0  0  0  0  0  0
  160.9420  208.7090  155.9420 C   0  0  0  0  0  0  0  0  0  0  0  0
  162.1220  208.4240  156.6290 O   0  0  0  0  0  1  0  0  0  0  0  0
  160.4540  207.4480  155.2620 C   0  0  0  0  0  1  0  0  0  0  0  0
  1  8  2  0  0  0  0
  2 13  1  0  0  0  0
  2 12  2  0  0  0  0
  3 14  1  0  0  0  0
  4 15  2  0  0  0  0
  5  9  2  0  0  0  0
  5  1  1  0  0  0  0
  6  1  1  0  0  0  0
  7  9  1  6  0  0  0
  7 11  1  0  0  0  0
  7  4  1  0  0  0  0
  8  4  1  0  0  0  0
 10  3  1  0  0  0  0
 10 11  2  0  0  0  0
 11  2  1  0  0  0  0
 13 35  1  0  0  0  0
 14 13  2  0  0  0  0
 15 12  1  0  0  0  0
 16 17  1  1  0  0  0
 16 18  1  0  0  0  0
 16  3  1  0  0  0  0
 19 21  1  6  0  0  0
 19 20  1  0  0  0  0
 19 17  1  0  0  0  0
 20 18  1  0  0  0  0
 22 33  1  6  0  0  0
 22 21  1  0  0  0  0
 24 23  1  0  0  0  0
 24 22  1  0  0  0  0
 25 24  1  0  0  0  0
 26 24  1  0  0  0  0
 27 26  1  0  0  0  0
 28 32  1  0  0  0  0
 29 31  1  0  0  0  0
 30 28  1  0  0  0  0
 30 29  1  0  0  0  0
 31 27  1  0  0  0  0
 32 27  1  0  0  0  0
 34 33  2  0  0  0  0
 35 37  1  0  0  0  0
 36 37  1  0  0  0  0
 37 38  1  0  0  0  0
 38 39  1  0  0  0  0
 39 41  1  0  0  0  0
 41 42  1  0  0  0  0
 41 40  1  0  0  0  0
 43 41  1  0  0  0  0
M  END
>  <MODEL>
2

>  <REMARK>
 VINA RESULT:      -7.5      1.655      2.348
  Name = 
  12 active torsions:
  status: ('A' for Active; 'I' for Inactive)
    1  A    between atoms: C_1  and  C_34
    2  A    between atoms: C_1  and  N_35
    3  A    between atoms: C_2  and  N_13
    4  A    between atoms: C_3  and  C_4
    5  A    between atoms: C_3  and  C_12
    6  A    between atoms: C_4  and  C_15
    7  A    between atoms: C_4  and  C_22
    8  A    between atoms: C_11  and  C_14
    9  A    between atoms: C_14  and  C_22
   10  A    between atoms: C_19  and  C_39
   11  A    between atoms: C_28  and  N_35
   12  A    between atoms: C_28  and  C_39
                            x       y       z     vdW  Elec       q    Type
                         _______ _______ _______ _____ _____    ______ ____

>  <TORSDO>
F 12

$$$$
=
 OpenBabel11062410133D

 43 47  0  0  1  0  0  0  0  0999 V2000
  161.1520  202.2660  147.8900 C   0  0  0  0  0  0  0  0  0  0  0  0
  161.5610  207.2730  148.8790 C   0  0  0  0  0  0  0  0  0  0  0  0
  161.4300  207.6470  151.6500 N   0  0  0  0  0  0  0  0  0  0  0  0
  161.1280  204.6860  147.7080 C   0  0  0  0  0  0  0  0  0  0  0  0
  161.3670  202.4080  149.3480 C   0  0  0  0  0  3  0  0  0  0  0  0
  161.0960  201.0010  147.3250 O   0  0  0  0  0  1  0  0  0  0  0  0
  160.8120  204.8160  149.1820 C   0  0  0  0  0  0  0  0  0  0  0  0
  161.0690  203.3470  147.1040 C   0  0  0  0  0  2  0  0  0  0  0  0
  161.2660  203.6000  149.9520 C   0  0  0  0  0  3  0  0  0  0  0  0
  161.1560  206.3470  151.0950 C   0  0  0  0  0  3  0  0  0  0  0  0
  161.2370  206.1350  149.7770 C   0  0  0  0  0  0  0  0  0  0  0  0
  161.6300  207.0810  147.5560 C   0  0  0  0  0  3  0  0  0  0  0  0
  161.8130  208.6080  149.4720 C   0  0  0  0  0  0  0  0  0  0  0  0
  161.7560  208.7550  150.7980 C   0  0  0  0  0  3  0  0  0  0  0  0
  161.4490  205.7440  146.9590 C   0  0  0  0  0  3  0  0  0  0  0  0
  161.4420  207.8610  153.0910 C   0  0  1  0  0  3  0  0  0  0  0  0
  160.3830  208.8710  153.5150 C   0  0  0  0  0  2  0  0  0  0  0  0
  161.1750  206.3040  153.9820 S   0  0  0  0  0  0  0  0  0  0  0  0
  159.7590  208.4190  154.8240 C   0  0  1  0  0  3  0  0  0  0  0  0
  160.5820  207.2750  155.3860 C   0  0  0  0  0  2  0  0  0  0  0  0
  159.7160  209.5860  155.7990 C   0  0  0  0  0  2  0  0  0  0  0  0
  160.4640  210.8100  155.2560 C   0  0  1  0  0  3  0  0  0  0  0  0
  160.1770  213.1540  156.0900 C   0  0  0  0  0  1  0  0  0  0  0  0
  159.5780  212.0740  155.1970 C   0  0  0  0  0  0  0  0  0  0  0  0
  159.5780  212.6110  153.7690 C   0  0  0  0  0  1  0  0  0  0  0  0
  158.1410  211.7490  155.6470 C   0  0  0  0  0  2  0  0  0  0  0  0
  157.2530  212.9760  155.8250 C   0  0  0  0  0  3  0  0  0  0  0  0
  155.5140  214.0230  157.2600 C   0  0  0  0  0  2  0  0  0  0  0  0
  155.2100  214.1530  155.0270 C   0  0  0  0  0  2  0  0  0  0  0  0
  154.5590  213.8590  156.2380 O   0  0  0  0  0  0  0  0  0  0  0  0
  156.2210  213.0540  154.7000 C   0  0  0  0  0  2  0  0  0  0  0  0
  156.5540  212.9070  157.1810 C   0  0  0  0  0  2  0  0  0  0  0  0
  161.7690  211.0160  155.9840 C   0  0  0  0  0  3  0  0  0  0  0  0
  162.8400  210.8090  155.4340 O   0  0  0  0  0  0  0  0  0  0  0  0
  162.2140  209.7780  148.6310 C   0  0  0  0  0  2  0  0  0  0  0  0
  161.1120  211.2300  149.9570 O   0  0  0  0  0  1  0  0  0  0  0  0
  162.3430  210.9660  149.4610 N   0  0  0  0  0  0  0  0  0  0  0  0
  162.6910  212.0750  148.5840 C   0  0  0  0  0  2  0  0  0  0  0  0
  161.5980  212.2850  147.5420 C   0  0  0  0  0  2  0  0  0  0  0  0
  162.0390  214.4530  146.6180 O   0  0  0  0  0  1  0  0  0  0  0  0
  161.1570  213.7430  147.4340 C   0  0  0  0  0  0  0  0  0  0  0  0
  161.1110  214.3320  148.6970 O   0  0  0  0  0  1  0  0  0  0  0  0
  159.7740  213.7900  146.8200 C   0  0  0  0  0  1  0  0  0  0  0  0
  1  5  2  0  0  0  0
  2 13  1  0  0  0  0
  2 11  1  0  0  0  0
  4  7  1  0  0  0  0
  5  9  1  0  0  0  0
  6  1  1  0  0  0  0
  7 11  1  0  0  0  0
  7  9  2  0  0  0  0
  8  4  1  0  0  0  0
  8  1  1  0  0  0  0
 10  3  1  0  0  0  0
 11 10  2  0  0  0  0
 12  2  2  0  0  0  0
 13 14  2  0  0  0  0
 14  3  1  0  0  0  0
 15 12  1  0  0  0  0
 15  4  2  0  0  0  0
 16  3  1  6  0  0  0
 16 17  1  0  0  0  0
 16 18  1  0  0  0  0
 17 19  1  0  0  0  0
 18 20  1  0  0  0  0
 19 20  1  0  0  0  0
 19 21  1  1  0  0  0
 22 21  1  1  0  0  0
 22 33  1  0  0  0  0
 24 22  1  0  0  0  0
 24 26  1  0  0  0  0
 24 23  1  0  0  0  0
 25 24  1  0  0  0  0
 26 27  1  0  0  0  0
 27 32  1  0  0  0  0
 29 30  1  0  0  0  0
 30 28  1  0  0  0  0
 31 29  1  0  0  0  0
 31 27  1  0  0  0  0
 32 28  1  0  0  0  0
 34 33  2  0  0  0  0
 35 37  1  0  0  0  0
 35 13  1  0  0  0  0
 37 36  1  0  0  0  0
 38 37  1  0  0  0  0
 39 38  1  0  0  0  0
 40 41  1  0  0  0  0
 41 39  1  0  0  0  0
 41 42  1  0  0  0  0
 43 41  1  0  0  0  0
M  END
>  <MODEL>
3

>  <REMARK>
 VINA RESULT:      -7.1      3.689      9.475
  Name = 
  12 active torsions:
  status: ('A' for Active; 'I' for Inactive)
    1  A    between atoms: C_1  and  C_34
    2  A    between atoms: C_1  and  N_35
    3  A    between atoms: C_2  and  N_13
    4  A    between atoms: C_3  and  C_4
    5  A    between atoms: C_3  and  C_12
    6  A    between atoms: C_4  and  C_15
    7  A    between atoms: C_4  and  C_22
    8  A    between atoms: C_11  and  C_14
    9  A    between atoms: C_14  and  C_22
   10  A    between atoms: C_19  and  C_39
   11  A    between atoms: C_28  and  N_35
   12  A    between atoms: C_28  and  C_39
                            x       y       z     vdW  Elec       q    Type
                         _______ _______ _______ _____ _____    ______ ____

>  <TORSDO>
F 12

$$$$
=
 OpenBabel11062410133D

 43 47  0  0  1  0  0  0  0  0999 V2000
  161.0440  202.4100  146.7160 C   0  0  0  0  0  0  0  0  0  0  0  0
  161.5470  207.2200  148.3990 C   0  0  0  0  0  0  0  0  0  0  0  0
  161.6580  207.1780  151.1950 N   0  0  0  0  0  0  0  0  0  0  0  0
  161.0080  204.8300  146.8980 C   0  0  0  0  0  0  0  0  0  0  0  0
  161.3850  202.3370  148.1560 C   0  0  0  0  0  3  0  0  0  0  0  0
  160.9370  201.2420  145.9770 O   0  0  0  0  0  1  0  0  0  0  0  0
  160.8220  204.7360  148.3970 C   0  0  0  0  0  0  0  0  0  0  0  0
  160.8950  203.5940  146.1100 C   0  0  0  0  0  2  0  0  0  0  0  0
  161.3390  203.4250  148.9360 C   0  0  0  0  0  3  0  0  0  0  0  0
  161.3340  205.9710  150.4790 C   0  0  0  0  0  3  0  0  0  0  0  0
  161.3000  205.9580  149.1430 C   0  0  0  0  0  0  0  0  0  0  0  0
  161.5000  207.2260  147.0610 C   0  0  0  0  0  3  0  0  0  0  0  0
  161.8520  208.4550  149.1590 C   0  0  0  0  0  0  0  0  0  0  0  0
  161.9100  208.4030  150.4920 C   0  0  0  0  0  3  0  0  0  0  0  0
  161.2650  205.9910  146.2900 C   0  0  0  0  0  3  0  0  0  0  0  0
  161.7950  207.1760  152.6460 C   0  0  1  0  0  3  0  0  0  0  0  0
  161.0240  208.3250  153.2820 C   0  0  0  0  0  2  0  0  0  0  0  0
  161.2220  205.6070  153.3520 S   0  0  0  0  0  0  0  0  0  0  0  0
  160.3830  207.8420  154.5710 C   0  0  1  0  0  3  0  0  0  0  0  0
  160.9460  206.4760  154.9130 C   0  0  0  0  0  2  0  0  0  0  0  0
  160.6640  208.8380  155.6860 C   0  0  0  0  0  2  0  0  0  0  0  0
  160.8130  210.2670  155.1490 C   0  0  1  0  0  3  0  0  0  0  0  0
  158.4230  210.6540  155.7920 C   0  0  0  0  0  1  0  0  0  0  0  0
  159.8220  211.2580  155.8020 C   0  0  0  0  0  0  0  0  0  0  0  0
  160.2200  211.4630  157.2610 C   0  0  0  0  0  1  0  0  0  0  0  0
  159.8270  212.6020  155.0510 C   0  0  0  0  0  2  0  0  0  0  0  0
  158.8230  212.6750  153.9050 C   0  0  0  0  0  3  0  0  0  0  0  0
  158.5760  212.9650  151.4470 C   0  0  0  0  0  2  0  0  0  0  0  0
  157.1270  214.0940  152.7610 C   0  0  0  0  0  2  0  0  0  0  0  0
  157.9760  214.2230  151.6470 O   0  0  0  0  0  0  0  0  0  0  0  0
  157.9590  213.9300  154.0330 C   0  0  0  0  0  2  0  0  0  0  0  0
  159.5700  212.6800  152.5720 C   0  0  0  0  0  2  0  0  0  0  0  0
  162.2500  210.7200  155.2040 C   0  0  0  0  0  3  0  0  0  0  0  0
  163.0110  210.3080  156.0660 O   0  0  0  0  0  0  0  0  0  0  0  0
  162.1800  209.7410  148.4700 C   0  0  0  0  0  2  0  0  0  0  0  0
  161.2060  210.9900  150.0730 O   0  0  0  0  0  1  0  0  0  0  0  0
  162.3920  210.7920  149.4530 N   0  0  0  0  0  0  0  0  0  0  0  0
  162.6960  212.0150  148.7250 C   0  0  0  0  0  2  0  0  0  0  0  0
  161.7530  212.1700  147.5370 C   0  0  0  0  0  2  0  0  0  0  0  0
  159.8580  213.5130  146.9420 O   0  0  0  0  0  1  0  0  0  0  0  0
  161.1650  213.5750  147.4280 C   0  0  0  0  0  0  0  0  0  0  0  0
  161.9420  214.3630  146.5790 O   0  0  0  0  0  1  0  0  0  0  0  0
  161.1490  214.2060  148.8040 C   0  0  0  0  0  1  0  0  0  0  0  0
  1  5  2  0  0  0  0
  2 11  1  0  0  0  0
  2 13  1  0  0  0  0
  4  7  1  0  0  0  0
  5  9  1  0  0  0  0
  6  1  1  0  0  0  0
  7  9  2  0  0  0  0
  7 11  1  0  0  0  0
  8  1  1  0  0  0  0
  8  4  1  0  0  0  0
 10  3  1  0  0  0  0
 11 10  2  0  0  0  0
 12  2  2  0  0  0  0
 13 14  2  0  0  0  0
 14  3  1  0  0  0  0
 15  4  2  0  0  0  0
 15 12  1  0  0  0  0
 16  3  1  6  0  0  0
 16 17  1  0  0  0  0
 16 18  1  0  0  0  0
 17 19  1  0  0  0  0
 18 20  1  0  0  0  0
 19 20  1  0  0  0  0
 19 21  1  1  0  0  0
 22 33  1  1  0  0  0
 22 21  1  0  0  0  0
 22 24  1  0  0  0  0
 23 24  1  0  0  0  0
 24 25  1  0  0  0  0
 26 24  1  0  0  0  0
 27 31  1  0  0  0  0
 27 26  1  0  0  0  0
 28 30  1  0  0  0  0
 28 32  1  0  0  0  0
 29 31  1  0  0  0  0
 30 29  1  0  0  0  0
 32 27  1  0  0  0  0
 33 34  2  0  0  0  0
 35 13  1  0  0  0  0
 35 37  1  0  0  0  0
 37 36  1  0  0  0  0
 38 37  1  0  0  0  0
 39 38  1  0  0  0  0
 40 41  1  0  0  0  0
 41 39  1  0  0  0  0
 41 43  1  0  0  0  0
 42 41  1  0  0  0  0
M  END
>  <MODEL>
4

>  <REMARK>
 VINA RESULT:      -7.0      3.862      8.763
  Name = 
  12 active torsions:
  status: ('A' for Active; 'I' for Inactive)
    1  A    between atoms: C_1  and  C_34
    2  A    between atoms: C_1  and  N_35
    3  A    between atoms: C_2  and  N_13
    4  A    between atoms: C_3  and  C_4
    5  A    between atoms: C_3  and  C_12
    6  A    between atoms: C_4  and  C_15
    7  A    between atoms: C_4  and  C_22
    8  A    between atoms: C_11  and  C_14
    9  A    between atoms: C_14  and  C_22
   10  A    between atoms: C_19  and  C_39
   11  A    between atoms: C_28  and  N_35
   12  A    between atoms: C_28  and  C_39
                            x       y       z     vdW  Elec       q    Type
                         _______ _______ _______ _____ _____    ______ ____

>  <TORSDO>
F 12

$$$$
=
 OpenBabel11062410133D

 43 47  0  0  1  0  0  0  0  0999 V2000
  160.8630  207.8220  155.8560 C   0  0  0  0  0  0  0  0  0  0  0  0
  161.6250  207.8300  150.7930 C   0  0  0  0  0  0  0  0  0  0  0  0
  161.7170  210.4840  149.9110 N   0  0  0  0  0  0  0  0  0  0  0  0
  160.9620  207.1920  153.5150 C   0  0  0  0  0  0  0  0  0  0  0  0
  161.1910  209.2120  155.4650 C   0  0  0  0  0  3  0  0  0  0  0  0
  160.6940  207.5080  157.1970 O   0  0  0  0  0  1  0  0  0  0  0  0
  160.7620  208.6320  153.0960 C   0  0  1  0  0  3  0  0  0  0  0  0
  160.7840  206.8540  154.9350 C   0  0  0  0  0  3  0  0  0  0  0  0
  161.2010  209.5870  154.1790 C   0  0  0  0  0  3  0  0  0  0  0  0
  161.3300  210.2000  151.2680 C   0  0  0  0  0  3  0  0  0  0  0  0
  161.3030  208.9430  151.7230 C   0  0  0  0  0  0  0  0  0  0  0  0
  161.5860  206.5640  151.2290 C   0  0  0  0  0  3  0  0  0  0  0  0
  161.9940  208.1460  149.3930 C   0  0  0  0  0  0  0  0  0  0  0  0
  162.0410  209.4220  149.0030 C   0  0  0  0  0  3  0  0  0  0  0  0
  161.2860  206.2410  152.6360 C   0  0  0  0  0  3  0  0  0  0  0  0
  161.8450  211.8560  149.4380 C   0  0  1  0  0  3  0  0  0  0  0  0
  161.6370  211.9510  147.9330 C   0  0  0  0  0  2  0  0  0  0  0  0
  160.6630  212.9460  150.2760 S   0  0  0  0  0  0  0  0  0  0  0  0
  160.8550  213.2150  147.6160 C   0  0  1  0  0  3  0  0  0  0  0  0
  160.7870  214.0710  148.8660 C   0  0  0  0  0  2  0  0  0  0  0  0
  161.5360  213.9660  146.4820 C   0  0  0  0  0  2  0  0  0  0  0  0
  161.5780  213.1350  145.1930 C   0  0  1  0  0  3  0  0  0  0  0  0
  159.4290  212.0150  144.5620 C   0  0  0  0  0  1  0  0  0  0  0  0
  160.2820  213.2610  144.3590 C   0  0  0  0  0  0  0  0  0  0  0  0
  159.4800  214.4530  144.8710 C   0  0  0  0  0  1  0  0  0  0  0  0
  160.6150  213.4390  142.8660 C   0  0  0  0  0  2  0  0  0  0  0  0
  160.2290  212.2470  141.9970 C   0  0  0  0  0  3  0  0  0  0  0  0
  161.0810  210.5660  140.3750 C   0  0  0  0  0  2  0  0  0  0  0  0
  159.0930  211.5280  139.9020 C   0  0  0  0  0  2  0  0  0  0  0  0
  160.3340  211.1690  139.3440 O   0  0  0  0  0  0  0  0  0  0  0  0
  159.2800  212.6860  140.8830 C   0  0  0  0  0  2  0  0  0  0  0  0
  161.4890  211.6200  141.4040 C   0  0  0  0  0  2  0  0  0  0  0  0
  162.8350  213.4140  144.4080 C   0  0  0  0  0  3  0  0  0  0  0  0
  163.9390  213.1860  144.8790 O   0  0  0  0  0  0  0  0  0  0  0  0
  162.3980  207.0780  148.4270 C   0  0  0  0  0  2  0  0  0  0  0  0
  161.6110  204.9670  148.3480 O   0  0  0  0  0  1  0  0  0  0  0  0
  161.2510  206.2470  148.0960 N   0  0  0  0  0  0  0  0  0  0  0  0
  161.0380  206.3500  146.6600 C   0  0  0  0  0  2  0  0  0  0  0  0
  161.8740  205.3070  145.9260 C   0  0  0  0  0  2  0  0  0  0  0  0
  161.2680  203.2500  144.8540 O   0  0  0  0  0  1  0  0  0  0  0  0
  161.1150  204.6360  144.7850 C   0  0  0  0  0  0  0  0  0  0  0  0
  161.5810  205.0960  143.5530 O   0  0  0  0  0  1  0  0  0  0  0  0
  159.6450  204.9750  144.9090 C   0  0  0  0  0  1  0  0  0  0  0  0
  1  6  1  0  0  0  0
  2 12  2  0  0  0  0
  2 11  1  0  0  0  0
  3 10  1  0  0  0  0
  4  8  1  0  0  0  0
  5  1  1  0  0  0  0
  7  4  1  0  0  0  0
  7  9  1  1  0  0  0
  8  1  2  0  0  0  0
  9  5  2  0  0  0  0
 10 11  2  0  0  0  0
 11  7  1  0  0  0  0
 12 15  1  0  0  0  0
 13  2  1  0  0  0  0
 14 13  2  0  0  0  0
 14  3  1  0  0  0  0
 15  4  2  0  0  0  0
 16 17  1  6  0  0  0
 16  3  1  0  0  0  0
 16 18  1  0  0  0  0
 19 21  1  6  0  0  0
 19 17  1  0  0  0  0
 19 20  1  0  0  0  0
 20 18  1  0  0  0  0
 22 33  1  6  0  0  0
 22 21  1  0  0  0  0
 24 23  1  0  0  0  0
 24 25  1  0  0  0  0
 24 22  1  0  0  0  0
 26 24  1  0  0  0  0
 27 26  1  0  0  0  0
 28 32  1  0  0  0  0
 29 31  1  0  0  0  0
 30 29  1  0  0  0  0
 30 28  1  0  0  0  0
 31 27  1  0  0  0  0
 32 27  1  0  0  0  0
 33 34  2  0  0  0  0
 35 13  1  0  0  0  0
 37 36  1  0  0  0  0
 37 35  1  0  0  0  0
 38 37  1  0  0  0  0
 39 38  1  0  0  0  0
 41 40  1  0  0  0  0
 41 43  1  0  0  0  0
 41 39  1  0  0  0  0
 42 41  1  0  0  0  0
M  END
>  <MODEL>
5

>  <REMARK>
 VINA RESULT:      -7.0      2.296      6.193
  Name = 
  12 active torsions:
  status: ('A' for Active; 'I' for Inactive)
    1  A    between atoms: C_1  and  C_34
    2  A    between atoms: C_1  and  N_35
    3  A    between atoms: C_2  and  N_13
    4  A    between atoms: C_3  and  C_4
    5  A    between atoms: C_3  and  C_12
    6  A    between atoms: C_4  and  C_15
    7  A    between atoms: C_4  and  C_22
    8  A    between atoms: C_11  and  C_14
    9  A    between atoms: C_14  and  C_22
   10  A    between atoms: C_19  and  C_39
   11  A    between atoms: C_28  and  N_35
   12  A    between atoms: C_28  and  C_39
                            x       y       z     vdW  Elec       q    Type
                         _______ _______ _______ _____ _____    ______ ____

>  <TORSDO>
F 12

$$$$
=
 OpenBabel11062410133D

 43 47  0  0  1  0  0  0  0  0999 V2000
  161.1680  202.7370  148.8070 C   0  0  0  0  0  0  0  0  0  0  0  0
  161.6180  207.8240  149.1710 C   0  0  0  0  0  0  0  0  0  0  0  0
  161.3600  208.5510  151.8610 N   0  0  0  0  0  0  0  0  0  0  0  0
  161.1950  205.1130  148.3180 C   0  0  0  0  0  0  0  0  0  0  0  0
  161.3140  203.0620  150.2450 C   0  0  0  0  0  3  0  0  0  0  0  0
  161.1160  201.4100  148.4060 O   0  0  0  0  0  1  0  0  0  0  0  0
  160.8110  205.4340  149.7460 C   0  0  0  0  0  0  0  0  0  0  0  0
  161.1420  203.7090  147.8880 C   0  0  0  0  0  2  0  0  0  0  0  0
  161.2060  204.3220  150.6860 C   0  0  0  0  0  3  0  0  0  0  0  0
  161.0900  207.1940  151.4630 C   0  0  0  0  0  3  0  0  0  0  0  0
  161.2310  206.8140  150.1890 C   0  0  0  0  0  0  0  0  0  0  0  0
  161.7480  207.4630  147.8890 C   0  0  0  0  0  3  0  0  0  0  0  0
  161.8650  209.2210  149.6010 C   0  0  0  0  0  0  0  0  0  0  0  0
  161.7460  209.5360  150.8930 C   0  0  0  0  0  3  0  0  0  0  0  0
  161.5710  206.0640  147.4580 C   0  0  0  0  0  3  0  0  0  0  0  0
  161.3050  208.9470  153.2630 C   0  0  1  0  0  3  0  0  0  0  0  0
  160.3280  210.0950  153.4820 C   0  0  0  0  0  2  0  0  0  0  0  0
  160.8330  207.5490  154.3160 S   0  0  0  0  0  0  0  0  0  0  0  0
  159.5850  209.8740  154.7870 C   0  0  1  0  0  3  0  0  0  0  0  0
  160.2550  208.7430  155.5440 C   0  0  0  0  0  2  0  0  0  0  0  0
  159.5990  211.1570  155.6060 C   0  0  0  0  0  2  0  0  0  0  0  0
  158.1800  211.6290  155.9490 C   0  0  1  0  0  3  0  0  0  0  0  0
  157.4640  213.8900  156.7540 C   0  0  0  0  0  1  0  0  0  0  0  0
  157.9230  213.0970  155.5370 C   0  0  0  0  0  0  0  0  0  0  0  0
  159.2350  213.7110  155.0600 C   0  0  0  0  0  1  0  0  0  0  0  0
  156.8620  213.1670  154.4240 C   0  0  0  0  0  2  0  0  0  0  0  0
  157.3770  213.7480  153.1110 C   0  0  0  0  0  3  0  0  0  0  0  0
  156.7250  214.4530  150.8180 C   0  0  0  0  0  2  0  0  0  0  0  0
  158.6350  213.2670  151.0180 C   0  0  0  0  0  2  0  0  0  0  0  0
  157.4490  213.3760  150.2710 O   0  0  0  0  0  0  0  0  0  0  0  0
  158.3190  212.7590  152.4260 C   0  0  0  0  0  2  0  0  0  0  0  0
  156.1950  214.0730  152.2000 C   0  0  0  0  0  2  0  0  0  0  0  0
  157.1460  210.6620  155.4300 C   0  0  0  0  0  3  0  0  0  0  0  0
  156.2080  210.3050  156.1260 O   0  0  0  0  0  0  0  0  0  0  0  0
  162.3270  210.2690  148.6390 C   0  0  0  0  0  2  0  0  0  0  0  0
  160.9640  211.7250  149.6900 O   0  0  0  0  0  1  0  0  0  0  0  0
  162.2380  211.5840  149.2560 N   0  0  0  0  0  0  0  0  0  0  0  0
  162.4380  212.5720  148.2060 C   0  0  0  0  0  2  0  0  0  0  0  0
  161.7070  212.1480  146.9370 C   0  0  0  0  0  2  0  0  0  0  0  0
  161.6550  212.9710  144.6860 O   0  0  0  0  0  1  0  0  0  0  0  0
  161.3980  213.3230  146.0120 C   0  0  0  0  0  0  0  0  0  0  0  0
  162.1700  214.4310  146.3590 O   0  0  0  0  0  1  0  0  0  0  0  0
  159.9340  213.6820  146.1510 C   0  0  0  0  0  1  0  0  0  0  0  0
  1  5  2  0  0  0  0
  2 13  1  0  0  0  0
  2 11  1  0  0  0  0
  4  7  1  0  0  0  0
  5  9  1  0  0  0  0
  6  1  1  0  0  0  0
  7 11  1  0  0  0  0
  7  9  2  0  0  0  0
  8  4  1  0  0  0  0
  8  1  1  0  0  0  0
 10  3  1  0  0  0  0
 11 10  2  0  0  0  0
 12  2  2  0  0  0  0
 13 14  2  0  0  0  0
 14  3  1  0  0  0  0
 15 12  1  0  0  0  0
 15  4  2  0  0  0  0
 16  3  1  6  0  0  0
 16 17  1  0  0  0  0
 16 18  1  0  0  0  0
 17 19  1  0  0  0  0
 18 20  1  0  0  0  0
 19 20  1  0  0  0  0
 19 21  1  1  0  0  0
 21 22  1  0  0  0  0
 22 33  1  6  0  0  0
 24 22  1  0  0  0  0
 24 23  1  0  0  0  0
 25 24  1  0  0  0  0
 26 24  1  0  0  0  0
 27 26  1  0  0  0  0
 28 32  1  0  0  0  0
 29 31  1  0  0  0  0
 30 28  1  0  0  0  0
 30 29  1  0  0  0  0
 31 27  1  0  0  0  0
 32 27  1  0  0  0  0
 33 34  2  0  0  0  0
 35 37  1  0  0  0  0
 35 13  1  0  0  0  0
 37 36  1  0  0  0  0
 38 37  1  0  0  0  0
 39 38  1  0  0  0  0
 40 41  1  0  0  0  0
 41 43  1  0  0  0  0
 41 42  1  0  0  0  0
 41 39  1  0  0  0  0
M  END
>  <MODEL>
6

>  <REMARK>
 VINA RESULT:      -6.5      3.140      8.540
  Name = 
  12 active torsions:
  status: ('A' for Active; 'I' for Inactive)
    1  A    between atoms: C_1  and  C_34
    2  A    between atoms: C_1  and  N_35
    3  A    between atoms: C_2  and  N_13
    4  A    between atoms: C_3  and  C_4
    5  A    between atoms: C_3  and  C_12
    6  A    between atoms: C_4  and  C_15
    7  A    between atoms: C_4  and  C_22
    8  A    between atoms: C_11  and  C_14
    9  A    between atoms: C_14  and  C_22
   10  A    between atoms: C_19  and  C_39
   11  A    between atoms: C_28  and  N_35
   12  A    between atoms: C_28  and  C_39
                            x       y       z     vdW  Elec       q    Type
                         _______ _______ _______ _____ _____    ______ ____

>  <TORSDO>
F 12

$$$$
=
 OpenBabel11062410133D

 43 47  0  0  1  0  0  0  0  0999 V2000
  161.1770  203.2240  146.1330 C   0  0  0  0  0  0  0  0  0  0  0  0
  161.2120  206.3370  150.1980 C   0  0  0  0  0  0  0  0  0  0  0  0
  161.9480  208.9010  149.3500 N   0  0  0  0  0  0  0  0  0  0  0  0
  161.2700  204.1020  148.3930 C   0  0  0  0  0  0  0  0  0  0  0  0
  161.2850  204.6100  145.6220 C   0  0  0  0  0  3  0  0  0  0  0  0
  161.0550  202.1710  145.2390 O   0  0  0  0  0  1  0  0  0  0  0  0
  161.8990  205.3850  147.8930 C   0  0  0  0  0  0  0  0  0  0  0  0
  161.1390  202.9830  147.4490 C   0  0  0  0  0  2  0  0  0  0  0  0
  161.5660  205.6320  146.4420 C   0  0  0  0  0  3  0  0  0  0  0  0
  162.0390  207.7950  148.4320 C   0  0  0  0  0  3  0  0  0  0  0  0
  161.6690  206.5650  148.8030 C   0  0  0  0  0  0  0  0  0  0  0  0
  160.8540  205.1080  150.5900 C   0  0  0  0  0  3  0  0  0  0  0  0
  161.1530  207.4850  151.1330 C   0  0  0  0  0  0  0  0  0  0  0  0
  161.4980  208.7000  150.6970 C   0  0  0  0  0  3  0  0  0  0  0  0
  160.8440  203.9700  149.6520 C   0  0  0  0  0  3  0  0  0  0  0  0
  162.2540  210.2590  148.9220 C   0  0  1  0  0  3  0  0  0  0  0  0
  161.4290  210.6620  147.7080 C   0  0  0  0  0  2  0  0  0  0  0  0
  161.9650  211.4450  150.2630 S   0  0  0  0  0  0  0  0  0  0  0  0
  161.0070  212.1150  147.8510 C   0  0  1  0  0  3  0  0  0  0  0  0
  161.7700  212.7310  149.0080 C   0  0  0  0  0  2  0  0  0  0  0  0
  161.2940  212.8600  146.5550 C   0  0  0  0  0  2  0  0  0  0  0  0
  160.0630  213.6260  146.0540 C   0  0  1  0  0  3  0  0  0  0  0  0
  159.5970  212.1380  144.0940 C   0  0  0  0  0  1  0  0  0  0  0  0
  159.9080  213.5680  144.5170 C   0  0  0  0  0  0  0  0  0  0  0  0
  158.7210  214.4340  144.1090 C   0  0  0  0  0  1  0  0  0  0  0  0
  161.1940  214.0600  143.8260 C   0  0  0  0  0  2  0  0  0  0  0  0
  161.5090  213.3410  142.5190 C   0  0  0  0  0  3  0  0  0  0  0  0
  163.0760  213.2440  140.5910 C   0  0  0  0  0  2  0  0  0  0  0  0
  160.8730  213.0770  140.1270 C   0  0  0  0  0  2  0  0  0  0  0  0
  162.0640  213.7140  139.7330 O   0  0  0  0  0  0  0  0  0  0  0  0
  160.4190  213.6170  141.4840 C   0  0  0  0  0  2  0  0  0  0  0  0
  162.8670  213.8060  141.9960 C   0  0  0  0  0  2  0  0  0  0  0  0
  158.8230  213.2110  146.8060 C   0  0  0  0  0  3  0  0  0  0  0  0
  158.0250  214.0400  147.2160 O   0  0  0  0  0  0  0  0  0  0  0  0
  160.6340  207.3370  152.5280 C   0  0  0  0  0  2  0  0  0  0  0  0
  161.7500  205.8120  153.7560 O   0  0  0  0  0  1  0  0  0  0  0  0
  161.7390  207.1300  153.4500 N   0  0  0  0  0  0  0  0  0  0  0  0
  161.4230  207.8450  154.6770 C   0  0  0  0  0  2  0  0  0  0  0  0
  160.7220  209.1600  154.3550 C   0  0  0  0  0  2  0  0  0  0  0  0
  160.9020  211.4960  154.8620 O   0  0  0  0  0  1  0  0  0  0  0  0
  160.9330  210.2220  155.4310 C   0  0  0  0  0  0  0  0  0  0  0  0
  162.1560  210.0280  156.0730 O   0  0  0  0  0  1  0  0  0  0  0  0
  159.8210  210.1120  156.4520 C   0  0  0  0  0  1  0  0  0  0  0  0
  1  8  1  0  0  0  0
  2 12  2  0  0  0  0
  2 13  1  0  0  0  0
  3 14  1  0  0  0  0
  4 15  2  0  0  0  0
  5  1  2  0  0  0  0
  5  9  1  0  0  0  0
  6  1  1  0  0  0  0
  7  4  1  0  0  0  0
  7 11  1  0  0  0  0
  8  4  1  0  0  0  0
  9  7  2  0  0  0  0
 10 11  2  0  0  0  0
 10  3  1  0  0  0  0
 11  2  1  0  0  0  0
 13 35  1  0  0  0  0
 14 13  2  0  0  0  0
 15 12  1  0  0  0  0
 16 17  1  6  0  0  0
 16  3  1  0  0  0  0
 16 18  1  0  0  0  0
 17 19  1  0  0  0  0
 19 21  1  6  0  0  0
 19 20  1  0  0  0  0
 20 18  1  0  0  0  0
 22 21  1  1  0  0  0
 22 33  1  0  0  0  0
 23 24  1  0  0  0  0
 24 22  1  0  0  0  0
 25 24  1  0  0  0  0
 26 24  1  0  0  0  0
 27 26  1  0  0  0  0
 28 32  1  0  0  0  0
 29 31  1  0  0  0  0
 30 29  1  0  0  0  0
 30 28  1  0  0  0  0
 31 27  1  0  0  0  0
 32 27  1  0  0  0  0
 33 34  2  0  0  0  0
 35 37  1  0  0  0  0
 37 36  1  0  0  0  0
 37 38  1  0  0  0  0
 39 38  1  0  0  0  0
 39 41  1  0  0  0  0
 40 41  1  0  0  0  0
 41 42  1  0  0  0  0
 41 43  1  0  0  0  0
M  END
>  <MODEL>
7

>  <REMARK>
 VINA RESULT:      -6.5      1.915      2.862
  Name = 
  12 active torsions:
  status: ('A' for Active; 'I' for Inactive)
    1  A    between atoms: C_1  and  C_34
    2  A    between atoms: C_1  and  N_35
    3  A    between atoms: C_2  and  N_13
    4  A    between atoms: C_3  and  C_4
    5  A    between atoms: C_3  and  C_12
    6  A    between atoms: C_4  and  C_15
    7  A    between atoms: C_4  and  C_22
    8  A    between atoms: C_11  and  C_14
    9  A    between atoms: C_14  and  C_22
   10  A    between atoms: C_19  and  C_39
   11  A    between atoms: C_28  and  N_35
   12  A    between atoms: C_28  and  C_39
                            x       y       z     vdW  Elec       q    Type
                         _______ _______ _______ _____ _____    ______ ____

>  <TORSDO>
F 12

$$$$
=
 OpenBabel11062410133D

 43 47  0  0  1  0  0  0  0  0999 V2000
  161.1880  208.5600  155.3350 C   0  0  0  0  0  0  0  0  0  0  0  0
  161.7600  207.4770  150.3640 C   0  0  0  0  0  0  0  0  0  0  0  0
  161.9030  209.8820  148.9390 N   0  0  0  0  0  0  0  0  0  0  0  0
  161.1800  207.4500  153.1780 C   0  0  0  0  0  0  0  0  0  0  0  0
  161.5450  209.8240  154.6500 C   0  0  0  0  0  3  0  0  0  0  0  0
  161.0610  208.5410  156.7160 O   0  0  0  0  0  1  0  0  0  0  0  0
  161.0100  208.7770  152.4710 C   0  0  1  0  0  3  0  0  0  0  0  0
  161.0450  207.4250  154.6410 C   0  0  0  0  0  3  0  0  0  0  0  0
  161.5190  209.9200  153.3150 C   0  0  0  0  0  3  0  0  0  0  0  0
  161.5580  209.9040  150.3370 C   0  0  0  0  0  3  0  0  0  0  0  0
  161.5090  208.7720  151.0470 C   0  0  0  0  0  0  0  0  0  0  0  0
  161.6990  206.3340  151.0570 C   0  0  0  0  0  3  0  0  0  0  0  0
  162.0860  207.4780  148.9180 C   0  0  0  0  0  0  0  0  0  0  0  0
  162.1590  208.6410  148.2660 C   0  0  0  0  0  3  0  0  0  0  0  0
  161.4420  206.3240  152.5100 C   0  0  0  0  0  3  0  0  0  0  0  0
  162.0560  211.1190  148.1840 C   0  0  1  0  0  3  0  0  0  0  0  0
  160.8310  211.4060  147.3270 C   0  0  0  0  0  2  0  0  0  0  0  0
  162.3560  212.5240  149.2910 S   0  0  0  0  0  0  0  0  0  0  0  0
  160.5440  212.8980  147.3510 C   0  0  1  0  0  3  0  0  0  0  0  0
  161.7200  213.6090  147.9930 C   0  0  0  0  0  2  0  0  0  0  0  0
  160.3180  213.3970  145.9310 C   0  0  0  0  0  2  0  0  0  0  0  0
  161.3920  212.8770  144.9670 C   0  0  1  0  0  3  0  0  0  0  0  0
  159.8190  211.6810  143.4290 C   0  0  0  0  0  1  0  0  0  0  0  0
  160.8840  212.7670  143.5110 C   0  0  0  0  0  0  0  0  0  0  0  0
  160.2250  214.0850  143.1170 C   0  0  0  0  0  1  0  0  0  0  0  0
  162.0480  212.4430  142.5560 C   0  0  0  0  0  2  0  0  0  0  0  0
  161.6050  211.9920  141.1680 C   0  0  0  0  0  3  0  0  0  0  0  0
  162.1580  210.5090  139.2500 C   0  0  0  0  0  2  0  0  0  0  0  0
  161.4900  212.6090  138.7590 C   0  0  0  0  0  2  0  0  0  0  0  0
  162.4550  211.6330  138.4560 O   0  0  0  0  0  0  0  0  0  0  0  0
  161.7190  213.1460  140.1720 C   0  0  0  0  0  2  0  0  0  0  0  0
  162.4660  210.8150  140.7160 C   0  0  0  0  0  2  0  0  0  0  0  0
  162.6720  213.6620  145.1060 C   0  0  0  0  0  3  0  0  0  0  0  0
  163.7610  213.1280  144.9600 O   0  0  0  0  0  0  0  0  0  0  0  0
  162.4210  206.2170  148.1870 C   0  0  0  0  0  2  0  0  0  0  0  0
  160.2140  206.4840  147.8160 O   0  0  0  0  0  1  0  0  0  0  0  0
  161.2010  205.5620  147.7410 N   0  0  0  0  0  0  0  0  0  0  0  0
  160.8830  204.5250  148.7110 C   0  0  0  0  0  2  0  0  0  0  0  0
  161.2420  203.1520  148.1520 C   0  0  0  0  0  2  0  0  0  0  0  0
  161.5960  200.8790  148.8270 O   0  0  0  0  0  1  0  0  0  0  0  0
  160.8120  202.0090  149.0680 C   0  0  0  0  0  0  0  0  0  0  0  0
  159.4680  201.6980  148.8620 O   0  0  0  0  0  1  0  0  0  0  0  0
  161.0000  202.4400  150.5080 C   0  0  0  0  0  1  0  0  0  0  0  0
  1  6  1  0  0  0  0
  2 11  1  0  0  0  0
  2 12  2  0  0  0  0
  3 10  1  0  0  0  0
  4  8  1  0  0  0  0
  5  1  1  0  0  0  0
  7  4  1  0  0  0  0
  7  9  1  1  0  0  0
  8  1  2  0  0  0  0
  9  5  2  0  0  0  0
 10 11  2  0  0  0  0
 11  7  1  0  0  0  0
 12 15  1  0  0  0  0
 13  2  1  0  0  0  0
 14 13  2  0  0  0  0
 14  3  1  0  0  0  0
 15  4  2  0  0  0  0
 16 17  1  1  0  0  0
 16  3  1  0  0  0  0
 16 18  1  0  0  0  0
 17 19  1  0  0  0  0
 19 21  1  6  0  0  0
 19 20  1  0  0  0  0
 20 18  1  0  0  0  0
 22 33  1  6  0  0  0
 22 21  1  0  0  0  0
 23 24  1  0  0  0  0
 24 22  1  0  0  0  0
 25 24  1  0  0  0  0
 26 24  1  0  0  0  0
 27 26  1  0  0  0  0
 28 32  1  0  0  0  0
 29 31  1  0  0  0  0
 30 29  1  0  0  0  0
 30 28  1  0  0  0  0
 31 27  1  0  0  0  0
 32 27  1  0  0  0  0
 34 33  2  0  0  0  0
 35 13  1  0  0  0  0
 37 36  1  0  0  0  0
 37 35  1  0  0  0  0
 37 38  1  0  0  0  0
 39 38  1  0  0  0  0
 39 41  1  0  0  0  0
 40 41  1  0  0  0  0
 41 43  1  0  0  0  0
 42 41  1  0  0  0  0
M  END
>  <MODEL>
8

>  <REMARK>
 VINA RESULT:      -6.1      2.231      5.866
  Name = 
  12 active torsions:
  status: ('A' for Active; 'I' for Inactive)
    1  A    between atoms: C_1  and  C_34
    2  A    between atoms: C_1  and  N_35
    3  A    between atoms: C_2  and  N_13
    4  A    between atoms: C_3  and  C_4
    5  A    between atoms: C_3  and  C_12
    6  A    between atoms: C_4  and  C_15
    7  A    between atoms: C_4  and  C_22
    8  A    between atoms: C_11  and  C_14
    9  A    between atoms: C_14  and  C_22
   10  A    between atoms: C_19  and  C_39
   11  A    between atoms: C_28  and  N_35
   12  A    between atoms: C_28  and  C_39
                            x       y       z     vdW  Elec       q    Type
                         _______ _______ _______ _____ _____    ______ ____

>  <TORSDO>
F 12

$$$$
=
 OpenBabel11062410133D

 43 47  0  0  1  0  0  0  0  0999 V2000
  157.2050  212.4170  155.9590 C   0  0  0  0  0  0  0  0  0  0  0  0
  159.7270  213.2030  151.5730 C   0  0  0  0  0  0  0  0  0  0  0  0
  161.2320  210.9170  150.9890 N   0  0  0  0  0  0  0  0  0  0  0  0
  158.3000  213.4480  154.0550 C   0  0  0  0  0  0  0  0  0  0  0  0
  157.7560  211.1110  155.5310 C   0  0  0  0  0  3  0  0  0  0  0  0
  156.3920  212.4840  157.0810 O   0  0  0  0  0  1  0  0  0  0  0  0
  159.2550  212.2790  153.9430 C   0  0  1  0  0  3  0  0  0  0  0  0
  157.4370  213.5230  155.2420 C   0  0  0  0  0  3  0  0  0  0  0  0
  158.6700  211.0290  154.5550 C   0  0  0  0  0  3  0  0  0  0  0  0
  160.5730  211.0260  152.2650 C   0  0  0  0  0  3  0  0  0  0  0  0
  159.8260  212.0960  152.5580 C   0  0  0  0  0  0  0  0  0  0  0  0
  158.9960  214.2870  151.8590 C   0  0  0  0  0  3  0  0  0  0  0  0
  160.4370  213.0790  150.2780 C   0  0  0  0  0  0  0  0  0  0  0  0
  161.1380  211.9710  150.0210 C   0  0  0  0  0  3  0  0  0  0  0  0
  158.2310  214.3940  153.1150 C   0  0  0  0  0  3  0  0  0  0  0  0
  161.9640  209.7110  150.6240 C   0  0  1  0  0  3  0  0  0  0  0  0
  161.3850  208.4780  151.3030 C   0  0  0  0  0  2  0  0  0  0  0  0
  161.9570  209.4640  148.8270 S   0  0  0  0  0  0  0  0  0  0  0  0
  161.4150  207.3120  150.3300 C   0  0  1  0  0  3  0  0  0  0  0  0
  162.2480  207.7050  149.1250 C   0  0  0  0  0  2  0  0  0  0  0  0
  162.0010  206.0870  151.0180 C   0  0  0  0  0  2  0  0  0  0  0  0
  160.9190  205.0600  151.3720 C   0  0  1  0  0  3  0  0  0  0  0  0
  161.7170  202.6900  151.5180 C   0  0  0  0  0  1  0  0  0  0  0  0
  161.0840  203.7300  150.6010 C   0  0  0  0  0  0  0  0  0  0  0  0
  159.7030  203.2130  150.2090 C   0  0  0  0  0  1  0  0  0  0  0  0
  161.9550  203.9350  149.3480 C   0  0  0  0  0  2  0  0  0  0  0  0
  161.2010  203.7650  148.0340 C   0  0  0  0  0  3  0  0  0  0  0  0
  160.8240  202.2470  146.1000 C   0  0  0  0  0  2  0  0  0  0  0  0
  161.0870  204.4420  145.6410 C   0  0  0  0  0  2  0  0  0  0  0  0
  161.4870  203.1520  145.2490 O   0  0  0  0  0  0  0  0  0  0  0  0
  161.6900  204.7830  147.0040 C   0  0  0  0  0  2  0  0  0  0  0  0
  161.4030  202.3440  147.5110 C   0  0  0  0  0  2  0  0  0  0  0  0
  160.8030  204.8870  152.8650 C   0  0  0  0  0  3  0  0  0  0  0  0
  161.2490  205.7230  153.6360 O   0  0  0  0  0  0  0  0  0  0  0  0
  160.3190  214.1230  149.2140 C   0  0  0  0  0  2  0  0  0  0  0  0
  158.3040  213.1880  148.8340 O   0  0  0  0  0  1  0  0  0  0  0  0
  159.3830  213.6870  148.1890 N   0  0  0  0  0  0  0  0  0  0  0  0
  160.0010  212.5760  147.4800 C   0  0  0  0  0  2  0  0  0  0  0  0
  161.0270  213.0950  146.4780 C   0  0  0  0  0  2  0  0  0  0  0  0
  159.8010  214.2050  144.7420 O   0  0  0  0  0  1  0  0  0  0  0  0
  160.5240  213.0480  145.0380 C   0  0  0  0  0  0  0  0  0  0  0  0
  159.7130  211.9290  144.8420 O   0  0  0  0  0  1  0  0  0  0  0  0
  161.7140  212.9600  144.1070 C   0  0  0  0  0  1  0  0  0  0  0  0
  1  6  1  0  0  0  0
  2 12  2  0  0  0  0
  2 11  1  0  0  0  0
  3 10  1  0  0  0  0
  4  8  1  0  0  0  0
  5  1  1  0  0  0  0
  7  4  1  0  0  0  0
  7  9  1  6  0  0  0
  8  1  2  0  0  0  0
  9  5  2  0  0  0  0
 10 11  2  0  0  0  0
 11  7  1  0  0  0  0
 12 15  1  0  0  0  0
 13  2  1  0  0  0  0
 14 13  2  0  0  0  0
 14  3  1  0  0  0  0
 15  4  2  0  0  0  0
 16  3  1  6  0  0  0
 16 17  1  0  0  0  0
 18 20  1  0  0  0  0
 18 16  1  0  0  0  0
 19 21  1  1  0  0  0
 19 17  1  0  0  0  0
 20 19  1  0  0  0  0
 22 21  1  1  0  0  0
 22 33  1  0  0  0  0
 24 22  1  0  0  0  0
 24 23  1  0  0  0  0
 25 24  1  0  0  0  0
 26 24  1  0  0  0  0
 27 26  1  0  0  0  0
 28 32  1  0  0  0  0
 29 31  1  0  0  0  0
 30 29  1  0  0  0  0
 30 28  1  0  0  0  0
 31 27  1  0  0  0  0
 32 27  1  0  0  0  0
 33 34  2  0  0  0  0
 35 13  1  0  0  0  0
 37 36  1  0  0  0  0
 37 35  1  0  0  0  0
 38 37  1  0  0  0  0
 39 38  1  0  0  0  0
 40 41  1  0  0  0  0
 41 39  1  0  0  0  0
 42 41  1  0  0  0  0
 43 41  1  0  0  0  0
M  END
>  <MODEL>
9

>  <REMARK>
 VINA RESULT:      -6.0      2.457      9.217
  Name = 
  12 active torsions:
  status: ('A' for Active; 'I' for Inactive)
    1  A    between atoms: C_1  and  C_34
    2  A    between atoms: C_1  and  N_35
    3  A    between atoms: C_2  and  N_13
    4  A    between atoms: C_3  and  C_4
    5  A    between atoms: C_3  and  C_12
    6  A    between atoms: C_4  and  C_15
    7  A    between atoms: C_4  and  C_22
    8  A    between atoms: C_11  and  C_14
    9  A    between atoms: C_14  and  C_22
   10  A    between atoms: C_19  and  C_39
   11  A    between atoms: C_28  and  N_35
   12  A    between atoms: C_28  and  C_39
                            x       y       z     vdW  Elec       q    Type
                         _______ _______ _______ _____ _____    ______ ____

>  <TORSDO>
F 12

$$$$
