=
 OpenBabel11062407413D

 27 31  0  0  1  0  0  0  0  0999 V2000
  161.2040  206.5130  151.3130 N   0  0  0  0  0  0  0  0  0  0  0  0
  161.7220  208.4810  150.0930 C   0  0  0  0  0  0  0  0  0  0  0  0
  161.3210  209.3470  153.6630 C   0  0  0  0  0  3  0  0  0  0  0  0
  162.0320  209.3010  148.9790 N   0  0  0  0  0  0  0  0  0  0  0  0
  160.7940  207.3030  154.8780 C   0  0  0  0  0  0  0  0  0  0  0  0
  161.4900  207.0940  150.1080 C   0  0  0  0  0  0  0  0  0  0  0  0
  161.9460  210.6440  150.9050 C   0  0  1  0  0  3  0  0  0  0  0  0
  161.1440  207.2250  152.4780 C   0  0  0  0  0  0  0  0  0  0  0  0
  161.6590  209.2190  151.2430 C   0  0  0  0  0  0  0  0  0  0  0  0
  161.0300  208.6900  154.8620 C   0  0  0  0  0  3  0  0  0  0  0  0
  162.1640  210.5180  149.4160 C   0  0  0  0  0  3  0  0  0  0  0  0
  160.8530  206.5790  153.6820 C   0  0  0  0  0  3  0  0  0  0  0  0
  161.3790  208.6200  152.4710 C   0  0  0  0  0  0  0  0  0  0  0  0
  159.9920  211.3690  152.3550 C   0  0  0  0  0  3  0  0  0  0  0  0
  158.6520  213.2380  151.7120 N   0  0  0  0  0  0  0  0  0  0  0  0
  159.4000  213.4230  150.5910 C   0  0  0  0  0  3  0  0  0  0  0  0
  160.4770  212.5770  150.3190 C   0  0  0  0  0  3  0  0  0  0  0  0
  160.7780  211.5400  151.2060 C   0  0  0  0  0  0  0  0  0  0  0  0
  158.9250  212.2370  152.5920 C   0  0  0  0  0  3  0  0  0  0  0  0
  161.8840  204.6750  146.5700 C   0  0  0  0  0  3  0  0  0  0  0  0
  161.5370  206.2550  148.8840 C   0  0  0  0  0  0  0  0  0  0  0  0
  160.8400  204.9170  148.8110 C   0  0  0  0  0  2  0  0  0  0  0  0
  161.5600  203.9670  147.8530 C   0  0  0  0  0  2  0  0  0  0  0  0
  162.1710  205.9430  146.5710 N   0  0  0  0  0  0  0  0  0  0  0  0
  162.1150  206.7310  147.7710 C   0  0  0  0  0  3  0  0  0  0  0  0
  160.1300  207.2960  157.2610 C   0  0  0  0  0  1  0  0  0  0  0  0
  160.5000  206.6250  156.0640 O   0  0  0  0  0  0  0  0  0  0  0  0
  1  8  1  0  0  0  0
  2  6  1  0  0  0  0
  2  9  2  0  0  0  0
  3 10  1  0  0  0  0
  4 11  2  0  0  0  0
  4  2  1  0  0  0  0
  5 27  1  0  0  0  0
  6  1  2  0  0  0  0
  7 18  1  6  0  0  0
  7  9  1  0  0  0  0
  8 12  2  0  0  0  0
  9 13  1  0  0  0  0
 10  5  2  0  0  0  0
 11  7  1  0  0  0  0
 12  5  1  0  0  0  0
 13  8  1  0  0  0  0
 13  3  2  0  0  0  0
 14 19  1  0  0  0  0
 15 19  2  0  0  0  0
 16 15  1  0  0  0  0
 17 16  2  0  0  0  0
 17 18  1  0  0  0  0
 18 14  2  0  0  0  0
 20 24  2  0  0  0  0
 20 23  1  0  0  0  0
 21  6  1  0  0  0  0
 22 21  1  0  0  0  0
 23 22  1  0  0  0  0
 24 25  1  0  0  0  0
 25 21  2  0  0  0  0
 27 26  1  0  0  0  0
M  END
>  <MODEL>
1

>  <REMARK>
 VINA RESULT:      -8.0      0.000      0.000
  Name = 
  3 active torsions:
  status: ('A' for Active; 'I' for Inactive)
    1  A    between atoms: C_9  and  C_15
    2  A    between atoms: C_13  and  O_22
    3  A    between atoms: C_14  and  C_17
                            x       y       z     vdW  Elec       q    Type
                         _______ _______ _______ _____ _____    ______ ____

>  <TORSDO>
F 3

$$$$
=
 OpenBabel11062407413D

 27 31  0  0  1  0  0  0  0  0999 V2000
  160.1620  212.2920  151.5000 N   0  0  0  0  0  0  0  0  0  0  0  0
  160.9680  210.1480  152.1200 C   0  0  0  0  0  0  0  0  0  0  0  0
  162.3200  211.0290  148.7960 C   0  0  0  0  0  3  0  0  0  0  0  0
  161.1580  208.9870  152.9100 N   0  0  0  0  0  0  0  0  0  0  0  0
  161.4730  213.2320  148.1990 C   0  0  0  0  0  0  0  0  0  0  0  0
  160.1990  211.2850  152.4260 C   0  0  0  0  0  0  0  0  0  0  0  0
  162.3630  208.7440  150.9080 C   0  0  1  0  0  3  0  0  0  0  0  0
  160.8430  212.2290  150.3170 C   0  0  0  0  0  0  0  0  0  0  0  0
  161.6520  210.0560  150.9390 C   0  0  0  0  0  0  0  0  0  0  0  0
  162.2460  212.0960  147.8970 C   0  0  0  0  0  3  0  0  0  0  0  0
  161.9410  208.1890  152.2470 C   0  0  0  0  0  3  0  0  0  0  0  0
  160.7760  213.2910  149.4100 C   0  0  0  0  0  3  0  0  0  0  0  0
  161.6220  211.0910  150.0040 C   0  0  0  0  0  0  0  0  0  0  0  0
  162.5190  207.8600  148.5330 C   0  0  0  0  0  3  0  0  0  0  0  0
  160.9620  206.2210  147.7620 N   0  0  0  0  0  0  0  0  0  0  0  0
  160.3300  206.2150  148.9660 C   0  0  0  0  0  3  0  0  0  0  0  0
  160.7810  207.0390  149.9990 C   0  0  0  0  0  3  0  0  0  0  0  0
  161.8840  207.8700  149.7850 C   0  0  0  0  0  0  0  0  0  0  0  0
  162.0380  207.0200  147.5280 C   0  0  0  0  0  3  0  0  0  0  0  0
  157.8590  211.4690  156.0340 C   0  0  0  0  0  3  0  0  0  0  0  0
  159.4320  211.4260  153.6900 C   0  0  0  0  0  0  0  0  0  0  0  0
  160.1200  211.6290  155.0180 C   0  0  0  0  0  2  0  0  0  0  0  0
  159.2940  211.0490  156.1670 C   0  0  0  0  0  2  0  0  0  0  0  0
  157.3250  211.6270  154.8590 N   0  0  0  0  0  0  0  0  0  0  0  0
  158.0920  211.4860  153.6530 C   0  0  0  0  0  3  0  0  0  0  0  0
  162.2340  214.4520  146.1860 C   0  0  0  0  0  1  0  0  0  0  0  0
  161.3830  214.3110  147.3150 O   0  0  0  0  0  0  0  0  0  0  0  0
  1  6  1  0  0  0  0
  2  6  2  0  0  0  0
  2  4  1  0  0  0  0
  3 13  1  0  0  0  0
  5 12  2  0  0  0  0
  6 21  1  0  0  0  0
  7 18  1  6  0  0  0
  7  9  1  0  0  0  0
  7 11  1  0  0  0  0
  8  1  2  0  0  0  0
  9  2  1  0  0  0  0
 10  5  1  0  0  0  0
 10  3  2  0  0  0  0
 11  4  2  0  0  0  0
 12  8  1  0  0  0  0
 13  8  1  0  0  0  0
 13  9  2  0  0  0  0
 14 18  1  0  0  0  0
 15 16  2  0  0  0  0
 16 17  1  0  0  0  0
 18 17  2  0  0  0  0
 19 15  1  0  0  0  0
 19 14  2  0  0  0  0
 20 23  1  0  0  0  0
 21 22  1  0  0  0  0
 22 23  1  0  0  0  0
 24 20  2  0  0  0  0
 25 21  2  0  0  0  0
 25 24  1  0  0  0  0
 26 27  1  0  0  0  0
 27  5  1  0  0  0  0
M  END
>  <MODEL>
2

>  <REMARK>
 VINA RESULT:      -7.6      3.027      7.630
  Name = 
  3 active torsions:
  status: ('A' for Active; 'I' for Inactive)
    1  A    between atoms: C_9  and  C_15
    2  A    between atoms: C_13  and  O_22
    3  A    between atoms: C_14  and  C_17
                            x       y       z     vdW  Elec       q    Type
                         _______ _______ _______ _____ _____    ______ ____

>  <TORSDO>
F 3

$$$$
=
 OpenBabel11062407413D

 27 31  0  0  1  0  0  0  0  0999 V2000
  161.0290  207.1470  151.9890 N   0  0  0  0  0  0  0  0  0  0  0  0
  161.6610  208.5750  150.2010 C   0  0  0  0  0  0  0  0  0  0  0  0
  161.5450  210.5400  153.3290 C   0  0  0  0  0  3  0  0  0  0  0  0
  161.9850  208.9720  148.8800 N   0  0  0  0  0  0  0  0  0  0  0  0
  160.8950  209.0400  155.1350 C   0  0  0  0  0  0  0  0  0  0  0  0
  161.3010  207.2930  150.6550 C   0  0  0  0  0  0  0  0  0  0  0  0
  162.1330  210.8450  150.2890 C   0  0  1  0  0  3  0  0  0  0  0  0
  161.1020  208.1870  152.8720 C   0  0  0  0  0  0  0  0  0  0  0  0
  161.7330  209.6350  151.0640 C   0  0  0  0  0  0  0  0  0  0  0  0
  161.2600  210.3200  154.6800 C   0  0  0  0  0  3  0  0  0  0  0  0
  162.2550  210.2420  148.9100 C   0  0  0  0  0  3  0  0  0  0  0  0
  160.8190  207.9800  154.2260 C   0  0  0  0  0  3  0  0  0  0  0  0
  161.4660  209.4780  152.4240 C   0  0  0  0  0  0  0  0  0  0  0  0
  160.8730  212.7860  149.2440 C   0  0  0  0  0  3  0  0  0  0  0  0
  159.0920  213.8370  150.4380 N   0  0  0  0  0  0  0  0  0  0  0  0
  159.2680  212.9990  151.4940 C   0  0  0  0  0  3  0  0  0  0  0  0
  160.2620  212.0200  151.4530 C   0  0  0  0  0  3  0  0  0  0  0  0
  161.0740  211.9100  150.3220 C   0  0  0  0  0  0  0  0  0  0  0  0
  159.8670  213.7510  149.3240 C   0  0  0  0  0  3  0  0  0  0  0  0
  161.2660  203.8890  148.0220 C   0  0  0  0  0  3  0  0  0  0  0  0
  161.2000  206.1160  149.7560 C   0  0  0  0  0  0  0  0  0  0  0  0
  160.4960  204.8500  150.1800 C   0  0  0  0  0  2  0  0  0  0  0  0
  161.0940  203.6240  149.4900 C   0  0  0  0  0  2  0  0  0  0  0  0
  161.5540  205.0830  147.5980 N   0  0  0  0  0  0  0  0  0  0  0  0
  161.6430  206.2040  148.4920 C   0  0  0  0  0  3  0  0  0  0  0  0
  161.0570  207.6390  157.1670 C   0  0  0  0  0  1  0  0  0  0  0  0
  160.6060  208.7980  156.4800 O   0  0  0  0  0  0  0  0  0  0  0  0
  1  8  1  0  0  0  0
  2  6  1  0  0  0  0
  2  9  2  0  0  0  0
  3 10  1  0  0  0  0
  4 11  2  0  0  0  0
  4  2  1  0  0  0  0
  5 27  1  0  0  0  0
  6  1  2  0  0  0  0
  7 18  1  6  0  0  0
  7  9  1  0  0  0  0
  8 12  2  0  0  0  0
  9 13  1  0  0  0  0
 10  5  2  0  0  0  0
 11  7  1  0  0  0  0
 12  5  1  0  0  0  0
 13  8  1  0  0  0  0
 13  3  2  0  0  0  0
 14 19  2  0  0  0  0
 14 18  1  0  0  0  0
 15 16  2  0  0  0  0
 17 16  1  0  0  0  0
 18 17  2  0  0  0  0
 19 15  1  0  0  0  0
 20 23  1  0  0  0  0
 21 22  1  0  0  0  0
 21  6  1  0  0  0  0
 23 22  1  0  0  0  0
 24 20  2  0  0  0  0
 24 25  1  0  0  0  0
 25 21  2  0  0  0  0
 27 26  1  0  0  0  0
M  END
>  <MODEL>
3

>  <REMARK>
 VINA RESULT:      -7.1      1.071      1.542
  Name = 
  3 active torsions:
  status: ('A' for Active; 'I' for Inactive)
    1  A    between atoms: C_9  and  C_15
    2  A    between atoms: C_13  and  O_22
    3  A    between atoms: C_14  and  C_17
                            x       y       z     vdW  Elec       q    Type
                         _______ _______ _______ _____ _____    ______ ____

>  <TORSDO>
F 3

$$$$
=
 OpenBabel11062407413D

 27 31  0  0  1  0  0  0  0  0999 V2000
  161.6170  207.2560  150.5540 N   0  0  0  0  0  0  0  0  0  0  0  0
  160.8380  206.8800  152.7640 C   0  0  0  0  0  0  0  0  0  0  0  0
  161.1580  210.5180  152.2030 C   0  0  0  0  0  3  0  0  0  0  0  0
  160.4140  206.1620  153.9110 N   0  0  0  0  0  0  0  0  0  0  0  0
  161.9550  210.8600  149.9270 C   0  0  0  0  0  0  0  0  0  0  0  0
  161.2460  206.3620  151.5220 C   0  0  0  0  0  0  0  0  0  0  0  0
  160.3460  208.4610  154.3910 C   0  0  1  0  0  3  0  0  0  0  0  0
  161.5950  208.6080  150.7540 C   0  0  0  0  0  0  0  0  0  0  0  0
  160.8160  208.2290  152.9940 C   0  0  0  0  0  0  0  0  0  0  0  0
  161.5420  211.3770  151.1690 C   0  0  0  0  0  3  0  0  0  0  0  0
  160.1310  207.0330  154.8320 C   0  0  0  0  0  3  0  0  0  0  0  0
  161.9780  209.4760  149.7280 C   0  0  0  0  0  3  0  0  0  0  0  0
  161.1830  209.1360  152.0000 C   0  0  0  0  0  0  0  0  0  0  0  0
  162.0240  210.3180  154.8170 C   0  0  0  0  0  3  0  0  0  0  0  0
  163.2950  210.3400  156.8380 N   0  0  0  0  0  0  0  0  0  0  0  0
  162.6960  209.1950  157.2610 C   0  0  0  0  0  3  0  0  0  0  0  0
  161.7320  208.5730  156.4640 C   0  0  0  0  0  3  0  0  0  0  0  0
  161.3910  209.1360  155.2320 C   0  0  0  0  0  0  0  0  0  0  0  0
  162.9810  210.9090  155.6440 C   0  0  0  0  0  3  0  0  0  0  0  0
  161.1960  202.1120  150.8450 C   0  0  0  0  0  3  0  0  0  0  0  0
  161.2960  204.9070  151.2310 C   0  0  0  0  0  0  0  0  0  0  0  0
  161.2010  204.3750  149.8210 C   0  0  0  0  0  2  0  0  0  0  0  0
  160.5710  202.9830  149.7930 C   0  0  0  0  0  2  0  0  0  0  0  0
  161.6010  202.6240  151.9680 N   0  0  0  0  0  0  0  0  0  0  0  0
  161.5420  204.0370  152.2220 C   0  0  0  0  0  3  0  0  0  0  0  0
  161.4300  212.2030  147.9170 C   0  0  0  0  0  1  0  0  0  0  0  0
  162.3450  211.7000  148.8800 O   0  0  0  0  0  0  0  0  0  0  0  0
  1  8  2  0  0  0  0
  1  6  1  0  0  0  0
  2  9  1  0  0  0  0
  2  4  1  0  0  0  0
  4 11  2  0  0  0  0
  5 10  1  0  0  0  0
  6  2  2  0  0  0  0
  7 11  1  0  0  0  0
  7 18  1  1  0  0  0
  8 13  1  0  0  0  0
  9  7  1  0  0  0  0
 10  3  2  0  0  0  0
 12  5  2  0  0  0  0
 12  8  1  0  0  0  0
 13  3  1  0  0  0  0
 13  9  2  0  0  0  0
 14 18  2  0  0  0  0
 14 19  1  0  0  0  0
 15 16  1  0  0  0  0
 17 16  2  0  0  0  0
 18 17  1  0  0  0  0
 19 15  2  0  0  0  0
 20 24  2  0  0  0  0
 21  6  1  0  0  0  0
 21 25  2  0  0  0  0
 22 21  1  0  0  0  0
 23 22  1  0  0  0  0
 23 20  1  0  0  0  0
 24 25  1  0  0  0  0
 26 27  1  0  0  0  0
 27  5  1  0  0  0  0
M  END
>  <MODEL>
4

>  <REMARK>
 VINA RESULT:      -7.0      2.902      5.315
  Name = 
  3 active torsions:
  status: ('A' for Active; 'I' for Inactive)
    1  A    between atoms: C_9  and  C_15
    2  A    between atoms: C_13  and  O_22
    3  A    between atoms: C_14  and  C_17
                            x       y       z     vdW  Elec       q    Type
                         _______ _______ _______ _____ _____    ______ ____

>  <TORSDO>
F 3

$$$$
=
 OpenBabel11062407413D

 27 31  0  0  1  0  0  0  0  0999 V2000
  160.7890  210.2790  152.6730 N   0  0  0  0  0  0  0  0  0  0  0  0
  161.7300  208.1320  152.3050 C   0  0  0  0  0  0  0  0  0  0  0  0
  162.1840  210.1830  149.2640 C   0  0  0  0  0  3  0  0  0  0  0  0
  162.1180  206.7960  152.5770 N   0  0  0  0  0  0  0  0  0  0  0  0
  161.2080  212.3740  149.6840 C   0  0  0  0  0  0  0  0  0  0  0  0
  161.0630  209.0290  153.1580 C   0  0  0  0  0  0  0  0  0  0  0  0
  162.7700  207.3410  150.3870 C   0  0  1  0  0  3  0  0  0  0  0  0
  161.1440  210.6730  151.4130 C   0  0  0  0  0  0  0  0  0  0  0  0
  162.0880  208.4980  151.0360 C   0  0  0  0  0  0  0  0  0  0  0  0
  161.8800  211.4770  148.8330 C   0  0  0  0  0  3  0  0  0  0  0  0
  162.7060  206.3370  151.5140 C   0  0  0  0  0  3  0  0  0  0  0  0
  160.8450  211.9650  150.9710 C   0  0  0  0  0  3  0  0  0  0  0  0
  161.8180  209.7780  150.5510 C   0  0  0  0  0  0  0  0  0  0  0  0
  160.7380  206.2880  149.2870 C   0  0  0  0  0  3  0  0  0  0  0  0
  160.6830  205.9820  146.9190 N   0  0  0  0  0  0  0  0  0  0  0  0
  161.9250  206.5230  146.7930 C   0  0  0  0  0  3  0  0  0  0  0  0
  162.6140  206.9670  147.9230 C   0  0  0  0  0  3  0  0  0  0  0  0
  162.0200  206.8500  149.1820 C   0  0  0  0  0  0  0  0  0  0  0  0
  160.0820  205.8570  148.1330 C   0  0  0  0  0  3  0  0  0  0  0  0
  160.0790  207.8740  157.1860 C   0  0  0  0  0  3  0  0  0  0  0  0
  160.6460  208.6730  154.5380 C   0  0  0  0  0  0  0  0  0  0  0  0
  160.2080  209.7230  155.5310 C   0  0  0  0  0  2  0  0  0  0  0  0
  160.5170  209.2940  156.9660 C   0  0  0  0  0  2  0  0  0  0  0  0
  160.1380  207.0090  156.2180 N   0  0  0  0  0  0  0  0  0  0  0  0
  160.5430  207.3830  154.8910 C   0  0  0  0  0  3  0  0  0  0  0  0
  161.2320  214.1770  147.9890 C   0  0  0  0  0  1  0  0  0  0  0  0
  160.8930  213.6730  149.2730 O   0  0  0  0  0  0  0  0  0  0  0  0
  1  6  1  0  0  0  0
  2  4  1  0  0  0  0
  2  6  2  0  0  0  0
  3 13  1  0  0  0  0
  5 12  2  0  0  0  0
  6 21  1  0  0  0  0
  7 18  1  6  0  0  0
  7  9  1  0  0  0  0
  7 11  1  0  0  0  0
  8  1  2  0  0  0  0
  9  2  1  0  0  0  0
 10  3  2  0  0  0  0
 10  5  1  0  0  0  0
 11  4  2  0  0  0  0
 12  8  1  0  0  0  0
 13  9  2  0  0  0  0
 13  8  1  0  0  0  0
 15 19  1  0  0  0  0
 16 15  2  0  0  0  0
 16 17  1  0  0  0  0
 17 18  2  0  0  0  0
 18 14  1  0  0  0  0
 19 14  2  0  0  0  0
 21 25  2  0  0  0  0
 21 22  1  0  0  0  0
 22 23  1  0  0  0  0
 23 20  1  0  0  0  0
 24 20  2  0  0  0  0
 25 24  1  0  0  0  0
 26 27  1  0  0  0  0
 27  5  1  0  0  0  0
M  END
>  <MODEL>
5

>  <REMARK>
 VINA RESULT:      -6.8      2.529      6.953
  Name = 
  3 active torsions:
  status: ('A' for Active; 'I' for Inactive)
    1  A    between atoms: C_9  and  C_15
    2  A    between atoms: C_13  and  O_22
    3  A    between atoms: C_14  and  C_17
                            x       y       z     vdW  Elec       q    Type
                         _______ _______ _______ _____ _____    ______ ____

>  <TORSDO>
F 3

$$$$
=
 OpenBabel11062407413D

 27 31  0  0  1  0  0  0  0  0999 V2000
  160.8740  210.5090  152.3620 N   0  0  0  0  0  0  0  0  0  0  0  0
  161.3300  208.3620  153.2640 C   0  0  0  0  0  0  0  0  0  0  0  0
  162.4400  208.4500  149.7400 C   0  0  0  0  0  3  0  0  0  0  0  0
  161.3880  207.3160  154.2190 N   0  0  0  0  0  0  0  0  0  0  0  0
  161.9570  210.6660  148.8550 C   0  0  0  0  0  0  0  0  0  0  0  0
  160.8260  209.6630  153.4370 C   0  0  0  0  0  0  0  0  0  0  0  0
  162.2930  206.5420  152.1940 C   0  0  1  0  0  3  0  0  0  0  0  0
  161.3940  210.1360  151.1550 C   0  0  0  0  0  0  0  0  0  0  0  0
  161.8470  207.9600  152.0630 C   0  0  0  0  0  0  0  0  0  0  0  0
  162.4650  209.3660  148.6850 C   0  0  0  0  0  3  0  0  0  0  0  0
  161.9280  206.2870  153.6370 C   0  0  0  0  0  3  0  0  0  0  0  0
  161.4240  211.0430  150.0920 C   0  0  0  0  0  3  0  0  0  0  0  0
  161.9060  208.8300  150.9750 C   0  0  0  0  0  0  0  0  0  0  0  0
  161.2150  205.9980  149.9610 C   0  0  0  0  0  3  0  0  0  0  0  0
  160.1540  203.8850  149.6260 N   0  0  0  0  0  0  0  0  0  0  0  0
  160.4540  203.5030  150.8970 C   0  0  0  0  0  3  0  0  0  0  0  0
  161.1510  204.3680  151.7430 C   0  0  0  0  0  3  0  0  0  0  0  0
  161.5350  205.6270  151.2750 C   0  0  0  0  0  0  0  0  0  0  0  0
  160.5180  205.1040  149.1460 C   0  0  0  0  0  3  0  0  0  0  0  0
  158.9480  210.8880  157.1110 C   0  0  0  0  0  3  0  0  0  0  0  0
  160.2460  210.1410  154.7180 C   0  0  0  0  0  0  0  0  0  0  0  0
  161.0320  210.1080  156.0070 C   0  0  0  0  0  2  0  0  0  0  0  0
  160.1100  209.9430  157.2160 C   0  0  0  0  0  2  0  0  0  0  0  0
  158.4540  211.1990  155.9500 N   0  0  0  0  0  0  0  0  0  0  0  0
  159.0370  210.7230  154.7260 C   0  0  0  0  0  3  0  0  0  0  0  0
  162.9840  212.5850  147.6790 C   0  0  0  0  0  1  0  0  0  0  0  0
  161.9710  211.5980  147.8140 O   0  0  0  0  0  0  0  0  0  0  0  0
  1  6  1  0  0  0  0
  2  6  2  0  0  0  0
  2  4  1  0  0  0  0
  3 13  1  0  0  0  0
  5 12  2  0  0  0  0
  6 21  1  0  0  0  0
  7 18  1  6  0  0  0
  7 11  1  0  0  0  0
  8  1  2  0  0  0  0
  9  7  1  0  0  0  0
  9  2  1  0  0  0  0
 10  5  1  0  0  0  0
 10  3  2  0  0  0  0
 11  4  2  0  0  0  0
 12  8  1  0  0  0  0
 13  8  1  0  0  0  0
 13  9  2  0  0  0  0
 14 18  1  0  0  0  0
 15 16  2  0  0  0  0
 16 17  1  0  0  0  0
 18 17  2  0  0  0  0
 19 15  1  0  0  0  0
 19 14  2  0  0  0  0
 20 23  1  0  0  0  0
 21 25  2  0  0  0  0
 21 22  1  0  0  0  0
 22 23  1  0  0  0  0
 24 20  2  0  0  0  0
 25 24  1  0  0  0  0
 26 27  1  0  0  0  0
 27  5  1  0  0  0  0
M  END
>  <MODEL>
6

>  <REMARK>
 VINA RESULT:      -6.8      2.869      7.520
  Name = 
  3 active torsions:
  status: ('A' for Active; 'I' for Inactive)
    1  A    between atoms: C_9  and  C_15
    2  A    between atoms: C_13  and  O_22
    3  A    between atoms: C_14  and  C_17
                            x       y       z     vdW  Elec       q    Type
                         _______ _______ _______ _____ _____    ______ ____

>  <TORSDO>
F 3

$$$$
=
 OpenBabel11062407413D

 27 31  0  0  1  0  0  0  0  0999 V2000
  159.5280  211.8370  152.6950 N   0  0  0  0  0  0  0  0  0  0  0  0
  160.1150  209.9860  154.0600 C   0  0  0  0  0  0  0  0  0  0  0  0
  162.1350  209.8910  150.9660 C   0  0  0  0  0  3  0  0  0  0  0  0
  160.1010  209.1100  155.1740 N   0  0  0  0  0  0  0  0  0  0  0  0
  161.5050  211.8040  149.5990 C   0  0  0  0  0  0  0  0  0  0  0  0
  159.3420  211.1440  153.8610 C   0  0  0  0  0  0  0  0  0  0  0  0
  161.6710  208.3230  153.6140 C   0  0  1  0  0  3  0  0  0  0  0  0
  160.4290  211.4480  151.7440 C   0  0  0  0  0  0  0  0  0  0  0  0
  161.0170  209.5690  153.1190 C   0  0  0  0  0  0  0  0  0  0  0  0
  162.2810  210.6480  149.8010 C   0  0  0  0  0  3  0  0  0  0  0  0
  160.9700  208.1720  154.9430 C   0  0  0  0  0  3  0  0  0  0  0  0
  160.5830  212.1980  150.5740 C   0  0  0  0  0  3  0  0  0  0  0  0
  161.2120  210.2860  151.9380 C   0  0  0  0  0  0  0  0  0  0  0  0
  161.0720  207.3120  151.3640 C   0  0  0  0  0  3  0  0  0  0  0  0
  160.9130  204.9410  151.1210 N   0  0  0  0  0  0  0  0  0  0  0  0
  161.2230  204.7590  152.4330 C   0  0  0  0  0  3  0  0  0  0  0  0
  161.4700  205.8600  153.2550 C   0  0  0  0  0  3  0  0  0  0  0  0
  161.3940  207.1490  152.7200 C   0  0  0  0  0  0  0  0  0  0  0  0
  160.8340  206.1840  150.5750 C   0  0  0  0  0  3  0  0  0  0  0  0
  156.3370  212.3170  156.7110 C   0  0  0  0  0  3  0  0  0  0  0  0
  158.3440  211.6290  154.8480 C   0  0  0  0  0  0  0  0  0  0  0  0
  158.7610  212.2260  156.1700 C   0  0  0  0  0  2  0  0  0  0  0  0
  157.7010  211.9870  157.2460 C   0  0  0  0  0  2  0  0  0  0  0  0
  156.0550  212.1140  155.4590 N   0  0  0  0  0  0  0  0  0  0  0  0
  157.0420  211.6460  154.5250 C   0  0  0  0  0  3  0  0  0  0  0  0
  162.8920  212.8940  147.8640 C   0  0  0  0  0  1  0  0  0  0  0  0
  161.6330  212.5770  148.4400 O   0  0  0  0  0  0  0  0  0  0  0  0
  1  6  1  0  0  0  0
  2  4  1  0  0  0  0
  3 13  1  0  0  0  0
  5 10  1  0  0  0  0
  5 12  2  0  0  0  0
  6  2  2  0  0  0  0
  6 21  1  0  0  0  0
  7 18  1  6  0  0  0
  7 11  1  0  0  0  0
  8 13  1  0  0  0  0
  8  1  2  0  0  0  0
  9  7  1  0  0  0  0
  9  2  1  0  0  0  0
 10  3  2  0  0  0  0
 11  4  2  0  0  0  0
 12  8  1  0  0  0  0
 13  9  2  0  0  0  0
 14 18  1  0  0  0  0
 15 16  2  0  0  0  0
 16 17  1  0  0  0  0
 18 17  2  0  0  0  0
 19 15  1  0  0  0  0
 19 14  2  0  0  0  0
 20 23  1  0  0  0  0
 21 22  1  0  0  0  0
 22 23  1  0  0  0  0
 24 20  2  0  0  0  0
 25 21  2  0  0  0  0
 25 24  1  0  0  0  0
 26 27  1  0  0  0  0
 27  5  1  0  0  0  0
M  END
>  <MODEL>
7

>  <REMARK>
 VINA RESULT:      -6.4      3.035      7.818
  Name = 
  3 active torsions:
  status: ('A' for Active; 'I' for Inactive)
    1  A    between atoms: C_9  and  C_15
    2  A    between atoms: C_13  and  O_22
    3  A    between atoms: C_14  and  C_17
                            x       y       z     vdW  Elec       q    Type
                         _______ _______ _______ _____ _____    ______ ____

>  <TORSDO>
F 3

$$$$
=
 OpenBabel11062407413D

 27 31  0  0  1  0  0  0  0  0999 V2000
  161.5090  208.4280  148.8200 N   0  0  0  0  0  0  0  0  0  0  0  0
  162.1360  209.6740  150.7400 C   0  0  0  0  0  0  0  0  0  0  0  0
  161.6090  206.1470  151.7100 C   0  0  0  0  0  3  0  0  0  0  0  0
  162.5170  210.7930  151.5220 N   0  0  0  0  0  0  0  0  0  0  0  0
  160.9710  204.9060  149.7150 C   0  0  0  0  0  0  0  0  0  0  0  0
  161.8630  209.6350  149.3610 C   0  0  0  0  0  0  0  0  0  0  0  0
  162.3880  208.9080  152.9160 C   0  0  1  0  0  3  0  0  0  0  0  0
  161.4210  207.2860  149.5640 C   0  0  0  0  0  0  0  0  0  0  0  0
  162.0450  208.5460  151.5100 C   0  0  0  0  0  0  0  0  0  0  0  0
  161.2480  204.9460  151.0930 C   0  0  0  0  0  3  0  0  0  0  0  0
  162.6660  210.3820  152.7450 C   0  0  0  0  0  3  0  0  0  0  0  0
  161.0600  206.0790  148.9570 C   0  0  0  0  0  3  0  0  0  0  0  0
  161.6960  207.3170  150.9510 C   0  0  0  0  0  0  0  0  0  0  0  0
  161.0360  207.4480  154.4940 C   0  0  0  0  0  3  0  0  0  0  0  0
  159.1020  208.3320  155.5810 N   0  0  0  0  0  0  0  0  0  0  0  0
  159.2750  209.5350  154.9690 C   0  0  0  0  0  3  0  0  0  0  0  0
  160.3460  209.7290  154.0950 C   0  0  0  0  0  3  0  0  0  0  0  0
  161.2350  208.6800  153.8520 C   0  0  0  0  0  0  0  0  0  0  0  0
  159.9540  207.2950  155.3630 C   0  0  0  0  0  3  0  0  0  0  0  0
  161.8910  213.2160  146.9740 C   0  0  0  0  0  3  0  0  0  0  0  0
  161.9380  210.8340  148.4890 C   0  0  0  0  0  0  0  0  0  0  0  0
  163.2370  211.5670  148.2550 C   0  0  0  0  0  2  0  0  0  0  0  0
  162.9960  213.0510  147.9780 C   0  0  0  0  0  2  0  0  0  0  0  0
  160.9010  212.3760  146.9410 N   0  0  0  0  0  0  0  0  0  0  0  0
  160.8560  211.2220  147.7960 C   0  0  0  0  0  3  0  0  0  0  0  0
  161.3080  203.2020  147.9540 C   0  0  0  0  0  1  0  0  0  0  0  0
  160.6070  203.7170  149.0770 O   0  0  0  0  0  0  0  0  0  0  0  0
  1  6  2  0  0  0  0
  1  8  1  0  0  0  0
  2  9  2  0  0  0  0
  2  4  1  0  0  0  0
  4 11  2  0  0  0  0
  5 10  2  0  0  0  0
  6  2  1  0  0  0  0
  7 18  1  1  0  0  0
  8 13  1  0  0  0  0
  9  7  1  0  0  0  0
 10  3  1  0  0  0  0
 11  7  1  0  0  0  0
 12  8  2  0  0  0  0
 12  5  1  0  0  0  0
 13  9  1  0  0  0  0
 13  3  2  0  0  0  0
 14 19  1  0  0  0  0
 16 15  1  0  0  0  0
 17 16  2  0  0  0  0
 18 17  1  0  0  0  0
 18 14  2  0  0  0  0
 19 15  2  0  0  0  0
 20 23  1  0  0  0  0
 21  6  1  0  0  0  0
 22 21  1  0  0  0  0
 23 22  1  0  0  0  0
 24 20  2  0  0  0  0
 24 25  1  0  0  0  0
 25 21  2  0  0  0  0
 26 27  1  0  0  0  0
 27  5  1  0  0  0  0
M  END
>  <MODEL>
8

>  <REMARK>
 VINA RESULT:      -6.3      2.509      5.372
  Name = 
  3 active torsions:
  status: ('A' for Active; 'I' for Inactive)
    1  A    between atoms: C_9  and  C_15
    2  A    between atoms: C_13  and  O_22
    3  A    between atoms: C_14  and  C_17
                            x       y       z     vdW  Elec       q    Type
                         _______ _______ _______ _____ _____    ______ ____

>  <TORSDO>
F 3

$$$$
=
 OpenBabel11062407413D

 27 31  0  0  1  0  0  0  0  0999 V2000
  160.5810  210.9240  151.6480 N   0  0  0  0  0  0  0  0  0  0  0  0
  159.5250  212.7240  152.7750 C   0  0  0  0  0  0  0  0  0  0  0  0
  159.9600  209.9140  155.1360 C   0  0  0  0  0  3  0  0  0  0  0  0
  158.9530  214.0070  152.9710 N   0  0  0  0  0  0  0  0  0  0  0  0
  161.0480  208.0920  153.9410 C   0  0  0  0  0  0  0  0  0  0  0  0
  160.0870  212.1990  151.5990 C   0  0  0  0  0  0  0  0  0  0  0  0
  158.8230  212.8060  154.9860 C   0  0  1  0  0  3  0  0  0  0  0  0
  160.5500  210.1660  152.7840 C   0  0  0  0  0  0  0  0  0  0  0  0
  159.4720  211.9830  153.9250 C   0  0  0  0  0  0  0  0  0  0  0  0
  160.4890  208.6200  155.1190 C   0  0  0  0  0  3  0  0  0  0  0  0
  158.5570  214.0720  154.2070 C   0  0  0  0  0  3  0  0  0  0  0  0
  161.0750  208.8700  152.7790 C   0  0  0  0  0  3  0  0  0  0  0  0
  159.9890  210.6890  153.9720 C   0  0  0  0  0  0  0  0  0  0  0  0
  156.7540  211.3750  154.6440 C   0  0  0  0  0  3  0  0  0  0  0  0
  155.2010  211.0690  156.4330 N   0  0  0  0  0  0  0  0  0  0  0  0
  155.9490  211.8560  157.2520 C   0  0  0  0  0  3  0  0  0  0  0  0
  157.1330  212.4300  156.7850 C   0  0  0  0  0  3  0  0  0  0  0  0
  157.5420  212.1900  155.4710 C   0  0  0  0  0  0  0  0  0  0  0  0
  155.5780  210.8190  155.1500 C   0  0  0  0  0  3  0  0  0  0  0  0
  160.2940  214.1830  147.7850 C   0  0  0  0  0  3  0  0  0  0  0  0
  160.1560  212.9610  150.3260 C   0  0  0  0  0  0  0  0  0  0  0  0
  159.1340  214.0150  149.9750 C   0  0  0  0  0  2  0  0  0  0  0  0
  158.9550  214.1330  148.4610 C   0  0  0  0  0  2  0  0  0  0  0  0
  161.3040  213.5280  148.2740 N   0  0  0  0  0  0  0  0  0  0  0  0
  161.2080  212.8000  149.5090 C   0  0  0  0  0  3  0  0  0  0  0  0
  161.5920  206.0100  152.7210 C   0  0  0  0  0  1  0  0  0  0  0  0
  161.5810  206.8000  153.9010 O   0  0  0  0  0  0  0  0  0  0  0  0
  1  8  1  0  0  0  0
  2  4  1  0  0  0  0
  2  9  2  0  0  0  0
  4 11  2  0  0  0  0
  5 10  2  0  0  0  0
  6  1  2  0  0  0  0
  6  2  1  0  0  0  0
  7 18  1  6  0  0  0
  8 13  1  0  0  0  0
  9 13  1  0  0  0  0
  9  7  1  0  0  0  0
 10  3  1  0  0  0  0
 11  7  1  0  0  0  0
 12  8  2  0  0  0  0
 12  5  1  0  0  0  0
 13  3  2  0  0  0  0
 14 19  2  0  0  0  0
 14 18  1  0  0  0  0
 15 16  2  0  0  0  0
 17 16  1  0  0  0  0
 18 17  2  0  0  0  0
 19 15  1  0  0  0  0
 20 24  2  0  0  0  0
 20 23  1  0  0  0  0
 21  6  1  0  0  0  0
 22 21  1  0  0  0  0
 23 22  1  0  0  0  0
 24 25  1  0  0  0  0
 25 21  2  0  0  0  0
 26 27  1  0  0  0  0
 27  5  1  0  0  0  0
M  END
>  <MODEL>
9

>  <REMARK>
 VINA RESULT:      -6.2      3.136      5.917
  Name = 
  3 active torsions:
  status: ('A' for Active; 'I' for Inactive)
    1  A    between atoms: C_9  and  C_15
    2  A    between atoms: C_13  and  O_22
    3  A    between atoms: C_14  and  C_17
                            x       y       z     vdW  Elec       q    Type
                         _______ _______ _______ _____ _____    ______ ____

>  <TORSDO>
F 3

$$$$
