=
 OpenBabel11062408263D

 32 37  0  0  1  0  0  0  0  0999 V2000
  161.6890  204.7370  150.2050 C   0  0  0  0  0  0  0  0  0  0  0  0
  162.2580  206.9250  150.8910 N   0  0  0  0  0  0  0  0  0  0  0  0
  161.1140  203.4320  150.6010 C   0  0  0  0  0  3  0  0  0  0  0  0
  162.0530  205.5750  151.1750 C   0  0  0  0  0  0  0  0  0  0  0  0
  162.0500  207.6520  152.0750 C   0  0  0  0  0  0  0  0  0  0  0  0
  161.9200  211.0620  148.3810 C   0  0  0  0  0  3  0  0  0  0  0  0
  162.0450  207.4880  149.6060 C   0  0  0  0  0  0  0  0  0  0  0  0
  161.8720  211.0500  150.7610 C   0  0  0  0  0  3  0  0  0  0  0  0
  161.9390  209.6570  150.7810 C   0  0  0  0  0  0  0  0  0  0  0  0
  161.9020  205.3160  152.6400 C   0  0  2  0  0  3  0  0  0  0  0  0
  161.8850  208.9440  152.0410 N   0  0  0  0  0  0  0  0  0  0  0  0
  160.7170  204.3600  152.8790 C   0  0  0  0  0  2  0  0  0  0  0  0
  161.7730  206.6560  148.5880 C   0  0  0  0  0  3  0  0  0  0  0  0
  161.6780  205.2270  148.8350 N   0  0  0  0  0  0  0  0  0  0  0  0
  161.9930  208.9580  149.5470 C   0  0  0  0  0  0  0  0  0  0  0  0
  161.7790  206.7540  153.2540 C   0  0  2  0  0  3  0  0  0  0  0  0
  160.7030  203.2350  151.8650 C   0  0  0  0  0  3  0  0  0  0  0  0
  161.8700  211.7170  149.5740 N   0  0  0  0  0  0  0  0  0  0  0  0
  161.9800  209.6670  148.3440 C   0  0  0  0  0  3  0  0  0  0  0  0
  160.9330  203.9660  145.3730 C   0  0  0  0  0  0  0  0  0  0  0  0
  160.7200  204.4300  144.1170 F   0  0  0  0  0  0  0  0  0  0  0  0
  161.4070  204.3510  147.7310 C   0  0  0  0  0  0  0  0  0  0  0  0
  160.8900  202.5900  145.6080 C   0  0  0  0  0  3  0  0  0  0  0  0
  161.3500  202.9680  147.9510 C   0  0  0  0  0  3  0  0  0  0  0  0
  161.1840  204.8550  146.4300 C   0  0  0  0  0  0  0  0  0  0  0  0
  161.1660  206.3260  146.1660 C   0  0  0  0  0  1  0  0  0  0  0  0
  161.0890  202.0910  146.8960 C   0  0  0  0  0  0  0  0  0  0  0  0
  161.4540  200.3550  148.4500 O   0  0  0  0  0  1  0  0  0  0  0  0
  161.0610  200.6230  147.1380 C   0  0  0  0  0  2  0  0  0  0  0  0
  160.4370  207.0050  153.7650 N   0  0  0  0  0  2  0  0  0  0  0  0
  160.5860  207.7110  155.0260 C   0  0  0  0  0  2  0  0  0  0  0  0
  159.6760  207.0880  156.0620 C   0  0  0  0  0  1  0  0  0  0  0  0
  1  3  1  0  0  0  0
  1  4  2  0  0  0  0
  2  4  1  0  0  0  0
  2  5  1  0  0  0  0
  3 17  2  0  0  0  0
  4 10  1  0  0  0  0
  5 16  1  0  0  0  0
  6 18  1  0  0  0  0
  7  2  1  0  0  0  0
  8  9  1  0  0  0  0
  9 11  1  0  0  0  0
 10 12  1  6  0  0  0
 10 16  1  0  0  0  0
 11  5  2  0  0  0  0
 13 14  1  0  0  0  0
 13  7  2  0  0  0  0
 14  1  1  0  0  0  0
 15  7  1  0  0  0  0
 15  9  2  0  0  0  0
 16 30  1  6  0  0  0
 17 12  1  0  0  0  0
 18  8  2  0  0  0  0
 19  6  2  0  0  0  0
 19 15  1  0  0  0  0
 20 23  2  0  0  0  0
 20 25  1  0  0  0  0
 21 20  1  0  0  0  0
 22 24  1  0  0  0  0
 22 14  1  0  0  0  0
 23 27  1  0  0  0  0
 25 22  2  0  0  0  0
 26 25  1  0  0  0  0
 27 29  1  0  0  0  0
 27 24  2  0  0  0  0
 29 28  1  0  0  0  0
 30 31  1  0  0  0  0
 31 32  1  0  0  0  0
M  END
>  <MODEL>
1

>  <REMARK>
 VINA RESULT:      -9.5      0.000      0.000
  Name = 
  4 active torsions:
  status: ('A' for Active; 'I' for Inactive)
    1  A    between atoms: C_13  and  N_18
    2  A    between atoms: C_15  and  C_26
    3  A    between atoms: C_16  and  N_27
    4  A    between atoms: N_18  and  C_29
                            x       y       z     vdW  Elec       q    Type
                         _______ _______ _______ _____ _____    ______ ____

>  <TORSDO>
F 4

$$$$
=
 OpenBabel11062408263D

 32 37  0  0  1  0  0  0  0  0999 V2000
  161.9490  208.8340  150.1860 C   0  0  0  0  0  0  0  0  0  0  0  0
  161.9580  207.7840  152.3020 N   0  0  0  0  0  0  0  0  0  0  0  0
  161.8280  208.6560  148.7220 C   0  0  0  0  0  3  0  0  0  0  0  0
  162.1850  207.7530  150.9270 C   0  0  0  0  0  0  0  0  0  0  0  0
  161.7130  206.4690  152.7290 C   0  0  0  0  0  0  0  0  0  0  0  0
  160.1230  209.4060  156.4890 C   0  0  0  0  0  3  0  0  0  0  0  0
  161.4230  208.9130  152.9730 C   0  0  0  0  0  0  0  0  0  0  0  0
  160.4000  207.0780  156.0770 C   0  0  0  0  0  3  0  0  0  0  0  0
  160.8630  207.3350  154.7870 C   0  0  0  0  0  0  0  0  0  0  0  0
  162.3130  206.3590  150.4010 C   0  0  2  0  0  3  0  0  0  0  0  0
  161.1840  206.2370  153.8980 N   0  0  0  0  0  0  0  0  0  0  0  0
  161.4930  206.2160  149.1040 C   0  0  0  0  0  2  0  0  0  0  0  0
  161.2650  210.0490  152.2750 C   0  0  0  0  0  3  0  0  0  0  0  0
  161.6140  210.0770  150.8650 N   0  0  0  0  0  0  0  0  0  0  0  0
  160.9470  208.6810  154.3470 C   0  0  0  0  0  0  0  0  0  0  0  0
  161.8700  205.4690  151.6130 C   0  0  2  0  0  3  0  0  0  0  0  0
  161.6630  207.4260  148.2070 C   0  0  0  0  0  3  0  0  0  0  0  0
  160.0490  208.1080  156.8950 N   0  0  0  0  0  0  0  0  0  0  0  0
  160.5720  209.7180  155.2030 C   0  0  0  0  0  3  0  0  0  0  0  0
  160.4240  213.4890  149.8270 C   0  0  0  0  0  0  0  0  0  0  0  0
  159.5520  214.4530  150.2150 F   0  0  0  0  0  0  0  0  0  0  0  0
  161.4570  211.3060  150.1380 C   0  0  0  0  0  0  0  0  0  0  0  0
  161.2000  213.6930  148.6840 C   0  0  0  0  0  3  0  0  0  0  0  0
  162.2220  211.5220  148.9830 C   0  0  0  0  0  3  0  0  0  0  0  0
  160.5410  212.2960  150.5570 C   0  0  0  0  0  0  0  0  0  0  0  0
  159.6580  212.0760  151.7420 C   0  0  0  0  0  1  0  0  0  0  0  0
  162.0910  212.7070  148.2560 C   0  0  0  0  0  0  0  0  0  0  0  0
  162.1130  213.0600  145.9250 O   0  0  0  0  0  1  0  0  0  0  0  0
  162.9300  212.9350  147.0490 C   0  0  0  0  0  2  0  0  0  0  0  0
  160.5940  204.8130  151.3580 N   0  0  0  0  0  2  0  0  0  0  0  0
  160.8140  203.3840  151.4930 C   0  0  0  0  0  2  0  0  0  0  0  0
  160.7470  202.7320  150.1290 C   0  0  0  0  0  1  0  0  0  0  0  0
  1 14  1  0  0  0  0
  1  4  2  0  0  0  0
  2  5  1  0  0  0  0
  2  7  1  0  0  0  0
  3  1  1  0  0  0  0
  4  2  1  0  0  0  0
  5 11  2  0  0  0  0
  6 18  1  0  0  0  0
  7 15  1  0  0  0  0
  8 18  2  0  0  0  0
  9  8  1  0  0  0  0
 10 12  1  6  0  0  0
 10  4  1  0  0  0  0
 10 16  1  0  0  0  0
 11  9  1  0  0  0  0
 13  7  2  0  0  0  0
 14 13  1  0  0  0  0
 15  9  2  0  0  0  0
 15 19  1  0  0  0  0
 16 30  1  6  0  0  0
 16  5  1  0  0  0  0
 17  3  2  0  0  0  0
 17 12  1  0  0  0  0
 19  6  2  0  0  0  0
 20 21  1  0  0  0  0
 20 25  1  0  0  0  0
 22 25  2  0  0  0  0
 22 14  1  0  0  0  0
 23 20  2  0  0  0  0
 24 22  1  0  0  0  0
 25 26  1  0  0  0  0
 27 23  1  0  0  0  0
 27 24  2  0  0  0  0
 28 29  1  0  0  0  0
 29 27  1  0  0  0  0
 30 31  1  0  0  0  0
 32 31  1  0  0  0  0
M  END
>  <MODEL>
2

>  <REMARK>
 VINA RESULT:      -8.3      3.669      7.218
  Name = 
  4 active torsions:
  status: ('A' for Active; 'I' for Inactive)
    1  A    between atoms: C_13  and  N_18
    2  A    between atoms: C_15  and  C_26
    3  A    between atoms: C_16  and  N_27
    4  A    between atoms: N_18  and  C_29
                            x       y       z     vdW  Elec       q    Type
                         _______ _______ _______ _____ _____    ______ ____

>  <TORSDO>
F 4

$$$$
=
 OpenBabel11062408263D

 32 37  0  0  1  0  0  0  0  0999 V2000
  161.7020  206.8240  151.4080 C   0  0  0  0  0  0  0  0  0  0  0  0
  162.0210  209.1590  151.2480 N   0  0  0  0  0  0  0  0  0  0  0  0
  161.2560  205.6950  152.2550 C   0  0  0  0  0  3  0  0  0  0  0  0
  161.9500  207.9890  152.0030 C   0  0  0  0  0  0  0  0  0  0  0  0
  161.7060  210.2370  152.0910 C   0  0  0  0  0  0  0  0  0  0  0  0
  161.3210  212.0490  147.4160 C   0  0  0  0  0  3  0  0  0  0  0  0
  161.7850  209.1930  149.8500 C   0  0  0  0  0  0  0  0  0  0  0  0
  161.2100  212.8920  149.6400 C   0  0  0  0  0  3  0  0  0  0  0  0
  161.4210  211.6160  150.1610 C   0  0  0  0  0  0  0  0  0  0  0  0
  161.7880  208.2620  153.4650 C   0  0  2  0  0  3  0  0  0  0  0  0
  161.4080  211.4040  151.5940 N   0  0  0  0  0  0  0  0  0  0  0  0
  160.7030  207.3360  154.0490 C   0  0  0  0  0  2  0  0  0  0  0  0
  161.6290  208.0270  149.2050 C   0  0  0  0  0  3  0  0  0  0  0  0
  161.6770  206.7820  149.9530 N   0  0  0  0  0  0  0  0  0  0  0  0
  161.5810  210.5290  149.2630 C   0  0  0  0  0  0  0  0  0  0  0  0
  161.4990  209.8020  153.5190 C   0  0  2  0  0  3  0  0  0  0  0  0
  160.8330  205.9250  153.5100 C   0  0  0  0  0  3  0  0  0  0  0  0
  161.1700  213.0810  148.2920 N   0  0  0  0  0  0  0  0  0  0  0  0
  161.5270  210.7500  147.8860 C   0  0  0  0  0  3  0  0  0  0  0  0
  161.6760  204.2120  147.2100 C   0  0  0  0  0  0  0  0  0  0  0  0
  161.9580  204.0960  145.8880 F   0  0  0  0  0  0  0  0  0  0  0  0
  161.5280  205.5430  149.2440 C   0  0  0  0  0  0  0  0  0  0  0  0
  161.2280  203.0910  147.9110 C   0  0  0  0  0  3  0  0  0  0  0  0
  161.0690  204.4100  149.9310 C   0  0  0  0  0  3  0  0  0  0  0  0
  161.8230  205.4440  147.8660 C   0  0  0  0  0  0  0  0  0  0  0  0
  162.2470  206.6430  147.0810 C   0  0  0  0  0  1  0  0  0  0  0  0
  160.9160  203.1910  149.2680 C   0  0  0  0  0  0  0  0  0  0  0  0
  160.1850  200.9530  149.1240 O   0  0  0  0  0  1  0  0  0  0  0  0
  160.4560  201.9900  150.0170 C   0  0  0  0  0  2  0  0  0  0  0  0
  160.1250  210.0760  153.9220 N   0  0  0  0  0  2  0  0  0  0  0  0
  160.1860  210.9230  155.1000 C   0  0  0  0  0  2  0  0  0  0  0  0
  159.5620  210.1990  156.2730 C   0  0  0  0  0  1  0  0  0  0  0  0
  1  4  2  0  0  0  0
  1  3  1  0  0  0  0
  2  4  1  0  0  0  0
  2  5  1  0  0  0  0
  3 17  2  0  0  0  0
  4 10  1  0  0  0  0
  5 16  1  0  0  0  0
  6 19  2  0  0  0  0
  6 18  1  0  0  0  0
  7  2  1  0  0  0  0
  8  9  1  0  0  0  0
  9 11  1  0  0  0  0
 10 16  1  0  0  0  0
 10 12  1  6  0  0  0
 11  5  2  0  0  0  0
 13  7  2  0  0  0  0
 13 14  1  0  0  0  0
 14  1  1  0  0  0  0
 15  7  1  0  0  0  0
 15  9  2  0  0  0  0
 16 30  1  6  0  0  0
 17 12  1  0  0  0  0
 18  8  2  0  0  0  0
 19 15  1  0  0  0  0
 20 25  2  0  0  0  0
 20 23  1  0  0  0  0
 21 20  1  0  0  0  0
 22 24  2  0  0  0  0
 22 14  1  0  0  0  0
 23 27  2  0  0  0  0
 25 22  1  0  0  0  0
 26 25  1  0  0  0  0
 27 24  1  0  0  0  0
 27 29  1  0  0  0  0
 28 29  1  0  0  0  0
 30 31  1  0  0  0  0
 31 32  1  0  0  0  0
M  END
>  <MODEL>
3

>  <REMARK>
 VINA RESULT:      -7.7      1.606      2.408
  Name = 
  4 active torsions:
  status: ('A' for Active; 'I' for Inactive)
    1  A    between atoms: C_13  and  N_18
    2  A    between atoms: C_15  and  C_26
    3  A    between atoms: C_16  and  N_27
    4  A    between atoms: N_18  and  C_29
                            x       y       z     vdW  Elec       q    Type
                         _______ _______ _______ _____ _____    ______ ____

>  <TORSDO>
F 4

$$$$
=
 OpenBabel11062408263D

 32 37  0  0  1  0  0  0  0  0999 V2000
  161.8380  207.5710  150.2280 C   0  0  0  0  0  0  0  0  0  0  0  0
  162.0810  205.4590  149.1960 N   0  0  0  0  0  0  0  0  0  0  0  0
  161.6490  209.0250  150.0290 C   0  0  0  0  0  3  0  0  0  0  0  0
  162.2280  206.8460  149.1800 C   0  0  0  0  0  0  0  0  0  0  0  0
  161.9970  205.0190  147.8650 C   0  0  0  0  0  0  0  0  0  0  0  0
  160.3420  201.1710  150.6460 C   0  0  0  0  0  3  0  0  0  0  0  0
  161.4740  204.7580  150.2690 C   0  0  0  0  0  0  0  0  0  0  0  0
  160.8310  201.5980  148.3570 C   0  0  0  0  0  3  0  0  0  0  0  0
  161.1880  202.9140  148.6520 C   0  0  0  0  0  0  0  0  0  0  0  0
  162.4670  207.3790  147.8040 C   0  0  2  0  0  3  0  0  0  0  0  0
  161.5660  203.8210  147.5880 N   0  0  0  0  0  0  0  0  0  0  0  0
  161.5900  208.6250  147.5700 C   0  0  0  0  0  2  0  0  0  0  0  0
  161.1590  205.4450  151.3780 C   0  0  0  0  0  3  0  0  0  0  0  0
  161.4190  206.8730  151.4340 N   0  0  0  0  0  0  0  0  0  0  0  0
  161.1070  203.3580  149.9970 C   0  0  0  0  0  0  0  0  0  0  0  0
  162.1900  206.1430  146.8800 C   0  0  2  0  0  3  0  0  0  0  0  0
  161.5810  209.5300  148.7860 C   0  0  0  0  0  3  0  0  0  0  0  0
  160.4250  200.7610  149.3500 N   0  0  0  0  0  0  0  0  0  0  0  0
  160.6790  202.4800  150.9950 C   0  0  0  0  0  3  0  0  0  0  0  0
  160.7040  207.6670  155.0390 C   0  0  0  0  0  0  0  0  0  0  0  0
  160.6250  207.0550  156.2460 F   0  0  0  0  0  0  0  0  0  0  0  0
  161.0950  207.5890  152.6360 C   0  0  0  0  0  0  0  0  0  0  0  0
  160.4650  209.0400  154.9540 C   0  0  0  0  0  3  0  0  0  0  0  0
  160.8420  208.9660  152.5670 C   0  0  0  0  0  3  0  0  0  0  0  0
  161.0130  206.9310  153.8830 C   0  0  0  0  0  0  0  0  0  0  0  0
  161.2060  205.4530  153.9900 C   0  0  0  0  0  1  0  0  0  0  0  0
  160.5250  209.6880  153.7190 C   0  0  0  0  0  0  0  0  0  0  0  0
  160.4380  211.5820  152.3160 O   0  0  0  0  0  1  0  0  0  0  0  0
  160.2880  211.1550  153.6360 C   0  0  0  0  0  2  0  0  0  0  0  0
  160.9740  206.3220  146.0950 N   0  0  0  0  0  2  0  0  0  0  0  0
  161.2540  205.8280  144.7590 C   0  0  0  0  0  2  0  0  0  0  0  0
  160.4560  204.5660  144.5110 C   0  0  0  0  0  1  0  0  0  0  0  0
  1 14  1  0  0  0  0
  2  7  1  0  0  0  0
  3  1  1  0  0  0  0
  4  2  1  0  0  0  0
  4  1  2  0  0  0  0
  5  2  1  0  0  0  0
  6 19  1  0  0  0  0
  7 13  2  0  0  0  0
  8  9  2  0  0  0  0
  8 18  1  0  0  0  0
  9 15  1  0  0  0  0
 10 12  1  6  0  0  0
 10  4  1  0  0  0  0
 11  5  2  0  0  0  0
 11  9  1  0  0  0  0
 12 17  1  0  0  0  0
 13 14  1  0  0  0  0
 14 22  1  0  0  0  0
 15  7  1  0  0  0  0
 15 19  2  0  0  0  0
 16 30  1  1  0  0  0
 16 10  1  0  0  0  0
 16  5  1  0  0  0  0
 17  3  2  0  0  0  0
 18  6  2  0  0  0  0
 20 21  1  0  0  0  0
 22 25  1  0  0  0  0
 23 20  1  0  0  0  0
 24 22  2  0  0  0  0
 24 27  1  0  0  0  0
 25 26  1  0  0  0  0
 25 20  2  0  0  0  0
 27 23  2  0  0  0  0
 28 29  1  0  0  0  0
 29 27  1  0  0  0  0
 31 30  1  0  0  0  0
 32 31  1  0  0  0  0
M  END
>  <MODEL>
4

>  <REMARK>
 VINA RESULT:      -7.6      3.448      8.094
  Name = 
  4 active torsions:
  status: ('A' for Active; 'I' for Inactive)
    1  A    between atoms: C_13  and  N_18
    2  A    between atoms: C_15  and  C_26
    3  A    between atoms: C_16  and  N_27
    4  A    between atoms: N_18  and  C_29
                            x       y       z     vdW  Elec       q    Type
                         _______ _______ _______ _____ _____    ______ ____

>  <TORSDO>
F 4

$$$$
=
 OpenBabel11062408263D

 32 37  0  0  1  0  0  0  0  0999 V2000
  161.9540  209.8270  149.5640 C   0  0  0  0  0  0  0  0  0  0  0  0
  161.7870  209.6920  151.9170 N   0  0  0  0  0  0  0  0  0  0  0  0
  162.0420  209.0800  148.2890 C   0  0  0  0  0  3  0  0  0  0  0  0
  162.1930  209.1610  150.6930 C   0  0  0  0  0  0  0  0  0  0  0  0
  161.6110  208.6250  152.8130 C   0  0  0  0  0  0  0  0  0  0  0  0
  159.2780  212.5410  154.9350 C   0  0  0  0  0  3  0  0  0  0  0  0
  161.0650  210.9080  152.0320 C   0  0  0  0  0  0  0  0  0  0  0  0
  159.8230  210.2990  155.5160 C   0  0  0  0  0  3  0  0  0  0  0  0
  160.4240  210.0960  154.2740 C   0  0  0  0  0  0  0  0  0  0  0  0
  162.5180  207.7040  150.7820 C   0  0  2  0  0  3  0  0  0  0  0  0
  160.9600  208.7950  153.9280 N   0  0  0  0  0  0  0  0  0  0  0  0
  161.8900  206.9580  149.5880 C   0  0  0  0  0  2  0  0  0  0  0  0
  160.8940  211.6500  150.9270 C   0  0  0  0  0  3  0  0  0  0  0  0
  161.4200  211.1770  149.6570 N   0  0  0  0  0  0  0  0  0  0  0  0
  160.4390  211.1630  153.3390 C   0  0  0  0  0  0  0  0  0  0  0  0
  162.0050  207.3020  152.2080 C   0  0  2  0  0  3  0  0  0  0  0  0
  162.0620  207.7360  148.2990 C   0  0  0  0  0  3  0  0  0  0  0  0
  159.2740  211.5060  155.8200 N   0  0  0  0  0  0  0  0  0  0  0  0
  159.8590  212.3890  153.6740 C   0  0  0  0  0  3  0  0  0  0  0  0
  162.1380  213.2180  146.5830 C   0  0  0  0  0  0  0  0  0  0  0  0
  163.1860  213.6450  145.8350 F   0  0  0  0  0  0  0  0  0  0  0  0
  161.2450  211.9930  148.4890 C   0  0  0  0  0  0  0  0  0  0  0  0
  160.8420  213.5800  146.2090 C   0  0  0  0  0  3  0  0  0  0  0  0
  159.9510  212.3740  148.1060 C   0  0  0  0  0  3  0  0  0  0  0  0
  162.3500  212.4310  147.7260 C   0  0  0  0  0  0  0  0  0  0  0  0
  163.7490  212.1070  148.1390 C   0  0  0  0  0  1  0  0  0  0  0  0
  159.7500  213.1660  146.9740 C   0  0  0  0  0  0  0  0  0  0  0  0
  157.5160  212.4480  146.7370 O   0  0  0  0  0  1  0  0  0  0  0  0
  158.3700  213.5370  146.5620 C   0  0  0  0  0  2  0  0  0  0  0  0
  160.8400  206.4300  152.1330 N   0  0  0  0  0  2  0  0  0  0  0  0
  161.1690  205.2160  152.8600 C   0  0  0  0  0  2  0  0  0  0  0  0
  161.3500  204.0760  151.8810 C   0  0  0  0  0  1  0  0  0  0  0  0
  1 14  1  0  0  0  0
  1  4  2  0  0  0  0
  2  7  1  0  0  0  0
  2  5  1  0  0  0  0
  3 17  2  0  0  0  0
  3  1  1  0  0  0  0
  4 10  1  0  0  0  0
  4  2  1  0  0  0  0
  5 11  2  0  0  0  0
  6 18  1  0  0  0  0
  7 15  1  0  0  0  0
  8 18  2  0  0  0  0
  9  8  1  0  0  0  0
 10 12  1  6  0  0  0
 10 16  1  0  0  0  0
 11  9  1  0  0  0  0
 13  7  2  0  0  0  0
 14 13  1  0  0  0  0
 15 19  1  0  0  0  0
 15  9  2  0  0  0  0
 16 30  1  6  0  0  0
 16  5  1  0  0  0  0
 17 12  1  0  0  0  0
 19  6  2  0  0  0  0
 20 25  1  0  0  0  0
 21 20  1  0  0  0  0
 22 14  1  0  0  0  0
 23 20  2  0  0  0  0
 23 27  1  0  0  0  0
 24 22  1  0  0  0  0
 25 26  1  0  0  0  0
 25 22  2  0  0  0  0
 27 24  2  0  0  0  0
 29 28  1  0  0  0  0
 29 27  1  0  0  0  0
 30 31  1  0  0  0  0
 32 31  1  0  0  0  0
M  END
>  <MODEL>
5

>  <REMARK>
 VINA RESULT:      -7.5      3.892      6.869
  Name = 
  4 active torsions:
  status: ('A' for Active; 'I' for Inactive)
    1  A    between atoms: C_13  and  N_18
    2  A    between atoms: C_15  and  C_26
    3  A    between atoms: C_16  and  N_27
    4  A    between atoms: N_18  and  C_29
                            x       y       z     vdW  Elec       q    Type
                         _______ _______ _______ _____ _____    ______ ____

>  <TORSDO>
F 4

$$$$
=
 OpenBabel11062408263D

 32 37  0  0  1  0  0  0  0  0999 V2000
  161.2450  207.9930  153.1060 C   0  0  0  0  0  0  0  0  0  0  0  0
  161.0250  210.3250  153.4140 N   0  0  0  0  0  0  0  0  0  0  0  0
  161.1000  206.6500  153.7120 C   0  0  0  0  0  3  0  0  0  0  0  0
  161.2500  209.0450  153.9220 C   0  0  0  0  0  0  0  0  0  0  0  0
  160.5130  211.1180  154.4540 C   0  0  0  0  0  0  0  0  0  0  0  0
  159.5320  213.6650  150.2310 C   0  0  0  0  0  3  0  0  0  0  0  0
  160.7280  210.5750  152.0500 C   0  0  0  0  0  0  0  0  0  0  0  0
  159.3300  214.0130  152.5770 C   0  0  0  0  0  3  0  0  0  0  0  0
  159.8450  212.7420  152.8350 C   0  0  0  0  0  0  0  0  0  0  0  0
  161.0940  208.9850  155.4080 C   0  0  2  0  0  3  0  0  0  0  0  0
  159.9400  212.2600  154.1980 N   0  0  0  0  0  0  0  0  0  0  0  0
  160.2710  207.7410  155.7930 C   0  0  0  0  0  2  0  0  0  0  0  0
  160.8100  209.5510  151.1860 C   0  0  0  0  0  3  0  0  0  0  0  0
  161.1680  208.2290  151.6720 N   0  0  0  0  0  0  0  0  0  0  0  0
  160.2060  211.9160  151.7400 C   0  0  0  0  0  0  0  0  0  0  0  0
  160.4690  210.3780  155.7660 C   0  0  2  0  0  3  0  0  0  0  0  0
  160.6900  206.5290  154.9860 C   0  0  0  0  0  3  0  0  0  0  0  0
  159.1910  214.4460  151.2940 N   0  0  0  0  0  0  0  0  0  0  0  0
  160.0440  212.3820  150.4340 C   0  0  0  0  0  3  0  0  0  0  0  0
  161.8170  206.2860  148.5200 C   0  0  0  0  0  0  0  0  0  0  0  0
  162.2470  206.4740  147.2480 F   0  0  0  0  0  0  0  0  0  0  0  0
  161.2710  207.1500  150.7310 C   0  0  0  0  0  0  0  0  0  0  0  0
  161.4610  205.0010  148.9360 C   0  0  0  0  0  3  0  0  0  0  0  0
  160.9080  205.8560  151.1290 C   0  0  0  0  0  3  0  0  0  0  0  0
  161.7180  207.3690  149.4090 C   0  0  0  0  0  0  0  0  0  0  0  0
  162.0470  208.7430  148.9240 C   0  0  0  0  0  1  0  0  0  0  0  0
  160.9990  204.7860  150.2350 C   0  0  0  0  0  0  0  0  0  0  0  0
  161.3780  203.0760  151.8140 O   0  0  0  0  0  1  0  0  0  0  0  0
  160.6390  203.4130  150.6800 C   0  0  0  0  0  2  0  0  0  0  0  0
  159.0880  210.2480  156.2110 N   0  0  0  0  0  2  0  0  0  0  0  0
  158.8780  211.2410  157.2490 C   0  0  0  0  0  2  0  0  0  0  0  0
  157.5470  211.9270  157.0290 C   0  0  0  0  0  1  0  0  0  0  0  0
  1  3  1  0  0  0  0
  1  4  2  0  0  0  0
  2  4  1  0  0  0  0
  2  5  1  0  0  0  0
  3 17  2  0  0  0  0
  4 10  1  0  0  0  0
  5 16  1  0  0  0  0
  6 19  2  0  0  0  0
  6 18  1  0  0  0  0
  7  2  1  0  0  0  0
  8  9  1  0  0  0  0
  9 11  1  0  0  0  0
 10 16  1  0  0  0  0
 10 12  1  6  0  0  0
 11  5  2  0  0  0  0
 13 14  1  0  0  0  0
 13  7  2  0  0  0  0
 14  1  1  0  0  0  0
 15  7  1  0  0  0  0
 15  9  2  0  0  0  0
 16 30  1  6  0  0  0
 17 12  1  0  0  0  0
 18  8  2  0  0  0  0
 19 15  1  0  0  0  0
 20 23  2  0  0  0  0
 20 25  1  0  0  0  0
 21 20  1  0  0  0  0
 22 24  1  0  0  0  0
 22 14  1  0  0  0  0
 23 27  1  0  0  0  0
 25 22  2  0  0  0  0
 26 25  1  0  0  0  0
 27 29  1  0  0  0  0
 27 24  2  0  0  0  0
 29 28  1  0  0  0  0
 30 31  1  0  0  0  0
 32 31  1  0  0  0  0
M  END
>  <MODEL>
6

>  <REMARK>
 VINA RESULT:      -7.5      2.723      4.312
  Name = 
  4 active torsions:
  status: ('A' for Active; 'I' for Inactive)
    1  A    between atoms: C_13  and  N_18
    2  A    between atoms: C_15  and  C_26
    3  A    between atoms: C_16  and  N_27
    4  A    between atoms: N_18  and  C_29
                            x       y       z     vdW  Elec       q    Type
                         _______ _______ _______ _____ _____    ______ ____

>  <TORSDO>
F 4

$$$$
=
 OpenBabel11062408263D

 32 37  0  0  1  0  0  0  0  0999 V2000
  160.7010  211.7420  151.5130 C   0  0  0  0  0  0  0  0  0  0  0  0
  161.7200  210.1320  150.1150 N   0  0  0  0  0  0  0  0  0  0  0  0
  160.1040  213.0930  151.6060 C   0  0  0  0  0  3  0  0  0  0  0  0
  161.4340  211.4590  150.4380 C   0  0  0  0  0  0  0  0  0  0  0  0
  161.9580  210.0650  148.7330 C   0  0  0  0  0  0  0  0  0  0  0  0
  161.2000  205.3110  150.1820 C   0  0  0  0  0  3  0  0  0  0  0  0
  161.2160  209.0310  150.8540 C   0  0  0  0  0  0  0  0  0  0  0  0
  161.8430  206.4590  148.2000 C   0  0  0  0  0  3  0  0  0  0  0  0
  161.7340  207.6900  148.8460 C   0  0  0  0  0  0  0  0  0  0  0  0
  161.6840  212.3900  149.2940 C   0  0  2  0  0  3  0  0  0  0  0  0
  161.9580  208.9190  148.1130 N   0  0  0  0  0  0  0  0  0  0  0  0
  160.5070  213.3770  149.1630 C   0  0  0  0  0  2  0  0  0  0  0  0
  160.5570  209.2820  151.9960 C   0  0  0  0  0  3  0  0  0  0  0  0
  160.3560  210.6570  152.4200 N   0  0  0  0  0  0  0  0  0  0  0  0
  161.3380  207.7130  150.2090 C   0  0  0  0  0  0  0  0  0  0  0  0
  161.9290  211.4250  148.0830 C   0  0  2  0  0  3  0  0  0  0  0  0
  160.0550  213.8810  150.5180 C   0  0  0  0  0  3  0  0  0  0  0  0
  161.5820  205.3070  148.8750 N   0  0  0  0  0  0  0  0  0  0  0  0
  161.0670  206.5160  150.8750 C   0  0  0  0  0  3  0  0  0  0  0  0
  159.6500  211.2220  156.0690 C   0  0  0  0  0  0  0  0  0  0  0  0
  160.2960  211.2840  157.2590 F   0  0  0  0  0  0  0  0  0  0  0  0
  159.6660  210.9070  153.6530 C   0  0  0  0  0  0  0  0  0  0  0  0
  158.2660  211.4070  156.0340 C   0  0  0  0  0  3  0  0  0  0  0  0
  158.2750  211.0850  153.6380 C   0  0  0  0  0  3  0  0  0  0  0  0
  160.3580  210.9640  154.8840 C   0  0  0  0  0  0  0  0  0  0  0  0
  161.8280  210.7100  154.9530 C   0  0  0  0  0  1  0  0  0  0  0  0
  157.5780  211.3310  154.8220 C   0  0  0  0  0  0  0  0  0  0  0  0
  155.4470  210.3240  154.9020 O   0  0  0  0  0  1  0  0  0  0  0  0
  156.1060  211.5470  154.7870 C   0  0  0  0  0  2  0  0  0  0  0  0
  160.8370  211.4860  147.1200 N   0  0  0  0  0  2  0  0  0  0  0  0
  161.1490  212.5550  146.1880 C   0  0  0  0  0  2  0  0  0  0  0  0
  160.0090  212.7170  145.2060 C   0  0  0  0  0  1  0  0  0  0  0  0
  1  3  1  0  0  0  0
  1 14  1  0  0  0  0
  2  4  1  0  0  0  0
  2  7  1  0  0  0  0
  4  1  2  0  0  0  0
  5  2  1  0  0  0  0
  6 19  1  0  0  0  0
  7 13  2  0  0  0  0
  8  9  2  0  0  0  0
  8 18  1  0  0  0  0
  9 15  1  0  0  0  0
 10 12  1  6  0  0  0
 10  4  1  0  0  0  0
 11  5  2  0  0  0  0
 11  9  1  0  0  0  0
 12 17  1  0  0  0  0
 13 14  1  0  0  0  0
 14 22  1  0  0  0  0
 15  7  1  0  0  0  0
 15 19  2  0  0  0  0
 16 30  1  6  0  0  0
 16  5  1  0  0  0  0
 16 10  1  0  0  0  0
 17  3  2  0  0  0  0
 18  6  2  0  0  0  0
 20 21  1  0  0  0  0
 22 25  1  0  0  0  0
 23 20  1  0  0  0  0
 24 22  2  0  0  0  0
 24 27  1  0  0  0  0
 25 26  1  0  0  0  0
 25 20  2  0  0  0  0
 27 23  2  0  0  0  0
 29 27  1  0  0  0  0
 29 28  1  0  0  0  0
 31 30  1  0  0  0  0
 32 31  1  0  0  0  0
M  END
>  <MODEL>
7

>  <REMARK>
 VINA RESULT:      -7.0      4.445      8.982
  Name = 
  4 active torsions:
  status: ('A' for Active; 'I' for Inactive)
    1  A    between atoms: C_13  and  N_18
    2  A    between atoms: C_15  and  C_26
    3  A    between atoms: C_16  and  N_27
    4  A    between atoms: N_18  and  C_29
                            x       y       z     vdW  Elec       q    Type
                         _______ _______ _______ _____ _____    ______ ____

>  <TORSDO>
F 4

$$$$
=
 OpenBabel11062408263D

 32 37  0  0  1  0  0  0  0  0999 V2000
  162.0730  209.3200  151.1750 C   0  0  0  0  0  0  0  0  0  0  0  0
  162.2190  207.0740  150.4590 N   0  0  0  0  0  0  0  0  0  0  0  0
  161.9040  210.7340  150.7720 C   0  0  0  0  0  3  0  0  0  0  0  0
  162.3930  208.4380  150.2300 C   0  0  0  0  0  0  0  0  0  0  0  0
  162.0560  206.4440  149.2140 C   0  0  0  0  0  0  0  0  0  0  0  0
  160.4700  203.0960  152.6150 C   0  0  0  0  0  3  0  0  0  0  0  0
  161.6540  206.5550  151.6530 C   0  0  0  0  0  0  0  0  0  0  0  0
  160.8480  203.1670  150.2660 C   0  0  0  0  0  3  0  0  0  0  0  0
  161.2460  204.5020  150.3440 C   0  0  0  0  0  0  0  0  0  0  0  0
  162.5690  208.7550  148.7790 C   0  0  2  0  0  3  0  0  0  0  0  0
  161.5860  205.2310  149.1400 N   0  0  0  0  0  0  0  0  0  0  0  0
  161.7070  209.9770  148.4060 C   0  0  0  0  0  2  0  0  0  0  0  0
  161.4120  207.4070  152.6610 C   0  0  0  0  0  3  0  0  0  0  0  0
  161.7040  208.8210  152.4910 N   0  0  0  0  0  0  0  0  0  0  0  0
  161.2450  205.1420  151.6110 C   0  0  0  0  0  0  0  0  0  0  0  0
  162.2190  207.4040  148.0640 C   0  0  2  0  0  3  0  0  0  0  0  0
  161.7810  211.0510  149.4720 C   0  0  0  0  0  3  0  0  0  0  0  0
  160.4770  202.4980  151.3920 N   0  0  0  0  0  0  0  0  0  0  0  0
  160.8520  204.4330  152.7480 C   0  0  0  0  0  3  0  0  0  0  0  0
  160.0760  211.3580  154.7370 C   0  0  0  0  0  0  0  0  0  0  0  0
  158.9570  212.1210  154.8110 F   0  0  0  0  0  0  0  0  0  0  0  0
  161.4570  209.7140  153.5870 C   0  0  0  0  0  0  0  0  0  0  0  0
  161.0230  211.4380  155.7590 C   0  0  0  0  0  3  0  0  0  0  0  0
  162.4030  209.8140  154.6170 C   0  0  0  0  0  3  0  0  0  0  0  0
  160.2870  210.5040  153.6430 C   0  0  0  0  0  0  0  0  0  0  0  0
  159.2880  210.4800  152.5320 C   0  0  0  0  0  1  0  0  0  0  0  0
  162.1900  210.6740  155.6960 C   0  0  0  0  0  0  0  0  0  0  0  0
  164.3140  211.4500  156.3660 O   0  0  0  0  0  1  0  0  0  0  0  0
  163.1890  210.7480  156.7970 C   0  0  0  0  0  2  0  0  0  0  0  0
  160.9680  207.4990  147.3220 N   0  0  0  0  0  2  0  0  0  0  0  0
  160.8600  206.2970  146.5140 C   0  0  0  0  0  2  0  0  0  0  0  0
  162.1740  206.0450  145.8070 C   0  0  0  0  0  1  0  0  0  0  0  0
  1 14  1  0  0  0  0
  2  7  1  0  0  0  0
  3  1  1  0  0  0  0
  4  2  1  0  0  0  0
  4  1  2  0  0  0  0
  5  2  1  0  0  0  0
  6 19  1  0  0  0  0
  7 13  2  0  0  0  0
  8  9  2  0  0  0  0
  8 18  1  0  0  0  0
  9 15  1  0  0  0  0
 10 12  1  6  0  0  0
 10  4  1  0  0  0  0
 11  5  2  0  0  0  0
 11  9  1  0  0  0  0
 12 17  1  0  0  0  0
 14 13  1  0  0  0  0
 14 22  1  0  0  0  0
 15  7  1  0  0  0  0
 15 19  2  0  0  0  0
 16 30  1  1  0  0  0
 16 10  1  0  0  0  0
 16  5  1  0  0  0  0
 17  3  2  0  0  0  0
 18  6  2  0  0  0  0
 20 21  1  0  0  0  0
 20 23  1  0  0  0  0
 22 25  1  0  0  0  0
 22 24  2  0  0  0  0
 24 27  1  0  0  0  0
 25 20  2  0  0  0  0
 26 25  1  0  0  0  0
 27 23  2  0  0  0  0
 27 29  1  0  0  0  0
 28 29  1  0  0  0  0
 31 30  1  0  0  0  0
 32 31  1  0  0  0  0
M  END
>  <MODEL>
8

>  <REMARK>
 VINA RESULT:      -6.8      3.950      8.388
  Name = 
  4 active torsions:
  status: ('A' for Active; 'I' for Inactive)
    1  A    between atoms: C_13  and  N_18
    2  A    between atoms: C_15  and  C_26
    3  A    between atoms: C_16  and  N_27
    4  A    between atoms: N_18  and  C_29
                            x       y       z     vdW  Elec       q    Type
                         _______ _______ _______ _____ _____    ______ ____

>  <TORSDO>
F 4

$$$$
=
 OpenBabel11062408263D

 32 37  0  0  1  0  0  0  0  0999 V2000
  161.2480  210.2070  152.0230 C   0  0  0  0  0  0  0  0  0  0  0  0
  161.9770  208.9860  150.1370 N   0  0  0  0  0  0  0  0  0  0  0  0
  160.7440  211.5020  152.5340 C   0  0  0  0  0  3  0  0  0  0  0  0
  161.8120  210.1920  150.8170 C   0  0  0  0  0  0  0  0  0  0  0  0
  162.0230  209.2670  148.7620 C   0  0  0  0  0  0  0  0  0  0  0  0
  161.2050  204.3160  149.0780 C   0  0  0  0  0  3  0  0  0  0  0  0
  161.5180  207.7430  150.6440 C   0  0  0  0  0  0  0  0  0  0  0  0
  161.6370  205.9180  147.3720 C   0  0  0  0  0  3  0  0  0  0  0  0
  161.6850  206.9460  148.3130 C   0  0  0  0  0  0  0  0  0  0  0  0
  161.9560  211.3780  149.9170 C   0  0  2  0  0  3  0  0  0  0  0  0
  161.8750  208.3160  147.8840 N   0  0  0  0  0  0  0  0  0  0  0  0
  160.8290  212.3890  150.2070 C   0  0  0  0  0  2  0  0  0  0  0  0
  161.0340  207.7080  151.8950 C   0  0  0  0  0  3  0  0  0  0  0  0
  160.9690  208.9350  152.6720 N   0  0  0  0  0  0  0  0  0  0  0  0
  161.4780  206.6300  149.6810 C   0  0  0  0  0  0  0  0  0  0  0  0
  161.9810  210.7480  148.4820 C   0  0  2  0  0  3  0  0  0  0  0  0
  160.5920  212.5410  151.6960 C   0  0  0  0  0  3  0  0  0  0  0  0
  161.4060  204.6370  147.7700 N   0  0  0  0  0  0  0  0  0  0  0  0
  161.2350  205.3080  150.0600 C   0  0  0  0  0  3  0  0  0  0  0  0
  160.1010  207.6910  156.1120 C   0  0  0  0  0  0  0  0  0  0  0  0
  160.2160  206.5780  156.8800 F   0  0  0  0  0  0  0  0  0  0  0  0
  160.4670  208.8760  154.0160 C   0  0  0  0  0  0  0  0  0  0  0  0
  159.4750  208.8210  156.6410 C   0  0  0  0  0  3  0  0  0  0  0  0
  159.8270  209.9990  154.5590 C   0  0  0  0  0  3  0  0  0  0  0  0
  160.5940  207.7060  154.7970 C   0  0  0  0  0  0  0  0  0  0  0  0
  161.2060  206.4650  154.2330 C   0  0  0  0  0  1  0  0  0  0  0  0
  159.3300  209.9720  155.8630 C   0  0  0  0  0  0  0  0  0  0  0  0
  158.6510  212.1980  155.4820 O   0  0  0  0  0  1  0  0  0  0  0  0
  158.6790  211.1810  156.4370 C   0  0  0  0  0  2  0  0  0  0  0  0
  160.7740  211.0720  147.7330 N   0  0  0  0  0  2  0  0  0  0  0  0
  161.0900  212.2090  146.8860 C   0  0  0  0  0  2  0  0  0  0  0  0
  159.8140  212.7620  146.2880 C   0  0  0  0  0  1  0  0  0  0  0  0
  1  3  1  0  0  0  0
  1 14  1  0  0  0  0
  2  7  1  0  0  0  0
  2  4  1  0  0  0  0
  4  1  2  0  0  0  0
  5  2  1  0  0  0  0
  6 19  1  0  0  0  0
  7 13  2  0  0  0  0
  8 18  1  0  0  0  0
  8  9  2  0  0  0  0
  9 15  1  0  0  0  0
 10 12  1  6  0  0  0
 10  4  1  0  0  0  0
 11  9  1  0  0  0  0
 11  5  2  0  0  0  0
 12 17  1  0  0  0  0
 13 14  1  0  0  0  0
 14 22  1  0  0  0  0
 15 19  2  0  0  0  0
 15  7  1  0  0  0  0
 16 30  1  6  0  0  0
 16  5  1  0  0  0  0
 16 10  1  0  0  0  0
 17  3  2  0  0  0  0
 18  6  2  0  0  0  0
 20 23  1  0  0  0  0
 20 21  1  0  0  0  0
 22 24  2  0  0  0  0
 22 25  1  0  0  0  0
 24 27  1  0  0  0  0
 25 20  2  0  0  0  0
 26 25  1  0  0  0  0
 27 29  1  0  0  0  0
 27 23  2  0  0  0  0
 28 29  1  0  0  0  0
 31 30  1  0  0  0  0
 32 31  1  0  0  0  0
M  END
>  <MODEL>
9

>  <REMARK>
 VINA RESULT:      -6.7      3.846      8.288
  Name = 
  4 active torsions:
  status: ('A' for Active; 'I' for Inactive)
    1  A    between atoms: C_13  and  N_18
    2  A    between atoms: C_15  and  C_26
    3  A    between atoms: C_16  and  N_27
    4  A    between atoms: N_18  and  C_29
                            x       y       z     vdW  Elec       q    Type
                         _______ _______ _______ _____ _____    ______ ____

>  <TORSDO>
F 4

$$$$
