=
 OpenBabel11062410043D

 43 48  0  0  1  0  0  0  0  0999 V2000
  161.4460  209.3400  152.5780 C   0  0  0  0  0  2  0  0  0  0  0  0
  161.2830  209.4080  151.0590 C   0  0  1  0  0  3  0  0  0  0  0  0
  160.3940  210.2090  153.2610 C   0  0  0  0  0  2  0  0  0  0  0  0
  161.3780  210.8480  150.5610 C   0  0  0  0  0  2  0  0  0  0  0  0
  160.3540  211.7290  151.2680 C   0  0  1  0  0  3  0  0  0  0  0  0
  160.5130  211.6550  152.7890 C   0  0  0  0  0  2  0  0  0  0  0  0
  160.9080  212.9350  146.4310 C   0  0  0  0  0  0  0  0  0  0  0  0
  159.1610  214.0640  151.0970 C   0  0  1  0  0  3  0  0  0  0  0  0
  159.4740  213.4440  148.3220 C   0  0  0  0  0  0  0  0  0  0  0  0
  161.9540  212.6230  147.3020 C   0  0  0  0  0  3  0  0  0  0  0  0
  161.1010  212.8410  145.0250 N   0  0  0  0  0  1  0  0  0  0  0  0
  160.5360  213.1320  149.2040 C   0  0  0  0  0  0  0  0  0  0  0  0
  159.6760  213.3530  146.9410 C   0  0  0  0  0  3  0  0  0  0  0  0
  161.7680  212.7190  148.6830 C   0  0  0  0  0  3  0  0  0  0  0  0
  160.3520  213.1630  150.6990 C   0  0  2  0  0  3  0  0  0  0  0  0
  157.9160  213.7150  150.2950 C   0  0  0  0  0  2  0  0  0  0  0  0
  158.1650  213.9980  148.8150 C   0  0  0  0  0  2  0  0  0  0  0  0
  158.8710  214.1010  152.5910 C   0  0  0  0  0  2  0  0  0  0  0  0
  157.4860  213.5330  152.8730 C   0  0  0  0  0  2  0  0  0  0  0  0
  158.7040  212.8590  156.3280 C   0  0  0  0  0  2  0  0  0  0  0  0
  158.1440  211.4570  156.6490 C   0  0  1  0  0  3  0  0  0  0  0  0
  157.0760  211.6080  154.3550 C   0  0  0  0  0  3  0  0  0  0  0  0
  157.7600  213.6870  155.4520 C   0  0  0  0  0  2  0  0  0  0  0  0
  157.4180  212.8960  154.2240 C   0  0  0  0  0  0  0  0  0  0  0  0
  156.9980  210.9930  155.7260 C   0  0  0  0  0  2  0  0  0  0  0  0
  160.3390  211.2660  156.8560 C   0  0  0  0  0  1  0  0  0  0  0  0
  159.1800  210.5220  156.6260 O   0  0  0  0  0  0  0  0  0  0  0  0
  162.2950  208.5210  150.3450 C   0  0  0  0  0  2  0  0  0  0  0  0
  161.9030  208.2990  148.5780 S   0  0  0  0  0  0  0  0  0  0  0  0
  162.6260  206.6310  148.5710 C   0  0  0  0  0  2  0  0  0  0  0  0
  161.7650  205.6950  147.8500 N   0  0  0  0  0  0  0  0  0  0  0  0
  161.3090  204.4780  148.4840 C   0  0  0  0  0  0  0  0  0  0  0  0
  161.0080  203.4840  147.7700 O   0  0  0  0  0  0  0  0  0  0  0  0
  161.1760  204.3540  149.9560 C   0  0  0  0  0  0  0  0  0  0  0  0
  161.0310  202.9430  151.9330 C   0  0  0  0  0  3  0  0  0  0  0  0
  160.8460  205.3450  152.1540 C   0  0  0  0  0  3  0  0  0  0  0  0
  160.8650  204.0750  152.7350 C   0  0  0  0  0  3  0  0  0  0  0  0
  160.9960  205.4820  150.7710 C   0  0  0  0  0  3  0  0  0  0  0  0
  161.1830  203.0820  150.5500 C   0  0  0  0  0  3  0  0  0  0  0  0
  160.6300  205.0870  145.7140 C   0  0  0  0  0  2  0  0  0  0  0  0
  163.0590  204.9400  145.4870 C   0  0  0  0  0  1  0  0  0  0  0  0
  161.1040  206.1990  146.6370 C   0  0  2  0  0  3  0  0  0  0  0  0
  161.8670  205.8700  145.3400 C   0  0  2  0  0  3  0  0  0  0  0  0
  1  3  1  0  0  0  0
  2 28  1  6  0  0  0
  2  1  1  0  0  0  0
  4  2  1  0  0  0  0
  5  4  1  6  0  0  0
  5  6  1  0  0  0  0
  6  3  1  0  0  0  0
  7 13  2  0  0  0  0
  7 10  1  0  0  0  0
  8 18  1  1  0  0  0
  9 17  1  0  0  0  0
  9 12  2  0  0  0  0
 10 14  2  0  0  0  0
 11  7  1  0  0  0  0
 13  9  1  0  0  0  0
 14 12  1  0  0  0  0
 15 12  1  6  0  0  0
 15  8  1  0  0  0  0
 15  5  1  0  0  0  0
 16  8  1  0  0  0  0
 17 16  1  0  0  0  0
 18 19  1  0  0  0  0
 19 24  1  0  0  0  0
 20 21  1  0  0  0  0
 21 27  1  6  0  0  0
 22 25  1  0  0  0  0
 23 20  1  0  0  0  0
 24 22  2  0  0  0  0
 24 23  1  0  0  0  0
 25 21  1  0  0  0  0
 27 26  1  0  0  0  0
 29 28  1  0  0  0  0
 30 29  1  0  0  0  0
 31 32  1  0  0  0  0
 31 30  1  0  0  0  0
 32 34  1  0  0  0  0
 33 32  2  0  0  0  0
 34 39  2  0  0  0  0
 34 38  1  0  0  0  0
 35 37  2  0  0  0  0
 36 37  1  0  0  0  0
 38 36  2  0  0  0  0
 39 35  1  0  0  0  0
 40 42  1  0  0  0  0
 42 31  1  1  0  0  0
 43 41  1  1  0  0  0
 43 40  1  0  0  0  0
 43 42  1  0  0  0  0
M  END
>  <MODEL>
1

>  <REMARK>
 VINA RESULT:      -7.4      0.000      0.000
  Name = 
  11 active torsions:
  status: ('A' for Active; 'I' for Inactive)
    1  A    between atoms: C_1  and  C_34
    2  A    between atoms: C_1  and  C_35
    3  A    between atoms: C_3  and  N_4
    4  A    between atoms: C_3  and  S_12
    5  A    between atoms: N_4  and  C_22
    6  A    between atoms: C_6  and  C_17
    7  A    between atoms: C_8  and  C_34
    8  A    between atoms: C_11  and  C_14
    9  A    between atoms: S_12  and  C_17
   10  A    between atoms: C_19  and  O_37
   11  A    between atoms: C_27  and  C_30
                            x       y       z     vdW  Elec       q    Type
                         _______ _______ _______ _____ _____    ______ ____

>  <TORSDO>
F 11

$$$$
=
 OpenBabel11062410043D

 43 48  0  0  1  0  0  0  0  0999 V2000
  163.2890  211.6740  148.2710 C   0  0  0  0  0  2  0  0  0  0  0  0
  161.8720  211.2390  148.6460 C   0  0  1  0  0  3  0  0  0  0  0  0
  163.4220  213.1900  148.3850 C   0  0  0  0  0  2  0  0  0  0  0  0
  160.8330  211.9320  147.7670 C   0  0  0  0  0  2  0  0  0  0  0  0
  160.9860  213.4460  147.8480 C   0  0  1  0  0  3  0  0  0  0  0  0
  162.4080  213.8810  147.4790 C   0  0  0  0  0  2  0  0  0  0  0  0
  160.0610  212.8780  142.9520 C   0  0  0  0  0  0  0  0  0  0  0  0
  158.4480  214.0930  147.6450 C   0  0  1  0  0  3  0  0  0  0  0  0
  158.8850  212.9140  145.0740 C   0  0  0  0  0  0  0  0  0  0  0  0
  161.0620  213.6910  143.4870 C   0  0  0  0  0  3  0  0  0  0  0  0
  160.1420  212.4460  141.5990 N   0  0  0  0  0  1  0  0  0  0  0  0
  159.8970  213.7420  145.6150 C   0  0  0  0  0  0  0  0  0  0  0  0
  158.9720  212.5000  143.7420 C   0  0  0  0  0  3  0  0  0  0  0  0
  160.9820  214.1200  144.8140 C   0  0  0  0  0  3  0  0  0  0  0  0
  159.8760  214.1700  147.0590 C   0  0  2  0  0  3  0  0  0  0  0  0
  157.8090  212.7420  147.3570 C   0  0  0  0  0  2  0  0  0  0  0  0
  157.6430  212.5660  145.8490 C   0  0  0  0  0  2  0  0  0  0  0  0
  158.3510  214.4530  149.1200 C   0  0  0  0  0  2  0  0  0  0  0  0
  157.8140  213.2710  149.9170 C   0  0  0  0  0  2  0  0  0  0  0  0
  160.1740  211.7870  152.3870 C   0  0  0  0  0  2  0  0  0  0  0  0
  159.5200  212.0940  153.7520 C   0  0  1  0  0  3  0  0  0  0  0  0
  157.7530  213.2850  152.3800 C   0  0  0  0  0  3  0  0  0  0  0  0
  159.9430  212.8970  151.3580 C   0  0  0  0  0  2  0  0  0  0  0  0
  158.4710  213.1670  151.2560 C   0  0  0  0  0  0  0  0  0  0  0  0
  158.4380  213.1930  153.7160 C   0  0  0  0  0  2  0  0  0  0  0  0
  160.0940  210.1050  154.5350 C   0  0  0  0  0  1  0  0  0  0  0  0
  158.9870  210.9200  154.2890 O   0  0  0  0  0  0  0  0  0  0  0  0
  161.7130  209.7250  148.5800 C   0  0  0  0  0  2  0  0  0  0  0  0
  162.1750  208.9060  150.1420 S   0  0  0  0  0  0  0  0  0  0  0  0
  161.2490  207.4070  149.6930 C   0  0  0  0  0  2  0  0  0  0  0  0
  161.6750  206.2700  150.5070 N   0  0  0  0  0  0  0  0  0  0  0  0
  161.4980  204.9170  150.0290 C   0  0  0  0  0  0  0  0  0  0  0  0
  161.3960  203.9750  150.8620 O   0  0  0  0  0  0  0  0  0  0  0  0
  161.4360  204.5890  148.5850 C   0  0  0  0  0  0  0  0  0  0  0  0
  161.2390  202.9220  146.8220 C   0  0  0  0  0  3  0  0  0  0  0  0
  161.5480  205.2510  146.2460 C   0  0  0  0  0  3  0  0  0  0  0  0
  161.3740  203.9210  145.8550 C   0  0  0  0  0  3  0  0  0  0  0  0
  161.5830  205.5810  147.6030 C   0  0  0  0  0  3  0  0  0  0  0  0
  161.2720  203.2550  148.1800 C   0  0  0  0  0  3  0  0  0  0  0  0
  162.4910  205.5400  152.7480 C   0  0  0  0  0  2  0  0  0  0  0  0
  160.3610  206.7230  152.9350 C   0  0  0  0  0  1  0  0  0  0  0  0
  162.5910  206.5560  151.6210 C   0  0  2  0  0  3  0  0  0  0  0  0
  161.8700  206.9030  152.9360 C   0  0  2  0  0  3  0  0  0  0  0  0
  1  3  1  0  0  0  0
  1  2  1  0  0  0  0
  2 28  1  6  0  0  0
  4  5  1  0  0  0  0
  4  2  1  0  0  0  0
  5  6  1  6  0  0  0
  6  3  1  0  0  0  0
  7 10  2  0  0  0  0
  7 13  1  0  0  0  0
  8 18  1  1  0  0  0
  9 12  1  0  0  0  0
  9 17  1  0  0  0  0
 10 14  1  0  0  0  0
 11  7  1  0  0  0  0
 13  9  2  0  0  0  0
 14 12  2  0  0  0  0
 15 12  1  6  0  0  0
 15  8  1  0  0  0  0
 15  5  1  0  0  0  0
 16  8  1  0  0  0  0
 17 16  1  0  0  0  0
 18 19  1  0  0  0  0
 19 24  1  0  0  0  0
 20 21  1  0  0  0  0
 21 27  1  6  0  0  0
 22 25  1  0  0  0  0
 23 20  1  0  0  0  0
 24 23  1  0  0  0  0
 24 22  2  0  0  0  0
 25 21  1  0  0  0  0
 27 26  1  0  0  0  0
 28 29  1  0  0  0  0
 30 29  1  0  0  0  0
 30 31  1  0  0  0  0
 32 31  1  0  0  0  0
 32 33  2  0  0  0  0
 34 32  1  0  0  0  0
 35 39  2  0  0  0  0
 36 38  1  0  0  0  0
 37 36  2  0  0  0  0
 37 35  1  0  0  0  0
 38 34  2  0  0  0  0
 39 34  1  0  0  0  0
 40 43  1  0  0  0  0
 42 31  1  6  0  0  0
 42 40  1  0  0  0  0
 42 43  1  0  0  0  0
 43 41  1  6  0  0  0
M  END
>  <MODEL>
2

>  <REMARK>
 VINA RESULT:      -6.9      1.879      4.206
  Name = 
  11 active torsions:
  status: ('A' for Active; 'I' for Inactive)
    1  A    between atoms: C_1  and  C_34
    2  A    between atoms: C_1  and  C_35
    3  A    between atoms: C_3  and  N_4
    4  A    between atoms: C_3  and  S_12
    5  A    between atoms: N_4  and  C_22
    6  A    between atoms: C_6  and  C_17
    7  A    between atoms: C_8  and  C_34
    8  A    between atoms: C_11  and  C_14
    9  A    between atoms: S_12  and  C_17
   10  A    between atoms: C_19  and  O_37
   11  A    between atoms: C_27  and  C_30
                            x       y       z     vdW  Elec       q    Type
                         _______ _______ _______ _____ _____    ______ ____

>  <TORSDO>
F 11

$$$$
=
 OpenBabel11062410043D

 43 48  0  0  1  0  0  0  0  0999 V2000
  162.3730  210.5450  153.6090 C   0  0  0  0  0  2  0  0  0  0  0  0
  161.5040  209.8700  152.5470 C   0  0  1  0  0  3  0  0  0  0  0  0
  161.5330  210.8890  154.8360 C   0  0  0  0  0  2  0  0  0  0  0  0
  160.3270  210.7590  152.1540 C   0  0  0  0  0  2  0  0  0  0  0  0
  159.5060  211.1370  153.3810 C   0  0  1  0  0  3  0  0  0  0  0  0
  160.3780  211.8070  154.4480 C   0  0  0  0  0  2  0  0  0  0  0  0
  155.3820  211.6000  156.1980 C   0  0  0  0  0  0  0  0  0  0  0  0
  158.4690  213.4020  152.5470 C   0  0  1  0  0  3  0  0  0  0  0  0
  156.9210  212.9690  154.9140 C   0  0  0  0  0  0  0  0  0  0  0  0
  155.6790  210.5000  155.3900 C   0  0  0  0  0  3  0  0  0  0  0  0
  154.4460  211.4700  157.2610 N   0  0  0  0  0  1  0  0  0  0  0  0
  157.2180  211.8560  154.0930 C   0  0  0  0  0  0  0  0  0  0  0  0
  155.9950  212.8320  155.9530 C   0  0  0  0  0  3  0  0  0  0  0  0
  156.5950  210.6270  154.3420 C   0  0  0  0  0  3  0  0  0  0  0  0
  158.2470  211.9390  152.9960 C   0  0  2  0  0  3  0  0  0  0  0  0
  158.7150  214.3110  153.7420 C   0  0  0  0  0  2  0  0  0  0  0  0
  157.4720  214.3400  154.6290 C   0  0  0  0  0  2  0  0  0  0  0  0
  159.5400  213.5780  151.4800 C   0  0  0  0  0  2  0  0  0  0  0  0
  158.9320  213.4240  150.0920 C   0  0  0  0  0  2  0  0  0  0  0  0
  160.0840  213.8250  146.5740 C   0  0  0  0  0  2  0  0  0  0  0  0
  161.6120  214.0020  146.7040 C   0  0  1  0  0  3  0  0  0  0  0  0
  161.1860  213.8570  149.1980 C   0  0  0  0  0  3  0  0  0  0  0  0
  159.3150  214.4530  147.7380 C   0  0  0  0  0  2  0  0  0  0  0  0
  159.8590  213.9150  149.0280 C   0  0  0  0  0  0  0  0  0  0  0  0
  162.1000  214.3720  148.1200 C   0  0  0  0  0  2  0  0  0  0  0  0
  162.9320  213.2230  145.1070 C   0  0  0  0  0  1  0  0  0  0  0  0
  162.2570  212.8420  146.2680 O   0  0  0  0  0  0  0  0  0  0  0  0
  162.3190  209.4780  151.3210 C   0  0  0  0  0  2  0  0  0  0  0  0
  161.3720  208.4440  150.1550 S   0  0  0  0  0  0  0  0  0  0  0  0
  162.4760  207.0260  150.4310 C   0  0  0  0  0  2  0  0  0  0  0  0
  161.7250  205.8710  150.9210 N   0  0  0  0  0  0  0  0  0  0  0  0
  160.8130  205.1640  150.0500 C   0  0  0  0  0  0  0  0  0  0  0  0
  159.8460  204.5290  150.5510 O   0  0  0  0  0  0  0  0  0  0  0  0
  160.9740  205.1530  148.5760 C   0  0  0  0  0  0  0  0  0  0  0  0
  160.4620  206.1300  146.4070 C   0  0  0  0  0  3  0  0  0  0  0  0
  161.8280  204.1380  146.5360 C   0  0  0  0  0  3  0  0  0  0  0  0
  161.2060  205.1300  145.7750 C   0  0  0  0  0  3  0  0  0  0  0  0
  161.7080  204.1480  147.9280 C   0  0  0  0  0  3  0  0  0  0  0  0
  160.3450  206.1390  147.8000 C   0  0  0  0  0  3  0  0  0  0  0  0
  161.0750  204.6070  152.9700 C   0  0  0  0  0  2  0  0  0  0  0  0
  160.5660  206.9860  153.2100 C   0  0  0  0  0  1  0  0  0  0  0  0
  162.1950  205.2550  152.1710 C   0  0  2  0  0  3  0  0  0  0  0  0
  161.6350  205.9300  153.4360 C   0  0  2  0  0  3  0  0  0  0  0  0
  1  3  1  0  0  0  0
  2 28  1  6  0  0  0
  2  1  1  0  0  0  0
  4  2  1  0  0  0  0
  5  4  1  6  0  0  0
  5  6  1  0  0  0  0
  6  3  1  0  0  0  0
  7 11  1  0  0  0  0
  8 18  1  6  0  0  0
  8 15  1  0  0  0  0
  8 16  1  0  0  0  0
  9 13  2  0  0  0  0
 10  7  2  0  0  0  0
 12 14  2  0  0  0  0
 12  9  1  0  0  0  0
 13  7  1  0  0  0  0
 14 10  1  0  0  0  0
 15  5  1  0  0  0  0
 15 12  1  1  0  0  0
 16 17  1  0  0  0  0
 17  9  1  0  0  0  0
 19 18  1  0  0  0  0
 20 21  1  0  0  0  0
 20 23  1  0  0  0  0
 21 27  1  1  0  0  0
 21 25  1  0  0  0  0
 23 24  1  0  0  0  0
 24 22  2  0  0  0  0
 24 19  1  0  0  0  0
 25 22  1  0  0  0  0
 26 27  1  0  0  0  0
 29 30  1  0  0  0  0
 29 28  1  0  0  0  0
 30 31  1  0  0  0  0
 32 33  2  0  0  0  0
 32 31  1  0  0  0  0
 34 32  1  0  0  0  0
 35 39  1  0  0  0  0
 36 38  2  0  0  0  0
 37 35  2  0  0  0  0
 37 36  1  0  0  0  0
 38 34  1  0  0  0  0
 39 34  2  0  0  0  0
 40 43  1  0  0  0  0
 42 31  1  6  0  0  0
 42 40  1  0  0  0  0
 42 43  1  0  0  0  0
 43 41  1  6  0  0  0
M  END
>  <MODEL>
3

>  <REMARK>
 VINA RESULT:      -6.9      2.880      6.660
  Name = 
  11 active torsions:
  status: ('A' for Active; 'I' for Inactive)
    1  A    between atoms: C_1  and  C_34
    2  A    between atoms: C_1  and  C_35
    3  A    between atoms: C_3  and  N_4
    4  A    between atoms: C_3  and  S_12
    5  A    between atoms: N_4  and  C_22
    6  A    between atoms: C_6  and  C_17
    7  A    between atoms: C_8  and  C_34
    8  A    between atoms: C_11  and  C_14
    9  A    between atoms: S_12  and  C_17
   10  A    between atoms: C_19  and  O_37
   11  A    between atoms: C_27  and  C_30
                            x       y       z     vdW  Elec       q    Type
                         _______ _______ _______ _____ _____    ______ ____

>  <TORSDO>
F 11

$$$$
=
 OpenBabel11062410043D

 43 48  0  0  1  0  0  0  0  0999 V2000
  163.5690  211.7890  148.2740 C   0  0  0  0  0  2  0  0  0  0  0  0
  162.2020  211.5840  148.9290 C   0  0  1  0  0  3  0  0  0  0  0  0
  163.7770  213.2640  147.9390 C   0  0  0  0  0  2  0  0  0  0  0  0
  161.0790  212.0880  148.0260 C   0  0  0  0  0  2  0  0  0  0  0  0
  161.3020  213.5510  147.6580 C   0  0  1  0  0  3  0  0  0  0  0  0
  162.6730  213.7580  147.0090 C   0  0  0  0  0  2  0  0  0  0  0  0
  160.3280  212.4950  142.8530 C   0  0  0  0  0  0  0  0  0  0  0  0
  158.7160  213.9770  147.4700 C   0  0  1  0  0  3  0  0  0  0  0  0
  159.1950  212.6200  144.9960 C   0  0  0  0  0  0  0  0  0  0  0  0
  161.2710  213.4280  143.2910 C   0  0  0  0  0  3  0  0  0  0  0  0
  160.4160  211.9570  141.5400 N   0  0  0  0  0  1  0  0  0  0  0  0
  160.1480  213.5690  145.4380 C   0  0  0  0  0  0  0  0  0  0  0  0
  159.2890  212.1020  143.7010 C   0  0  0  0  0  3  0  0  0  0  0  0
  161.1830  213.9600  144.5800 C   0  0  0  0  0  3  0  0  0  0  0  0
  160.1220  214.1160  146.8420 C   0  0  2  0  0  3  0  0  0  0  0  0
  158.1820  212.5610  147.3130 C   0  0  0  0  0  2  0  0  0  0  0  0
  158.0010  212.2430  145.8300 C   0  0  0  0  0  2  0  0  0  0  0  0
  158.6200  214.4530  148.9120 C   0  0  0  0  0  2  0  0  0  0  0  0
  157.8290  213.4540  149.7460 C   0  0  0  0  0  2  0  0  0  0  0  0
  160.1230  211.9870  152.2870 C   0  0  0  0  0  2  0  0  0  0  0  0
  159.3570  212.1560  153.6160 C   0  0  1  0  0  3  0  0  0  0  0  0
  157.6010  213.3030  152.1940 C   0  0  0  0  0  3  0  0  0  0  0  0
  159.8780  213.1420  151.3120 C   0  0  0  0  0  2  0  0  0  0  0  0
  158.4000  213.3100  151.1200 C   0  0  0  0  0  0  0  0  0  0  0  0
  158.1990  213.1740  153.5680 C   0  0  0  0  0  2  0  0  0  0  0  0
  158.4300  211.1330  155.3460 C   0  0  0  0  0  1  0  0  0  0  0  0
  158.8800  210.9150  154.0430 O   0  0  0  0  0  0  0  0  0  0  0  0
  161.9760  210.1260  149.3110 C   0  0  0  0  0  2  0  0  0  0  0  0
  161.6490  209.0680  147.8620 S   0  0  0  0  0  0  0  0  0  0  0  0
  162.4560  207.6440  148.6530 C   0  0  0  0  0  2  0  0  0  0  0  0
  161.7180  206.4110  148.3790 N   0  0  0  0  0  0  0  0  0  0  0  0
  161.4360  205.4730  149.4430 C   0  0  0  0  0  0  0  0  0  0  0  0
  161.2620  204.2560  149.1630 O   0  0  0  0  0  0  0  0  0  0  0  0
  161.3410  205.8900  150.8630 C   0  0  0  0  0  0  0  0  0  0  0  0
  161.2790  205.2920  153.2210 C   0  0  0  0  0  3  0  0  0  0  0  0
  161.0350  207.6060  152.5600 C   0  0  0  0  0  3  0  0  0  0  0  0
  161.1020  206.6350  153.5620 C   0  0  0  0  0  3  0  0  0  0  0  0
  161.1500  207.2340  151.2180 C   0  0  0  0  0  3  0  0  0  0  0  0
  161.3960  204.9210  151.8780 C   0  0  0  0  0  3  0  0  0  0  0  0
  160.7040  204.9210  146.6570 C   0  0  0  0  0  2  0  0  0  0  0  0
  163.1220  205.0970  146.3480 C   0  0  0  0  0  1  0  0  0  0  0  0
  160.9800  206.3460  147.1100 C   0  0  2  0  0  3  0  0  0  0  0  0
  161.7870  205.7120  145.9620 C   0  0  2  0  0  3  0  0  0  0  0  0
  1  2  1  0  0  0  0
  2 28  1  6  0  0  0
  3  1  1  0  0  0  0
  4  2  1  0  0  0  0
  5  6  1  6  0  0  0
  5  4  1  0  0  0  0
  6  3  1  0  0  0  0
  7 10  2  0  0  0  0
  7 13  1  0  0  0  0
  8 18  1  1  0  0  0
  9 12  1  0  0  0  0
  9 17  1  0  0  0  0
 10 14  1  0  0  0  0
 11  7  1  0  0  0  0
 13  9  2  0  0  0  0
 14 12  2  0  0  0  0
 15 12  1  6  0  0  0
 15  8  1  0  0  0  0
 15  5  1  0  0  0  0
 16  8  1  0  0  0  0
 17 16  1  0  0  0  0
 18 19  1  0  0  0  0
 19 24  1  0  0  0  0
 20 21  1  0  0  0  0
 21 27  1  6  0  0  0
 22 25  1  0  0  0  0
 23 20  1  0  0  0  0
 24 23  1  0  0  0  0
 24 22  2  0  0  0  0
 25 21  1  0  0  0  0
 27 26  1  0  0  0  0
 29 30  1  0  0  0  0
 29 28  1  0  0  0  0
 31 30  1  0  0  0  0
 31 32  1  0  0  0  0
 32 34  1  0  0  0  0
 33 32  2  0  0  0  0
 34 38  2  0  0  0  0
 34 39  1  0  0  0  0
 35 37  1  0  0  0  0
 36 37  2  0  0  0  0
 38 36  1  0  0  0  0
 39 35  2  0  0  0  0
 40 42  1  0  0  0  0
 42 31  1  1  0  0  0
 43 41  1  1  0  0  0
 43 40  1  0  0  0  0
 43 42  1  0  0  0  0
M  END
>  <MODEL>
4

>  <REMARK>
 VINA RESULT:      -6.8      1.699      3.313
  Name = 
  11 active torsions:
  status: ('A' for Active; 'I' for Inactive)
    1  A    between atoms: C_1  and  C_34
    2  A    between atoms: C_1  and  C_35
    3  A    between atoms: C_3  and  N_4
    4  A    between atoms: C_3  and  S_12
    5  A    between atoms: N_4  and  C_22
    6  A    between atoms: C_6  and  C_17
    7  A    between atoms: C_8  and  C_34
    8  A    between atoms: C_11  and  C_14
    9  A    between atoms: S_12  and  C_17
   10  A    between atoms: C_19  and  O_37
   11  A    between atoms: C_27  and  C_30
                            x       y       z     vdW  Elec       q    Type
                         _______ _______ _______ _____ _____    ______ ____

>  <TORSDO>
F 11

$$$$
=
 OpenBabel11062410043D

 43 48  0  0  1  0  0  0  0  0999 V2000
  161.3980  208.2950  152.3280 C   0  0  0  0  0  2  0  0  0  0  0  0
  161.1500  208.6050  150.8510 C   0  0  1  0  0  3  0  0  0  0  0  0
  160.5330  209.1950  153.2070 C   0  0  0  0  0  2  0  0  0  0  0  0
  161.4270  210.0750  150.5430 C   0  0  0  0  0  2  0  0  0  0  0  0
  160.5930  210.9780  151.4450 C   0  0  1  0  0  3  0  0  0  0  0  0
  160.8360  210.6630  152.9240 C   0  0  0  0  0  2  0  0  0  0  0  0
  161.3990  212.7450  146.8220 C   0  0  0  0  0  0  0  0  0  0  0  0
  159.6790  213.4370  151.5820 C   0  0  1  0  0  3  0  0  0  0  0  0
  159.9870  213.1610  148.7510 C   0  0  0  0  0  0  0  0  0  0  0  0
  162.3820  212.2000  147.6520 C   0  0  0  0  0  3  0  0  0  0  0  0
  161.6150  212.8170  145.4180 N   0  0  0  0  0  1  0  0  0  0  0  0
  160.9850  212.6120  149.5920 C   0  0  0  0  0  0  0  0  0  0  0  0
  160.2120  213.2320  147.3730 C   0  0  0  0  0  3  0  0  0  0  0  0
  162.1740  212.1320  149.0310 C   0  0  0  0  0  3  0  0  0  0  0  0
  160.7690  212.4650  151.0760 C   0  0  2  0  0  3  0  0  0  0  0  0
  158.4230  213.3460  150.7290 C   0  0  0  0  0  2  0  0  0  0  0  0
  158.7390  213.7930  149.3030 C   0  0  0  0  0  2  0  0  0  0  0  0
  159.3590  213.3080  153.0640 C   0  0  0  0  0  2  0  0  0  0  0  0
  157.9240  213.7420  153.3330 C   0  0  0  0  0  2  0  0  0  0  0  0
  157.1860  210.9640  155.7010 C   0  0  0  0  0  2  0  0  0  0  0  0
  155.9820  211.4830  156.5150 C   0  0  1  0  0  3  0  0  0  0  0  0
  156.2470  213.5900  155.1310 C   0  0  0  0  0  3  0  0  0  0  0  0
  158.1620  212.0780  155.3130 C   0  0  0  0  0  2  0  0  0  0  0  0
  157.4050  213.1650  154.6110 C   0  0  0  0  0  0  0  0  0  0  0  0
  155.7520  213.0060  156.4260 C   0  0  0  0  0  2  0  0  0  0  0  0
  155.2140  210.0430  155.0210 C   0  0  0  0  0  1  0  0  0  0  0  0
  154.8260  210.8050  156.1240 O   0  0  0  0  0  0  0  0  0  0  0  0
  161.9700  207.6980  149.9410 C   0  0  0  0  0  2  0  0  0  0  0  0
  161.7100  208.0630  148.1740 S   0  0  0  0  0  0  0  0  0  0  0  0
  161.0030  206.4140  147.8820 C   0  0  0  0  0  2  0  0  0  0  0  0
  161.8330  205.6500  146.9520 N   0  0  0  0  0  0  0  0  0  0  0  0
  162.3170  204.3360  147.3100 C   0  0  0  0  0  0  0  0  0  0  0  0
  163.3740  203.9000  146.7780 O   0  0  0  0  0  0  0  0  0  0  0  0
  161.6120  203.4700  148.2860 C   0  0  0  0  0  0  0  0  0  0  0  0
  160.8030  203.0950  150.5500 C   0  0  0  0  0  3  0  0  0  0  0  0
  160.5090  201.3820  148.8690 C   0  0  0  0  0  3  0  0  0  0  0  0
  160.3350  201.8320  150.1790 C   0  0  0  0  0  3  0  0  0  0  0  0
  161.1480  202.1950  147.9290 C   0  0  0  0  0  3  0  0  0  0  0  0
  161.4410  203.9080  149.6090 C   0  0  0  0  0  3  0  0  0  0  0  0
  160.4490  206.3260  144.9910 C   0  0  0  0  0  2  0  0  0  0  0  0
  160.5090  203.8940  145.2230 C   0  0  0  0  0  1  0  0  0  0  0  0
  161.8440  206.0940  145.5510 C   0  0  2  0  0  3  0  0  0  0  0  0
  161.2040  205.0830  144.5810 C   0  0  2  0  0  3  0  0  0  0  0  0
  1  3  1  0  0  0  0
  2 28  1  6  0  0  0
  2  1  1  0  0  0  0
  4  2  1  0  0  0  0
  5  4  1  6  0  0  0
  5  6  1  0  0  0  0
  6  3  1  0  0  0  0
  7 13  2  0  0  0  0
  7 10  1  0  0  0  0
  8 18  1  1  0  0  0
  9 17  1  0  0  0  0
  9 12  2  0  0  0  0
 10 14  2  0  0  0  0
 11  7  1  0  0  0  0
 13  9  1  0  0  0  0
 14 12  1  0  0  0  0
 15 12  1  6  0  0  0
 15  5  1  0  0  0  0
 15  8  1  0  0  0  0
 16  8  1  0  0  0  0
 17 16  1  0  0  0  0
 18 19  1  0  0  0  0
 19 24  1  0  0  0  0
 20 21  1  0  0  0  0
 21 27  1  6  0  0  0
 22 25  1  0  0  0  0
 23 20  1  0  0  0  0
 24 22  2  0  0  0  0
 24 23  1  0  0  0  0
 25 21  1  0  0  0  0
 26 27  1  0  0  0  0
 29 28  1  0  0  0  0
 30 29  1  0  0  0  0
 31 32  1  0  0  0  0
 31 30  1  0  0  0  0
 32 34  1  0  0  0  0
 33 32  2  0  0  0  0
 34 39  1  0  0  0  0
 36 37  2  0  0  0  0
 37 35  1  0  0  0  0
 38 34  2  0  0  0  0
 38 36  1  0  0  0  0
 39 35  2  0  0  0  0
 40 42  1  0  0  0  0
 42 31  1  1  0  0  0
 43 40  1  0  0  0  0
 43 41  1  1  0  0  0
 43 42  1  0  0  0  0
M  END
>  <MODEL>
5

>  <REMARK>
 VINA RESULT:      -6.3      1.418      2.053
  Name = 
  11 active torsions:
  status: ('A' for Active; 'I' for Inactive)
    1  A    between atoms: C_1  and  C_34
    2  A    between atoms: C_1  and  C_35
    3  A    between atoms: C_3  and  N_4
    4  A    between atoms: C_3  and  S_12
    5  A    between atoms: N_4  and  C_22
    6  A    between atoms: C_6  and  C_17
    7  A    between atoms: C_8  and  C_34
    8  A    between atoms: C_11  and  C_14
    9  A    between atoms: S_12  and  C_17
   10  A    between atoms: C_19  and  O_37
   11  A    between atoms: C_27  and  C_30
                            x       y       z     vdW  Elec       q    Type
                         _______ _______ _______ _____ _____    ______ ____

>  <TORSDO>
F 11

$$$$
=
 OpenBabel11062410043D

 43 48  0  0  1  0  0  0  0  0999 V2000
  162.4540  209.9470  152.9370 C   0  0  0  0  0  2  0  0  0  0  0  0
  161.5380  209.5610  151.7750 C   0  0  1  0  0  3  0  0  0  0  0  0
  161.6300  210.1880  154.2000 C   0  0  0  0  0  2  0  0  0  0  0  0
  160.4840  210.6380  151.5250 C   0  0  0  0  0  2  0  0  0  0  0  0
  159.6840  210.9090  152.7940 C   0  0  1  0  0  3  0  0  0  0  0  0
  160.6010  211.2880  153.9590 C   0  0  0  0  0  2  0  0  0  0  0  0
  156.0970  212.1230  156.0830 C   0  0  0  0  0  0  0  0  0  0  0  0
  158.9430  213.3030  152.0070 C   0  0  1  0  0  3  0  0  0  0  0  0
  157.6640  213.1850  154.5640 C   0  0  0  0  0  0  0  0  0  0  0  0
  156.0970  210.9740  155.2880 C   0  0  0  0  0  3  0  0  0  0  0  0
  155.2990  212.1740  157.2590 N   0  0  0  0  0  1  0  0  0  0  0  0
  157.6610  212.0230  153.7560 C   0  0  0  0  0  0  0  0  0  0  0  0
  156.8710  213.2260  155.7150 C   0  0  0  0  0  3  0  0  0  0  0  0
  156.8780  210.9240  154.1300 C   0  0  0  0  0  3  0  0  0  0  0  0
  158.5380  211.9090  152.5370 C   0  0  2  0  0  3  0  0  0  0  0  0
  159.4910  214.1780  153.1250 C   0  0  0  0  0  2  0  0  0  0  0  0
  158.3960  214.4350  154.1580 C   0  0  0  0  0  2  0  0  0  0  0  0
  159.8800  213.2750  150.8090 C   0  0  0  0  0  2  0  0  0  0  0  0
  159.1570  213.7650  149.5610 C   0  0  0  0  0  2  0  0  0  0  0  0
  161.7760  214.0010  146.9240 C   0  0  0  0  0  2  0  0  0  0  0  0
  161.1160  213.3530  145.6890 C   0  0  1  0  0  3  0  0  0  0  0  0
  159.1530  212.9420  147.2390 C   0  0  0  0  0  3  0  0  0  0  0  0
  161.3510  213.3400  148.2380 C   0  0  0  0  0  2  0  0  0  0  0  0
  159.8530  213.3260  148.3130 C   0  0  0  0  0  0  0  0  0  0  0  0
  159.8750  212.4890  146.0000 C   0  0  0  0  0  2  0  0  0  0  0  0
  160.8330  213.7020  143.5220 C   0  0  0  0  0  1  0  0  0  0  0  0
  160.7840  214.3430  144.7620 O   0  0  0  0  0  0  0  0  0  0  0  0
  162.3310  209.2760  150.5050 C   0  0  0  0  0  2  0  0  0  0  0  0
  161.2820  208.6510  149.1520 S   0  0  0  0  0  0  0  0  0  0  0  0
  162.3480  207.1960  148.9250 C   0  0  0  0  0  2  0  0  0  0  0  0
  161.6370  206.1380  148.2090 N   0  0  0  0  0  0  0  0  0  0  0  0
  161.3020  204.8980  148.8730 C   0  0  0  0  0  0  0  0  0  0  0  0
  161.1530  203.8500  148.1870 O   0  0  0  0  0  0  0  0  0  0  0  0
  161.1210  204.8100  150.3420 C   0  0  0  0  0  0  0  0  0  0  0  0
  160.8700  205.9240  152.4910 C   0  0  0  0  0  3  0  0  0  0  0  0
  160.9580  203.5090  152.3920 C   0  0  0  0  0  3  0  0  0  0  0  0
  160.8400  204.6850  153.1360 C   0  0  0  0  0  3  0  0  0  0  0  0
  161.1020  203.5720  151.0030 C   0  0  0  0  0  3  0  0  0  0  0  0
  161.0130  205.9860  151.1020 C   0  0  0  0  0  3  0  0  0  0  0  0
  160.5270  205.3150  146.1330 C   0  0  0  0  0  2  0  0  0  0  0  0
  162.9600  205.1970  145.9310 C   0  0  0  0  0  1  0  0  0  0  0  0
  160.9730  206.5150  146.9520 C   0  0  2  0  0  3  0  0  0  0  0  0
  161.7500  206.0850  145.6940 C   0  0  2  0  0  3  0  0  0  0  0  0
  1  3  1  0  0  0  0
  2 28  1  6  0  0  0
  2  1  1  0  0  0  0
  4  2  1  0  0  0  0
  5  4  1  6  0  0  0
  5  6  1  0  0  0  0
  6  3  1  0  0  0  0
  7 11  1  0  0  0  0
  8 18  1  6  0  0  0
  8 15  1  0  0  0  0
  8 16  1  0  0  0  0
  9 13  2  0  0  0  0
 10  7  2  0  0  0  0
 12 14  2  0  0  0  0
 12  9  1  0  0  0  0
 13  7  1  0  0  0  0
 14 10  1  0  0  0  0
 15  5  1  0  0  0  0
 15 12  1  1  0  0  0
 16 17  1  0  0  0  0
 17  9  1  0  0  0  0
 19 18  1  0  0  0  0
 20 23  1  0  0  0  0
 21 27  1  6  0  0  0
 21 25  1  0  0  0  0
 21 20  1  0  0  0  0
 22 24  2  0  0  0  0
 23 24  1  0  0  0  0
 24 19  1  0  0  0  0
 25 22  1  0  0  0  0
 26 27  1  0  0  0  0
 29 28  1  0  0  0  0
 30 29  1  0  0  0  0
 31 32  1  0  0  0  0
 31 30  1  0  0  0  0
 32 34  1  0  0  0  0
 33 32  2  0  0  0  0
 34 38  2  0  0  0  0
 34 39  1  0  0  0  0
 35 37  1  0  0  0  0
 36 37  2  0  0  0  0
 38 36  1  0  0  0  0
 39 35  2  0  0  0  0
 40 42  1  0  0  0  0
 42 31  1  1  0  0  0
 43 41  1  1  0  0  0
 43 40  1  0  0  0  0
 43 42  1  0  0  0  0
M  END
>  <MODEL>
6

>  <REMARK>
 VINA RESULT:      -6.0      2.833      6.035
  Name = 
  11 active torsions:
  status: ('A' for Active; 'I' for Inactive)
    1  A    between atoms: C_1  and  C_34
    2  A    between atoms: C_1  and  C_35
    3  A    between atoms: C_3  and  N_4
    4  A    between atoms: C_3  and  S_12
    5  A    between atoms: N_4  and  C_22
    6  A    between atoms: C_6  and  C_17
    7  A    between atoms: C_8  and  C_34
    8  A    between atoms: C_11  and  C_14
    9  A    between atoms: S_12  and  C_17
   10  A    between atoms: C_19  and  O_37
   11  A    between atoms: C_27  and  C_30
                            x       y       z     vdW  Elec       q    Type
                         _______ _______ _______ _____ _____    ______ ____

>  <TORSDO>
F 11

$$$$
=
 OpenBabel11062410043D

 43 48  0  0  1  0  0  0  0  0999 V2000
  160.0420  208.2770  154.2110 C   0  0  0  0  0  2  0  0  0  0  0  0
  160.6920  209.2680  153.2440 C   0  0  1  0  0  3  0  0  0  0  0  0
  160.9820  207.1030  154.4740 C   0  0  0  0  0  2  0  0  0  0  0  0
  161.0720  208.5860  151.9320 C   0  0  0  0  0  2  0  0  0  0  0  0
  161.9810  207.3900  152.1920 C   0  0  1  0  0  3  0  0  0  0  0  0
  161.3320  206.4010  153.1650 C   0  0  0  0  0  2  0  0  0  0  0  0
  160.8830  202.7560  150.6200 C   0  0  0  0  0  0  0  0  0  0  0  0
  162.2380  207.5710  149.5840 C   0  0  1  0  0  3  0  0  0  0  0  0
  160.9260  205.0370  149.7950 C   0  0  0  0  0  0  0  0  0  0  0  0
  161.8730  203.0690  151.5540 C   0  0  0  0  0  3  0  0  0  0  0  0
  160.3570  201.4360  150.5570 N   0  0  0  0  0  1  0  0  0  0  0  0
  161.9320  205.3540  150.7390 C   0  0  0  0  0  0  0  0  0  0  0  0
  160.4200  203.7350  149.7380 C   0  0  0  0  0  3  0  0  0  0  0  0
  162.3940  204.3640  151.6140 C   0  0  0  0  0  3  0  0  0  0  0  0
  162.4710  206.7540  150.8750 C   0  0  2  0  0  3  0  0  0  0  0  0
  160.7910  207.4720  149.1250 C   0  0  0  0  0  2  0  0  0  0  0  0
  160.4690  206.0250  148.7560 C   0  0  0  0  0  2  0  0  0  0  0  0
  162.7010  209.0190  149.6620 C   0  0  0  0  0  2  0  0  0  0  0  0
  162.3110  209.7660  148.3930 C   0  0  0  0  0  2  0  0  0  0  0  0
  160.6310  212.9140  149.4630 C   0  0  0  0  0  2  0  0  0  0  0  0
  161.3220  214.0060  148.6180 C   0  0  1  0  0  3  0  0  0  0  0  0
  162.7320  212.0990  147.7230 C   0  0  0  0  0  3  0  0  0  0  0  0
  161.5830  211.7830  149.8600 C   0  0  0  0  0  2  0  0  0  0  0  0
  162.2380  211.2420  148.6250 C   0  0  0  0  0  0  0  0  0  0  0  0
  162.6620  213.5790  147.9850 C   0  0  0  0  0  2  0  0  0  0  0  0
  159.3710  213.5650  147.6710 C   0  0  0  0  0  1  0  0  0  0  0  0
  160.4480  214.4520  147.6250 O   0  0  0  0  0  0  0  0  0  0  0  0
  159.7950  210.4730  152.9880 C   0  0  0  0  0  2  0  0  0  0  0  0
  158.9910  211.0790  154.5080 S   0  0  0  0  0  0  0  0  0  0  0  0
  158.1590  212.4160  153.5990 C   0  0  0  0  0  2  0  0  0  0  0  0
  156.9150  212.8000  154.2630 N   0  0  0  0  0  0  0  0  0  0  0  0
  156.0340  213.7790  153.6650 C   0  0  0  0  0  0  0  0  0  0  0  0
  155.2670  214.4530  154.4040 O   0  0  0  0  0  0  0  0  0  0  0  0
  155.9960  214.0200  152.2020 C   0  0  0  0  0  0  0  0  0  0  0  0
  154.7080  214.2300  150.1480 C   0  0  0  0  0  3  0  0  0  0  0  0
  157.1200  214.3940  150.0770 C   0  0  0  0  0  3  0  0  0  0  0  0
  155.8870  214.4130  149.4220 C   0  0  0  0  0  3  0  0  0  0  0  0
  157.1740  214.1940  151.4590 C   0  0  0  0  0  3  0  0  0  0  0  0
  154.7630  214.0310  151.5310 C   0  0  0  0  0  3  0  0  0  0  0  0
  155.5280  212.6250  156.3280 C   0  0  0  0  0  2  0  0  0  0  0  0
  157.7070  213.6160  156.8190 C   0  0  0  0  0  1  0  0  0  0  0  0
  156.4310  211.9150  155.3330 C   0  0  2  0  0  3  0  0  0  0  0  0
  156.9470  212.3030  156.7310 C   0  0  2  0  0  3  0  0  0  0  0  0
  1  3  1  0  0  0  0
  2 28  1  6  0  0  0
  2  1  1  0  0  0  0
  4  2  1  0  0  0  0
  5  4  1  6  0  0  0
  5  6  1  0  0  0  0
  6  3  1  0  0  0  0
  7 10  1  0  0  0  0
  8 18  1  1  0  0  0
  8 15  1  0  0  0  0
  9 12  2  0  0  0  0
 10 14  2  0  0  0  0
 11  7  1  0  0  0  0
 12 14  1  0  0  0  0
 13  9  1  0  0  0  0
 13  7  2  0  0  0  0
 15 12  1  6  0  0  0
 15  5  1  0  0  0  0
 16  8  1  0  0  0  0
 17 16  1  0  0  0  0
 17  9  1  0  0  0  0
 19 24  1  0  0  0  0
 19 18  1  0  0  0  0
 20 23  1  0  0  0  0
 21 27  1  6  0  0  0
 21 20  1  0  0  0  0
 22 25  1  0  0  0  0
 22 24  2  0  0  0  0
 24 23  1  0  0  0  0
 25 21  1  0  0  0  0
 27 26  1  0  0  0  0
 28 29  1  0  0  0  0
 30 31  1  0  0  0  0
 30 29  1  0  0  0  0
 32 31  1  0  0  0  0
 32 33  2  0  0  0  0
 34 32  1  0  0  0  0
 35 39  2  0  0  0  0
 36 38  1  0  0  0  0
 37 36  2  0  0  0  0
 37 35  1  0  0  0  0
 38 34  2  0  0  0  0
 39 34  1  0  0  0  0
 40 43  1  0  0  0  0
 42 31  1  6  0  0  0
 42 40  1  0  0  0  0
 42 43  1  0  0  0  0
 43 41  1  6  0  0  0
M  END
>  <MODEL>
7

>  <REMARK>
 VINA RESULT:      -6.0      3.255      9.478
  Name = 
  11 active torsions:
  status: ('A' for Active; 'I' for Inactive)
    1  A    between atoms: C_1  and  C_34
    2  A    between atoms: C_1  and  C_35
    3  A    between atoms: C_3  and  N_4
    4  A    between atoms: C_3  and  S_12
    5  A    between atoms: N_4  and  C_22
    6  A    between atoms: C_6  and  C_17
    7  A    between atoms: C_8  and  C_34
    8  A    between atoms: C_11  and  C_14
    9  A    between atoms: S_12  and  C_17
   10  A    between atoms: C_19  and  O_37
   11  A    between atoms: C_27  and  C_30
                            x       y       z     vdW  Elec       q    Type
                         _______ _______ _______ _____ _____    ______ ____

>  <TORSDO>
F 11

$$$$
=
 OpenBabel11062410043D

 43 48  0  0  1  0  0  0  0  0999 V2000
  161.3900  210.4940  153.4190 C   0  0  0  0  0  2  0  0  0  0  0  0
  161.1080  210.2780  151.9310 C   0  0  1  0  0  3  0  0  0  0  0  0
  160.2370  211.2540  154.0690 C   0  0  0  0  0  2  0  0  0  0  0  0
  160.8770  211.6070  151.2170 C   0  0  0  0  0  2  0  0  0  0  0  0
  159.7510  212.3870  151.8860 C   0  0  1  0  0  3  0  0  0  0  0  0
  160.0300  212.5980  153.3760 C   0  0  0  0  0  2  0  0  0  0  0  0
  160.2720  213.0260  146.9390 C   0  0  0  0  0  0  0  0  0  0  0  0
  158.0210  214.2890  151.3470 C   0  0  1  0  0  3  0  0  0  0  0  0
  158.6460  213.4000  148.7000 C   0  0  0  0  0  0  0  0  0  0  0  0
  161.3090  213.1160  147.8700 C   0  0  0  0  0  3  0  0  0  0  0  0
  160.5670  212.7950  145.5660 N   0  0  0  0  0  1  0  0  0  0  0  0
  159.6970  213.4960  149.6430 C   0  0  0  0  0  0  0  0  0  0  0  0
  158.9470  213.1780  147.3530 C   0  0  0  0  0  3  0  0  0  0  0  0
  161.0230  213.3480  149.2170 C   0  0  0  0  0  3  0  0  0  0  0  0
  159.4220  213.6810  151.1130 C   0  0  2  0  0  3  0  0  0  0  0  0
  156.9540  213.5260  150.5760 C   0  0  0  0  0  2  0  0  0  0  0  0
  157.2120  213.6590  149.0770 C   0  0  0  0  0  2  0  0  0  0  0  0
  157.6420  214.4530  152.8120 C   0  0  0  0  0  2  0  0  0  0  0  0
  156.2360  213.9180  153.0560 C   0  0  0  0  0  2  0  0  0  0  0  0
  156.6290  213.4050  156.7230 C   0  0  0  0  0  2  0  0  0  0  0  0
  156.8640  211.8850  156.8600 C   0  0  1  0  0  3  0  0  0  0  0  0
  156.5600  211.8440  154.3440 C   0  0  0  0  0  3  0  0  0  0  0  0
  155.6680  213.7550  155.5850 C   0  0  0  0  0  2  0  0  0  0  0  0
  156.1630  213.1220  154.3190 C   0  0  0  0  0  0  0  0  0  0  0  0
  156.4610  211.0570  155.6220 C   0  0  0  0  0  2  0  0  0  0  0  0
  158.8100  212.9010  157.1390 C   0  0  0  0  0  1  0  0  0  0  0  0
  158.2020  211.6440  157.1770 O   0  0  0  0  0  0  0  0  0  0  0  0
  162.2230  209.4880  151.2570 C   0  0  0  0  0  2  0  0  0  0  0  0
  161.6330  208.5380  149.8170 S   0  0  0  0  0  0  0  0  0  0  0  0
  162.7190  207.1390  150.2260 C   0  0  0  0  0  2  0  0  0  0  0  0
  161.9330  205.9640  150.6010 N   0  0  0  0  0  0  0  0  0  0  0  0
  161.0540  205.3320  149.6420 C   0  0  0  0  0  0  0  0  0  0  0  0
  160.0580  204.6780  150.0540 O   0  0  0  0  0  0  0  0  0  0  0  0
  161.2830  205.4200  148.1800 C   0  0  0  0  0  0  0  0  0  0  0  0
  160.6280  206.2990  146.0070 C   0  0  0  0  0  3  0  0  0  0  0  0
  162.4800  204.7530  146.1690 C   0  0  0  0  0  3  0  0  0  0  0  0
  161.6480  205.5650  145.3970 C   0  0  0  0  0  3  0  0  0  0  0  0
  162.2960  204.6780  147.5530 C   0  0  0  0  0  3  0  0  0  0  0  0
  160.4460  206.2250  147.3910 C   0  0  0  0  0  3  0  0  0  0  0  0
  161.1890  204.5080  152.4840 C   0  0  0  0  0  2  0  0  0  0  0  0
  160.5780  206.8400  152.8860 C   0  0  0  0  0  1  0  0  0  0  0  0
  162.3370  205.2560  151.8250 C   0  0  2  0  0  3  0  0  0  0  0  0
  161.6670  205.8020  153.0990 C   0  0  2  0  0  3  0  0  0  0  0  0
  1  3  1  0  0  0  0
  2 28  1  6  0  0  0
  2  1  1  0  0  0  0
  4  2  1  0  0  0  0
  5  4  1  6  0  0  0
  5  6  1  0  0  0  0
  6  3  1  0  0  0  0
  7 13  2  0  0  0  0
  7 10  1  0  0  0  0
  8 18  1  1  0  0  0
  9 17  1  0  0  0  0
  9 12  2  0  0  0  0
 10 14  2  0  0  0  0
 11  7  1  0  0  0  0
 13  9  1  0  0  0  0
 14 12  1  0  0  0  0
 15 12  1  6  0  0  0
 15  8  1  0  0  0  0
 15  5  1  0  0  0  0
 16  8  1  0  0  0  0
 17 16  1  0  0  0  0
 18 19  1  0  0  0  0
 19 24  1  0  0  0  0
 20 21  1  0  0  0  0
 21 27  1  6  0  0  0
 22 25  1  0  0  0  0
 23 20  1  0  0  0  0
 24 22  2  0  0  0  0
 24 23  1  0  0  0  0
 25 21  1  0  0  0  0
 26 27  1  0  0  0  0
 29 30  1  0  0  0  0
 29 28  1  0  0  0  0
 30 31  1  0  0  0  0
 32 33  2  0  0  0  0
 32 31  1  0  0  0  0
 34 32  1  0  0  0  0
 35 39  1  0  0  0  0
 36 38  2  0  0  0  0
 37 35  2  0  0  0  0
 37 36  1  0  0  0  0
 38 34  1  0  0  0  0
 39 34  2  0  0  0  0
 40 43  1  0  0  0  0
 42 31  1  6  0  0  0
 42 40  1  0  0  0  0
 42 43  1  0  0  0  0
 43 41  1  6  0  0  0
M  END
>  <MODEL>
8

>  <REMARK>
 VINA RESULT:      -5.7      1.278      3.229
  Name = 
  11 active torsions:
  status: ('A' for Active; 'I' for Inactive)
    1  A    between atoms: C_1  and  C_34
    2  A    between atoms: C_1  and  C_35
    3  A    between atoms: C_3  and  N_4
    4  A    between atoms: C_3  and  S_12
    5  A    between atoms: N_4  and  C_22
    6  A    between atoms: C_6  and  C_17
    7  A    between atoms: C_8  and  C_34
    8  A    between atoms: C_11  and  C_14
    9  A    between atoms: S_12  and  C_17
   10  A    between atoms: C_19  and  O_37
   11  A    between atoms: C_27  and  C_30
                            x       y       z     vdW  Elec       q    Type
                         _______ _______ _______ _____ _____    ______ ____

>  <TORSDO>
F 11

$$$$
=
 OpenBabel11062410043D

 43 48  0  0  1  0  0  0  0  0999 V2000
  161.8440  211.0920  149.5460 C   0  0  0  0  0  2  0  0  0  0  0  0
  161.1760  212.1840  150.3830 C   0  0  1  0  0  3  0  0  0  0  0  0
  162.4410  211.6930  148.2760 C   0  0  0  0  0  2  0  0  0  0  0  0
  160.0980  212.9100  149.5800 C   0  0  0  0  0  2  0  0  0  0  0  0
  160.6820  213.4790  148.2920 C   0  0  1  0  0  3  0  0  0  0  0  0
  161.3570  212.3870  147.4570 C   0  0  0  0  0  2  0  0  0  0  0  0
  160.0300  213.4310  143.3190 C   0  0  0  0  0  0  0  0  0  0  0  0
  158.1790  214.2270  148.0140 C   0  0  1  0  0  3  0  0  0  0  0  0
  158.7330  213.2950  145.3660 C   0  0  0  0  0  0  0  0  0  0  0  0
  161.0200  214.1540  143.9890 C   0  0  0  0  0  3  0  0  0  0  0  0
  160.1790  213.1330  141.9360 N   0  0  0  0  0  1  0  0  0  0  0  0
  159.7340  214.0310  146.0430 C   0  0  0  0  0  0  0  0  0  0  0  0
  158.8870  213.0130  144.0050 C   0  0  0  0  0  3  0  0  0  0  0  0
  160.8740  214.4510  145.3460 C   0  0  0  0  0  3  0  0  0  0  0  0
  159.6400  214.3150  147.5200 C   0  0  2  0  0  3  0  0  0  0  0  0
  157.5210  212.9340  147.5550 C   0  0  0  0  0  2  0  0  0  0  0  0
  157.4390  212.9130  146.0300 C   0  0  0  0  0  2  0  0  0  0  0  0
  158.0050  214.4420  149.5100 C   0  0  0  0  0  2  0  0  0  0  0  0
  156.5890  214.0750  149.9350 C   0  0  0  0  0  2  0  0  0  0  0  0
  157.4660  213.2240  153.4530 C   0  0  0  0  0  2  0  0  0  0  0  0
  156.1350  213.3930  154.2160 C   0  0  1  0  0  3  0  0  0  0  0  0
  155.2050  214.1160  151.9720 C   0  0  0  0  0  3  0  0  0  0  0  0
  157.6250  214.2320  152.3120 C   0  0  0  0  0  2  0  0  0  0  0  0
  156.4230  214.1490  151.4190 C   0  0  0  0  0  0  0  0  0  0  0  0
  155.0610  214.2080  153.4670 C   0  0  0  0  0  2  0  0  0  0  0  0
  155.9140  211.9880  155.9120 C   0  0  0  0  0  1  0  0  0  0  0  0
  155.6270  212.1370  154.5540 O   0  0  0  0  0  0  0  0  0  0  0  0
  160.6000  211.6260  151.6790 C   0  0  0  0  0  2  0  0  0  0  0  0
  161.7920  210.5760  152.5760 S   0  0  0  0  0  0  0  0  0  0  0  0
  160.5060  209.3500  152.9580 C   0  0  0  0  0  2  0  0  0  0  0  0
  160.8180  208.6380  154.1960 N   0  0  0  0  0  0  0  0  0  0  0  0
  160.8070  207.1930  154.2360 C   0  0  0  0  0  0  0  0  0  0  0  0
  160.5900  206.6060  155.3310 O   0  0  0  0  0  0  0  0  0  0  0  0
  161.0470  206.3660  153.0290 C   0  0  0  0  0  0  0  0  0  0  0  0
  161.6520  206.2210  150.6760 C   0  0  0  0  0  3  0  0  0  0  0  0
  161.0420  204.2170  151.8860 C   0  0  0  0  0  3  0  0  0  0  0  0
  161.4510  204.8380  150.7040 C   0  0  0  0  0  3  0  0  0  0  0  0
  160.8370  204.9780  153.0410 C   0  0  0  0  0  3  0  0  0  0  0  0
  161.4480  206.9800  151.8320 C   0  0  0  0  0  3  0  0  0  0  0  0
  161.0250  209.0160  156.6520 C   0  0  0  0  0  2  0  0  0  0  0  0
  159.0410  210.1300  155.7600 C   0  0  0  0  0  1  0  0  0  0  0  0
  161.4820  209.4100  155.2570 C   0  0  2  0  0  3  0  0  0  0  0  0
  160.5210  210.3080  156.0560 C   0  0  2  0  0  3  0  0  0  0  0  0
  1  2  1  0  0  0  0
  2 28  1  1  0  0  0
  3  1  1  0  0  0  0
  4  2  1  0  0  0  0
  5  6  1  6  0  0  0
  5  4  1  0  0  0  0
  6  3  1  0  0  0  0
  7 10  2  0  0  0  0
  7 13  1  0  0  0  0
  8 18  1  1  0  0  0
  9 17  1  0  0  0  0
  9 12  1  0  0  0  0
 10 14  1  0  0  0  0
 11  7  1  0  0  0  0
 13  9  2  0  0  0  0
 14 12  2  0  0  0  0
 15 12  1  6  0  0  0
 15  8  1  0  0  0  0
 15  5  1  0  0  0  0
 16  8  1  0  0  0  0
 17 16  1  0  0  0  0
 18 19  1  0  0  0  0
 19 24  1  0  0  0  0
 20 21  1  0  0  0  0
 21 27  1  6  0  0  0
 22 25  1  0  0  0  0
 23 20  1  0  0  0  0
 24 22  2  0  0  0  0
 24 23  1  0  0  0  0
 25 21  1  0  0  0  0
 27 26  1  0  0  0  0
 28 29  1  0  0  0  0
 29 30  1  0  0  0  0
 30 31  1  0  0  0  0
 31 32  1  0  0  0  0
 32 33  2  0  0  0  0
 34 38  1  0  0  0  0
 34 32  1  0  0  0  0
 35 37  2  0  0  0  0
 35 39  1  0  0  0  0
 36 38  2  0  0  0  0
 37 36  1  0  0  0  0
 39 34  2  0  0  0  0
 42 31  1  6  0  0  0
 42 43  1  0  0  0  0
 42 40  1  0  0  0  0
 43 41  1  6  0  0  0
 43 40  1  0  0  0  0
M  END
>  <MODEL>
9

>  <REMARK>
 VINA RESULT:      -5.7      2.814      5.159
  Name = 
  11 active torsions:
  status: ('A' for Active; 'I' for Inactive)
    1  A    between atoms: C_1  and  C_34
    2  A    between atoms: C_1  and  C_35
    3  A    between atoms: C_3  and  N_4
    4  A    between atoms: C_3  and  S_12
    5  A    between atoms: N_4  and  C_22
    6  A    between atoms: C_6  and  C_17
    7  A    between atoms: C_8  and  C_34
    8  A    between atoms: C_11  and  C_14
    9  A    between atoms: S_12  and  C_17
   10  A    between atoms: C_19  and  O_37
   11  A    between atoms: C_27  and  C_30
                            x       y       z     vdW  Elec       q    Type
                         _______ _______ _______ _____ _____    ______ ____

>  <TORSDO>
F 11

$$$$
