=
 OpenBabel11062410483D

 32 36  0  0  1  0  0  0  0  0999 V2000
  161.1060  204.0570  150.5970 C   0  0  2  0  0  3  0  0  0  0  0  0
  160.9680  208.2220  151.6510 C   0  0  0  0  0  0  0  0  0  0  0  0
  160.7280  207.1990  156.3880 C   0  0  0  0  0  3  0  0  0  0  0  0
  160.6650  208.5690  156.6350 C   0  0  0  0  0  3  0  0  0  0  0  0
  161.1350  206.4850  149.9730 C   0  0  0  0  0  0  0  0  0  0  0  0
  161.0070  205.8840  152.3190 C   0  0  0  0  0  3  0  0  0  0  0  0
  159.8250  203.5530  150.7290 F   0  0  0  0  0  0  0  0  0  0  0  0
  160.8190  206.7450  155.0720 C   0  0  0  0  0  3  0  0  0  0  0  0
  160.9420  207.2420  152.6700 C   0  0  0  0  0  0  0  0  0  0  0  0
  160.8470  207.6600  154.0100 C   0  0  0  0  0  0  0  0  0  0  0  0
  160.8050  209.9720  153.2560 C   0  0  0  0  0  0  0  0  0  0  0  0
  161.4660  204.8580  148.2660 C   0  0  0  0  0  0  0  0  0  0  0  0
  161.1100  205.5060  150.9780 C   0  0  0  0  0  0  0  0  0  0  0  0
  161.2650  206.0980  148.6020 N   0  0  0  0  0  0  0  0  0  0  0  0
  161.5520  203.8620  149.2510 O   0  0  0  0  0  0  0  0  0  0  0  0
  160.6910  209.4530  155.6020 N   0  0  0  0  0  0  0  0  0  0  0  0
  160.7800  209.0410  154.3060 C   0  0  0  0  0  0  0  0  0  0  0  0
  161.0650  207.8380  150.3110 C   0  0  0  0  0  3  0  0  0  0  0  0
  160.9030  209.5420  151.9690 N   0  0  0  0  0  0  0  0  0  0  0  0
  161.6360  204.4940  146.8550 C   0  0  0  0  0  0  0  0  0  0  0  0
  161.5140  203.2920  146.4920 O   0  0  0  0  0  0  0  0  0  0  0  0
  161.9350  205.4890  145.9230 O   0  0  0  0  0  0  0  0  0  0  0  0
  161.3420  205.5110  144.6340 C   0  0  0  0  0  1  0  0  0  0  0  0
  160.7720  211.4420  153.5270 C   0  0  0  0  0  2  0  0  0  0  0  0
  156.5190  211.4140  154.7240 C   0  0  0  0  0  1  0  0  0  0  0  0
  158.8880  212.1980  154.6930 C   0  0  0  0  0  2  0  0  0  0  0  0
  159.5150  213.2160  152.6010 C   0  0  2  0  0  3  0  0  0  0  0  0
  158.3250  214.1620  152.8500 C   0  0  0  0  0  2  0  0  0  0  0  0
  157.1020  213.3930  153.3380 C   0  0  0  0  0  2  0  0  0  0  0  0
  157.4200  212.6290  154.6250 C   0  0  1  0  0  3  0  0  0  0  0  0
  159.6020  212.9260  151.1120 C   0  0  0  0  0  1  0  0  0  0  0  0
  159.4190  211.9490  153.3510 N   0  0  0  0  0  0  0  0  0  0  0  0
  1  7  1  6  0  0  0
  1 13  1  0  0  0  0
  2 19  2  0  0  0  0
  2  9  1  0  0  0  0
  3  4  1  0  0  0  0
  5 18  2  0  0  0  0
  5 13  1  0  0  0  0
  6  9  1  0  0  0  0
  8  3  2  0  0  0  0
  9 10  2  0  0  0  0
 10 17  1  0  0  0  0
 10  8  1  0  0  0  0
 11 24  1  0  0  0  0
 11 17  2  0  0  0  0
 12 14  2  0  0  0  0
 12 15  1  0  0  0  0
 13  6  2  0  0  0  0
 14  5  1  0  0  0  0
 15  1  1  0  0  0  0
 16  4  2  0  0  0  0
 17 16  1  0  0  0  0
 18  2  1  0  0  0  0
 19 11  1  0  0  0  0
 20 12  1  0  0  0  0
 21 20  2  0  0  0  0
 22 20  1  0  0  0  0
 23 22  1  0  0  0  0
 27 31  1  6  0  0  0
 27 28  1  0  0  0  0
 27 32  1  0  0  0  0
 28 29  1  0  0  0  0
 29 30  1  0  0  0  0
 30 26  1  0  0  0  0
 30 25  1  6  0  0  0
 32 24  1  0  0  0  0
 32 26  1  0  0  0  0
M  END
>  <MODEL>
1

>  <REMARK>
 VINA RESULT:      -9.1      0.000      0.000
  Name = 
  4 active torsions:
  status: ('A' for Active; 'I' for Inactive)
    1  A    between atoms: C_1  and  O_10
    2  A    between atoms: C_1  and  C_19
    3  A    between atoms: C_16  and  C_27
    4  A    between atoms: C_27  and  N_32
                            x       y       z     vdW  Elec       q    Type
                         _______ _______ _______ _____ _____    ______ ____

>  <TORSDO>
F 4

$$$$
=
 OpenBabel11062410483D

 32 36  0  0  1  0  0  0  0  0999 V2000
  161.3310  204.6400  147.3710 C   0  0  2  0  0  3  0  0  0  0  0  0
  161.6070  207.1220  150.8700 C   0  0  0  0  0  0  0  0  0  0  0  0
  162.0280  211.1500  148.1970 C   0  0  0  0  0  3  0  0  0  0  0  0
  162.1330  211.8730  149.3840 C   0  0  0  0  0  3  0  0  0  0  0  0
  161.3280  204.9390  149.8610 C   0  0  0  0  0  0  0  0  0  0  0  0
  161.5440  206.9000  148.4490 C   0  0  0  0  0  3  0  0  0  0  0  0
  162.6040  204.5190  146.8480 F   0  0  0  0  0  0  0  0  0  0  0  0
  161.8710  209.7650  148.2520 C   0  0  0  0  0  3  0  0  0  0  0  0
  161.6550  207.7150  149.5870 C   0  0  0  0  0  0  0  0  0  0  0  0
  161.8170  209.1090  149.4900 C   0  0  0  0  0  0  0  0  0  0  0  0
  161.8780  209.2420  151.9180 C   0  0  0  0  0  0  0  0  0  0  0  0
  160.8880  202.7770  148.9650 C   0  0  0  0  0  0  0  0  0  0  0  0
  161.3750  205.5200  148.5840 C   0  0  0  0  0  0  0  0  0  0  0  0
  161.1310  203.5300  149.9980 N   0  0  0  0  0  0  0  0  0  0  0  0
  160.8230  203.3370  147.6800 O   0  0  0  0  0  0  0  0  0  0  0  0
  162.0810  211.2330  150.5830 N   0  0  0  0  0  0  0  0  0  0  0  0
  161.9270  209.8810  150.6690 C   0  0  0  0  0  0  0  0  0  0  0  0
  161.4430  205.7400  150.9990 C   0  0  0  0  0  3  0  0  0  0  0  0
  161.7150  207.8930  151.9840 N   0  0  0  0  0  0  0  0  0  0  0  0
  160.6490  201.3400  149.1390 C   0  0  0  0  0  0  0  0  0  0  0  0
  159.6510  200.9410  149.8020 O   0  0  0  0  0  0  0  0  0  0  0  0
  161.5330  200.4240  148.5680 O   0  0  0  0  0  0  0  0  0  0  0  0
  161.4880  200.0990  147.1880 C   0  0  0  0  0  1  0  0  0  0  0  0
  161.9560  210.0250  153.1890 C   0  0  0  0  0  2  0  0  0  0  0  0
  159.8390  207.4190  156.0610 C   0  0  0  0  0  1  0  0  0  0  0  0
  161.2750  209.3180  155.3140 C   0  0  0  0  0  2  0  0  0  0  0  0
  160.0430  211.0280  154.1480 C   0  0  2  0  0  3  0  0  0  0  0  0
  159.1720  211.0890  155.4160 C   0  0  0  0  0  2  0  0  0  0  0  0
  158.8370  209.6890  155.9230 C   0  0  0  0  0  2  0  0  0  0  0  0
  160.1140  208.9010  156.2210 C   0  0  1  0  0  3  0  0  0  0  0  0
  159.1510  211.2390  152.9360 C   0  0  0  0  0  1  0  0  0  0  0  0
  160.7810  209.7590  154.0080 N   0  0  0  0  0  0  0  0  0  0  0  0
  1  7  1  1  0  0  0
  1 15  1  0  0  0  0
  1 13  1  0  0  0  0
  2 18  2  0  0  0  0
  2 19  1  0  0  0  0
  3  8  2  0  0  0  0
  3  4  1  0  0  0  0
  4 16  2  0  0  0  0
  5 14  1  0  0  0  0
  5 18  1  0  0  0  0
  6 13  1  0  0  0  0
  6  9  2  0  0  0  0
  8 10  1  0  0  0  0
  9  2  1  0  0  0  0
 10  9  1  0  0  0  0
 10 17  2  0  0  0  0
 11 19  2  0  0  0  0
 11 24  1  0  0  0  0
 12 20  1  0  0  0  0
 12 14  2  0  0  0  0
 13  5  2  0  0  0  0
 15 12  1  0  0  0  0
 16 17  1  0  0  0  0
 17 11  1  0  0  0  0
 20 21  2  0  0  0  0
 22 20  1  0  0  0  0
 23 22  1  0  0  0  0
 24 32  1  0  0  0  0
 26 30  1  0  0  0  0
 27 31  1  6  0  0  0
 27 28  1  0  0  0  0
 28 29  1  0  0  0  0
 29 30  1  0  0  0  0
 30 25  1  6  0  0  0
 32 27  1  0  0  0  0
 32 26  1  0  0  0  0
M  END
>  <MODEL>
2

>  <REMARK>
 VINA RESULT:      -8.4      2.318      4.374
  Name = 
  4 active torsions:
  status: ('A' for Active; 'I' for Inactive)
    1  A    between atoms: C_1  and  O_10
    2  A    between atoms: C_1  and  C_19
    3  A    between atoms: C_16  and  C_27
    4  A    between atoms: C_27  and  N_32
                            x       y       z     vdW  Elec       q    Type
                         _______ _______ _______ _____ _____    ______ ____

>  <TORSDO>
F 4

$$$$
=
 OpenBabel11062410483D

 32 36  0  0  1  0  0  0  0  0999 V2000
  160.7380  203.7020  150.4190 C   0  0  2  0  0  3  0  0  0  0  0  0
  161.5220  207.8130  149.4350 C   0  0  0  0  0  0  0  0  0  0  0  0
  161.2490  209.1640  154.0880 C   0  0  0  0  0  3  0  0  0  0  0  0
  161.4860  210.4750  153.6750 C   0  0  0  0  0  3  0  0  0  0  0  0
  161.2560  205.5050  148.7550 C   0  0  0  0  0  0  0  0  0  0  0  0
  161.0920  206.0950  151.1020 C   0  0  0  0  0  3  0  0  0  0  0  0
  159.3860  203.5900  150.6840 F   0  0  0  0  0  0  0  0  0  0  0  0
  161.1930  208.1470  153.1350 C   0  0  0  0  0  3  0  0  0  0  0  0
  161.3280  207.4430  150.7870 C   0  0  0  0  0  0  0  0  0  0  0  0
  161.3740  208.4410  151.7760 C   0  0  0  0  0  0  0  0  0  0  0  0
  161.7920  210.0970  150.0460 C   0  0  0  0  0  0  0  0  0  0  0  0
  161.1710  203.2450  148.0090 C   0  0  0  0  0  0  0  0  0  0  0  0
  161.0620  205.1290  150.0930 C   0  0  0  0  0  0  0  0  0  0  0  0
  161.2500  204.5120  147.7260 N   0  0  0  0  0  0  0  0  0  0  0  0
  161.0820  202.8220  149.3440 O   0  0  0  0  0  0  0  0  0  0  0  0
  161.6600  210.7550  152.3560 N   0  0  0  0  0  0  0  0  0  0  0  0
  161.6110  209.7830  151.4010 C   0  0  0  0  0  0  0  0  0  0  0  0
  161.4860  206.8430  148.4300 C   0  0  0  0  0  3  0  0  0  0  0  0
  161.7490  209.1130  149.1090 N   0  0  0  0  0  0  0  0  0  0  0  0
  161.2080  202.2450  146.9360 C   0  0  0  0  0  0  0  0  0  0  0  0
  161.2150  202.6140  145.7280 O   0  0  0  0  0  0  0  0  0  0  0  0
  161.2340  200.8890  147.2630 O   0  0  0  0  0  0  0  0  0  0  0  0
  161.2140  199.8770  146.2690 C   0  0  0  0  0  1  0  0  0  0  0  0
  162.0800  211.4980  149.6100 C   0  0  0  0  0  2  0  0  0  0  0  0
  158.2140  213.1300  150.9900 C   0  0  0  0  0  1  0  0  0  0  0  0
  160.6330  213.1690  150.3810 C   0  0  0  0  0  2  0  0  0  0  0  0
  161.0140  212.8830  148.0190 C   0  0  2  0  0  3  0  0  0  0  0  0
  160.0900  214.1030  147.8510 C   0  0  0  0  0  2  0  0  0  0  0  0
  158.8660  213.9990  148.7550 C   0  0  0  0  0  2  0  0  0  0  0  0
  159.2850  213.8780  150.2220 C   0  0  1  0  0  3  0  0  0  0  0  0
  160.7520  211.9150  146.8780 C   0  0  0  0  0  1  0  0  0  0  0  0
  160.8350  212.1910  149.3100 N   0  0  0  0  0  0  0  0  0  0  0  0
  1  7  1  6  0  0  0
  2  9  1  0  0  0  0
  4  3  1  0  0  0  0
  5 13  1  0  0  0  0
  8  3  2  0  0  0  0
  9  6  1  0  0  0  0
  9 10  2  0  0  0  0
 10  8  1  0  0  0  0
 11 17  2  0  0  0  0
 12 15  1  0  0  0  0
 13  1  1  0  0  0  0
 13  6  2  0  0  0  0
 14 12  2  0  0  0  0
 14  5  1  0  0  0  0
 15  1  1  0  0  0  0
 16  4  2  0  0  0  0
 17 10  1  0  0  0  0
 17 16  1  0  0  0  0
 18  5  2  0  0  0  0
 18  2  1  0  0  0  0
 19  2  2  0  0  0  0
 19 11  1  0  0  0  0
 20 22  1  0  0  0  0
 20 12  1  0  0  0  0
 21 20  2  0  0  0  0
 23 22  1  0  0  0  0
 24 11  1  0  0  0  0
 27 31  1  6  0  0  0
 27 32  1  0  0  0  0
 28 27  1  0  0  0  0
 28 29  1  0  0  0  0
 29 30  1  0  0  0  0
 30 26  1  0  0  0  0
 30 25  1  1  0  0  0
 32 24  1  0  0  0  0
 32 26  1  0  0  0  0
M  END
>  <MODEL>
3

>  <REMARK>
 VINA RESULT:      -7.8      2.181      3.385
  Name = 
  4 active torsions:
  status: ('A' for Active; 'I' for Inactive)
    1  A    between atoms: C_1  and  O_10
    2  A    between atoms: C_1  and  C_19
    3  A    between atoms: C_16  and  C_27
    4  A    between atoms: C_27  and  N_32
                            x       y       z     vdW  Elec       q    Type
                         _______ _______ _______ _____ _____    ______ ____

>  <TORSDO>
F 4

$$$$
=
 OpenBabel11062410483D

 32 36  0  0  1  0  0  0  0  0999 V2000
  161.9390  204.9390  146.6980 C   0  0  2  0  0  3  0  0  0  0  0  0
  161.2540  206.3050  150.7160 C   0  0  0  0  0  0  0  0  0  0  0  0
  162.1000  210.9200  149.4810 C   0  0  0  0  0  3  0  0  0  0  0  0
  161.8840  211.2700  150.8130 C   0  0  0  0  0  3  0  0  0  0  0  0
  161.3300  204.5100  149.0920 C   0  0  0  0  0  0  0  0  0  0  0  0
  161.7790  206.7890  148.3910 C   0  0  0  0  0  3  0  0  0  0  0  0
  163.3050  204.9450  146.4850 F   0  0  0  0  0  0  0  0  0  0  0  0
  162.0020  209.5820  149.1010 C   0  0  0  0  0  3  0  0  0  0  0  0
  161.5760  207.2400  149.7060 C   0  0  0  0  0  0  0  0  0  0  0  0
  161.6880  208.5990  150.0510 C   0  0  0  0  0  0  0  0  0  0  0  0
  161.1640  208.0280  152.3550 C   0  0  0  0  0  0  0  0  0  0  0  0
  161.2220  202.7070  147.5410 C   0  0  0  0  0  0  0  0  0  0  0  0
  161.6510  205.4320  148.0830 C   0  0  0  0  0  0  0  0  0  0  0  0
  161.1760  203.1260  148.7710 N   0  0  0  0  0  0  0  0  0  0  0  0
  161.4360  203.6140  146.4920 O   0  0  0  0  0  0  0  0  0  0  0  0
  161.5810  210.3130  151.7310 N   0  0  0  0  0  0  0  0  0  0  0  0
  161.4770  208.9970  151.3900 C   0  0  0  0  0  0  0  0  0  0  0  0
  161.1320  204.9480  150.4030 C   0  0  0  0  0  3  0  0  0  0  0  0
  161.0560  206.7210  151.9950 N   0  0  0  0  0  0  0  0  0  0  0  0
  161.0200  201.2860  147.2370 C   0  0  0  0  0  0  0  0  0  0  0  0
  160.9440  200.4430  148.1740 O   0  0  0  0  0  0  0  0  0  0  0  0
  160.9130  200.8790  145.9070 O   0  0  0  0  0  0  0  0  0  0  0  0
  159.8640  201.3320  145.0660 C   0  0  0  0  0  1  0  0  0  0  0  0
  160.8990  208.4110  153.7760 C   0  0  0  0  0  2  0  0  0  0  0  0
  158.6370  211.9420  152.3870 C   0  0  0  0  0  1  0  0  0  0  0  0
  159.1740  209.9920  153.8480 C   0  0  0  0  0  2  0  0  0  0  0  0
  161.1770  210.3150  155.1480 C   0  0  2  0  0  3  0  0  0  0  0  0
  160.4800  211.5840  155.6730 C   0  0  0  0  0  2  0  0  0  0  0  0
  159.8080  212.3530  154.5400 C   0  0  0  0  0  2  0  0  0  0  0  0
  158.7840  211.4730  153.8200 C   0  0  1  0  0  3  0  0  0  0  0  0
  162.6610  210.6010  155.0010 C   0  0  0  0  0  1  0  0  0  0  0  0
  160.6310  209.8400  153.8630 N   0  0  0  0  0  0  0  0  0  0  0  0
  1  7  1  1  0  0  0
  1 13  1  0  0  0  0
  2 19  1  0  0  0  0
  3  4  1  0  0  0  0
  4 16  2  0  0  0  0
  5 18  1  0  0  0  0
  6  9  2  0  0  0  0
  8  3  2  0  0  0  0
  8 10  1  0  0  0  0
  9 10  1  0  0  0  0
  9  2  1  0  0  0  0
 10 17  2  0  0  0  0
 11 24  1  0  0  0  0
 12 14  2  0  0  0  0
 13  6  1  0  0  0  0
 13  5  2  0  0  0  0
 14  5  1  0  0  0  0
 15  1  1  0  0  0  0
 15 12  1  0  0  0  0
 17 16  1  0  0  0  0
 17 11  1  0  0  0  0
 18  2  2  0  0  0  0
 19 11  2  0  0  0  0
 20 12  1  0  0  0  0
 20 21  2  0  0  0  0
 22 20  1  0  0  0  0
 23 22  1  0  0  0  0
 24 32  1  0  0  0  0
 26 32  1  0  0  0  0
 27 31  1  6  0  0  0
 27 28  1  0  0  0  0
 29 28  1  0  0  0  0
 30 25  1  6  0  0  0
 30 26  1  0  0  0  0
 30 29  1  0  0  0  0
 32 27  1  0  0  0  0
M  END
>  <MODEL>
4

>  <REMARK>
 VINA RESULT:      -7.2      2.215      3.975
  Name = 
  4 active torsions:
  status: ('A' for Active; 'I' for Inactive)
    1  A    between atoms: C_1  and  O_10
    2  A    between atoms: C_1  and  C_19
    3  A    between atoms: C_16  and  C_27
    4  A    between atoms: C_27  and  N_32
                            x       y       z     vdW  Elec       q    Type
                         _______ _______ _______ _____ _____    ______ ____

>  <TORSDO>
F 4

$$$$
=
 OpenBabel11062410483D

 32 36  0  0  1  0  0  0  0  0999 V2000
  161.0510  203.3630  149.3560 C   0  0  2  0  0  3  0  0  0  0  0  0
  161.4210  207.4430  150.6600 C   0  0  0  0  0  0  0  0  0  0  0  0
  160.7850  206.2030  155.3070 C   0  0  0  0  0  3  0  0  0  0  0  0
  160.8940  207.5540  155.6360 C   0  0  0  0  0  3  0  0  0  0  0  0
  161.4440  205.7950  148.8860 C   0  0  0  0  0  0  0  0  0  0  0  0
  161.1070  205.0890  151.1820 C   0  0  0  0  0  3  0  0  0  0  0  0
  159.7090  203.0360  149.3960 F   0  0  0  0  0  0  0  0  0  0  0  0
  160.8860  205.8150  153.9720 C   0  0  0  0  0  3  0  0  0  0  0  0
  161.2070  206.4220  151.6140 C   0  0  0  0  0  0  0  0  0  0  0  0
  161.0960  206.7740  152.9710 C   0  0  0  0  0  0  0  0  0  0  0  0
  161.4090  209.1070  152.3610 C   0  0  0  0  0  0  0  0  0  0  0  0
  161.6440  204.2340  147.0990 C   0  0  0  0  0  0  0  0  0  0  0  0
  161.2310  204.7750  149.8270 C   0  0  0  0  0  0  0  0  0  0  0  0
  161.5950  205.4700  147.5020 N   0  0  0  0  0  0  0  0  0  0  0  0
  161.5400  203.1830  148.0220 O   0  0  0  0  0  0  0  0  0  0  0  0
  161.0970  208.4800  154.6620 N   0  0  0  0  0  0  0  0  0  0  0  0
  161.2010  208.1320  153.3480 C   0  0  0  0  0  0  0  0  0  0  0  0
  161.5400  207.1240  149.3040 C   0  0  0  0  0  3  0  0  0  0  0  0
  161.5190  208.7400  151.0560 N   0  0  0  0  0  0  0  0  0  0  0  0
  161.8410  203.9290  145.6770 C   0  0  0  0  0  0  0  0  0  0  0  0
  162.8690  204.3500  145.0770 O   0  0  0  0  0  0  0  0  0  0  0  0
  160.8840  203.1740  145.0000 O   0  0  0  0  0  0  0  0  0  0  0  0
  160.4860  201.8890  145.4500 C   0  0  0  0  0  1  0  0  0  0  0  0
  161.5610  210.5500  152.7210 C   0  0  0  0  0  2  0  0  0  0  0  0
  160.3840  210.5340  156.9800 C   0  0  0  0  0  1  0  0  0  0  0  0
  161.3750  211.4420  154.8780 C   0  0  0  0  0  2  0  0  0  0  0  0
  159.7210  211.9540  153.2020 C   0  0  2  0  0  3  0  0  0  0  0  0
  159.0880  212.8500  154.2820 C   0  0  0  0  0  2  0  0  0  0  0  0
  159.0550  212.1450  155.6340 C   0  0  0  0  0  2  0  0  0  0  0  0
  160.4650  211.7440  156.0710 C   0  0  1  0  0  3  0  0  0  0  0  0
  158.6090  211.3130  152.3890 C   0  0  0  0  0  1  0  0  0  0  0  0
  160.6010  210.9070  153.7560 N   0  0  0  0  0  0  0  0  0  0  0  0
  1  7  1  6  0  0  0
  1 13  1  0  0  0  0
  2 19  2  0  0  0  0
  2  9  1  0  0  0  0
  3  4  1  0  0  0  0
  5 18  2  0  0  0  0
  5 13  1  0  0  0  0
  6  9  1  0  0  0  0
  8  3  2  0  0  0  0
  9 10  2  0  0  0  0
 10 17  1  0  0  0  0
 10  8  1  0  0  0  0
 11 24  1  0  0  0  0
 11 17  2  0  0  0  0
 12 14  2  0  0  0  0
 12 15  1  0  0  0  0
 13  6  2  0  0  0  0
 14  5  1  0  0  0  0
 15  1  1  0  0  0  0
 16  4  2  0  0  0  0
 17 16  1  0  0  0  0
 18  2  1  0  0  0  0
 19 11  1  0  0  0  0
 20 12  1  0  0  0  0
 21 20  2  0  0  0  0
 22 23  1  0  0  0  0
 22 20  1  0  0  0  0
 24 32  1  0  0  0  0
 26 30  1  0  0  0  0
 27 31  1  1  0  0  0
 27 32  1  0  0  0  0
 27 28  1  0  0  0  0
 28 29  1  0  0  0  0
 29 30  1  0  0  0  0
 30 25  1  1  0  0  0
 32 26  1  0  0  0  0
M  END
>  <MODEL>
5

>  <REMARK>
 VINA RESULT:      -7.1      1.422      2.028
  Name = 
  4 active torsions:
  status: ('A' for Active; 'I' for Inactive)
    1  A    between atoms: C_1  and  O_10
    2  A    between atoms: C_1  and  C_19
    3  A    between atoms: C_16  and  C_27
    4  A    between atoms: C_27  and  N_32
                            x       y       z     vdW  Elec       q    Type
                         _______ _______ _______ _____ _____    ______ ____

>  <TORSDO>
F 4

$$$$
=
 OpenBabel11062410483D

 32 36  0  0  1  0  0  0  0  0999 V2000
  161.7000  210.2710  151.2410 C   0  0  2  0  0  3  0  0  0  0  0  0
  161.8060  206.6020  149.0030 C   0  0  0  0  0  0  0  0  0  0  0  0
  160.8300  203.9560  152.9510 C   0  0  0  0  0  3  0  0  0  0  0  0
  160.9060  202.8170  152.1520 C   0  0  0  0  0  3  0  0  0  0  0  0
  161.9570  209.0170  149.0850 C   0  0  0  0  0  0  0  0  0  0  0  0
  161.4770  207.7710  151.1100 C   0  0  0  0  0  3  0  0  0  0  0  0
  162.8810  210.3540  151.9560 F   0  0  0  0  0  0  0  0  0  0  0  0
  161.0370  205.2100  152.3760 C   0  0  0  0  0  3  0  0  0  0  0  0
  161.5290  206.5670  150.3890 C   0  0  0  0  0  0  0  0  0  0  0  0
  161.3180  205.3210  151.0060 C   0  0  0  0  0  0  0  0  0  0  0  0
  161.6690  204.2300  148.8610 C   0  0  0  0  0  0  0  0  0  0  0  0
  161.9630  211.3980  149.0350 C   0  0  0  0  0  0  0  0  0  0  0  0
  161.6830  208.9910  150.4610 C   0  0  0  0  0  0  0  0  0  0  0  0
  162.1430  210.2680  148.4170 N   0  0  0  0  0  0  0  0  0  0  0  0
  161.5850  211.4140  150.3870 O   0  0  0  0  0  0  0  0  0  0  0  0
  161.1800  202.9290  150.8250 N   0  0  0  0  0  0  0  0  0  0  0  0
  161.3860  204.1400  150.2330 C   0  0  0  0  0  0  0  0  0  0  0  0
  162.0160  207.8250  148.3600 C   0  0  0  0  0  3  0  0  0  0  0  0
  161.8640  205.4480  148.2870 N   0  0  0  0  0  0  0  0  0  0  0  0
  162.1210  212.6660  148.3150 C   0  0  0  0  0  0  0  0  0  0  0  0
  161.6110  213.7240  148.7780 O   0  0  0  0  0  0  0  0  0  0  0  0
  162.8370  212.6890  147.1180 O   0  0  0  0  0  0  0  0  0  0  0  0
  162.3330  213.3260  145.9540 C   0  0  0  0  0  1  0  0  0  0  0  0
  161.7150  203.0090  148.0010 C   0  0  0  0  0  2  0  0  0  0  0  0
  160.1840  205.5790  144.7510 C   0  0  0  0  0  1  0  0  0  0  0  0
  161.6420  203.8610  145.8220 C   0  0  0  0  0  2  0  0  0  0  0  0
  160.4600  201.8370  146.3770 C   0  0  2  0  0  3  0  0  0  0  0  0
  160.0810  201.7980  144.8850 C   0  0  0  0  0  2  0  0  0  0  0  0
  159.6620  203.1780  144.3860 C   0  0  0  0  0  2  0  0  0  0  0  0
  160.7830  204.1960  144.5990 C   0  0  1  0  0  3  0  0  0  0  0  0
  159.2810  201.3290  147.1900 C   0  0  0  0  0  1  0  0  0  0  0  0
  160.8460  203.1820  146.8460 N   0  0  0  0  0  0  0  0  0  0  0  0
  1  7  1  6  0  0  0
  2  9  1  0  0  0  0
  4  3  2  0  0  0  0
  5 13  2  0  0  0  0
  8  3  1  0  0  0  0
  9 10  1  0  0  0  0
  9  6  2  0  0  0  0
 10  8  2  0  0  0  0
 11 17  1  0  0  0  0
 12 15  1  0  0  0  0
 13  6  1  0  0  0  0
 13  1  1  0  0  0  0
 14 12  2  0  0  0  0
 14  5  1  0  0  0  0
 15  1  1  0  0  0  0
 16  4  1  0  0  0  0
 17 16  2  0  0  0  0
 17 10  1  0  0  0  0
 18  2  2  0  0  0  0
 18  5  1  0  0  0  0
 19 11  2  0  0  0  0
 19  2  1  0  0  0  0
 20 21  2  0  0  0  0
 20 12  1  0  0  0  0
 22 20  1  0  0  0  0
 23 22  1  0  0  0  0
 24 11  1  0  0  0  0
 26 32  1  0  0  0  0
 27 32  1  0  0  0  0
 27 31  1  1  0  0  0
 28 27  1  0  0  0  0
 29 30  1  0  0  0  0
 29 28  1  0  0  0  0
 30 25  1  1  0  0  0
 30 26  1  0  0  0  0
 32 24  1  0  0  0  0
M  END
>  <MODEL>
6

>  <REMARK>
 VINA RESULT:      -7.0      4.497      8.468
  Name = 
  4 active torsions:
  status: ('A' for Active; 'I' for Inactive)
    1  A    between atoms: C_1  and  O_10
    2  A    between atoms: C_1  and  C_19
    3  A    between atoms: C_16  and  C_27
    4  A    between atoms: C_27  and  N_32
                            x       y       z     vdW  Elec       q    Type
                         _______ _______ _______ _____ _____    ______ ____

>  <TORSDO>
F 4

$$$$
=
 OpenBabel11062410483D

 32 36  0  0  1  0  0  0  0  0999 V2000
  156.6040  214.2570  153.2160 C   0  0  2  0  0  3  0  0  0  0  0  0
  159.5530  211.1700  152.7150 C   0  0  0  0  0  0  0  0  0  0  0  0
  161.2460  213.2000  148.6460 C   0  0  0  0  0  3  0  0  0  0  0  0
  162.1540  212.1460  148.5510 C   0  0  0  0  0  3  0  0  0  0  0  0
  157.7500  212.1650  153.9880 C   0  0  0  0  0  0  0  0  0  0  0  0
  158.5270  213.2400  151.9570 C   0  0  0  0  0  3  0  0  0  0  0  0
  155.5870  214.0090  152.3130 F   0  0  0  0  0  0  0  0  0  0  0  0
  160.3500  213.2360  149.7140 C   0  0  0  0  0  3  0  0  0  0  0  0
  159.4800  212.2250  151.7750 C   0  0  0  0  0  0  0  0  0  0  0  0
  160.3640  212.2220  150.6820 C   0  0  0  0  0  0  0  0  0  0  0  0
  161.3300  210.1470  151.5050 C   0  0  0  0  0  0  0  0  0  0  0  0
  156.0970  213.1510  155.3890 C   0  0  0  0  0  0  0  0  0  0  0  0
  157.6700  213.2150  153.0600 C   0  0  0  0  0  0  0  0  0  0  0  0
  156.8890  212.1530  155.1290 N   0  0  0  0  0  0  0  0  0  0  0  0
  156.0640  214.2690  154.5420 O   0  0  0  0  0  0  0  0  0  0  0  0
  162.1640  211.1650  149.4920 N   0  0  0  0  0  0  0  0  0  0  0  0
  161.3010  211.1720  150.5470 C   0  0  0  0  0  0  0  0  0  0  0  0
  158.6900  211.1470  153.8130 C   0  0  0  0  0  3  0  0  0  0  0  0
  160.4670  210.1760  152.5560 N   0  0  0  0  0  0  0  0  0  0  0  0
  155.2540  213.1310  156.5900 C   0  0  0  0  0  0  0  0  0  0  0  0
  155.0490  212.0450  157.2000 O   0  0  0  0  0  0  0  0  0  0  0  0
  154.6840  214.3190  157.0470 O   0  0  0  0  0  0  0  0  0  0  0  0
  153.2850  214.4530  157.2420 C   0  0  0  0  0  1  0  0  0  0  0  0
  162.3280  209.0370  151.4190 C   0  0  0  0  0  2  0  0  0  0  0  0
  160.4090  206.4480  148.3970 C   0  0  0  0  0  1  0  0  0  0  0  0
  162.2550  207.3150  149.8350 C   0  0  0  0  0  2  0  0  0  0  0  0
  161.9310  206.8330  152.1740 C   0  0  2  0  0  3  0  0  0  0  0  0
  161.8390  205.3620  151.7290 C   0  0  0  0  0  2  0  0  0  0  0  0
  160.9770  205.2160  150.4790 C   0  0  0  0  0  2  0  0  0  0  0  0
  161.5370  206.0590  149.3320 C   0  0  1  0  0  3  0  0  0  0  0  0
  160.9510  207.0580  153.3130 C   0  0  0  0  0  1  0  0  0  0  0  0
  161.6560  207.7900  151.0850 N   0  0  0  0  0  0  0  0  0  0  0  0
  1  7  1  6  0  0  0
  1 15  1  0  0  0  0
  2 18  1  0  0  0  0
  3  8  1  0  0  0  0
  4  3  2  0  0  0  0
  4 16  1  0  0  0  0
  5 14  1  0  0  0  0
  6 13  2  0  0  0  0
  8 10  2  0  0  0  0
  9  6  1  0  0  0  0
  9  2  2  0  0  0  0
 10  9  1  0  0  0  0
 11 19  2  0  0  0  0
 12 20  1  0  0  0  0
 13  1  1  0  0  0  0
 13  5  1  0  0  0  0
 14 12  2  0  0  0  0
 15 12  1  0  0  0  0
 16 17  2  0  0  0  0
 17 10  1  0  0  0  0
 17 11  1  0  0  0  0
 18  5  2  0  0  0  0
 19  2  1  0  0  0  0
 20 22  1  0  0  0  0
 20 21  2  0  0  0  0
 22 23  1  0  0  0  0
 24 11  1  0  0  0  0
 26 32  1  0  0  0  0
 27 31  1  1  0  0  0
 28 27  1  0  0  0  0
 29 28  1  0  0  0  0
 30 25  1  6  0  0  0
 30 26  1  0  0  0  0
 30 29  1  0  0  0  0
 32 24  1  0  0  0  0
 32 27  1  0  0  0  0
M  END
>  <MODEL>
7

>  <REMARK>
 VINA RESULT:      -6.7      5.013      9.389
  Name = 
  4 active torsions:
  status: ('A' for Active; 'I' for Inactive)
    1  A    between atoms: C_1  and  O_10
    2  A    between atoms: C_1  and  C_19
    3  A    between atoms: C_16  and  C_27
    4  A    between atoms: C_27  and  N_32
                            x       y       z     vdW  Elec       q    Type
                         _______ _______ _______ _____ _____    ______ ____

>  <TORSDO>
F 4

$$$$
=
 OpenBabel11062410483D

 32 36  0  0  1  0  0  0  0  0999 V2000
  162.3620  205.1430  146.8310 C   0  0  2  0  0  3  0  0  0  0  0  0
  160.9820  207.0000  150.4540 C   0  0  0  0  0  0  0  0  0  0  0  0
  162.2940  211.4070  148.9060 C   0  0  0  0  0  3  0  0  0  0  0  0
  161.8420  211.9200  150.1210 C   0  0  0  0  0  3  0  0  0  0  0  0
  161.2780  205.0220  149.0890 C   0  0  0  0  0  0  0  0  0  0  0  0
  161.9740  207.1860  148.2420 C   0  0  0  0  0  3  0  0  0  0  0  0
  163.7410  205.0840  146.8950 F   0  0  0  0  0  0  0  0  0  0  0  0
  162.2010  210.0370  148.6650 C   0  0  0  0  0  3  0  0  0  0  0  0
  161.5440  207.7980  149.4300 C   0  0  0  0  0  0  0  0  0  0  0  0
  161.6580  209.1840  149.6370 C   0  0  0  0  0  0  0  0  0  0  0  0
  160.6660  208.9080  151.8410 C   0  0  0  0  0  0  0  0  0  0  0  0
  161.3790  203.0500  147.7580 C   0  0  0  0  0  0  0  0  0  0  0  0
  161.8360  205.8070  148.0680 C   0  0  0  0  0  0  0  0  0  0  0  0
  161.1160  203.6150  148.9000 N   0  0  0  0  0  0  0  0  0  0  0  0
  161.8400  203.8190  146.6780 O   0  0  0  0  0  0  0  0  0  0  0  0
  161.3160  211.0890  151.0610 N   0  0  0  0  0  0  0  0  0  0  0  0
  161.2120  209.7460  150.8550 C   0  0  0  0  0  0  0  0  0  0  0  0
  160.8520  205.6200  150.2770 C   0  0  0  0  0  3  0  0  0  0  0  0
  160.5620  207.5710  151.6140 N   0  0  0  0  0  0  0  0  0  0  0  0
  161.1640  201.6100  147.5800 C   0  0  0  0  0  0  0  0  0  0  0  0
  160.8360  201.1540  146.4490 O   0  0  0  0  0  0  0  0  0  0  0  0
  161.3240  200.7540  148.6690 O   0  0  0  0  0  0  0  0  0  0  0  0
  160.5710  200.9080  149.8620 C   0  0  0  0  0  1  0  0  0  0  0  0
  160.1510  209.4670  153.1280 C   0  0  0  0  0  2  0  0  0  0  0  0
  163.5560  210.8340  155.5880 C   0  0  0  0  0  1  0  0  0  0  0  0
  161.1640  210.4310  155.0050 C   0  0  0  0  0  2  0  0  0  0  0  0
  160.5770  208.0940  155.0040 C   0  0  2  0  0  3  0  0  0  0  0  0
  161.0950  208.0930  156.4540 C   0  0  0  0  0  2  0  0  0  0  0  0
  162.4060  208.8640  156.5730 C   0  0  0  0  0  2  0  0  0  0  0  0
  162.2300  210.3080  156.0980 C   0  0  1  0  0  3  0  0  0  0  0  0
  160.9470  206.7710  154.3550 C   0  0  0  0  0  1  0  0  0  0  0  0
  161.1050  209.2100  154.1980 N   0  0  0  0  0  0  0  0  0  0  0  0
  1  7  1  1  0  0  0
  1 13  1  0  0  0  0
  2 19  1  0  0  0  0
  3  4  1  0  0  0  0
  4 16  2  0  0  0  0
  5 18  1  0  0  0  0
  6  9  2  0  0  0  0
  8  3  2  0  0  0  0
  8 10  1  0  0  0  0
  9 10  1  0  0  0  0
  9  2  1  0  0  0  0
 10 17  2  0  0  0  0
 11 24  1  0  0  0  0
 12 14  2  0  0  0  0
 13  6  1  0  0  0  0
 13  5  2  0  0  0  0
 14  5  1  0  0  0  0
 15  1  1  0  0  0  0
 15 12  1  0  0  0  0
 17 16  1  0  0  0  0
 17 11  1  0  0  0  0
 18  2  2  0  0  0  0
 19 11  2  0  0  0  0
 20 12  1  0  0  0  0
 20 22  1  0  0  0  0
 21 20  2  0  0  0  0
 22 23  1  0  0  0  0
 24 32  1  0  0  0  0
 26 30  1  0  0  0  0
 27 31  1  6  0  0  0
 27 28  1  0  0  0  0
 28 29  1  0  0  0  0
 30 25  1  6  0  0  0
 30 29  1  0  0  0  0
 32 27  1  0  0  0  0
 32 26  1  0  0  0  0
M  END
>  <MODEL>
8

>  <REMARK>
 VINA RESULT:      -6.5      2.558      4.891
  Name = 
  4 active torsions:
  status: ('A' for Active; 'I' for Inactive)
    1  A    between atoms: C_1  and  O_10
    2  A    between atoms: C_1  and  C_19
    3  A    between atoms: C_16  and  C_27
    4  A    between atoms: C_27  and  N_32
                            x       y       z     vdW  Elec       q    Type
                         _______ _______ _______ _____ _____    ______ ____

>  <TORSDO>
F 4

$$$$
=
 OpenBabel11062410483D

 32 36  0  0  1  0  0  0  0  0999 V2000
  161.3410  207.8330  155.8480 C   0  0  2  0  0  3  0  0  0  0  0  0
  160.7360  207.5490  151.6010 C   0  0  0  0  0  0  0  0  0  0  0  0
  161.0290  202.7060  151.7040 C   0  0  0  0  0  3  0  0  0  0  0  0
  160.8510  202.7110  150.3210 C   0  0  0  0  0  3  0  0  0  0  0  0
  160.9100  208.8850  153.6130 C   0  0  0  0  0  0  0  0  0  0  0  0
  161.0810  206.4690  153.7530 C   0  0  0  0  0  3  0  0  0  0  0  0
  162.6850  207.6200  156.0900 F   0  0  0  0  0  0  0  0  0  0  0  0
  161.0500  203.9180  152.3940 C   0  0  0  0  0  3  0  0  0  0  0  0
  160.9040  206.3690  152.3630 C   0  0  0  0  0  0  0  0  0  0  0  0
  160.8920  205.1280  151.7030 C   0  0  0  0  0  0  0  0  0  0  0  0
  160.5560  206.2870  149.5910 C   0  0  0  0  0  0  0  0  0  0  0  0
  160.9070  210.2680  155.5520 C   0  0  0  0  0  0  0  0  0  0  0  0
  161.0780  207.7190  154.3770 C   0  0  0  0  0  0  0  0  0  0  0  0
  160.8830  210.1620  154.2560 N   0  0  0  0  0  0  0  0  0  0  0  0
  160.9680  209.1190  156.3550 O   0  0  0  0  0  0  0  0  0  0  0  0
  160.6980  203.8860  149.6550 N   0  0  0  0  0  0  0  0  0  0  0  0
  160.7140  205.0860  150.3010 C   0  0  0  0  0  0  0  0  0  0  0  0
  160.7390  208.7970  152.2300 C   0  0  0  0  0  3  0  0  0  0  0  0
  160.5650  207.4740  150.2550 N   0  0  0  0  0  0  0  0  0  0  0  0
  160.8360  211.5890  156.1850 C   0  0  0  0  0  0  0  0  0  0  0  0
  161.5480  211.8440  157.1960 O   0  0  0  0  0  0  0  0  0  0  0  0
  159.9770  212.5550  155.6610 O   0  0  0  0  0  0  0  0  0  0  0  0
  158.5680  212.4610  155.8010 C   0  0  0  0  0  1  0  0  0  0  0  0
  160.3290  206.2850  148.1140 C   0  0  0  0  0  2  0  0  0  0  0  0
  161.2140  202.3010  146.4230 C   0  0  0  0  0  1  0  0  0  0  0  0
  160.5300  204.7000  146.4020 C   0  0  0  0  0  2  0  0  0  0  0  0
  162.3500  206.2020  146.8910 C   0  0  2  0  0  3  0  0  0  0  0  0
  163.0600  205.5260  145.7030 C   0  0  0  0  0  2  0  0  0  0  0  0
  162.8850  204.0110  145.7450 C   0  0  0  0  0  2  0  0  0  0  0  0
  161.4020  203.6360  145.7300 C   0  0  1  0  0  3  0  0  0  0  0  0
  163.3830  206.5160  147.9590 C   0  0  0  0  0  1  0  0  0  0  0  0
  161.2700  205.3800  147.4680 N   0  0  0  0  0  0  0  0  0  0  0  0
  1  7  1  6  0  0  0
  1 15  1  0  0  0  0
  2 18  2  0  0  0  0
  2  9  1  0  0  0  0
  3  8  1  0  0  0  0
  4  3  2  0  0  0  0
  5 14  1  0  0  0  0
  5 13  2  0  0  0  0
  6 13  1  0  0  0  0
  9  6  2  0  0  0  0
 10  9  1  0  0  0  0
 10  8  2  0  0  0  0
 11 19  2  0  0  0  0
 11 17  1  0  0  0  0
 12 20  1  0  0  0  0
 12 15  1  0  0  0  0
 13  1  1  0  0  0  0
 14 12  2  0  0  0  0
 16 17  2  0  0  0  0
 16  4  1  0  0  0  0
 17 10  1  0  0  0  0
 18  5  1  0  0  0  0
 19  2  1  0  0  0  0
 20 21  2  0  0  0  0
 22 23  1  0  0  0  0
 22 20  1  0  0  0  0
 24 11  1  0  0  0  0
 26 32  1  0  0  0  0
 27 32  1  0  0  0  0
 27 31  1  1  0  0  0
 28 29  1  0  0  0  0
 28 27  1  0  0  0  0
 30 29  1  0  0  0  0
 30 26  1  0  0  0  0
 30 25  1  1  0  0  0
 32 24  1  0  0  0  0
M  END
>  <MODEL>
9

>  <REMARK>
 VINA RESULT:      -6.3      3.919      8.619
  Name = 
  4 active torsions:
  status: ('A' for Active; 'I' for Inactive)
    1  A    between atoms: C_1  and  O_10
    2  A    between atoms: C_1  and  C_19
    3  A    between atoms: C_16  and  C_27
    4  A    between atoms: C_27  and  N_32
                            x       y       z     vdW  Elec       q    Type
                         _______ _______ _______ _____ _____    ______ ____

>  <TORSDO>
F 4

$$$$
