=
 OpenBabel11062410103D

 43 49  0  0  1  0  0  0  0  0999 V2000
  161.2090  203.9660  148.5730 C   0  0  0  0  0  0  0  0  0  0  0  0
  161.6900  208.3040  151.0990 C   0  0  0  0  0  0  0  0  0  0  0  0
  161.8790  210.3720  149.2000 C   0  0  0  0  0  0  0  0  0  0  0  0
  161.4040  205.6520  150.2990 C   0  0  0  0  0  0  0  0  0  0  0  0
  161.3010  204.9560  147.5910 C   0  0  0  0  0  3  0  0  0  0  0  0
  161.0580  202.5410  148.1790 C   0  0  0  0  0  1  0  0  0  0  0  0
  161.4970  206.6610  149.3130 C   0  0  0  0  0  0  0  0  0  0  0  0
  161.2600  204.3130  149.9260 C   0  0  0  0  0  3  0  0  0  0  0  0
  161.4440  206.2970  147.9570 C   0  0  0  0  0  3  0  0  0  0  0  0
  161.7340  209.0440  148.7820 C   0  0  0  0  0  3  0  0  0  0  0  0
  161.6410  208.0040  149.7150 C   0  0  0  0  0  0  0  0  0  0  0  0
  161.6000  207.3000  152.0140 N   0  0  0  0  0  0  0  0  0  0  0  0
  161.8290  209.6330  151.5290 C   0  0  0  0  0  0  0  0  0  0  0  0
  161.9270  210.6520  150.5710 C   0  0  0  0  0  3  0  0  0  0  0  0
  161.4600  205.9990  151.6470 C   0  0  0  0  0  3  0  0  0  0  0  0
  161.9740  211.4330  148.2360 N   0  0  0  0  0  0  0  0  0  0  0  0
  161.0120  211.6340  147.1700 C   0  0  0  0  0  2  0  0  0  0  0  0
  163.0500  212.4050  148.2190 C   0  0  0  0  0  2  0  0  0  0  0  0
  161.4310  212.9120  146.4710 C   0  0  1  0  0  3  0  0  0  0  0  0
  162.8390  213.2310  146.9650 C   0  0  0  0  0  2  0  0  0  0  0  0
  161.4270  212.6970  144.9680 C   0  0  0  0  0  2  0  0  0  0  0  0
  160.5900  213.7630  144.2610 C   0  0  2  0  0  3  0  0  0  0  0  0
  159.3650  214.4520  142.2950 C   0  0  0  0  0  2  0  0  0  0  0  0
  158.8840  213.8090  144.8960 S   0  0  0  0  0  0  0  0  0  0  0  0
  160.5470  213.6140  142.7420 C   0  0  1  0  0  0  0  0  0  0  0  0
  161.8230  214.1810  142.1460 C   0  0  0  0  0  1  0  0  0  0  0  0
  158.2130  214.1950  143.2480 C   0  0  0  0  0  2  0  0  0  0  0  0
  160.3560  212.1480  142.3120 C   0  0  0  0  0  2  0  0  0  0  0  0
  160.7010  211.9530  140.9110 N   0  0  0  0  0  0  0  0  0  0  0  0
  159.7280  211.2340  138.7910 C   0  0  0  0  0  3  0  0  0  0  0  0
  161.9560  210.5190  139.3950 C   0  0  0  0  0  2  0  0  0  0  0  0
  160.8470  210.6770  138.4690 N   0  0  0  0  0  0  0  0  0  0  0  0
  161.5200  210.7480  140.8430 C   0  0  0  0  0  2  0  0  0  0  0  0
  159.4530  211.6760  140.2050 C   0  0  0  0  0  2  0  0  0  0  0  0
  161.8910  209.8940  152.9100 O   0  0  0  0  0  0  0  0  0  0  0  0
  159.4970  209.9540  155.7770 C   0  0  0  0  0  3  0  0  0  0  0  0
  158.7020  211.0440  155.4100 C   0  0  0  0  0  0  0  0  0  0  0  0
  160.0230  211.3280  153.4010 C   0  0  0  0  0  3  0  0  0  0  0  0
  160.5560  209.5570  154.9570 C   0  0  0  0  0  3  0  0  0  0  0  0
  160.8270  210.2390  153.7590 C   0  0  0  0  0  0  0  0  0  0  0  0
  158.9620  211.7270  154.2190 C   0  0  0  0  0  3  0  0  0  0  0  0
  156.3630  211.3090  155.5690 O   0  0  0  0  0  1  0  0  0  0  0  0
  157.5590  211.4550  156.2710 C   0  0  0  0  0  2  0  0  0  0  0  0
  1  8  1  0  0  0  0
  2 13  1  0  0  0  0
  2 12  1  0  0  0  0
  3 14  1  0  0  0  0
  4 15  1  0  0  0  0
  5  9  1  0  0  0  0
  5  1  2  0  0  0  0
  6  1  1  0  0  0  0
  7 11  1  0  0  0  0
  7  4  1  0  0  0  0
  8  4  2  0  0  0  0
  9  7  2  0  0  0  0
 10  3  2  0  0  0  0
 10 11  1  0  0  0  0
 11  2  2  0  0  0  0
 13 35  1  0  0  0  0
 14 13  2  0  0  0  0
 15 12  2  0  0  0  0
 16  3  1  0  0  0  0
 17 16  1  0  0  0  0
 18 16  1  0  0  0  0
 19 21  1  6  0  0  0
 19 20  1  0  0  0  0
 19 17  1  0  0  0  0
 20 18  1  0  0  0  0
 22 24  1  0  0  0  0
 22 21  1  1  0  0  0
 23 25  1  0  0  0  0
 23 27  1  0  0  0  0
 25 26  1  6  0  0  0
 25 22  1  0  0  0  0
 27 24  1  0  0  0  0
 28 25  1  0  0  0  0
 29 28  1  0  0  0  0
 30 34  1  0  0  0  0
 31 33  1  0  0  0  0
 32 30  2  0  0  0  0
 32 31  1  0  0  0  0
 33 29  1  0  0  0  0
 34 29  1  0  0  0  0
 35 40  1  0  0  0  0
 37 36  1  0  0  0  0
 37 43  1  0  0  0  0
 38 40  2  0  0  0  0
 38 41  1  0  0  0  0
 39 36  2  0  0  0  0
 40 39  1  0  0  0  0
 41 37  2  0  0  0  0
 42 43  1  0  0  0  0
M  END
>  <MODEL>
1

>  <REMARK>
 VINA RESULT:      -8.8      0.000      0.000
  Name = 
  8 active torsions:
  status: ('A' for Active; 'I' for Inactive)
    1  A    between atoms: O_1  and  C_34
    2  A    between atoms: O_1  and  C_35
    3  A    between atoms: N_2  and  C_13
    4  A    between atoms: C_3  and  C_4
    5  A    between atoms: C_3  and  C_12
    6  A    between atoms: N_11  and  C_14
    7  A    between atoms: C_14  and  C_22
    8  A    between atoms: C_19  and  C_37
                            x       y       z     vdW  Elec       q    Type
                         _______ _______ _______ _____ _____    ______ ____

>  <TORSDO>
F 8

$$$$
=
 OpenBabel11062410103D

 43 49  0  0  1  0  0  0  0  0999 V2000
  160.9750  202.1430  146.8470 C   0  0  0  0  0  0  0  0  0  0  0  0
  161.8830  206.8030  148.5480 C   0  0  0  0  0  0  0  0  0  0  0  0
  161.3760  206.8070  151.3160 C   0  0  0  0  0  0  0  0  0  0  0  0
  161.5550  204.4860  147.0380 C   0  0  0  0  0  0  0  0  0  0  0  0
  160.7070  202.0950  148.2180 C   0  0  0  0  0  3  0  0  0  0  0  0
  160.8070  200.9250  146.0130 C   0  0  0  0  0  1  0  0  0  0  0  0
  161.2880  204.4470  148.4270 C   0  0  0  0  0  0  0  0  0  0  0  0
  161.3990  203.3380  146.2580 C   0  0  0  0  0  3  0  0  0  0  0  0
  160.8630  203.2380  149.0050 C   0  0  0  0  0  3  0  0  0  0  0  0
  161.2070  205.6340  150.5710 C   0  0  0  0  0  3  0  0  0  0  0  0
  161.4540  205.6170  149.1920 C   0  0  0  0  0  0  0  0  0  0  0  0
  162.1250  206.7970  147.2080 N   0  0  0  0  0  0  0  0  0  0  0  0
  162.0610  207.9840  149.2860 C   0  0  0  0  0  0  0  0  0  0  0  0
  161.7990  207.9720  150.6640 C   0  0  0  0  0  3  0  0  0  0  0  0
  161.9720  205.6790  146.4520 C   0  0  0  0  0  3  0  0  0  0  0  0
  161.1210  206.8160  152.7300 N   0  0  0  0  0  0  0  0  0  0  0  0
  160.1190  207.6560  153.3560 C   0  0  0  0  0  2  0  0  0  0  0  0
  161.8490  205.9990  153.6800 C   0  0  0  0  0  2  0  0  0  0  0  0
  160.1140  207.2680  154.8210 C   0  0  1  0  0  3  0  0  0  0  0  0
  161.3680  206.4320  155.0510 C   0  0  0  0  0  2  0  0  0  0  0  0
  160.1400  208.5200  155.6820 C   0  0  0  0  0  2  0  0  0  0  0  0
  161.5320  209.1510  155.6950 C   0  0  2  0  0  3  0  0  0  0  0  0
  162.8920  211.1370  155.9100 C   0  0  0  0  0  2  0  0  0  0  0  0
  162.4040  208.8230  157.2600 S   0  0  0  0  0  0  0  0  0  0  0  0
  161.5350  210.6550  155.4340 C   0  0  1  0  0  0  0  0  0  0  0  0
  161.4060  210.9060  153.9420 C   0  0  0  0  0  1  0  0  0  0  0  0
  163.1980  210.4620  157.2340 C   0  0  0  0  0  2  0  0  0  0  0  0
  160.4120  211.3760  156.2010 C   0  0  0  0  0  2  0  0  0  0  0  0
  159.6050  212.2020  155.3140 N   0  0  0  0  0  0  0  0  0  0  0  0
  158.6770  214.4520  155.1250 C   0  0  0  0  0  3  0  0  0  0  0  0
  157.3360  212.5420  154.4990 C   0  0  0  0  0  2  0  0  0  0  0  0
  157.6170  213.9660  154.5710 N   0  0  0  0  0  0  0  0  0  0  0  0
  158.2270  211.7400  155.4480 C   0  0  0  0  0  2  0  0  0  0  0  0
  159.6640  213.5640  155.8380 C   0  0  0  0  0  2  0  0  0  0  0  0
  162.4720  209.1480  148.6110 O   0  0  0  0  0  0  0  0  0  0  0  0
  161.4270  212.6880  148.0390 C   0  0  0  0  0  3  0  0  0  0  0  0
  161.0290  213.0390  149.3320 C   0  0  0  0  0  0  0  0  0  0  0  0
  161.6100  210.8210  150.1100 C   0  0  0  0  0  3  0  0  0  0  0  0
  161.9120  211.4040  147.7830 C   0  0  0  0  0  3  0  0  0  0  0  0
  162.0110  210.4590  148.8190 C   0  0  0  0  0  0  0  0  0  0  0  0
  161.1250  212.1070  150.3680 C   0  0  0  0  0  3  0  0  0  0  0  0
  159.4800  214.3600  150.5250 O   0  0  0  0  0  1  0  0  0  0  0  0
  160.5320  214.4140  149.6110 C   0  0  0  0  0  2  0  0  0  0  0  0
  1  5  1  0  0  0  0
  2 11  1  0  0  0  0
  2 13  1  0  0  0  0
  3 16  1  0  0  0  0
  4  7  1  0  0  0  0
  5  9  2  0  0  0  0
  6  1  1  0  0  0  0
  7  9  1  0  0  0  0
  7 11  2  0  0  0  0
  8  1  2  0  0  0  0
  8  4  1  0  0  0  0
 10  3  2  0  0  0  0
 11 10  1  0  0  0  0
 12  2  2  0  0  0  0
 13 14  2  0  0  0  0
 14  3  1  0  0  0  0
 15  4  2  0  0  0  0
 15 12  1  0  0  0  0
 16 17  1  0  0  0  0
 16 18  1  0  0  0  0
 17 19  1  0  0  0  0
 18 20  1  0  0  0  0
 19 20  1  0  0  0  0
 19 21  1  1  0  0  0
 22 21  1  1  0  0  0
 22 24  1  0  0  0  0
 23 27  1  0  0  0  0
 25 26  1  6  0  0  0
 25 22  1  0  0  0  0
 25 23  1  0  0  0  0
 25 28  1  0  0  0  0
 27 24  1  0  0  0  0
 29 33  1  0  0  0  0
 29 34  1  0  0  0  0
 29 28  1  0  0  0  0
 30 34  1  0  0  0  0
 31 32  1  0  0  0  0
 31 33  1  0  0  0  0
 32 30  2  0  0  0  0
 35 40  1  0  0  0  0
 35 13  1  0  0  0  0
 36 37  1  0  0  0  0
 37 43  1  0  0  0  0
 37 41  2  0  0  0  0
 38 41  1  0  0  0  0
 39 36  2  0  0  0  0
 39 40  1  0  0  0  0
 40 38  2  0  0  0  0
 43 42  1  0  0  0  0
M  END
>  <MODEL>
2

>  <REMARK>
 VINA RESULT:      -8.0      4.681      9.466
  Name = 
  8 active torsions:
  status: ('A' for Active; 'I' for Inactive)
    1  A    between atoms: O_1  and  C_34
    2  A    between atoms: O_1  and  C_35
    3  A    between atoms: N_2  and  C_13
    4  A    between atoms: C_3  and  C_4
    5  A    between atoms: C_3  and  C_12
    6  A    between atoms: N_11  and  C_14
    7  A    between atoms: C_14  and  C_22
    8  A    between atoms: C_19  and  C_37
                            x       y       z     vdW  Elec       q    Type
                         _______ _______ _______ _____ _____    ______ ____

>  <TORSDO>
F 8

$$$$
=
 OpenBabel11062410103D

 43 49  0  0  1  0  0  0  0  0999 V2000
  161.3060  204.1050  148.1450 C   0  0  0  0  0  0  0  0  0  0  0  0
  161.5860  208.3660  150.8270 C   0  0  0  0  0  0  0  0  0  0  0  0
  161.8750  210.4930  149.0080 C   0  0  0  0  0  0  0  0  0  0  0  0
  161.3760  205.7380  149.9310 C   0  0  0  0  0  0  0  0  0  0  0  0
  161.4510  205.1260  147.2010 C   0  0  0  0  0  3  0  0  0  0  0  0
  161.1930  202.6910  147.6990 C   0  0  0  0  0  1  0  0  0  0  0  0
  161.5220  206.7780  148.9840 C   0  0  0  0  0  0  0  0  0  0  0  0
  161.2680  204.4100  149.5090 C   0  0  0  0  0  3  0  0  0  0  0  0
  161.5570  206.4550  147.6160 C   0  0  0  0  0  3  0  0  0  0  0  0
  161.7690  209.1780  148.5420 C   0  0  0  0  0  3  0  0  0  0  0  0
  161.6270  208.1080  149.4350 C   0  0  0  0  0  0  0  0  0  0  0  0
  161.4480  207.3330  151.7040 N   0  0  0  0  0  0  0  0  0  0  0  0
  161.6850  209.6810  151.3060 C   0  0  0  0  0  0  0  0  0  0  0  0
  161.8340  210.7310  150.3870 C   0  0  0  0  0  3  0  0  0  0  0  0
  161.3440  206.0440  151.2900 C   0  0  0  0  0  3  0  0  0  0  0  0
  162.0200  211.5850  148.0850 N   0  0  0  0  0  0  0  0  0  0  0  0
  160.8980  212.2840  147.4900 C   0  0  0  0  0  2  0  0  0  0  0  0
  163.3040  212.0910  147.6390 C   0  0  0  0  0  2  0  0  0  0  0  0
  161.5000  213.4150  146.6800 C   0  0  1  0  0  3  0  0  0  0  0  0
  162.9930  213.1220  146.5720 C   0  0  0  0  0  2  0  0  0  0  0  0
  160.8610  213.4540  145.3030 C   0  0  0  0  0  2  0  0  0  0  0  0
  161.8900  213.1690  144.2090 C   0  0  2  0  0  3  0  0  0  0  0  0
  162.4530  213.1700  141.8590 C   0  0  0  0  0  2  0  0  0  0  0  0
  163.1800  214.4520  144.1480 S   0  0  0  0  0  0  0  0  0  0  0  0
  161.2880  213.0090  142.8160 C   0  0  1  0  0  0  0  0  0  0  0  0
  160.7110  211.6100  142.6760 C   0  0  0  0  0  1  0  0  0  0  0  0
  163.2990  214.3370  142.3350 C   0  0  0  0  0  2  0  0  0  0  0  0
  160.2090  214.0670  142.5280 C   0  0  0  0  0  2  0  0  0  0  0  0
  159.3900  213.6980  141.3820 N   0  0  0  0  0  0  0  0  0  0  0  0
  158.9790  214.3140  139.0560 C   0  0  0  0  0  3  0  0  0  0  0  0
  157.1210  213.7780  140.5030 C   0  0  0  0  0  2  0  0  0  0  0  0
  157.7250  214.0550  139.2110 N   0  0  0  0  0  0  0  0  0  0  0  0
  158.0400  214.1820  141.6560 C   0  0  0  0  0  2  0  0  0  0  0  0
  159.9020  214.4510  140.2400 C   0  0  0  0  0  2  0  0  0  0  0  0
  161.6580  209.9000  152.6950 O   0  0  0  0  0  0  0  0  0  0  0  0
  159.2780  210.2210  155.5560 C   0  0  0  0  0  3  0  0  0  0  0  0
  158.3060  211.0410  154.9770 C   0  0  0  0  0  0  0  0  0  0  0  0
  159.5650  211.0680  152.9090 C   0  0  0  0  0  3  0  0  0  0  0  0
  160.3940  209.8300  154.8130 C   0  0  0  0  0  3  0  0  0  0  0  0
  160.5460  210.2480  153.4800 C   0  0  0  0  0  0  0  0  0  0  0  0
  158.4470  211.4600  153.6510 C   0  0  0  0  0  3  0  0  0  0  0  0
  156.0710  211.7920  154.8930 O   0  0  0  0  0  1  0  0  0  0  0  0
  157.1050  211.4410  155.7600 C   0  0  0  0  0  2  0  0  0  0  0  0
  1  8  1  0  0  0  0
  2 13  1  0  0  0  0
  2 12  1  0  0  0  0
  3 14  1  0  0  0  0
  4 15  1  0  0  0  0
  5  9  1  0  0  0  0
  5  1  2  0  0  0  0
  6  1  1  0  0  0  0
  7 11  1  0  0  0  0
  7  4  1  0  0  0  0
  8  4  2  0  0  0  0
  9  7  2  0  0  0  0
 10  3  2  0  0  0  0
 10 11  1  0  0  0  0
 11  2  2  0  0  0  0
 13 35  1  0  0  0  0
 14 13  2  0  0  0  0
 15 12  2  0  0  0  0
 16  3  1  0  0  0  0
 17 16  1  0  0  0  0
 18 16  1  0  0  0  0
 19 21  1  6  0  0  0
 19 17  1  0  0  0  0
 20 19  1  0  0  0  0
 20 18  1  0  0  0  0
 22 21  1  1  0  0  0
 23 27  1  0  0  0  0
 23 25  1  0  0  0  0
 24 22  1  0  0  0  0
 25 26  1  6  0  0  0
 25 22  1  0  0  0  0
 27 24  1  0  0  0  0
 28 25  1  0  0  0  0
 29 33  1  0  0  0  0
 29 28  1  0  0  0  0
 30 32  2  0  0  0  0
 30 34  1  0  0  0  0
 31 33  1  0  0  0  0
 32 31  1  0  0  0  0
 34 29  1  0  0  0  0
 35 40  1  0  0  0  0
 37 36  1  0  0  0  0
 37 43  1  0  0  0  0
 38 40  2  0  0  0  0
 38 41  1  0  0  0  0
 39 36  2  0  0  0  0
 40 39  1  0  0  0  0
 41 37  2  0  0  0  0
 42 43  1  0  0  0  0
M  END
>  <MODEL>
3

>  <REMARK>
 VINA RESULT:      -7.9      1.487      2.073
  Name = 
  8 active torsions:
  status: ('A' for Active; 'I' for Inactive)
    1  A    between atoms: O_1  and  C_34
    2  A    between atoms: O_1  and  C_35
    3  A    between atoms: N_2  and  C_13
    4  A    between atoms: C_3  and  C_4
    5  A    between atoms: C_3  and  C_12
    6  A    between atoms: N_11  and  C_14
    7  A    between atoms: C_14  and  C_22
    8  A    between atoms: C_19  and  C_37
                            x       y       z     vdW  Elec       q    Type
                         _______ _______ _______ _____ _____    ______ ____

>  <TORSDO>
F 8

$$$$
=
 OpenBabel11062410103D

 43 49  0  0  1  0  0  0  0  0999 V2000
  161.3540  204.0780  146.9050 C   0  0  0  0  0  0  0  0  0  0  0  0
  161.5260  207.5960  150.5150 C   0  0  0  0  0  0  0  0  0  0  0  0
  162.1310  210.0500  149.2760 C   0  0  0  0  0  0  0  0  0  0  0  0
  161.2940  205.2590  149.0180 C   0  0  0  0  0  0  0  0  0  0  0  0
  161.6590  205.2720  146.2430 C   0  0  0  0  0  3  0  0  0  0  0  0
  161.2250  202.8130  146.1350 C   0  0  0  0  0  1  0  0  0  0  0  0
  161.6010  206.4710  148.3570 C   0  0  0  0  0  0  0  0  0  0  0  0
  161.1710  204.0720  148.2910 C   0  0  0  0  0  3  0  0  0  0  0  0
  161.7810  206.4620  146.9640 C   0  0  0  0  0  3  0  0  0  0  0  0
  162.0160  208.8840  148.5100 C   0  0  0  0  0  3  0  0  0  0  0  0
  161.7170  207.6550  149.1120 C   0  0  0  0  0  0  0  0  0  0  0  0
  161.2360  206.4060  151.1090 N   0  0  0  0  0  0  0  0  0  0  0  0
  161.6330  208.7590  151.2920 C   0  0  0  0  0  0  0  0  0  0  0  0
  161.9400  209.9740  150.6620 C   0  0  0  0  0  3  0  0  0  0  0  0
  161.1180  205.2540  150.4000 C   0  0  0  0  0  3  0  0  0  0  0  0
  162.4370  211.3060  148.6510 N   0  0  0  0  0  0  0  0  0  0  0  0
  161.5930  212.4800  148.7600 C   0  0  0  0  0  2  0  0  0  0  0  0
  163.6130  211.5280  147.8330 C   0  0  0  0  0  2  0  0  0  0  0  0
  162.3400  213.5920  148.0510 C   0  0  1  0  0  3  0  0  0  0  0  0
  163.4600  212.9230  147.2600 C   0  0  0  0  0  2  0  0  0  0  0  0
  161.3940  214.3310  147.1190 C   0  0  0  0  0  2  0  0  0  0  0  0
  161.0770  213.4960  145.8790 C   0  0  2  0  0  3  0  0  0  0  0  0
  159.4290  212.6680  144.3180 C   0  0  0  0  0  2  0  0  0  0  0  0
  161.5690  214.3510  144.3480 S   0  0  0  0  0  0  0  0  0  0  0  0
  159.6130  213.0820  145.7650 C   0  0  1  0  0  0  0  0  0  0  0  0
  159.3560  211.8890  146.6680 C   0  0  0  0  0  1  0  0  0  0  0  0
  160.1390  213.6810  143.4400 C   0  0  0  0  0  2  0  0  0  0  0  0
  158.6590  214.2380  146.1160 C   0  0  0  0  0  2  0  0  0  0  0  0
  157.6790  213.8370  147.1150 N   0  0  0  0  0  0  0  0  0  0  0  0
  155.3810  214.2750  147.8140 C   0  0  0  0  0  3  0  0  0  0  0  0
  157.1170  214.0260  149.4770 C   0  0  0  0  0  2  0  0  0  0  0  0
  155.7320  214.1350  149.0490 N   0  0  0  0  0  0  0  0  0  0  0  0
  158.0860  214.4530  148.3740 C   0  0  0  0  0  2  0  0  0  0  0  0
  156.4070  214.4400  146.7230 C   0  0  0  0  0  2  0  0  0  0  0  0
  161.4530  208.6620  152.6840 O   0  0  0  0  0  0  0  0  0  0  0  0
  159.3400  211.3560  154.1770 C   0  0  0  0  0  3  0  0  0  0  0  0
  160.0310  211.5770  155.3720 C   0  0  0  0  0  0  0  0  0  0  0  0
  161.6440  209.8830  154.7480 C   0  0  0  0  0  3  0  0  0  0  0  0
  159.8000  210.3960  153.2730 C   0  0  0  0  0  3  0  0  0  0  0  0
  160.9600  209.6530  153.5490 C   0  0  0  0  0  0  0  0  0  0  0  0
  161.1860  210.8440  155.6540 C   0  0  0  0  0  3  0  0  0  0  0  0
  159.6150  213.8720  155.7260 O   0  0  0  0  0  1  0  0  0  0  0  0
  159.5540  212.6150  156.3260 C   0  0  0  0  0  2  0  0  0  0  0  0
  1  8  1  0  0  0  0
  2 12  1  0  0  0  0
  2 13  1  0  0  0  0
  3 14  1  0  0  0  0
  4 15  1  0  0  0  0
  5  1  2  0  0  0  0
  5  9  1  0  0  0  0
  6  1  1  0  0  0  0
  7  4  1  0  0  0  0
  7 11  1  0  0  0  0
  8  4  2  0  0  0  0
  9  7  2  0  0  0  0
 10 11  1  0  0  0  0
 10  3  2  0  0  0  0
 11  2  2  0  0  0  0
 13 35  1  0  0  0  0
 14 13  2  0  0  0  0
 15 12  2  0  0  0  0
 16 17  1  0  0  0  0
 16  3  1  0  0  0  0
 18 16  1  0  0  0  0
 19 21  1  6  0  0  0
 19 17  1  0  0  0  0
 20 18  1  0  0  0  0
 20 19  1  0  0  0  0
 22 21  1  1  0  0  0
 23 25  1  0  0  0  0
 24 22  1  0  0  0  0
 25 22  1  0  0  0  0
 25 28  1  0  0  0  0
 25 26  1  1  0  0  0
 27 23  1  0  0  0  0
 27 24  1  0  0  0  0
 28 29  1  0  0  0  0
 29 33  1  0  0  0  0
 30 32  2  0  0  0  0
 32 31  1  0  0  0  0
 33 31  1  0  0  0  0
 34 29  1  0  0  0  0
 34 30  1  0  0  0  0
 35 40  1  0  0  0  0
 36 37  1  0  0  0  0
 37 41  2  0  0  0  0
 37 43  1  0  0  0  0
 38 41  1  0  0  0  0
 39 40  1  0  0  0  0
 39 36  2  0  0  0  0
 40 38  2  0  0  0  0
 42 43  1  0  0  0  0
M  END
>  <MODEL>
4

>  <REMARK>
 VINA RESULT:      -7.6      2.696      4.218
  Name = 
  8 active torsions:
  status: ('A' for Active; 'I' for Inactive)
    1  A    between atoms: O_1  and  C_34
    2  A    between atoms: O_1  and  C_35
    3  A    between atoms: N_2  and  C_13
    4  A    between atoms: C_3  and  C_4
    5  A    between atoms: C_3  and  C_12
    6  A    between atoms: N_11  and  C_14
    7  A    between atoms: C_14  and  C_22
    8  A    between atoms: C_19  and  C_37
                            x       y       z     vdW  Elec       q    Type
                         _______ _______ _______ _____ _____    ______ ____

>  <TORSDO>
F 8

$$$$
=
 OpenBabel11062410103D

 43 49  0  0  1  0  0  0  0  0999 V2000
  161.0310  202.2120  147.2750 C   0  0  0  0  0  0  0  0  0  0  0  0
  161.8180  207.0350  148.5190 C   0  0  0  0  0  0  0  0  0  0  0  0
  161.2750  207.2990  151.2680 C   0  0  0  0  0  0  0  0  0  0  0  0
  161.5580  204.5740  147.2410 C   0  0  0  0  0  0  0  0  0  0  0  0
  160.7470  202.2920  148.6420 C   0  0  0  0  0  3  0  0  0  0  0  0
  160.9000  200.9140  146.5630 C   0  0  0  0  0  1  0  0  0  0  0  0
  161.2750  204.6650  148.6240 C   0  0  0  0  0  0  0  0  0  0  0  0
  161.4370  203.3520  146.5760 C   0  0  0  0  0  3  0  0  0  0  0  0
  160.8680  203.5100  149.3140 C   0  0  0  0  0  3  0  0  0  0  0  0
  161.1410  206.0560  150.6400 C   0  0  0  0  0  3  0  0  0  0  0  0
  161.4060  205.9080  149.2730 C   0  0  0  0  0  0  0  0  0  0  0  0
  162.0770  206.9030  147.1890 N   0  0  0  0  0  0  0  0  0  0  0  0
  161.9610  208.2860  149.1390 C   0  0  0  0  0  0  0  0  0  0  0  0
  161.6820  208.4040  150.5090 C   0  0  0  0  0  3  0  0  0  0  0  0
  161.9580  205.7130  146.5450 C   0  0  0  0  0  3  0  0  0  0  0  0
  161.0020  207.4410  152.6710 N   0  0  0  0  0  0  0  0  0  0  0  0
  160.4670  208.6510  153.2630 C   0  0  0  0  0  2  0  0  0  0  0  0
  161.2480  206.3950  153.6440 C   0  0  0  0  0  2  0  0  0  0  0  0
  160.2350  208.3270  154.7250 C   0  0  1  0  0  3  0  0  0  0  0  0
  160.9670  207.0170  154.9980 C   0  0  0  0  0  2  0  0  0  0  0  0
  160.7930  209.4430  155.5920 C   0  0  0  0  0  2  0  0  0  0  0  0
  159.6710  210.2580  156.2340 C   0  0  2  0  0  3  0  0  0  0  0  0
  158.3790  212.2990  156.2910 C   0  0  0  0  0  2  0  0  0  0  0  0
  158.0280  209.6590  155.7240 S   0  0  0  0  0  0  0  0  0  0  0  0
  159.7560  211.7570  155.9620 C   0  0  1  0  0  0  0  0  0  0  0  0
  160.7800  212.3790  156.8950 C   0  0  0  0  0  1  0  0  0  0  0  0
  157.3450  211.3470  155.7180 C   0  0  0  0  0  2  0  0  0  0  0  0
  160.1130  212.0570  154.4950 C   0  0  0  0  0  2  0  0  0  0  0  0
  158.9450  212.4860  153.7380 N   0  0  0  0  0  0  0  0  0  0  0  0
  158.1340  212.7000  151.4460 C   0  0  0  0  0  3  0  0  0  0  0  0
  157.6850  214.4510  153.0490 C   0  0  0  0  0  2  0  0  0  0  0  0
  157.5110  213.7840  151.7690 N   0  0  0  0  0  0  0  0  0  0  0  0
  158.9230  213.9440  153.7890 C   0  0  0  0  0  2  0  0  0  0  0  0
  159.1790  212.0990  152.3490 C   0  0  0  0  0  2  0  0  0  0  0  0
  162.3560  209.3880  148.3580 O   0  0  0  0  0  0  0  0  0  0  0  0
  161.3600  212.9180  149.0620 C   0  0  0  0  0  3  0  0  0  0  0  0
  160.4660  213.1360  148.0100 C   0  0  0  0  0  0  0  0  0  0  0  0
  160.8330  210.8720  147.2330 C   0  0  0  0  0  3  0  0  0  0  0  0
  161.9930  211.6800  149.1940 C   0  0  0  0  0  3  0  0  0  0  0  0
  161.7320  210.6440  148.2820 C   0  0  0  0  0  0  0  0  0  0  0  0
  160.1980  212.1110  147.0990 C   0  0  0  0  0  3  0  0  0  0  0  0
  158.6000  214.2910  147.1440 O   0  0  0  0  0  1  0  0  0  0  0  0
  159.7740  214.4470  147.8790 C   0  0  0  0  0  2  0  0  0  0  0  0
  1  5  1  0  0  0  0
  2 13  2  0  0  0  0
  2 11  1  0  0  0  0
  3 16  1  0  0  0  0
  4  7  2  0  0  0  0
  5  9  2  0  0  0  0
  6  1  1  0  0  0  0
  7 11  1  0  0  0  0
  7  9  1  0  0  0  0
  8  4  1  0  0  0  0
  8  1  2  0  0  0  0
 10  3  1  0  0  0  0
 11 10  2  0  0  0  0
 12  2  1  0  0  0  0
 13 14  1  0  0  0  0
 14  3  2  0  0  0  0
 15 12  2  0  0  0  0
 15  4  1  0  0  0  0
 16 17  1  0  0  0  0
 16 18  1  0  0  0  0
 17 19  1  0  0  0  0
 18 20  1  0  0  0  0
 19 20  1  0  0  0  0
 19 21  1  1  0  0  0
 22 21  1  6  0  0  0
 24 22  1  0  0  0  0
 25 22  1  0  0  0  0
 25 23  1  0  0  0  0
 25 26  1  1  0  0  0
 27 24  1  0  0  0  0
 27 23  1  0  0  0  0
 28 25  1  0  0  0  0
 29 33  1  0  0  0  0
 29 28  1  0  0  0  0
 30 32  2  0  0  0  0
 30 34  1  0  0  0  0
 31 33  1  0  0  0  0
 32 31  1  0  0  0  0
 34 29  1  0  0  0  0
 35 13  1  0  0  0  0
 36 39  1  0  0  0  0
 37 36  2  0  0  0  0
 38 40  1  0  0  0  0
 40 35  1  0  0  0  0
 40 39  2  0  0  0  0
 41 38  2  0  0  0  0
 41 37  1  0  0  0  0
 42 43  1  0  0  0  0
 43 37  1  0  0  0  0
M  END
>  <MODEL>
5

>  <REMARK>
 VINA RESULT:      -7.5      4.381      8.882
  Name = 
  8 active torsions:
  status: ('A' for Active; 'I' for Inactive)
    1  A    between atoms: O_1  and  C_34
    2  A    between atoms: O_1  and  C_35
    3  A    between atoms: N_2  and  C_13
    4  A    between atoms: C_3  and  C_4
    5  A    between atoms: C_3  and  C_12
    6  A    between atoms: N_11  and  C_14
    7  A    between atoms: C_14  and  C_22
    8  A    between atoms: C_19  and  C_37
                            x       y       z     vdW  Elec       q    Type
                         _______ _______ _______ _____ _____    ______ ____

>  <TORSDO>
F 8

$$$$
=
 OpenBabel11062410103D

 43 49  0  0  1  0  0  0  0  0999 V2000
  155.6080  213.0430  156.2830 C   0  0  0  0  0  0  0  0  0  0  0  0
  158.9940  212.8540  152.5510 C   0  0  0  0  0  0  0  0  0  0  0  0
  160.2200  210.3220  152.6470 C   0  0  0  0  0  0  0  0  0  0  0  0
  157.0160  213.5550  154.3810 C   0  0  0  0  0  0  0  0  0  0  0  0
  156.1880  211.7740  156.3750 C   0  0  0  0  0  3  0  0  0  0  0  0
  154.5510  213.4480  157.2460 C   0  0  0  0  0  1  0  0  0  0  0  0
  157.6080  212.2730  154.4650 C   0  0  0  0  0  0  0  0  0  0  0  0
  156.0210  213.9320  155.2860 C   0  0  0  0  0  3  0  0  0  0  0  0
  157.1820  211.3900  155.4710 C   0  0  0  0  0  3  0  0  0  0  0  0
  159.2260  210.6600  153.5740 C   0  0  0  0  0  3  0  0  0  0  0  0
  158.6080  211.9160  153.5400 C   0  0  0  0  0  0  0  0  0  0  0  0
  158.3990  214.0780  152.5090 N   0  0  0  0  0  0  0  0  0  0  0  0
  159.9850  212.5250  151.6130 C   0  0  0  0  0  0  0  0  0  0  0  0
  160.5910  211.2610  151.6760 C   0  0  0  0  0  3  0  0  0  0  0  0
  157.4330  214.4420  153.3910 C   0  0  0  0  0  3  0  0  0  0  0  0
  160.8480  209.0310  152.6890 N   0  0  0  0  0  0  0  0  0  0  0  0
  161.9320  208.6410  151.8090 C   0  0  0  0  0  2  0  0  0  0  0  0
  160.4550  207.9790  153.6050 C   0  0  0  0  0  2  0  0  0  0  0  0
  162.3580  207.2610  152.2680 C   0  0  1  0  0  3  0  0  0  0  0  0
  161.2640  206.7610  153.2050 C   0  0  0  0  0  2  0  0  0  0  0  0
  162.4940  206.3410  151.0660 C   0  0  0  0  0  2  0  0  0  0  0  0
  161.3800  205.2950  151.0430 C   0  0  2  0  0  3  0  0  0  0  0  0
  160.0140  203.7660  149.7630 C   0  0  0  0  0  2  0  0  0  0  0  0
  161.9560  203.6850  151.6700 S   0  0  0  0  0  0  0  0  0  0  0  0
  160.7460  205.0910  149.6700 C   0  0  1  0  0  0  0  0  0  0  0  0
  159.7440  206.2030  149.4100 C   0  0  0  0  0  1  0  0  0  0  0  0
  160.9120  202.7790  150.4850 C   0  0  0  0  0  2  0  0  0  0  0  0
  161.7990  205.0430  148.5490 C   0  0  0  0  0  2  0  0  0  0  0  0
  161.1820  204.8720  147.2420 N   0  0  0  0  0  0  0  0  0  0  0  0
  161.2710  203.4440  145.2640 C   0  0  0  0  0  3  0  0  0  0  0  0
  161.0480  205.8360  145.0100 C   0  0  0  0  0  2  0  0  0  0  0  0
  161.0410  204.4690  144.5150 N   0  0  0  0  0  0  0  0  0  0  0  0
  161.7020  205.9360  146.3890 C   0  0  0  0  0  2  0  0  0  0  0  0
  161.6710  203.6030  146.7080 C   0  0  0  0  0  2  0  0  0  0  0  0
  160.3560  213.4860  150.6540 O   0  0  0  0  0  0  0  0  0  0  0  0
  161.6030  212.9220  147.1790 C   0  0  0  0  0  3  0  0  0  0  0  0
  160.3950  212.9530  146.4760 C   0  0  0  0  0  0  0  0  0  0  0  0
  159.2040  213.3500  148.5460 C   0  0  0  0  0  3  0  0  0  0  0  0
  161.6080  213.1010  148.5640 C   0  0  0  0  0  3  0  0  0  0  0  0
  160.4080  213.3210  149.2610 C   0  0  0  0  0  0  0  0  0  0  0  0
  159.1960  213.1730  147.1600 C   0  0  0  0  0  3  0  0  0  0  0  0
  159.1840  212.2120  144.5920 O   0  0  0  0  0  1  0  0  0  0  0  0
  160.3890  212.7840  144.9970 C   0  0  0  0  0  2  0  0  0  0  0  0
  1  5  1  0  0  0  0
  1  6  1  0  0  0  0
  2 11  1  0  0  0  0
  3 16  1  0  0  0  0
  3 10  1  0  0  0  0
  4  7  2  0  0  0  0
  4  8  1  0  0  0  0
  7  9  1  0  0  0  0
  8  1  2  0  0  0  0
  9  5  2  0  0  0  0
 11 10  2  0  0  0  0
 11  7  1  0  0  0  0
 12  2  1  0  0  0  0
 12 15  2  0  0  0  0
 13 14  1  0  0  0  0
 13  2  2  0  0  0  0
 14  3  2  0  0  0  0
 15  4  1  0  0  0  0
 16 18  1  0  0  0  0
 17 19  1  0  0  0  0
 17 16  1  0  0  0  0
 19 21  1  6  0  0  0
 19 20  1  0  0  0  0
 20 18  1  0  0  0  0
 22 21  1  6  0  0  0
 22 24  1  0  0  0  0
 23 27  1  0  0  0  0
 25 26  1  6  0  0  0
 25 23  1  0  0  0  0
 25 22  1  0  0  0  0
 27 24  1  0  0  0  0
 28 25  1  0  0  0  0
 29 28  1  0  0  0  0
 30 34  1  0  0  0  0
 31 33  1  0  0  0  0
 32 31  1  0  0  0  0
 32 30  2  0  0  0  0
 33 29  1  0  0  0  0
 34 29  1  0  0  0  0
 35 13  1  0  0  0  0
 36 39  1  0  0  0  0
 37 41  1  0  0  0  0
 37 36  2  0  0  0  0
 38 40  1  0  0  0  0
 39 40  2  0  0  0  0
 40 35  1  0  0  0  0
 41 38  2  0  0  0  0
 42 43  1  0  0  0  0
 43 37  1  0  0  0  0
M  END
>  <MODEL>
6

>  <REMARK>
 VINA RESULT:      -7.4      3.858      9.267
  Name = 
  8 active torsions:
  status: ('A' for Active; 'I' for Inactive)
    1  A    between atoms: O_1  and  C_34
    2  A    between atoms: O_1  and  C_35
    3  A    between atoms: N_2  and  C_13
    4  A    between atoms: C_3  and  C_4
    5  A    between atoms: C_3  and  C_12
    6  A    between atoms: N_11  and  C_14
    7  A    between atoms: C_14  and  C_22
    8  A    between atoms: C_19  and  C_37
                            x       y       z     vdW  Elec       q    Type
                         _______ _______ _______ _____ _____    ______ ____

>  <TORSDO>
F 8

$$$$
=
 OpenBabel11062410103D

 43 49  0  0  1  0  0  0  0  0999 V2000
  161.9500  213.5500  146.8960 C   0  0  0  0  0  0  0  0  0  0  0  0
  160.3720  212.4570  151.5600 C   0  0  0  0  0  0  0  0  0  0  0  0
  161.0330  209.7690  152.0680 C   0  0  0  0  0  0  0  0  0  0  0  0
  160.9990  213.6460  149.1210 C   0  0  0  0  0  0  0  0  0  0  0  0
  162.2970  212.2110  147.0990 C   0  0  0  0  0  3  0  0  0  0  0  0
  162.2690  214.2130  145.6050 C   0  0  0  0  0  1  0  0  0  0  0  0
  161.3470  212.2920  149.3360 C   0  0  0  0  0  0  0  0  0  0  0  0
  161.3020  214.2670  147.9070 C   0  0  0  0  0  3  0  0  0  0  0  0
  161.9990  211.5840  148.3120 C   0  0  0  0  0  3  0  0  0  0  0  0
  161.3560  210.3530  150.8380 C   0  0  0  0  0  3  0  0  0  0  0  0
  161.0320  211.6890  150.5690 C   0  0  0  0  0  0  0  0  0  0  0  0
  160.0530  213.7560  151.3080 N   0  0  0  0  0  0  0  0  0  0  0  0
  160.0490  211.8840  152.7990 C   0  0  0  0  0  0  0  0  0  0  0  0
  160.3800  210.5420  153.0370 C   0  0  0  0  0  3  0  0  0  0  0  0
  160.3480  214.3570  150.1260 C   0  0  0  0  0  3  0  0  0  0  0  0
  161.3700  208.3980  152.3360 N   0  0  0  0  0  0  0  0  0  0  0  0
  162.4770  207.7090  151.7040 C   0  0  0  0  0  2  0  0  0  0  0  0
  160.6280  207.5570  153.2540 C   0  0  0  0  0  2  0  0  0  0  0  0
  162.5330  206.3390  152.3500 C   0  0  1  0  0  3  0  0  0  0  0  0
  161.2240  206.1690  153.1150 C   0  0  0  0  0  2  0  0  0  0  0  0
  162.6690  205.2720  151.2770 C   0  0  0  0  0  2  0  0  0  0  0  0
  161.3850  204.4520  151.1490 C   0  0  2  0  0  3  0  0  0  0  0  0
  159.8660  203.2100  149.7400 C   0  0  0  0  0  2  0  0  0  0  0  0
  161.5990  202.7620  151.7910 S   0  0  0  0  0  0  0  0  0  0  0  0
  160.8360  204.3740  149.7270 C   0  0  1  0  0  0  0  0  0  0  0  0
  160.0840  205.6540  149.4080 C   0  0  0  0  0  1  0  0  0  0  0  0
  160.5030  202.0700  150.5120 C   0  0  0  0  0  2  0  0  0  0  0  0
  161.9490  204.1320  148.6920 C   0  0  0  0  0  2  0  0  0  0  0  0
  161.5350  204.5380  147.3570 N   0  0  0  0  0  0  0  0  0  0  0  0
  161.2050  203.6420  145.1100 C   0  0  0  0  0  3  0  0  0  0  0  0
  162.2360  205.8080  145.4020 C   0  0  0  0  0  2  0  0  0  0  0  0
  161.6290  204.7530  144.6070 N   0  0  0  0  0  0  0  0  0  0  0  0
  162.6350  205.3120  146.7910 C   0  0  0  0  0  2  0  0  0  0  0  0
  161.4070  203.3160  146.5670 C   0  0  0  0  0  2  0  0  0  0  0  0
  159.3790  212.6700  153.7540 O   0  0  0  0  0  0  0  0  0  0  0  0
  157.4690  211.7490  156.8300 C   0  0  0  0  0  3  0  0  0  0  0  0
  156.2140  211.4900  156.2720 C   0  0  0  0  0  0  0  0  0  0  0  0
  157.0900  212.0010  154.0730 C   0  0  0  0  0  3  0  0  0  0  0  0
  158.5310  212.1370  156.0090 C   0  0  0  0  0  3  0  0  0  0  0  0
  158.3510  212.2630  154.6210 C   0  0  0  0  0  0  0  0  0  0  0  0
  156.0260  211.6110  154.8920 C   0  0  0  0  0  3  0  0  0  0  0  0
  154.3050  210.1190  156.4670 O   0  0  0  0  0  1  0  0  0  0  0  0
  155.0870  211.0550  157.1420 C   0  0  0  0  0  2  0  0  0  0  0  0
  1  5  2  0  0  0  0
  1  8  1  0  0  0  0
  2 13  1  0  0  0  0
  3 16  1  0  0  0  0
  3 14  1  0  0  0  0
  4  7  1  0  0  0  0
  4 15  1  0  0  0  0
  5  9  1  0  0  0  0
  6  1  1  0  0  0  0
  7 11  1  0  0  0  0
  8  4  2  0  0  0  0
  9  7  2  0  0  0  0
 10  3  2  0  0  0  0
 11 10  1  0  0  0  0
 11  2  2  0  0  0  0
 12  2  1  0  0  0  0
 13 14  2  0  0  0  0
 13 35  1  0  0  0  0
 15 12  2  0  0  0  0
 16 18  1  0  0  0  0
 17 16  1  0  0  0  0
 17 19  1  0  0  0  0
 19 21  1  6  0  0  0
 19 20  1  0  0  0  0
 20 18  1  0  0  0  0
 22 21  1  6  0  0  0
 22 24  1  0  0  0  0
 23 27  1  0  0  0  0
 25 26  1  6  0  0  0
 25 23  1  0  0  0  0
 25 22  1  0  0  0  0
 27 24  1  0  0  0  0
 28 25  1  0  0  0  0
 29 28  1  0  0  0  0
 30 34  1  0  0  0  0
 31 33  1  0  0  0  0
 32 30  2  0  0  0  0
 32 31  1  0  0  0  0
 33 29  1  0  0  0  0
 34 29  1  0  0  0  0
 35 40  1  0  0  0  0
 37 36  1  0  0  0  0
 37 43  1  0  0  0  0
 38 40  2  0  0  0  0
 38 41  1  0  0  0  0
 39 36  2  0  0  0  0
 40 39  1  0  0  0  0
 41 37  2  0  0  0  0
 42 43  1  0  0  0  0
M  END
>  <MODEL>
7

>  <REMARK>
 VINA RESULT:      -6.8      4.023      8.006
  Name = 
  8 active torsions:
  status: ('A' for Active; 'I' for Inactive)
    1  A    between atoms: O_1  and  C_34
    2  A    between atoms: O_1  and  C_35
    3  A    between atoms: N_2  and  C_13
    4  A    between atoms: C_3  and  C_4
    5  A    between atoms: C_3  and  C_12
    6  A    between atoms: N_11  and  C_14
    7  A    between atoms: C_14  and  C_22
    8  A    between atoms: C_19  and  C_37
                            x       y       z     vdW  Elec       q    Type
                         _______ _______ _______ _____ _____    ______ ____

>  <TORSDO>
F 8

$$$$
=
 OpenBabel11062410103D

 43 49  0  0  1  0  0  0  0  0999 V2000
  160.4990  207.4850  155.5390 C   0  0  0  0  0  0  0  0  0  0  0  0
  161.6170  209.8540  151.2300 C   0  0  0  0  0  0  0  0  0  0  0  0
  161.7510  207.9050  149.2030 C   0  0  0  0  0  0  0  0  0  0  0  0
  161.0280  209.1450  153.8570 C   0  0  0  0  0  0  0  0  0  0  0  0
  160.5570  206.4800  154.5700 C   0  0  0  0  0  3  0  0  0  0  0  0
  160.1890  207.1400  156.9510 C   0  0  0  0  0  1  0  0  0  0  0  0
  161.0870  208.1350  152.8690 C   0  0  0  0  0  0  0  0  0  0  0  0
  160.7340  208.8170  155.1830 C   0  0  0  0  0  3  0  0  0  0  0  0
  160.8480  206.8010  153.2420 C   0  0  0  0  0  3  0  0  0  0  0  0
  161.4530  207.5330  150.5190 C   0  0  0  0  0  3  0  0  0  0  0  0
  161.3840  208.4910  151.5390 C   0  0  0  0  0  0  0  0  0  0  0  0
  161.5530  210.7930  152.2140 N   0  0  0  0  0  0  0  0  0  0  0  0
  161.9110  210.2390  149.9130 C   0  0  0  0  0  0  0  0  0  0  0  0
  161.9800  209.2570  148.9140 C   0  0  0  0  0  3  0  0  0  0  0  0
  161.2670  210.4700  153.5020 C   0  0  0  0  0  3  0  0  0  0  0  0
  161.8200  206.9170  148.1640 N   0  0  0  0  0  0  0  0  0  0  0  0
  161.3310  205.5610  148.3170 C   0  0  0  0  0  2  0  0  0  0  0  0
  162.3980  207.1660  146.8580 C   0  0  0  0  0  2  0  0  0  0  0  0
  161.4980  204.9060  146.9600 C   0  0  1  0  0  3  0  0  0  0  0  0
  162.4000  205.8280  146.1450 C   0  0  0  0  0  2  0  0  0  0  0  0
  162.1410  203.5400  147.1270 C   0  0  0  0  0  2  0  0  0  0  0  0
  161.5520  202.5290  146.1440 C   0  0  2  0  0  3  0  0  0  0  0  0
  159.9720  200.7510  145.7160 C   0  0  0  0  0  2  0  0  0  0  0  0
  160.4270  203.3250  144.9540 S   0  0  0  0  0  0  0  0  0  0  0  0
  160.8220  201.3660  146.8100 C   0  0  1  0  0  0  0  0  0  0  0  0
  161.8390  200.3460  147.2930 C   0  0  0  0  0  1  0  0  0  0  0  0
  159.3240  201.8750  144.9300 C   0  0  0  0  0  2  0  0  0  0  0  0
  159.9350  201.8340  147.9770 C   0  0  0  0  0  2  0  0  0  0  0  0
  160.7310  202.2070  149.1380 N   0  0  0  0  0  0  0  0  0  0  0  0
  161.3690  201.3980  151.3510 C   0  0  0  0  0  3  0  0  0  0  0  0
  160.8100  203.7280  151.0380 C   0  0  0  0  0  2  0  0  0  0  0  0
  161.3340  202.6070  151.8010 N   0  0  0  0  0  0  0  0  0  0  0  0
  159.9960  203.2600  149.8320 C   0  0  0  0  0  2  0  0  0  0  0  0
  160.7630  201.0420  150.0180 C   0  0  0  0  0  2  0  0  0  0  0  0
  162.1530  211.5990  149.6430 O   0  0  0  0  0  0  0  0  0  0  0  0
  162.6900  213.2860  146.3540 C   0  0  0  0  0  3  0  0  0  0  0  0
  161.3690  213.5960  146.0180 C   0  0  0  0  0  0  0  0  0  0  0  0
  160.6110  212.5960  148.0890 C   0  0  0  0  0  3  0  0  0  0  0  0
  162.9680  212.6270  147.5540 C   0  0  0  0  0  3  0  0  0  0  0  0
  161.9300  212.2790  148.4350 C   0  0  0  0  0  0  0  0  0  0  0  0
  160.3300  213.2560  146.8890 C   0  0  0  0  0  3  0  0  0  0  0  0
  161.7930  213.7450  143.7030 O   0  0  0  0  0  1  0  0  0  0  0  0
  161.0720  214.3170  144.7510 C   0  0  0  0  0  2  0  0  0  0  0  0
  1  6  1  0  0  0  0
  2 11  1  0  0  0  0
  2 12  1  0  0  0  0
  3 10  1  0  0  0  0
  4  8  2  0  0  0  0
  5  1  2  0  0  0  0
  7  9  2  0  0  0  0
  7  4  1  0  0  0  0
  8  1  1  0  0  0  0
  9  5  1  0  0  0  0
 10 11  2  0  0  0  0
 11  7  1  0  0  0  0
 12 15  2  0  0  0  0
 13  2  2  0  0  0  0
 14  3  2  0  0  0  0
 14 13  1  0  0  0  0
 15  4  1  0  0  0  0
 16 17  1  0  0  0  0
 16  3  1  0  0  0  0
 18 16  1  0  0  0  0
 19 21  1  1  0  0  0
 19 17  1  0  0  0  0
 20 18  1  0  0  0  0
 20 19  1  0  0  0  0
 22 25  1  0  0  0  0
 22 21  1  1  0  0  0
 23 25  1  0  0  0  0
 24 22  1  0  0  0  0
 25 26  1  1  0  0  0
 25 28  1  0  0  0  0
 27 24  1  0  0  0  0
 27 23  1  0  0  0  0
 28 29  1  0  0  0  0
 29 33  1  0  0  0  0
 29 34  1  0  0  0  0
 30 32  2  0  0  0  0
 31 32  1  0  0  0  0
 33 31  1  0  0  0  0
 34 30  1  0  0  0  0
 35 13  1  0  0  0  0
 36 39  1  0  0  0  0
 37 36  2  0  0  0  0
 37 41  1  0  0  0  0
 38 40  1  0  0  0  0
 39 40  2  0  0  0  0
 40 35  1  0  0  0  0
 41 38  2  0  0  0  0
 42 43  1  0  0  0  0
 43 37  1  0  0  0  0
M  END
>  <MODEL>
8

>  <REMARK>
 VINA RESULT:      -6.7      3.945      9.341
  Name = 
  8 active torsions:
  status: ('A' for Active; 'I' for Inactive)
    1  A    between atoms: O_1  and  C_34
    2  A    between atoms: O_1  and  C_35
    3  A    between atoms: N_2  and  C_13
    4  A    between atoms: C_3  and  C_4
    5  A    between atoms: C_3  and  C_12
    6  A    between atoms: N_11  and  C_14
    7  A    between atoms: C_14  and  C_22
    8  A    between atoms: C_19  and  C_37
                            x       y       z     vdW  Elec       q    Type
                         _______ _______ _______ _____ _____    ______ ____

>  <TORSDO>
F 8

$$$$
