=
 OpenBabel11062408353D

 32 33  0  0  1  0  0  0  0  0999 V2000
  161.1950  208.7120  155.6110 C   0  0  0  0  0  0  0  0  0  0  0  0
  161.9730  208.6480  156.5990 O   0  0  0  0  0  0  0  0  0  0  0  0
  160.5800  209.7080  153.0150 C   0  0  0  0  0  3  0  0  0  0  0  0
  161.4640  207.9550  154.4290 N   0  0  0  0  0  2  0  0  0  0  0  0
  160.2320  210.5190  154.0230 C   0  0  0  0  0  0  0  0  0  0  0  0
  159.7880  209.8240  155.6270 S   0  0  0  0  0  0  0  0  0  0  0  0
  160.6970  208.2210  153.2130 C   0  0  2  0  0  3  0  0  0  0  0  0
  160.2570  211.9410  153.8670 N   0  0  0  0  0  2  0  0  0  0  0  0
  157.6200  212.0730  153.6890 O   0  0  0  0  0  0  0  0  0  0  0  0
  158.7450  213.6930  155.1400 O   0  0  0  0  0  0  0  0  0  0  0  0
  158.8380  212.9400  153.8440 S   0  0  0  0  0  0  0  0  0  0  0  0
  158.9120  214.1070  152.4960 C   0  0  0  0  0  2  0  0  0  0  0  0
  158.9100  213.4060  151.1760 C   0  0  0  0  0  0  0  0  0  0  0  0
  157.8540  213.1890  150.6030 O   0  0  0  0  0  0  0  0  0  0  0  0
  160.1960  212.9800  150.5390 C   0  0  0  0  0  2  0  0  0  0  0  0
  160.3420  213.5650  149.2100 N   0  0  0  0  0  2  0  0  0  0  0  0
  160.9780  212.9150  148.1040 C   0  0  0  0  0  0  0  0  0  0  0  0
  162.6100  212.8010  147.9980 S   0  0  0  0  0  0  0  0  0  0  0  0
  160.1760  212.3130  147.0970 N   0  0  0  0  0  1  0  0  0  0  0  0
  161.4120  207.5970  152.0300 C   0  0  0  0  0  2  0  0  0  0  0  0
  161.3080  206.0680  152.0720 C   0  0  0  0  0  2  0  0  0  0  0  0
  160.7590  205.4880  150.8370 N   0  0  0  0  0  0  0  0  0  0  0  0
  160.8750  201.9450  149.7410 C   0  0  0  0  0  1  0  0  0  0  0  0
  160.3680  203.1010  150.5760 C   0  0  1  0  0  3  0  0  0  0  0  0
  161.2830  203.2970  151.7650 C   0  0  0  0  0  2  0  0  0  0  0  0
  161.4070  204.2100  150.5580 C   0  0  2  0  0  3  0  0  0  0  0  0
  161.0290  206.3920  149.7240 C   0  0  0  0  0  2  0  0  0  0  0  0
  160.6880  205.7140  148.4070 C   0  0  0  0  0  2  0  0  0  0  0  0
  161.1830  206.5490  147.2400 C   0  0  0  0  0  2  0  0  0  0  0  0
  162.1630  205.7600  146.3920 C   0  0  0  0  0  2  0  0  0  0  0  0
  161.4700  203.5190  145.6110 C   0  0  0  0  0  1  0  0  0  0  0  0
  162.0760  204.2930  146.7610 C   0  0  0  0  0  2  0  0  0  0  0  0
  1  6  1  0  0  0  0
  1  2  2  0  0  0  0
  3  7  1  0  0  0  0
  3  5  2  0  0  0  0
  4  1  1  0  0  0  0
  5  6  1  0  0  0  0
  7 20  1  6  0  0  0
  7  4  1  0  0  0  0
  8  5  1  0  0  0  0
  9 11  2  0  0  0  0
 11  8  1  0  0  0  0
 11 10  2  0  0  0  0
 12 11  1  0  0  0  0
 13 12  1  0  0  0  0
 14 13  2  0  0  0  0
 15 13  1  0  0  0  0
 16 15  1  0  0  0  0
 17 16  1  0  0  0  0
 18 17  2  0  0  0  0
 19 17  1  0  0  0  0
 20 21  1  0  0  0  0
 22 21  1  0  0  0  0
 24 23  1  6  0  0  0
 24 25  1  0  0  0  0
 26 24  1  0  0  0  0
 26 22  1  1  0  0  0
 26 25  1  0  0  0  0
 27 22  1  0  0  0  0
 28 27  1  0  0  0  0
 29 28  1  0  0  0  0
 30 32  1  0  0  0  0
 30 29  1  0  0  0  0
 31 32  1  0  0  0  0
M  END
>  <MODEL>
1

>  <REMARK>
 VINA RESULT:      -6.2      0.000      0.000
  Name = 
  16 active torsions:
  status: ('A' for Active; 'I' for Inactive)
    1  A    between atoms: C_1  and  N_30
    2  A    between atoms: C_2  and  C_14
    3  A    between atoms: C_2  and  S_27
    4  A    between atoms: C_5  and  C_14
    5  A    between atoms: C_5  and  N_30
    6  A    between atoms: C_6  and  N_9
    7  A    between atoms: C_6  and  C_17
    8  A    between atoms: C_7  and  C_26
    9  A    between atoms: C_7  and  C_31
   10  A    between atoms: N_9  and  C_31
   11  A    between atoms: N_9  and  C_32
   12  A    between atoms: N_16  and  C_20
   13  A    between atoms: N_16  and  S_27
   14  A    between atoms: C_17  and  C_29
   15  A    between atoms: C_18  and  C_25
   16  A    between atoms: C_18  and  C_29
                            x       y       z     vdW  Elec       q    Type
                         _______ _______ _______ _____ _____    ______ ____

>  <TORSDO>
F 16

$$$$
=
 OpenBabel11062408353D

 32 33  0  0  1  0  0  0  0  0999 V2000
  162.0500  208.8060  150.1070 C   0  0  0  0  0  0  0  0  0  0  0  0
  161.9980  209.2090  148.9160 O   0  0  0  0  0  0  0  0  0  0  0  0
  160.7340  208.0440  152.5140 C   0  0  0  0  0  3  0  0  0  0  0  0
  161.7830  207.4380  150.4200 N   0  0  0  0  0  2  0  0  0  0  0  0
  160.9470  209.3600  152.3860 C   0  0  0  0  0  0  0  0  0  0  0  0
  162.3670  209.9560  151.4470 S   0  0  0  0  0  0  0  0  0  0  0  0
  161.6090  207.0390  151.8160 C   0  0  2  0  0  3  0  0  0  0  0  0
  160.0330  210.3120  152.9370 N   0  0  0  0  0  2  0  0  0  0  0  0
  159.5060  209.9170  155.5000 O   0  0  0  0  0  0  0  0  0  0  0  0
  161.5640  211.1160  154.9330 O   0  0  0  0  0  0  0  0  0  0  0  0
  160.1220  210.9160  154.5620 S   0  0  0  0  0  0  0  0  0  0  0  0
  159.2620  212.4730  154.7030 C   0  0  0  0  0  2  0  0  0  0  0  0
  157.9860  212.4560  153.9250 C   0  0  0  0  0  0  0  0  0  0  0  0
  157.0890  211.6940  154.2440 O   0  0  0  0  0  0  0  0  0  0  0  0
  157.7910  213.3810  152.7640 C   0  0  0  0  0  2  0  0  0  0  0  0
  158.9990  213.4630  151.9500 N   0  0  0  0  0  2  0  0  0  0  0  0
  159.0080  213.5540  150.5210 C   0  0  0  0  0  0  0  0  0  0  0  0
  160.4050  213.4850  149.6660 S   0  0  0  0  0  0  0  0  0  0  0  0
  157.7740  213.6610  149.8230 N   0  0  0  0  0  1  0  0  0  0  0  0
  160.9600  205.6680  151.8620 C   0  0  0  0  0  2  0  0  0  0  0  0
  161.7080  204.6780  150.9620 C   0  0  0  0  0  2  0  0  0  0  0  0
  160.8510  204.0580  149.9410 N   0  0  0  0  0  0  0  0  0  0  0  0
  160.8810  200.8220  148.1250 C   0  0  0  0  0  1  0  0  0  0  0  0
  160.3060  201.8510  149.0740 C   0  0  1  0  0  3  0  0  0  0  0  0
  160.9320  201.6750  150.4400 C   0  0  0  0  0  2  0  0  0  0  0  0
  161.4200  202.7810  149.5220 C   0  0  2  0  0  3  0  0  0  0  0  0
  160.7840  204.9350  148.7760 C   0  0  0  0  0  2  0  0  0  0  0  0
  162.0110  204.7350  147.9020 C   0  0  0  0  0  2  0  0  0  0  0  0
  162.0830  205.8170  146.8390 C   0  0  0  0  0  2  0  0  0  0  0  0
  162.4970  205.2300  145.5030 C   0  0  0  0  0  2  0  0  0  0  0  0
  160.2080  206.1050  145.1770 C   0  0  0  0  0  1  0  0  0  0  0  0
  161.3850  205.4420  144.4960 C   0  0  0  0  0  2  0  0  0  0  0  0
  1  4  1  0  0  0  0
  1  6  1  0  0  0  0
  2  1  2  0  0  0  0
  4  7  1  0  0  0  0
  5  3  2  0  0  0  0
  5  8  1  0  0  0  0
  6  5  1  0  0  0  0
  7 20  1  6  0  0  0
  7  3  1  0  0  0  0
  8 11  1  0  0  0  0
 11 12  1  0  0  0  0
 11 10  2  0  0  0  0
 11  9  2  0  0  0  0
 13 14  2  0  0  0  0
 13 12  1  0  0  0  0
 15 13  1  0  0  0  0
 16 15  1  0  0  0  0
 17 16  1  0  0  0  0
 18 17  2  0  0  0  0
 19 17  1  0  0  0  0
 21 20  1  0  0  0  0
 22 21  1  0  0  0  0
 24 23  1  6  0  0  0
 24 26  1  0  0  0  0
 24 25  1  0  0  0  0
 26 22  1  1  0  0  0
 26 25  1  0  0  0  0
 27 22  1  0  0  0  0
 28 27  1  0  0  0  0
 29 28  1  0  0  0  0
 30 29  1  0  0  0  0
 32 31  1  0  0  0  0
 32 30  1  0  0  0  0
M  END
>  <MODEL>
2

>  <REMARK>
 VINA RESULT:      -6.2      2.178      3.136
  Name = 
  16 active torsions:
  status: ('A' for Active; 'I' for Inactive)
    1  A    between atoms: C_1  and  N_30
    2  A    between atoms: C_2  and  C_14
    3  A    between atoms: C_2  and  S_27
    4  A    between atoms: C_5  and  C_14
    5  A    between atoms: C_5  and  N_30
    6  A    between atoms: C_6  and  N_9
    7  A    between atoms: C_6  and  C_17
    8  A    between atoms: C_7  and  C_26
    9  A    between atoms: C_7  and  C_31
   10  A    between atoms: N_9  and  C_31
   11  A    between atoms: N_9  and  C_32
   12  A    between atoms: N_16  and  C_20
   13  A    between atoms: N_16  and  S_27
   14  A    between atoms: C_17  and  C_29
   15  A    between atoms: C_18  and  C_25
   16  A    between atoms: C_18  and  C_29
                            x       y       z     vdW  Elec       q    Type
                         _______ _______ _______ _____ _____    ______ ____

>  <TORSDO>
F 16

$$$$
=
 OpenBabel11062408353D

 32 33  0  0  1  0  0  0  0  0999 V2000
  161.2830  208.5380  155.8410 C   0  0  0  0  0  0  0  0  0  0  0  0
  161.9970  208.6490  156.8720 O   0  0  0  0  0  0  0  0  0  0  0  0
  160.9120  208.9120  153.0430 C   0  0  0  0  0  3  0  0  0  0  0  0
  161.5270  207.4900  154.9010 N   0  0  0  0  0  2  0  0  0  0  0  0
  160.6020  209.9760  153.7960 C   0  0  0  0  0  0  0  0  0  0  0  0
  160.0050  209.7440  155.4820 S   0  0  0  0  0  0  0  0  0  0  0  0
  160.8560  207.5170  153.6020 C   0  0  2  0  0  3  0  0  0  0  0  0
  160.7880  211.3070  153.3050 N   0  0  0  0  0  2  0  0  0  0  0  0
  158.2650  211.6310  152.5770 O   0  0  0  0  0  0  0  0  0  0  0  0
  159.1920  213.2090  154.2030 O   0  0  0  0  0  0  0  0  0  0  0  0
  159.4900  212.4080  152.9680 S   0  0  0  0  0  0  0  0  0  0  0  0
  159.9350  213.5210  151.6450 C   0  0  0  0  0  2  0  0  0  0  0  0
  158.7420  213.8830  150.8210 C   0  0  0  0  0  0  0  0  0  0  0  0
  157.7630  214.3800  151.3530 O   0  0  0  0  0  0  0  0  0  0  0  0
  158.7430  213.6560  149.3420 C   0  0  0  0  0  2  0  0  0  0  0  0
  160.0900  213.7750  148.7930 N   0  0  0  0  0  2  0  0  0  0  0  0
  160.7160  212.7910  147.9630 C   0  0  0  0  0  0  0  0  0  0  0  0
  160.2380  212.5440  146.4150 S   0  0  0  0  0  0  0  0  0  0  0  0
  161.8100  212.0420  148.4770 N   0  0  0  0  0  1  0  0  0  0  0  0
  161.5590  206.5560  152.6620 C   0  0  0  0  0  2  0  0  0  0  0  0
  161.4640  207.0430  151.2110 C   0  0  0  0  0  2  0  0  0  0  0  0
  161.3620  205.9480  150.2350 N   0  0  0  0  0  0  0  0  0  0  0  0
  160.8880  206.1400  146.5600 C   0  0  0  0  0  1  0  0  0  0  0  0
  161.6940  206.2050  147.8390 C   0  0  1  0  0  3  0  0  0  0  0  0
  161.5620  207.5850  148.4430 C   0  0  0  0  0  2  0  0  0  0  0  0
  160.7470  206.4340  149.0040 C   0  0  2  0  0  3  0  0  0  0  0  0
  160.5160  204.8940  150.7860 C   0  0  0  0  0  2  0  0  0  0  0  0
  161.3500  203.6620  151.0930 C   0  0  0  0  0  2  0  0  0  0  0  0
  160.7860  202.4490  150.3720 C   0  0  0  0  0  2  0  0  0  0  0  0
  161.0540  202.5370  148.8820 C   0  0  0  0  0  2  0  0  0  0  0  0
  161.4640  200.4120  147.6880 C   0  0  0  0  0  1  0  0  0  0  0  0
  160.3980  201.3640  148.1850 C   0  0  0  0  0  2  0  0  0  0  0  0
  1  2  2  0  0  0  0
  3  7  1  0  0  0  0
  3  5  2  0  0  0  0
  4  1  1  0  0  0  0
  5  6  1  0  0  0  0
  6  1  1  0  0  0  0
  7 20  1  6  0  0  0
  7  4  1  0  0  0  0
  8  5  1  0  0  0  0
  9 11  2  0  0  0  0
 11  8  1  0  0  0  0
 11 10  2  0  0  0  0
 12 11  1  0  0  0  0
 13 14  2  0  0  0  0
 13 12  1  0  0  0  0
 15 13  1  0  0  0  0
 16 15  1  0  0  0  0
 17 19  1  0  0  0  0
 17 16  1  0  0  0  0
 18 17  2  0  0  0  0
 21 20  1  0  0  0  0
 22 27  1  0  0  0  0
 22 21  1  0  0  0  0
 24 23  1  6  0  0  0
 24 25  1  0  0  0  0
 24 26  1  0  0  0  0
 25 26  1  0  0  0  0
 26 22  1  1  0  0  0
 27 28  1  0  0  0  0
 29 28  1  0  0  0  0
 30 29  1  0  0  0  0
 31 32  1  0  0  0  0
 32 30  1  0  0  0  0
M  END
>  <MODEL>
3

>  <REMARK>
 VINA RESULT:      -6.1      1.242      2.534
  Name = 
  16 active torsions:
  status: ('A' for Active; 'I' for Inactive)
    1  A    between atoms: C_1  and  N_30
    2  A    between atoms: C_2  and  C_14
    3  A    between atoms: C_2  and  S_27
    4  A    between atoms: C_5  and  C_14
    5  A    between atoms: C_5  and  N_30
    6  A    between atoms: C_6  and  N_9
    7  A    between atoms: C_6  and  C_17
    8  A    between atoms: C_7  and  C_26
    9  A    between atoms: C_7  and  C_31
   10  A    between atoms: N_9  and  C_31
   11  A    between atoms: N_9  and  C_32
   12  A    between atoms: N_16  and  C_20
   13  A    between atoms: N_16  and  S_27
   14  A    between atoms: C_17  and  C_29
   15  A    between atoms: C_18  and  C_25
   16  A    between atoms: C_18  and  C_29
                            x       y       z     vdW  Elec       q    Type
                         _______ _______ _______ _____ _____    ______ ____

>  <TORSDO>
F 16

$$$$
=
 OpenBabel11062408353D

 32 33  0  0  1  0  0  0  0  0999 V2000
  161.6520  208.1970  149.7000 C   0  0  0  0  0  0  0  0  0  0  0  0
  162.3580  208.5240  148.7110 O   0  0  0  0  0  0  0  0  0  0  0  0
  161.4360  207.1690  152.3470 C   0  0  0  0  0  3  0  0  0  0  0  0
  161.5570  209.0560  150.8370 N   0  0  0  0  0  2  0  0  0  0  0  0
  161.4750  206.2370  151.3860 C   0  0  0  0  0  0  0  0  0  0  0  0
  160.8250  206.6060  149.7450 S   0  0  0  0  0  0  0  0  0  0  0  0
  160.9380  208.5610  152.0650 C   0  0  2  0  0  3  0  0  0  0  0  0
  162.0770  204.9600  151.6210 N   0  0  0  0  0  2  0  0  0  0  0  0
  162.1920  202.3200  151.5010 O   0  0  0  0  0  0  0  0  0  0  0  0
  160.4010  203.3220  152.8360 O   0  0  0  0  0  0  0  0  0  0  0  0
  161.2120  203.4560  151.5790 S   0  0  0  0  0  0  0  0  0  0  0  0
  160.1190  203.3970  150.1700 C   0  0  0  0  0  2  0  0  0  0  0  0
  160.4050  202.2050  149.3160 C   0  0  0  0  0  0  0  0  0  0  0  0
  160.0130  201.1010  149.6590 O   0  0  0  0  0  0  0  0  0  0  0  0
  161.1580  202.3540  148.0300 C   0  0  0  0  0  2  0  0  0  0  0  0
  161.6580  203.7150  147.8700 N   0  0  0  0  0  2  0  0  0  0  0  0
  161.7930  204.3850  146.6120 C   0  0  0  0  0  0  0  0  0  0  0  0
  161.4530  203.6320  145.1970 S   0  0  0  0  0  0  0  0  0  0  0  0
  162.1870  205.7510  146.5910 N   0  0  0  0  0  1  0  0  0  0  0  0
  161.3050  209.4820  153.2130 C   0  0  0  0  0  2  0  0  0  0  0  0
  160.2200  210.5440  153.4310 C   0  0  0  0  0  2  0  0  0  0  0  0
  159.9600  210.8270  154.8500 N   0  0  0  0  0  0  0  0  0  0  0  0
  156.7400  212.1880  156.0940 C   0  0  0  0  0  1  0  0  0  0  0  0
  157.6170  211.1590  155.4150 C   0  0  1  0  0  3  0  0  0  0  0  0
  157.8070  211.5440  153.9650 C   0  0  0  0  0  2  0  0  0  0  0  0
  158.9060  211.8290  154.9710 C   0  0  2  0  0  3  0  0  0  0  0  0
  161.1730  211.3600  155.4610 C   0  0  0  0  0  2  0  0  0  0  0  0
  161.3000  210.8600  156.8900 C   0  0  0  0  0  2  0  0  0  0  0  0
  160.4460  209.6210  157.0940 C   0  0  0  0  0  2  0  0  0  0  0  0
  161.3160  208.3900  157.2610 C   0  0  0  0  0  2  0  0  0  0  0  0
  159.7390  207.2400  155.7440 C   0  0  0  0  0  1  0  0  0  0  0  0
  160.4710  207.1490  157.0650 C   0  0  0  0  0  2  0  0  0  0  0  0
  1  6  1  0  0  0  0
  1  4  1  0  0  0  0
  2  1  2  0  0  0  0
  4  7  1  0  0  0  0
  5  8  1  0  0  0  0
  5  3  2  0  0  0  0
  6  5  1  0  0  0  0
  7  3  1  0  0  0  0
  7 20  1  1  0  0  0
  9 11  2  0  0  0  0
 11  8  1  0  0  0  0
 11 10  2  0  0  0  0
 12 11  1  0  0  0  0
 13 14  2  0  0  0  0
 13 12  1  0  0  0  0
 15 13  1  0  0  0  0
 16 15  1  0  0  0  0
 17 16  1  0  0  0  0
 18 17  2  0  0  0  0
 19 17  1  0  0  0  0
 20 21  1  0  0  0  0
 21 22  1  0  0  0  0
 22 27  1  0  0  0  0
 24 23  1  1  0  0  0
 25 26  1  0  0  0  0
 25 24  1  0  0  0  0
 26 22  1  6  0  0  0
 26 24  1  0  0  0  0
 27 28  1  0  0  0  0
 28 29  1  0  0  0  0
 29 30  1  0  0  0  0
 31 32  1  0  0  0  0
 32 30  1  0  0  0  0
M  END
>  <MODEL>
4

>  <REMARK>
 VINA RESULT:      -5.7      4.293      8.936
  Name = 
  16 active torsions:
  status: ('A' for Active; 'I' for Inactive)
    1  A    between atoms: C_1  and  N_30
    2  A    between atoms: C_2  and  C_14
    3  A    between atoms: C_2  and  S_27
    4  A    between atoms: C_5  and  C_14
    5  A    between atoms: C_5  and  N_30
    6  A    between atoms: C_6  and  N_9
    7  A    between atoms: C_6  and  C_17
    8  A    between atoms: C_7  and  C_26
    9  A    between atoms: C_7  and  C_31
   10  A    between atoms: N_9  and  C_31
   11  A    between atoms: N_9  and  C_32
   12  A    between atoms: N_16  and  C_20
   13  A    between atoms: N_16  and  S_27
   14  A    between atoms: C_17  and  C_29
   15  A    between atoms: C_18  and  C_25
   16  A    between atoms: C_18  and  C_29
                            x       y       z     vdW  Elec       q    Type
                         _______ _______ _______ _____ _____    ______ ____

>  <TORSDO>
F 16

$$$$
=
 OpenBabel11062408353D

 32 33  0  0  1  0  0  0  0  0999 V2000
  161.2650  206.8630  153.0290 C   0  0  0  0  0  0  0  0  0  0  0  0
  160.5970  206.3240  153.9490 O   0  0  0  0  0  0  0  0  0  0  0  0
  161.3740  208.2510  150.5450 C   0  0  0  0  0  3  0  0  0  0  0  0
  161.3900  208.2850  152.9640 N   0  0  0  0  0  2  0  0  0  0  0  0
  161.2970  206.9180  150.4380 C   0  0  0  0  0  0  0  0  0  0  0  0
  161.9960  205.8690  151.7270 S   0  0  0  0  0  0  0  0  0  0  0  0
  161.9580  208.9040  151.7680 C   0  0  2  0  0  3  0  0  0  0  0  0
  160.6170  206.3040  149.3390 N   0  0  0  0  0  2  0  0  0  0  0  0
  160.3080  206.2820  146.7120 O   0  0  0  0  0  0  0  0  0  0  0  0
  162.4790  206.9900  147.5970 O   0  0  0  0  0  0  0  0  0  0  0  0
  161.3340  206.0350  147.7820 S   0  0  0  0  0  0  0  0  0  0  0  0
  161.9420  204.3630  147.6480 C   0  0  0  0  0  2  0  0  0  0  0  0
  161.9020  203.8860  146.2320 C   0  0  0  0  0  0  0  0  0  0  0  0
  162.5200  204.4880  145.3700 O   0  0  0  0  0  0  0  0  0  0  0  0
  161.1200  202.6640  145.8630 C   0  0  0  0  0  2  0  0  0  0  0  0
  160.4670  202.0860  147.0330 N   0  0  0  0  0  2  0  0  0  0  0  0
  161.0160  201.0290  147.8280 C   0  0  0  0  0  0  0  0  0  0  0  0
  160.9440  201.0590  149.4650 S   0  0  0  0  0  0  0  0  0  0  0  0
  161.5950  199.9030  147.1820 N   0  0  0  0  0  1  0  0  0  0  0  0
  161.6260  210.3850  151.7710 C   0  0  0  0  0  2  0  0  0  0  0  0
  160.2860  210.6430  152.4710 C   0  0  0  0  0  2  0  0  0  0  0  0
  160.0830  212.0520  152.8360 N   0  0  0  0  0  0  0  0  0  0  0  0
  160.0170  212.5360  156.5140 C   0  0  0  0  0  1  0  0  0  0  0  0
  160.4850  211.8870  155.2300 C   0  0  1  0  0  3  0  0  0  0  0  0
  159.5170  210.7920  154.8420 C   0  0  0  0  0  2  0  0  0  0  0  0
  159.4490  212.1400  154.1480 C   0  0  2  0  0  3  0  0  0  0  0  0
  159.1990  212.6770  151.8570 C   0  0  0  0  0  2  0  0  0  0  0  0
  159.9590  213.7290  151.0650 C   0  0  0  0  0  2  0  0  0  0  0  0
  159.7070  213.5540  149.5780 C   0  0  0  0  0  2  0  0  0  0  0  0
  161.0010  213.6740  148.7960 C   0  0  0  0  0  2  0  0  0  0  0  0
  162.9920  212.4450  147.9980 C   0  0  0  0  0  1  0  0  0  0  0  0
  161.6720  212.3180  148.7260 C   0  0  0  0  0  2  0  0  0  0  0  0
  1  2  2  0  0  0  0
  3  7  1  0  0  0  0
  4  1  1  0  0  0  0
  5  3  2  0  0  0  0
  5  6  1  0  0  0  0
  6  1  1  0  0  0  0
  7 20  1  6  0  0  0
  7  4  1  0  0  0  0
  8  5  1  0  0  0  0
  9 11  2  0  0  0  0
 10 11  2  0  0  0  0
 11  8  1  0  0  0  0
 12 11  1  0  0  0  0
 13 12  1  0  0  0  0
 14 13  2  0  0  0  0
 15 13  1  0  0  0  0
 15 16  1  0  0  0  0
 16 17  1  0  0  0  0
 17 18  2  0  0  0  0
 19 17  1  0  0  0  0
 20 21  1  0  0  0  0
 21 22  1  0  0  0  0
 24 23  1  1  0  0  0
 25 24  1  0  0  0  0
 26 22  1  6  0  0  0
 26 25  1  0  0  0  0
 26 24  1  0  0  0  0
 27 22  1  0  0  0  0
 28 27  1  0  0  0  0
 29 28  1  0  0  0  0
 30 29  1  0  0  0  0
 31 32  1  0  0  0  0
 32 30  1  0  0  0  0
M  END
>  <MODEL>
5

>  <REMARK>
 VINA RESULT:      -5.6      4.331      8.693
  Name = 
  16 active torsions:
  status: ('A' for Active; 'I' for Inactive)
    1  A    between atoms: C_1  and  N_30
    2  A    between atoms: C_2  and  C_14
    3  A    between atoms: C_2  and  S_27
    4  A    between atoms: C_5  and  C_14
    5  A    between atoms: C_5  and  N_30
    6  A    between atoms: C_6  and  N_9
    7  A    between atoms: C_6  and  C_17
    8  A    between atoms: C_7  and  C_26
    9  A    between atoms: C_7  and  C_31
   10  A    between atoms: N_9  and  C_31
   11  A    between atoms: N_9  and  C_32
   12  A    between atoms: N_16  and  C_20
   13  A    between atoms: N_16  and  S_27
   14  A    between atoms: C_17  and  C_29
   15  A    between atoms: C_18  and  C_25
   16  A    between atoms: C_18  and  C_29
                            x       y       z     vdW  Elec       q    Type
                         _______ _______ _______ _____ _____    ______ ____

>  <TORSDO>
F 16

$$$$
=
 OpenBabel11062408353D

 32 33  0  0  1  0  0  0  0  0999 V2000
  161.1950  208.3490  155.5850 C   0  0  0  0  0  0  0  0  0  0  0  0
  161.9450  208.1290  156.5720 O   0  0  0  0  0  0  0  0  0  0  0  0
  160.4670  209.9540  153.3490 C   0  0  0  0  0  3  0  0  0  0  0  0
  161.6350  208.0410  154.2610 N   0  0  0  0  0  2  0  0  0  0  0  0
  159.9430  210.3500  154.5160 C   0  0  0  0  0  0  0  0  0  0  0  0
  159.6010  209.1390  155.8080 S   0  0  0  0  0  0  0  0  0  0  0  0
  160.8630  208.5220  153.1160 C   0  0  2  0  0  3  0  0  0  0  0  0
  159.6970  211.7340  154.7840 N   0  0  0  0  0  2  0  0  0  0  0  0
  157.0600  211.5210  154.7970 O   0  0  0  0  0  0  0  0  0  0  0  0
  158.1500  212.3020  156.8460 O   0  0  0  0  0  0  0  0  0  0  0  0
  158.1800  212.3600  155.3460 S   0  0  0  0  0  0  0  0  0  0  0  0
  157.9640  214.0530  154.8230 C   0  0  0  0  0  2  0  0  0  0  0  0
  156.5650  214.2990  154.3580 C   0  0  0  0  0  0  0  0  0  0  0  0
  155.6640  214.4140  155.1730 O   0  0  0  0  0  0  0  0  0  0  0  0
  156.2600  214.4230  152.8980 C   0  0  0  0  0  2  0  0  0  0  0  0
  157.4150  214.0500  152.0870 N   0  0  0  0  0  2  0  0  0  0  0  0
  157.3730  213.8200  150.6750 C   0  0  0  0  0  0  0  0  0  0  0  0
  155.9910  214.0130  149.8140 S   0  0  0  0  0  0  0  0  0  0  0  0
  158.5670  213.4600  149.9930 N   0  0  0  0  0  1  0  0  0  0  0  0
  161.7150  208.4190  151.8650 C   0  0  0  0  0  2  0  0  0  0  0  0
  162.0790  206.9590  151.5690 C   0  0  0  0  0  2  0  0  0  0  0  0
  161.0480  206.2470  150.7990 N   0  0  0  0  0  0  0  0  0  0  0  0
  160.6350  202.6540  149.9710 C   0  0  0  0  0  1  0  0  0  0  0  0
  160.4320  203.8940  150.8140 C   0  0  1  0  0  3  0  0  0  0  0  0
  161.6190  204.0720  151.7350 C   0  0  0  0  0  2  0  0  0  0  0  0
  161.5130  204.9030  150.4700 C   0  0  2  0  0  3  0  0  0  0  0  0
  160.8020  206.9660  149.5530 C   0  0  0  0  0  2  0  0  0  0  0  0
  161.9710  206.7750  148.6010 C   0  0  0  0  0  2  0  0  0  0  0  0
  161.4760  206.6900  147.1680 C   0  0  0  0  0  2  0  0  0  0  0  0
  160.9930  205.2870  146.8500 C   0  0  0  0  0  2  0  0  0  0  0  0
  163.1990  204.7160  145.8910 C   0  0  0  0  0  1  0  0  0  0  0  0
  162.1610  204.3270  146.9210 C   0  0  0  0  0  2  0  0  0  0  0  0
  1  6  1  0  0  0  0
  1  2  2  0  0  0  0
  3  5  2  0  0  0  0
  4  1  1  0  0  0  0
  5  8  1  0  0  0  0
  5  6  1  0  0  0  0
  7 20  1  6  0  0  0
  7  3  1  0  0  0  0
  7  4  1  0  0  0  0
  8 11  1  0  0  0  0
  9 11  2  0  0  0  0
 11 10  2  0  0  0  0
 12 11  1  0  0  0  0
 13 12  1  0  0  0  0
 13 14  2  0  0  0  0
 15 13  1  0  0  0  0
 16 15  1  0  0  0  0
 17 16  1  0  0  0  0
 18 17  2  0  0  0  0
 19 17  1  0  0  0  0
 21 20  1  0  0  0  0
 22 21  1  0  0  0  0
 24 23  1  6  0  0  0
 24 25  1  0  0  0  0
 26 22  1  1  0  0  0
 26 24  1  0  0  0  0
 26 25  1  0  0  0  0
 27 22  1  0  0  0  0
 28 27  1  0  0  0  0
 29 28  1  0  0  0  0
 30 32  1  0  0  0  0
 30 29  1  0  0  0  0
 31 32  1  0  0  0  0
M  END
>  <MODEL>
6

>  <REMARK>
 VINA RESULT:      -5.6      2.163      2.498
  Name = 
  16 active torsions:
  status: ('A' for Active; 'I' for Inactive)
    1  A    between atoms: C_1  and  N_30
    2  A    between atoms: C_2  and  C_14
    3  A    between atoms: C_2  and  S_27
    4  A    between atoms: C_5  and  C_14
    5  A    between atoms: C_5  and  N_30
    6  A    between atoms: C_6  and  N_9
    7  A    between atoms: C_6  and  C_17
    8  A    between atoms: C_7  and  C_26
    9  A    between atoms: C_7  and  C_31
   10  A    between atoms: N_9  and  C_31
   11  A    between atoms: N_9  and  C_32
   12  A    between atoms: N_16  and  C_20
   13  A    between atoms: N_16  and  S_27
   14  A    between atoms: C_17  and  C_29
   15  A    between atoms: C_18  and  C_25
   16  A    between atoms: C_18  and  C_29
                            x       y       z     vdW  Elec       q    Type
                         _______ _______ _______ _____ _____    ______ ____

>  <TORSDO>
F 16

$$$$
=
 OpenBabel11062408353D

 32 33  0  0  1  0  0  0  0  0999 V2000
  160.7640  202.3390  150.5600 C   0  0  0  0  0  0  0  0  0  0  0  0
  159.9780  201.3570  150.5160 O   0  0  0  0  0  0  0  0  0  0  0  0
  161.2100  205.1490  150.4440 C   0  0  0  0  0  3  0  0  0  0  0  0
  160.8580  203.1380  151.7420 N   0  0  0  0  0  2  0  0  0  0  0  0
  161.1870  204.5370  149.2530 C   0  0  0  0  0  0  0  0  0  0  0  0
  161.7110  202.8170  149.1140 S   0  0  0  0  0  0  0  0  0  0  0  0
  161.5840  204.4060  151.6980 C   0  0  2  0  0  3  0  0  0  0  0  0
  160.7000  205.2080  148.0870 N   0  0  0  0  0  2  0  0  0  0  0  0
  160.8120  207.2490  146.4080 O   0  0  0  0  0  0  0  0  0  0  0  0
  162.7200  206.8980  147.9010 O   0  0  0  0  0  0  0  0  0  0  0  0
  161.6780  206.2120  147.0640 S   0  0  0  0  0  0  0  0  0  0  0  0
  162.4880  205.2330  145.8110 C   0  0  0  0  0  2  0  0  0  0  0  0
  161.5410  204.8730  144.7130 C   0  0  0  0  0  0  0  0  0  0  0  0
  161.5540  205.5010  143.6660 O   0  0  0  0  0  0  0  0  0  0  0  0
  160.5810  203.7350  144.8780 C   0  0  0  0  0  2  0  0  0  0  0  0
  161.1830  202.6500  145.6450 N   0  0  0  0  0  2  0  0  0  0  0  0
  160.6900  201.3060  145.6700 C   0  0  0  0  0  0  0  0  0  0  0  0
  161.2000  200.2250  146.7920 S   0  0  0  0  0  0  0  0  0  0  0  0
  159.7010  200.9110  144.7290 N   0  0  0  0  0  1  0  0  0  0  0  0
  161.2140  205.2310  152.9160 C   0  0  0  0  0  2  0  0  0  0  0  0
  161.2820  206.7310  152.6030 C   0  0  0  0  0  2  0  0  0  0  0  0
  160.5920  207.5640  153.5970 N   0  0  0  0  0  0  0  0  0  0  0  0
  160.5160  211.1750  152.7440 C   0  0  0  0  0  1  0  0  0  0  0  0
  160.4430  209.6960  152.4340 C   0  0  1  0  0  3  0  0  0  0  0  0
  161.8430  209.1560  152.2420 C   0  0  0  0  0  2  0  0  0  0  0  0
  161.1180  208.9260  153.5560 C   0  0  2  0  0  3  0  0  0  0  0  0
  160.8340  207.0190  154.9290 C   0  0  0  0  0  2  0  0  0  0  0  0
  161.3650  208.1060  155.8490 C   0  0  0  0  0  2  0  0  0  0  0  0
  160.2970  208.5220  156.8460 C   0  0  0  0  0  2  0  0  0  0  0  0
  160.2160  210.0340  156.9460 C   0  0  0  0  0  2  0  0  0  0  0  0
  158.4990  211.8020  156.7520 C   0  0  0  0  0  1  0  0  0  0  0  0
  159.0350  210.5280  156.1360 C   0  0  0  0  0  2  0  0  0  0  0  0
  1  4  1  0  0  0  0
  2  1  2  0  0  0  0
  3  7  1  0  0  0  0
  5  3  2  0  0  0  0
  6  5  1  0  0  0  0
  6  1  1  0  0  0  0
  7  4  1  0  0  0  0
  7 20  1  1  0  0  0
  8  5  1  0  0  0  0
  9 11  2  0  0  0  0
 11 10  2  0  0  0  0
 11  8  1  0  0  0  0
 12 11  1  0  0  0  0
 13 15  1  0  0  0  0
 13 12  1  0  0  0  0
 14 13  2  0  0  0  0
 15 16  1  0  0  0  0
 16 17  1  0  0  0  0
 17 18  2  0  0  0  0
 19 17  1  0  0  0  0
 21 20  1  0  0  0  0
 21 22  1  0  0  0  0
 22 27  1  0  0  0  0
 24 23  1  1  0  0  0
 24 26  1  0  0  0  0
 25 24  1  0  0  0  0
 25 26  1  0  0  0  0
 26 22  1  6  0  0  0
 27 28  1  0  0  0  0
 28 29  1  0  0  0  0
 29 30  1  0  0  0  0
 32 31  1  0  0  0  0
 32 30  1  0  0  0  0
M  END
>  <MODEL>
7

>  <REMARK>
 VINA RESULT:      -5.4      5.035      9.222
  Name = 
  16 active torsions:
  status: ('A' for Active; 'I' for Inactive)
    1  A    between atoms: C_1  and  N_30
    2  A    between atoms: C_2  and  C_14
    3  A    between atoms: C_2  and  S_27
    4  A    between atoms: C_5  and  C_14
    5  A    between atoms: C_5  and  N_30
    6  A    between atoms: C_6  and  N_9
    7  A    between atoms: C_6  and  C_17
    8  A    between atoms: C_7  and  C_26
    9  A    between atoms: C_7  and  C_31
   10  A    between atoms: N_9  and  C_31
   11  A    between atoms: N_9  and  C_32
   12  A    between atoms: N_16  and  C_20
   13  A    between atoms: N_16  and  S_27
   14  A    between atoms: C_17  and  C_29
   15  A    between atoms: C_18  and  C_25
   16  A    between atoms: C_18  and  C_29
                            x       y       z     vdW  Elec       q    Type
                         _______ _______ _______ _____ _____    ______ ____

>  <TORSDO>
F 16

$$$$
=
 OpenBabel11062408353D

 32 33  0  0  1  0  0  0  0  0999 V2000
  160.9200  203.9350  152.1340 C   0  0  0  0  0  0  0  0  0  0  0  0
  160.2140  202.9330  152.4210 O   0  0  0  0  0  0  0  0  0  0  0  0
  161.1310  206.6300  151.2410 C   0  0  0  0  0  3  0  0  0  0  0  0
  161.0300  205.0270  153.0500 N   0  0  0  0  0  2  0  0  0  0  0  0
  161.0750  205.7190  150.2610 C   0  0  0  0  0  0  0  0  0  0  0  0
  161.7240  204.0590  150.5360 S   0  0  0  0  0  0  0  0  0  0  0  0
  161.6470  206.2760  152.6090 C   0  0  2  0  0  3  0  0  0  0  0  0
  160.4570  206.0200  149.0070 N   0  0  0  0  0  2  0  0  0  0  0  0
  161.5810  208.0490  147.7330 O   0  0  0  0  0  0  0  0  0  0  0  0
  162.6320  205.8470  147.5190 O   0  0  0  0  0  0  0  0  0  0  0  0
  161.3200  206.5740  147.6070 S   0  0  0  0  0  0  0  0  0  0  0  0
  160.3800  206.2620  146.1230 C   0  0  0  0  0  2  0  0  0  0  0  0
  161.1480  205.4060  145.1680 C   0  0  0  0  0  0  0  0  0  0  0  0
  162.1750  205.8280  144.6620 O   0  0  0  0  0  0  0  0  0  0  0  0
  160.6760  204.0240  144.8370 C   0  0  0  0  0  2  0  0  0  0  0  0
  161.3660  203.0260  145.6480 N   0  0  0  0  0  2  0  0  0  0  0  0
  160.7740  201.8070  146.1090 C   0  0  0  0  0  0  0  0  0  0  0  0
  160.8310  201.3680  147.6870 S   0  0  0  0  0  0  0  0  0  0  0  0
  160.0790  200.9790  145.1850 N   0  0  0  0  0  1  0  0  0  0  0  0
  161.2970  207.3770  153.5930 C   0  0  0  0  0  2  0  0  0  0  0  0
  160.8090  208.6320  152.8600 C   0  0  0  0  0  2  0  0  0  0  0  0
  161.6450  209.8150  153.1140 N   0  0  0  0  0  0  0  0  0  0  0  0
  160.0810  212.4250  155.2370 C   0  0  0  0  0  1  0  0  0  0  0  0
  160.4200  211.0020  154.8480 C   0  0  1  0  0  3  0  0  0  0  0  0
  159.4210  210.5140  153.8220 C   0  0  0  0  0  2  0  0  0  0  0  0
  160.7980  210.9740  153.3770 C   0  0  2  0  0  3  0  0  0  0  0  0
  162.4500  210.0940  151.9290 C   0  0  0  0  0  2  0  0  0  0  0  0
  161.5490  210.3030  150.7230 C   0  0  0  0  0  2  0  0  0  0  0  0
  162.3310  210.9300  149.5820 C   0  0  0  0  0  2  0  0  0  0  0  0
  161.5870  212.1230  149.0130 C   0  0  0  0  0  2  0  0  0  0  0  0
  162.6570  214.0290  147.8600 C   0  0  0  0  0  1  0  0  0  0  0  0
  162.2640  212.5740  147.7360 C   0  0  0  0  0  2  0  0  0  0  0  0
  1  2  2  0  0  0  0
  1  4  1  0  0  0  0
  3  7  1  0  0  0  0
  5  6  1  0  0  0  0
  5  3  2  0  0  0  0
  6  1  1  0  0  0  0
  7  4  1  0  0  0  0
  7 20  1  1  0  0  0
  8  5  1  0  0  0  0
 10 11  2  0  0  0  0
 11  9  2  0  0  0  0
 11  8  1  0  0  0  0
 12 11  1  0  0  0  0
 13 12  1  0  0  0  0
 14 13  2  0  0  0  0
 15 13  1  0  0  0  0
 15 16  1  0  0  0  0
 16 17  1  0  0  0  0
 17 18  2  0  0  0  0
 19 17  1  0  0  0  0
 21 22  1  0  0  0  0
 21 20  1  0  0  0  0
 24 23  1  6  0  0  0
 25 24  1  0  0  0  0
 26 22  1  1  0  0  0
 26 25  1  0  0  0  0
 26 24  1  0  0  0  0
 27 22  1  0  0  0  0
 28 27  1  0  0  0  0
 29 28  1  0  0  0  0
 30 29  1  0  0  0  0
 32 31  1  0  0  0  0
 32 30  1  0  0  0  0
M  END
>  <MODEL>
8

>  <REMARK>
 VINA RESULT:      -5.4      4.620      8.274
  Name = 
  16 active torsions:
  status: ('A' for Active; 'I' for Inactive)
    1  A    between atoms: C_1  and  N_30
    2  A    between atoms: C_2  and  C_14
    3  A    between atoms: C_2  and  S_27
    4  A    between atoms: C_5  and  C_14
    5  A    between atoms: C_5  and  N_30
    6  A    between atoms: C_6  and  N_9
    7  A    between atoms: C_6  and  C_17
    8  A    between atoms: C_7  and  C_26
    9  A    between atoms: C_7  and  C_31
   10  A    between atoms: N_9  and  C_31
   11  A    between atoms: N_9  and  C_32
   12  A    between atoms: N_16  and  C_20
   13  A    between atoms: N_16  and  S_27
   14  A    between atoms: C_17  and  C_29
   15  A    between atoms: C_18  and  C_25
   16  A    between atoms: C_18  and  C_29
                            x       y       z     vdW  Elec       q    Type
                         _______ _______ _______ _____ _____    ______ ____

>  <TORSDO>
F 16

$$$$
=
 OpenBabel11062408353D

 32 33  0  0  1  0  0  0  0  0999 V2000
  160.8340  207.3630  154.2390 C   0  0  0  0  0  0  0  0  0  0  0  0
  160.0890  206.6650  154.9760 O   0  0  0  0  0  0  0  0  0  0  0  0
  161.1800  209.0650  151.9830 C   0  0  0  0  0  3  0  0  0  0  0  0
  160.8460  208.7860  154.3630 N   0  0  0  0  0  2  0  0  0  0  0  0
  161.2340  207.7550  151.7090 C   0  0  0  0  0  0  0  0  0  0  0  0
  161.8270  206.5960  152.9570 S   0  0  0  0  0  0  0  0  0  0  0  0
  161.5250  209.5920  153.3490 C   0  0  2  0  0  3  0  0  0  0  0  0
  160.7740  207.2440  150.4540 N   0  0  0  0  0  2  0  0  0  0  0  0
  161.5800  208.9350  148.5850 O   0  0  0  0  0  0  0  0  0  0  0  0
  163.0310  207.0310  149.1000 O   0  0  0  0  0  0  0  0  0  0  0  0
  161.6040  207.4770  148.9480 S   0  0  0  0  0  0  0  0  0  0  0  0
  160.8310  206.5280  147.6490 C   0  0  0  0  0  2  0  0  0  0  0  0
  161.7790  205.5240  147.0780 C   0  0  0  0  0  0  0  0  0  0  0  0
  162.4790  205.8210  146.1240 O   0  0  0  0  0  0  0  0  0  0  0  0
  161.8900  204.1560  147.6770 C   0  0  0  0  0  2  0  0  0  0  0  0
  160.8320  203.9240  148.6540 N   0  0  0  0  0  2  0  0  0  0  0  0
  160.9090  202.9730  149.7210 C   0  0  0  0  0  0  0  0  0  0  0  0
  160.7160  201.3670  149.4560 S   0  0  0  0  0  0  0  0  0  0  0  0
  161.2060  203.4260  151.0360 N   0  0  0  0  0  1  0  0  0  0  0  0
  161.0700  211.0340  153.4760 C   0  0  0  0  0  2  0  0  0  0  0  0
  159.5660  211.1590  153.2060 C   0  0  0  0  0  2  0  0  0  0  0  0
  158.9700  212.3720  153.7840 N   0  0  0  0  0  0  0  0  0  0  0  0
  155.9210  212.8250  155.8490 C   0  0  0  0  0  1  0  0  0  0  0  0
  157.3900  212.5390  155.6270 C   0  0  1  0  0  3  0  0  0  0  0  0
  157.5690  211.0740  155.2950 C   0  0  0  0  0  2  0  0  0  0  0  0
  157.5920  212.1080  154.1840 C   0  0  2  0  0  3  0  0  0  0  0  0
  158.9610  213.4270  152.7750 C   0  0  0  0  0  2  0  0  0  0  0  0
  158.2310  212.9510  151.5300 C   0  0  0  0  0  2  0  0  0  0  0  0
  158.6980  213.7320  150.3140 C   0  0  0  0  0  2  0  0  0  0  0  0
  160.1940  213.5800  150.1200 C   0  0  0  0  0  2  0  0  0  0  0  0
  161.7480  212.5010  148.5290 C   0  0  0  0  0  1  0  0  0  0  0  0
  160.4870  213.3280  148.6560 C   0  0  0  0  0  2  0  0  0  0  0  0
  1  4  1  0  0  0  0
  1  2  2  0  0  0  0
  3  7  1  0  0  0  0
  5  3  2  0  0  0  0
  5  6  1  0  0  0  0
  6  1  1  0  0  0  0
  7 20  1  6  0  0  0
  7  4  1  0  0  0  0
  8  5  1  0  0  0  0
  9 11  2  0  0  0  0
 11 10  2  0  0  0  0
 11  8  1  0  0  0  0
 12 11  1  0  0  0  0
 13 12  1  0  0  0  0
 13 15  1  0  0  0  0
 14 13  2  0  0  0  0
 15 16  1  0  0  0  0
 16 17  1  0  0  0  0
 17 19  1  0  0  0  0
 18 17  2  0  0  0  0
 21 20  1  0  0  0  0
 21 22  1  0  0  0  0
 24 23  1  6  0  0  0
 25 24  1  0  0  0  0
 26 22  1  1  0  0  0
 26 25  1  0  0  0  0
 26 24  1  0  0  0  0
 27 22  1  0  0  0  0
 28 27  1  0  0  0  0
 29 28  1  0  0  0  0
 30 29  1  0  0  0  0
 31 32  1  0  0  0  0
 32 30  1  0  0  0  0
M  END
>  <MODEL>
9

>  <REMARK>
 VINA RESULT:      -5.4      3.755      8.146
  Name = 
  16 active torsions:
  status: ('A' for Active; 'I' for Inactive)
    1  A    between atoms: C_1  and  N_30
    2  A    between atoms: C_2  and  C_14
    3  A    between atoms: C_2  and  S_27
    4  A    between atoms: C_5  and  C_14
    5  A    between atoms: C_5  and  N_30
    6  A    between atoms: C_6  and  N_9
    7  A    between atoms: C_6  and  C_17
    8  A    between atoms: C_7  and  C_26
    9  A    between atoms: C_7  and  C_31
   10  A    between atoms: N_9  and  C_31
   11  A    between atoms: N_9  and  C_32
   12  A    between atoms: N_16  and  C_20
   13  A    between atoms: N_16  and  S_27
   14  A    between atoms: C_17  and  C_29
   15  A    between atoms: C_18  and  C_25
   16  A    between atoms: C_18  and  C_29
                            x       y       z     vdW  Elec       q    Type
                         _______ _______ _______ _____ _____    ______ ____

>  <TORSDO>
F 16

$$$$
