=
 OpenBabel11062408233D

 32 36  0  0  1  0  0  0  0  0999 V2000
  159.6310  211.6160  152.8530 C   0  0  0  0  0  0  0  0  0  0  0  0
  158.0290  211.1050  154.7510 C   0  0  2  0  0  3  0  0  0  0  0  0
  159.9890  212.4070  151.7540 C   0  0  0  0  0  3  0  0  0  0  0  0
  158.3950  211.8240  153.4860 C   0  0  0  0  0  0  0  0  0  0  0  0
  157.8690  212.1080  155.8900 C   0  0  0  0  0  2  0  0  0  0  0  0
  158.9890  209.9620  155.1170 C   0  0  0  0  0  2  0  0  0  0  0  0
  157.5460  212.8450  153.0380 C   0  0  0  0  0  0  0  0  0  0  0  0
  156.0140  213.1760  153.9170 S   0  0  0  0  0  0  0  0  0  0  0  0
  157.9170  213.6410  151.9510 C   0  0  0  0  0  3  0  0  0  0  0  0
  160.3990  210.2230  154.7940 N   0  0  0  0  0  0  0  0  0  0  0  0
  160.6030  210.5930  153.3850 C   0  0  1  0  0  3  0  0  0  0  0  0
  156.7810  213.1700  155.6000 C   0  0  2  0  0  3  0  0  0  0  0  0
  159.1320  213.4140  151.3020 C   0  0  0  0  0  3  0  0  0  0  0  0
  162.0750  208.4810  150.4100 C   0  0  2  0  0  3  0  0  0  0  0  0
  161.7060  205.2630  151.3430 F   0  0  0  0  0  0  0  0  0  0  0  0
  161.6300  209.1570  149.2880 F   0  0  0  0  0  0  0  0  0  0  0  0
  161.2220  206.9030  152.9660 C   0  0  0  0  0  3  0  0  0  0  0  0
  160.8680  209.3710  152.4900 C   0  0  2  0  0  3  0  0  0  0  0  0
  161.2370  207.3720  150.6320 O   0  0  0  0  0  0  0  0  0  0  0  0
  160.8280  208.1290  153.3500 C   0  0  0  0  0  3  0  0  0  0  0  0
  162.1420  209.4390  151.6210 C   0  0  2  0  0  3  0  0  0  0  0  0
  162.4270  210.7210  151.1860 F   0  0  0  0  0  0  0  0  0  0  0  0
  161.8470  206.6060  151.6320 C   0  0  2  0  0  3  0  0  0  0  0  0
  157.0890  214.4530  156.0920 O   0  0  0  0  0  0  0  0  0  0  0  0
  158.4130  214.4420  156.5550 C   0  0  0  0  0  1  0  0  0  0  0  0
  160.9210  211.2780  155.6570 C   0  0  0  0  0  2  0  0  0  0  0  0
  160.4110  209.4520  157.2610 C   0  0  0  0  0  2  0  0  0  0  0  0
  162.7300  208.8580  157.2570 N   0  0  0  0  0  0  0  0  0  0  0  0
  162.6110  210.2570  157.1330 C   0  0  0  0  0  0  0  0  0  0  0  0
  163.6130  211.0190  157.1180 O   0  0  0  0  0  0  0  0  0  0  0  0
  161.4010  208.2790  157.2520 C   0  0  0  0  0  3  0  0  0  0  0  0
  161.2140  210.7330  157.0480 C   0  0  1  0  0  3  0  0  0  0  0  0
  1  4  1  0  0  0  0
  2  6  1  1  0  0  0
  2  5  1  0  0  0  0
  3  1  2  0  0  0  0
  4  2  1  0  0  0  0
  7  4  2  0  0  0  0
  7  8  1  0  0  0  0
  8 12  1  0  0  0  0
  9  7  1  0  0  0  0
 10  6  1  0  0  0  0
 10 26  1  0  0  0  0
 11  1  1  6  0  0  0
 11 10  1  0  0  0  0
 12  5  1  0  0  0  0
 12 24  1  6  0  0  0
 13  3  1  0  0  0  0
 13  9  2  0  0  0  0
 14 16  1  6  0  0  0
 14 19  1  0  0  0  0
 14 21  1  0  0  0  0
 17 20  2  0  0  0  0
 18 20  1  1  0  0  0
 18 11  1  0  0  0  0
 19 23  1  0  0  0  0
 21 22  1  6  0  0  0
 21 18  1  0  0  0  0
 23 15  1  6  0  0  0
 23 17  1  0  0  0  0
 24 25  1  0  0  0  0
 29 28  1  0  0  0  0
 30 29  2  0  0  0  0
 31 28  2  0  0  0  0
 31 27  1  0  0  0  0
 32 26  1  6  0  0  0
 32 29  1  0  0  0  0
 32 27  1  0  0  0  0
M  END
>  <MODEL>
1

>  <REMARK>
 VINA RESULT:      -6.5      0.000      0.000
  Name = 
  4 active torsions:
  status: ('A' for Active; 'I' for Inactive)
    1  A    between atoms: O_13  and  C_29
    2  A    between atoms: C_16  and  C_27
    3  A    between atoms: N_24  and  C_28
    4  A    between atoms: C_28  and  C_32
                            x       y       z     vdW  Elec       q    Type
                         _______ _______ _______ _____ _____    ______ ____

>  <TORSDO>
F 4

$$$$
=
 OpenBabel11062408233D

 32 36  0  0  1  0  0  0  0  0999 V2000
  160.1020  211.0650  151.6330 C   0  0  0  0  0  0  0  0  0  0  0  0
  162.0990  211.1770  150.0750 C   0  0  2  0  0  3  0  0  0  0  0  0
  158.8640  211.5720  152.0490 C   0  0  0  0  0  3  0  0  0  0  0  0
  160.8410  211.7520  150.6570 C   0  0  0  0  0  0  0  0  0  0  0  0
  161.9050  210.9090  148.5840 C   0  0  0  0  0  2  0  0  0  0  0  0
  162.6220  209.9390  150.8220 C   0  0  0  0  0  2  0  0  0  0  0  0
  160.3200  212.9180  150.0790 C   0  0  0  0  0  0  0  0  0  0  0  0
  161.2210  213.7330  148.7570 S   0  0  0  0  0  0  0  0  0  0  0  0
  159.0770  213.4090  150.4880 C   0  0  0  0  0  3  0  0  0  0  0  0
  161.5710  209.0520  151.3410 N   0  0  0  0  0  0  0  0  0  0  0  0
  160.5980  209.7550  152.1910 C   0  0  1  0  0  3  0  0  0  0  0  0
  161.5410  212.1880  147.7920 C   0  0  2  0  0  3  0  0  0  0  0  0
  158.3550  212.7430  151.4810 C   0  0  0  0  0  3  0  0  0  0  0  0
  161.1350  208.3870  155.8400 C   0  0  2  0  0  3  0  0  0  0  0  0
  163.3450  210.5010  157.2590 F   0  0  0  0  0  0  0  0  0  0  0  0
  159.8640  208.0090  156.2300 F   0  0  0  0  0  0  0  0  0  0  0  0
  162.9480  210.7700  154.9510 C   0  0  0  0  0  3  0  0  0  0  0  0
  161.0050  209.7530  153.6740 C   0  0  2  0  0  3  0  0  0  0  0  0
  161.4220  209.6490  156.3940 O   0  0  0  0  0  0  0  0  0  0  0  0
  162.1870  210.6780  153.8480 C   0  0  0  0  0  3  0  0  0  0  0  0
  161.2530  208.3640  154.3000 C   0  0  2  0  0  3  0  0  0  0  0  0
  160.4220  207.3870  153.7840 F   0  0  0  0  0  0  0  0  0  0  0  0
  162.7790  209.8900  156.1580 C   0  0  2  0  0  3  0  0  0  0  0  0
  160.6270  211.9690  146.7430 O   0  0  0  0  0  0  0  0  0  0  0  0
  160.8380  212.9490  145.7630 C   0  0  0  0  0  1  0  0  0  0  0  0
  160.8750  208.4040  150.2330 C   0  0  0  0  0  2  0  0  0  0  0  0
  162.0800  206.4000  151.0680 C   0  0  0  0  0  2  0  0  0  0  0  0
  160.4370  205.0210  150.0060 N   0  0  0  0  0  0  0  0  0  0  0  0
  160.6560  206.1680  149.2170 C   0  0  0  0  0  0  0  0  0  0  0  0
  160.1050  206.3310  148.0970 O   0  0  0  0  0  0  0  0  0  0  0  0
  161.2220  205.1360  151.2200 C   0  0  0  0  0  3  0  0  0  0  0  0
  161.6020  207.1330  149.8170 C   0  0  1  0  0  3  0  0  0  0  0  0
  1  3  1  0  0  0  0
  2  5  1  6  0  0  0
  2  4  1  0  0  0  0
  2  6  1  0  0  0  0
  4  1  2  0  0  0  0
  6 10  1  0  0  0  0
  7  9  2  0  0  0  0
  7  4  1  0  0  0  0
  8  7  1  0  0  0  0
  9 13  1  0  0  0  0
 10 11  1  0  0  0  0
 11  1  1  6  0  0  0
 11 18  1  0  0  0  0
 12 24  1  1  0  0  0
 12  5  1  0  0  0  0
 12  8  1  0  0  0  0
 13  3  2  0  0  0  0
 14 16  1  6  0  0  0
 14 19  1  0  0  0  0
 17 23  1  0  0  0  0
 18 20  1  6  0  0  0
 18 21  1  0  0  0  0
 20 17  2  0  0  0  0
 21 22  1  6  0  0  0
 21 14  1  0  0  0  0
 23 19  1  0  0  0  0
 23 15  1  1  0  0  0
 25 24  1  0  0  0  0
 26 10  1  0  0  0  0
 27 31  1  0  0  0  0
 28 31  2  0  0  0  0
 29 32  1  0  0  0  0
 29 28  1  0  0  0  0
 30 29  2  0  0  0  0
 32 26  1  1  0  0  0
 32 27  1  0  0  0  0
M  END
>  <MODEL>
2

>  <REMARK>
 VINA RESULT:      -5.4      3.362      6.421
  Name = 
  4 active torsions:
  status: ('A' for Active; 'I' for Inactive)
    1  A    between atoms: O_13  and  C_29
    2  A    between atoms: C_16  and  C_27
    3  A    between atoms: N_24  and  C_28
    4  A    between atoms: C_28  and  C_32
                            x       y       z     vdW  Elec       q    Type
                         _______ _______ _______ _____ _____    ______ ____

>  <TORSDO>
F 4

$$$$
=
 OpenBabel11062408233D

 32 36  0  0  1  0  0  0  0  0999 V2000
  160.2760  211.5160  151.8970 C   0  0  0  0  0  0  0  0  0  0  0  0
  158.5920  211.1520  153.7570 C   0  0  2  0  0  3  0  0  0  0  0  0
  160.8020  212.3300  150.8850 C   0  0  0  0  0  3  0  0  0  0  0  0
  159.1110  211.9140  152.5730 C   0  0  0  0  0  0  0  0  0  0  0  0
  158.6470  212.0320  155.0040 C   0  0  0  0  0  2  0  0  0  0  0  0
  159.2800  209.7950  153.9750 C   0  0  0  0  0  2  0  0  0  0  0  0
  158.5050  213.1380  152.2580 C   0  0  0  0  0  0  0  0  0  0  0  0
  157.0780  213.6890  153.1980 S   0  0  0  0  0  0  0  0  0  0  0  0
  159.0450  213.9510  151.2580 C   0  0  0  0  0  3  0  0  0  0  0  0
  160.7150  209.7810  153.6550 N   0  0  0  0  0  0  0  0  0  0  0  0
  161.0010  210.2550  152.2920 C   0  0  1  0  0  3  0  0  0  0  0  0
  157.8170  213.3290  154.8550 C   0  0  2  0  0  3  0  0  0  0  0  0
  160.1850  213.5420  150.5640 C   0  0  0  0  0  3  0  0  0  0  0  0
  161.8850  208.2880  149.0020 C   0  0  2  0  0  3  0  0  0  0  0  0
  161.0850  205.0780  149.6490 F   0  0  0  0  0  0  0  0  0  0  0  0
  161.4670  209.1420  147.9970 F   0  0  0  0  0  0  0  0  0  0  0  0
  160.9940  206.5830  151.4620 C   0  0  0  0  0  3  0  0  0  0  0  0
  160.9990  209.1130  151.2620 C   0  0  2  0  0  3  0  0  0  0  0  0
  160.9020  207.2980  149.1920 O   0  0  0  0  0  0  0  0  0  0  0  0
  160.8300  207.8030  151.9970 C   0  0  0  0  0  3  0  0  0  0  0  0
  162.1960  209.0850  150.2880 C   0  0  2  0  0  3  0  0  0  0  0  0
  162.6460  210.3500  149.9550 F   0  0  0  0  0  0  0  0  0  0  0  0
  161.4590  206.3450  150.0520 C   0  0  2  0  0  3  0  0  0  0  0  0
  158.3930  214.4520  155.4800 O   0  0  0  0  0  0  0  0  0  0  0  0
  159.6790  214.1020  155.9170 C   0  0  0  0  0  1  0  0  0  0  0  0
  161.4480  210.5950  154.6200 C   0  0  0  0  0  2  0  0  0  0  0  0
  160.8490  210.2330  157.0030 C   0  0  0  0  0  2  0  0  0  0  0  0
  160.2900  207.9660  156.4730 N   0  0  0  0  0  0  0  0  0  0  0  0
  161.3820  208.3700  155.6790 C   0  0  0  0  0  0  0  0  0  0  0  0
  161.9770  207.5800  154.9000 O   0  0  0  0  0  0  0  0  0  0  0  0
  159.8450  209.1000  157.2590 C   0  0  0  0  0  3  0  0  0  0  0  0
  161.7680  209.7840  155.8680 C   0  0  1  0  0  3  0  0  0  0  0  0
  1  4  1  0  0  0  0
  2  6  1  1  0  0  0
  2  5  1  0  0  0  0
  3  1  2  0  0  0  0
  4  2  1  0  0  0  0
  7  4  2  0  0  0  0
  7  8  1  0  0  0  0
  8 12  1  0  0  0  0
  9  7  1  0  0  0  0
 10  6  1  0  0  0  0
 10 26  1  0  0  0  0
 11  1  1  6  0  0  0
 11 10  1  0  0  0  0
 12  5  1  0  0  0  0
 12 24  1  6  0  0  0
 13  3  1  0  0  0  0
 13  9  2  0  0  0  0
 14 16  1  6  0  0  0
 14 19  1  0  0  0  0
 14 21  1  0  0  0  0
 17 20  2  0  0  0  0
 18 20  1  1  0  0  0
 18 11  1  0  0  0  0
 19 23  1  0  0  0  0
 21 22  1  6  0  0  0
 21 18  1  0  0  0  0
 23 15  1  6  0  0  0
 23 17  1  0  0  0  0
 24 25  1  0  0  0  0
 27 31  1  0  0  0  0
 28 31  2  0  0  0  0
 29 32  1  0  0  0  0
 29 28  1  0  0  0  0
 30 29  2  0  0  0  0
 32 26  1  6  0  0  0
 32 27  1  0  0  0  0
M  END
>  <MODEL>
3

>  <REMARK>
 VINA RESULT:      -5.0      1.489      1.659
  Name = 
  4 active torsions:
  status: ('A' for Active; 'I' for Inactive)
    1  A    between atoms: O_13  and  C_29
    2  A    between atoms: C_16  and  C_27
    3  A    between atoms: N_24  and  C_28
    4  A    between atoms: C_28  and  C_32
                            x       y       z     vdW  Elec       q    Type
                         _______ _______ _______ _____ _____    ______ ____

>  <TORSDO>
F 4

$$$$
=
 OpenBabel11062408233D

 32 36  0  0  1  0  0  0  0  0999 V2000
  160.8260  208.2490  153.7540 C   0  0  0  0  0  0  0  0  0  0  0  0
  161.9590  210.4830  154.1470 C   0  0  2  0  0  3  0  0  0  0  0  0
  160.3090  207.0510  154.2630 C   0  0  0  0  0  3  0  0  0  0  0  0
  161.5150  209.1260  154.6080 C   0  0  0  0  0  0  0  0  0  0  0  0
  161.2340  211.5640  154.9450 C   0  0  0  0  0  2  0  0  0  0  0  0
  161.8310  210.6990  152.6310 C   0  0  0  0  0  2  0  0  0  0  0  0
  161.6490  208.8140  155.9680 C   0  0  0  0  0  0  0  0  0  0  0  0
  162.4390  209.9880  157.0740 S   0  0  0  0  0  0  0  0  0  0  0  0
  161.1170  207.6240  156.4710 C   0  0  0  0  0  3  0  0  0  0  0  0
  160.6590  210.0550  152.0200 N   0  0  0  0  0  0  0  0  0  0  0  0
  160.5810  208.6150  152.3120 C   0  0  1  0  0  3  0  0  0  0  0  0
  161.4920  211.4560  156.4660 C   0  0  2  0  0  3  0  0  0  0  0  0
  160.4590  206.7370  155.6160 C   0  0  0  0  0  3  0  0  0  0  0  0
  161.6630  205.4080  150.3070 C   0  0  2  0  0  3  0  0  0  0  0  0
  162.9700  206.5680  147.4240 F   0  0  0  0  0  0  0  0  0  0  0  0
  162.2010  204.5890  151.2820 F   0  0  0  0  0  0  0  0  0  0  0  0
  161.9140  208.1450  148.8230 C   0  0  0  0  0  3  0  0  0  0  0  0
  161.3060  207.7630  151.2580 C   0  0  2  0  0  3  0  0  0  0  0  0
  162.7130  206.0490  149.6240 O   0  0  0  0  0  0  0  0  0  0  0  0
  161.5120  208.6050  150.0190 C   0  0  0  0  0  3  0  0  0  0  0  0
  160.6570  206.4000  150.9350 C   0  0  2  0  0  3  0  0  0  0  0  0
  160.0560  205.8180  152.0370 F   0  0  0  0  0  0  0  0  0  0  0  0
  162.1390  206.6900  148.5200 C   0  0  2  0  0  3  0  0  0  0  0  0
  160.3770  211.7860  157.2610 O   0  0  0  0  0  0  0  0  0  0  0  0
  159.2330  211.2340  156.6660 C   0  0  0  0  0  1  0  0  0  0  0  0
  159.4370  210.7130  152.4730 C   0  0  0  0  0  2  0  0  0  0  0  0
  159.6800  212.6320  150.9160 C   0  0  0  0  0  2  0  0  0  0  0  0
  157.6410  213.5390  151.7840 N   0  0  0  0  0  0  0  0  0  0  0  0
  158.3380  212.8920  152.8240 C   0  0  0  0  0  0  0  0  0  0  0  0
  157.9330  212.9060  154.0160 O   0  0  0  0  0  0  0  0  0  0  0  0
  158.3710  213.3430  150.5460 C   0  0  0  0  0  3  0  0  0  0  0  0
  159.5820  212.2260  152.3850 C   0  0  1  0  0  3  0  0  0  0  0  0
  1  3  2  0  0  0  0
  1  4  1  0  0  0  0
  2  6  1  6  0  0  0
  2  4  1  0  0  0  0
  2  5  1  0  0  0  0
  3 13  1  0  0  0  0
  4  7  2  0  0  0  0
  5 12  1  0  0  0  0
  7  9  1  0  0  0  0
  7  8  1  0  0  0  0
 10 11  1  0  0  0  0
 10 26  1  0  0  0  0
 10  6  1  0  0  0  0
 11  1  1  1  0  0  0
 12  8  1  0  0  0  0
 12 24  1  1  0  0  0
 13  9  2  0  0  0  0
 14 21  1  0  0  0  0
 14 16  1  1  0  0  0
 17 20  2  0  0  0  0
 18 20  1  6  0  0  0
 18 11  1  0  0  0  0
 19 14  1  0  0  0  0
 21 18  1  0  0  0  0
 21 22  1  1  0  0  0
 23 15  1  6  0  0  0
 23 17  1  0  0  0  0
 23 19  1  0  0  0  0
 25 24  1  0  0  0  0
 27 32  1  0  0  0  0
 28 29  1  0  0  0  0
 29 30  2  0  0  0  0
 31 27  1  0  0  0  0
 31 28  2  0  0  0  0
 32 26  1  6  0  0  0
 32 29  1  0  0  0  0
M  END
>  <MODEL>
4

>  <REMARK>
 VINA RESULT:      -4.7      2.672      5.295
  Name = 
  4 active torsions:
  status: ('A' for Active; 'I' for Inactive)
    1  A    between atoms: O_13  and  C_29
    2  A    between atoms: C_16  and  C_27
    3  A    between atoms: N_24  and  C_28
    4  A    between atoms: C_28  and  C_32
                            x       y       z     vdW  Elec       q    Type
                         _______ _______ _______ _____ _____    ______ ____

>  <TORSDO>
F 4

$$$$
=
 OpenBabel11062408233D

 32 36  0  0  1  0  0  0  0  0999 V2000
  160.5060  208.1720  154.4550 C   0  0  0  0  0  0  0  0  0  0  0  0
  162.2150  210.0410  154.3270 C   0  0  2  0  0  3  0  0  0  0  0  0
  159.7700  207.2580  155.2200 C   0  0  0  0  0  3  0  0  0  0  0  0
  161.5020  208.9500  155.0690 C   0  0  0  0  0  0  0  0  0  0  0  0
  161.9000  211.3920  154.9640 C   0  0  0  0  0  2  0  0  0  0  0  0
  161.9510  210.0400  152.8120 C   0  0  0  0  0  2  0  0  0  0  0  0
  161.7260  208.8320  156.4480 C   0  0  0  0  0  0  0  0  0  0  0  0
  162.9270  209.9040  157.2450 S   0  0  0  0  0  0  0  0  0  0  0  0
  160.9780  207.9300  157.2070 C   0  0  0  0  0  3  0  0  0  0  0  0
  160.5840  209.6550  152.4320 N   0  0  0  0  0  0  0  0  0  0  0  0
  160.1790  208.3570  152.9950 C   0  0  1  0  0  3  0  0  0  0  0  0
  162.3180  211.4600  156.4520 C   0  0  2  0  0  3  0  0  0  0  0  0
  160.0090  207.1340  156.5920 C   0  0  0  0  0  3  0  0  0  0  0  0
  161.3420  206.4820  149.7380 C   0  0  2  0  0  3  0  0  0  0  0  0
  162.0850  203.3500  150.7400 F   0  0  0  0  0  0  0  0  0  0  0  0
  160.4630  206.9420  148.7740 F   0  0  0  0  0  0  0  0  0  0  0  0
  161.6180  204.9250  152.4310 C   0  0  0  0  0  3  0  0  0  0  0  0
  160.5170  207.1820  152.0630 C   0  0  2  0  0  3  0  0  0  0  0  0
  160.9120  205.2150  150.1760 O   0  0  0  0  0  0  0  0  0  0  0  0
  161.0280  206.0350  152.9040 C   0  0  0  0  0  3  0  0  0  0  0  0
  161.4620  207.5090  150.8870 C   0  0  2  0  0  3  0  0  0  0  0  0
  161.2780  208.7870  150.3910 F   0  0  0  0  0  0  0  0  0  0  0  0
  161.9360  204.7020  150.9790 C   0  0  2  0  0  3  0  0  0  0  0  0
  161.4370  212.2060  157.2590 O   0  0  0  0  0  0  0  0  0  0  0  0
  160.1230  211.8400  156.9330 C   0  0  0  0  0  1  0  0  0  0  0  0
  159.6410  210.6870  152.8530 C   0  0  0  0  0  2  0  0  0  0  0  0
  159.9880  212.1900  150.9070 C   0  0  0  0  0  2  0  0  0  0  0  0
  158.4860  213.7630  151.9070 N   0  0  0  0  0  0  0  0  0  0  0  0
  159.2200  213.1150  152.9220 C   0  0  0  0  0  0  0  0  0  0  0  0
  159.1130  213.4300  154.1360 O   0  0  0  0  0  0  0  0  0  0  0  0
  158.8450  213.1770  150.6310 C   0  0  0  0  0  3  0  0  0  0  0  0
  160.1290  212.0630  152.4220 C   0  0  1  0  0  3  0  0  0  0  0  0
  1  4  2  0  0  0  0
  1  3  1  0  0  0  0
  2  6  1  6  0  0  0
  2  5  1  0  0  0  0
  2  4  1  0  0  0  0
  3 13  2  0  0  0  0
  4  7  1  0  0  0  0
  5 12  1  0  0  0  0
  7  9  2  0  0  0  0
  7  8  1  0  0  0  0
 10  6  1  0  0  0  0
 10 26  1  0  0  0  0
 10 11  1  0  0  0  0
 11  1  1  1  0  0  0
 12  8  1  0  0  0  0
 12 24  1  1  0  0  0
 13  9  1  0  0  0  0
 14 16  1  6  0  0  0
 14 19  1  0  0  0  0
 14 21  1  0  0  0  0
 17 20  2  0  0  0  0
 18 20  1  1  0  0  0
 18 11  1  0  0  0  0
 19 23  1  0  0  0  0
 21 22  1  6  0  0  0
 21 18  1  0  0  0  0
 23 15  1  1  0  0  0
 23 17  1  0  0  0  0
 25 24  1  0  0  0  0
 27 32  1  0  0  0  0
 28 29  1  0  0  0  0
 29 30  2  0  0  0  0
 31 27  1  0  0  0  0
 31 28  2  0  0  0  0
 32 26  1  1  0  0  0
 32 29  1  0  0  0  0
M  END
>  <MODEL>
5

>  <REMARK>
 VINA RESULT:      -4.4      2.530      5.021
  Name = 
  4 active torsions:
  status: ('A' for Active; 'I' for Inactive)
    1  A    between atoms: O_13  and  C_29
    2  A    between atoms: C_16  and  C_27
    3  A    between atoms: N_24  and  C_28
    4  A    between atoms: C_28  and  C_32
                            x       y       z     vdW  Elec       q    Type
                         _______ _______ _______ _____ _____    ______ ____

>  <TORSDO>
F 4

$$$$
=
 OpenBabel11062408233D

 32 36  0  0  1  0  0  0  0  0999 V2000
  160.2060  210.8130  151.7490 C   0  0  0  0  0  0  0  0  0  0  0  0
  162.1480  211.6280  150.3370 C   0  0  2  0  0  3  0  0  0  0  0  0
  158.9050  210.9960  152.2340 C   0  0  0  0  0  3  0  0  0  0  0  0
  160.8180  211.8310  150.9990 C   0  0  0  0  0  0  0  0  0  0  0  0
  161.9910  211.7150  148.8210 C   0  0  0  0  0  2  0  0  0  0  0  0
  162.8700  210.3420  150.7710 C   0  0  0  0  0  2  0  0  0  0  0  0
  160.1090  213.0060  150.7120 C   0  0  0  0  0  0  0  0  0  0  0  0
  160.8570  214.2600  149.6650 S   0  0  0  0  0  0  0  0  0  0  0  0
  158.8060  213.1750  151.1860 C   0  0  0  0  0  3  0  0  0  0  0  0
  161.9810  209.1980  151.0170 N   0  0  0  0  0  0  0  0  0  0  0  0
  160.9120  209.5010  151.9810 C   0  0  1  0  0  3  0  0  0  0  0  0
  161.4180  213.0760  148.3590 C   0  0  2  0  0  3  0  0  0  0  0  0
  158.2090  212.1750  151.9580 C   0  0  0  0  0  3  0  0  0  0  0  0
  161.7870  210.1580  155.7590 C   0  0  2  0  0  3  0  0  0  0  0  0
  161.5330  207.1500  157.2610 F   0  0  0  0  0  0  0  0  0  0  0  0
  162.8400  211.0520  155.6920 F   0  0  0  0  0  0  0  0  0  0  0  0
  160.8030  207.2870  155.0230 C   0  0  0  0  0  3  0  0  0  0  0  0
  161.3240  209.1920  153.4300 C   0  0  2  0  0  3  0  0  0  0  0  0
  162.3030  208.8680  155.9830 O   0  0  0  0  0  0  0  0  0  0  0  0
  160.8220  207.8120  153.7870 C   0  0  0  0  0  3  0  0  0  0  0  0
  160.9240  210.2490  154.4810 C   0  0  2  0  0  3  0  0  0  0  0  0
  160.9610  211.5400  153.9850 F   0  0  0  0  0  0  0  0  0  0  0  0
  161.2070  208.0420  156.2580 C   0  0  2  0  0  3  0  0  0  0  0  0
  160.5450  212.9850  147.2570 O   0  0  0  0  0  0  0  0  0  0  0  0
  161.3160  212.9010  146.0890 C   0  0  0  0  0  1  0  0  0  0  0  0
  161.3930  208.7460  149.7590 C   0  0  0  0  0  2  0  0  0  0  0  0
  162.5000  206.7210  150.6780 C   0  0  0  0  0  2  0  0  0  0  0  0
  160.5020  205.4790  150.2360 N   0  0  0  0  0  0  0  0  0  0  0  0
  160.6770  206.4480  149.2260 C   0  0  0  0  0  0  0  0  0  0  0  0
  159.9100  206.5290  148.2310 O   0  0  0  0  0  0  0  0  0  0  0  0
  161.5500  205.6470  151.2240 C   0  0  0  0  0  3  0  0  0  0  0  0
  161.8450  207.3280  149.4380 C   0  0  1  0  0  3  0  0  0  0  0  0
  1  3  1  0  0  0  0
  2  5  1  6  0  0  0
  2  6  1  0  0  0  0
  2  4  1  0  0  0  0
  4  1  2  0  0  0  0
  6 10  1  0  0  0  0
  7  4  1  0  0  0  0
  7  9  2  0  0  0  0
  8  7  1  0  0  0  0
  9 13  1  0  0  0  0
 10 11  1  0  0  0  0
 11  1  1  1  0  0  0
 11 18  1  0  0  0  0
 12 24  1  6  0  0  0
 12  5  1  0  0  0  0
 12  8  1  0  0  0  0
 13  3  2  0  0  0  0
 14 16  1  6  0  0  0
 14 19  1  0  0  0  0
 17 23  1  0  0  0  0
 18 20  1  1  0  0  0
 18 21  1  0  0  0  0
 19 23  1  0  0  0  0
 20 17  2  0  0  0  0
 21 22  1  6  0  0  0
 21 14  1  0  0  0  0
 23 15  1  1  0  0  0
 25 24  1  0  0  0  0
 26 10  1  0  0  0  0
 27 31  1  0  0  0  0
 28 31  2  0  0  0  0
 29 32  1  0  0  0  0
 29 28  1  0  0  0  0
 30 29  2  0  0  0  0
 32 26  1  1  0  0  0
 32 27  1  0  0  0  0
M  END
>  <MODEL>
6

>  <REMARK>
 VINA RESULT:      -4.1      3.301      6.099
  Name = 
  4 active torsions:
  status: ('A' for Active; 'I' for Inactive)
    1  A    between atoms: O_13  and  C_29
    2  A    between atoms: C_16  and  C_27
    3  A    between atoms: N_24  and  C_28
    4  A    between atoms: C_28  and  C_32
                            x       y       z     vdW  Elec       q    Type
                         _______ _______ _______ _____ _____    ______ ____

>  <TORSDO>
F 4

$$$$
=
 OpenBabel11062408233D

 32 36  0  0  1  0  0  0  0  0999 V2000
  161.2180  210.8010  151.2580 C   0  0  0  0  0  0  0  0  0  0  0  0
  159.2610  210.8740  152.8680 C   0  0  2  0  0  3  0  0  0  0  0  0
  161.9420  211.3820  150.2090 C   0  0  0  0  0  3  0  0  0  0  0  0
  159.9990  211.3710  151.6600 C   0  0  0  0  0  0  0  0  0  0  0  0
  159.1970  211.9740  153.9250 C   0  0  0  0  0  2  0  0  0  0  0  0
  159.8110  209.5570  153.4370 C   0  0  0  0  0  2  0  0  0  0  0  0
  159.5340  212.5350  151.0340 C   0  0  0  0  0  0  0  0  0  0  0  0
  158.0280  213.3180  151.6230 S   0  0  0  0  0  0  0  0  0  0  0  0
  160.2690  213.1180  149.9990 C   0  0  0  0  0  3  0  0  0  0  0  0
  161.2720  209.4200  153.3520 N   0  0  0  0  0  0  0  0  0  0  0  0
  161.7860  209.6090  151.9860 C   0  0  1  0  0  3  0  0  0  0  0  0
  158.4910  213.2520  153.4120 C   0  0  2  0  0  3  0  0  0  0  0  0
  161.4660  212.5340  149.5780 C   0  0  0  0  0  3  0  0  0  0  0  0
  161.3350  205.7810  151.2050 C   0  0  2  0  0  3  0  0  0  0  0  0
  161.5950  205.5260  147.8530 F   0  0  0  0  0  0  0  0  0  0  0  0
  162.0430  205.1620  152.2190 F   0  0  0  0  0  0  0  0  0  0  0  0
  161.5100  207.7050  148.7510 C   0  0  0  0  0  3  0  0  0  0  0  0
  161.8520  208.2920  151.1960 C   0  0  2  0  0  3  0  0  0  0  0  0
  162.1330  205.8060  150.0450 O   0  0  0  0  0  0  0  0  0  0  0  0
  161.7120  208.6070  149.7250 C   0  0  0  0  0  3  0  0  0  0  0  0
  160.8760  207.1870  151.6520 C   0  0  2  0  0  3  0  0  0  0  0  0
  160.6580  207.1930  153.0180 F   0  0  0  0  0  0  0  0  0  0  0  0
  161.3060  206.2370  149.0020 C   0  0  2  0  0  3  0  0  0  0  0  0
  159.0500  214.4490  153.9020 O   0  0  0  0  0  0  0  0  0  0  0  0
  158.9580  214.4380  155.3010 C   0  0  0  0  0  1  0  0  0  0  0  0
  161.9150  210.3730  154.2530 C   0  0  0  0  0  2  0  0  0  0  0  0
  160.7780  208.8120  155.8150 C   0  0  0  0  0  2  0  0  0  0  0  0
  162.6920  208.9190  157.2480 N   0  0  0  0  0  0  0  0  0  0  0  0
  162.5010  210.1750  156.6390 C   0  0  0  0  0  0  0  0  0  0  0  0
  163.2110  211.1760  156.9220 O   0  0  0  0  0  0  0  0  0  0  0  0
  161.7120  207.9920  156.7160 C   0  0  0  0  0  3  0  0  0  0  0  0
  161.3850  210.2060  155.6700 C   0  0  1  0  0  3  0  0  0  0  0  0
  1  4  1  0  0  0  0
  2  6  1  1  0  0  0
  2  5  1  0  0  0  0
  3  1  2  0  0  0  0
  4  2  1  0  0  0  0
  7  8  1  0  0  0  0
  7  4  2  0  0  0  0
  8 12  1  0  0  0  0
  9  7  1  0  0  0  0
 10  6  1  0  0  0  0
 10 26  1  0  0  0  0
 11  1  1  6  0  0  0
 11 10  1  0  0  0  0
 12 24  1  6  0  0  0
 12  5  1  0  0  0  0
 13  9  2  0  0  0  0
 13  3  1  0  0  0  0
 14 21  1  0  0  0  0
 14 16  1  1  0  0  0
 17 23  1  0  0  0  0
 17 20  2  0  0  0  0
 18 20  1  6  0  0  0
 18 21  1  0  0  0  0
 18 11  1  0  0  0  0
 19 14  1  0  0  0  0
 21 22  1  1  0  0  0
 23 15  1  6  0  0  0
 23 19  1  0  0  0  0
 24 25  1  0  0  0  0
 27 31  1  0  0  0  0
 29 30  2  0  0  0  0
 29 28  1  0  0  0  0
 31 28  2  0  0  0  0
 32 26  1  6  0  0  0
 32 27  1  0  0  0  0
 32 29  1  0  0  0  0
M  END
>  <MODEL>
7

>  <REMARK>
 VINA RESULT:      -3.7      1.808      2.645
  Name = 
  4 active torsions:
  status: ('A' for Active; 'I' for Inactive)
    1  A    between atoms: O_13  and  C_29
    2  A    between atoms: C_16  and  C_27
    3  A    between atoms: N_24  and  C_28
    4  A    between atoms: C_28  and  C_32
                            x       y       z     vdW  Elec       q    Type
                         _______ _______ _______ _____ _____    ______ ____

>  <TORSDO>
F 4

$$$$
=
 OpenBabel11062408233D

 32 36  0  0  1  0  0  0  0  0999 V2000
  161.9340  206.5070  150.6870 C   0  0  0  0  0  0  0  0  0  0  0  0
  160.2590  205.1650  149.3370 C   0  0  2  0  0  3  0  0  0  0  0  0
  162.7060  206.6600  151.8460 C   0  0  0  0  0  3  0  0  0  0  0  0
  161.0030  205.4590  150.6060 C   0  0  0  0  0  0  0  0  0  0  0  0
  160.6470  203.7840  148.8160 C   0  0  0  0  0  2  0  0  0  0  0  0
  160.4110  206.2520  148.2600 C   0  0  0  0  0  2  0  0  0  0  0  0
  160.8780  204.5540  151.6690 C   0  0  0  0  0  0  0  0  0  0  0  0
  159.7610  203.1550  151.5170 S   0  0  0  0  0  0  0  0  0  0  0  0
  161.6620  204.7040  152.8150 C   0  0  0  0  0  3  0  0  0  0  0  0
  161.7370  206.8830  148.2140 N   0  0  0  0  0  0  0  0  0  0  0  0
  162.1570  207.4280  149.5140 C   0  0  1  0  0  3  0  0  0  0  0  0
  160.3420  202.6570  149.8330 C   0  0  2  0  0  3  0  0  0  0  0  0
  162.5670  205.7640  152.9090 C   0  0  0  0  0  3  0  0  0  0  0  0
  161.4920  210.8430  151.3500 C   0  0  2  0  0  3  0  0  0  0  0  0
  161.2340  213.1340  148.8900 F   0  0  0  0  0  0  0  0  0  0  0  0
  160.6150  210.4960  152.3620 F   0  0  0  0  0  0  0  0  0  0  0  0
  161.9310  210.9710  148.2610 C   0  0  0  0  0  3  0  0  0  0  0  0
  161.7270  208.8920  149.7030 C   0  0  2  0  0  3  0  0  0  0  0  0
  160.7580  211.4040  150.2880 O   0  0  0  0  0  0  0  0  0  0  0  0
  161.9800  209.6370  148.4130 C   0  0  0  0  0  3  0  0  0  0  0  0
  162.3310  209.6180  150.9240 C   0  0  2  0  0  3  0  0  0  0  0  0
  162.5150  208.7790  152.0090 F   0  0  0  0  0  0  0  0  0  0  0  0
  161.6940  211.9320  149.3920 C   0  0  2  0  0  3  0  0  0  0  0  0
  161.2950  201.6200  149.8400 O   0  0  0  0  0  0  0  0  0  0  0  0
  161.2060  200.9310  148.6220 C   0  0  0  0  0  1  0  0  0  0  0  0
  162.7300  205.9210  147.7430 C   0  0  0  0  0  2  0  0  0  0  0  0
  163.3660  204.5220  145.7920 C   0  0  0  0  0  2  0  0  0  0  0  0
  161.0550  204.4040  145.1780 N   0  0  0  0  0  0  0  0  0  0  0  0
  161.3200  205.6710  145.7370 C   0  0  0  0  0  0  0  0  0  0  0  0
  160.4500  206.5790  145.7900 O   0  0  0  0  0  0  0  0  0  0  0  0
  162.2590  203.6010  145.2600 C   0  0  0  0  0  3  0  0  0  0  0  0
  162.7060  205.8310  146.2240 C   0  0  1  0  0  3  0  0  0  0  0  0
  1  3  1  0  0  0  0
  2  6  1  6  0  0  0
  2  4  1  0  0  0  0
  3 13  2  0  0  0  0
  4  1  2  0  0  0  0
  4  7  1  0  0  0  0
  5  2  1  0  0  0  0
  5 12  1  0  0  0  0
  7  9  2  0  0  0  0
  8  7  1  0  0  0  0
  9 13  1  0  0  0  0
 10  6  1  0  0  0  0
 10 11  1  0  0  0  0
 11 18  1  0  0  0  0
 11  1  1  1  0  0  0
 12 24  1  1  0  0  0
 12  8  1  0  0  0  0
 14 16  1  1  0  0  0
 17 20  2  0  0  0  0
 17 23  1  0  0  0  0
 18 20  1  6  0  0  0
 18 21  1  0  0  0  0
 19 14  1  0  0  0  0
 21 14  1  0  0  0  0
 21 22  1  1  0  0  0
 23 15  1  6  0  0  0
 23 19  1  0  0  0  0
 25 24  1  0  0  0  0
 26 10  1  0  0  0  0
 27 32  1  0  0  0  0
 28 31  2  0  0  0  0
 28 29  1  0  0  0  0
 29 30  2  0  0  0  0
 29 32  1  0  0  0  0
 31 27  1  0  0  0  0
 32 26  1  1  0  0  0
M  END
>  <MODEL>
8

>  <REMARK>
 VINA RESULT:      -3.7      5.145      9.257
  Name = 
  4 active torsions:
  status: ('A' for Active; 'I' for Inactive)
    1  A    between atoms: O_13  and  C_29
    2  A    between atoms: C_16  and  C_27
    3  A    between atoms: N_24  and  C_28
    4  A    between atoms: C_28  and  C_32
                            x       y       z     vdW  Elec       q    Type
                         _______ _______ _______ _____ _____    ______ ____

>  <TORSDO>
F 4

$$$$
