=
 OpenBabel11052422363D

 31 35  0  0  0  0  0  0  0  0999 V2000
  161.0720  201.6350  150.1470 C   0  0  0  0  0  0  0  0  0  0  0  0
  161.1920  205.3340  149.4470 C   0  0  0  0  0  0  0  0  0  0  0  0
  161.2880  205.4920  148.0300 C   0  0  0  0  0  0  0  0  0  0  0  0
  160.8870  206.6600  154.5350 O   0  0  0  0  0  0  0  0  0  0  0  0
  160.9520  207.7140  153.8460 C   0  0  0  0  0  0  0  0  0  0  0  0
  161.4170  204.5960  145.7580 C   0  0  0  0  0  0  0  0  0  0  0  0
  161.1230  204.0780  150.1220 C   0  0  0  0  0  0  0  0  0  0  0  0
  160.9810  201.6390  151.5380 C   0  0  0  0  0  3  0  0  0  0  0  0
  161.3240  204.4040  147.1390 C   0  0  0  0  0  3  0  0  0  0  0  0
  161.0720  206.4340  151.6340 C   0  0  0  0  0  0  0  0  0  0  0  0
  161.0950  200.3480  149.4060 C   0  0  0  0  0  1  0  0  0  0  0  0
  161.3180  207.9040  148.3120 C   0  0  0  0  0  3  0  0  0  0  0  0
  161.4520  203.5010  144.9070 O   0  0  0  0  0  1  0  0  0  0  0  0
  161.0080  205.2200  152.2360 N   0  0  0  0  0  0  0  0  0  0  0  0
  161.1640  206.5160  150.2390 C   0  0  0  0  0  0  0  0  0  0  0  0
  161.0450  207.6370  152.4170 N   0  0  0  0  0  2  0  0  0  0  0  0
  161.1420  202.8430  149.4490 C   0  0  0  0  0  3  0  0  0  0  0  0
  161.4780  205.8880  145.2370 C   0  0  0  0  0  3  0  0  0  0  0  0
  161.0300  204.0610  151.5360 C   0  0  0  0  0  0  0  0  0  0  0  0
  160.9600  202.8490  152.2300 C   0  0  0  0  0  3  0  0  0  0  0  0
  161.2270  207.7430  149.6530 N   0  0  0  0  0  0  0  0  0  0  0  0
  161.3500  206.7960  147.4770 C   0  0  0  0  0  0  0  0  0  0  0  0
  161.4440  206.9860  146.0950 C   0  0  0  0  0  3  0  0  0  0  0  0
  160.8640  211.5880  155.6930 C   0  0  0  0  0  0  0  0  0  0  0  0
  160.3110  210.1150  153.8550 C   0  0  0  0  0  3  0  0  0  0  0  0
  162.1480  208.2540  156.4400 F   0  0  0  0  0  0  0  0  0  0  0  0
  160.8290  212.8140  156.2650 F   0  0  0  0  0  0  0  0  0  0  0  0
  160.2740  211.3810  154.4450 C   0  0  0  0  0  3  0  0  0  0  0  0
  161.5300  209.2570  155.7680 C   0  0  0  0  0  0  0  0  0  0  0  0
  160.9360  209.0390  154.5050 C   0  0  0  0  0  0  0  0  0  0  0  0
  161.4900  210.5280  156.3510 C   0  0  0  0  0  3  0  0  0  0  0  0
  1  8  1  0  0  0  0
  2  7  1  0  0  0  0
  2 15  1  0  0  0  0
  3  2  2  0  0  0  0
  5 30  1  0  0  0  0
  5  4  2  0  0  0  0
  6  9  2  0  0  0  0
  7 19  2  0  0  0  0
  8 20  2  0  0  0  0
  9  3  1  0  0  0  0
 10 14  2  0  0  0  0
 10 16  1  0  0  0  0
 11  1  1  0  0  0  0
 12 21  1  0  0  0  0
 13  6  1  0  0  0  0
 15 10  1  0  0  0  0
 16  5  1  0  0  0  0
 17  7  1  0  0  0  0
 17  1  2  0  0  0  0
 18  6  1  0  0  0  0
 18 23  2  0  0  0  0
 19 20  1  0  0  0  0
 19 14  1  0  0  0  0
 21 15  2  0  0  0  0
 22  3  1  0  0  0  0
 22 12  2  0  0  0  0
 23 22  1  0  0  0  0
 24 27  1  0  0  0  0
 24 31  1  0  0  0  0
 25 28  1  0  0  0  0
 25 30  2  0  0  0  0
 28 24  2  0  0  0  0
 29 31  2  0  0  0  0
 29 26  1  0  0  0  0
 30 29  1  0  0  0  0
M  END
>  <MODEL>
1

>  <REMARK>
 VINA RESULT:      -9.9      0.000      0.000
  Name = 
  1 active torsions:
  status: ('A' for Active; 'I' for Inactive)
    1  A    between atoms: C_9  and  C_22
                            x       y       z     vdW  Elec       q    Type
                         _______ _______ _______ _____ _____    ______ ____

>  <TORSDO>
F 1

$$$$
=
 OpenBabel11052422363D

 31 35  0  0  0  0  0  0  0  0999 V2000
  161.0600  207.4590  154.2900 C   0  0  0  0  0  0  0  0  0  0  0  0
  161.2700  207.0390  150.5520 C   0  0  0  0  0  0  0  0  0  0  0  0
  161.2060  205.6380  150.2810 C   0  0  0  0  0  0  0  0  0  0  0  0
  161.6270  212.2150  149.6430 O   0  0  0  0  0  0  0  0  0  0  0  0
  161.6600  211.6080  148.5380 C   0  0  0  0  0  0  0  0  0  0  0  0
  161.0260  203.3050  150.9900 C   0  0  0  0  0  0  0  0  0  0  0  0
  161.2220  207.6180  151.8570 C   0  0  0  0  0  0  0  0  0  0  0  0
  161.1340  208.8460  154.3980 C   0  0  0  0  0  3  0  0  0  0  0  0
  161.0860  204.6670  151.2920 C   0  0  0  0  0  3  0  0  0  0  0  0
  161.4590  209.3040  149.6340 C   0  0  0  0  0  0  0  0  0  0  0  0
  160.9360  206.6220  155.5110 C   0  0  0  0  0  1  0  0  0  0  0  0
  161.3810  206.1010  147.9040 C   0  0  0  0  0  3  0  0  0  0  0  0
  160.9090  202.3720  152.0110 O   0  0  0  0  0  1  0  0  0  0  0  0
  161.4100  209.8130  150.8910 N   0  0  0  0  0  0  0  0  0  0  0  0
  161.3910  207.9190  149.4400 C   0  0  0  0  0  0  0  0  0  0  0  0
  161.5800  210.1760  148.5000 N   0  0  0  0  0  2  0  0  0  0  0  0
  161.1050  206.8540  153.0310 C   0  0  0  0  0  3  0  0  0  0  0  0
  161.0850  202.8820  149.6620 C   0  0  0  0  0  3  0  0  0  0  0  0
  161.2950  209.0280  151.9870 C   0  0  0  0  0  0  0  0  0  0  0  0
  161.2510  209.6280  153.2500 C   0  0  0  0  0  3  0  0  0  0  0  0
  161.4420  207.4270  148.1720 N   0  0  0  0  0  0  0  0  0  0  0  0
  161.2640  205.1850  148.9390 C   0  0  0  0  0  0  0  0  0  0  0  0
  161.2040  203.8210  148.6380 C   0  0  0  0  0  3  0  0  0  0  0  0
  161.9440  213.7740  144.8440 C   0  0  0  0  0  0  0  0  0  0  0  0
  160.7480  212.2840  146.3270 C   0  0  0  0  0  3  0  0  0  0  0  0
  163.9380  213.2810  147.8600 F   0  0  0  0  0  0  0  0  0  0  0  0
  162.0210  214.4530  143.6760 F   0  0  0  0  0  0  0  0  0  0  0  0
  160.8270  212.9840  145.1210 C   0  0  0  0  0  3  0  0  0  0  0  0
  162.9090  213.1670  146.9840 C   0  0  0  0  0  0  0  0  0  0  0  0
  161.7830  212.3650  147.2730 C   0  0  0  0  0  0  0  0  0  0  0  0
  162.9810  213.8650  145.7740 C   0  0  0  0  0  3  0  0  0  0  0  0
  1  8  1  0  0  0  0
  1 11  1  0  0  0  0
  2  7  1  0  0  0  0
  3  2  1  0  0  0  0
  3  9  1  0  0  0  0
  5  4  2  0  0  0  0
  6  9  2  0  0  0  0
  6 13  1  0  0  0  0
  7 19  2  0  0  0  0
  7 17  1  0  0  0  0
 10 14  2  0  0  0  0
 12 21  2  0  0  0  0
 12 22  1  0  0  0  0
 14 19  1  0  0  0  0
 15 10  1  0  0  0  0
 15  2  2  0  0  0  0
 16  5  1  0  0  0  0
 16 10  1  0  0  0  0
 17  1  2  0  0  0  0
 18  6  1  0  0  0  0
 19 20  1  0  0  0  0
 20  8  2  0  0  0  0
 21 15  1  0  0  0  0
 22  3  2  0  0  0  0
 23 22  1  0  0  0  0
 23 18  2  0  0  0  0
 24 28  2  0  0  0  0
 24 31  1  0  0  0  0
 25 30  2  0  0  0  0
 27 24  1  0  0  0  0
 28 25  1  0  0  0  0
 29 30  1  0  0  0  0
 29 26  1  0  0  0  0
 30  5  1  0  0  0  0
 31 29  2  0  0  0  0
M  END
>  <MODEL>
2

>  <REMARK>
 VINA RESULT:      -9.9      4.329      6.841
  Name = 
  1 active torsions:
  status: ('A' for Active; 'I' for Inactive)
    1  A    between atoms: C_9  and  C_22
                            x       y       z     vdW  Elec       q    Type
                         _______ _______ _______ _____ _____    ______ ____

>  <TORSDO>
F 1

$$$$
=
 OpenBabel11052422363D

 31 35  0  0  0  0  0  0  0  0999 V2000
  161.3890  205.4890  145.8360 C   0  0  0  0  0  0  0  0  0  0  0  0
  161.1710  204.6250  149.4960 C   0  0  0  0  0  0  0  0  0  0  0  0
  161.1540  203.1990  149.5920 C   0  0  0  0  0  0  0  0  0  0  0  0
  161.1190  209.6610  151.0380 O   0  0  0  0  0  0  0  0  0  0  0  0
  161.0550  208.9250  152.0600 C   0  0  0  0  0  0  0  0  0  0  0  0
  161.1950  200.9650  148.5990 C   0  0  0  0  0  0  0  0  0  0  0  0
  161.2470  205.3570  148.2720 C   0  0  0  0  0  0  0  0  0  0  0  0
  161.3960  206.8820  145.9000 C   0  0  0  0  0  3  0  0  0  0  0  0
  161.2130  202.3550  148.4680 C   0  0  0  0  0  3  0  0  0  0  0  0
  161.1180  206.7660  150.6870 C   0  0  0  0  0  0  0  0  0  0  0  0
  161.4600  204.8040  144.5200 C   0  0  0  0  0  1  0  0  0  0  0  0
  161.0150  203.3750  152.0100 C   0  0  0  0  0  3  0  0  0  0  0  0
  161.2530  200.1600  147.4700 O   0  0  0  0  0  1  0  0  0  0  0  0
  161.1910  207.4230  149.5020 N   0  0  0  0  0  0  0  0  0  0  0  0
  161.1060  205.3650  150.7090 C   0  0  0  0  0  0  0  0  0  0  0  0
  161.0520  207.4960  151.9210 N   0  0  0  0  0  2  0  0  0  0  0  0
  161.3150  204.7370  147.0110 C   0  0  0  0  0  3  0  0  0  0  0  0
  161.1160  200.3850  149.8660 C   0  0  0  0  0  3  0  0  0  0  0  0
  161.2550  206.7730  148.3160 C   0  0  0  0  0  0  0  0  0  0  0  0
  161.3290  207.5210  147.1370 C   0  0  0  0  0  3  0  0  0  0  0  0
  161.0310  204.7250  151.9070 N   0  0  0  0  0  0  0  0  0  0  0  0
  161.0750  202.5880  150.8690 C   0  0  0  0  0  0  0  0  0  0  0  0
  161.0570  201.1960  150.9990 C   0  0  0  0  0  3  0  0  0  0  0  0
  160.8540  210.5940  156.0090 C   0  0  0  0  0  0  0  0  0  0  0  0
  161.1370  208.6980  154.5340 C   0  0  0  0  0  3  0  0  0  0  0  0
  160.6010  211.7520  152.5570 F   0  0  0  0  0  0  0  0  0  0  0  0
  160.7930  211.1080  157.2600 F   0  0  0  0  0  0  0  0  0  0  0  0
  161.0740  209.2280  155.8250 C   0  0  0  0  0  3  0  0  0  0  0  0
  160.7590  210.9070  153.6060 C   0  0  0  0  0  0  0  0  0  0  0  0
  160.9820  209.5260  153.4100 C   0  0  0  0  0  0  0  0  0  0  0  0
  160.6970  211.4300  154.9020 C   0  0  0  0  0  3  0  0  0  0  0  0
  1  8  2  0  0  0  0
  1 17  1  0  0  0  0
  2  3  2  0  0  0  0
  2 15  1  0  0  0  0
  3 22  1  0  0  0  0
  4  5  2  0  0  0  0
  5 30  1  0  0  0  0
  6 18  1  0  0  0  0
  7 19  1  0  0  0  0
  7  2  1  0  0  0  0
  8 20  1  0  0  0  0
  9  6  2  0  0  0  0
  9  3  1  0  0  0  0
 10 15  1  0  0  0  0
 10 16  1  0  0  0  0
 11  1  1  0  0  0  0
 13  6  1  0  0  0  0
 14 10  2  0  0  0  0
 15 21  2  0  0  0  0
 16  5  1  0  0  0  0
 17  7  2  0  0  0  0
 18 23  2  0  0  0  0
 19 14  1  0  0  0  0
 20 19  2  0  0  0  0
 21 12  1  0  0  0  0
 22 23  1  0  0  0  0
 22 12  2  0  0  0  0
 24 27  1  0  0  0  0
 25 28  2  0  0  0  0
 26 29  1  0  0  0  0
 28 24  1  0  0  0  0
 29 31  1  0  0  0  0
 30 29  2  0  0  0  0
 30 25  1  0  0  0  0
 31 24  2  0  0  0  0
M  END
>  <MODEL>
3

>  <REMARK>
 VINA RESULT:      -9.4      1.579      4.239
  Name = 
  1 active torsions:
  status: ('A' for Active; 'I' for Inactive)
    1  A    between atoms: C_9  and  C_22
                            x       y       z     vdW  Elec       q    Type
                         _______ _______ _______ _____ _____    ______ ____

>  <TORSDO>
F 1

$$$$
=
 OpenBabel11052422363D

 31 35  0  0  0  0  0  0  0  0999 V2000
  161.0760  205.6190  145.7120 C   0  0  0  0  0  0  0  0  0  0  0  0
  161.0830  204.6210  149.3440 C   0  0  0  0  0  0  0  0  0  0  0  0
  161.0930  203.1930  149.3880 C   0  0  0  0  0  0  0  0  0  0  0  0
  161.0430  209.5970  151.0700 O   0  0  0  0  0  0  0  0  0  0  0  0
  161.0500  208.8240  152.0660 C   0  0  0  0  0  0  0  0  0  0  0  0
  161.1100  200.9960  148.3140 C   0  0  0  0  0  0  0  0  0  0  0  0
  161.0770  205.3970  148.1450 C   0  0  0  0  0  0  0  0  0  0  0  0
  161.0650  207.0080  145.8260 C   0  0  0  0  0  3  0  0  0  0  0  0
  161.1000  202.3910  148.2330 C   0  0  0  0  0  3  0  0  0  0  0  0
  161.0660  206.7170  150.6140 C   0  0  0  0  0  0  0  0  0  0  0  0
  161.0810  204.9820  144.3700 C   0  0  0  0  0  1  0  0  0  0  0  0
  161.0920  203.2800  151.8150 C   0  0  0  0  0  3  0  0  0  0  0  0
  161.1160  200.2330  147.1550 O   0  0  0  0  0  1  0  0  0  0  0  0
  161.0610  207.4170  149.4520 N   0  0  0  0  0  0  0  0  0  0  0  0
  161.0760  205.3170  150.5850 C   0  0  0  0  0  0  0  0  0  0  0  0
  161.0600  207.4020  151.8760 N   0  0  0  0  0  2  0  0  0  0  0  0
  161.0810  204.8240  146.8600 C   0  0  0  0  0  3  0  0  0  0  0  0
  161.1140  200.3710  149.5610 C   0  0  0  0  0  3  0  0  0  0  0  0
  161.0660  206.8110  148.2410 C   0  0  0  0  0  0  0  0  0  0  0  0
  161.0610  207.6020  147.0870 C   0  0  0  0  0  3  0  0  0  0  0  0
  161.0810  204.6330  151.7620 N   0  0  0  0  0  0  0  0  0  0  0  0
  161.0970  202.5350  150.6450 C   0  0  0  0  0  0  0  0  0  0  0  0
  161.1080  201.1400  150.7250 C   0  0  0  0  0  3  0  0  0  0  0  0
  161.0410  210.5000  156.0170 C   0  0  0  0  0  0  0  0  0  0  0  0
  161.0980  210.7680  153.6140 C   0  0  0  0  0  3  0  0  0  0  0  0
  160.9400  207.1960  154.4710 F   0  0  0  0  0  0  0  0  0  0  0  0
  161.0390  211.0400  157.2590 F   0  0  0  0  0  0  0  0  0  0  0  0
  161.0950  211.3270  154.8950 C   0  0  0  0  0  3  0  0  0  0  0  0
  160.9910  208.5460  154.5810 C   0  0  0  0  0  0  0  0  0  0  0  0
  161.0450  209.3760  153.4390 C   0  0  0  0  0  0  0  0  0  0  0  0
  160.9890  209.1130  155.8600 C   0  0  0  0  0  3  0  0  0  0  0  0
  1  8  2  0  0  0  0
  1 17  1  0  0  0  0
  2  3  2  0  0  0  0
  2 15  1  0  0  0  0
  3 22  1  0  0  0  0
  4  5  2  0  0  0  0
  5 30  1  0  0  0  0
  6 18  1  0  0  0  0
  7 19  1  0  0  0  0
  7  2  1  0  0  0  0
  8 20  1  0  0  0  0
  9  6  2  0  0  0  0
  9  3  1  0  0  0  0
 10 16  1  0  0  0  0
 11  1  1  0  0  0  0
 13  6  1  0  0  0  0
 14 10  2  0  0  0  0
 15 10  1  0  0  0  0
 15 21  2  0  0  0  0
 16  5  1  0  0  0  0
 17  7  2  0  0  0  0
 18 23  2  0  0  0  0
 19 14  1  0  0  0  0
 20 19  2  0  0  0  0
 21 12  1  0  0  0  0
 22 23  1  0  0  0  0
 22 12  2  0  0  0  0
 24 27  1  0  0  0  0
 25 28  1  0  0  0  0
 26 29  1  0  0  0  0
 28 24  2  0  0  0  0
 29 31  2  0  0  0  0
 30 25  2  0  0  0  0
 30 29  1  0  0  0  0
 31 24  1  0  0  0  0
M  END
>  <MODEL>
4

>  <REMARK>
 VINA RESULT:      -9.4      1.486      4.087
  Name = 
  1 active torsions:
  status: ('A' for Active; 'I' for Inactive)
    1  A    between atoms: C_9  and  C_22
                            x       y       z     vdW  Elec       q    Type
                         _______ _______ _______ _____ _____    ______ ____

>  <TORSDO>
F 1

$$$$
=
 OpenBabel11052422363D

 31 35  0  0  0  0  0  0  0  0999 V2000
  161.8290  210.6240  149.9420 C   0  0  0  0  0  0  0  0  0  0  0  0
  161.2990  207.1560  151.3120 C   0  0  0  0  0  0  0  0  0  0  0  0
  161.1510  207.2800  152.7280 C   0  0  0  0  0  0  0  0  0  0  0  0
  161.5980  204.8640  146.5790 O   0  0  0  0  0  0  0  0  0  0  0  0
  161.4020  203.9720  147.4480 C   0  0  0  0  0  0  0  0  0  0  0  0
  161.0560  208.6000  154.7840 C   0  0  0  0  0  0  0  0  0  0  0  0
  161.5200  208.2480  150.4190 C   0  0  0  0  0  0  0  0  0  0  0  0
  161.9560  210.3470  148.5810 C   0  0  0  0  0  3  0  0  0  0  0  0
  161.2060  208.5160  153.3980 C   0  0  0  0  0  3  0  0  0  0  0  0
  161.3610  205.6540  149.3760 C   0  0  0  0  0  0  0  0  0  0  0  0
  161.9240  212.0240  150.4290 C   0  0  0  0  0  1  0  0  0  0  0  0
  160.8730  204.8740  152.8990 C   0  0  0  0  0  3  0  0  0  0  0  0
  161.1170  209.8350  155.4150 O   0  0  0  0  0  1  0  0  0  0  0  0
  161.5690  206.7190  148.5620 N   0  0  0  0  0  0  0  0  0  0  0  0
  161.2230  205.8480  150.7570 C   0  0  0  0  0  0  0  0  0  0  0  0
  161.2810  204.3280  148.8330 N   0  0  0  0  0  2  0  0  0  0  0  0
  161.6140  209.5840  150.8480 C   0  0  0  0  0  3  0  0  0  0  0  0
  160.8460  207.4430  155.5340 C   0  0  0  0  0  3  0  0  0  0  0  0
  161.6510  207.9860  149.0320 C   0  0  0  0  0  0  0  0  0  0  0  0
  161.8670  209.0320  148.1280 C   0  0  0  0  0  3  0  0  0  0  0  0
  161.0160  204.7670  151.5570 N   0  0  0  0  0  0  0  0  0  0  0  0
  160.9360  206.1170  153.5110 C   0  0  0  0  0  0  0  0  0  0  0  0
  160.7860  206.2030  154.8980 C   0  0  0  0  0  3  0  0  0  0  0  0
  161.1210  199.8280  146.3640 C   0  0  0  0  0  0  0  0  0  0  0  0
  161.6670  201.5560  147.9670 C   0  0  0  0  0  3  0  0  0  0  0  0
  160.4590  203.0810  144.8470 F   0  0  0  0  0  0  0  0  0  0  0  0
  161.0370  198.5180  146.0340 F   0  0  0  0  0  0  0  0  0  0  0  0
  161.5810  200.2030  147.6280 C   0  0  0  0  0  3  0  0  0  0  0  0
  160.8310  202.1620  145.7730 C   0  0  0  0  0  0  0  0  0  0  0  0
  161.2950  202.5510  147.0490 C   0  0  0  0  0  0  0  0  0  0  0  0
  160.7480  200.8060  145.4410 C   0  0  0  0  0  3  0  0  0  0  0  0
  1 11  1  0  0  0  0
  1 17  1  0  0  0  0
  2  3  1  0  0  0  0
  3  9  2  0  0  0  0
  3 22  1  0  0  0  0
  4  5  2  0  0  0  0
  5 16  1  0  0  0  0
  6 13  1  0  0  0  0
  6 18  2  0  0  0  0
  7 17  2  0  0  0  0
  7  2  1  0  0  0  0
  8  1  2  0  0  0  0
  9  6  1  0  0  0  0
 10 15  1  0  0  0  0
 12 22  1  0  0  0  0
 14 19  1  0  0  0  0
 14 10  2  0  0  0  0
 15  2  2  0  0  0  0
 15 21  1  0  0  0  0
 16 10  1  0  0  0  0
 19  7  1  0  0  0  0
 20  8  1  0  0  0  0
 20 19  2  0  0  0  0
 21 12  2  0  0  0  0
 22 23  2  0  0  0  0
 23 18  1  0  0  0  0
 24 28  1  0  0  0  0
 26 29  1  0  0  0  0
 27 24  1  0  0  0  0
 28 25  2  0  0  0  0
 29 30  2  0  0  0  0
 30  5  1  0  0  0  0
 30 25  1  0  0  0  0
 31 29  1  0  0  0  0
 31 24  2  0  0  0  0
M  END
>  <MODEL>
5

>  <REMARK>
 VINA RESULT:      -8.7      4.062      9.271
  Name = 
  1 active torsions:
  status: ('A' for Active; 'I' for Inactive)
    1  A    between atoms: C_9  and  C_22
                            x       y       z     vdW  Elec       q    Type
                         _______ _______ _______ _____ _____    ______ ____

>  <TORSDO>
F 1

$$$$
=
 OpenBabel11052422363D

 31 35  0  0  0  0  0  0  0  0999 V2000
  161.7540  210.7760  149.9370 C   0  0  0  0  0  0  0  0  0  0  0  0
  161.3150  207.3360  151.4080 C   0  0  0  0  0  0  0  0  0  0  0  0
  161.1970  207.4950  152.8230 C   0  0  0  0  0  0  0  0  0  0  0  0
  161.5400  204.9280  146.7280 O   0  0  0  0  0  0  0  0  0  0  0  0
  161.3790  204.0560  147.6240 C   0  0  0  0  0  0  0  0  0  0  0  0
  161.1290  208.8650  154.8470 C   0  0  0  0  0  0  0  0  0  0  0  0
  161.4960  208.4080  150.4810 C   0  0  0  0  0  0  0  0  0  0  0  0
  161.8540  210.4670  148.5820 C   0  0  0  0  0  3  0  0  0  0  0  0
  161.2480  208.7480  153.4600 C   0  0  0  0  0  3  0  0  0  0  0  0
  161.3560  205.7860  149.5090 C   0  0  0  0  0  0  0  0  0  0  0  0
  161.8370  212.1900  150.3860 C   0  0  0  0  0  1  0  0  0  0  0  0
  160.9640  205.0890  153.0610 C   0  0  0  0  0  3  0  0  0  0  0  0
  161.1840  210.1170  155.4440 O   0  0  0  0  0  1  0  0  0  0  0  0
  161.5270  206.8330  148.6630 N   0  0  0  0  0  0  0  0  0  0  0  0
  161.2470  206.0130  150.8870 C   0  0  0  0  0  0  0  0  0  0  0  0
  161.2850  204.4450  149.0020 N   0  0  0  0  0  2  0  0  0  0  0  0
  161.5780  209.7560  150.8750 C   0  0  0  0  0  3  0  0  0  0  0  0
  160.9560  207.7250  155.6310 C   0  0  0  0  0  3  0  0  0  0  0  0
  161.5990  208.1130  149.0990 C   0  0  0  0  0  0  0  0  0  0  0  0
  161.7760  209.1380  148.1640 C   0  0  0  0  0  3  0  0  0  0  0  0
  161.0770  204.9500  151.7200 N   0  0  0  0  0  0  0  0  0  0  0  0
  161.0210  206.3490  153.6400 C   0  0  0  0  0  0  0  0  0  0  0  0
  160.9020  206.4680  155.0280 C   0  0  0  0  0  3  0  0  0  0  0  0
  161.0930  199.9230  146.5010 C   0  0  0  0  0  0  0  0  0  0  0  0
  161.0030  202.2730  145.9340 C   0  0  0  0  0  3  0  0  0  0  0  0
  161.7470  201.8770  149.5130 F   0  0  0  0  0  0  0  0  0  0  0  0
  161.0010  198.6230  146.1350 F   0  0  0  0  0  0  0  0  0  0  0  0
  160.9080  200.9320  145.5550 C   0  0  0  0  0  3  0  0  0  0  0  0
  161.4730  201.5960  148.2150 C   0  0  0  0  0  0  0  0  0  0  0  0
  161.2860  202.6240  147.2640 C   0  0  0  0  0  0  0  0  0  0  0  0
  161.3750  200.2560  147.8280 C   0  0  0  0  0  3  0  0  0  0  0  0
  1 11  1  0  0  0  0
  1 17  1  0  0  0  0
  2  3  1  0  0  0  0
  3  9  2  0  0  0  0
  3 22  1  0  0  0  0
  4  5  2  0  0  0  0
  5 16  1  0  0  0  0
  6 13  1  0  0  0  0
  6 18  2  0  0  0  0
  7 17  2  0  0  0  0
  7  2  1  0  0  0  0
  8  1  2  0  0  0  0
  9  6  1  0  0  0  0
 10 15  1  0  0  0  0
 12 22  1  0  0  0  0
 14 19  1  0  0  0  0
 14 10  2  0  0  0  0
 15  2  2  0  0  0  0
 15 21  1  0  0  0  0
 16 10  1  0  0  0  0
 19  7  1  0  0  0  0
 20  8  1  0  0  0  0
 20 19  2  0  0  0  0
 21 12  2  0  0  0  0
 22 23  2  0  0  0  0
 23 18  1  0  0  0  0
 24 31  1  0  0  0  0
 25 30  2  0  0  0  0
 27 24  1  0  0  0  0
 28 25  1  0  0  0  0
 28 24  2  0  0  0  0
 29 26  1  0  0  0  0
 30  5  1  0  0  0  0
 30 29  1  0  0  0  0
 31 29  2  0  0  0  0
M  END
>  <MODEL>
6

>  <REMARK>
 VINA RESULT:      -8.2      3.708      9.085
  Name = 
  1 active torsions:
  status: ('A' for Active; 'I' for Inactive)
    1  A    between atoms: C_9  and  C_22
                            x       y       z     vdW  Elec       q    Type
                         _______ _______ _______ _____ _____    ______ ____

>  <TORSDO>
F 1

$$$$
=
 OpenBabel11052422363D

 31 35  0  0  0  0  0  0  0  0999 V2000
  160.6850  210.6750  154.4480 C   0  0  0  0  0  0  0  0  0  0  0  0
  161.2120  209.5200  150.9020 C   0  0  0  0  0  0  0  0  0  0  0  0
  161.3800  210.6890  150.0990 C   0  0  0  0  0  0  0  0  0  0  0  0
  160.8380  204.4140  152.1440 O   0  0  0  0  0  0  0  0  0  0  0  0
  161.0400  204.5150  150.9030 C   0  0  0  0  0  0  0  0  0  0  0  0
  161.5090  213.1140  149.8090 C   0  0  0  0  0  0  0  0  0  0  0  0
  160.9860  209.5280  152.3130 C   0  0  0  0  0  0  0  0  0  0  0  0
  160.5380  209.4520  155.1000 C   0  0  0  0  0  3  0  0  0  0  0  0
  161.3400  211.9920  150.6260 C   0  0  0  0  0  3  0  0  0  0  0  0
  161.1160  207.0710  150.9750 C   0  0  0  0  0  0  0  0  0  0  0  0
  160.6040  211.9430  155.2190 C   0  0  0  0  0  1  0  0  0  0  0  0
  161.6460  209.2860  148.1340 C   0  0  0  0  0  3  0  0  0  0  0  0
  161.4640  214.3860  150.3610 O   0  0  0  0  0  1  0  0  0  0  0  0
  160.9030  207.1230  152.3140 N   0  0  0  0  0  0  0  0  0  0  0  0
  161.2730  208.2580  150.2470 C   0  0  0  0  0  0  0  0  0  0  0  0
  161.1810  205.8080  150.2970 N   0  0  0  0  0  2  0  0  0  0  0  0
  160.9050  210.7100  153.0700 C   0  0  0  0  0  3  0  0  0  0  0  0
  161.7220  212.9530  148.4400 C   0  0  0  0  0  3  0  0  0  0  0  0
  160.8350  208.2930  152.9920 C   0  0  0  0  0  0  0  0  0  0  0  0
  160.6140  208.2640  154.3730 C   0  0  0  0  0  3  0  0  0  0  0  0
  161.4840  208.1850  148.9050 N   0  0  0  0  0  0  0  0  0  0  0  0
  161.5980  210.5500  148.7040 C   0  0  0  0  0  0  0  0  0  0  0  0
  161.7660  211.6730  147.8890 C   0  0  0  0  0  3  0  0  0  0  0  0
  161.3080  200.9490  148.5290 C   0  0  0  0  0  0  0  0  0  0  0  0
  161.1320  202.0410  150.6800 C   0  0  0  0  0  3  0  0  0  0  0  0
  161.2320  204.5600  148.0030 F   0  0  0  0  0  0  0  0  0  0  0  0
  161.3920  199.8170  147.7910 F   0  0  0  0  0  0  0  0  0  0  0  0
  161.2180  200.8720  149.9190 C   0  0  0  0  0  3  0  0  0  0  0  0
  161.2250  203.3700  148.6530 C   0  0  0  0  0  0  0  0  0  0  0  0
  161.1330  203.3010  150.0610 C   0  0  0  0  0  0  0  0  0  0  0  0
  161.3110  202.1950  147.8990 C   0  0  0  0  0  3  0  0  0  0  0  0
  1  8  1  0  0  0  0
  1 11  1  0  0  0  0
  2  7  1  0  0  0  0
  3  9  1  0  0  0  0
  3  2  2  0  0  0  0
  5  4  2  0  0  0  0
  6 13  1  0  0  0  0
  6  9  2  0  0  0  0
  7 19  2  0  0  0  0
  7 17  1  0  0  0  0
 10 14  2  0  0  0  0
 12 22  2  0  0  0  0
 12 21  1  0  0  0  0
 14 19  1  0  0  0  0
 15  2  1  0  0  0  0
 15 10  1  0  0  0  0
 16  5  1  0  0  0  0
 16 10  1  0  0  0  0
 17  1  2  0  0  0  0
 18  6  1  0  0  0  0
 19 20  1  0  0  0  0
 20  8  2  0  0  0  0
 21 15  2  0  0  0  0
 22  3  1  0  0  0  0
 23 18  2  0  0  0  0
 23 22  1  0  0  0  0
 24 28  1  0  0  0  0
 26 29  1  0  0  0  0
 27 24  1  0  0  0  0
 28 25  2  0  0  0  0
 29 30  2  0  0  0  0
 30 25  1  0  0  0  0
 30  5  1  0  0  0  0
 31 24  2  0  0  0  0
 31 29  1  0  0  0  0
M  END
>  <MODEL>
7

>  <REMARK>
 VINA RESULT:      -7.1      3.834      8.015
  Name = 
  1 active torsions:
  status: ('A' for Active; 'I' for Inactive)
    1  A    between atoms: C_9  and  C_22
                            x       y       z     vdW  Elec       q    Type
                         _______ _______ _______ _____ _____    ______ ____

>  <TORSDO>
F 1

$$$$
