=
 OpenBabel11062408303D

 32 37  0  0  1  0  0  0  0  0999 V2000
  161.0030  207.9940  152.8410 C   0  0  1  0  0  3  0  0  0  0  0  0
  160.4830  210.3920  152.3570 C   0  0  1  0  0  3  0  0  0  0  0  0
  161.5420  207.0810  153.9390 C   0  0  0  0  0  2  0  0  0  0  0  0
  160.9880  209.4120  153.3990 C   0  0  1  0  0  3  0  0  0  0  0  0
  160.3920  211.7480  152.9250 N   0  0  1  0  0  0  0  0  0  0  0  0
  161.9480  212.4350  148.1120 C   0  0  0  0  0  3  0  0  0  0  0  0
  161.5230  210.3200  151.2390 C   0  0  1  0  0  3  0  0  0  0  0  0
  160.6120  213.6750  149.7040 C   0  0  0  0  0  3  0  0  0  0  0  0
  160.6830  212.6070  150.6060 C   0  0  0  0  0  0  0  0  0  0  0  0
  160.2450  209.5340  154.6900 C   0  0  0  0  0  0  0  0  0  0  0  0
  159.9310  212.7050  151.9030 C   0  0  0  0  0  2  0  0  0  0  0  0
  159.7380  210.7840  155.0470 O   0  0  0  0  0  0  0  0  0  0  0  0
  160.1350  208.4930  155.5220 C   0  0  0  0  0  3  0  0  0  0  0  0
  161.4590  208.9980  150.6080 N   0  0  0  0  0  2  0  0  0  0  0  0
  161.8910  207.9770  151.5790 C   0  0  2  0  0  3  0  0  0  0  0  0
  161.3590  211.4280  150.2410 C   0  0  0  0  0  0  0  0  0  0  0  0
  159.4300  211.7710  154.0570 C   0  0  2  0  0  3  0  0  0  0  0  0
  160.5890  207.1020  155.1410 C   0  0  0  0  0  2  0  0  0  0  0  0
  161.2450  213.5900  148.4610 C   0  0  0  0  0  3  0  0  0  0  0  0
  162.0130  211.3610  149.0030 C   0  0  0  0  0  3  0  0  0  0  0  0
  160.5140  205.9750  148.8290 C   0  0  1  0  0  3  0  0  0  0  0  0
  161.0690  202.4410  149.7660 O   0  0  0  0  0  0  0  0  0  0  0  0
  160.1580  206.5500  147.6220 F   0  0  0  0  0  0  0  0  0  0  0  0
  161.1680  204.2540  151.2010 N   0  0  0  0  0  2  0  0  0  0  0  0
  161.9190  206.5880  150.9280 C   0  0  1  0  0  3  0  0  0  0  0  0
  160.8440  204.5030  148.6270 C   0  0  0  0  0  2  0  0  0  0  0  0
  160.9240  205.6360  151.5960 C   0  0  0  0  0  2  0  0  0  0  0  0
  161.6840  206.6920  149.4450 C   0  0  0  0  0  0  0  0  0  0  0  0
  162.6640  207.1650  148.6710 C   0  0  0  0  0  2  0  0  0  0  0  0
  161.0090  203.6910  149.8880 C   0  0  0  0  0  0  0  0  0  0  0  0
  157.9510  211.6580  153.6430 C   0  0  0  0  0  2  0  0  0  0  0  0
  157.1430  211.3290  154.7330 O   0  0  0  0  0  1  0  0  0  0  0  0
  1  4  1  0  0  0  0
  1  3  1  1  0  0  0
  2  5  1  0  0  0  0
  2  4  1  0  0  0  0
  3 18  1  0  0  0  0
  4 10  1  0  0  0  0
  5 17  1  0  0  0  0
  6 19  2  0  0  0  0
  6 20  1  0  0  0  0
  7  2  1  0  0  0  0
  8  9  2  0  0  0  0
  9 11  1  0  0  0  0
 10 12  1  0  0  0  0
 10 13  2  0  0  0  0
 11  5  1  0  0  0  0
 14  7  1  0  0  0  0
 14 15  1  0  0  0  0
 15  1  1  0  0  0  0
 16  9  1  0  0  0  0
 16  7  1  0  0  0  0
 17 12  1  0  0  0  0
 18 13  1  0  0  0  0
 19  8  1  0  0  0  0
 20 16  2  0  0  0  0
 21 28  1  0  0  0  0
 22 30  2  0  0  0  0
 23 21  1  0  0  0  0
 24 27  1  0  0  0  0
 25 15  1  0  0  0  0
 25 27  1  0  0  0  0
 26 21  1  0  0  0  0
 26 30  1  0  0  0  0
 28 25  1  0  0  0  0
 29 28  2  0  0  0  0
 30 24  1  0  0  0  0
 31 17  1  0  0  0  0
 31 32  1  0  0  0  0
M  END
>  <MODEL>
1

>  <REMARK>
 VINA RESULT:      -9.2      0.000      0.000
  Name = 
  2 active torsions:
  status: ('A' for Active; 'I' for Inactive)
    1  A    between atoms: C_13  and  C_29
    2  A    between atoms: C_16  and  C_27
                            x       y       z     vdW  Elec       q    Type
                         _______ _______ _______ _____ _____    ______ ____

>  <TORSDO>
F 2

$$$$
=
 OpenBabel11062408303D

 32 37  0  0  1  0  0  0  0  0999 V2000
  161.5380  209.0030  151.0600 C   0  0  1  0  0  3  0  0  0  0  0  0
  161.3860  206.8180  149.8520 C   0  0  1  0  0  3  0  0  0  0  0  0
  162.3530  210.2920  151.1100 C   0  0  0  0  0  2  0  0  0  0  0  0
  162.1290  208.1370  149.9540 C   0  0  1  0  0  3  0  0  0  0  0  0
  161.9080  206.0170  148.7300 N   0  0  1  0  0  0  0  0  0  0  0  0
  160.8310  202.6210  152.3860 C   0  0  0  0  0  3  0  0  0  0  0  0
  161.6440  206.1360  151.1960 C   0  0  1  0  0  3  0  0  0  0  0  0
  160.8340  202.6330  149.9660 C   0  0  0  0  0  3  0  0  0  0  0  0
  161.1270  204.0010  149.9660 C   0  0  0  0  0  0  0  0  0  0  0  0
  162.2180  208.8340  148.6360 C   0  0  0  0  0  0  0  0  0  0  0  0
  161.2060  204.7240  148.6510 C   0  0  0  0  0  2  0  0  0  0  0  0
  162.2620  208.0590  147.4780 O   0  0  0  0  0  0  0  0  0  0  0  0
  162.3310  210.1650  148.5680 C   0  0  0  0  0  3  0  0  0  0  0  0
  160.9710  206.8930  152.2560 N   0  0  0  0  0  2  0  0  0  0  0  0
  161.6080  208.2160  152.3850 C   0  0  2  0  0  3  0  0  0  0  0  0
  161.2330  204.6940  151.1870 C   0  0  0  0  0  0  0  0  0  0  0  0
  161.7100  206.7380  147.4460 C   0  0  2  0  0  3  0  0  0  0  0  0
  162.1990  211.0510  149.7860 C   0  0  0  0  0  2  0  0  0  0  0  0
  160.6890  201.9440  151.1730 C   0  0  0  0  0  3  0  0  0  0  0  0
  161.1120  203.9900  152.3930 C   0  0  0  0  0  3  0  0  0  0  0  0
  159.3460  207.9490  155.2630 C   0  0  1  0  0  3  0  0  0  0  0  0
  158.3250  211.4090  156.0790 O   0  0  0  0  0  0  0  0  0  0  0  0
  159.2190  206.7710  155.9790 F   0  0  0  0  0  0  0  0  0  0  0  0
  159.2920  210.7150  154.0940 N   0  0  0  0  0  2  0  0  0  0  0  0
  160.9830  209.0050  153.5440 C   0  0  1  0  0  3  0  0  0  0  0  0
  158.9790  209.1350  156.1440 C   0  0  0  0  0  2  0  0  0  0  0  0
  159.7060  209.7260  153.1060 C   0  0  0  0  0  2  0  0  0  0  0  0
  160.7430  208.1090  154.7280 C   0  0  0  0  0  0  0  0  0  0  0  0
  161.7890  207.7110  155.4550 C   0  0  0  0  0  2  0  0  0  0  0  0
  158.8320  210.4570  155.4320 C   0  0  0  0  0  0  0  0  0  0  0  0
  160.2500  206.7890  146.9580 C   0  0  0  0  0  2  0  0  0  0  0  0
  160.1170  206.2050  145.6970 O   0  0  0  0  0  1  0  0  0  0  0  0
  1  3  1  1  0  0  0
  1 15  1  0  0  0  0
  2  4  1  0  0  0  0
  2  7  1  0  0  0  0
  4  1  1  0  0  0  0
  5  2  1  0  0  0  0
  6 20  1  0  0  0  0
  7 14  1  0  0  0  0
  8  9  2  0  0  0  0
  8 19  1  0  0  0  0
  9 16  1  0  0  0  0
 10  4  1  0  0  0  0
 11  5  1  0  0  0  0
 11  9  1  0  0  0  0
 12 10  1  0  0  0  0
 13 10  2  0  0  0  0
 13 18  1  0  0  0  0
 14 15  1  0  0  0  0
 15 25  1  0  0  0  0
 16  7  1  0  0  0  0
 16 20  2  0  0  0  0
 17 12  1  0  0  0  0
 17  5  1  0  0  0  0
 18  3  1  0  0  0  0
 19  6  2  0  0  0  0
 21 23  1  0  0  0  0
 21 26  1  0  0  0  0
 24 30  1  0  0  0  0
 25 28  1  0  0  0  0
 27 25  1  0  0  0  0
 27 24  1  0  0  0  0
 28 21  1  0  0  0  0
 28 29  2  0  0  0  0
 30 22  2  0  0  0  0
 30 26  1  0  0  0  0
 31 17  1  0  0  0  0
 32 31  1  0  0  0  0
M  END
>  <MODEL>
2

>  <REMARK>
 VINA RESULT:      -8.3      2.577      7.571
  Name = 
  2 active torsions:
  status: ('A' for Active; 'I' for Inactive)
    1  A    between atoms: C_13  and  C_29
    2  A    between atoms: C_16  and  C_27
                            x       y       z     vdW  Elec       q    Type
                         _______ _______ _______ _____ _____    ______ ____

>  <TORSDO>
F 2

$$$$
=
 OpenBabel11062408303D

 32 37  0  0  1  0  0  0  0  0999 V2000
  161.4540  207.8610  150.7170 C   0  0  1  0  0  3  0  0  0  0  0  0
  161.3810  205.9190  149.1430 C   0  0  1  0  0  3  0  0  0  0  0  0
  162.2480  209.1280  151.0230 C   0  0  0  0  0  2  0  0  0  0  0  0
  162.1010  207.2040  149.5030 C   0  0  1  0  0  3  0  0  0  0  0  0
  161.9580  205.3280  147.9220 N   0  0  1  0  0  0  0  0  0  0  0  0
  160.7820  201.3420  150.8850 C   0  0  0  0  0  3  0  0  0  0  0  0
  161.5940  205.0150  150.3580 C   0  0  1  0  0  3  0  0  0  0  0  0
  160.8830  201.7740  148.5070 C   0  0  0  0  0  3  0  0  0  0  0  0
  161.1570  203.1230  148.7560 C   0  0  0  0  0  0  0  0  0  0  0  0
  162.2330  208.1210  148.3300 C   0  0  0  0  0  0  0  0  0  0  0  0
  161.2780  204.0640  147.5900 C   0  0  0  0  0  2  0  0  0  0  0  0
  162.3350  207.5590  147.0580 O   0  0  0  0  0  0  0  0  0  0  0  0
  162.3310  209.4430  148.4990 C   0  0  0  0  0  3  0  0  0  0  0  0
  160.8680  205.5720  151.5040 N   0  0  0  0  0  2  0  0  0  0  0  0
  161.4810  206.8570  151.8870 C   0  0  2  0  0  3  0  0  0  0  0  0
  161.2040  203.5940  150.0810 C   0  0  0  0  0  0  0  0  0  0  0  0
  161.8030  206.2600  146.7750 C   0  0  2  0  0  3  0  0  0  0  0  0
  162.1380  210.1040  149.8450 C   0  0  0  0  0  2  0  0  0  0  0  0
  160.6980  200.8850  149.5690 C   0  0  0  0  0  3  0  0  0  0  0  0
  161.0430  202.6900  151.1410 C   0  0  0  0  0  3  0  0  0  0  0  0
  161.5480  209.6410  154.2770 C   0  0  1  0  0  3  0  0  0  0  0  0
  159.7060  208.4640  157.2610 O   0  0  0  0  0  0  0  0  0  0  0  0
  161.9550  210.9090  153.9010 F   0  0  0  0  0  0  0  0  0  0  0  0
  160.5470  207.1230  155.5730 N   0  0  0  0  0  2  0  0  0  0  0  0
  160.8000  207.4290  153.1370 C   0  0  1  0  0  3  0  0  0  0  0  0
  160.6170  209.7270  155.4780 C   0  0  0  0  0  2  0  0  0  0  0  0
  161.3880  206.8310  154.4180 C   0  0  0  0  0  2  0  0  0  0  0  0
  160.8670  208.9320  153.1390 C   0  0  0  0  0  0  0  0  0  0  0  0
  160.0810  209.6100  152.3000 C   0  0  0  0  0  2  0  0  0  0  0  0
  160.2920  208.4150  156.1490 C   0  0  0  0  0  0  0  0  0  0  0  0
  160.3630  206.3850  146.2420 C   0  0  0  0  0  2  0  0  0  0  0  0
  160.3080  206.1370  144.8690 O   0  0  0  0  0  1  0  0  0  0  0  0
  1  3  1  1  0  0  0
  1 15  1  0  0  0  0
  2  4  1  0  0  0  0
  2  7  1  0  0  0  0
  4  1  1  0  0  0  0
  5  2  1  0  0  0  0
  6 20  1  0  0  0  0
  7 14  1  0  0  0  0
  8  9  2  0  0  0  0
  8 19  1  0  0  0  0
  9 16  1  0  0  0  0
 10 13  2  0  0  0  0
 10  4  1  0  0  0  0
 11  5  1  0  0  0  0
 11  9  1  0  0  0  0
 12 10  1  0  0  0  0
 13 18  1  0  0  0  0
 14 15  1  0  0  0  0
 15 25  1  0  0  0  0
 16  7  1  0  0  0  0
 16 20  2  0  0  0  0
 17 12  1  0  0  0  0
 17  5  1  0  0  0  0
 18  3  1  0  0  0  0
 19  6  2  0  0  0  0
 21 26  1  0  0  0  0
 23 21  1  0  0  0  0
 24 30  1  0  0  0  0
 25 28  1  0  0  0  0
 25 27  1  0  0  0  0
 26 30  1  0  0  0  0
 27 24  1  0  0  0  0
 28 21  1  0  0  0  0
 29 28  2  0  0  0  0
 30 22  2  0  0  0  0
 31 17  1  0  0  0  0
 32 31  1  0  0  0  0
M  END
>  <MODEL>
3

>  <REMARK>
 VINA RESULT:      -7.9      2.882      7.727
  Name = 
  2 active torsions:
  status: ('A' for Active; 'I' for Inactive)
    1  A    between atoms: C_13  and  C_29
    2  A    between atoms: C_16  and  C_27
                            x       y       z     vdW  Elec       q    Type
                         _______ _______ _______ _____ _____    ______ ____

>  <TORSDO>
F 2

$$$$
=
 OpenBabel11062408303D

 32 37  0  0  1  0  0  0  0  0999 V2000
  161.4190  208.6300  150.9880 C   0  0  1  0  0  3  0  0  0  0  0  0
  161.3970  206.5000  149.6770 C   0  0  1  0  0  3  0  0  0  0  0  0
  162.1980  209.9340  151.1460 C   0  0  0  0  0  2  0  0  0  0  0  0
  162.0990  207.8290  149.8840 C   0  0  1  0  0  3  0  0  0  0  0  0
  162.0050  205.7640  148.5550 N   0  0  1  0  0  0  0  0  0  0  0  0
  160.7910  202.1800  151.9820 C   0  0  0  0  0  3  0  0  0  0  0  0
  161.5890  205.7630  151.0030 C   0  0  1  0  0  3  0  0  0  0  0  0
  160.9430  202.3040  149.5700 C   0  0  0  0  0  3  0  0  0  0  0  0
  161.2010  203.6760  149.6490 C   0  0  0  0  0  0  0  0  0  0  0  0
  162.2510  208.5880  148.6060 C   0  0  0  0  0  0  0  0  0  0  0  0
  161.3420  204.4600  148.3750 C   0  0  0  0  0  2  0  0  0  0  0  0
  162.3860  207.8680  147.4190 O   0  0  0  0  0  0  0  0  0  0  0  0
  162.3350  209.9230  148.6050 C   0  0  0  0  0  3  0  0  0  0  0  0
  160.8330  206.4560  152.0510 N   0  0  0  0  0  2  0  0  0  0  0  0
  161.4270  207.7850  152.2790 C   0  0  2  0  0  3  0  0  0  0  0  0
  161.2150  204.3140  150.9040 C   0  0  0  0  0  0  0  0  0  0  0  0
  161.8690  206.5390  147.2940 C   0  0  2  0  0  3  0  0  0  0  0  0
  162.1060  210.7490  149.8500 C   0  0  0  0  0  2  0  0  0  0  0  0
  160.7410  201.5570  150.7340 C   0  0  0  0  0  3  0  0  0  0  0  0
  161.0370  203.5530  152.0670 C   0  0  0  0  0  3  0  0  0  0  0  0
  160.8580  211.0730  153.8050 C   0  0  1  0  0  3  0  0  0  0  0  0
  159.7110  210.4080  157.2580 O   0  0  0  0  0  0  0  0  0  0  0  0
  160.8330  212.2310  153.0460 F   0  0  0  0  0  0  0  0  0  0  0  0
  160.7700  208.8910  155.8660 N   0  0  0  0  0  2  0  0  0  0  0  0
  160.7140  208.5060  153.4300 C   0  0  1  0  0  3  0  0  0  0  0  0
  160.0490  211.2690  155.0790 C   0  0  0  0  0  2  0  0  0  0  0  0
  161.5600  208.4970  154.7060 C   0  0  0  0  0  2  0  0  0  0  0  0
  160.3280  209.9030  153.0240 C   0  0  0  0  0  0  0  0  0  0  0  0
  159.3070  210.0670  152.1800 C   0  0  0  0  0  2  0  0  0  0  0  0
  160.1890  210.1820  156.1160 C   0  0  0  0  0  0  0  0  0  0  0  0
  160.4410  206.5790  146.7190 C   0  0  0  0  0  2  0  0  0  0  0  0
  160.4550  206.5220  145.3240 O   0  0  0  0  0  1  0  0  0  0  0  0
  1  3  1  1  0  0  0
  1 15  1  0  0  0  0
  2  4  1  0  0  0  0
  2  7  1  0  0  0  0
  4  1  1  0  0  0  0
  5  2  1  0  0  0  0
  6 20  1  0  0  0  0
  7 14  1  0  0  0  0
  8  9  2  0  0  0  0
  8 19  1  0  0  0  0
  9 16  1  0  0  0  0
 10  4  1  0  0  0  0
 11  5  1  0  0  0  0
 11  9  1  0  0  0  0
 12 10  1  0  0  0  0
 13 10  2  0  0  0  0
 13 18  1  0  0  0  0
 14 15  1  0  0  0  0
 15 25  1  0  0  0  0
 16  7  1  0  0  0  0
 16 20  2  0  0  0  0
 17 12  1  0  0  0  0
 17  5  1  0  0  0  0
 18  3  1  0  0  0  0
 19  6  2  0  0  0  0
 21 26  1  0  0  0  0
 23 21  1  0  0  0  0
 24 30  1  0  0  0  0
 25 27  1  0  0  0  0
 26 30  1  0  0  0  0
 27 24  1  0  0  0  0
 28 25  1  0  0  0  0
 28 21  1  0  0  0  0
 29 28  2  0  0  0  0
 30 22  2  0  0  0  0
 31 17  1  0  0  0  0
 32 31  1  0  0  0  0
M  END
>  <MODEL>
4

>  <REMARK>
 VINA RESULT:      -7.0      2.647      7.633
  Name = 
  2 active torsions:
  status: ('A' for Active; 'I' for Inactive)
    1  A    between atoms: C_13  and  C_29
    2  A    between atoms: C_16  and  C_27
                            x       y       z     vdW  Elec       q    Type
                         _______ _______ _______ _____ _____    ______ ____

>  <TORSDO>
F 2

$$$$
=
 OpenBabel11062408303D

 32 37  0  0  1  0  0  0  0  0999 V2000
  160.4680  211.7920  150.8670 C   0  0  1  0  0  3  0  0  0  0  0  0
  161.2420  209.4160  150.7840 C   0  0  1  0  0  3  0  0  0  0  0  0
  160.8980  213.2090  150.4950 C   0  0  0  0  0  2  0  0  0  0  0  0
  161.5830  210.8510  150.4290 C   0  0  1  0  0  3  0  0  0  0  0  0
  162.2840  208.5000  150.2880 N   0  0  1  0  0  0  0  0  0  0  0  0
  160.8280  206.5370  154.7690 C   0  0  0  0  0  3  0  0  0  0  0  0
  161.1730  209.4130  152.3120 C   0  0  1  0  0  3  0  0  0  0  0  0
  161.6560  205.6610  152.6710 C   0  0  0  0  0  3  0  0  0  0  0  0
  161.6110  206.9420  152.1110 C   0  0  0  0  0  0  0  0  0  0  0  0
  161.9550  210.9990  148.9900 C   0  0  0  0  0  0  0  0  0  0  0  0
  161.9670  207.1100  150.6600 C   0  0  0  0  0  2  0  0  0  0  0  0
  162.5700  209.9230  148.3500 O   0  0  0  0  0  0  0  0  0  0  0  0
  161.7780  212.1590  148.3490 C   0  0  0  0  0  3  0  0  0  0  0  0
  160.0240  210.2150  152.7420 N   0  0  0  0  0  2  0  0  0  0  0  0
  160.2570  211.6260  152.3860 C   0  0  2  0  0  3  0  0  0  0  0  0
  161.1320  208.0230  152.8740 C   0  0  0  0  0  0  0  0  0  0  0  0
  162.3790  208.5800  148.8070 C   0  0  2  0  0  3  0  0  0  0  0  0
  161.0380  213.3220  148.9710 C   0  0  0  0  0  2  0  0  0  0  0  0
  161.2680  205.4600  153.9990 C   0  0  0  0  0  3  0  0  0  0  0  0
  160.7680  207.8170  154.2120 C   0  0  0  0  0  3  0  0  0  0  0  0
  157.4480  211.7510  154.7430 C   0  0  1  0  0  3  0  0  0  0  0  0
  155.2270  214.4510  153.5380 O   0  0  0  0  0  0  0  0  0  0  0  0
  157.4830  211.0740  155.9500 F   0  0  0  0  0  0  0  0  0  0  0  0
  156.8960  213.4210  152.3090 N   0  0  0  0  0  2  0  0  0  0  0  0
  159.1120  212.5090  152.8980 C   0  0  1  0  0  3  0  0  0  0  0  0
  156.4950  212.9340  154.8390 C   0  0  0  0  0  2  0  0  0  0  0  0
  157.8620  212.3670  152.0250 C   0  0  0  0  0  2  0  0  0  0  0  0
  158.8210  212.2170  154.3450 C   0  0  0  0  0  0  0  0  0  0  0  0
  159.6780  212.6500  155.2720 C   0  0  0  0  0  2  0  0  0  0  0  0
  156.1660  213.6150  153.5330 C   0  0  0  0  0  0  0  0  0  0  0  0
  161.2040  207.9280  148.0540 C   0  0  0  0  0  2  0  0  0  0  0  0
  161.6460  206.9090  147.2090 O   0  0  0  0  0  1  0  0  0  0  0  0
  1  3  1  1  0  0  0
  1 15  1  0  0  0  0
  2  7  1  0  0  0  0
  4  2  1  0  0  0  0
  4  1  1  0  0  0  0
  5 11  1  0  0  0  0
  5  2  1  0  0  0  0
  7 14  1  0  0  0  0
  7 16  1  0  0  0  0
  8 19  1  0  0  0  0
  9  8  2  0  0  0  0
  9 16  1  0  0  0  0
 10  4  1  0  0  0  0
 11  9  1  0  0  0  0
 12 17  1  0  0  0  0
 12 10  1  0  0  0  0
 13 18  1  0  0  0  0
 13 10  2  0  0  0  0
 15 14  1  0  0  0  0
 15 25  1  0  0  0  0
 16 20  2  0  0  0  0
 17  5  1  0  0  0  0
 18  3  1  0  0  0  0
 19  6  2  0  0  0  0
 20  6  1  0  0  0  0
 21 26  1  0  0  0  0
 21 23  1  0  0  0  0
 24 30  1  0  0  0  0
 25 28  1  0  0  0  0
 27 24  1  0  0  0  0
 27 25  1  0  0  0  0
 28 21  1  0  0  0  0
 28 29  2  0  0  0  0
 30 22  2  0  0  0  0
 30 26  1  0  0  0  0
 31 17  1  0  0  0  0
 32 31  1  0  0  0  0
M  END
>  <MODEL>
5

>  <REMARK>
 VINA RESULT:      -6.8      2.807      7.768
  Name = 
  2 active torsions:
  status: ('A' for Active; 'I' for Inactive)
    1  A    between atoms: C_13  and  C_29
    2  A    between atoms: C_16  and  C_27
                            x       y       z     vdW  Elec       q    Type
                         _______ _______ _______ _____ _____    ______ ____

>  <TORSDO>
F 2

$$$$
=
 OpenBabel11062408303D

 32 37  0  0  1  0  0  0  0  0999 V2000
  159.9500  212.5830  152.6290 C   0  0  1  0  0  3  0  0  0  0  0  0
  160.4030  210.4000  153.7600 C   0  0  1  0  0  3  0  0  0  0  0  0
  158.9490  213.7350  152.6000 C   0  0  0  0  0  2  0  0  0  0  0  0
  159.4700  211.5930  153.6830 C   0  0  1  0  0  3  0  0  0  0  0  0
  159.9820  209.4830  154.8350 N   0  0  1  0  0  0  0  0  0  0  0  0
  161.6630  206.4440  151.0940 C   0  0  0  0  0  3  0  0  0  0  0  0
  160.2880  209.7420  152.3840 C   0  0  1  0  0  3  0  0  0  0  0  0
  161.5940  206.3560  153.5110 C   0  0  0  0  0  3  0  0  0  0  0  0
  161.0950  207.6620  153.5510 C   0  0  0  0  0  0  0  0  0  0  0  0
  159.2410  212.2140  155.0220 C   0  0  0  0  0  0  0  0  0  0  0  0
  160.8720  208.3100  154.8890 C   0  0  0  0  0  2  0  0  0  0  0  0
  159.2860  211.3940  156.1490 O   0  0  0  0  0  0  0  0  0  0  0  0
  158.9230  213.5080  155.1350 C   0  0  0  0  0  3  0  0  0  0  0  0
  160.8650  210.6360  151.3760 N   0  0  0  0  0  2  0  0  0  0  0  0
  160.0370  211.8510  151.2740 C   0  0  2  0  0  3  0  0  0  0  0  0
  160.9160  208.3800  152.3540 C   0  0  0  0  0  0  0  0  0  0  0  0
  160.0330  210.1730  156.1500 C   0  0  2  0  0  3  0  0  0  0  0  0
  158.9490  214.4530  153.9560 C   0  0  0  0  0  2  0  0  0  0  0  0
  161.8750  205.7470  152.2840 C   0  0  0  0  0  3  0  0  0  0  0  0
  161.1760  207.7530  151.1280 C   0  0  0  0  0  3  0  0  0  0  0  0
  159.5070  212.8890  147.7950 C   0  0  1  0  0  3  0  0  0  0  0  0
  162.6790  214.4470  146.7040 O   0  0  0  0  0  0  0  0  0  0  0  0
  158.2460  212.9010  147.2250 F   0  0  0  0  0  0  0  0  0  0  0  0
  162.4050  213.0870  148.5560 N   0  0  0  0  0  2  0  0  0  0  0  0
  160.5620  212.7730  150.1660 C   0  0  1  0  0  3  0  0  0  0  0  0
  160.4110  213.8810  147.0770 C   0  0  0  0  0  2  0  0  0  0  0  0
  161.7010  212.1150  149.3840 C   0  0  0  0  0  2  0  0  0  0  0  0
  159.4420  213.2100  149.2620 C   0  0  0  0  0  0  0  0  0  0  0  0
  158.5680  214.1130  149.7130 C   0  0  0  0  0  2  0  0  0  0  0  0
  161.8780  213.7990  147.4240 C   0  0  0  0  0  0  0  0  0  0  0  0
  161.4550  210.4250  156.6860 C   0  0  0  0  0  2  0  0  0  0  0  0
  161.5810  211.7170  157.1990 O   0  0  0  0  0  1  0  0  0  0  0  0
  1  3  1  6  0  0  0
  1  4  1  0  0  0  0
  2  5  1  0  0  0  0
  3 18  1  0  0  0  0
  4  2  1  0  0  0  0
  4 10  1  0  0  0  0
  5 11  1  0  0  0  0
  5 17  1  0  0  0  0
  6 20  2  0  0  0  0
  6 19  1  0  0  0  0
  7  2  1  0  0  0  0
  8  9  1  0  0  0  0
  9 11  1  0  0  0  0
 10 13  2  0  0  0  0
 10 12  1  0  0  0  0
 12 17  1  0  0  0  0
 14  7  1  0  0  0  0
 15 14  1  0  0  0  0
 15  1  1  0  0  0  0
 16  7  1  0  0  0  0
 16  9  2  0  0  0  0
 17 31  1  0  0  0  0
 18 13  1  0  0  0  0
 19  8  2  0  0  0  0
 20 16  1  0  0  0  0
 21 28  1  0  0  0  0
 22 30  2  0  0  0  0
 23 21  1  0  0  0  0
 24 27  1  0  0  0  0
 25 15  1  0  0  0  0
 26 30  1  0  0  0  0
 26 21  1  0  0  0  0
 27 25  1  0  0  0  0
 28 29  2  0  0  0  0
 28 25  1  0  0  0  0
 30 24  1  0  0  0  0
 31 32  1  0  0  0  0
M  END
>  <MODEL>
6

>  <REMARK>
 VINA RESULT:      -6.6      2.980      6.356
  Name = 
  2 active torsions:
  status: ('A' for Active; 'I' for Inactive)
    1  A    between atoms: C_13  and  C_29
    2  A    between atoms: C_16  and  C_27
                            x       y       z     vdW  Elec       q    Type
                         _______ _______ _______ _____ _____    ______ ____

>  <TORSDO>
F 2

$$$$
=
 OpenBabel11062408303D

 32 37  0  0  1  0  0  0  0  0999 V2000
  161.1730  206.2230  150.2080 C   0  0  1  0  0  3  0  0  0  0  0  0
  161.2620  208.6120  150.9450 C   0  0  1  0  0  3  0  0  0  0  0  0
  161.6950  204.8360  150.5720 C   0  0  0  0  0  2  0  0  0  0  0  0
  161.7180  207.1970  151.2470 C   0  0  1  0  0  3  0  0  0  0  0  0
  161.7220  209.5380  151.9950 N   0  0  1  0  0  0  0  0  0  0  0  0
  162.0770  212.1910  147.6490 C   0  0  0  0  0  3  0  0  0  0  0  0
  161.9010  208.9320  149.5940 C   0  0  1  0  0  3  0  0  0  0  0  0
  161.6290  212.7040  149.9710 C   0  0  0  0  0  3  0  0  0  0  0  0
  161.6240  211.3390  150.2790 C   0  0  0  0  0  0  0  0  0  0  0  0
  161.4120  206.7970  152.6540 C   0  0  0  0  0  0  0  0  0  0  0  0
  161.3040  210.9160  151.6850 C   0  0  0  0  0  2  0  0  0  0  0  0
  161.4020  207.7870  153.6370 O   0  0  0  0  0  0  0  0  0  0  0  0
  161.2300  205.5130  152.9800 C   0  0  0  0  0  3  0  0  0  0  0  0
  161.2930  208.0870  148.5620 N   0  0  0  0  0  2  0  0  0  0  0  0
  161.6510  206.6800  148.8150 C   0  0  2  0  0  3  0  0  0  0  0  0
  161.8070  210.3910  149.2560 C   0  0  0  0  0  0  0  0  0  0  0  0
  161.1430  209.1560  153.3100 C   0  0  2  0  0  3  0  0  0  0  0  0
  161.1430  204.4190  151.9410 C   0  0  0  0  0  2  0  0  0  0  0  0
  161.8580  213.1290  148.6590 C   0  0  0  0  0  3  0  0  0  0  0  0
  162.0610  210.8260  147.9470 C   0  0  0  0  0  3  0  0  0  0  0  0
  162.5980  204.7160  145.8640 C   0  0  1  0  0  3  0  0  0  0  0  0
  159.4810  204.2040  143.9390 O   0  0  0  0  0  0  0  0  0  0  0  0
  163.8380  204.1090  145.7630 F   0  0  0  0  0  0  0  0  0  0  0  0
  159.7990  205.7740  145.6090 N   0  0  0  0  0  2  0  0  0  0  0  0
  161.1010  205.7750  147.7050 C   0  0  1  0  0  3  0  0  0  0  0  0
  161.5870  203.9790  144.9960 C   0  0  0  0  0  2  0  0  0  0  0  0
  160.5990  206.5930  146.5120 C   0  0  0  0  0  2  0  0  0  0  0  0
  162.1290  204.7560  147.2920 C   0  0  0  0  0  0  0  0  0  0  0  0
  162.3860  203.7350  148.1110 C   0  0  0  0  0  2  0  0  0  0  0  0
  160.2580  204.6700  144.8120 C   0  0  0  0  0  0  0  0  0  0  0  0
  159.6400  209.4590  153.4600 C   0  0  0  0  0  2  0  0  0  0  0  0
  159.3990  210.3030  154.5450 O   0  0  0  0  0  1  0  0  0  0  0  0
  1  3  1  1  0  0  0
  1  4  1  0  0  0  0
  2  4  1  0  0  0  0
  2  5  1  0  0  0  0
  3 18  1  0  0  0  0
  4 10  1  0  0  0  0
  5 17  1  0  0  0  0
  6 20  2  0  0  0  0
  6 19  1  0  0  0  0
  7  2  1  0  0  0  0
  8  9  1  0  0  0  0
  9 11  1  0  0  0  0
 10 13  2  0  0  0  0
 10 12  1  0  0  0  0
 11  5  1  0  0  0  0
 14 15  1  0  0  0  0
 14  7  1  0  0  0  0
 15  1  1  0  0  0  0
 16  7  1  0  0  0  0
 16  9  2  0  0  0  0
 17 31  1  0  0  0  0
 17 12  1  0  0  0  0
 18 13  1  0  0  0  0
 19  8  2  0  0  0  0
 20 16  1  0  0  0  0
 21 28  1  0  0  0  0
 22 30  2  0  0  0  0
 23 21  1  0  0  0  0
 24 27  1  0  0  0  0
 25 15  1  0  0  0  0
 26 21  1  0  0  0  0
 27 25  1  0  0  0  0
 28 25  1  0  0  0  0
 28 29  2  0  0  0  0
 30 26  1  0  0  0  0
 30 24  1  0  0  0  0
 31 32  1  0  0  0  0
M  END
>  <MODEL>
7

>  <REMARK>
 VINA RESULT:      -6.3      2.475      3.455
  Name = 
  2 active torsions:
  status: ('A' for Active; 'I' for Inactive)
    1  A    between atoms: C_13  and  C_29
    2  A    between atoms: C_16  and  C_27
                            x       y       z     vdW  Elec       q    Type
                         _______ _______ _______ _____ _____    ______ ____

>  <TORSDO>
F 2

$$$$
