=
 OpenBabel11062409373D

 34 38  0  0  1  0  0  0  0  0999 V2000
  160.8330  209.2740  152.9600 C   0  0  1  0  0  3  0  0  0  0  0  0
  160.4250  212.7010  151.6220 C   0  0  0  0  0  3  0  0  0  0  0  0
  159.9070  211.7750  153.6250 N   0  0  0  0  0  0  0  0  0  0  0  0
  161.1610  206.8240  153.5910 C   0  0  0  0  0  0  0  0  0  0  0  0
  161.4020  207.9170  152.5870 C   0  0  0  0  0  3  0  0  0  0  0  0
  160.1780  208.4620  155.1260 C   0  0  0  0  0  0  0  0  0  0  0  0
  159.6500  208.6310  156.4010 O   0  0  0  0  0  1  0  0  0  0  0  0
  160.6180  207.1060  154.7690 C   0  0  0  0  0  3  0  0  0  0  0  0
  159.8130  210.7920  154.5500 C   0  0  0  0  0  0  0  0  0  0  0  0
  160.2710  209.4910  154.2450 C   0  0  0  0  0  0  0  0  0  0  0  0
  159.2370  211.1180  155.8130 N   0  0  0  0  0  1  0  0  0  0  0  0
  160.8800  212.9580  150.2540 C   0  0  0  0  0  3  0  0  0  0  0  0
  161.4420  212.1370  149.3720 C   0  0  0  0  0  0  0  0  0  0  0  0
  161.7350  210.7230  149.6190 C   0  0  0  0  0  3  0  0  0  0  0  0
  160.4280  211.6060  152.3850 C   0  0  0  0  0  0  0  0  0  0  0  0
  161.5150  209.9910  150.7040 C   0  0  0  0  0  3  0  0  0  0  0  0
  160.9150  210.3300  152.0130 C   0  0  0  0  0  0  0  0  0  0  0  0
  161.7990  212.6880  148.0510 C   0  0  0  0  0  0  0  0  0  0  0  0
  162.8030  213.6430  147.9300 O   0  0  0  0  0  1  0  0  0  0  0  0
  161.1980  212.2990  147.0140 O   0  0  0  0  0  0  0  0  0  0  0  0
  161.5530  205.5000  153.3480 O   0  0  0  0  0  0  0  0  0  0  0  0
  160.7950  202.7710  150.8200 C   0  0  0  0  0  2  0  0  0  0  0  0
  161.4250  205.5730  151.0030 C   0  0  0  0  0  3  0  0  0  0  0  0
  161.1480  203.7250  147.1520 C   0  0  0  0  0  0  0  0  0  0  0  0
  160.9700  202.9640  148.3210 C   0  0  0  0  0  3  0  0  0  0  0  0
  161.0720  203.5660  149.5780 C   0  0  0  0  0  0  0  0  0  0  0  0
  161.4960  205.7070  148.5200 C   0  0  0  0  0  3  0  0  0  0  0  0
  161.3310  204.9430  149.6780 C   0  0  0  0  0  0  0  0  0  0  0  0
  161.4080  205.0980  147.2640 C   0  0  0  0  0  3  0  0  0  0  0  0
  161.4810  204.8350  152.1170 C   0  0  0  0  0  0  0  0  0  0  0  0
  161.5780  203.3260  152.0140 C   0  0  0  0  0  2  0  0  0  0  0  0
  161.0550  203.1070  145.8130 C   0  0  0  0  0  0  0  0  0  0  0  0
  161.2730  203.8780  144.6780 O   0  0  0  0  0  1  0  0  0  0  0  0
  160.7670  201.8190  145.6630 C   0  0  0  0  0  2  0  0  0  0  0  0
  1  5  1  1  0  0  0
  1 10  1  0  0  0  0
  2 15  1  0  0  0  0
  3  9  1  0  0  0  0
  4  8  1  0  0  0  0
  5  4  2  0  0  0  0
  6  7  1  0  0  0  0
  8  6  2  0  0  0  0
  9 11  1  0  0  0  0
 10  9  2  0  0  0  0
 10  6  1  0  0  0  0
 12  2  2  0  0  0  0
 13 14  2  0  0  0  0
 13 12  1  0  0  0  0
 14 16  1  0  0  0  0
 15  3  2  0  0  0  0
 16 17  2  0  0  0  0
 17 15  1  0  0  0  0
 17  1  1  0  0  0  0
 18 13  1  0  0  0  0
 19 18  1  0  0  0  0
 20 18  2  0  0  0  0
 21  4  1  0  0  0  0
 22 31  1  0  0  0  0
 23 30  2  0  0  0  0
 24 29  2  0  0  0  0
 24 25  1  0  0  0  0
 25 26  2  0  0  0  0
 26 28  1  0  0  0  0
 26 22  1  0  0  0  0
 27 28  2  0  0  0  0
 28 23  1  0  0  0  0
 29 27  1  0  0  0  0
 30 21  1  0  0  0  0
 31 30  1  0  0  0  0
 32 24  1  0  0  0  0
 33 32  1  0  0  0  0
 34 32  2  0  0  0  0
M  END
>  <MODEL>
1

>  <REMARK>
 VINA RESULT:     -10.0      0.000      0.000
  Name = 
  4 active torsions:
  status: ('A' for Active; 'I' for Inactive)
    1  A    between atoms: C_3  and  C_25
    2  A    between atoms: C_7  and  C_11
    3  A    between atoms: C_8  and  O_18
    4  A    between atoms: O_18  and  C_30
                            x       y       z     vdW  Elec       q    Type
                         _______ _______ _______ _____ _____    ______ ____

>  <TORSDO>
F 4

$$$$
=
 OpenBabel11062409373D

 34 38  0  0  1  0  0  0  0  0999 V2000
  160.8790  209.4540  152.4980 C   0  0  1  0  0  3  0  0  0  0  0  0
  160.4750  212.9540  151.3640 C   0  0  0  0  0  3  0  0  0  0  0  0
  159.9950  211.9220  153.3240 N   0  0  0  0  0  0  0  0  0  0  0  0
  161.1950  206.9690  152.9820 C   0  0  0  0  0  0  0  0  0  0  0  0
  161.4240  208.1150  152.0360 C   0  0  0  0  0  3  0  0  0  0  0  0
  160.2670  208.5280  154.6300 C   0  0  0  0  0  0  0  0  0  0  0  0
  159.7710  208.6300  155.9250 O   0  0  0  0  0  1  0  0  0  0  0  0
  160.6830  207.1900  154.1870 C   0  0  0  0  0  3  0  0  0  0  0  0
  159.9120  210.8890  154.1940 C   0  0  0  0  0  0  0  0  0  0  0  0
  160.3490  209.6040  153.8060 C   0  0  0  0  0  0  0  0  0  0  0  0
  159.3710  211.1490  155.4870 N   0  0  0  0  0  1  0  0  0  0  0  0
  160.9010  213.2840  150.0020 C   0  0  0  0  0  3  0  0  0  0  0  0
  161.4330  212.5090  149.0630 C   0  0  0  0  0  0  0  0  0  0  0  0
  161.7160  211.0800  149.2220 C   0  0  0  0  0  3  0  0  0  0  0  0
  160.4850  211.8180  152.0640 C   0  0  0  0  0  0  0  0  0  0  0  0
  161.5150  210.2900  150.2700 C   0  0  0  0  0  3  0  0  0  0  0  0
  160.9490  210.5600  151.6100 C   0  0  0  0  0  0  0  0  0  0  0  0
  161.7650  213.1300  147.7660 C   0  0  0  0  0  0  0  0  0  0  0  0
  162.7640  214.0930  147.6770 O   0  0  0  0  0  1  0  0  0  0  0  0
  161.1450  212.7930  146.7210 O   0  0  0  0  0  0  0  0  0  0  0  0
  161.5670  205.6580  152.6560 O   0  0  0  0  0  0  0  0  0  0  0  0
  161.5640  205.1720  148.8900 C   0  0  0  0  0  2  0  0  0  0  0  0
  161.4380  203.7020  151.3620 C   0  0  0  0  0  3  0  0  0  0  0  0
  160.9620  201.6250  147.6490 C   0  0  0  0  0  0  0  0  0  0  0  0
  161.1410  203.0190  147.6670 C   0  0  0  0  0  3  0  0  0  0  0  0
  161.2850  203.6980  148.8800 C   0  0  0  0  0  0  0  0  0  0  0  0
  161.1080  201.5960  150.0780 C   0  0  0  0  0  3  0  0  0  0  0  0
  161.2740  202.9830  150.0890 C   0  0  0  0  0  0  0  0  0  0  0  0
  160.9500  200.9220  148.8630 C   0  0  0  0  0  3  0  0  0  0  0  0
  161.3860  205.0370  151.4130 C   0  0  0  0  0  0  0  0  0  0  0  0
  161.0260  205.8230  150.1680 C   0  0  0  0  0  2  0  0  0  0  0  0
  160.7970  200.8880  146.3790 C   0  0  0  0  0  0  0  0  0  0  0  0
  161.3010  199.5990  146.2540 O   0  0  0  0  0  1  0  0  0  0  0  0
  160.1710  201.4300  145.3400 C   0  0  0  0  0  2  0  0  0  0  0  0
  1  5  1  1  0  0  0
  1 10  1  0  0  0  0
  2 15  1  0  0  0  0
  3  9  1  0  0  0  0
  4  8  1  0  0  0  0
  5  4  2  0  0  0  0
  6  7  1  0  0  0  0
  8  6  2  0  0  0  0
  9 11  1  0  0  0  0
 10  9  2  0  0  0  0
 10  6  1  0  0  0  0
 12  2  2  0  0  0  0
 13 14  2  0  0  0  0
 13 12  1  0  0  0  0
 14 16  1  0  0  0  0
 15  3  2  0  0  0  0
 16 17  2  0  0  0  0
 17 15  1  0  0  0  0
 17  1  1  0  0  0  0
 18 13  1  0  0  0  0
 19 18  1  0  0  0  0
 20 18  2  0  0  0  0
 21  4  1  0  0  0  0
 22 31  1  0  0  0  0
 23 30  2  0  0  0  0
 24 25  2  0  0  0  0
 24 29  1  0  0  0  0
 25 26  1  0  0  0  0
 26 22  1  0  0  0  0
 26 28  2  0  0  0  0
 27 28  1  0  0  0  0
 28 23  1  0  0  0  0
 29 27  2  0  0  0  0
 30 21  1  0  0  0  0
 31 30  1  0  0  0  0
 32 24  1  0  0  0  0
 33 32  1  0  0  0  0
 34 32  2  0  0  0  0
M  END
>  <MODEL>
2

>  <REMARK>
 VINA RESULT:     -10.0      1.096      1.762
  Name = 
  4 active torsions:
  status: ('A' for Active; 'I' for Inactive)
    1  A    between atoms: C_3  and  C_25
    2  A    between atoms: C_7  and  C_11
    3  A    between atoms: C_8  and  O_18
    4  A    between atoms: O_18  and  C_30
                            x       y       z     vdW  Elec       q    Type
                         _______ _______ _______ _____ _____    ______ ____

>  <TORSDO>
F 4

$$$$
=
 OpenBabel11062409373D

 34 38  0  0  1  0  0  0  0  0999 V2000
  161.6460  207.9020  150.0950 C   0  0  1  0  0  3  0  0  0  0  0  0
  161.1040  204.2830  149.5350 C   0  0  0  0  0  3  0  0  0  0  0  0
  161.0020  205.5690  151.3990 N   0  0  0  0  0  0  0  0  0  0  0  0
  162.1530  210.4000  150.2030 C   0  0  0  0  0  0  0  0  0  0  0  0
  161.9500  209.1840  149.3420 C   0  0  0  0  0  3  0  0  0  0  0  0
  161.5300  209.0930  152.1810 C   0  0  0  0  0  0  0  0  0  0  0  0
  161.2960  209.1680  153.5490 O   0  0  0  0  0  1  0  0  0  0  0  0
  161.9260  210.3390  151.5100 C   0  0  0  0  0  3  0  0  0  0  0  0
  161.0790  206.7080  152.1270 C   0  0  0  0  0  0  0  0  0  0  0  0
  161.4140  207.9260  151.4950 C   0  0  0  0  0  0  0  0  0  0  0  0
  160.8210  206.6240  153.5260 N   0  0  0  0  0  1  0  0  0  0  0  0
  161.2550  203.7740  148.1710 C   0  0  0  0  0  3  0  0  0  0  0  0
  161.5620  204.4160  147.0490 C   0  0  0  0  0  0  0  0  0  0  0  0
  161.8270  205.8540  146.9570 C   0  0  0  0  0  3  0  0  0  0  0  0
  161.2260  205.5030  150.0640 C   0  0  0  0  0  0  0  0  0  0  0  0
  161.8230  206.7770  147.9110 C   0  0  0  0  0  3  0  0  0  0  0  0
  161.5580  206.6880  149.3640 C   0  0  0  0  0  0  0  0  0  0  0  0
  161.6430  203.6270  145.8050 C   0  0  0  0  0  0  0  0  0  0  0  0
  160.9070  202.4550  145.6610 O   0  0  0  0  0  1  0  0  0  0  0  0
  162.3810  204.0050  144.8560 O   0  0  0  0  0  0  0  0  0  0  0  0
  162.5220  211.6370  149.6570 O   0  0  0  0  0  0  0  0  0  0  0  0
  162.6630  212.9740  146.1060 C   0  0  0  0  0  2  0  0  0  0  0  0
  160.8320  211.8900  148.0450 C   0  0  0  0  0  3  0  0  0  0  0  0
  159.3270  213.3510  144.3130 C   0  0  0  0  0  0  0  0  0  0  0  0
  160.7000  213.4330  144.6090 C   0  0  0  0  0  3  0  0  0  0  0  0
  161.1880  212.9660  145.8320 C   0  0  0  0  0  0  0  0  0  0  0  0
  158.9470  212.2950  146.4730 C   0  0  0  0  0  3  0  0  0  0  0  0
  160.3100  212.3900  146.7650 C   0  0  0  0  0  0  0  0  0  0  0  0
  158.4600  212.7760  145.2540 C   0  0  0  0  0  3  0  0  0  0  0  0
  162.0840  212.1590  148.4330 C   0  0  0  0  0  0  0  0  0  0  0  0
  162.9410  213.0970  147.6080 C   0  0  0  0  0  2  0  0  0  0  0  0
  158.7870  213.8480  143.0310 C   0  0  0  0  0  0  0  0  0  0  0  0
  157.5360  214.4530  142.9940 O   0  0  0  0  0  1  0  0  0  0  0  0
  159.4720  213.7310  141.8990 C   0  0  0  0  0  2  0  0  0  0  0  0
  1  5  1  6  0  0  0
  1 10  1  0  0  0  0
  2 15  1  0  0  0  0
  3  9  1  0  0  0  0
  4  8  1  0  0  0  0
  5  4  2  0  0  0  0
  6  7  1  0  0  0  0
  8  6  2  0  0  0  0
  9 11  1  0  0  0  0
 10  9  2  0  0  0  0
 10  6  1  0  0  0  0
 12  2  2  0  0  0  0
 13 12  1  0  0  0  0
 14 13  2  0  0  0  0
 14 16  1  0  0  0  0
 15  3  2  0  0  0  0
 16 17  2  0  0  0  0
 17 15  1  0  0  0  0
 17  1  1  0  0  0  0
 18 13  1  0  0  0  0
 19 18  1  0  0  0  0
 20 18  2  0  0  0  0
 21  4  1  0  0  0  0
 22 31  1  0  0  0  0
 23 30  2  0  0  0  0
 24 25  2  0  0  0  0
 24 29  1  0  0  0  0
 25 26  1  0  0  0  0
 26 22  1  0  0  0  0
 26 28  2  0  0  0  0
 27 28  1  0  0  0  0
 28 23  1  0  0  0  0
 29 27  2  0  0  0  0
 30 21  1  0  0  0  0
 31 30  1  0  0  0  0
 32 24  1  0  0  0  0
 33 32  1  0  0  0  0
 34 32  2  0  0  0  0
M  END
>  <MODEL>
3

>  <REMARK>
 VINA RESULT:      -9.6      3.021      8.026
  Name = 
  4 active torsions:
  status: ('A' for Active; 'I' for Inactive)
    1  A    between atoms: C_3  and  C_25
    2  A    between atoms: C_7  and  C_11
    3  A    between atoms: C_8  and  O_18
    4  A    between atoms: O_18  and  C_30
                            x       y       z     vdW  Elec       q    Type
                         _______ _______ _______ _____ _____    ______ ____

>  <TORSDO>
F 4

$$$$
=
 OpenBabel11062409373D

 34 38  0  0  1  0  0  0  0  0999 V2000
  160.4360  211.5200  151.8680 C   0  0  1  0  0  3  0  0  0  0  0  0
  160.0570  214.2870  149.4390 C   0  0  0  0  0  3  0  0  0  0  0  0
  159.1590  213.9250  151.4890 N   0  0  0  0  0  0  0  0  0  0  0  0
  160.8190  209.4510  153.3100 C   0  0  0  0  0  0  0  0  0  0  0  0
  161.1950  210.2220  152.0760 C   0  0  0  0  0  3  0  0  0  0  0  0
  159.3560  211.2910  154.0040 C   0  0  0  0  0  0  0  0  0  0  0  0
  158.5260  211.7430  155.0240 O   0  0  0  0  0  1  0  0  0  0  0  0
  159.9870  209.9780  154.2010 C   0  0  0  0  0  3  0  0  0  0  0  0
  158.9340  213.2570  152.6440 C   0  0  0  0  0  0  0  0  0  0  0  0
  159.5650  212.0150  152.8740 C   0  0  0  0  0  0  0  0  0  0  0  0
  158.0470  213.8450  153.5920 N   0  0  0  0  0  1  0  0  0  0  0  0
  160.8020  214.1970  148.1810 C   0  0  0  0  0  3  0  0  0  0  0  0
  161.6290  213.2540  147.7440 C   0  0  0  0  0  0  0  0  0  0  0  0
  161.9780  212.0410  148.4880 C   0  0  0  0  0  3  0  0  0  0  0  0
  159.9750  213.4820  150.5000 C   0  0  0  0  0  0  0  0  0  0  0  0
  161.5710  211.6370  149.6860 C   0  0  0  0  0  3  0  0  0  0  0  0
  160.6480  212.2480  150.6670 C   0  0  0  0  0  0  0  0  0  0  0  0
  162.2410  213.4390  146.4140 C   0  0  0  0  0  0  0  0  0  0  0  0
  161.7920  214.4420  145.5620 O   0  0  0  0  0  0  0  0  0  0  0  0
  163.1810  212.6900  146.0350 O   0  0  0  0  0  1  0  0  0  0  0  0
  161.3730  208.1950  153.5920 O   0  0  0  0  0  0  0  0  0  0  0  0
  161.0890  204.6060  152.3850 C   0  0  0  0  0  2  0  0  0  0  0  0
  161.1900  207.3160  151.4210 C   0  0  0  0  0  3  0  0  0  0  0  0
  161.1900  204.0810  148.6170 C   0  0  0  0  0  0  0  0  0  0  0  0
  161.1790  203.8250  150.0000 C   0  0  0  0  0  3  0  0  0  0  0  0
  161.1900  204.8820  150.9140 C   0  0  0  0  0  0  0  0  0  0  0  0
  161.1890  206.4700  149.0810 C   0  0  0  0  0  3  0  0  0  0  0  0
  161.1900  206.2080  150.4540 C   0  0  0  0  0  0  0  0  0  0  0  0
  161.1920  205.4110  148.1690 C   0  0  0  0  0  3  0  0  0  0  0  0
  161.4030  207.0960  152.7230 C   0  0  0  0  0  0  0  0  0  0  0  0
  161.7770  205.7070  153.1990 C   0  0  0  0  0  2  0  0  0  0  0  0
  161.1890  202.9800  147.6320 C   0  0  0  0  0  0  0  0  0  0  0  0
  161.5750  203.2240  146.3200 O   0  0  0  0  0  1  0  0  0  0  0  0
  160.8260  201.7480  147.9710 C   0  0  0  0  0  2  0  0  0  0  0  0
  1  5  1  1  0  0  0
  1 10  1  0  0  0  0
  2 15  1  0  0  0  0
  3  9  1  0  0  0  0
  4 21  1  0  0  0  0
  4  8  1  0  0  0  0
  5  4  2  0  0  0  0
  6  8  2  0  0  0  0
  6  7  1  0  0  0  0
  9 10  2  0  0  0  0
  9 11  1  0  0  0  0
 10  6  1  0  0  0  0
 12  2  2  0  0  0  0
 13 12  1  0  0  0  0
 13 14  2  0  0  0  0
 14 16  1  0  0  0  0
 15 17  1  0  0  0  0
 15  3  2  0  0  0  0
 16 17  2  0  0  0  0
 17  1  1  0  0  0  0
 18 13  1  0  0  0  0
 19 18  2  0  0  0  0
 20 18  1  0  0  0  0
 22 31  1  0  0  0  0
 23 30  2  0  0  0  0
 24 25  1  0  0  0  0
 25 26  2  0  0  0  0
 26 22  1  0  0  0  0
 27 28  2  0  0  0  0
 28 26  1  0  0  0  0
 28 23  1  0  0  0  0
 29 24  2  0  0  0  0
 29 27  1  0  0  0  0
 30 31  1  0  0  0  0
 30 21  1  0  0  0  0
 32 34  2  0  0  0  0
 32 24  1  0  0  0  0
 33 32  1  0  0  0  0
M  END
>  <MODEL>
4

>  <REMARK>
 VINA RESULT:      -9.5      1.602      2.430
  Name = 
  4 active torsions:
  status: ('A' for Active; 'I' for Inactive)
    1  A    between atoms: C_3  and  C_25
    2  A    between atoms: C_7  and  C_11
    3  A    between atoms: C_8  and  O_18
    4  A    between atoms: O_18  and  C_30
                            x       y       z     vdW  Elec       q    Type
                         _______ _______ _______ _____ _____    ______ ____

>  <TORSDO>
F 4

$$$$
=
 OpenBabel11062409373D

 34 38  0  0  1  0  0  0  0  0999 V2000
  159.6710  211.1540  152.7530 C   0  0  0  0  0  0  0  0  0  0  0  0
  157.4570  214.0290  153.4790 C   0  0  0  0  0  3  0  0  0  0  0  0
  158.9570  213.6410  151.8250 N   0  0  0  0  0  0  0  0  0  0  0  0
  161.1410  209.0790  152.5400 C   0  0  0  0  0  0  0  0  0  0  0  0
  160.0070  209.7610  153.2550 C   0  0  0  0  0  3  0  0  0  0  0  0
  161.2440  210.9390  150.9470 C   0  0  0  0  0  0  0  0  0  0  0  0
  161.8680  211.3940  149.7910 O   0  0  0  0  0  1  0  0  0  0  0  0
  161.6780  209.6310  151.4590 C   0  0  0  0  0  3  0  0  0  0  0  0
  159.8930  212.9460  151.1370 C   0  0  0  0  0  0  0  0  0  0  0  0
  160.2920  211.6680  151.5850 C   0  0  2  0  0  3  0  0  0  0  0  0
  160.4500  213.5510  149.9720 N   0  0  0  0  0  1  0  0  0  0  0  0
  156.5940  213.9440  154.6590 C   0  0  0  0  0  3  0  0  0  0  0  0
  156.4600  212.9690  155.5510 C   0  0  0  0  0  0  0  0  0  0  0  0
  157.2010  211.7050  155.5220 C   0  0  0  0  0  3  0  0  0  0  0  0
  158.3480  213.1890  152.9490 C   0  0  0  0  0  0  0  0  0  0  0  0
  158.1140  211.2800  154.6570 C   0  0  0  0  0  3  0  0  0  0  0  0
  158.6930  211.9110  153.4500 C   0  0  0  0  0  0  0  0  0  0  0  0
  155.4970  213.1700  156.6510 C   0  0  0  0  0  0  0  0  0  0  0  0
  155.1880  214.4510  157.0960 O   0  0  0  0  0  0  0  0  0  0  0  0
  154.9410  212.1810  157.2000 O   0  0  0  0  0  1  0  0  0  0  0  0
  161.6200  207.8260  152.9460 O   0  0  0  0  0  0  0  0  0  0  0  0
  160.8270  204.2030  152.1320 C   0  0  0  0  0  2  0  0  0  0  0  0
  161.4540  206.7180  150.8810 C   0  0  0  0  0  3  0  0  0  0  0  0
  161.1180  203.1950  148.4730 C   0  0  0  0  0  0  0  0  0  0  0  0
  160.9610  203.1210  149.8690 C   0  0  0  0  0  3  0  0  0  0  0  0
  161.0820  204.2700  150.6550 C   0  0  0  0  0  0  0  0  0  0  0  0
  161.4840  205.5930  148.6620 C   0  0  0  0  0  3  0  0  0  0  0  0
  161.3390  205.5110  150.0490 C   0  0  0  0  0  0  0  0  0  0  0  0
  161.3770  204.4390  147.8800 C   0  0  0  0  0  3  0  0  0  0  0  0
  161.5300  206.6340  152.2140 C   0  0  0  0  0  0  0  0  0  0  0  0
  161.6280  205.2760  152.8760 C   0  0  0  0  0  2  0  0  0  0  0  0
  161.0050  201.9910  147.6240 C   0  0  0  0  0  0  0  0  0  0  0  0
  160.8110  202.1250  146.2540 O   0  0  0  0  0  1  0  0  0  0  0  0
  161.0850  200.7690  148.1390 C   0  0  0  0  0  2  0  0  0  0  0  0
  1  5  1  0  0  0  0
  1 17  2  0  0  0  0
  2 12  1  0  0  0  0
  3 15  1  0  0  0  0
  4 21  1  0  0  0  0
  4  5  2  0  0  0  0
  6  8  2  0  0  0  0
  7  6  1  0  0  0  0
  8  4  1  0  0  0  0
  9 10  1  0  0  0  0
  9  3  2  0  0  0  0
 10  6  1  1  0  0  0
 10  1  1  0  0  0  0
 11  9  1  0  0  0  0
 12 13  2  0  0  0  0
 13 18  1  0  0  0  0
 14 13  1  0  0  0  0
 15 17  1  0  0  0  0
 15  2  2  0  0  0  0
 16 14  2  0  0  0  0
 17 16  1  0  0  0  0
 18 19  2  0  0  0  0
 18 20  1  0  0  0  0
 22 31  1  0  0  0  0
 23 30  2  0  0  0  0
 24 25  1  0  0  0  0
 25 26  2  0  0  0  0
 26 22  1  0  0  0  0
 27 28  2  0  0  0  0
 28 26  1  0  0  0  0
 28 23  1  0  0  0  0
 29 24  2  0  0  0  0
 29 27  1  0  0  0  0
 30 31  1  0  0  0  0
 30 21  1  0  0  0  0
 32 34  2  0  0  0  0
 32 24  1  0  0  0  0
 33 32  1  0  0  0  0
M  END
>  <MODEL>
5

>  <REMARK>
 VINA RESULT:      -9.5      2.742      5.014
  Name = 
  4 active torsions:
  status: ('A' for Active; 'I' for Inactive)
    1  A    between atoms: C_3  and  C_25
    2  A    between atoms: C_7  and  C_11
    3  A    between atoms: C_8  and  O_18
    4  A    between atoms: O_18  and  C_30
                            x       y       z     vdW  Elec       q    Type
                         _______ _______ _______ _____ _____    ______ ____

>  <TORSDO>
F 4

$$$$
=
 OpenBabel11062409373D

 34 38  0  0  1  0  0  0  0  0999 V2000
  160.7940  209.5110  152.1480 C   0  0  0  0  0  0  0  0  0  0  0  0
  159.6800  212.8790  153.2030 C   0  0  0  0  0  3  0  0  0  0  0  0
  160.7140  212.1340  151.3290 N   0  0  0  0  0  0  0  0  0  0  0  0
  161.5270  207.1050  151.7150 C   0  0  0  0  0  0  0  0  0  0  0  0
  160.7770  208.0620  152.6000 C   0  0  0  0  0  3  0  0  0  0  0  0
  161.9250  208.9160  150.1110 C   0  0  0  0  0  0  0  0  0  0  0  0
  162.4640  209.2140  148.8640 O   0  0  0  0  0  1  0  0  0  0  0  0
  162.0260  207.5190  150.5550 C   0  0  0  0  0  3  0  0  0  0  0  0
  161.2800  211.2230  150.5030 C   0  0  0  0  0  0  0  0  0  0  0  0
  161.3470  209.8670  150.8900 C   0  0  2  0  0  3  0  0  0  0  0  0
  161.7980  211.6840  149.2580 N   0  0  0  0  0  1  0  0  0  0  0  0
  159.0300  213.0040  154.5100 C   0  0  0  0  0  3  0  0  0  0  0  0
  158.7560  212.0750  155.4200 C   0  0  0  0  0  0  0  0  0  0  0  0
  159.0730  210.6520  155.2800 C   0  0  0  0  0  3  0  0  0  0  0  0
  160.1850  211.8360  152.5410 C   0  0  0  0  0  0  0  0  0  0  0  0
  159.6690  210.0120  154.2800 C   0  0  0  0  0  3  0  0  0  0  0  0
  160.2100  210.4930  152.9900 C   0  0  0  0  0  0  0  0  0  0  0  0
  158.0830  212.5060  156.6600 C   0  0  0  0  0  0  0  0  0  0  0  0
  158.3380  213.7600  157.2050 O   0  0  0  0  0  0  0  0  0  0  0  0
  157.2680  211.7410  157.2420 O   0  0  0  0  0  1  0  0  0  0  0  0
  161.6710  205.7520  152.0460 O   0  0  0  0  0  0  0  0  0  0  0  0
  160.7840  202.2810  150.7870 C   0  0  0  0  0  2  0  0  0  0  0  0
  161.4130  204.9330  149.8600 C   0  0  0  0  0  3  0  0  0  0  0  0
  160.9290  201.7670  147.0180 C   0  0  0  0  0  0  0  0  0  0  0  0
  160.8200  201.5100  148.3960 C   0  0  0  0  0  3  0  0  0  0  0  0
  160.9890  202.5420  149.3240 C   0  0  0  0  0  0  0  0  0  0  0  0
  161.3460  204.1140  147.5110 C   0  0  0  0  0  3  0  0  0  0  0  0
  161.2480  203.8490  148.8790 C   0  0  0  0  0  0  0  0  0  0  0  0
  161.1910  203.0760  146.5870 C   0  0  0  0  0  3  0  0  0  0  0  0
  161.5330  204.6700  151.1660 C   0  0  0  0  0  0  0  0  0  0  0  0
  161.6300  203.2340  151.6380 C   0  0  0  0  0  2  0  0  0  0  0  0
  160.7650  200.6900  146.0210 C   0  0  0  0  0  0  0  0  0  0  0  0
  161.3710  199.4560  146.2270 O   0  0  0  0  0  1  0  0  0  0  0  0
  160.0450  200.8700  144.9190 C   0  0  0  0  0  2  0  0  0  0  0  0
  1  5  1  0  0  0  0
  1 17  2  0  0  0  0
  2 12  1  0  0  0  0
  3 15  1  0  0  0  0
  4 21  1  0  0  0  0
  4  5  2  0  0  0  0
  6  8  2  0  0  0  0
  7  6  1  0  0  0  0
  8  4  1  0  0  0  0
  9 10  1  0  0  0  0
  9  3  2  0  0  0  0
 10  6  1  1  0  0  0
 10  1  1  0  0  0  0
 11  9  1  0  0  0  0
 12 13  2  0  0  0  0
 13 18  1  0  0  0  0
 14 13  1  0  0  0  0
 15 17  1  0  0  0  0
 15  2  2  0  0  0  0
 16 14  2  0  0  0  0
 17 16  1  0  0  0  0
 18 19  2  0  0  0  0
 18 20  1  0  0  0  0
 22 31  1  0  0  0  0
 23 30  2  0  0  0  0
 24 25  1  0  0  0  0
 25 26  2  0  0  0  0
 26 22  1  0  0  0  0
 27 28  2  0  0  0  0
 28 26  1  0  0  0  0
 28 23  1  0  0  0  0
 29 24  2  0  0  0  0
 29 27  1  0  0  0  0
 30 31  1  0  0  0  0
 30 21  1  0  0  0  0
 32 33  1  0  0  0  0
 32 24  1  0  0  0  0
 34 32  2  0  0  0  0
M  END
>  <MODEL>
6

>  <REMARK>
 VINA RESULT:      -9.1      2.159      4.528
  Name = 
  4 active torsions:
  status: ('A' for Active; 'I' for Inactive)
    1  A    between atoms: C_3  and  C_25
    2  A    between atoms: C_7  and  C_11
    3  A    between atoms: C_8  and  O_18
    4  A    between atoms: O_18  and  C_30
                            x       y       z     vdW  Elec       q    Type
                         _______ _______ _______ _____ _____    ______ ____

>  <TORSDO>
F 4

$$$$
=
 OpenBabel11062409373D

 34 38  0  0  0  0  0  0  0  0999 V2000
  160.3160  209.1270  153.5920 C   0  0  0  0  0  0  0  0  0  0  0  0
  158.4510  210.7450  156.3490 C   0  0  0  0  0  3  0  0  0  0  0  0
  159.7090  208.8610  156.2590 N   0  0  0  0  0  0  0  0  0  0  0  0
  161.4400  208.1920  151.5010 C   0  0  0  0  0  0  0  0  0  0  0  0
  160.6810  209.3260  152.1320 C   0  0  0  0  0  2  0  0  0  0  0  0
  161.5780  207.0820  153.6820 C   0  0  0  0  0  0  0  0  0  0  0  0
  162.1060  205.9850  154.3520 O   0  0  0  0  0  1  0  0  0  0  0  0
  161.8680  207.1790  152.2440 C   0  0  0  0  0  3  0  0  0  0  0  0
  160.4900  207.9170  155.6840 C   0  0  0  0  0  0  0  0  0  0  0  0
  160.8190  208.0140  154.3150 C   0  0  0  0  0  0  0  0  0  0  0  0
  160.9490  206.8430  156.5020 N   0  0  0  0  0  1  0  0  0  0  0  0
  157.7290  211.9830  156.0500 C   0  0  0  0  0  3  0  0  0  0  0  0
  157.6270  212.6580  154.9100 C   0  0  0  0  0  0  0  0  0  0  0  0
  158.2610  212.2650  153.6490 C   0  0  0  0  0  3  0  0  0  0  0  0
  159.2020  209.9330  155.6020 C   0  0  0  0  0  0  0  0  0  0  0  0
  159.0260  211.2140  153.3790 C   0  0  0  0  0  3  0  0  0  0  0  0
  159.4980  210.0980  154.2280 C   0  0  0  0  0  0  0  0  0  0  0  0
  156.8180  213.8920  154.9120 C   0  0  0  0  0  0  0  0  0  0  0  0
  156.3800  214.4530  153.7170 O   0  0  0  0  0  0  0  0  0  0  0  0
  156.5140  214.4530  155.9990 O   0  0  0  0  0  1  0  0  0  0  0  0
  161.7730  208.1950  150.1390 O   0  0  0  0  0  0  0  0  0  0  0  0
  162.2310  206.0610  147.0330 C   0  0  0  0  0  2  0  0  0  0  0  0
  161.3610  205.9120  149.7730 C   0  0  0  0  0  3  0  0  0  0  0  0
  160.9620  202.4790  147.2470 C   0  0  0  0  0  0  0  0  0  0  0  0
  161.4790  203.6830  146.7350 C   0  0  0  0  0  3  0  0  0  0  0  0
  161.5980  204.8060  147.5580 C   0  0  0  0  0  0  0  0  0  0  0  0
  160.7200  203.5330  149.4270 C   0  0  0  0  0  3  0  0  0  0  0  0
  161.2220  204.7290  148.9090 C   0  0  0  0  0  0  0  0  0  0  0  0
  160.5880  202.4150  148.5970 C   0  0  0  0  0  3  0  0  0  0  0  0
  161.6370  207.1150  149.2570 C   0  0  0  0  0  0  0  0  0  0  0  0
  161.6820  207.2960  147.7540 C   0  0  0  0  0  2  0  0  0  0  0  0
  160.8170  201.2820  146.3930 C   0  0  0  0  0  0  0  0  0  0  0  0
  161.4030  200.0820  146.7750 O   0  0  0  0  0  1  0  0  0  0  0  0
  160.1320  201.3220  145.2550 C   0  0  0  0  0  2  0  0  0  0  0  0
  1 17  2  0  0  0  0
  1 10  1  0  0  0  0
  4  5  1  0  0  0  0
  4  8  2  0  0  0  0
  5  1  1  0  0  0  0
  6 10  2  0  0  0  0
  6  7  1  0  0  0  0
  8  6  1  0  0  0  0
  9  3  2  0  0  0  0
  9 11  1  0  0  0  0
 10  9  1  0  0  0  0
 12  2  1  0  0  0  0
 13 18  1  0  0  0  0
 13 12  2  0  0  0  0
 14 13  1  0  0  0  0
 15  3  1  0  0  0  0
 15  2  2  0  0  0  0
 16 14  2  0  0  0  0
 16 17  1  0  0  0  0
 17 15  1  0  0  0  0
 18 20  1  0  0  0  0
 19 18  2  0  0  0  0
 21  4  1  0  0  0  0
 22 26  1  0  0  0  0
 22 31  1  0  0  0  0
 24 29  1  0  0  0  0
 25 24  2  0  0  0  0
 25 26  1  0  0  0  0
 26 28  2  0  0  0  0
 28 27  1  0  0  0  0
 28 23  1  0  0  0  0
 29 27  2  0  0  0  0
 30 23  2  0  0  0  0
 30 21  1  0  0  0  0
 31 30  1  0  0  0  0
 32 33  1  0  0  0  0
 32 24  1  0  0  0  0
 34 32  2  0  0  0  0
M  END
>  <MODEL>
7

>  <REMARK>
 VINA RESULT:      -9.1      2.623      4.466
  Name = 
  4 active torsions:
  status: ('A' for Active; 'I' for Inactive)
    1  A    between atoms: C_3  and  C_25
    2  A    between atoms: C_7  and  C_11
    3  A    between atoms: C_8  and  O_18
    4  A    between atoms: O_18  and  C_30
                            x       y       z     vdW  Elec       q    Type
                         _______ _______ _______ _____ _____    ______ ____

>  <TORSDO>
F 4

$$$$
=
 OpenBabel11062409373D

 34 38  0  0  1  0  0  0  0  0999 V2000
  161.2610  205.9420  150.3690 C   0  0  1  0  0  3  0  0  0  0  0  0
  161.0790  203.3120  147.7710 C   0  0  0  0  0  3  0  0  0  0  0  0
  161.0630  203.2210  150.0360 N   0  0  0  0  0  0  0  0  0  0  0  0
  161.4810  207.9440  151.9350 C   0  0  0  0  0  0  0  0  0  0  0  0
  161.3150  207.4520  150.5240 C   0  0  0  0  0  3  0  0  0  0  0  0
  161.2690  205.6440  152.7540 C   0  0  0  0  0  0  0  0  0  0  0  0
  161.2010  204.8620  153.9020 O   0  0  0  0  0  1  0  0  0  0  0  0
  161.4290  207.0920  152.9510 C   0  0  0  0  0  3  0  0  0  0  0  0
  161.0970  203.7100  151.2970 C   0  0  0  0  0  0  0  0  0  0  0  0
  161.2050  205.1020  151.5110 C   0  0  0  0  0  0  0  0  0  0  0  0
  161.0280  202.7800  152.3750 N   0  0  0  0  0  1  0  0  0  0  0  0
  161.1160  203.7340  146.3690 C   0  0  0  0  0  3  0  0  0  0  0  0
  161.2030  204.9520  145.8460 C   0  0  0  0  0  0  0  0  0  0  0  0
  161.2840  206.1900  146.6250 C   0  0  0  0  0  3  0  0  0  0  0  0
  161.1230  203.9890  148.9210 C   0  0  0  0  0  0  0  0  0  0  0  0
  161.2920  206.3620  147.9420 C   0  0  0  0  0  3  0  0  0  0  0  0
  161.2230  205.3940  149.0590 C   0  0  0  0  0  0  0  0  0  0  0  0
  161.2190  205.0690  144.3750 C   0  0  0  0  0  0  0  0  0  0  0  0
  162.2030  205.8140  143.7350 O   0  0  0  0  0  1  0  0  0  0  0  0
  160.3390  204.4930  143.6800 O   0  0  0  0  0  0  0  0  0  0  0  0
  161.6320  209.3070  152.2270 O   0  0  0  0  0  0  0  0  0  0  0  0
  160.8890  211.5670  155.1860 C   0  0  0  0  0  2  0  0  0  0  0  0
  159.6690  210.4470  152.8310 C   0  0  0  0  0  3  0  0  0  0  0  0
  157.2810  212.7200  155.5620 C   0  0  0  0  0  0  0  0  0  0  0  0
  158.6420  212.4880  155.8290 C   0  0  0  0  0  3  0  0  0  0  0  0
  159.4180  211.7370  154.9430 C   0  0  0  0  0  0  0  0  0  0  0  0
  157.4960  211.4640  153.4890 C   0  0  0  0  0  3  0  0  0  0  0  0
  158.8440  211.2280  153.7660 C   0  0  0  0  0  0  0  0  0  0  0  0
  156.7190  212.2050  154.3850 C   0  0  0  0  0  3  0  0  0  0  0  0
  160.8940  210.0310  153.1720 C   0  0  0  0  0  0  0  0  0  0  0  0
  161.3960  210.2520  154.5840 C   0  0  0  0  0  2  0  0  0  0  0  0
  156.4390  213.5030  156.4900 C   0  0  0  0  0  0  0  0  0  0  0  0
  155.0750  213.2490  156.5710 O   0  0  0  0  0  1  0  0  0  0  0  0
  156.9560  214.4530  157.2610 C   0  0  0  0  0  2  0  0  0  0  0  0
  1  5  1  1  0  0  0
  1 10  1  0  0  0  0
  2 15  1  0  0  0  0
  3  9  1  0  0  0  0
  4 21  1  0  0  0  0
  4  8  1  0  0  0  0
  5  4  2  0  0  0  0
  6  8  2  0  0  0  0
  6  7  1  0  0  0  0
  9 10  2  0  0  0  0
  9 11  1  0  0  0  0
 10  6  1  0  0  0  0
 12  2  2  0  0  0  0
 13 12  1  0  0  0  0
 13 14  2  0  0  0  0
 14 16  1  0  0  0  0
 15 17  1  0  0  0  0
 15  3  2  0  0  0  0
 16 17  2  0  0  0  0
 17  1  1  0  0  0  0
 18 13  1  0  0  0  0
 19 18  1  0  0  0  0
 20 18  2  0  0  0  0
 21 30  1  0  0  0  0
 23 30  2  0  0  0  0
 23 28  1  0  0  0  0
 24 25  1  0  0  0  0
 24 32  1  0  0  0  0
 26 22  1  0  0  0  0
 26 25  2  0  0  0  0
 27 28  2  0  0  0  0
 27 29  1  0  0  0  0
 28 26  1  0  0  0  0
 29 24  2  0  0  0  0
 30 31  1  0  0  0  0
 31 22  1  0  0  0  0
 32 33  1  0  0  0  0
 32 34  2  0  0  0  0
M  END
>  <MODEL>
8

>  <REMARK>
 VINA RESULT:      -8.8      3.374      8.908
  Name = 
  4 active torsions:
  status: ('A' for Active; 'I' for Inactive)
    1  A    between atoms: C_3  and  C_25
    2  A    between atoms: C_7  and  C_11
    3  A    between atoms: C_8  and  O_18
    4  A    between atoms: O_18  and  C_30
                            x       y       z     vdW  Elec       q    Type
                         _______ _______ _______ _____ _____    ______ ____

>  <TORSDO>
F 4

$$$$
=
 OpenBabel11062409373D

 34 38  0  0  1  0  0  0  0  0999 V2000
  160.5860  213.1180  145.7610 C   0  0  1  0  0  3  0  0  0  0  0  0
  159.9180  214.2620  142.3050 C   0  0  0  0  0  3  0  0  0  0  0  0
  158.6570  214.2850  144.1890 N   0  0  0  0  0  0  0  0  0  0  0  0
  161.2860  212.1740  148.0260 C   0  0  0  0  0  0  0  0  0  0  0  0
  161.6880  212.5230  146.6200 C   0  0  0  0  0  3  0  0  0  0  0  0
  159.0900  213.1910  147.6410 C   0  0  0  0  0  0  0  0  0  0  0  0
  157.8830  213.5230  148.2480 O   0  0  0  0  0  1  0  0  0  0  0  0
  160.0880  212.5190  148.4840 C   0  0  0  0  0  3  0  0  0  0  0  0
  158.3710  214.0630  145.4930 C   0  0  0  0  0  0  0  0  0  0  0  0
  159.3330  213.4590  146.3320 C   0  0  0  0  0  0  0  0  0  0  0  0
  157.0840  214.4500  145.9680 N   0  0  0  0  0  1  0  0  0  0  0  0
  160.9820  214.0920  141.3130 C   0  0  0  0  0  3  0  0  0  0  0  0
  162.2000  213.5780  141.4460 C   0  0  0  0  0  0  0  0  0  0  0  0
  162.7490  213.0490  142.6970 C   0  0  0  0  0  3  0  0  0  0  0  0
  159.8380  213.9650  143.6040 C   0  0  0  0  0  0  0  0  0  0  0  0
  162.1890  212.9650  143.8980 C   0  0  0  0  0  3  0  0  0  0  0  0
  160.8520  213.3640  144.3880 C   0  0  0  0  0  0  0  0  0  0  0  0
  163.0630  213.5380  140.2500 C   0  0  0  0  0  0  0  0  0  0  0  0
  164.1710  214.3730  140.1490 O   0  0  0  0  0  1  0  0  0  0  0  0
  162.8070  212.7450  139.3050 O   0  0  0  0  0  0  0  0  0  0  0  0
  162.1700  211.5410  148.9100 O   0  0  0  0  0  0  0  0  0  0  0  0
  161.2910  208.8550  151.4460 C   0  0  0  0  0  2  0  0  0  0  0  0
  161.7920  209.2390  148.6370 C   0  0  0  0  0  3  0  0  0  0  0  0
  161.2040  205.2770  150.1500 C   0  0  0  0  0  0  0  0  0  0  0  0
  161.1910  206.3810  151.0210 C   0  0  0  0  0  3  0  0  0  0  0  0
  161.3940  207.6730  150.5280 C   0  0  0  0  0  0  0  0  0  0  0  0
  161.5930  206.7840  148.2800 C   0  0  0  0  0  3  0  0  0  0  0  0
  161.5900  207.8750  149.1520 C   0  0  0  0  0  0  0  0  0  0  0  0
  161.4040  205.4920  148.7790 C   0  0  0  0  0  3  0  0  0  0  0  0
  162.0030  210.2660  149.4670 C   0  0  0  0  0  0  0  0  0  0  0  0
  162.1660  210.0120  150.9510 C   0  0  0  0  0  2  0  0  0  0  0  0
  161.0030  203.9020  150.6510 C   0  0  0  0  0  0  0  0  0  0  0  0
  161.0870  203.6410  152.0140 O   0  0  0  0  0  1  0  0  0  0  0  0
  160.7380  202.8960  149.8260 C   0  0  0  0  0  2  0  0  0  0  0  0
  1 10  1  0  0  0  0
  1  5  1  1  0  0  0
  2 15  1  0  0  0  0
  3  9  1  0  0  0  0
  4  8  1  0  0  0  0
  4 21  1  0  0  0  0
  5  4  2  0  0  0  0
  6  7  1  0  0  0  0
  6  8  2  0  0  0  0
  9 11  1  0  0  0  0
  9 10  2  0  0  0  0
 10  6  1  0  0  0  0
 12 13  1  0  0  0  0
 12  2  2  0  0  0  0
 13 14  2  0  0  0  0
 14 16  1  0  0  0  0
 15  3  2  0  0  0  0
 15 17  1  0  0  0  0
 16 17  2  0  0  0  0
 17  1  1  0  0  0  0
 18 13  1  0  0  0  0
 19 18  1  0  0  0  0
 20 18  2  0  0  0  0
 21 30  1  0  0  0  0
 23 28  1  0  0  0  0
 23 30  2  0  0  0  0
 24 32  1  0  0  0  0
 24 25  1  0  0  0  0
 26 25  2  0  0  0  0
 26 22  1  0  0  0  0
 27 29  1  0  0  0  0
 27 28  2  0  0  0  0
 28 26  1  0  0  0  0
 29 24  2  0  0  0  0
 30 31  1  0  0  0  0
 31 22  1  0  0  0  0
 32 33  1  0  0  0  0
 34 32  2  0  0  0  0
M  END
>  <MODEL>
9

>  <REMARK>
 VINA RESULT:      -8.6      4.436      7.372
  Name = 
  4 active torsions:
  status: ('A' for Active; 'I' for Inactive)
    1  A    between atoms: C_3  and  C_25
    2  A    between atoms: C_7  and  C_11
    3  A    between atoms: C_8  and  O_18
    4  A    between atoms: O_18  and  C_30
                            x       y       z     vdW  Elec       q    Type
                         _______ _______ _______ _____ _____    ______ ____

>  <TORSDO>
F 4

$$$$
