=
 OpenBabel11052422263D

 31 35  0  0  1  0  0  0  0  0999 V2000
  161.8680  210.2810  149.2160 C   0  0  2  0  0  3  0  0  0  0  0  0
  161.0880  208.1790  152.3150 N   0  0  0  0  0  0  0  0  0  0  0  0
  160.6400  209.0880  153.3530 C   0  0  0  0  0  0  0  0  0  0  0  0
  159.4660  211.3190  153.7760 C   0  0  0  0  0  3  0  0  0  0  0  0
  161.1390  208.5820  150.8930 C   0  0  1  0  0  3  0  0  0  0  0  0
  162.3710  209.1650  148.2960 C   0  0  0  0  0  2  0  0  0  0  0  0
  160.0330  210.2230  152.9840 C   0  0  0  0  0  3  0  0  0  0  0  0
  161.5790  205.7600  151.6030 C   0  0  1  0  0  3  0  0  0  0  0  0
  162.6630  211.4770  149.0080 N   0  0  0  0  0  1  0  0  0  0  0  0
  161.2060  207.3950  154.9900 C   0  0  0  0  0  3  0  0  0  0  0  0
  159.5220  211.5220  155.0850 C   0  0  0  0  0  3  0  0  0  0  0  0
  161.0970  206.2210  150.3020 N   0  0  0  0  0  2  0  0  0  0  0  0
  161.3190  206.7970  152.6750 C   0  0  0  0  0  0  0  0  0  0  0  0
  161.9580  209.8580  150.6830 C   0  0  0  0  0  2  0  0  0  0  0  0
  160.1610  210.6910  156.1040 C   0  0  0  0  0  3  0  0  0  0  0  0
  161.7540  207.4860  150.0210 C   0  0  1  0  0  3  0  0  0  0  0  0
  161.6130  207.8630  148.5530 C   0  0  0  0  0  2  0  0  0  0  0  0
  161.4090  206.4590  153.9260 N   0  0  0  0  0  0  0  0  0  0  0  0
  160.8250  208.6540  154.7640 C   0  0  0  0  0  0  0  0  0  0  0  0
  160.7020  209.4870  155.9650 C   0  0  0  0  0  3  0  0  0  0  0  0
  160.9140  204.4340  151.9500 C   0  0  0  0  0  2  0  0  0  0  0  0
  161.7520  202.1080  151.9780 C   0  0  0  0  0  1  0  0  0  0  0  0
  161.4680  203.3070  151.0950 C   0  0  1  0  0  3  0  0  0  0  0  0
  160.5220  202.9500  150.0910 O   0  0  0  0  0  0  0  0  0  0  0  0
  161.7080  204.0140  146.7300 C   0  0  0  0  0  0  0  0  0  0  0  0
  160.7880  201.7780  146.5980 C   0  0  0  0  0  3  0  0  0  0  0  0
  162.3050  205.1070  146.1180 O   0  0  0  0  0  1  0  0  0  0  0  0
  161.4260  204.0490  148.0990 C   0  0  0  0  0  3  0  0  0  0  0  0
  160.5050  201.8140  147.9670 C   0  0  0  0  0  3  0  0  0  0  0  0
  160.8220  202.9460  148.7250 C   0  0  0  0  0  0  0  0  0  0  0  0
  161.3890  202.8790  145.9800 C   0  0  0  0  0  3  0  0  0  0  0  0
  1  9  1  1  0  0  0
  1 14  1  0  0  0  0
  2 13  1  0  0  0  0
  2  3  1  0  0  0  0
  3 19  1  0  0  0  0
  4 11  2  0  0  0  0
  5 14  1  1  0  0  0
  5  2  1  0  0  0  0
  6 17  1  0  0  0  0
  6  1  1  0  0  0  0
  7  3  2  0  0  0  0
  7  4  1  0  0  0  0
  8 21  1  1  0  0  0
  8 13  1  0  0  0  0
 11 15  1  0  0  0  0
 12  8  1  0  0  0  0
 13 18  2  0  0  0  0
 16 17  1  6  0  0  0
 16 12  1  0  0  0  0
 16  5  1  0  0  0  0
 18 10  1  0  0  0  0
 19 10  2  0  0  0  0
 19 20  1  0  0  0  0
 20 15  2  0  0  0  0
 23 21  1  0  0  0  0
 23 22  1  1  0  0  0
 24 23  1  0  0  0  0
 25 28  1  0  0  0  0
 26 29  2  0  0  0  0
 27 25  1  0  0  0  0
 28 30  2  0  0  0  0
 29 30  1  0  0  0  0
 30 24  1  0  0  0  0
 31 26  1  0  0  0  0
 31 25  2  0  0  0  0
M  END
>  <MODEL>
1

>  <REMARK>
 VINA RESULT:      -9.1      0.000      0.000
  Name = 
  4 active torsions:
  status: ('A' for Active; 'I' for Inactive)
    1  A    between atoms: O_3  and  C_9
    2  A    between atoms: O_3  and  C_22
    3  A    between atoms: C_9  and  C_23
    4  A    between atoms: C_15  and  C_23
                            x       y       z     vdW  Elec       q    Type
                         _______ _______ _______ _____ _____    ______ ____

>  <TORSDO>
F 4

$$$$
=
 OpenBabel11052422263D

 31 35  0  0  1  0  0  0  0  0999 V2000
  161.0180  207.7490  154.0000 C   0  0  2  0  0  3  0  0  0  0  0  0
  161.4710  207.7050  150.2030 N   0  0  0  0  0  0  0  0  0  0  0  0
  161.2590  206.3410  149.7580 C   0  0  0  0  0  0  0  0  0  0  0  0
  160.0200  204.1670  150.2840 C   0  0  0  0  0  3  0  0  0  0  0  0
  161.0370  208.1650  151.5390 C   0  0  1  0  0  3  0  0  0  0  0  0
  161.3410  209.2230  154.2590 C   0  0  0  0  0  2  0  0  0  0  0  0
  160.4410  205.5580  150.4740 C   0  0  0  0  0  3  0  0  0  0  0  0
  161.9970  210.1400  149.5800 C   0  0  1  0  0  3  0  0  0  0  0  0
  161.5680  206.9380  155.0710 N   0  0  0  0  0  1  0  0  0  0  0  0
  162.4900  206.8760  147.7410 C   0  0  0  0  0  3  0  0  0  0  0  0
  160.4500  203.2750  149.4010 C   0  0  0  0  0  3  0  0  0  0  0  0
  161.0900  210.4440  150.6860 N   0  0  0  0  0  2  0  0  0  0  0  0
  161.9590  208.6670  149.2380 C   0  0  0  0  0  0  0  0  0  0  0  0
  161.6000  207.2910  152.6630 C   0  0  0  0  0  2  0  0  0  0  0  0
  161.4610  203.4470  148.3600 C   0  0  0  0  0  3  0  0  0  0  0  0
  161.4790  209.6050  151.8060 C   0  0  1  0  0  3  0  0  0  0  0  0
  160.8540  210.0980  153.1030 C   0  0  0  0  0  2  0  0  0  0  0  0
  162.4640  208.2580  148.1140 N   0  0  0  0  0  0  0  0  0  0  0  0
  161.9150  205.9300  148.4870 C   0  0  0  0  0  0  0  0  0  0  0  0
  162.0680  204.5630  147.9770 C   0  0  0  0  0  3  0  0  0  0  0  0
  161.6270  210.9930  148.3710 C   0  0  0  0  0  2  0  0  0  0  0  0
  163.4060  212.6350  147.8670 C   0  0  0  0  0  1  0  0  0  0  0  0
  162.0750  212.4320  148.5650 C   0  0  1  0  0  3  0  0  0  0  0  0
  161.1040  213.3190  148.0150 O   0  0  0  0  0  0  0  0  0  0  0  0
  157.9780  213.5260  150.0180 C   0  0  0  0  0  0  0  0  0  0  0  0
  157.4400  212.9420  147.7310 C   0  0  0  0  0  3  0  0  0  0  0  0
  157.5720  213.7960  151.3180 O   0  0  0  0  0  1  0  0  0  0  0  0
  159.3360  213.5650  149.6890 C   0  0  0  0  0  3  0  0  0  0  0  0
  158.8000  212.9800  147.4030 C   0  0  0  0  0  3  0  0  0  0  0  0
  159.7540  213.2930  148.3760 C   0  0  0  0  0  0  0  0  0  0  0  0
  157.0310  213.2150  149.0400 C   0  0  0  0  0  3  0  0  0  0  0  0
  1  6  1  0  0  0  0
  1  9  1  1  0  0  0
  2  5  1  0  0  0  0
  3  2  1  0  0  0  0
  3  7  2  0  0  0  0
  4  7  1  0  0  0  0
  5 16  1  0  0  0  0
  5 14  1  1  0  0  0
  8 21  1  6  0  0  0
  8 12  1  0  0  0  0
 10 18  1  0  0  0  0
 10 19  2  0  0  0  0
 11  4  2  0  0  0  0
 12 16  1  0  0  0  0
 13  8  1  0  0  0  0
 13  2  1  0  0  0  0
 14  1  1  0  0  0  0
 15 11  1  0  0  0  0
 16 17  1  1  0  0  0
 17  6  1  0  0  0  0
 18 13  2  0  0  0  0
 19  3  1  0  0  0  0
 20 15  2  0  0  0  0
 20 19  1  0  0  0  0
 21 23  1  0  0  0  0
 23 22  1  6  0  0  0
 24 30  1  0  0  0  0
 24 23  1  0  0  0  0
 25 27  1  0  0  0  0
 26 31  1  0  0  0  0
 28 25  1  0  0  0  0
 29 26  2  0  0  0  0
 29 30  1  0  0  0  0
 30 28  2  0  0  0  0
 31 25  2  0  0  0  0
M  END
>  <MODEL>
2

>  <REMARK>
 VINA RESULT:      -7.7      3.550      8.085
  Name = 
  4 active torsions:
  status: ('A' for Active; 'I' for Inactive)
    1  A    between atoms: O_3  and  C_9
    2  A    between atoms: O_3  and  C_22
    3  A    between atoms: C_9  and  C_23
    4  A    between atoms: C_15  and  C_23
                            x       y       z     vdW  Elec       q    Type
                         _______ _______ _______ _____ _____    ______ ____

>  <TORSDO>
F 4

$$$$
=
 OpenBabel11052422263D

 31 35  0  0  1  0  0  0  0  0999 V2000
  161.0360  207.5210  153.9030 C   0  0  2  0  0  3  0  0  0  0  0  0
  161.4800  207.4740  150.1050 N   0  0  0  0  0  0  0  0  0  0  0  0
  161.2540  206.1120  149.6590 C   0  0  0  0  0  0  0  0  0  0  0  0
  159.9950  203.9510  150.1870 C   0  0  0  0  0  3  0  0  0  0  0  0
  161.0540  207.9370  151.4420 C   0  0  1  0  0  3  0  0  0  0  0  0
  161.3740  208.9910  154.1610 C   0  0  0  0  0  2  0  0  0  0  0  0
  160.4300  205.3380  150.3760 C   0  0  0  0  0  3  0  0  0  0  0  0
  162.0300  209.9040  149.4820 C   0  0  1  0  0  3  0  0  0  0  0  0
  161.5800  206.7030  154.9710 N   0  0  0  0  0  1  0  0  0  0  0  0
  162.4870  206.6350  147.6400 C   0  0  0  0  0  3  0  0  0  0  0  0
  160.4140  203.0550  149.3030 C   0  0  0  0  0  3  0  0  0  0  0  0
  161.1290  210.2160  150.5900 N   0  0  0  0  0  2  0  0  0  0  0  0
  161.9760  208.4310  149.1390 C   0  0  0  0  0  0  0  0  0  0  0  0
  161.6100  207.0570  152.5640 C   0  0  0  0  0  2  0  0  0  0  0  0
  161.4240  203.2170  148.2590 C   0  0  0  0  0  3  0  0  0  0  0  0
  161.5110  209.3730  151.7090 C   0  0  1  0  0  3  0  0  0  0  0  0
  160.8940  209.8720  153.0070 C   0  0  0  0  0  2  0  0  0  0  0  0
  162.4760  208.0170  148.0130 N   0  0  0  0  0  0  0  0  0  0  0  0
  161.9040  205.6950  148.3860 C   0  0  0  0  0  0  0  0  0  0  0  0
  162.0420  204.3270  147.8750 C   0  0  0  0  0  3  0  0  0  0  0  0
  161.6670  210.7610  148.2740 C   0  0  0  0  0  2  0  0  0  0  0  0
  163.5840  212.3070  148.0580 C   0  0  0  0  0  1  0  0  0  0  0  0
  162.1280  212.1950  148.4680 C   0  0  1  0  0  3  0  0  0  0  0  0
  161.3370  213.0710  147.6690 O   0  0  0  0  0  0  0  0  0  0  0  0
  161.9400  213.0190  143.9990 C   0  0  0  0  0  0  0  0  0  0  0  0
  159.7060  212.2110  144.4680 C   0  0  0  0  0  3  0  0  0  0  0  0
  162.9400  213.3290  143.0880 O   0  0  0  0  0  1  0  0  0  0  0  0
  162.1590  213.2040  145.3670 C   0  0  0  0  0  3  0  0  0  0  0  0
  159.9260  212.3980  145.8370 C   0  0  0  0  0  3  0  0  0  0  0  0
  161.1510  212.8930  146.2940 C   0  0  0  0  0  0  0  0  0  0  0  0
  160.7130  212.5230  143.5500 C   0  0  0  0  0  3  0  0  0  0  0  0
  1  6  1  0  0  0  0
  1  9  1  1  0  0  0
  2  5  1  0  0  0  0
  3  2  1  0  0  0  0
  3  7  2  0  0  0  0
  4  7  1  0  0  0  0
  5 16  1  0  0  0  0
  5 14  1  1  0  0  0
  8 21  1  6  0  0  0
  8 12  1  0  0  0  0
 10 18  1  0  0  0  0
 10 19  2  0  0  0  0
 11  4  2  0  0  0  0
 12 16  1  0  0  0  0
 13  8  1  0  0  0  0
 13  2  1  0  0  0  0
 14  1  1  0  0  0  0
 15 11  1  0  0  0  0
 16 17  1  1  0  0  0
 17  6  1  0  0  0  0
 18 13  2  0  0  0  0
 19  3  1  0  0  0  0
 20 15  2  0  0  0  0
 20 19  1  0  0  0  0
 21 23  1  0  0  0  0
 23 22  1  6  0  0  0
 24 23  1  0  0  0  0
 25 28  1  0  0  0  0
 26 29  2  0  0  0  0
 27 25  1  0  0  0  0
 28 30  2  0  0  0  0
 29 30  1  0  0  0  0
 30 24  1  0  0  0  0
 31 25  2  0  0  0  0
 31 26  1  0  0  0  0
M  END
>  <MODEL>
3

>  <REMARK>
 VINA RESULT:      -7.4      3.408      7.784
  Name = 
  4 active torsions:
  status: ('A' for Active; 'I' for Inactive)
    1  A    between atoms: O_3  and  C_9
    2  A    between atoms: O_3  and  C_22
    3  A    between atoms: C_9  and  C_23
    4  A    between atoms: C_15  and  C_23
                            x       y       z     vdW  Elec       q    Type
                         _______ _______ _______ _____ _____    ______ ____

>  <TORSDO>
F 4

$$$$
=
 OpenBabel11052422263D

 31 35  0  0  1  0  0  0  0  0999 V2000
  161.2450  204.8110  149.2730 C   0  0  2  0  0  3  0  0  0  0  0  0
  161.4300  208.2610  150.9110 N   0  0  0  0  0  0  0  0  0  0  0  0
  161.2520  208.0730  152.3390 C   0  0  0  0  0  0  0  0  0  0  0  0
  161.6050  206.4280  154.2630 C   0  0  0  0  0  3  0  0  0  0  0  0
  161.7660  207.1370  150.0130 C   0  0  1  0  0  3  0  0  0  0  0  0
  161.3860  205.2370  147.8100 C   0  0  0  0  0  2  0  0  0  0  0  0
  161.6390  206.9110  152.8790 C   0  0  0  0  0  3  0  0  0  0  0  0
  161.8420  209.8860  148.9650 C   0  0  1  0  0  3  0  0  0  0  0  0
  160.2920  203.7200  149.3710 N   0  0  0  0  0  1  0  0  0  0  0  0
  160.6120  210.4040  152.5010 C   0  0  0  0  0  3  0  0  0  0  0  0
  161.0560  206.9880  155.3330 C   0  0  0  0  0  3  0  0  0  0  0  0
  162.6040  208.7680  148.4120 N   0  0  0  0  0  2  0  0  0  0  0  0
  161.4490  209.6160  150.4020 C   0  0  0  0  0  0  0  0  0  0  0  0
  160.7720  205.9800  150.1380 C   0  0  0  0  0  2  0  0  0  0  0  0
  160.3420  208.2610  155.4220 C   0  0  0  0  0  3  0  0  0  0  0  0
  161.7840  207.5770  148.5470 C   0  0  1  0  0  3  0  0  0  0  0  0
  162.3150  206.4440  147.6810 C   0  0  0  0  0  2  0  0  0  0  0  0
  161.0280  210.5950  151.1450 N   0  0  0  0  0  0  0  0  0  0  0  0
  160.7140  209.2240  153.1150 C   0  0  0  0  0  0  0  0  0  0  0  0
  160.2060  209.1970  154.4910 C   0  0  0  0  0  3  0  0  0  0  0  0
  162.6630  211.1660  148.8530 C   0  0  0  0  0  2  0  0  0  0  0  0
  162.7570  213.4220  147.8460 C   0  0  0  0  0  1  0  0  0  0  0  0
  161.8330  212.2940  148.2640 C   0  0  1  0  0  3  0  0  0  0  0  0
  161.1100  211.8220  147.1300 O   0  0  0  0  0  0  0  0  0  0  0  0
  157.8150  213.5460  147.0690 C   0  0  0  0  0  0  0  0  0  0  0  0
  158.5220  213.0630  144.8040 C   0  0  0  0  0  3  0  0  0  0  0  0
  156.8830  214.0760  147.9510 O   0  0  0  0  0  1  0  0  0  0  0  0
  158.9850  212.9590  147.5590 C   0  0  0  0  0  3  0  0  0  0  0  0
  159.6920  212.4750  145.2960 C   0  0  0  0  0  3  0  0  0  0  0  0
  159.9310  212.4200  146.6730 C   0  0  0  0  0  0  0  0  0  0  0  0
  157.5840  213.5980  145.6920 C   0  0  0  0  0  3  0  0  0  0  0  0
  1  9  1  6  0  0  0
  1 14  1  0  0  0  0
  2  3  1  0  0  0  0
  3  7  2  0  0  0  0
  3 19  1  0  0  0  0
  4 11  2  0  0  0  0
  5 14  1  6  0  0  0
  5  2  1  0  0  0  0
  6  1  1  0  0  0  0
  7  4  1  0  0  0  0
  8 21  1  1  0  0  0
  8 13  1  0  0  0  0
 10 19  2  0  0  0  0
 11 15  1  0  0  0  0
 12 16  1  0  0  0  0
 12  8  1  0  0  0  0
 13  2  1  0  0  0  0
 13 18  2  0  0  0  0
 16 17  1  6  0  0  0
 16  5  1  0  0  0  0
 17  6  1  0  0  0  0
 18 10  1  0  0  0  0
 19 20  1  0  0  0  0
 20 15  2  0  0  0  0
 23 22  1  6  0  0  0
 23 21  1  0  0  0  0
 24 23  1  0  0  0  0
 25 28  1  0  0  0  0
 25 27  1  0  0  0  0
 26 29  2  0  0  0  0
 26 31  1  0  0  0  0
 29 30  1  0  0  0  0
 30 24  1  0  0  0  0
 30 28  2  0  0  0  0
 31 25  2  0  0  0  0
M  END
>  <MODEL>
4

>  <REMARK>
 VINA RESULT:      -7.3      3.551      6.903
  Name = 
  4 active torsions:
  status: ('A' for Active; 'I' for Inactive)
    1  A    between atoms: O_3  and  C_9
    2  A    between atoms: O_3  and  C_22
    3  A    between atoms: C_9  and  C_23
    4  A    between atoms: C_15  and  C_23
                            x       y       z     vdW  Elec       q    Type
                         _______ _______ _______ _____ _____    ______ ____

>  <TORSDO>
F 4

$$$$
=
 OpenBabel11052422263D

 31 35  0  0  1  0  0  0  0  0999 V2000
  161.3180  204.9670  149.2990 C   0  0  2  0  0  3  0  0  0  0  0  0
  161.3550  208.4150  150.9530 N   0  0  0  0  0  0  0  0  0  0  0  0
  161.1750  208.2130  152.3780 C   0  0  0  0  0  0  0  0  0  0  0  0
  161.5810  206.5740  154.2970 C   0  0  0  0  0  3  0  0  0  0  0  0
  161.7410  207.3090  150.0520 C   0  0  1  0  0  3  0  0  0  0  0  0
  161.4520  205.4050  147.8380 C   0  0  0  0  0  2  0  0  0  0  0  0
  161.6050  207.0650  152.9160 C   0  0  0  0  0  3  0  0  0  0  0  0
  161.7130  210.0640  149.0170 C   0  0  1  0  0  3  0  0  0  0  0  0
  160.4090  203.8390  149.3860 N   0  0  0  0  0  1  0  0  0  0  0  0
  160.4410  210.5160  152.5460 C   0  0  0  0  0  3  0  0  0  0  0  0
  161.0040  207.1070  155.3660 C   0  0  0  0  0  3  0  0  0  0  0  0
  162.5230  208.9790  148.4630 N   0  0  0  0  0  2  0  0  0  0  0  0
  161.3230  209.7710  150.4490 C   0  0  0  0  0  0  0  0  0  0  0  0
  160.7930  206.1120  150.1650 C   0  0  0  0  0  2  0  0  0  0  0  0
  160.2390  208.3500  155.4560 C   0  0  0  0  0  3  0  0  0  0  0  0
  161.7510  207.7560  148.5880 C   0  0  1  0  0  3  0  0  0  0  0  0
  162.3330  206.6490  147.7210 C   0  0  0  0  0  2  0  0  0  0  0  0
  160.8580  210.7290  151.1940 N   0  0  0  0  0  0  0  0  0  0  0  0
  160.5870  209.3370  153.1560 C   0  0  0  0  0  0  0  0  0  0  0  0
  160.0710  209.2840  154.5280 C   0  0  0  0  0  3  0  0  0  0  0  0
  162.4830  211.3760  148.9160 C   0  0  0  0  0  2  0  0  0  0  0  0
  161.1990  213.4860  149.0180 C   0  0  0  0  0  1  0  0  0  0  0  0
  161.7120  212.3960  148.0970 C   0  0  1  0  0  3  0  0  0  0  0  0
  162.5640  212.9670  147.1070 O   0  0  0  0  0  0  0  0  0  0  0  0
  160.6250  212.8240  143.9370 C   0  0  0  0  0  0  0  0  0  0  0  0
  162.9310  213.3820  143.4550 C   0  0  0  0  0  3  0  0  0  0  0  0
  159.3310  212.5730  143.5000 O   0  0  0  0  0  1  0  0  0  0  0  0
  160.9240  212.7670  145.3010 C   0  0  0  0  0  3  0  0  0  0  0  0
  163.2290  213.3250  144.8200 C   0  0  0  0  0  3  0  0  0  0  0  0
  162.2300  213.0200  145.7500 C   0  0  0  0  0  0  0  0  0  0  0  0
  161.6280  213.1300  143.0140 C   0  0  0  0  0  3  0  0  0  0  0  0
  1  9  1  6  0  0  0
  1 14  1  0  0  0  0
  2  3  1  0  0  0  0
  3  7  2  0  0  0  0
  3 19  1  0  0  0  0
  4 11  2  0  0  0  0
  5 14  1  6  0  0  0
  5  2  1  0  0  0  0
  6  1  1  0  0  0  0
  7  4  1  0  0  0  0
  8 21  1  1  0  0  0
  8 13  1  0  0  0  0
 10 19  2  0  0  0  0
 11 15  1  0  0  0  0
 12 16  1  0  0  0  0
 12  8  1  0  0  0  0
 13  2  1  0  0  0  0
 13 18  2  0  0  0  0
 16 17  1  6  0  0  0
 16  5  1  0  0  0  0
 17  6  1  0  0  0  0
 18 10  1  0  0  0  0
 19 20  1  0  0  0  0
 20 15  2  0  0  0  0
 23 21  1  0  0  0  0
 23 22  1  1  0  0  0
 24 23  1  0  0  0  0
 25 28  1  0  0  0  0
 26 29  2  0  0  0  0
 27 25  1  0  0  0  0
 28 30  2  0  0  0  0
 29 30  1  0  0  0  0
 30 24  1  0  0  0  0
 31 26  1  0  0  0  0
 31 25  2  0  0  0  0
M  END
>  <MODEL>
5

>  <REMARK>
 VINA RESULT:      -7.2      3.527      6.892
  Name = 
  4 active torsions:
  status: ('A' for Active; 'I' for Inactive)
    1  A    between atoms: O_3  and  C_9
    2  A    between atoms: O_3  and  C_22
    3  A    between atoms: C_9  and  C_23
    4  A    between atoms: C_15  and  C_23
                            x       y       z     vdW  Elec       q    Type
                         _______ _______ _______ _____ _____    ______ ____

>  <TORSDO>
F 4

$$$$
=
 OpenBabel11052422263D

 31 35  0  0  1  0  0  0  0  0999 V2000
  161.4350  213.0780  148.8260 C   0  0  2  0  0  3  0  0  0  0  0  0
  160.1730  211.3670  152.0040 N   0  0  0  0  0  0  0  0  0  0  0  0
  159.1610  212.2280  152.5870 C   0  0  0  0  0  0  0  0  0  0  0  0
  157.3740  213.9730  152.0420 C   0  0  0  0  0  3  0  0  0  0  0  0
  160.6220  211.5290  150.6060 C   0  0  1  0  0  3  0  0  0  0  0  0
  162.5070  212.0630  148.4220 C   0  0  0  0  0  2  0  0  0  0  0  0
  158.4520  213.0180  151.7710 C   0  0  0  0  0  3  0  0  0  0  0  0
  161.5000  209.1720  152.1350 C   0  0  1  0  0  3  0  0  0  0  0  0
  161.9090  214.4220  148.5480 N   0  0  0  0  0  1  0  0  0  0  0  0
  159.5220  211.1110  154.7060 C   0  0  0  0  0  3  0  0  0  0  0  0
  156.9010  214.3920  153.2090 C   0  0  0  0  0  3  0  0  0  0  0  0
  161.4140  209.2280  150.6760 N   0  0  0  0  0  2  0  0  0  0  0  0
  160.6110  210.2200  152.7690 C   0  0  0  0  0  0  0  0  0  0  0  0
  161.0990  212.9530  150.3120 C   0  0  0  0  0  2  0  0  0  0  0  0
  157.3250  214.0000  154.5510 C   0  0  0  0  0  3  0  0  0  0  0  0
  161.7730  210.5760  150.2740 C   0  0  1  0  0  3  0  0  0  0  0  0
  162.0750  210.6420  148.7830 C   0  0  0  0  0  2  0  0  0  0  0  0
  160.3300  210.1380  154.0350 N   0  0  0  0  0  0  0  0  0  0  0  0
  158.9330  212.1150  154.0530 C   0  0  0  0  0  0  0  0  0  0  0  0
  158.1730  213.0410  154.9000 C   0  0  0  0  0  3  0  0  0  0  0  0
  161.1250  207.7730  152.6120 C   0  0  0  0  0  2  0  0  0  0  0  0
  162.7820  205.9530  152.3740 C   0  0  0  0  0  1  0  0  0  0  0  0
  161.6730  206.7140  151.6720 C   0  0  1  0  0  3  0  0  0  0  0  0
  160.6340  205.8120  151.2990 O   0  0  0  0  0  0  0  0  0  0  0  0
  160.7220  202.4760  149.6580 C   0  0  0  0  0  0  0  0  0  0  0  0
  161.4330  204.1740  148.0860 C   0  0  0  0  0  3  0  0  0  0  0  0
  160.4600  201.1450  149.9540 O   0  0  0  0  0  1  0  0  0  0  0  0
  160.5390  203.4580  150.6360 C   0  0  0  0  0  3  0  0  0  0  0  0
  161.2510  205.1560  149.0650 C   0  0  0  0  0  3  0  0  0  0  0  0
  160.8020  204.8060  150.3430 C   0  0  0  0  0  0  0  0  0  0  0  0
  161.1690  202.8340  148.3840 C   0  0  0  0  0  3  0  0  0  0  0  0
  1  9  1  1  0  0  0
  1 14  1  0  0  0  0
  2  3  1  0  0  0  0
  2 13  1  0  0  0  0
  3 19  1  0  0  0  0
  4 11  2  0  0  0  0
  5 14  1  1  0  0  0
  5  2  1  0  0  0  0
  6 17  1  0  0  0  0
  6  1  1  0  0  0  0
  7  4  1  0  0  0  0
  7  3  2  0  0  0  0
  8 21  1  1  0  0  0
  8 13  1  0  0  0  0
 11 15  1  0  0  0  0
 12  8  1  0  0  0  0
 13 18  2  0  0  0  0
 15 20  2  0  0  0  0
 16 17  1  6  0  0  0
 16  5  1  0  0  0  0
 16 12  1  0  0  0  0
 18 10  1  0  0  0  0
 19 10  2  0  0  0  0
 19 20  1  0  0  0  0
 23 22  1  1  0  0  0
 23 21  1  0  0  0  0
 24 23  1  0  0  0  0
 25 27  1  0  0  0  0
 25 28  1  0  0  0  0
 26 31  1  0  0  0  0
 26 29  2  0  0  0  0
 29 30  1  0  0  0  0
 30 28  2  0  0  0  0
 30 24  1  0  0  0  0
 31 25  2  0  0  0  0
M  END
>  <MODEL>
6

>  <REMARK>
 VINA RESULT:      -7.0      2.150      3.547
  Name = 
  4 active torsions:
  status: ('A' for Active; 'I' for Inactive)
    1  A    between atoms: O_3  and  C_9
    2  A    between atoms: O_3  and  C_22
    3  A    between atoms: C_9  and  C_23
    4  A    between atoms: C_15  and  C_23
                            x       y       z     vdW  Elec       q    Type
                         _______ _______ _______ _____ _____    ______ ____

>  <TORSDO>
F 4

$$$$
=
 OpenBabel11052422263D

 31 35  0  0  1  0  0  0  0  0999 V2000
  160.1820  209.7940  154.8190 C   0  0  2  0  0  3  0  0  0  0  0  0
  161.3590  208.0180  151.6430 N   0  0  0  0  0  0  0  0  0  0  0  0
  161.6480  209.0410  150.6570 C   0  0  0  0  0  0  0  0  0  0  0  0
  162.4090  211.4630  150.3590 C   0  0  0  0  0  3  0  0  0  0  0  0
  161.2220  208.3360  153.0800 C   0  0  1  0  0  3  0  0  0  0  0  0
  159.8770  208.5640  155.6780 C   0  0  0  0  0  2  0  0  0  0  0  0
  162.0390  210.2470  151.0880 C   0  0  0  0  0  3  0  0  0  0  0  0
  161.3010  205.5180  152.2340 C   0  0  1  0  0  3  0  0  0  0  0  0
  159.1840  210.8180  155.0660 N   0  0  0  0  0  1  0  0  0  0  0  0
  161.4120  207.3550  148.9330 C   0  0  0  0  0  3  0  0  0  0  0  0
  162.3310  211.7160  149.0590 C   0  0  0  0  0  3  0  0  0  0  0  0
  161.6790  205.9950  153.5640 N   0  0  0  0  0  2  0  0  0  0  0  0
  161.3830  206.6350  151.2160 C   0  0  0  0  0  0  0  0  0  0  0  0
  160.1860  209.4340  153.3330 C   0  0  0  0  0  2  0  0  0  0  0  0
  161.8620  210.8350  147.9910 C   0  0  0  0  0  3  0  0  0  0  0  0
  160.8030  207.1070  153.8900 C   0  0  1  0  0  3  0  0  0  0  0  0
  160.8590  207.4320  155.3760 C   0  0  0  0  0  2  0  0  0  0  0  0
  161.3690  206.3480  149.9490 N   0  0  0  0  0  0  0  0  0  0  0  0
  161.5590  208.6490  149.2240 C   0  0  0  0  0  0  0  0  0  0  0  0
  161.5450  209.5480  148.0640 C   0  0  0  0  0  3  0  0  0  0  0  0
  162.1970  204.3500  151.8400 C   0  0  0  0  0  2  0  0  0  0  0  0
  160.3590  202.8460  152.5270 C   0  0  0  0  0  1  0  0  0  0  0  0
  161.3680  203.1430  151.4350 C   0  0  1  0  0  3  0  0  0  0  0  0
  160.6870  203.4110  150.2120 O   0  0  0  0  0  0  0  0  0  0  0  0
  161.1660  202.4850  146.6420 C   0  0  0  0  0  0  0  0  0  0  0  0
  161.1660  200.4860  148.0070 C   0  0  0  0  0  3  0  0  0  0  0  0
  161.2590  203.0920  145.3970 O   0  0  0  0  0  1  0  0  0  0  0  0
  160.9760  203.2660  147.7860 C   0  0  0  0  0  3  0  0  0  0  0  0
  160.9750  201.2680  149.1510 C   0  0  0  0  0  3  0  0  0  0  0  0
  160.8810  202.6590  149.0490 C   0  0  0  0  0  0  0  0  0  0  0  0
  161.2600  201.0960  146.7530 C   0  0  0  0  0  3  0  0  0  0  0  0
  1  9  1  6  0  0  0
  1  6  1  0  0  0  0
  2  5  1  0  0  0  0
  3  7  2  0  0  0  0
  3  2  1  0  0  0  0
  4  7  1  0  0  0  0
  5 14  1  6  0  0  0
  5 16  1  0  0  0  0
  8 21  1  6  0  0  0
  8 12  1  0  0  0  0
 10 19  2  0  0  0  0
 10 18  1  0  0  0  0
 11  4  2  0  0  0  0
 12 16  1  0  0  0  0
 13  2  1  0  0  0  0
 13  8  1  0  0  0  0
 14  1  1  0  0  0  0
 15 20  2  0  0  0  0
 15 11  1  0  0  0  0
 16 17  1  1  0  0  0
 17  6  1  0  0  0  0
 18 13  2  0  0  0  0
 19  3  1  0  0  0  0
 20 19  1  0  0  0  0
 23 21  1  0  0  0  0
 23 22  1  1  0  0  0
 24 23  1  0  0  0  0
 25 31  2  0  0  0  0
 25 28  1  0  0  0  0
 26 29  2  0  0  0  0
 27 25  1  0  0  0  0
 28 30  2  0  0  0  0
 30 29  1  0  0  0  0
 30 24  1  0  0  0  0
 31 26  1  0  0  0  0
M  END
>  <MODEL>
7

>  <REMARK>
 VINA RESULT:      -6.9      1.386      4.241
  Name = 
  4 active torsions:
  status: ('A' for Active; 'I' for Inactive)
    1  A    between atoms: O_3  and  C_9
    2  A    between atoms: O_3  and  C_22
    3  A    between atoms: C_9  and  C_23
    4  A    between atoms: C_15  and  C_23
                            x       y       z     vdW  Elec       q    Type
                         _______ _______ _______ _____ _____    ______ ____

>  <TORSDO>
F 4

$$$$
=
 OpenBabel11052422263D

 31 35  0  0  1  0  0  0  0  0999 V2000
  157.9340  213.4290  152.6250 C   0  0  2  0  0  3  0  0  0  0  0  0
  160.7100  211.3320  151.0370 N   0  0  0  0  0  0  0  0  0  0  0  0
  161.2370  212.0880  149.9170 C   0  0  0  0  0  0  0  0  0  0  0  0
  161.6230  214.4510  149.0220 C   0  0  0  0  0  3  0  0  0  0  0  0
  159.8830  211.9650  152.0850 C   0  0  1  0  0  3  0  0  0  0  0  0
  157.4870  212.4450  153.7100 C   0  0  0  0  0  2  0  0  0  0  0  0
  161.1760  213.4250  149.9680 C   0  0  0  0  0  3  0  0  0  0  0  0
  160.8180  209.2010  152.4670 C   0  0  1  0  0  3  0  0  0  0  0  0
  156.7730  214.1080  152.0790 N   0  0  0  0  0  1  0  0  0  0  0  0
  162.1020  210.0160  149.0070 C   0  0  0  0  0  3  0  0  0  0  0  0
  162.1020  214.3070  147.7930 C   0  0  0  0  0  3  0  0  0  0  0  0
  160.4630  210.1130  153.5540 N   0  0  0  0  0  2  0  0  0  0  0  0
  161.1620  209.9680  151.2080 C   0  0  0  0  0  0  0  0  0  0  0  0
  158.6740  212.7010  151.5020 C   0  0  0  0  0  2  0  0  0  0  0  0
  162.3290  213.0690  147.0500 C   0  0  0  0  0  3  0  0  0  0  0  0
  159.3590  210.9330  153.0860 C   0  0  1  0  0  3  0  0  0  0  0  0
  158.6770  211.6460  154.2440 C   0  0  0  0  0  2  0  0  0  0  0  0
  161.7750  209.3610  150.2370 N   0  0  0  0  0  0  0  0  0  0  0  0
  161.8770  211.3180  148.8160 C   0  0  0  0  0  0  0  0  0  0  0  0
  162.2380  211.8180  147.4850 C   0  0  0  0  0  3  0  0  0  0  0  0
  161.9810  208.3180  152.9050 C   0  0  0  0  0  2  0  0  0  0  0  0
  160.9230  206.5040  154.2110 C   0  0  0  0  0  1  0  0  0  0  0  0
  161.5840  206.8520  152.8910 C   0  0  1  0  0  3  0  0  0  0  0  0
  160.6770  206.6050  151.8210 O   0  0  0  0  0  0  0  0  0  0  0  0
  161.2080  204.7780  148.6250 C   0  0  0  0  0  0  0  0  0  0  0  0
  160.9940  203.1930  150.4430 C   0  0  0  0  0  3  0  0  0  0  0  0
  161.3950  205.0420  147.2750 O   0  0  0  0  0  1  0  0  0  0  0  0
  161.0410  205.8330  149.5260 C   0  0  0  0  0  3  0  0  0  0  0  0
  160.8260  204.2490  151.3440 C   0  0  0  0  0  3  0  0  0  0  0  0
  160.8510  205.5730  150.8930 C   0  0  0  0  0  0  0  0  0  0  0  0
  161.1830  203.4580  149.0830 C   0  0  0  0  0  3  0  0  0  0  0  0
  1  9  1  6  0  0  0
  1  6  1  0  0  0  0
  2 13  1  0  0  0  0
  2  5  1  0  0  0  0
  3  7  2  0  0  0  0
  3  2  1  0  0  0  0
  4  7  1  0  0  0  0
  5 14  1  6  0  0  0
  5 16  1  0  0  0  0
  6 17  1  0  0  0  0
  8 21  1  1  0  0  0
  8 12  1  0  0  0  0
 10 18  1  0  0  0  0
 11  4  2  0  0  0  0
 13  8  1  0  0  0  0
 14  1  1  0  0  0  0
 15 20  2  0  0  0  0
 15 11  1  0  0  0  0
 16 12  1  0  0  0  0
 16 17  1  1  0  0  0
 18 13  2  0  0  0  0
 19 10  2  0  0  0  0
 19  3  1  0  0  0  0
 20 19  1  0  0  0  0
 23 21  1  0  0  0  0
 23 22  1  1  0  0  0
 24 23  1  0  0  0  0
 25 31  2  0  0  0  0
 25 28  1  0  0  0  0
 26 29  2  0  0  0  0
 27 25  1  0  0  0  0
 28 30  2  0  0  0  0
 30 29  1  0  0  0  0
 30 24  1  0  0  0  0
 31 26  1  0  0  0  0
M  END
>  <MODEL>
8

>  <REMARK>
 VINA RESULT:      -6.8      2.533      5.392
  Name = 
  4 active torsions:
  status: ('A' for Active; 'I' for Inactive)
    1  A    between atoms: O_3  and  C_9
    2  A    between atoms: O_3  and  C_22
    3  A    between atoms: C_9  and  C_23
    4  A    between atoms: C_15  and  C_23
                            x       y       z     vdW  Elec       q    Type
                         _______ _______ _______ _____ _____    ______ ____

>  <TORSDO>
F 4

$$$$
=
 OpenBabel11052422263D

 31 35  0  0  1  0  0  0  0  0999 V2000
  161.9590  210.7390  148.4810 C   0  0  2  0  0  3  0  0  0  0  0  0
  161.5350  207.2710  150.0370 N   0  0  0  0  0  0  0  0  0  0  0  0
  161.7570  206.2950  148.9860 C   0  0  0  0  0  0  0  0  0  0  0  0
  163.0020  205.8700  146.7950 C   0  0  0  0  0  3  0  0  0  0  0  0
  161.9560  208.6810  149.8930 C   0  0  1  0  0  3  0  0  0  0  0  0
  161.6270  211.5900  149.7090 C   0  0  0  0  0  2  0  0  0  0  0  0
  162.5730  206.6230  147.9770 C   0  0  0  0  0  3  0  0  0  0  0  0
  161.0010  207.7250  152.5080 C   0  0  1  0  0  3  0  0  0  0  0  0
  161.4060  211.3640  147.2930 N   0  0  0  0  0  1  0  0  0  0  0  0
  160.5380  204.6800  150.3180 C   0  0  0  0  0  3  0  0  0  0  0  0
  162.5840  204.6900  146.3560 C   0  0  0  0  0  3  0  0  0  0  0  0
  161.8980  208.8650  152.3190 N   0  0  0  0  0  2  0  0  0  0  0  0
  161.0490  206.7960  151.3140 C   0  0  0  0  0  0  0  0  0  0  0  0
  161.3900  209.3270  148.6260 C   0  0  0  0  0  2  0  0  0  0  0  0
  161.5790  203.8080  146.9480 C   0  0  0  0  0  3  0  0  0  0  0  0
  161.5050  209.5250  151.0870 C   0  0  1  0  0  3  0  0  0  0  0  0
  162.1180  210.9140  150.9890 C   0  0  0  0  0  2  0  0  0  0  0  0
  160.5540  205.5990  151.4150 N   0  0  0  0  0  0  0  0  0  0  0  0
  161.1120  204.9640  149.1470 C   0  0  0  0  0  0  0  0  0  0  0  0
  160.9690  203.9250  148.1210 C   0  0  0  0  0  3  0  0  0  0  0  0
  161.3750  206.9910  153.7900 C   0  0  0  0  0  2  0  0  0  0  0  0
  160.4600  206.5790  156.0500 C   0  0  0  0  0  1  0  0  0  0  0  0
  160.7220  207.6400  154.9980 C   0  0  1  0  0  3  0  0  0  0  0  0
  161.5810  208.6430  155.5320 O   0  0  0  0  0  0  0  0  0  0  0  0
  159.9500  211.9660  155.1680 C   0  0  0  0  0  0  0  0  0  0  0  0
  161.1650  211.8820  157.2600 C   0  0  0  0  0  3  0  0  0  0  0  0
  159.1490  212.6570  154.2690 O   0  0  0  0  0  1  0  0  0  0  0  0
  160.3490  210.6570  154.8830 C   0  0  0  0  0  3  0  0  0  0  0  0
  161.5650  210.5720  156.9750 C   0  0  0  0  0  3  0  0  0  0  0  0
  161.1590  209.9520  155.7890 C   0  0  0  0  0  0  0  0  0  0  0  0
  160.3580  212.5780  156.3560 C   0  0  0  0  0  3  0  0  0  0  0  0
  1  9  1  6  0  0  0
  1 14  1  0  0  0  0
  1  6  1  0  0  0  0
  2 13  1  0  0  0  0
  3 19  1  0  0  0  0
  3  2  1  0  0  0  0
  4  7  1  0  0  0  0
  5 14  1  6  0  0  0
  5  2  1  0  0  0  0
  5 16  1  0  0  0  0
  6 17  1  0  0  0  0
  7  3  2  0  0  0  0
  8 21  1  1  0  0  0
 10 18  1  0  0  0  0
 11  4  2  0  0  0  0
 11 15  1  0  0  0  0
 12  8  1  0  0  0  0
 13 18  2  0  0  0  0
 13  8  1  0  0  0  0
 15 20  2  0  0  0  0
 16 17  1  6  0  0  0
 16 12  1  0  0  0  0
 19 10  2  0  0  0  0
 20 19  1  0  0  0  0
 21 23  1  0  0  0  0
 23 24  1  0  0  0  0
 23 22  1  1  0  0  0
 24 30  1  0  0  0  0
 25 31  1  0  0  0  0
 27 25  1  0  0  0  0
 28 25  2  0  0  0  0
 28 30  1  0  0  0  0
 29 26  1  0  0  0  0
 30 29  2  0  0  0  0
 31 26  2  0  0  0  0
M  END
>  <MODEL>
9

>  <REMARK>
 VINA RESULT:      -6.3      2.736      7.735
  Name = 
  4 active torsions:
  status: ('A' for Active; 'I' for Inactive)
    1  A    between atoms: O_3  and  C_9
    2  A    between atoms: O_3  and  C_22
    3  A    between atoms: C_9  and  C_23
    4  A    between atoms: C_15  and  C_23
                            x       y       z     vdW  Elec       q    Type
                         _______ _______ _______ _____ _____    ______ ____

>  <TORSDO>
F 4

$$$$
