=
 OpenBabel11052423083D

 27 31  0  0  1  0  0  0  0  0999 V2000
  159.0220  212.4870  155.1200 C   0  0  2  0  0  0  0  0  0  0  0  0
  159.4860  210.0560  155.5390 C   0  0  0  0  0  0  0  0  0  0  0  0
  160.1830  211.1020  153.4820 O   0  0  0  0  0  0  0  0  0  0  0  0
  161.3290  206.3750  154.2050 C   0  0  0  0  0  2  0  0  0  0  0  0
  162.1060  204.8930  152.3730 C   0  0  0  0  0  1  0  0  0  0  0  0
  159.8340  209.1120  156.4300 C   0  0  0  0  0  3  0  0  0  0  0  0
  160.5310  208.3850  152.2210 C   0  0  0  0  0  2  0  0  0  0  0  0
  158.8920  212.8170  151.2840 C   0  0  0  0  0  1  0  0  0  0  0  0
  161.4660  207.2360  151.8620 C   0  0  0  0  0  2  0  0  0  0  0  0
  158.5210  214.4520  153.1260 C   0  0  0  0  0  2  0  0  0  0  0  0
  159.7210  209.8930  154.0420 C   0  0  1  0  0  3  0  0  0  0  0  0
  158.6740  211.2470  155.9840 C   0  0  2  0  0  3  0  0  0  0  0  0
  161.1620  206.0200  152.7310 C   0  0  2  0  0  3  0  0  0  0  0  0
  160.4020  207.5270  154.5820 C   0  0  2  0  0  3  0  0  0  0  0  0
  160.3560  213.0390  155.6100 C   0  0  0  0  0  1  0  0  0  0  0  0
  160.6830  208.7530  153.6970 C   0  0  1  0  0  3  0  0  0  0  0  0
  159.3270  213.2270  152.6780 C   0  0  1  0  0  3  0  0  0  0  0  0
  160.6370  207.9020  156.0390 C   0  0  0  0  0  2  0  0  0  0  0  0
  157.4210  214.0640  154.0070 N   0  0  0  0  0  2  0  0  0  0  0  0
  157.9810  213.6170  155.2870 C   0  0  0  0  0  2  0  0  0  0  0  0
  159.1490  212.0450  153.6370 C   0  0  2  0  0  3  0  0  0  0  0  0
  154.4720  210.2980  156.1250 C   0  0  0  0  0  3  0  0  0  0  0  0
  157.2050  210.9060  156.0140 C   0  0  0  0  0  0  0  0  0  0  0  0
  156.5870  210.2310  154.9500 C   0  0  0  0  0  3  0  0  0  0  0  0
  155.2230  209.9290  155.0060 C   0  0  0  0  0  3  0  0  0  0  0  0
  155.0840  210.9690  157.1880 C   0  0  0  0  0  3  0  0  0  0  0  0
  156.4480  211.2710  157.1320 C   0  0  0  0  0  3  0  0  0  0  0  0
  1 20  1  0  0  0  0
  1 15  1  1  0  0  0
  1 12  1  0  0  0  0
  2 12  1  0  0  0  0
  2  6  2  0  0  0  0
  9  7  1  0  0  0  0
  9 13  1  0  0  0  0
 10 19  1  0  0  0  0
 11  3  1  1  0  0  0
 11  2  1  0  0  0  0
 12 23  1  6  0  0  0
 13  5  1  6  0  0  0
 13  4  1  0  0  0  0
 14  4  1  6  0  0  0
 14 18  1  0  0  0  0
 16  7  1  6  0  0  0
 16 11  1  0  0  0  0
 16 14  1  0  0  0  0
 17  8  1  6  0  0  0
 17 10  1  0  0  0  0
 17 21  1  0  0  0  0
 18  6  1  0  0  0  0
 19 20  1  0  0  0  0
 21  3  1  1  0  0  0
 21  1  1  0  0  0  0
 22 26  1  0  0  0  0
 23 27  1  0  0  0  0
 24 25  1  0  0  0  0
 24 23  2  0  0  0  0
 25 22  2  0  0  0  0
 27 26  2  0  0  0  0
M  END
>  <MODEL>
1

>  <REMARK>
 VINA RESULT:      -4.4      0.000      0.000
  Name = 
  1 active torsions:
  status: ('A' for Active; 'I' for Inactive)
    1  A    between atoms: C_9  and  C_15
                            x       y       z     vdW  Elec       q    Type
                         _______ _______ _______ _____ _____    ______ ____

>  <TORSDO>
F 1

$$$$
=
 OpenBabel11052423083D

 27 31  0  0  1  0  0  0  0  0999 V2000
  158.8690  212.9830  154.4920 C   0  0  2  0  0  0  0  0  0  0  0  0
  159.5980  213.2730  152.1070 C   0  0  0  0  0  0  0  0  0  0  0  0
  157.2830  213.5450  152.7240 O   0  0  0  0  0  0  0  0  0  0  0  0
  158.5580  214.3190  148.0390 C   0  0  0  0  0  2  0  0  0  0  0  0
  156.8910  214.4530  146.2060 C   0  0  0  0  0  1  0  0  0  0  0  0
  160.5390  213.7270  151.2640 C   0  0  0  0  0  3  0  0  0  0  0  0
  156.4810  213.2740  149.8310 C   0  0  0  0  0  2  0  0  0  0  0  0
  155.1660  211.9400  154.2690 C   0  0  0  0  0  1  0  0  0  0  0  0
  156.1290  213.9620  148.5160 C   0  0  0  0  0  2  0  0  0  0  0  0
  156.7230  212.2160  156.1940 C   0  0  0  0  0  2  0  0  0  0  0  0
  158.1400  213.1090  151.6930 C   0  0  1  0  0  3  0  0  0  0  0  0
  159.9950  212.7290  153.4570 C   0  0  2  0  0  3  0  0  0  0  0  0
  157.2470  213.7540  147.5000 C   0  0  2  0  0  3  0  0  0  0  0  0
  158.9230  213.6450  149.3580 C   0  0  2  0  0  3  0  0  0  0  0  0
  158.9360  214.4480  154.9080 C   0  0  0  0  0  1  0  0  0  0  0  0
  157.7940  213.8260  150.3850 C   0  0  1  0  0  3  0  0  0  0  0  0
  156.3290  212.7490  154.8110 C   0  0  1  0  0  3  0  0  0  0  0  0
  160.1980  214.2730  149.9050 C   0  0  0  0  0  2  0  0  0  0  0  0
  157.8860  211.3340  156.1060 N   0  0  0  0  0  2  0  0  0  0  0  0
  159.0630  212.1440  155.7750 C   0  0  0  0  0  2  0  0  0  0  0  0
  157.4990  212.6890  153.8230 C   0  0  2  0  0  3  0  0  0  0  0  0
  161.2330  208.6100  153.1870 C   0  0  0  0  0  3  0  0  0  0  0  0
  160.4190  211.2860  153.3440 C   0  0  0  0  0  0  0  0  0  0  0  0
  160.0560  210.5000  152.2390 C   0  0  0  0  0  3  0  0  0  0  0  0
  160.4630  209.1650  152.1620 C   0  0  0  0  0  3  0  0  0  0  0  0
  161.5990  209.3900  154.2890 C   0  0  0  0  0  3  0  0  0  0  0  0
  161.1920  210.7250  154.3660 C   0  0  0  0  0  3  0  0  0  0  0  0
  1 15  1  1  0  0  0
  1 20  1  0  0  0  0
  2 12  1  0  0  0  0
  6  2  2  0  0  0  0
  9  7  1  0  0  0  0
 11  2  1  1  0  0  0
 11  3  1  0  0  0  0
 12 23  1  6  0  0  0
 12  1  1  0  0  0  0
 13  5  1  6  0  0  0
 13  4  1  0  0  0  0
 13  9  1  0  0  0  0
 14  4  1  6  0  0  0
 14 18  1  0  0  0  0
 14 16  1  0  0  0  0
 16  7  1  6  0  0  0
 16 11  1  0  0  0  0
 17  8  1  6  0  0  0
 17 10  1  0  0  0  0
 18  6  1  0  0  0  0
 19 10  1  0  0  0  0
 20 19  1  0  0  0  0
 21  3  1  6  0  0  0
 21  1  1  0  0  0  0
 21 17  1  0  0  0  0
 22 26  1  0  0  0  0
 23 27  1  0  0  0  0
 24 23  2  0  0  0  0
 25 24  1  0  0  0  0
 25 22  2  0  0  0  0
 26 27  2  0  0  0  0
M  END
>  <MODEL>
2

>  <REMARK>
 VINA RESULT:      -3.4      2.451      6.373
  Name = 
  1 active torsions:
  status: ('A' for Active; 'I' for Inactive)
    1  A    between atoms: C_9  and  C_15
                            x       y       z     vdW  Elec       q    Type
                         _______ _______ _______ _____ _____    ______ ____

>  <TORSDO>
F 1

$$$$
=
 OpenBabel11052423083D

 27 31  0  0  1  0  0  0  0  0999 V2000
  161.4990  209.6720  154.3450 C   0  0  2  0  0  0  0  0  0  0  0  0
  161.7480  210.3060  151.9280 C   0  0  0  0  0  0  0  0  0  0  0  0
  160.1770  211.4620  153.3450 O   0  0  0  0  0  0  0  0  0  0  0  0
  160.6540  212.9510  148.6830 C   0  0  0  0  0  2  0  0  0  0  0  0
  159.0120  214.4530  147.5860 C   0  0  0  0  0  1  0  0  0  0  0  0
  162.5810  210.4820  150.8890 C   0  0  0  0  0  3  0  0  0  0  0  0
  158.7790  212.5490  150.9050 C   0  0  0  0  0  2  0  0  0  0  0  0
  157.9040  210.7020  155.2670 C   0  0  0  0  0  1  0  0  0  0  0  0
  158.6090  213.6950  149.9150 C   0  0  0  0  0  2  0  0  0  0  0  0
  159.7070  209.5580  156.5500 C   0  0  0  0  0  2  0  0  0  0  0  0
  160.4020  211.0150  152.0270 C   0  0  1  0  0  3  0  0  0  0  0  0
  162.0420  209.2420  152.9570 C   0  0  2  0  0  3  0  0  0  0  0  0
  159.1740  213.3010  148.5540 C   0  0  2  0  0  3  0  0  0  0  0  0
  160.8430  211.8070  149.6750 C   0  0  2  0  0  3  0  0  0  0  0  0
  162.4630  210.6990  154.9280 C   0  0  0  0  0  1  0  0  0  0  0  0
  160.2560  212.1810  151.0450 C   0  0  1  0  0  3  0  0  0  0  0  0
  159.4020  210.6210  155.4870 C   0  0  1  0  0  3  0  0  0  0  0  0
  162.3310  211.5220  149.8330 C   0  0  0  0  0  2  0  0  0  0  0  0
  160.1240  208.3010  155.9310 N   0  0  0  0  0  2  0  0  0  0  0  0
  161.4510  208.4890  155.3380 C   0  0  0  0  0  2  0  0  0  0  0  0
  160.0980  210.3130  154.1570 C   0  0  2  0  0  3  0  0  0  0  0  0
  160.6160  205.4230  151.5610 C   0  0  0  0  0  3  0  0  0  0  0  0
  161.5480  207.8980  152.4870 C   0  0  0  0  0  0  0  0  0  0  0  0
  161.5810  206.7710  153.3240 C   0  0  0  0  0  3  0  0  0  0  0  0
  161.1160  205.5360  152.8600 C   0  0  0  0  0  3  0  0  0  0  0  0
  160.5790  206.5430  150.7240 C   0  0  0  0  0  3  0  0  0  0  0  0
  161.0440  207.7770  151.1880 C   0  0  0  0  0  3  0  0  0  0  0  0
  1 15  1  1  0  0  0
  1 20  1  0  0  0  0
  2 12  1  0  0  0  0
  6  2  2  0  0  0  0
  9  7  1  0  0  0  0
 11  2  1  1  0  0  0
 11  3  1  0  0  0  0
 12 23  1  6  0  0  0
 12  1  1  0  0  0  0
 13  5  1  6  0  0  0
 13  4  1  0  0  0  0
 13  9  1  0  0  0  0
 14  4  1  6  0  0  0
 14 18  1  0  0  0  0
 14 16  1  0  0  0  0
 16  7  1  6  0  0  0
 16 11  1  0  0  0  0
 17  8  1  6  0  0  0
 17 10  1  0  0  0  0
 18  6  1  0  0  0  0
 19 10  1  0  0  0  0
 20 19  1  0  0  0  0
 21  3  1  1  0  0  0
 21  1  1  0  0  0  0
 21 17  1  0  0  0  0
 22 25  1  0  0  0  0
 23 24  1  0  0  0  0
 25 24  2  0  0  0  0
 26 27  1  0  0  0  0
 26 22  2  0  0  0  0
 27 23  2  0  0  0  0
M  END
>  <MODEL>
3

>  <REMARK>
 VINA RESULT:      -2.8      2.370      6.438
  Name = 
  1 active torsions:
  status: ('A' for Active; 'I' for Inactive)
    1  A    between atoms: C_9  and  C_15
                            x       y       z     vdW  Elec       q    Type
                         _______ _______ _______ _____ _____    ______ ____

>  <TORSDO>
F 1

$$$$
=
 OpenBabel11052423083D

 27 31  0  0  1  0  0  0  0  0999 V2000
  161.8520  212.8260  148.5720 C   0  0  2  0  0  0  0  0  0  0  0  0
  161.7600  210.7530  149.9860 C   0  0  0  0  0  0  0  0  0  0  0  0
  161.7530  210.5990  147.5790 O   0  0  0  0  0  0  0  0  0  0  0  0
  161.7440  206.4310  150.1880 C   0  0  0  0  0  2  0  0  0  0  0  0
  161.2060  204.2270  149.1840 C   0  0  0  0  0  1  0  0  0  0  0  0
  162.1850  210.1260  151.0950 C   0  0  0  0  0  3  0  0  0  0  0  0
  160.7540  207.7600  147.7670 C   0  0  0  0  0  2  0  0  0  0  0  0
  160.1660  211.8280  145.2550 C   0  0  0  0  0  1  0  0  0  0  0  0
  161.0820  206.2720  147.7820 C   0  0  0  0  0  2  0  0  0  0  0  0
  161.0990  213.9840  146.0860 C   0  0  0  0  0  2  0  0  0  0  0  0
  161.2660  209.9970  148.7580 C   0  0  1  0  0  3  0  0  0  0  0  0
  161.5860  212.2520  149.9880 C   0  0  2  0  0  3  0  0  0  0  0  0
  160.8620  205.7010  149.1790 C   0  0  2  0  0  3  0  0  0  0  0  0
  161.4310  207.9240  150.1830 C   0  0  2  0  0  3  0  0  0  0  0  0
  163.3610  212.8630  148.3580 C   0  0  0  0  0  1  0  0  0  0  0  0
  161.6260  208.5090  148.7750 C   0  0  1  0  0  3  0  0  0  0  0  0
  161.2570  212.4580  146.0990 C   0  0  1  0  0  3  0  0  0  0  0  0
  162.3690  208.6350  151.1500 C   0  0  0  0  0  2  0  0  0  0  0  0
  160.4310  214.4530  147.2990 N   0  0  0  0  0  2  0  0  0  0  0  0
  161.3440  214.2780  148.4330 C   0  0  0  0  0  2  0  0  0  0  0  0
  161.1950  211.8910  147.5210 C   0  0  2  0  0  3  0  0  0  0  0  0
  157.7780  213.3220  151.6990 C   0  0  0  0  0  3  0  0  0  0  0  0
  160.2460  212.6290  150.5670 C   0  0  0  0  0  0  0  0  0  0  0  0
  159.1650  212.9870  149.7450 C   0  0  0  0  0  3  0  0  0  0  0  0
  157.9350  213.3320  150.3120 C   0  0  0  0  0  3  0  0  0  0  0  0
  158.8510  212.9650  152.5220 C   0  0  0  0  0  3  0  0  0  0  0  0
  160.0810  212.6190  151.9560 C   0  0  0  0  0  3  0  0  0  0  0  0
  1 15  1  6  0  0  0
  1 12  1  0  0  0  0
  2 12  1  0  0  0  0
  2  6  2  0  0  0  0
  6 18  1  0  0  0  0
  7  9  1  0  0  0  0
  9 13  1  0  0  0  0
 10 17  1  0  0  0  0
 10 19  1  0  0  0  0
 11  3  1  6  0  0  0
 11 16  1  0  0  0  0
 11  2  1  0  0  0  0
 12 23  1  6  0  0  0
 13  5  1  6  0  0  0
 13  4  1  0  0  0  0
 14  4  1  6  0  0  0
 14 18  1  0  0  0  0
 16  7  1  6  0  0  0
 16 14  1  0  0  0  0
 17  8  1  6  0  0  0
 17 21  1  0  0  0  0
 19 20  1  0  0  0  0
 20  1  1  0  0  0  0
 21  3  1  6  0  0  0
 21  1  1  0  0  0  0
 22 26  1  0  0  0  0
 23 27  1  0  0  0  0
 24 25  1  0  0  0  0
 24 23  2  0  0  0  0
 25 22  2  0  0  0  0
 27 26  2  0  0  0  0
M  END
>  <MODEL>
4

>  <REMARK>
 VINA RESULT:      -2.4      4.166      6.063
  Name = 
  1 active torsions:
  status: ('A' for Active; 'I' for Inactive)
    1  A    between atoms: C_9  and  C_15
                            x       y       z     vdW  Elec       q    Type
                         _______ _______ _______ _____ _____    ______ ____

>  <TORSDO>
F 1

$$$$
