=
 OpenBabel11062408083D

 34 38  0  0  1  0  0  0  0  0999 V2000
  161.2050  205.3950  152.6300 C   0  0  0  0  0  0  0  0  0  0  0  0
  161.2100  205.7190  150.1330 C   0  0  2  0  0  3  0  0  0  0  0  0
  161.3610  207.7040  151.8120 C   0  0  0  0  0  0  0  0  0  0  0  0
  161.5900  210.0530  151.1560 C   0  0  0  0  0  0  0  0  0  0  0  0
  161.3470  204.0240  152.4240 O   0  0  0  0  0  0  0  0  0  0  0  0
  161.1920  204.1850  150.0460 C   0  0  0  0  0  2  0  0  0  0  0  0
  162.0760  208.3590  149.5190 C   0  0  0  0  0  3  0  0  0  0  0  0
  161.2910  206.2950  151.5450 C   0  0  0  0  0  0  0  0  0  0  0  0
  162.3560  209.3530  148.5830 C   0  0  0  0  0  3  0  0  0  0  0  0
  161.8590  211.0070  150.2240 N   0  0  0  0  0  0  0  0  0  0  0  0
  161.9050  203.5340  151.2150 C   0  0  0  0  0  2  0  0  0  0  0  0
  161.1200  208.1580  153.1450 C   0  0  0  0  0  0  0  0  0  0  0  0
  160.9860  205.8600  153.9190 C   0  0  0  0  0  3  0  0  0  0  0  0
  159.9410  206.2040  149.4500 C   0  0  0  0  0  1  0  0  0  0  0  0
  161.2850  210.4330  152.4170 N   0  0  0  0  0  0  0  0  0  0  0  0
  161.0690  209.5480  153.4240 C   0  0  0  0  0  0  0  0  0  0  0  0
  162.2340  210.6890  148.9570 C   0  0  0  0  0  0  0  0  0  0  0  0
  161.6610  208.6840  150.8200 C   0  0  0  0  0  0  0  0  0  0  0  0
  160.9180  207.2210  154.1660 C   0  0  0  0  0  3  0  0  0  0  0  0
  159.2080  211.0770  156.3430 C   0  0  0  0  0  0  0  0  0  0  0  0
  160.2460  211.2520  157.2580 C   0  0  0  0  0  3  0  0  0  0  0  0
  160.7880  210.1120  154.7730 C   0  0  0  0  0  0  0  0  0  0  0  0
  161.5110  210.8770  156.9320 N   0  0  0  0  0  0  0  0  0  0  0  0
  159.4840  210.5120  155.0980 C   0  0  0  0  0  3  0  0  0  0  0  0
  161.7990  210.3240  155.7230 C   0  0  0  0  0  3  0  0  0  0  0  0
  157.8250  211.4920  156.6880 C   0  0  0  0  0  1  0  0  0  0  0  0
  162.4970  211.7660  147.9660 C   0  0  0  0  0  2  0  0  0  0  0  0
  161.1840  212.3670  147.4950 C   0  0  0  0  0  2  0  0  0  0  0  0
  162.3960  214.2890  148.2450 O   0  0  0  0  0  1  0  0  0  0  0  0
  161.2170  213.8820  147.6200 C   0  0  2  0  0  3  0  0  0  0  0  0
  159.9850  214.4530  148.3400 C   0  0  0  0  0  2  0  0  0  0  0  0
  160.1000  213.8940  150.6910 O   0  0  0  0  0  1  0  0  0  0  0  0
  159.4400  213.6070  149.4950 C   0  0  0  0  0  3  0  0  0  0  0  0
  158.0650  213.7890  149.6520 O   0  0  0  0  0  1  0  0  0  0  0  0
  1 13  1  0  0  0  0
  2 14  1  1  0  0  0
  2  8  1  0  0  0  0
  3 12  2  0  0  0  0
  4 15  1  0  0  0  0
  5  1  1  0  0  0  0
  6  2  1  0  0  0  0
  6 11  1  0  0  0  0
  7 18  2  0  0  0  0
  8  3  1  0  0  0  0
  8  1  2  0  0  0  0
  9 17  2  0  0  0  0
  9  7  1  0  0  0  0
 10  4  2  0  0  0  0
 11  5  1  0  0  0  0
 12 16  1  0  0  0  0
 12 19  1  0  0  0  0
 13 19  2  0  0  0  0
 15 16  2  0  0  0  0
 16 22  1  0  0  0  0
 17 10  1  0  0  0  0
 18  4  1  0  0  0  0
 18  3  1  0  0  0  0
 20 26  1  0  0  0  0
 20 21  1  0  0  0  0
 22 24  1  0  0  0  0
 22 25  2  0  0  0  0
 23 21  2  0  0  0  0
 24 20  2  0  0  0  0
 25 23  1  0  0  0  0
 27 17  1  0  0  0  0
 28 30  1  0  0  0  0
 28 27  1  0  0  0  0
 30 29  1  1  0  0  0
 30 31  1  0  0  0  0
 31 33  1  0  0  0  0
 33 34  1  0  0  0  0
 33 32  1  0  0  0  0
M  END
>  <MODEL>
1

>  <REMARK>
 VINA RESULT:      -7.9      0.000      0.000
  Name = 
  6 active torsions:
  status: ('A' for Active; 'I' for Inactive)
    1  A    between atoms: C_3  and  C_13
    2  A    between atoms: C_3  and  C_29
    3  A    between atoms: C_12  and  C_28
    4  A    between atoms: C_13  and  C_33
    5  A    between atoms: C_20  and  C_22
    6  A    between atoms: C_22  and  C_33
                            x       y       z     vdW  Elec       q    Type
                         _______ _______ _______ _____ _____    ______ ____

>  <TORSDO>
F 6

$$$$
=
 OpenBabel11062408083D

 34 38  0  0  1  0  0  0  0  0999 V2000
  161.2060  205.2470  152.3950 C   0  0  0  0  0  0  0  0  0  0  0  0
  161.1530  205.6640  149.9120 C   0  0  2  0  0  3  0  0  0  0  0  0
  161.3830  207.5820  151.6590 C   0  0  0  0  0  0  0  0  0  0  0  0
  161.6370  209.9500  151.0840 C   0  0  0  0  0  0  0  0  0  0  0  0
  161.3180  203.8820  152.1350 O   0  0  0  0  0  0  0  0  0  0  0  0
  161.1050  204.1350  149.7690 C   0  0  0  0  0  2  0  0  0  0  0  0
  162.0510  208.3100  149.3730 C   0  0  0  0  0  3  0  0  0  0  0  0
  161.2810  206.1860  151.3420 C   0  0  0  0  0  0  0  0  0  0  0  0
  162.3240  209.3330  148.4680 C   0  0  0  0  0  3  0  0  0  0  0  0
  161.9000  210.9330  150.1810 N   0  0  0  0  0  0  0  0  0  0  0  0
  161.8360  203.4280  150.8940 C   0  0  0  0  0  2  0  0  0  0  0  0
  161.1850  207.9900  153.0140 C   0  0  0  0  0  0  0  0  0  0  0  0
  161.0300  205.6670  153.7060 C   0  0  0  0  0  3  0  0  0  0  0  0
  159.8750  206.1960  149.2820 C   0  0  0  0  0  1  0  0  0  0  0  0
  161.3720  210.2870  152.3660 N   0  0  0  0  0  0  0  0  0  0  0  0
  161.1660  209.3690  153.3460 C   0  0  0  0  0  0  0  0  0  0  0  0
  162.2360  210.6570  148.8940 C   0  0  0  0  0  0  0  0  0  0  0  0
  161.6750  208.5930  150.6960 C   0  0  0  0  0  0  0  0  0  0  0  0
  160.9920  207.0190  154.0050 C   0  0  0  0  0  3  0  0  0  0  0  0
  159.4280  210.8850  156.3450 C   0  0  0  0  0  0  0  0  0  0  0  0
  160.4790  210.9430  157.2610 C   0  0  0  0  0  3  0  0  0  0  0  0
  160.9300  209.8880  154.7210 C   0  0  0  0  0  0  0  0  0  0  0  0
  161.7130  210.4970  156.9080 N   0  0  0  0  0  0  0  0  0  0  0  0
  159.6590  210.3610  155.0730 C   0  0  0  0  0  3  0  0  0  0  0  0
  161.9570  209.9820  155.6730 C   0  0  0  0  0  3  0  0  0  0  0  0
  158.0780  211.3790  156.7190 C   0  0  0  0  0  1  0  0  0  0  0  0
  162.4920  211.7650  147.9370 C   0  0  0  0  0  2  0  0  0  0  0  0
  161.7750  213.0220  148.3970 C   0  0  0  0  0  2  0  0  0  0  0  0
  159.4130  213.3540  148.2190 O   0  0  0  0  0  1  0  0  0  0  0  0
  160.5990  213.3280  147.4840 C   0  0  2  0  0  3  0  0  0  0  0  0
  160.4910  212.3590  146.2960 C   0  0  0  0  0  2  0  0  0  0  0  0
  162.1460  213.0970  144.6940 O   0  0  0  0  0  1  0  0  0  0  0  0
  160.7750  212.9640  144.9180 C   0  0  0  0  0  3  0  0  0  0  0  0
  160.1960  212.2040  143.9010 O   0  0  0  0  0  1  0  0  0  0  0  0
  1 13  1  0  0  0  0
  2 14  1  1  0  0  0
  2  8  1  0  0  0  0
  3 12  2  0  0  0  0
  4 15  1  0  0  0  0
  5  1  1  0  0  0  0
  6  2  1  0  0  0  0
  6 11  1  0  0  0  0
  7 18  2  0  0  0  0
  8  3  1  0  0  0  0
  8  1  2  0  0  0  0
  9 17  2  0  0  0  0
  9  7  1  0  0  0  0
 10  4  2  0  0  0  0
 11  5  1  0  0  0  0
 12 16  1  0  0  0  0
 12 19  1  0  0  0  0
 13 19  2  0  0  0  0
 15 16  2  0  0  0  0
 16 22  1  0  0  0  0
 17 10  1  0  0  0  0
 18  4  1  0  0  0  0
 18  3  1  0  0  0  0
 20 26  1  0  0  0  0
 20 21  1  0  0  0  0
 22 24  1  0  0  0  0
 22 25  2  0  0  0  0
 23 21  2  0  0  0  0
 24 20  2  0  0  0  0
 25 23  1  0  0  0  0
 27 28  1  0  0  0  0
 27 17  1  0  0  0  0
 30 29  1  1  0  0  0
 30 28  1  0  0  0  0
 31 30  1  0  0  0  0
 32 33  1  0  0  0  0
 33 31  1  0  0  0  0
 34 33  1  0  0  0  0
M  END
>  <MODEL>
2

>  <REMARK>
 VINA RESULT:      -7.9      1.321      1.930
  Name = 
  6 active torsions:
  status: ('A' for Active; 'I' for Inactive)
    1  A    between atoms: C_3  and  C_13
    2  A    between atoms: C_3  and  C_29
    3  A    between atoms: C_12  and  C_28
    4  A    between atoms: C_13  and  C_33
    5  A    between atoms: C_20  and  C_22
    6  A    between atoms: C_22  and  C_33
                            x       y       z     vdW  Elec       q    Type
                         _______ _______ _______ _____ _____    ______ ____

>  <TORSDO>
F 6

$$$$
=
 OpenBabel11062408083D

 34 38  0  0  1  0  0  0  0  0999 V2000
  160.4950  208.0990  155.2300 C   0  0  0  0  0  0  0  0  0  0  0  0
  161.3750  210.3750  154.6070 C   0  0  2  0  0  3  0  0  0  0  0  0
  161.1380  208.4350  152.8850 C   0  0  0  0  0  0  0  0  0  0  0  0
  161.6710  208.6310  150.5030 C   0  0  0  0  0  0  0  0  0  0  0  0
  160.1220  208.6140  156.4710 O   0  0  0  0  0  0  0  0  0  0  0  0
  161.0740  210.7670  156.0620 C   0  0  0  0  0  2  0  0  0  0  0  0
  161.3740  210.6510  151.7750 C   0  0  0  0  0  3  0  0  0  0  0  0
  160.9710  208.9550  154.2130 C   0  0  0  0  0  0  0  0  0  0  0  0
  161.6460  211.4020  150.6330 C   0  0  0  0  0  3  0  0  0  0  0  0
  161.9410  209.3850  149.4020 N   0  0  0  0  0  0  0  0  0  0  0  0
  159.8930  210.0060  156.6300 C   0  0  0  0  0  2  0  0  0  0  0  0
  161.0270  207.0250  152.6870 C   0  0  0  0  0  0  0  0  0  0  0  0
  160.3800  206.7340  155.0100 C   0  0  0  0  0  3  0  0  0  0  0  0
  162.8720  210.5580  154.4130 C   0  0  0  0  0  1  0  0  0  0  0  0
  161.6250  207.2860  150.3840 N   0  0  0  0  0  0  0  0  0  0  0  0
  161.2970  206.4620  151.4130 C   0  0  0  0  0  0  0  0  0  0  0  0
  161.9380  210.7420  149.4420 C   0  0  0  0  0  0  0  0  0  0  0  0
  161.4060  209.2480  151.7450 C   0  0  0  0  0  0  0  0  0  0  0  0
  160.6700  206.2030  153.7640 C   0  0  0  0  0  3  0  0  0  0  0  0
  161.0470  203.2040  149.5060 C   0  0  0  0  0  0  0  0  0  0  0  0
  161.0550  202.2810  150.5530 C   0  0  0  0  0  3  0  0  0  0  0  0
  161.2440  205.0030  151.1230 C   0  0  0  0  0  0  0  0  0  0  0  0
  161.1450  202.7130  151.8380 N   0  0  0  0  0  0  0  0  0  0  0  0
  161.1350  204.5650  149.7960 C   0  0  0  0  0  3  0  0  0  0  0  0
  161.2330  204.0360  152.1400 C   0  0  0  0  0  3  0  0  0  0  0  0
  160.9400  202.7410  148.0980 C   0  0  0  0  0  1  0  0  0  0  0  0
  162.2610  211.5240  148.2180 C   0  0  0  0  0  2  0  0  0  0  0  0
  161.8720  212.9790  148.4170 C   0  0  0  0  0  2  0  0  0  0  0  0
  159.5210  213.3980  148.5480 O   0  0  0  0  0  1  0  0  0  0  0  0
  160.5920  213.2950  147.6600 C   0  0  2  0  0  3  0  0  0  0  0  0
  160.2870  212.2840  146.5430 C   0  0  0  0  0  2  0  0  0  0  0  0
  161.7970  213.0000  144.7950 O   0  0  0  0  0  1  0  0  0  0  0  0
  160.4530  212.8060  145.1120 C   0  0  0  0  0  3  0  0  0  0  0  0
  159.8630  211.9440  144.1870 O   0  0  0  0  0  1  0  0  0  0  0  0
  1  5  1  0  0  0  0
  2 14  1  1  0  0  0
  2  6  1  0  0  0  0
  3  8  1  0  0  0  0
  4 18  1  0  0  0  0
  5 11  1  0  0  0  0
  6 11  1  0  0  0  0
  8  2  1  0  0  0  0
  8  1  2  0  0  0  0
  9  7  1  0  0  0  0
 10 17  1  0  0  0  0
 10  4  2  0  0  0  0
 12  3  2  0  0  0  0
 12 19  1  0  0  0  0
 13  1  1  0  0  0  0
 15  4  1  0  0  0  0
 15 16  2  0  0  0  0
 16 12  1  0  0  0  0
 17  9  2  0  0  0  0
 18  7  2  0  0  0  0
 18  3  1  0  0  0  0
 19 13  2  0  0  0  0
 20 24  2  0  0  0  0
 20 21  1  0  0  0  0
 21 23  2  0  0  0  0
 22 16  1  0  0  0  0
 22 25  2  0  0  0  0
 23 25  1  0  0  0  0
 24 22  1  0  0  0  0
 26 20  1  0  0  0  0
 27 28  1  0  0  0  0
 27 17  1  0  0  0  0
 30 28  1  0  0  0  0
 30 29  1  1  0  0  0
 31 30  1  0  0  0  0
 32 33  1  0  0  0  0
 33 31  1  0  0  0  0
 34 33  1  0  0  0  0
M  END
>  <MODEL>
3

>  <REMARK>
 VINA RESULT:      -7.8      2.439      5.799
  Name = 
  6 active torsions:
  status: ('A' for Active; 'I' for Inactive)
    1  A    between atoms: C_3  and  C_13
    2  A    between atoms: C_3  and  C_29
    3  A    between atoms: C_12  and  C_28
    4  A    between atoms: C_13  and  C_33
    5  A    between atoms: C_20  and  C_22
    6  A    between atoms: C_22  and  C_33
                            x       y       z     vdW  Elec       q    Type
                         _______ _______ _______ _____ _____    ______ ____

>  <TORSDO>
F 6

$$$$
=
 OpenBabel11062408083D

 34 38  0  0  1  0  0  0  0  0999 V2000
  161.2230  204.3230  150.7550 C   0  0  0  0  0  0  0  0  0  0  0  0
  161.1810  205.4870  148.5230 C   0  0  2  0  0  3  0  0  0  0  0  0
  161.4160  206.7700  150.7770 C   0  0  0  0  0  0  0  0  0  0  0  0
  161.6870  209.1960  150.9640 C   0  0  0  0  0  0  0  0  0  0  0  0
  161.3270  203.1040  150.0850 O   0  0  0  0  0  0  0  0  0  0  0  0
  161.1250  204.0780  147.9140 C   0  0  0  0  0  2  0  0  0  0  0  0
  162.0970  208.1630  148.8310 C   0  0  0  0  0  3  0  0  0  0  0  0
  161.3070  205.5400  150.0440 C   0  0  0  0  0  0  0  0  0  0  0  0
  162.3800  209.4150  148.2870 C   0  0  0  0  0  3  0  0  0  0  0  0
  161.9590  210.4090  150.4100 N   0  0  0  0  0  0  0  0  0  0  0  0
  161.8470  203.0530  148.7660 C   0  0  0  0  0  2  0  0  0  0  0  0
  161.2160  206.7390  152.1920 C   0  0  0  0  0  0  0  0  0  0  0  0
  161.0430  204.3170  152.1310 C   0  0  0  0  0  3  0  0  0  0  0  0
  159.9100  206.1970  148.0850 C   0  0  0  0  0  1  0  0  0  0  0  0
  161.4190  209.1220  152.2870 N   0  0  0  0  0  0  0  0  0  0  0  0
  161.2040  207.9480  152.9340 C   0  0  0  0  0  0  0  0  0  0  0  0
  162.2980  210.5420  149.1020 C   0  0  0  0  0  0  0  0  0  0  0  0
  161.7180  208.0260  150.1750 C   0  0  0  0  0  0  0  0  0  0  0  0
  161.0130  205.5110  152.8330 C   0  0  0  0  0  3  0  0  0  0  0  0
  161.1480  209.2420  156.4890 C   0  0  0  0  0  0  0  0  0  0  0  0
  160.6110  208.1450  157.1640 C   0  0  0  0  0  3  0  0  0  0  0  0
  160.9650  208.0170  154.4020 C   0  0  0  0  0  0  0  0  0  0  0  0
  160.2760  207.0220  156.4750 N   0  0  0  0  0  0  0  0  0  0  0  0
  161.3290  209.1720  155.1080 C   0  0  0  0  0  3  0  0  0  0  0  0
  160.4440  206.9360  155.1290 C   0  0  0  0  0  3  0  0  0  0  0  0
  161.5270  210.4690  157.2350 C   0  0  0  0  0  1  0  0  0  0  0  0
  162.5660  211.8910  148.5340 C   0  0  0  0  0  2  0  0  0  0  0  0
  161.2780  212.6940  148.4820 C   0  0  0  0  0  2  0  0  0  0  0  0
  161.3130  212.5870  146.0930 O   0  0  0  0  0  1  0  0  0  0  0  0
  160.5050  212.3790  147.2120 C   0  0  2  0  0  3  0  0  0  0  0  0
  159.1900  213.1660  147.0960 C   0  0  0  0  0  2  0  0  0  0  0  0
  157.0870  212.2010  146.3920 O   0  0  0  0  0  1  0  0  0  0  0  0
  158.2770  212.7670  145.9330 C   0  0  0  0  0  3  0  0  0  0  0  0
  158.0010  213.8570  145.1070 O   0  0  0  0  0  1  0  0  0  0  0  0
  1 13  1  0  0  0  0
  2 14  1  1  0  0  0
  2  8  1  0  0  0  0
  3 12  2  0  0  0  0
  4 15  1  0  0  0  0
  5  1  1  0  0  0  0
  6  2  1  0  0  0  0
  6 11  1  0  0  0  0
  7 18  2  0  0  0  0
  8  1  2  0  0  0  0
  8  3  1  0  0  0  0
  9  7  1  0  0  0  0
  9 17  2  0  0  0  0
 10  4  2  0  0  0  0
 11  5  1  0  0  0  0
 12 19  1  0  0  0  0
 12 16  1  0  0  0  0
 13 19  2  0  0  0  0
 15 16  2  0  0  0  0
 16 22  1  0  0  0  0
 17 10  1  0  0  0  0
 18  3  1  0  0  0  0
 18  4  1  0  0  0  0
 20 21  1  0  0  0  0
 20 26  1  0  0  0  0
 22 24  1  0  0  0  0
 22 25  2  0  0  0  0
 23 21  2  0  0  0  0
 24 20  2  0  0  0  0
 25 23  1  0  0  0  0
 27 17  1  0  0  0  0
 28 27  1  0  0  0  0
 30 29  1  6  0  0  0
 30 28  1  0  0  0  0
 31 30  1  0  0  0  0
 33 32  1  0  0  0  0
 33 31  1  0  0  0  0
 34 33  1  0  0  0  0
M  END
>  <MODEL>
4

>  <REMARK>
 VINA RESULT:      -7.6      1.946      2.463
  Name = 
  6 active torsions:
  status: ('A' for Active; 'I' for Inactive)
    1  A    between atoms: C_3  and  C_13
    2  A    between atoms: C_3  and  C_29
    3  A    between atoms: C_12  and  C_28
    4  A    between atoms: C_13  and  C_33
    5  A    between atoms: C_20  and  C_22
    6  A    between atoms: C_22  and  C_33
                            x       y       z     vdW  Elec       q    Type
                         _______ _______ _______ _____ _____    ______ ____

>  <TORSDO>
F 6

$$$$
=
 OpenBabel11062408083D

 34 38  0  0  1  0  0  0  0  0999 V2000
  161.4600  206.0810  149.0070 C   0  0  0  0  0  0  0  0  0  0  0  0
  161.6200  205.4900  151.4500 C   0  0  2  0  0  3  0  0  0  0  0  0
  161.4760  207.9480  150.6010 C   0  0  0  0  0  0  0  0  0  0  0  0
  161.4130  209.9120  152.0630 C   0  0  0  0  0  0  0  0  0  0  0  0
  161.2570  204.7310  148.7230 O   0  0  0  0  0  0  0  0  0  0  0  0
  161.5610  204.0270  150.9850 C   0  0  0  0  0  2  0  0  0  0  0  0
  160.9340  207.7590  153.0230 C   0  0  0  0  0  3  0  0  0  0  0  0
  161.4860  206.5350  150.3440 C   0  0  0  0  0  0  0  0  0  0  0  0
  160.7640  208.3600  154.2690 C   0  0  0  0  0  3  0  0  0  0  0  0
  161.2500  210.4760  153.2910 N   0  0  0  0  0  0  0  0  0  0  0  0
  160.7460  203.8580  149.7170 C   0  0  0  0  0  2  0  0  0  0  0  0
  161.6620  208.8410  149.5020 C   0  0  0  0  0  0  0  0  0  0  0  0
  161.6260  206.9700  147.9540 C   0  0  0  0  0  3  0  0  0  0  0  0
  162.9510  205.6610  152.1640 C   0  0  0  0  0  1  0  0  0  0  0  0
  161.6620  210.7080  151.0000 N   0  0  0  0  0  0  0  0  0  0  0  0
  161.7710  210.2370  149.7310 C   0  0  0  0  0  0  0  0  0  0  0  0
  160.9350  209.7380  154.3860 C   0  0  0  0  0  0  0  0  0  0  0  0
  161.2880  208.5160  151.8950 C   0  0  0  0  0  0  0  0  0  0  0  0
  161.7540  208.3270  148.2030 C   0  0  0  0  0  3  0  0  0  0  0  0
  161.1210  212.6000  146.8480 C   0  0  0  0  0  0  0  0  0  0  0  0
  162.4140  213.0480  146.5740 C   0  0  0  0  0  3  0  0  0  0  0  0
  162.0020  211.2390  148.6540 C   0  0  0  0  0  0  0  0  0  0  0  0
  163.4610  212.5940  147.3120 N   0  0  0  0  0  0  0  0  0  0  0  0
  160.9200  211.6900  147.8860 C   0  0  0  0  0  3  0  0  0  0  0  0
  163.2840  211.7080  148.3280 C   0  0  0  0  0  3  0  0  0  0  0  0
  159.9720  213.0830  146.0410 C   0  0  0  0  0  1  0  0  0  0  0  0
  160.7890  210.3960  155.7110 C   0  0  0  0  0  2  0  0  0  0  0  0
  159.3660  210.2320  156.2160 C   0  0  0  0  0  2  0  0  0  0  0  0
  157.7120  211.7490  157.0440 O   0  0  0  0  0  1  0  0  0  0  0  0
  158.5640  211.4990  155.9680 C   0  0  2  0  0  3  0  0  0  0  0  0
  157.7840  211.4680  154.6430 C   0  0  0  0  0  2  0  0  0  0  0  0
  159.3250  213.2240  154.0180 O   0  0  0  0  0  1  0  0  0  0  0  0
  158.1900  212.5230  153.6090 C   0  0  0  0  0  3  0  0  0  0  0  0
  158.4070  211.9490  152.3560 O   0  0  0  0  0  1  0  0  0  0  0  0
  1  8  1  0  0  0  0
  2 14  1  6  0  0  0
  3 18  1  0  0  0  0
  4 10  2  0  0  0  0
  5  1  1  0  0  0  0
  5 11  1  0  0  0  0
  6  2  1  0  0  0  0
  7  9  1  0  0  0  0
  8  3  2  0  0  0  0
  8  2  1  0  0  0  0
  9 17  2  0  0  0  0
 10 17  1  0  0  0  0
 11  6  1  0  0  0  0
 12 16  1  0  0  0  0
 12  3  1  0  0  0  0
 13 19  1  0  0  0  0
 13  1  2  0  0  0  0
 15  4  1  0  0  0  0
 16 15  2  0  0  0  0
 17 27  1  0  0  0  0
 18  4  1  0  0  0  0
 18  7  2  0  0  0  0
 19 12  2  0  0  0  0
 20 24  1  0  0  0  0
 21 20  2  0  0  0  0
 21 23  1  0  0  0  0
 22 16  1  0  0  0  0
 23 25  2  0  0  0  0
 24 22  2  0  0  0  0
 25 22  1  0  0  0  0
 26 20  1  0  0  0  0
 27 28  1  0  0  0  0
 30 28  1  0  0  0  0
 30 29  1  1  0  0  0
 31 30  1  0  0  0  0
 33 32  1  0  0  0  0
 33 31  1  0  0  0  0
 34 33  1  0  0  0  0
M  END
>  <MODEL>
5

>  <REMARK>
 VINA RESULT:      -7.5      2.057      6.134
  Name = 
  6 active torsions:
  status: ('A' for Active; 'I' for Inactive)
    1  A    between atoms: C_3  and  C_13
    2  A    between atoms: C_3  and  C_29
    3  A    between atoms: C_12  and  C_28
    4  A    between atoms: C_13  and  C_33
    5  A    between atoms: C_20  and  C_22
    6  A    between atoms: C_22  and  C_33
                            x       y       z     vdW  Elec       q    Type
                         _______ _______ _______ _____ _____    ______ ____

>  <TORSDO>
F 6

$$$$
=
 OpenBabel11062408083D

 34 38  0  0  1  0  0  0  0  0999 V2000
  161.5200  209.6400  155.0840 C   0  0  0  0  0  0  0  0  0  0  0  0
  160.7080  207.2740  155.3780 C   0  0  2  0  0  3  0  0  0  0  0  0
  161.3100  208.2790  153.0520 C   0  0  0  0  0  0  0  0  0  0  0  0
  161.2190  207.0340  150.9450 C   0  0  0  0  0  0  0  0  0  0  0  0
  161.6450  209.7390  156.4690 O   0  0  0  0  0  0  0  0  0  0  0  0
  160.7260  207.5740  156.8850 C   0  0  0  0  0  2  0  0  0  0  0  0
  161.2220  205.7920  153.0050 C   0  0  0  0  0  3  0  0  0  0  0  0
  161.2160  208.4000  154.4790 C   0  0  0  0  0  0  0  0  0  0  0  0
  161.1450  204.6040  152.2800 C   0  0  0  0  0  3  0  0  0  0  0  0
  161.1350  205.8620  150.2580 N   0  0  0  0  0  0  0  0  0  0  0  0
  161.8040  208.5720  157.2610 C   0  0  0  0  0  2  0  0  0  0  0  0
  161.4930  209.4660  152.2780 C   0  0  0  0  0  0  0  0  0  0  0  0
  161.7100  210.7770  154.3110 C   0  0  0  0  0  3  0  0  0  0  0  0
  159.2680  206.9400  155.0230 C   0  0  0  0  0  1  0  0  0  0  0  0
  161.3210  208.1930  150.2580 N   0  0  0  0  0  0  0  0  0  0  0  0
  161.4770  209.4000  150.8610 C   0  0  0  0  0  0  0  0  0  0  0  0
  161.0950  204.6600  150.8890 C   0  0  0  0  0  0  0  0  0  0  0  0
  161.2350  207.0370  152.3560 C   0  0  0  0  0  0  0  0  0  0  0  0
  161.6680  210.6940  152.9290 C   0  0  0  0  0  3  0  0  0  0  0  0
  161.0760  212.8990  149.4780 C   0  0  0  0  0  0  0  0  0  0  0  0
  161.8040  212.8020  148.2920 C   0  0  0  0  0  3  0  0  0  0  0  0
  161.6220  210.5870  149.9740 C   0  0  0  0  0  0  0  0  0  0  0  0
  162.4090  211.6310  147.9600 N   0  0  0  0  0  0  0  0  0  0  0  0
  160.9830  211.7870  150.3150 C   0  0  0  0  0  3  0  0  0  0  0  0
  162.3290  210.5360  148.7630 C   0  0  0  0  0  3  0  0  0  0  0  0
  160.4040  214.1720  149.8450 C   0  0  0  0  0  1  0  0  0  0  0  0
  160.9800  203.4060  150.0970 C   0  0  0  0  0  2  0  0  0  0  0  0
  161.2070  203.7020  148.6250 C   0  0  0  0  0  2  0  0  0  0  0  0
  161.2170  201.3240  148.3760 O   0  0  0  0  0  1  0  0  0  0  0  0
  160.7990  202.5110  147.7740 C   0  0  2  0  0  3  0  0  0  0  0  0
  161.3070  202.6040  146.3260 C   0  0  0  0  0  2  0  0  0  0  0  0
  162.8320  204.3160  145.5570 O   0  0  0  0  0  1  0  0  0  0  0  0
  161.4860  204.0220  145.7750 C   0  0  0  0  0  3  0  0  0  0  0  0
  160.7600  204.2040  144.5970 O   0  0  0  0  0  1  0  0  0  0  0  0
  1  5  1  0  0  0  0
  2 14  1  6  0  0  0
  2  6  1  0  0  0  0
  3  8  2  0  0  0  0
  4 18  1  0  0  0  0
  5 11  1  0  0  0  0
  6 11  1  0  0  0  0
  8  1  1  0  0  0  0
  8  2  1  0  0  0  0
  9  7  1  0  0  0  0
 10 17  1  0  0  0  0
 10  4  2  0  0  0  0
 12 19  2  0  0  0  0
 12  3  1  0  0  0  0
 13  1  2  0  0  0  0
 15 16  2  0  0  0  0
 15  4  1  0  0  0  0
 16 12  1  0  0  0  0
 17  9  2  0  0  0  0
 18  7  2  0  0  0  0
 18  3  1  0  0  0  0
 19 13  1  0  0  0  0
 20 26  1  0  0  0  0
 20 24  1  0  0  0  0
 21 20  2  0  0  0  0
 22 24  2  0  0  0  0
 22 16  1  0  0  0  0
 23 21  1  0  0  0  0
 23 25  2  0  0  0  0
 25 22  1  0  0  0  0
 27 17  1  0  0  0  0
 28 27  1  0  0  0  0
 30 29  1  1  0  0  0
 30 28  1  0  0  0  0
 31 30  1  0  0  0  0
 32 33  1  0  0  0  0
 33 31  1  0  0  0  0
 34 33  1  0  0  0  0
M  END
>  <MODEL>
6

>  <REMARK>
 VINA RESULT:      -7.4      3.353      7.293
  Name = 
  6 active torsions:
  status: ('A' for Active; 'I' for Inactive)
    1  A    between atoms: C_3  and  C_13
    2  A    between atoms: C_3  and  C_29
    3  A    between atoms: C_12  and  C_28
    4  A    between atoms: C_13  and  C_33
    5  A    between atoms: C_20  and  C_22
    6  A    between atoms: C_22  and  C_33
                            x       y       z     vdW  Elec       q    Type
                         _______ _______ _______ _____ _____    ______ ____

>  <TORSDO>
F 6

$$$$
=
 OpenBabel11062408083D

 34 38  0  0  1  0  0  0  0  0999 V2000
  160.8630  207.4650  153.6470 C   0  0  0  0  0  0  0  0  0  0  0  0
  161.6160  209.8660  153.5680 C   0  0  2  0  0  3  0  0  0  0  0  0
  161.3690  208.3950  151.4330 C   0  0  0  0  0  0  0  0  0  0  0  0
  161.7700  209.1920  149.1520 C   0  0  0  0  0  0  0  0  0  0  0  0
  160.5340  207.6420  154.9910 O   0  0  0  0  0  0  0  0  0  0  0  0
  161.3750  209.8760  155.0850 C   0  0  0  0  0  2  0  0  0  0  0  0
  161.4580  210.8230  150.8930 C   0  0  0  0  0  3  0  0  0  0  0  0
  161.2500  208.5660  152.8540 C   0  0  0  0  0  0  0  0  0  0  0  0
  161.6390  211.8420  149.9600 C   0  0  0  0  0  3  0  0  0  0  0  0
  161.9520  210.2040  148.2610 N   0  0  0  0  0  0  0  0  0  0  0  0
  160.2560  208.9390  155.4960 C   0  0  0  0  0  2  0  0  0  0  0  0
  161.3070  207.0710  150.8990 C   0  0  0  0  0  0  0  0  0  0  0  0
  160.7930  206.1900  153.1040 C   0  0  0  0  0  3  0  0  0  0  0  0
  163.0920  210.1690  153.3640 C   0  0  0  0  0  1  0  0  0  0  0  0
  161.7740  207.9150  148.7090 N   0  0  0  0  0  0  0  0  0  0  0  0
  161.5330  206.8500  149.5160 C   0  0  0  0  0  0  0  0  0  0  0  0
  161.8950  211.5090  148.6320 C   0  0  0  0  0  0  0  0  0  0  0  0
  161.5450  209.4730  150.5170 C   0  0  0  0  0  0  0  0  0  0  0  0
  161.0400  205.9940  151.7550 C   0  0  0  0  0  3  0  0  0  0  0  0
  161.1630  203.1120  149.0630 C   0  0  0  0  0  0  0  0  0  0  0  0
  161.5800  202.9620  147.7400 C   0  0  0  0  0  3  0  0  0  0  0  0
  161.5250  205.5050  148.8790 C   0  0  0  0  0  0  0  0  0  0  0  0
  161.9650  204.0490  147.0210 N   0  0  0  0  0  0  0  0  0  0  0  0
  161.1420  204.3860  149.6310 C   0  0  0  0  0  3  0  0  0  0  0  0
  161.9500  205.2990  147.5580 C   0  0  0  0  0  3  0  0  0  0  0  0
  160.7500  201.9280  149.8590 C   0  0  0  0  0  1  0  0  0  0  0  0
  162.1230  212.5810  147.6270 C   0  0  0  0  0  2  0  0  0  0  0  0
  161.0170  213.6180  147.7170 C   0  0  0  0  0  2  0  0  0  0  0  0
  158.8560  212.6890  147.2820 O   0  0  0  0  0  1  0  0  0  0  0  0
  159.9380  213.3360  146.6840 C   0  0  2  0  0  3  0  0  0  0  0  0
  160.4550  212.5420  145.4740 C   0  0  0  0  0  2  0  0  0  0  0  0
  158.9620  213.6680  143.9410 O   0  0  0  0  0  1  0  0  0  0  0  0
  159.4860  212.4240  144.2940 C   0  0  0  0  0  3  0  0  0  0  0  0
  160.1010  211.8330  143.1890 O   0  0  0  0  0  1  0  0  0  0  0  0
  1  5  1  0  0  0  0
  2 14  1  1  0  0  0
  2  6  1  0  0  0  0
  3  8  1  0  0  0  0
  4 18  1  0  0  0  0
  5 11  1  0  0  0  0
  6 11  1  0  0  0  0
  8  2  1  0  0  0  0
  8  1  2  0  0  0  0
  9  7  1  0  0  0  0
 10 17  1  0  0  0  0
 10  4  2  0  0  0  0
 12  3  2  0  0  0  0
 12 19  1  0  0  0  0
 13  1  1  0  0  0  0
 15  4  1  0  0  0  0
 15 16  2  0  0  0  0
 16 12  1  0  0  0  0
 17  9  2  0  0  0  0
 18  7  2  0  0  0  0
 18  3  1  0  0  0  0
 19 13  2  0  0  0  0
 20 24  1  0  0  0  0
 20 26  1  0  0  0  0
 21 20  2  0  0  0  0
 22 16  1  0  0  0  0
 22 24  2  0  0  0  0
 23 25  2  0  0  0  0
 23 21  1  0  0  0  0
 25 22  1  0  0  0  0
 27 28  1  0  0  0  0
 27 17  1  0  0  0  0
 30 29  1  1  0  0  0
 30 28  1  0  0  0  0
 31 30  1  0  0  0  0
 32 33  1  0  0  0  0
 33 31  1  0  0  0  0
 34 33  1  0  0  0  0
M  END
>  <MODEL>
7

>  <REMARK>
 VINA RESULT:      -6.9      2.623      6.056
  Name = 
  6 active torsions:
  status: ('A' for Active; 'I' for Inactive)
    1  A    between atoms: C_3  and  C_13
    2  A    between atoms: C_3  and  C_29
    3  A    between atoms: C_12  and  C_28
    4  A    between atoms: C_13  and  C_33
    5  A    between atoms: C_20  and  C_22
    6  A    between atoms: C_22  and  C_33
                            x       y       z     vdW  Elec       q    Type
                         _______ _______ _______ _____ _____    ______ ____

>  <TORSDO>
F 6

$$$$
=
 OpenBabel11062408083D

 34 38  0  0  1  0  0  0  0  0999 V2000
  162.0160  209.6310  148.9290 C   0  0  0  0  0  0  0  0  0  0  0  0
  161.5090  211.4780  150.5640 C   0  0  2  0  0  3  0  0  0  0  0  0
  161.6050  208.9690  151.2570 C   0  0  0  0  0  0  0  0  0  0  0  0
  161.2850  208.1550  153.5440 C   0  0  0  0  0  0  0  0  0  0  0  0
  162.3620  210.5990  147.9870 O   0  0  0  0  0  0  0  0  0  0  0  0
  161.7510  212.4350  149.3880 C   0  0  0  0  0  2  0  0  0  0  0  0
  161.7620  210.4900  153.2210 C   0  0  0  0  0  3  0  0  0  0  0  0
  161.7410  209.9980  150.2650 C   0  0  0  0  0  0  0  0  0  0  0  0
  161.6840  210.6900  154.5980 C   0  0  0  0  0  3  0  0  0  0  0  0
  161.2060  208.3750  154.8850 N   0  0  0  0  0  0  0  0  0  0  0  0
  162.7690  211.8930  148.4040 C   0  0  0  0  0  2  0  0  0  0  0  0
  161.5330  207.6100  150.8230 C   0  0  0  0  0  0  0  0  0  0  0  0
  161.9560  208.3030  148.5330 C   0  0  0  0  0  3  0  0  0  0  0  0
  160.0710  211.6950  151.0080 C   0  0  0  0  0  1  0  0  0  0  0  0
  161.1520  206.8940  153.0750 N   0  0  0  0  0  0  0  0  0  0  0  0
  161.2850  206.5760  151.7620 C   0  0  0  0  0  0  0  0  0  0  0  0
  161.3940  209.6070  155.4240 C   0  0  0  0  0  0  0  0  0  0  0  0
  161.5390  209.2240  152.6580 C   0  0  0  0  0  0  0  0  0  0  0  0
  161.6910  207.3110  149.4640 C   0  0  0  0  0  3  0  0  0  0  0  0
  160.9890  203.4280  149.6830 C   0  0  0  0  0  0  0  0  0  0  0  0
  160.8340  202.4640  150.6800 C   0  0  0  0  0  3  0  0  0  0  0  0
  161.1570  205.1380  151.3970 C   0  0  0  0  0  0  0  0  0  0  0  0
  160.8310  202.8330  151.9870 N   0  0  0  0  0  0  0  0  0  0  0  0
  161.1440  204.7660  150.0460 C   0  0  0  0  0  3  0  0  0  0  0  0
  160.9830  204.1330  152.3600 C   0  0  0  0  0  3  0  0  0  0  0  0
  160.9830  203.0340  148.2510 C   0  0  0  0  0  1  0  0  0  0  0  0
  161.2750  209.8030  156.8940 C   0  0  0  0  0  2  0  0  0  0  0  0
  159.8340  210.1140  157.2590 C   0  0  0  0  0  2  0  0  0  0  0  0
  159.8460  212.5060  157.2610 O   0  0  0  0  0  1  0  0  0  0  0  0
  159.3740  211.3890  156.5710 C   0  0  2  0  0  3  0  0  0  0  0  0
  157.8500  211.4570  156.3880 C   0  0  0  0  0  2  0  0  0  0  0  0
  155.9340  211.0470  154.9690 O   0  0  0  0  0  1  0  0  0  0  0  0
  157.3290  211.0570  155.0040 C   0  0  0  0  0  3  0  0  0  0  0  0
  157.8260  211.9010  154.0100 O   0  0  0  0  0  1  0  0  0  0  0  0
  1  8  1  0  0  0  0
  2 14  1  6  0  0  0
  3 18  1  0  0  0  0
  4 10  2  0  0  0  0
  5 11  1  0  0  0  0
  5  1  1  0  0  0  0
  6  2  1  0  0  0  0
  7  9  1  0  0  0  0
  8  2  1  0  0  0  0
  8  3  2  0  0  0  0
  9 17  2  0  0  0  0
 10 17  1  0  0  0  0
 11  6  1  0  0  0  0
 12  3  1  0  0  0  0
 12 16  1  0  0  0  0
 13  1  2  0  0  0  0
 13 19  1  0  0  0  0
 15  4  1  0  0  0  0
 16 15  2  0  0  0  0
 17 27  1  0  0  0  0
 18  7  2  0  0  0  0
 18  4  1  0  0  0  0
 19 12  2  0  0  0  0
 20 24  2  0  0  0  0
 20 21  1  0  0  0  0
 21 23  2  0  0  0  0
 22 16  1  0  0  0  0
 22 25  2  0  0  0  0
 23 25  1  0  0  0  0
 24 22  1  0  0  0  0
 26 20  1  0  0  0  0
 27 28  1  0  0  0  0
 30 28  1  0  0  0  0
 30 29  1  1  0  0  0
 31 30  1  0  0  0  0
 32 33  1  0  0  0  0
 33 31  1  0  0  0  0
 34 33  1  0  0  0  0
M  END
>  <MODEL>
8

>  <REMARK>
 VINA RESULT:      -6.2      2.651      7.133
  Name = 
  6 active torsions:
  status: ('A' for Active; 'I' for Inactive)
    1  A    between atoms: C_3  and  C_13
    2  A    between atoms: C_3  and  C_29
    3  A    between atoms: C_12  and  C_28
    4  A    between atoms: C_13  and  C_33
    5  A    between atoms: C_20  and  C_22
    6  A    between atoms: C_22  and  C_33
                            x       y       z     vdW  Elec       q    Type
                         _______ _______ _______ _____ _____    ______ ____

>  <TORSDO>
F 6

$$$$
=
 OpenBabel11062408083D

 34 38  0  0  1  0  0  0  0  0999 V2000
  160.4640  213.5200  149.1870 C   0  0  0  0  0  0  0  0  0  0  0  0
  162.1230  211.8560  148.2820 C   0  0  2  0  0  3  0  0  0  0  0  0
  160.9070  211.5360  150.5630 C   0  0  0  0  0  0  0  0  0  0  0  0
  161.1890  209.5850  152.0160 C   0  0  0  0  0  0  0  0  0  0  0  0
  160.4860  214.1700  147.9530 O   0  0  0  0  0  0  0  0  0  0  0  0
  162.1840  212.7590  147.0410 C   0  0  0  0  0  2  0  0  0  0  0  0
  161.9030  209.4140  149.7260 C   0  0  0  0  0  3  0  0  0  0  0  0
  161.1270  212.2850  149.3580 C   0  0  0  0  0  0  0  0  0  0  0  0
  162.3230  208.1070  149.9620 C   0  0  0  0  0  3  0  0  0  0  0  0
  161.6140  208.3100  152.2260 N   0  0  0  0  0  0  0  0  0  0  0  0
  160.8700  213.4690  146.7800 C   0  0  0  0  0  2  0  0  0  0  0  0
  160.2030  212.1640  151.6360 C   0  0  0  0  0  0  0  0  0  0  0  0
  159.7720  214.1040  150.2390 C   0  0  0  0  0  3  0  0  0  0  0  0
  163.5280  211.8270  148.8630 C   0  0  0  0  0  1  0  0  0  0  0  0
  160.5800  210.2500  153.0230 N   0  0  0  0  0  0  0  0  0  0  0  0
  160.0650  211.4990  152.8810 C   0  0  0  0  0  0  0  0  0  0  0  0
  162.1740  207.5670  151.2370 C   0  0  0  0  0  0  0  0  0  0  0  0
  161.3490  210.1950  150.7530 C   0  0  0  0  0  0  0  0  0  0  0  0
  159.6690  213.4460  151.4540 C   0  0  0  0  0  3  0  0  0  0  0  0
  157.3330  212.8210  155.1410 C   0  0  0  0  0  0  0  0  0  0  0  0
  158.0810  213.2690  156.2300 C   0  0  0  0  0  3  0  0  0  0  0  0
  159.3820  212.0890  154.0650 C   0  0  0  0  0  0  0  0  0  0  0  0
  159.4340  213.1370  156.2250 N   0  0  0  0  0  0  0  0  0  0  0  0
  157.9880  212.2360  154.0570 C   0  0  0  0  0  3  0  0  0  0  0  0
  160.0900  212.5690  155.1770 C   0  0  0  0  0  3  0  0  0  0  0  0
  155.8550  212.9690  155.1330 C   0  0  0  0  0  1  0  0  0  0  0  0
  162.6450  206.1840  151.5200 C   0  0  0  0  0  2  0  0  0  0  0  0
  161.6440  205.4700  152.4120 C   0  0  0  0  0  2  0  0  0  0  0  0
  161.9040  203.2160  151.6560 O   0  0  0  0  0  1  0  0  0  0  0  0
  161.0200  204.2950  151.6770 C   0  0  2  0  0  3  0  0  0  0  0  0
  160.5520  204.6520  150.2570 C   0  0  0  0  0  2  0  0  0  0  0  0
  160.4730  202.7110  148.8170 O   0  0  0  0  0  1  0  0  0  0  0  0
  161.2060  203.8580  149.1230 C   0  0  0  0  0  3  0  0  0  0  0  0
  161.3640  204.6430  147.9800 O   0  0  0  0  0  1  0  0  0  0  0  0
  1  8  2  0  0  0  0
  1 13  1  0  0  0  0
  2 14  1  1  0  0  0
  2  8  1  0  0  0  0
  3 18  1  0  0  0  0
  3 12  2  0  0  0  0
  4 10  2  0  0  0  0
  4 15  1  0  0  0  0
  5  1  1  0  0  0  0
  6  2  1  0  0  0  0
  7  9  1  0  0  0  0
  7 18  2  0  0  0  0
  8  3  1  0  0  0  0
  9 17  2  0  0  0  0
 11  6  1  0  0  0  0
 11  5  1  0  0  0  0
 12 16  1  0  0  0  0
 13 19  2  0  0  0  0
 16 15  2  0  0  0  0
 16 22  1  0  0  0  0
 17 27  1  0  0  0  0
 17 10  1  0  0  0  0
 18  4  1  0  0  0  0
 19 12  1  0  0  0  0
 20 21  1  0  0  0  0
 22 25  2  0  0  0  0
 23 21  2  0  0  0  0
 24 22  1  0  0  0  0
 24 20  2  0  0  0  0
 25 23  1  0  0  0  0
 26 20  1  0  0  0  0
 27 28  1  0  0  0  0
 30 29  1  6  0  0  0
 30 28  1  0  0  0  0
 31 30  1  0  0  0  0
 32 33  1  0  0  0  0
 33 31  1  0  0  0  0
 34 33  1  0  0  0  0
M  END
>  <MODEL>
9

>  <REMARK>
 VINA RESULT:      -5.6      1.916      6.816
  Name = 
  6 active torsions:
  status: ('A' for Active; 'I' for Inactive)
    1  A    between atoms: C_3  and  C_13
    2  A    between atoms: C_3  and  C_29
    3  A    between atoms: C_12  and  C_28
    4  A    between atoms: C_13  and  C_33
    5  A    between atoms: C_20  and  C_22
    6  A    between atoms: C_22  and  C_33
                            x       y       z     vdW  Elec       q    Type
                         _______ _______ _______ _____ _____    ______ ____

>  <TORSDO>
F 6

$$$$
