=
 OpenBabel11062408293D

 32 37  0  0  1  0  0  0  0  0999 V2000
  161.6420  209.1650  150.2410 C   0  0  0  0  0  0  0  0  0  0  0  0
  161.6090  206.7630  149.3990 C   0  0  1  0  0  3  0  0  0  0  0  0
  161.5490  210.0900  151.2950 C   0  0  0  0  0  3  0  0  0  0  0  0
  161.4510  207.7910  150.5000 C   0  0  0  0  0  0  0  0  0  0  0  0
  161.2760  205.3310  149.8470 C   0  0  1  0  0  3  0  0  0  0  0  0
  160.6550  205.3820  144.7810 C   0  0  0  0  0  3  0  0  0  0  0  0
  160.7590  207.0800  148.1690 C   0  0  0  0  0  2  0  0  0  0  0  0
  161.4880  203.7770  146.3910 C   0  0  0  0  0  3  0  0  0  0  0  0
  161.3840  204.7320  147.4070 C   0  0  0  0  0  0  0  0  0  0  0  0
  161.2500  207.3640  151.8300 C   0  0  0  0  0  0  0  0  0  0  0  0
  161.8490  204.3720  148.7940 C   0  0  0  0  0  2  0  0  0  0  0  0
  161.0830  205.9100  152.1490 C   0  0  0  0  0  2  0  0  0  0  0  0
  161.1510  208.2980  152.8640 C   0  0  0  0  0  3  0  0  0  0  0  0
  160.9370  206.0390  147.0970 C   0  0  0  0  0  0  0  0  0  0  0  0
  161.8080  205.0680  151.1940 N   0  0  0  0  0  0  0  0  0  0  0  0
  161.2990  209.6580  152.5970 C   0  0  0  0  0  3  0  0  0  0  0  0
  161.1210  204.1000  145.0830 C   0  0  0  0  0  3  0  0  0  0  0  0
  160.5600  206.3470  145.7870 C   0  0  0  0  0  3  0  0  0  0  0  0
  161.5820  203.6720  151.5850 C   0  0  0  0  0  2  0  0  0  0  0  0
  160.4890  203.5510  152.4530 O   0  0  0  0  0  1  0  0  0  0  0  0
  161.9280  209.5930  148.9400 O   0  0  0  0  0  0  0  0  0  0  0  0
  162.6550  210.7800  148.6550 C   0  0  0  0  0  2  0  0  0  0  0  0
  160.4240  213.3600  148.9160 C   0  0  2  0  0  0  0  0  0  0  0  0
  159.2080  212.8540  148.1380 C   0  0  0  0  0  1  0  0  0  0  0  0
  162.5710  212.7300  147.1950 C   0  0  2  0  0  3  0  0  0  0  0  0
  161.7570  211.7400  147.9040 C   0  0  2  0  0  3  0  0  0  0  0  0
  161.0990  214.2660  148.1340 O   0  0  0  0  0  0  0  0  0  0  0  0
  161.8850  213.1430  148.5390 C   0  0  1  0  0  0  0  0  0  0  0  0
  162.7830  213.2700  144.8790 O   0  0  0  0  0  1  0  0  0  0  0  0
  161.8490  213.1020  145.9010 C   0  0  0  0  0  2  0  0  0  0  0  0
  160.1710  213.9440  150.2900 C   0  0  0  0  0  2  0  0  0  0  0  0
  159.4720  213.0270  151.0740 O   0  0  0  0  0  1  0  0  0  0  0  0
  1  4  2  0  0  0  0
  1  3  1  0  0  0  0
  2  7  1  6  0  0  0
  2  5  1  0  0  0  0
  2  4  1  0  0  0  0
  3 16  2  0  0  0  0
  4 10  1  0  0  0  0
  5 11  1  6  0  0  0
  5 15  1  0  0  0  0
  6 17  2  0  0  0  0
  6 18  1  0  0  0  0
  8  9  2  0  0  0  0
  9 11  1  0  0  0  0
 10 12  1  0  0  0  0
 10 13  2  0  0  0  0
 14  9  1  0  0  0  0
 14  7  1  0  0  0  0
 15 19  1  0  0  0  0
 15 12  1  0  0  0  0
 16 13  1  0  0  0  0
 17  8  1  0  0  0  0
 18 14  2  0  0  0  0
 19 20  1  0  0  0  0
 21  1  1  0  0  0  0
 22 21  1  0  0  0  0
 23 24  1  6  0  0  0
 23 31  1  0  0  0  0
 25 30  1  6  0  0  0
 25 26  1  0  0  0  0
 25 28  1  0  0  0  0
 26 28  1  0  0  0  0
 26 22  1  1  0  0  0
 27 23  1  0  0  0  0
 28 27  1  6  0  0  0
 28 23  1  0  0  0  0
 29 30  1  0  0  0  0
 31 32  1  0  0  0  0
M  END
>  <MODEL>
1

>  <REMARK>
 VINA RESULT:      -8.6      0.000      0.000
  Name = 
  6 active torsions:
  status: ('A' for Active; 'I' for Inactive)
    1  A    between atoms: C_1  and  O_27
    2  A    between atoms: C_3  and  C_22
    3  A    between atoms: C_13  and  N_29
    4  A    between atoms: C_15  and  C_26
    5  A    between atoms: C_16  and  C_24
    6  A    between atoms: C_24  and  O_27
                            x       y       z     vdW  Elec       q    Type
                         _______ _______ _______ _____ _____    ______ ____

>  <TORSDO>
F 6

$$$$
=
 OpenBabel11062408293D

 32 37  0  0  1  0  0  0  0  0999 V2000
  161.2600  208.3690  151.5270 C   0  0  0  0  0  0  0  0  0  0  0  0
  161.0940  206.3170  150.0290 C   0  0  1  0  0  3  0  0  0  0  0  0
  161.5510  209.7330  151.6990 C   0  0  0  0  0  3  0  0  0  0  0  0
  161.4610  207.7670  150.2660 C   0  0  0  0  0  0  0  0  0  0  0  0
  161.4670  205.8130  148.6260 C   0  0  1  0  0  3  0  0  0  0  0  0
  161.2180  201.6530  151.5740 C   0  0  0  0  0  3  0  0  0  0  0  0
  161.7300  205.3730  151.0510 C   0  0  0  0  0  2  0  0  0  0  0  0
  160.6350  202.1690  149.2810 C   0  0  0  0  0  3  0  0  0  0  0  0
  160.9320  203.5170  149.5020 C   0  0  0  0  0  0  0  0  0  0  0  0
  161.8760  208.5680  149.1810 C   0  0  0  0  0  0  0  0  0  0  0  0
  160.7020  204.5040  148.3870 C   0  0  0  0  0  2  0  0  0  0  0  0
  162.0610  207.9730  147.8180 C   0  0  0  0  0  2  0  0  0  0  0  0
  162.1690  209.9200  149.3730 C   0  0  0  0  0  3  0  0  0  0  0  0
  161.3500  203.9420  150.7850 C   0  0  0  0  0  0  0  0  0  0  0  0
  161.1660  206.8330  147.6080 N   0  0  0  0  0  0  0  0  0  0  0  0
  162.0100  210.5010  150.6300 C   0  0  0  0  0  3  0  0  0  0  0  0
  160.7810  201.2390  150.3130 C   0  0  0  0  0  3  0  0  0  0  0  0
  161.5050  203.0010  151.8070 C   0  0  0  0  0  3  0  0  0  0  0  0
  161.4230  206.3200  146.2570 C   0  0  0  0  0  2  0  0  0  0  0  0
  160.2660  206.3470  145.4680 O   0  0  0  0  0  1  0  0  0  0  0  0
  160.7660  207.6050  152.5890 O   0  0  0  0  0  0  0  0  0  0  0  0
  161.6020  207.0120  153.5740 C   0  0  0  0  0  2  0  0  0  0  0  0
  160.9780  209.8640  155.3560 C   0  0  2  0  0  0  0  0  0  0  0  0
  161.9610  209.7710  156.5240 C   0  0  0  0  0  1  0  0  0  0  0  0
  159.8680  207.2700  155.2670 C   0  0  2  0  0  3  0  0  0  0  0  0
  161.2570  207.5920  154.9290 C   0  0  2  0  0  3  0  0  0  0  0  0
  159.7250  209.5280  155.8080 O   0  0  0  0  0  0  0  0  0  0  0  0
  160.2020  208.7050  154.7410 C   0  0  1  0  0  0  0  0  0  0  0  0
  160.9740  206.5560  157.2580 O   0  0  0  0  0  1  0  0  0  0  0  0
  159.7760  207.0880  156.7810 C   0  0  0  0  0  2  0  0  0  0  0  0
  160.9240  211.1770  154.6010 C   0  0  0  0  0  2  0  0  0  0  0  0
  160.4490  212.1860  155.4370 O   0  0  0  0  0  1  0  0  0  0  0  0
  1  3  1  0  0  0  0
  1 21  1  0  0  0  0
  2  4  1  0  0  0  0
  2  7  1  1  0  0  0
  4  1  2  0  0  0  0
  5 11  1  6  0  0  0
  5  2  1  0  0  0  0
  6 18  1  0  0  0  0
  8  9  2  0  0  0  0
  8 17  1  0  0  0  0
  9 14  1  0  0  0  0
 10 13  2  0  0  0  0
 10  4  1  0  0  0  0
 11  9  1  0  0  0  0
 12 10  1  0  0  0  0
 13 16  1  0  0  0  0
 14  7  1  0  0  0  0
 14 18  2  0  0  0  0
 15 12  1  0  0  0  0
 15  5  1  0  0  0  0
 16  3  2  0  0  0  0
 17  6  2  0  0  0  0
 19 15  1  0  0  0  0
 20 19  1  0  0  0  0
 21 22  1  0  0  0  0
 23 27  1  0  0  0  0
 23 24  1  1  0  0  0
 25 30  1  1  0  0  0
 26 22  1  6  0  0  0
 26 25  1  0  0  0  0
 28 26  1  0  0  0  0
 28 25  1  0  0  0  0
 28 23  1  0  0  0  0
 28 27  1  1  0  0  0
 30 29  1  0  0  0  0
 31 23  1  0  0  0  0
 31 32  1  0  0  0  0
M  END
>  <MODEL>
2

>  <REMARK>
 VINA RESULT:      -8.4      3.155      6.330
  Name = 
  6 active torsions:
  status: ('A' for Active; 'I' for Inactive)
    1  A    between atoms: C_1  and  O_27
    2  A    between atoms: C_3  and  C_22
    3  A    between atoms: C_13  and  N_29
    4  A    between atoms: C_15  and  C_26
    5  A    between atoms: C_16  and  C_24
    6  A    between atoms: C_24  and  O_27
                            x       y       z     vdW  Elec       q    Type
                         _______ _______ _______ _____ _____    ______ ____

>  <TORSDO>
F 6

$$$$
=
 OpenBabel11062408293D

 32 37  0  0  1  0  0  0  0  0999 V2000
  161.9270  208.9710  150.1880 C   0  0  0  0  0  0  0  0  0  0  0  0
  161.6740  206.5890  149.3260 C   0  0  1  0  0  3  0  0  0  0  0  0
  161.8800  209.8980  151.2420 C   0  0  0  0  0  3  0  0  0  0  0  0
  161.5700  207.6260  150.4250 C   0  0  0  0  0  0  0  0  0  0  0  0
  161.1580  205.2020  149.7430 C   0  0  1  0  0  3  0  0  0  0  0  0
  160.8300  205.3320  144.6510 C   0  0  0  0  0  3  0  0  0  0  0  0
  160.9340  207.0010  148.0530 C   0  0  0  0  0  2  0  0  0  0  0  0
  161.3880  203.6410  146.2920 C   0  0  0  0  0  3  0  0  0  0  0  0
  161.3350  204.6000  147.3080 C   0  0  0  0  0  0  0  0  0  0  0  0
  161.2480  207.2220  151.7380 C   0  0  0  0  0  0  0  0  0  0  0  0
  161.6780  204.1870  148.7160 C   0  0  0  0  0  2  0  0  0  0  0  0
  160.9020  205.7950  152.0360 C   0  0  0  0  0  2  0  0  0  0  0  0
  161.1970  208.1590  152.7720 C   0  0  0  0  0  3  0  0  0  0  0  0
  161.0530  205.9490  146.9840 C   0  0  0  0  0  0  0  0  0  0  0  0
  161.5810  204.8790  151.1150 N   0  0  0  0  0  0  0  0  0  0  0  0
  161.5100  209.4950  152.5250 C   0  0  0  0  0  3  0  0  0  0  0  0
  161.1330  204.0050  144.9680 C   0  0  0  0  0  3  0  0  0  0  0  0
  160.7870  206.2990  145.6580 C   0  0  0  0  0  3  0  0  0  0  0  0
  161.1790  203.5160  151.4820 C   0  0  0  0  0  2  0  0  0  0  0  0
  160.6090  203.4750  152.7610 O   0  0  0  0  0  1  0  0  0  0  0  0
  162.3320  209.3660  148.9080 O   0  0  0  0  0  0  0  0  0  0  0  0
  161.5160  210.1390  148.0390 C   0  0  0  0  0  2  0  0  0  0  0  0
  162.1640  213.2110  146.6810 C   0  0  2  0  0  0  0  0  0  0  0  0
  163.4070  213.6770  147.4430 C   0  0  0  0  0  1  0  0  0  0  0  0
  160.4980  212.2400  148.7430 C   0  0  2  0  0  3  0  0  0  0  0  0
  161.7510  211.6080  148.3190 C   0  0  2  0  0  3  0  0  0  0  0  0
  161.0680  213.8700  147.1840 O   0  0  0  0  0  0  0  0  0  0  0  0
  160.9850  212.4460  147.2700 C   0  0  1  0  0  0  0  0  0  0  0  0
  159.7750  213.4940  150.6410 O   0  0  0  0  0  1  0  0  0  0  0  0
  160.8350  213.3400  149.7470 C   0  0  0  0  0  2  0  0  0  0  0  0
  162.1950  213.3290  145.1710 C   0  0  0  0  0  2  0  0  0  0  0  0
  163.4550  212.9710  144.6930 O   0  0  0  0  0  1  0  0  0  0  0  0
  1  4  2  0  0  0  0
  1  3  1  0  0  0  0
  2  7  1  6  0  0  0
  2  5  1  0  0  0  0
  2  4  1  0  0  0  0
  3 16  2  0  0  0  0
  4 10  1  0  0  0  0
  5 11  1  6  0  0  0
  5 15  1  0  0  0  0
  6 17  2  0  0  0  0
  6 18  1  0  0  0  0
  8  9  2  0  0  0  0
  9 11  1  0  0  0  0
 10 12  1  0  0  0  0
 10 13  2  0  0  0  0
 14  9  1  0  0  0  0
 14  7  1  0  0  0  0
 15 19  1  0  0  0  0
 15 12  1  0  0  0  0
 16 13  1  0  0  0  0
 17  8  1  0  0  0  0
 18 14  2  0  0  0  0
 19 20  1  0  0  0  0
 21  1  1  0  0  0  0
 22 21  1  0  0  0  0
 23 27  1  0  0  0  0
 23 28  1  0  0  0  0
 23 24  1  1  0  0  0
 25 30  1  1  0  0  0
 26 22  1  6  0  0  0
 26 25  1  0  0  0  0
 28 27  1  1  0  0  0
 28 26  1  0  0  0  0
 28 25  1  0  0  0  0
 30 29  1  0  0  0  0
 31 23  1  0  0  0  0
 32 31  1  0  0  0  0
M  END
>  <MODEL>
3

>  <REMARK>
 VINA RESULT:      -7.8      0.654      2.418
  Name = 
  6 active torsions:
  status: ('A' for Active; 'I' for Inactive)
    1  A    between atoms: C_1  and  O_27
    2  A    between atoms: C_3  and  C_22
    3  A    between atoms: C_13  and  N_29
    4  A    between atoms: C_15  and  C_26
    5  A    between atoms: C_16  and  C_24
    6  A    between atoms: C_24  and  O_27
                            x       y       z     vdW  Elec       q    Type
                         _______ _______ _______ _____ _____    ______ ____

>  <TORSDO>
F 6

$$$$
=
 OpenBabel11062408293D

 32 37  0  0  1  0  0  0  0  0999 V2000
  161.4370  206.6780  151.7130 C   0  0  0  0  0  0  0  0  0  0  0  0
  161.3820  205.0480  149.7580 C   0  0  1  0  0  3  0  0  0  0  0  0
  161.3260  206.9360  153.0900 C   0  0  0  0  0  3  0  0  0  0  0  0
  161.2060  205.3730  151.2270 C   0  0  0  0  0  0  0  0  0  0  0  0
  161.0010  203.6020  149.4030 C   0  0  1  0  0  3  0  0  0  0  0  0
  160.5670  206.2610  145.0670 C   0  0  0  0  0  3  0  0  0  0  0  0
  160.5850  205.9810  148.8480 C   0  0  0  0  0  2  0  0  0  0  0  0
  161.3050  204.0280  145.6440 C   0  0  0  0  0  3  0  0  0  0  0  0
  161.1850  204.3320  147.0040 C   0  0  0  0  0  0  0  0  0  0  0  0
  160.9470  204.3340  152.1460 C   0  0  0  0  0  0  0  0  0  0  0  0
  161.5900  203.2960  148.0190 C   0  0  0  0  0  2  0  0  0  0  0  0
  160.7360  202.9280  151.6720 C   0  0  0  0  0  2  0  0  0  0  0  0
  160.8320  204.6110  153.5100 C   0  0  0  0  0  3  0  0  0  0  0  0
  160.7780  205.6290  147.3980 C   0  0  0  0  0  0  0  0  0  0  0  0
  161.4770  202.6670  150.4350 N   0  0  0  0  0  0  0  0  0  0  0  0
  161.0190  205.9090  153.9810 C   0  0  0  0  0  3  0  0  0  0  0  0
  160.9930  204.9880  144.6790 C   0  0  0  0  0  3  0  0  0  0  0  0
  160.4560  206.5780  146.4240 C   0  0  0  0  0  3  0  0  0  0  0  0
  161.2060  201.2770  150.0510 C   0  0  0  0  0  2  0  0  0  0  0  0
  159.8500  201.0780  149.7610 O   0  0  0  0  0  1  0  0  0  0  0  0
  161.7800  207.6990  150.8210 O   0  0  0  0  0  0  0  0  0  0  0  0
  162.2750  208.9640  151.2410 C   0  0  0  0  0  2  0  0  0  0  0  0
  161.2320  210.1320  154.2820 C   0  0  2  0  0  0  0  0  0  0  0  0
  159.8370  209.5230  154.4330 C   0  0  0  0  0  1  0  0  0  0  0  0
  161.2000  211.1160  151.6360 C   0  0  2  0  0  3  0  0  0  0  0  0
  161.1850  209.6950  151.9950 C   0  0  2  0  0  3  0  0  0  0  0  0
  161.0990  211.4540  153.9350 O   0  0  0  0  0  0  0  0  0  0  0  0
  161.8400  210.6750  152.9940 C   0  0  1  0  0  0  0  0  0  0  0  0
  159.7360  212.9620  151.2560 O   0  0  0  0  0  1  0  0  0  0  0  0
  159.7640  211.6330  151.6800 C   0  0  0  0  0  2  0  0  0  0  0  0
  162.1770  209.9940  155.4590 C   0  0  0  0  0  2  0  0  0  0  0  0
  161.9570  208.7780  156.1040 O   0  0  0  0  0  1  0  0  0  0  0  0
  1  3  1  0  0  0  0
  2  7  1  6  0  0  0
  2  4  1  0  0  0  0
  3 16  2  0  0  0  0
  4  1  2  0  0  0  0
  4 10  1  0  0  0  0
  5 11  1  6  0  0  0
  5  2  1  0  0  0  0
  5 15  1  0  0  0  0
  6 18  1  0  0  0  0
  8  9  2  0  0  0  0
  9 14  1  0  0  0  0
  9 11  1  0  0  0  0
 10 13  2  0  0  0  0
 12 10  1  0  0  0  0
 13 16  1  0  0  0  0
 14  7  1  0  0  0  0
 15 12  1  0  0  0  0
 17  6  2  0  0  0  0
 17  8  1  0  0  0  0
 18 14  2  0  0  0  0
 19 15  1  0  0  0  0
 20 19  1  0  0  0  0
 21 22  1  0  0  0  0
 21  1  1  0  0  0  0
 23 24  1  6  0  0  0
 23 31  1  0  0  0  0
 25 30  1  1  0  0  0
 25 26  1  0  0  0  0
 25 28  1  0  0  0  0
 26 22  1  6  0  0  0
 26 28  1  0  0  0  0
 27 23  1  0  0  0  0
 28 27  1  1  0  0  0
 28 23  1  0  0  0  0
 29 30  1  0  0  0  0
 31 32  1  0  0  0  0
M  END
>  <MODEL>
4

>  <REMARK>
 VINA RESULT:      -7.7      2.747      4.054
  Name = 
  6 active torsions:
  status: ('A' for Active; 'I' for Inactive)
    1  A    between atoms: C_1  and  O_27
    2  A    between atoms: C_3  and  C_22
    3  A    between atoms: C_13  and  N_29
    4  A    between atoms: C_15  and  C_26
    5  A    between atoms: C_16  and  C_24
    6  A    between atoms: C_24  and  O_27
                            x       y       z     vdW  Elec       q    Type
                         _______ _______ _______ _____ _____    ______ ____

>  <TORSDO>
F 6

$$$$
=
 OpenBabel11062408293D

 32 37  0  0  1  0  0  0  0  0999 V2000
  160.9530  207.5670  152.9550 C   0  0  0  0  0  0  0  0  0  0  0  0
  160.5900  209.9990  152.2970 C   0  0  1  0  0  3  0  0  0  0  0  0
  161.0180  206.5660  153.9380 C   0  0  0  0  0  3  0  0  0  0  0  0
  160.7310  208.9070  153.3370 C   0  0  0  0  0  0  0  0  0  0  0  0
  160.4430  211.4040  152.9020 C   0  0  1  0  0  3  0  0  0  0  0  0
  162.2410  212.1070  148.1770 C   0  0  0  0  0  3  0  0  0  0  0  0
  161.7590  210.0320  151.3120 C   0  0  0  0  0  2  0  0  0  0  0  0
  160.6800  213.2770  149.6100 C   0  0  0  0  0  3  0  0  0  0  0  0
  160.7720  212.2540  150.5580 C   0  0  0  0  0  0  0  0  0  0  0  0
  160.5000  209.2040  154.6970 C   0  0  0  0  0  0  0  0  0  0  0  0
  159.9180  212.3310  151.7970 C   0  0  0  0  0  2  0  0  0  0  0  0
  160.2210  210.6090  155.1360 C   0  0  0  0  0  2  0  0  0  0  0  0
  160.5770  208.1970  155.6620 C   0  0  0  0  0  3  0  0  0  0  0  0
  161.5890  211.1290  150.2960 C   0  0  0  0  0  0  0  0  0  0  0  0
  159.5590  211.3770  154.0780 N   0  0  0  0  0  0  0  0  0  0  0  0
  160.8380  206.8820  155.2840 C   0  0  0  0  0  3  0  0  0  0  0  0
  161.4150  213.2060  148.4250 C   0  0  0  0  0  3  0  0  0  0  0  0
  162.3300  211.0730  149.1130 C   0  0  0  0  0  3  0  0  0  0  0  0
  159.3330  212.7300  154.5990 C   0  0  0  0  0  2  0  0  0  0  0  0
  160.0570  212.9550  155.7770 O   0  0  0  0  0  1  0  0  0  0  0  0
  161.0980  207.2470  151.6010 O   0  0  0  0  0  0  0  0  0  0  0  0
  161.9110  206.1770  151.1380 C   0  0  0  0  0  2  0  0  0  0  0  0
  161.3910  204.3870  148.2690 C   0  0  2  0  0  0  0  0  0  0  0  0
  162.7100  204.5450  147.5120 C   0  0  0  0  0  1  0  0  0  0  0  0
  160.8400  207.0230  149.1170 C   0  0  2  0  0  3  0  0  0  0  0  0
  161.9410  206.2000  149.6240 C   0  0  2  0  0  3  0  0  0  0  0  0
  160.4560  205.2180  147.7010 O   0  0  0  0  0  0  0  0  0  0  0  0
  160.6910  205.4660  149.0890 C   0  0  1  0  0  0  0  0  0  0  0  0
  162.6720  207.9700  147.9150 O   0  0  0  0  0  1  0  0  0  0  0  0
  161.3060  207.7010  147.8300 C   0  0  0  0  0  2  0  0  0  0  0  0
  160.8310  202.9850  148.3980 C   0  0  0  0  0  2  0  0  0  0  0  0
  161.0350  202.2820  147.2120 O   0  0  0  0  0  1  0  0  0  0  0  0
  1  4  2  0  0  0  0
  1  3  1  0  0  0  0
  2  7  1  6  0  0  0
  2  5  1  0  0  0  0
  2  4  1  0  0  0  0
  3 16  2  0  0  0  0
  4 10  1  0  0  0  0
  5 11  1  6  0  0  0
  5 15  1  0  0  0  0
  6 17  2  0  0  0  0
  6 18  1  0  0  0  0
  8  9  2  0  0  0  0
  9 11  1  0  0  0  0
 10 12  1  0  0  0  0
 10 13  2  0  0  0  0
 14  9  1  0  0  0  0
 14  7  1  0  0  0  0
 15 19  1  0  0  0  0
 15 12  1  0  0  0  0
 16 13  1  0  0  0  0
 17  8  1  0  0  0  0
 18 14  2  0  0  0  0
 19 20  1  0  0  0  0
 21  1  1  0  0  0  0
 22 21  1  0  0  0  0
 23 24  1  6  0  0  0
 23 31  1  0  0  0  0
 23 28  1  0  0  0  0
 25 30  1  6  0  0  0
 25 26  1  0  0  0  0
 26 22  1  1  0  0  0
 27 23  1  0  0  0  0
 28 27  1  6  0  0  0
 28 25  1  0  0  0  0
 28 26  1  0  0  0  0
 30 29  1  0  0  0  0
 32 31  1  0  0  0  0
M  END
>  <MODEL>
5

>  <REMARK>
 VINA RESULT:      -7.2      2.756      7.206
  Name = 
  6 active torsions:
  status: ('A' for Active; 'I' for Inactive)
    1  A    between atoms: C_1  and  O_27
    2  A    between atoms: C_3  and  C_22
    3  A    between atoms: C_13  and  N_29
    4  A    between atoms: C_15  and  C_26
    5  A    between atoms: C_16  and  C_24
    6  A    between atoms: C_24  and  O_27
                            x       y       z     vdW  Elec       q    Type
                         _______ _______ _______ _____ _____    ______ ____

>  <TORSDO>
F 6

$$$$
=
 OpenBabel11062408293D

 32 37  0  0  1  0  0  0  0  0999 V2000
  161.1080  206.2410  150.8590 C   0  0  0  0  0  0  0  0  0  0  0  0
  160.9810  208.7420  151.3190 C   0  0  1  0  0  3  0  0  0  0  0  0
  161.2010  204.9180  151.3240 C   0  0  0  0  0  3  0  0  0  0  0  0
  161.1450  207.3090  151.7810 C   0  0  0  0  0  0  0  0  0  0  0  0
  161.1390  209.7710  152.4490 C   0  0  1  0  0  3  0  0  0  0  0  0
  162.1770  212.2830  148.1290 C   0  0  0  0  0  3  0  0  0  0  0  0
  161.9560  209.1170  150.2030 C   0  0  0  0  0  2  0  0  0  0  0  0
  161.0660  212.8320  150.2080 C   0  0  0  0  0  3  0  0  0  0  0  0
  161.1760  211.5030  150.6270 C   0  0  0  0  0  0  0  0  0  0  0  0
  161.1950  207.0220  153.1620 C   0  0  0  0  0  0  0  0  0  0  0  0
  160.5670  211.1020  151.9450 C   0  0  0  0  0  2  0  0  0  0  0  0
  161.1960  208.1280  154.1730 C   0  0  0  0  0  2  0  0  0  0  0  0
  161.2960  205.7010  153.6050 C   0  0  0  0  0  3  0  0  0  0  0  0
  161.7700  210.5460  149.7700 C   0  0  0  0  0  0  0  0  0  0  0  0
  160.4760  209.3030  153.6770 N   0  0  0  0  0  0  0  0  0  0  0  0
  161.3010  204.6520  152.6890 C   0  0  0  0  0  3  0  0  0  0  0  0
  161.5680  213.2220  148.9650 C   0  0  0  0  0  3  0  0  0  0  0  0
  162.2810  210.9490  148.5330 C   0  0  0  0  0  3  0  0  0  0  0  0
  160.5350  210.3250  154.7290 C   0  0  0  0  0  2  0  0  0  0  0  0
  161.8560  210.6010  155.1040 O   0  0  0  0  0  1  0  0  0  0  0  0
  160.9720  206.5090  149.4930 O   0  0  0  0  0  0  0  0  0  0  0  0
  161.9060  206.0680  148.5170 C   0  0  0  0  0  2  0  0  0  0  0  0
  161.5290  204.8530  145.3420 C   0  0  2  0  0  0  0  0  0  0  0  0
  160.0110  204.8190  145.1560 C   0  0  0  0  0  1  0  0  0  0  0  0
  161.8690  203.7100  147.9000 C   0  0  2  0  0  3  0  0  0  0  0  0
  161.2520  205.0150  147.6480 C   0  0  2  0  0  3  0  0  0  0  0  0
  161.9710  203.5740  145.5800 O   0  0  0  0  0  0  0  0  0  0  0  0
  162.2850  204.5050  146.6190 C   0  0  1  0  0  0  0  0  0  0  0  0
  160.6920  201.8970  148.9130 O   0  0  0  0  0  1  0  0  0  0  0  0
  160.7960  202.6350  147.7350 C   0  0  0  0  0  2  0  0  0  0  0  0
  162.3470  205.4890  144.2360 C   0  0  0  0  0  2  0  0  0  0  0  0
  161.5180  205.8280  143.1670 O   0  0  0  0  0  1  0  0  0  0  0  0
  1  3  2  0  0  0  0
  1  4  1  0  0  0  0
  2  7  1  6  0  0  0
  2  4  1  0  0  0  0
  2  5  1  0  0  0  0
  3 16  1  0  0  0  0
  4 10  2  0  0  0  0
  5 11  1  6  0  0  0
  5 15  1  0  0  0  0
  6 18  2  0  0  0  0
  6 17  1  0  0  0  0
  8  9  1  0  0  0  0
  9 11  1  0  0  0  0
 10 13  1  0  0  0  0
 10 12  1  0  0  0  0
 14  7  1  0  0  0  0
 14  9  2  0  0  0  0
 15 12  1  0  0  0  0
 15 19  1  0  0  0  0
 16 13  2  0  0  0  0
 17  8  2  0  0  0  0
 18 14  1  0  0  0  0
 19 20  1  0  0  0  0
 21  1  1  0  0  0  0
 22 21  1  0  0  0  0
 23 24  1  1  0  0  0
 23 27  1  0  0  0  0
 23 28  1  0  0  0  0
 25 30  1  6  0  0  0
 26 25  1  0  0  0  0
 26 22  1  1  0  0  0
 28 27  1  6  0  0  0
 28 26  1  0  0  0  0
 28 25  1  0  0  0  0
 30 29  1  0  0  0  0
 31 23  1  0  0  0  0
 32 31  1  0  0  0  0
M  END
>  <MODEL>
6

>  <REMARK>
 VINA RESULT:      -7.1      2.753      7.314
  Name = 
  6 active torsions:
  status: ('A' for Active; 'I' for Inactive)
    1  A    between atoms: C_1  and  O_27
    2  A    between atoms: C_3  and  C_22
    3  A    between atoms: C_13  and  N_29
    4  A    between atoms: C_15  and  C_26
    5  A    between atoms: C_16  and  C_24
    6  A    between atoms: C_24  and  O_27
                            x       y       z     vdW  Elec       q    Type
                         _______ _______ _______ _____ _____    ______ ____

>  <TORSDO>
F 6

$$$$
=
 OpenBabel11062408293D

 32 37  0  0  1  0  0  0  0  0999 V2000
  161.3170  208.5780  151.1950 C   0  0  0  0  0  0  0  0  0  0  0  0
  161.1840  206.4040  149.8770 C   0  0  1  0  0  3  0  0  0  0  0  0
  161.6130  209.9500  151.2580 C   0  0  0  0  0  3  0  0  0  0  0  0
  161.5530  207.8680  149.9980 C   0  0  0  0  0  0  0  0  0  0  0  0
  161.5970  205.7790  148.5340 C   0  0  1  0  0  3  0  0  0  0  0  0
  161.2250  201.8920  151.8220 C   0  0  0  0  0  3  0  0  0  0  0  0
  161.7800  205.5500  150.9960 C   0  0  0  0  0  2  0  0  0  0  0  0
  160.7180  202.2100  149.4760 C   0  0  0  0  0  3  0  0  0  0  0  0
  161.0180  203.5710  149.5880 C   0  0  0  0  0  0  0  0  0  0  0  0
  162.0080  208.5700  148.8620 C   0  0  0  0  0  0  0  0  0  0  0  0
  160.8300  204.4580  148.3850 C   0  0  0  0  0  2  0  0  0  0  0  0
  162.2320  207.8580  147.5620 C   0  0  0  0  0  2  0  0  0  0  0  0
  162.3050  209.9320  148.9460 C   0  0  0  0  0  3  0  0  0  0  0  0
  161.3980  204.1030  150.8430 C   0  0  0  0  0  0  0  0  0  0  0  0
  161.3350  206.7080  147.4240 N   0  0  0  0  0  0  0  0  0  0  0  0
  162.1100  210.6200  150.1420 C   0  0  0  0  0  3  0  0  0  0  0  0
  160.8250  201.3720  150.5890 C   0  0  0  0  0  3  0  0  0  0  0  0
  161.5140  203.2540  151.9470 C   0  0  0  0  0  3  0  0  0  0  0  0
  161.6320  206.0790  146.1310 C   0  0  0  0  0  2  0  0  0  0  0  0
  160.4830  205.9730  145.3360 O   0  0  0  0  0  1  0  0  0  0  0  0
  160.7850  207.9110  152.3030 O   0  0  0  0  0  0  0  0  0  0  0  0
  161.5160  207.6870  153.5010 C   0  0  0  0  0  2  0  0  0  0  0  0
  161.9740  209.9390  156.0350 C   0  0  2  0  0  0  0  0  0  0  0  0
  161.4180  209.2090  157.2590 C   0  0  0  0  0  1  0  0  0  0  0  0
  159.9840  209.4910  154.0840 C   0  0  2  0  0  3  0  0  0  0  0  0
  160.8600  208.4520  154.6300 C   0  0  2  0  0  3  0  0  0  0  0  0
  161.0520  210.8700  155.6220 O   0  0  0  0  0  0  0  0  0  0  0  0
  161.3920  209.9030  154.6260 C   0  0  1  0  0  0  0  0  0  0  0  0
  158.1220  210.8410  154.7230 O   0  0  0  0  0  1  0  0  0  0  0  0
  158.7970  209.6590  155.0300 C   0  0  0  0  0  2  0  0  0  0  0  0
  163.3380  210.5830  156.1750 C   0  0  0  0  0  2  0  0  0  0  0  0
  163.3400  211.4580  157.2610 O   0  0  0  0  0  1  0  0  0  0  0  0
  1  3  1  0  0  0  0
  1 21  1  0  0  0  0
  2  4  1  0  0  0  0
  2  7  1  1  0  0  0
  4  1  2  0  0  0  0
  5 11  1  6  0  0  0
  5  2  1  0  0  0  0
  6 18  1  0  0  0  0
  8  9  2  0  0  0  0
  8 17  1  0  0  0  0
  9 14  1  0  0  0  0
 10 13  2  0  0  0  0
 10  4  1  0  0  0  0
 11  9  1  0  0  0  0
 12 10  1  0  0  0  0
 13 16  1  0  0  0  0
 14  7  1  0  0  0  0
 14 18  2  0  0  0  0
 15 12  1  0  0  0  0
 15  5  1  0  0  0  0
 16  3  2  0  0  0  0
 17  6  2  0  0  0  0
 19 15  1  0  0  0  0
 20 19  1  0  0  0  0
 21 22  1  0  0  0  0
 23 31  1  0  0  0  0
 23 24  1  1  0  0  0
 25 28  1  0  0  0  0
 25 26  1  0  0  0  0
 25 30  1  1  0  0  0
 26 22  1  6  0  0  0
 27 23  1  0  0  0  0
 28 26  1  0  0  0  0
 28 27  1  1  0  0  0
 28 23  1  0  0  0  0
 29 30  1  0  0  0  0
 31 32  1  0  0  0  0
M  END
>  <MODEL>
7

>  <REMARK>
 VINA RESULT:      -6.9      3.107      6.043
  Name = 
  6 active torsions:
  status: ('A' for Active; 'I' for Inactive)
    1  A    between atoms: C_1  and  O_27
    2  A    between atoms: C_3  and  C_22
    3  A    between atoms: C_13  and  N_29
    4  A    between atoms: C_15  and  C_26
    5  A    between atoms: C_16  and  C_24
    6  A    between atoms: C_24  and  O_27
                            x       y       z     vdW  Elec       q    Type
                         _______ _______ _______ _____ _____    ______ ____

>  <TORSDO>
F 6

$$$$
=
 OpenBabel11062408293D

 32 37  0  0  1  0  0  0  0  0999 V2000
  161.4300  206.2180  152.5240 C   0  0  0  0  0  0  0  0  0  0  0  0
  161.7620  207.5990  150.4110 C   0  0  1  0  0  3  0  0  0  0  0  0
  161.1380  204.9930  153.1470 C   0  0  0  0  0  3  0  0  0  0  0  0
  161.3880  206.3120  151.1160 C   0  0  0  0  0  0  0  0  0  0  0  0
  161.5690  207.5400  148.8880 C   0  0  1  0  0  3  0  0  0  0  0  0
  161.3740  212.4890  150.1220 C   0  0  0  0  0  3  0  0  0  0  0  0
  160.9860  208.8070  150.9360 C   0  0  0  0  0  2  0  0  0  0  0  0
  162.2580  211.2190  148.2610 C   0  0  0  0  0  3  0  0  0  0  0  0
  161.9540  210.0250  148.9210 C   0  0  0  0  0  0  0  0  0  0  0  0
  161.1290  205.1510  150.3580 C   0  0  0  0  0  0  0  0  0  0  0  0
  162.3410  208.7190  148.2780 C   0  0  0  0  0  2  0  0  0  0  0  0
  161.1150  205.2030  148.8600 C   0  0  0  0  0  2  0  0  0  0  0  0
  160.8320  203.9440  150.9950 C   0  0  0  0  0  3  0  0  0  0  0  0
  161.3780  210.0670  150.2130 C   0  0  0  0  0  0  0  0  0  0  0  0
  162.0140  206.2430  148.3550 N   0  0  0  0  0  0  0  0  0  0  0  0
  160.8340  203.8650  152.3860 C   0  0  0  0  0  3  0  0  0  0  0  0
  161.9660  212.4470  148.8580 C   0  0  0  0  0  3  0  0  0  0  0  0
  161.0770  211.3010  150.7960 C   0  0  0  0  0  3  0  0  0  0  0  0
  161.9290  206.2180  146.8900 C   0  0  0  0  0  2  0  0  0  0  0  0
  160.6030  206.0950  146.4550 O   0  0  0  0  0  1  0  0  0  0  0  0
  161.7710  207.3420  153.2840 O   0  0  0  0  0  0  0  0  0  0  0  0
  161.0580  207.7370  154.4480 C   0  0  0  0  0  2  0  0  0  0  0  0
  159.5130  210.7180  155.1000 C   0  0  2  0  0  0  0  0  0  0  0  0
  159.9930  211.6200  153.9620 C   0  0  0  0  0  1  0  0  0  0  0  0
  161.8950  209.4650  155.9500 C   0  0  2  0  0  3  0  0  0  0  0  0
  161.2440  209.2240  154.6600 C   0  0  2  0  0  3  0  0  0  0  0  0
  160.2090  211.0410  156.2400 O   0  0  0  0  0  0  0  0  0  0  0  0
  160.3490  209.6770  155.8350 C   0  0  1  0  0  0  0  0  0  0  0  0
  163.5390  210.8610  156.9740 O   0  0  0  0  0  1  0  0  0  0  0  0
  162.7800  210.7030  155.8140 C   0  0  0  0  0  2  0  0  0  0  0  0
  158.0250  210.7000  155.3870 C   0  0  0  0  0  2  0  0  0  0  0  0
  157.3800  211.6570  154.6040 O   0  0  0  0  0  1  0  0  0  0  0  0
  1  3  1  0  0  0  0
  1 21  1  0  0  0  0
  2  7  1  1  0  0  0
  2  4  1  0  0  0  0
  4  1  2  0  0  0  0
  5 11  1  6  0  0  0
  5  2  1  0  0  0  0
  6 18  1  0  0  0  0
  8 17  1  0  0  0  0
  8  9  2  0  0  0  0
  9 14  1  0  0  0  0
 10 13  2  0  0  0  0
 10  4  1  0  0  0  0
 11  9  1  0  0  0  0
 12 10  1  0  0  0  0
 13 16  1  0  0  0  0
 14 18  2  0  0  0  0
 14  7  1  0  0  0  0
 15 12  1  0  0  0  0
 15  5  1  0  0  0  0
 16  3  2  0  0  0  0
 17  6  2  0  0  0  0
 19 15  1  0  0  0  0
 20 19  1  0  0  0  0
 21 22  1  0  0  0  0
 23 24  1  6  0  0  0
 23 31  1  0  0  0  0
 23 28  1  0  0  0  0
 23 27  1  0  0  0  0
 25 30  1  6  0  0  0
 26 22  1  1  0  0  0
 26 28  1  0  0  0  0
 26 25  1  0  0  0  0
 28 25  1  0  0  0  0
 28 27  1  6  0  0  0
 30 29  1  0  0  0  0
 32 31  1  0  0  0  0
M  END
>  <MODEL>
8

>  <REMARK>
 VINA RESULT:      -6.9      2.845      6.430
  Name = 
  6 active torsions:
  status: ('A' for Active; 'I' for Inactive)
    1  A    between atoms: C_1  and  O_27
    2  A    between atoms: C_3  and  C_22
    3  A    between atoms: C_13  and  N_29
    4  A    between atoms: C_15  and  C_26
    5  A    between atoms: C_16  and  C_24
    6  A    between atoms: C_24  and  O_27
                            x       y       z     vdW  Elec       q    Type
                         _______ _______ _______ _____ _____    ______ ____

>  <TORSDO>
F 6

$$$$
=
 OpenBabel11062408293D

 32 37  0  0  1  0  0  0  0  0999 V2000
  161.4920  208.0120  148.5670 C   0  0  0  0  0  0  0  0  0  0  0  0
  161.1710  207.4530  151.0300 C   0  0  1  0  0  3  0  0  0  0  0  0
  161.7220  207.6030  147.2430 C   0  0  0  0  0  3  0  0  0  0  0  0
  161.4810  207.0530  149.6020 C   0  0  0  0  0  0  0  0  0  0  0  0
  161.2940  206.2920  152.0300 C   0  0  1  0  0  3  0  0  0  0  0  0
  161.8970  210.5570  154.7690 C   0  0  0  0  0  3  0  0  0  0  0  0
  162.0540  208.5970  151.5280 C   0  0  0  0  0  2  0  0  0  0  0  0
  160.8450  208.4090  155.1470 C   0  0  0  0  0  3  0  0  0  0  0  0
  161.0910  208.0470  153.8190 C   0  0  0  0  0  0  0  0  0  0  0  0
  161.6240  205.6880  149.2750 C   0  0  0  0  0  0  0  0  0  0  0  0
  160.5850  206.7180  153.3220 C   0  0  0  0  0  2  0  0  0  0  0  0
  161.5790  204.6370  150.3420 C   0  0  0  0  0  2  0  0  0  0  0  0
  161.8610  205.3000  147.9540 C   0  0  0  0  0  3  0  0  0  0  0  0
  161.7230  208.9660  152.9480 C   0  0  0  0  0  0  0  0  0  0  0  0
  160.7350  205.0540  151.4650 N   0  0  0  0  0  0  0  0  0  0  0  0
  161.9120  206.2550  146.9410 C   0  0  0  0  0  3  0  0  0  0  0  0
  161.2500  209.6590  155.6220 C   0  0  0  0  0  3  0  0  0  0  0  0
  162.1350  210.2090  153.4370 C   0  0  0  0  0  3  0  0  0  0  0  0
  160.7570  203.9680  152.4520 C   0  0  0  0  0  2  0  0  0  0  0  0
  161.2280  202.7730  151.8910 O   0  0  0  0  0  1  0  0  0  0  0  0
  161.2660  209.3600  148.8680 O   0  0  0  0  0  0  0  0  0  0  0  0
  162.2290  210.3790  148.6410 C   0  0  0  0  0  2  0  0  0  0  0  0
  160.3830  213.2280  149.0590 C   0  0  2  0  0  0  0  0  0  0  0  0
  159.1880  213.0130  148.1290 C   0  0  0  0  0  1  0  0  0  0  0  0
  162.5730  212.4750  147.4450 C   0  0  2  0  0  3  0  0  0  0  0  0
  161.5580  211.5490  147.9540 C   0  0  2  0  0  3  0  0  0  0  0  0
  161.2560  214.1030  148.4580 O   0  0  0  0  0  0  0  0  0  0  0  0
  161.8270  212.8310  148.7730 C   0  0  1  0  0  0  0  0  0  0  0  0
  163.0530  213.1220  145.1980 O   0  0  0  0  0  1  0  0  0  0  0  0
  162.0420  213.1040  146.1580 C   0  0  0  0  0  2  0  0  0  0  0  0
  160.0850  213.6810  150.4740 C   0  0  0  0  0  2  0  0  0  0  0  0
  158.8510  213.1770  150.8830 O   0  0  0  0  0  1  0  0  0  0  0  0
  1 21  1  0  0  0  0
  1  4  1  0  0  0  0
  2  7  1  1  0  0  0
  2  5  1  0  0  0  0
  3  1  2  0  0  0  0
  4  2  1  0  0  0  0
  5 11  1  1  0  0  0
  6 17  1  0  0  0  0
  7 14  1  0  0  0  0
  8 17  2  0  0  0  0
  9  8  1  0  0  0  0
 10  4  2  0  0  0  0
 10 12  1  0  0  0  0
 11  9  1  0  0  0  0
 12 15  1  0  0  0  0
 13 10  1  0  0  0  0
 14 18  1  0  0  0  0
 14  9  2  0  0  0  0
 15  5  1  0  0  0  0
 15 19  1  0  0  0  0
 16  3  1  0  0  0  0
 16 13  2  0  0  0  0
 18  6  2  0  0  0  0
 20 19  1  0  0  0  0
 22 21  1  0  0  0  0
 23 24  1  6  0  0  0
 23 31  1  0  0  0  0
 25 30  1  6  0  0  0
 25 26  1  0  0  0  0
 25 28  1  0  0  0  0
 26 22  1  1  0  0  0
 26 28  1  0  0  0  0
 27 23  1  0  0  0  0
 28 27  1  6  0  0  0
 28 23  1  0  0  0  0
 29 30  1  0  0  0  0
 31 32  1  0  0  0  0
M  END
>  <MODEL>
9

>  <REMARK>
 VINA RESULT:      -6.7      1.167      4.739
  Name = 
  6 active torsions:
  status: ('A' for Active; 'I' for Inactive)
    1  A    between atoms: C_1  and  O_27
    2  A    between atoms: C_3  and  C_22
    3  A    between atoms: C_13  and  N_29
    4  A    between atoms: C_15  and  C_26
    5  A    between atoms: C_16  and  C_24
    6  A    between atoms: C_24  and  O_27
                            x       y       z     vdW  Elec       q    Type
                         _______ _______ _______ _____ _____    ______ ____

>  <TORSDO>
F 6

$$$$
