=
 OpenBabel11062408063D

 34 38  0  0  1  0  0  0  0  0999 V2000
  160.9840  209.4510  152.6540 N   0  0  0  0  0  0  0  0  0  0  0  0
  160.9430  210.4770  154.8450 C   0  0  2  0  0  3  0  0  0  0  0  0
  161.2620  208.4220  153.6540 C   0  0  1  0  0  3  0  0  0  0  0  0
  160.8680  208.9720  155.0080 C   0  0  1  0  0  3  0  0  0  0  0  0
  160.6740  210.6940  153.3650 C   0  0  2  0  0  3  0  0  0  0  0  0
  162.2230  210.9580  155.1390 O   0  0  0  0  0  1  0  0  0  0  0  0
  157.8310  211.0020  155.2620 C   0  0  2  0  0  3  0  0  0  0  0  0
  157.7390  212.7910  153.6150 C   0  0  2  0  0  3  0  0  0  0  0  0
  159.2120  211.0830  153.1290 C   0  0  2  0  0  3  0  0  0  0  0  0
  157.1470  213.3900  156.0160 C   0  0  0  0  0  2  0  0  0  0  0  0
  157.3510  213.9080  154.5750 C   0  0  0  0  0  2  0  0  0  0  0  0
  159.1040  212.1150  152.0060 C   0  0  0  0  0  2  0  0  0  0  0  0
  158.6600  211.8380  154.2980 C   0  0  2  0  0  3  0  0  0  0  0  0
  156.9700  211.8580  156.1550 C   0  0  2  0  0  3  0  0  0  0  0  0
  158.1910  211.3020  156.5890 O   0  0  0  0  0  0  0  0  0  0  0  0
  158.3910  213.2440  152.4660 O   0  0  0  0  0  0  0  0  0  0  0  0
  161.7590  208.4230  156.1210 C   0  0  0  0  0  2  0  0  0  0  0  0
  160.9230  207.8620  157.2570 C   0  0  0  0  0  2  0  0  0  0  0  0
  159.9310  207.0230  156.7490 O   0  0  0  0  0  1  0  0  0  0  0  0
  162.2160  209.6810  151.9140 C   0  0  0  0  0  2  0  0  0  0  0  0
  161.9390  209.6190  150.4250 C   0  0  0  0  0  2  0  0  0  0  0  0
  161.3540  207.7840  148.9360 C   0  0  0  0  0  3  0  0  0  0  0  0
  162.0820  208.2180  149.9560 C   0  0  0  0  0  3  0  0  0  0  0  0
  160.2650  205.4300  150.2000 O   0  0  0  0  0  0  0  0  0  0  0  0
  161.4630  206.4410  148.4550 N   0  0  0  0  0  0  0  0  0  0  0  0
  160.9080  205.3270  149.1200 C   0  0  0  0  0  0  0  0  0  0  0  0
  160.6450  202.8150  148.9900 C   0  0  0  0  0  1  0  0  0  0  0  0
  161.8910  204.1940  147.2470 C   0  0  0  0  0  2  0  0  0  0  0  0
  162.3020  205.9710  146.9680 S   0  0  0  0  0  0  0  0  0  0  0  0
  161.1270  204.0860  148.4790 N   0  0  0  0  0  0  0  0  0  0  0  0
  160.4550  207.1730  153.3310 C   0  0  0  0  0  2  0  0  0  0  0  0
  161.2860  205.9270  153.5680 C   0  0  0  0  0  2  0  0  0  0  0  0
  162.4820  205.9530  152.6810 C   0  0  0  0  0  3  0  0  0  0  0  0
  162.6990  205.0230  151.9220 O   0  0  0  0  0  0  0  0  0  0  0  0
  1  3  1  0  0  0  0
  2  4  1  0  0  0  0
  2  6  1  6  0  0  0
  3 31  1  6  0  0  0
  3  4  1  0  0  0  0
  4 17  1  1  0  0  0
  5  1  1  6  0  0  0
  5  2  1  0  0  0  0
  7 14  1  0  0  0  0
  7 15  1  1  0  0  0
  8 13  1  0  0  0  0
  8 11  1  1  0  0  0
  9 12  1  6  0  0  0
  9  5  1  0  0  0  0
  9 13  1  0  0  0  0
 10 14  1  0  0  0  0
 11 10  1  0  0  0  0
 12 16  1  0  0  0  0
 13  7  1  0  0  0  0
 14 15  1  0  0  0  0
 16  8  1  0  0  0  0
 17 18  1  0  0  0  0
 19 18  1  0  0  0  0
 20  1  1  0  0  0  0
 21 20  1  0  0  0  0
 22 23  2  0  0  0  0
 23 21  1  0  0  0  0
 25 22  1  0  0  0  0
 25 26  1  0  0  0  0
 26 24  2  0  0  0  0
 28 30  1  0  0  0  0
 29 28  1  0  0  0  0
 29 25  1  0  0  0  0
 30 27  1  0  0  0  0
 30 26  1  0  0  0  0
 31 32  1  0  0  0  0
 33 32  1  0  0  0  0
 34 33  2  0  0  0  0
M  END
>  <MODEL>
1

>  <REMARK>
 VINA RESULT:      -6.6      0.000      0.000
  Name = 
  10 active torsions:
  status: ('A' for Active; 'I' for Inactive)
    1  A    between atoms: C_3  and  N_13
    2  A    between atoms: C_4  and  C_31
    3  A    between atoms: N_5  and  C_18
    4  A    between atoms: C_7  and  C_8
    5  A    between atoms: C_8  and  C_28
    6  A    between atoms: C_12  and  C_16
    7  A    between atoms: C_16  and  C_23
    8  A    between atoms: C_17  and  C_29
    9  A    between atoms: C_18  and  C_29
   10  A    between atoms: C_23  and  C_26
                            x       y       z     vdW  Elec       q    Type
                         _______ _______ _______ _____ _____    ______ ____

>  <TORSDO>
F 10

$$$$
=
 OpenBabel11062408063D

 34 38  0  0  1  0  0  0  0  0999 V2000
  161.5540  207.6750  150.5700 N   0  0  0  0  0  0  0  0  0  0  0  0
  161.8100  206.2370  152.4990 C   0  0  2  0  0  3  0  0  0  0  0  0
  161.3430  206.2910  150.1490 C   0  0  1  0  0  3  0  0  0  0  0  0
  161.1300  205.4550  151.3940 C   0  0  1  0  0  3  0  0  0  0  0  0
  161.7300  207.6790  152.0250 C   0  0  2  0  0  3  0  0  0  0  0  0
  163.1580  205.8830  152.6190 O   0  0  0  0  0  1  0  0  0  0  0  0
  160.1960  207.6570  155.0950 C   0  0  2  0  0  3  0  0  0  0  0  0
  160.1670  209.9710  154.3430 C   0  0  2  0  0  3  0  0  0  0  0  0
  160.5610  208.4070  152.6930 C   0  0  2  0  0  3  0  0  0  0  0  0
  160.8280  209.5440  156.7620 C   0  0  0  0  0  2  0  0  0  0  0  0
  160.6400  210.5970  155.6480 C   0  0  0  0  0  2  0  0  0  0  0  0
  160.4310  209.8300  152.1470 C   0  0  0  0  0  2  0  0  0  0  0  0
  160.8390  208.6550  154.1430 C   0  0  2  0  0  3  0  0  0  0  0  0
  160.1470  208.1760  156.5090 C   0  0  2  0  0  3  0  0  0  0  0  0
  161.1270  207.2610  156.0730 O   0  0  0  0  0  0  0  0  0  0  0  0
  160.4430  210.7510  153.2180 O   0  0  0  0  0  0  0  0  0  0  0  0
  161.6660  204.0350  151.2180 C   0  0  0  0  0  2  0  0  0  0  0  0
  160.5460  203.0740  150.8610 C   0  0  0  0  0  2  0  0  0  0  0  0
  160.9450  202.2470  149.8110 O   0  0  0  0  0  1  0  0  0  0  0  0
  162.8120  208.1170  149.9890 C   0  0  0  0  0  2  0  0  0  0  0  0
  162.5640  208.6970  148.6100 C   0  0  0  0  0  2  0  0  0  0  0  0
  161.9790  211.0400  148.3020 C   0  0  0  0  0  3  0  0  0  0  0  0
  161.6160  209.8340  148.7170 C   0  0  0  0  0  3  0  0  0  0  0  0
  160.4410  212.1640  146.1350 O   0  0  0  0  0  0  0  0  0  0  0  0
  161.0940  212.1600  148.3880 N   0  0  0  0  0  0  0  0  0  0  0  0
  160.3660  212.6650  147.2890 C   0  0  0  0  0  0  0  0  0  0  0  0
  158.7140  214.4530  146.6040 C   0  0  0  0  0  1  0  0  0  0  0  0
  159.6080  214.1940  148.9770 C   0  0  0  0  0  2  0  0  0  0  0  0
  160.7740  213.0770  149.8690 S   0  0  0  0  0  0  0  0  0  0  0  0
  159.5450  213.7780  147.5850 N   0  0  0  0  0  0  0  0  0  0  0  0
  160.1220  206.2200  149.2440 C   0  0  0  0  0  2  0  0  0  0  0  0
  160.5410  206.1920  147.7880 C   0  0  0  0  0  2  0  0  0  0  0  0
  161.3490  204.9690  147.5280 C   0  0  0  0  0  3  0  0  0  0  0  0
  162.3490  205.0350  146.8320 O   0  0  0  0  0  0  0  0  0  0  0  0
  2  6  1  6  0  0  0
  3 31  1  6  0  0  0
  3  1  1  0  0  0  0
  3  4  1  0  0  0  0
  4 17  1  6  0  0  0
  4  2  1  0  0  0  0
  5  1  1  6  0  0  0
  5  2  1  0  0  0  0
  5  9  1  0  0  0  0
  7 15  1  1  0  0  0
  7 14  1  0  0  0  0
  8 11  1  1  0  0  0
  9 12  1  6  0  0  0
  9 13  1  0  0  0  0
 11 10  1  0  0  0  0
 12 16  1  0  0  0  0
 13  8  1  0  0  0  0
 13  7  1  0  0  0  0
 14 10  1  0  0  0  0
 15 14  1  0  0  0  0
 16  8  1  0  0  0  0
 18 17  1  0  0  0  0
 19 18  1  0  0  0  0
 20  1  1  0  0  0  0
 21 23  1  0  0  0  0
 21 20  1  0  0  0  0
 22 25  1  0  0  0  0
 22 23  2  0  0  0  0
 24 26  2  0  0  0  0
 25 29  1  0  0  0  0
 26 30  1  0  0  0  0
 26 25  1  0  0  0  0
 27 30  1  0  0  0  0
 28 29  1  0  0  0  0
 30 28  1  0  0  0  0
 32 31  1  0  0  0  0
 33 32  1  0  0  0  0
 34 33  2  0  0  0  0
M  END
>  <MODEL>
2

>  <REMARK>
 VINA RESULT:      -5.9      3.168      5.866
  Name = 
  10 active torsions:
  status: ('A' for Active; 'I' for Inactive)
    1  A    between atoms: C_3  and  N_13
    2  A    between atoms: C_4  and  C_31
    3  A    between atoms: N_5  and  C_18
    4  A    between atoms: C_7  and  C_8
    5  A    between atoms: C_8  and  C_28
    6  A    between atoms: C_12  and  C_16
    7  A    between atoms: C_16  and  C_23
    8  A    between atoms: C_17  and  C_29
    9  A    between atoms: C_18  and  C_29
   10  A    between atoms: C_23  and  C_26
                            x       y       z     vdW  Elec       q    Type
                         _______ _______ _______ _____ _____    ______ ____

>  <TORSDO>
F 10

$$$$
=
 OpenBabel11062408063D

 34 38  0  0  1  0  0  0  0  0999 V2000
  160.9320  209.7480  153.6310 N   0  0  0  0  0  0  0  0  0  0  0  0
  161.1430  207.3970  154.1640 C   0  0  2  0  0  3  0  0  0  0  0  0
  161.4180  209.6250  155.0040 C   0  0  1  0  0  3  0  0  0  0  0  0
  161.9000  208.2030  155.2000 C   0  0  1  0  0  3  0  0  0  0  0  0
  160.8640  208.4010  153.0580 C   0  0  2  0  0  3  0  0  0  0  0  0
  159.9210  206.9400  154.6690 O   0  0  0  0  0  1  0  0  0  0  0  0
  161.7070  206.0210  150.7330 C   0  0  2  0  0  3  0  0  0  0  0  0
  161.9620  208.1710  149.6210 C   0  0  2  0  0  3  0  0  0  0  0  0
  161.8840  208.2600  151.9250 C   0  0  2  0  0  3  0  0  0  0  0  0
  160.7890  206.3240  148.3230 C   0  0  0  0  0  2  0  0  0  0  0  0
  161.2400  207.8010  148.3320 C   0  0  0  0  0  2  0  0  0  0  0  0
  162.1690  209.6200  151.2850 C   0  0  0  0  0  2  0  0  0  0  0  0
  161.3110  207.4900  150.7770 C   0  0  2  0  0  3  0  0  0  0  0  0
  161.4680  205.4120  149.3750 C   0  0  2  0  0  3  0  0  0  0  0  0
  160.5780  205.2290  150.4530 O   0  0  0  0  0  0  0  0  0  0  0  0
  161.9550  209.5410  149.8910 O   0  0  0  0  0  0  0  0  0  0  0  0
  161.6860  207.7270  156.6360 C   0  0  0  0  0  2  0  0  0  0  0  0
  160.2880  208.0720  157.1170 C   0  0  0  0  0  2  0  0  0  0  0  0
  159.5330  206.9080  157.2600 O   0  0  0  0  0  1  0  0  0  0  0  0
  159.5680  210.2510  153.6970 C   0  0  0  0  0  2  0  0  0  0  0  0
  159.5770  211.7660  153.6240 C   0  0  0  0  0  2  0  0  0  0  0  0
  159.8630  212.8490  151.4630 C   0  0  0  0  0  3  0  0  0  0  0  0
  159.0660  212.1970  152.2990 C   0  0  0  0  0  3  0  0  0  0  0  0
  161.4250  212.9140  149.0380 O   0  0  0  0  0  0  0  0  0  0  0  0
  159.4070  213.2810  150.1770 N   0  0  0  0  0  0  0  0  0  0  0  0
  160.2220  213.2900  149.0240 C   0  0  0  0  0  0  0  0  0  0  0  0
  160.2330  213.8440  146.5570 C   0  0  0  0  0  1  0  0  0  0  0  0
  158.1940  214.1350  148.0590 C   0  0  0  0  0  2  0  0  0  0  0  0
  157.7710  213.8640  149.8340 S   0  0  0  0  0  0  0  0  0  0  0  0
  159.5810  213.7520  147.8510 N   0  0  0  0  0  0  0  0  0  0  0  0
  162.5560  210.6100  155.2270 C   0  0  0  0  0  2  0  0  0  0  0  0
  162.5910  211.0630  156.6730 C   0  0  0  0  0  2  0  0  0  0  0  0
  161.2310  211.5050  157.0870 C   0  0  0  0  0  3  0  0  0  0  0  0
  160.8070  212.5910  156.7280 O   0  0  0  0  0  0  0  0  0  0  0  0
  1 20  1  0  0  0  0
  1  3  1  0  0  0  0
  2  6  1  1  0  0  0
  2  4  1  0  0  0  0
  3  4  1  0  0  0  0
  3 31  1  6  0  0  0
  4 17  1  1  0  0  0
  5  1  1  1  0  0  0
  5  2  1  0  0  0  0
  7 15  1  1  0  0  0
  7 13  1  0  0  0  0
  8 11  1  6  0  0  0
  8 16  1  0  0  0  0
  8 13  1  0  0  0  0
  9 12  1  6  0  0  0
  9  5  1  0  0  0  0
 10 11  1  0  0  0  0
 10 14  1  0  0  0  0
 13  9  1  0  0  0  0
 14 15  1  0  0  0  0
 14  7  1  0  0  0  0
 16 12  1  0  0  0  0
 17 18  1  0  0  0  0
 18 19  1  0  0  0  0
 21 20  1  0  0  0  0
 22 23  2  0  0  0  0
 23 21  1  0  0  0  0
 25 22  1  0  0  0  0
 26 24  2  0  0  0  0
 26 25  1  0  0  0  0
 27 30  1  0  0  0  0
 28 29  1  0  0  0  0
 29 25  1  0  0  0  0
 30 28  1  0  0  0  0
 30 26  1  0  0  0  0
 31 32  1  0  0  0  0
 32 33  1  0  0  0  0
 34 33  2  0  0  0  0
M  END
>  <MODEL>
3

>  <REMARK>
 VINA RESULT:      -5.0      3.029      6.773
  Name = 
  10 active torsions:
  status: ('A' for Active; 'I' for Inactive)
    1  A    between atoms: C_3  and  N_13
    2  A    between atoms: C_4  and  C_31
    3  A    between atoms: N_5  and  C_18
    4  A    between atoms: C_7  and  C_8
    5  A    between atoms: C_8  and  C_28
    6  A    between atoms: C_12  and  C_16
    7  A    between atoms: C_16  and  C_23
    8  A    between atoms: C_17  and  C_29
    9  A    between atoms: C_18  and  C_29
   10  A    between atoms: C_23  and  C_26
                            x       y       z     vdW  Elec       q    Type
                         _______ _______ _______ _____ _____    ______ ____

>  <TORSDO>
F 10

$$$$
=
 OpenBabel11062408063D

 34 38  0  0  1  0  0  0  0  0999 V2000
  159.5810  209.4910  154.9240 N   0  0  0  0  0  0  0  0  0  0  0  0
  161.2700  211.2170  154.7710 C   0  0  2  0  0  3  0  0  0  0  0  0
  159.2740  210.5310  155.9050 C   0  0  1  0  0  3  0  0  0  0  0  0
  160.0900  211.7560  155.5540 C   0  0  1  0  0  3  0  0  0  0  0  0
  160.7340  209.9420  154.1400 C   0  0  2  0  0  3  0  0  0  0  0  0
  162.3320  210.8820  155.6170 O   0  0  0  0  0  1  0  0  0  0  0  0
  158.4200  211.8680  152.4930 C   0  0  2  0  0  3  0  0  0  0  0  0
  160.4020  211.8410  151.0810 C   0  0  2  0  0  3  0  0  0  0  0  0
  160.3180  210.1870  152.6880 C   0  0  2  0  0  3  0  0  0  0  0  0
  159.2490  214.0830  151.4230 C   0  0  0  0  0  2  0  0  0  0  0  0
  160.4410  213.3350  150.7880 C   0  0  0  0  0  2  0  0  0  0  0  0
  161.5200  210.0490  151.7520 C   0  0  0  0  0  2  0  0  0  0  0  0
  159.9200  211.6140  152.4740 C   0  0  2  0  0  3  0  0  0  0  0  0
  158.0630  213.1920  151.8680 C   0  0  2  0  0  3  0  0  0  0  0  0
  158.1370  213.0100  153.2640 O   0  0  0  0  0  0  0  0  0  0  0  0
  161.6460  211.2170  150.9680 O   0  0  0  0  0  0  0  0  0  0  0  0
  160.4820  212.5490  156.7990 C   0  0  0  0  0  2  0  0  0  0  0  0
  160.1180  214.0160  156.6440 C   0  0  0  0  0  2  0  0  0  0  0  0
  159.3140  214.1900  155.5180 O   0  0  0  0  0  1  0  0  0  0  0  0
  160.0050  208.3110  155.6620 C   0  0  0  0  0  2  0  0  0  0  0  0
  161.2580  207.7350  155.0330 C   0  0  0  0  0  2  0  0  0  0  0  0
  161.7520  206.4360  153.0340 C   0  0  0  0  0  3  0  0  0  0  0  0
  160.8770  206.7680  153.9730 C   0  0  0  0  0  3  0  0  0  0  0  0
  161.7430  206.9820  150.2010 O   0  0  0  0  0  0  0  0  0  0  0  0
  161.4220  205.5080  151.9960 N   0  0  0  0  0  0  0  0  0  0  0  0
  161.4360  205.8360  150.6230 C   0  0  0  0  0  0  0  0  0  0  0  0
  161.0270  204.8940  148.3120 C   0  0  0  0  0  1  0  0  0  0  0  0
  160.7610  203.5390  150.4550 C   0  0  0  0  0  2  0  0  0  0  0  0
  160.9500  203.8230  152.2680 S   0  0  0  0  0  0  0  0  0  0  0  0
  161.0790  204.7750  149.7590 N   0  0  0  0  0  0  0  0  0  0  0  0
  157.7870  210.8480  155.8550 C   0  0  0  0  0  2  0  0  0  0  0  0
  157.3490  211.5440  157.1280 C   0  0  0  0  0  2  0  0  0  0  0  0
  156.4220  212.6590  156.7890 C   0  0  0  0  0  3  0  0  0  0  0  0
  155.9300  212.7260  155.6750 O   0  0  0  0  0  0  0  0  0  0  0  0
  1 20  1  0  0  0  0
  1  3  1  0  0  0  0
  2  4  1  0  0  0  0
  2  6  1  1  0  0  0
  3 31  1  6  0  0  0
  4  3  1  0  0  0  0
  4 17  1  1  0  0  0
  5  2  1  0  0  0  0
  5  1  1  1  0  0  0
  7 15  1  1  0  0  0
  8 11  1  1  0  0  0
  8 13  1  0  0  0  0
  9 12  1  6  0  0  0
  9  5  1  0  0  0  0
 10 14  1  0  0  0  0
 11 10  1  0  0  0  0
 13  7  1  0  0  0  0
 13  9  1  0  0  0  0
 14  7  1  0  0  0  0
 14 15  1  0  0  0  0
 16  8  1  0  0  0  0
 16 12  1  0  0  0  0
 18 17  1  0  0  0  0
 19 18  1  0  0  0  0
 21 20  1  0  0  0  0
 22 23  2  0  0  0  0
 23 21  1  0  0  0  0
 24 26  2  0  0  0  0
 25 29  1  0  0  0  0
 25 22  1  0  0  0  0
 26 25  1  0  0  0  0
 27 30  1  0  0  0  0
 28 29  1  0  0  0  0
 30 28  1  0  0  0  0
 30 26  1  0  0  0  0
 31 32  1  0  0  0  0
 33 32  1  0  0  0  0
 34 33  2  0  0  0  0
M  END
>  <MODEL>
4

>  <REMARK>
 VINA RESULT:      -4.8      2.134      4.694
  Name = 
  10 active torsions:
  status: ('A' for Active; 'I' for Inactive)
    1  A    between atoms: C_3  and  N_13
    2  A    between atoms: C_4  and  C_31
    3  A    between atoms: N_5  and  C_18
    4  A    between atoms: C_7  and  C_8
    5  A    between atoms: C_8  and  C_28
    6  A    between atoms: C_12  and  C_16
    7  A    between atoms: C_16  and  C_23
    8  A    between atoms: C_17  and  C_29
    9  A    between atoms: C_18  and  C_29
   10  A    between atoms: C_23  and  C_26
                            x       y       z     vdW  Elec       q    Type
                         _______ _______ _______ _____ _____    ______ ____

>  <TORSDO>
F 10

$$$$
=
 OpenBabel11062408063D

 34 38  0  0  1  0  0  0  0  0999 V2000
  160.3360  209.5690  155.2980 N   0  0  0  0  0  0  0  0  0  0  0  0
  160.0810  210.3720  153.0300 C   0  0  2  0  0  3  0  0  0  0  0  0
  161.6560  209.6130  154.6690 C   0  0  1  0  0  3  0  0  0  0  0  0
  161.5440  210.4540  153.4150 C   0  0  1  0  0  3  0  0  0  0  0  0
  159.3710  210.1360  154.3520 C   0  0  2  0  0  3  0  0  0  0  0  0
  159.8350  209.2800  152.1920 O   0  0  0  0  0  1  0  0  0  0  0  0
  158.9150  213.3430  153.2190 C   0  0  2  0  0  3  0  0  0  0  0  0
  156.9880  212.8420  154.6180 C   0  0  2  0  0  3  0  0  0  0  0  0
  158.8010  211.4440  154.9060 C   0  0  2  0  0  3  0  0  0  0  0  0
  156.5420  213.9960  152.3950 C   0  0  0  0  0  2  0  0  0  0  0  0
  155.9250  213.3740  153.6670 C   0  0  0  0  0  2  0  0  0  0  0  0
  157.6680  211.1630  155.8940 C   0  0  0  0  0  2  0  0  0  0  0  0
  158.0960  212.2200  153.8370 C   0  0  2  0  0  3  0  0  0  0  0  0
  158.0510  214.3340  152.4820 C   0  0  2  0  0  3  0  0  0  0  0  0
  158.7760  213.3220  151.8190 O   0  0  0  0  0  0  0  0  0  0  0  0
  156.5110  211.8730  155.5030 O   0  0  0  0  0  0  0  0  0  0  0  0
  162.5010  209.9730  152.3260 C   0  0  0  0  0  2  0  0  0  0  0  0
  162.3650  210.8190  151.0720 C   0  0  0  0  0  2  0  0  0  0  0  0
  162.0420  210.0090  149.9840 O   0  0  0  0  0  1  0  0  0  0  0  0
  159.9860  208.1670  155.4730 C   0  0  0  0  0  2  0  0  0  0  0  0
  161.1810  207.2950  155.1410 C   0  0  0  0  0  2  0  0  0  0  0  0
  161.6980  206.2060  153.0250 C   0  0  0  0  0  3  0  0  0  0  0  0
  160.8340  206.3940  154.0140 C   0  0  0  0  0  3  0  0  0  0  0  0
  161.8340  206.9110  150.2310 O   0  0  0  0  0  0  0  0  0  0  0  0
  161.3990  205.3450  151.9230 N   0  0  0  0  0  0  0  0  0  0  0  0
  161.4840  205.7500  150.5730 C   0  0  0  0  0  0  0  0  0  0  0  0
  161.1680  204.9480  148.1950 C   0  0  0  0  0  1  0  0  0  0  0  0
  160.7740  203.4810  150.2420 C   0  0  0  0  0  2  0  0  0  0  0  0
  160.8830  203.6590  152.0750 S   0  0  0  0  0  0  0  0  0  0  0  0
  161.1480  204.7470  149.6330 N   0  0  0  0  0  0  0  0  0  0  0  0
  162.6560  210.2280  155.6360 C   0  0  0  0  0  2  0  0  0  0  0  0
  162.0000  210.5040  156.9750 C   0  0  0  0  0  2  0  0  0  0  0  0
  162.0520  211.9640  157.2600 C   0  0  0  0  0  3  0  0  0  0  0  0
  161.0380  212.6380  157.1800 O   0  0  0  0  0  0  0  0  0  0  0  0
  1 20  1  0  0  0  0
  2  6  1  6  0  0  0
  2  4  1  0  0  0  0
  2  5  1  0  0  0  0
  3  1  1  0  0  0  0
  3 31  1  1  0  0  0
  4 17  1  6  0  0  0
  4  3  1  0  0  0  0
  5  9  1  0  0  0  0
  5  1  1  1  0  0  0
  7 15  1  6  0  0  0
  7 13  1  0  0  0  0
  8 11  1  6  0  0  0
  8 16  1  0  0  0  0
  9 12  1  1  0  0  0
 10 14  1  0  0  0  0
 10 11  1  0  0  0  0
 13  8  1  0  0  0  0
 13  9  1  0  0  0  0
 14  7  1  0  0  0  0
 15 14  1  0  0  0  0
 16 12  1  0  0  0  0
 18 17  1  0  0  0  0
 19 18  1  0  0  0  0
 21 20  1  0  0  0  0
 22 23  2  0  0  0  0
 23 21  1  0  0  0  0
 24 26  2  0  0  0  0
 25 29  1  0  0  0  0
 25 22  1  0  0  0  0
 26 25  1  0  0  0  0
 27 30  1  0  0  0  0
 28 29  1  0  0  0  0
 30 28  1  0  0  0  0
 30 26  1  0  0  0  0
 31 32  1  0  0  0  0
 32 33  1  0  0  0  0
 34 33  2  0  0  0  0
M  END
>  <MODEL>
5

>  <REMARK>
 VINA RESULT:      -4.8      2.219      4.333
  Name = 
  10 active torsions:
  status: ('A' for Active; 'I' for Inactive)
    1  A    between atoms: C_3  and  N_13
    2  A    between atoms: C_4  and  C_31
    3  A    between atoms: N_5  and  C_18
    4  A    between atoms: C_7  and  C_8
    5  A    between atoms: C_8  and  C_28
    6  A    between atoms: C_12  and  C_16
    7  A    between atoms: C_16  and  C_23
    8  A    between atoms: C_17  and  C_29
    9  A    between atoms: C_18  and  C_29
   10  A    between atoms: C_23  and  C_26
                            x       y       z     vdW  Elec       q    Type
                         _______ _______ _______ _____ _____    ______ ____

>  <TORSDO>
F 10

$$$$
=
 OpenBabel11062408063D

 34 38  0  0  1  0  0  0  0  0999 V2000
  160.8890  208.8590  153.0280 N   0  0  0  0  0  0  0  0  0  0  0  0
  161.7440  210.7120  154.3280 C   0  0  2  0  0  3  0  0  0  0  0  0
  161.2090  208.3760  154.3700 C   0  0  1  0  0  3  0  0  0  0  0  0
  161.3770  209.5830  155.2700 C   0  0  1  0  0  3  0  0  0  0  0  0
  161.1020  210.3090  153.0110 C   0  0  2  0  0  3  0  0  0  0  0  0
  163.1280  210.7900  154.1430 O   0  0  0  0  0  1  0  0  0  0  0  0
  158.3720  211.0960  154.9370 C   0  0  2  0  0  3  0  0  0  0  0  0
  158.7070  212.9840  153.4380 C   0  0  2  0  0  3  0  0  0  0  0  0
  159.7680  211.0330  152.8120 C   0  0  2  0  0  3  0  0  0  0  0  0
  158.2290  213.5100  155.8810 C   0  0  0  0  0  2  0  0  0  0  0  0
  158.5640  214.0800  154.4850 C   0  0  0  0  0  2  0  0  0  0  0  0
  159.9090  212.1470  151.7740 C   0  0  0  0  0  2  0  0  0  0  0  0
  159.3820  211.7980  154.0400 C   0  0  2  0  0  3  0  0  0  0  0  0
  157.7120  212.0500  155.8990 C   0  0  2  0  0  3  0  0  0  0  0  0
  158.7720  211.2040  156.2820 O   0  0  0  0  0  0  0  0  0  0  0  0
  159.4600  213.3680  152.3260 O   0  0  0  0  0  0  0  0  0  0  0  0
  162.4080  209.3290  156.3670 C   0  0  0  0  0  2  0  0  0  0  0  0
  162.5600  210.5480  157.2600 C   0  0  0  0  0  2  0  0  0  0  0  0
  163.7200  211.2450  156.9200 O   0  0  0  0  0  1  0  0  0  0  0  0
  161.8610  208.2760  152.1150 C   0  0  0  0  0  2  0  0  0  0  0  0
  161.2350  208.0960  150.7460 C   0  0  0  0  0  2  0  0  0  0  0  0
  160.9570  206.2890  149.1390 C   0  0  0  0  0  3  0  0  0  0  0  0
  161.2770  206.6610  150.3710 C   0  0  0  0  0  3  0  0  0  0  0  0
  161.2410  205.3070  146.4410 O   0  0  0  0  0  0  0  0  0  0  0  0
  160.9860  204.9160  148.7400 N   0  0  0  0  0  0  0  0  0  0  0  0
  161.1270  204.4970  147.3990 C   0  0  0  0  0  0  0  0  0  0  0  0
  161.2670  202.4490  145.9220 C   0  0  0  0  0  1  0  0  0  0  0  0
  160.9910  202.3450  148.4530 C   0  0  0  0  0  2  0  0  0  0  0  0
  160.8510  203.5430  149.8490 S   0  0  0  0  0  0  0  0  0  0  0  0
  161.1340  203.0940  147.2150 N   0  0  0  0  0  0  0  0  0  0  0  0
  160.0770  207.4910  154.8710 C   0  0  0  0  0  2  0  0  0  0  0  0
  159.6350  207.9260  156.2550 C   0  0  0  0  0  2  0  0  0  0  0  0
  160.0020  206.8750  157.2440 C   0  0  0  0  0  3  0  0  0  0  0  0
  161.1350  206.4210  157.2600 O   0  0  0  0  0  0  0  0  0  0  0  0
  1  3  1  0  0  0  0
  2  6  1  6  0  0  0
  2  4  1  0  0  0  0
  3 31  1  1  0  0  0
  3  4  1  0  0  0  0
  4 17  1  1  0  0  0
  5  1  1  1  0  0  0
  5  2  1  0  0  0  0
  7 14  1  0  0  0  0
  7 15  1  1  0  0  0
  8 13  1  0  0  0  0
  8 11  1  1  0  0  0
  9 12  1  6  0  0  0
  9  5  1  0  0  0  0
  9 13  1  0  0  0  0
 10 14  1  0  0  0  0
 11 10  1  0  0  0  0
 12 16  1  0  0  0  0
 13  7  1  0  0  0  0
 14 15  1  0  0  0  0
 16  8  1  0  0  0  0
 17 18  1  0  0  0  0
 19 18  1  0  0  0  0
 20  1  1  0  0  0  0
 21 20  1  0  0  0  0
 22 23  2  0  0  0  0
 23 21  1  0  0  0  0
 24 26  2  0  0  0  0
 25 22  1  0  0  0  0
 25 29  1  0  0  0  0
 26 25  1  0  0  0  0
 27 30  1  0  0  0  0
 28 29  1  0  0  0  0
 30 26  1  0  0  0  0
 30 28  1  0  0  0  0
 31 32  1  0  0  0  0
 32 33  1  0  0  0  0
 33 34  2  0  0  0  0
M  END
>  <MODEL>
6

>  <REMARK>
 VINA RESULT:      -4.7      1.805      2.428
  Name = 
  10 active torsions:
  status: ('A' for Active; 'I' for Inactive)
    1  A    between atoms: C_3  and  N_13
    2  A    between atoms: C_4  and  C_31
    3  A    between atoms: N_5  and  C_18
    4  A    between atoms: C_7  and  C_8
    5  A    between atoms: C_8  and  C_28
    6  A    between atoms: C_12  and  C_16
    7  A    between atoms: C_16  and  C_23
    8  A    between atoms: C_17  and  C_29
    9  A    between atoms: C_18  and  C_29
   10  A    between atoms: C_23  and  C_26
                            x       y       z     vdW  Elec       q    Type
                         _______ _______ _______ _____ _____    ______ ____

>  <TORSDO>
F 10

$$$$
=
 OpenBabel11062408063D

 34 38  0  0  1  0  0  0  0  0999 V2000
  161.0300  210.0480  153.3190 N   0  0  0  0  0  0  0  0  0  0  0  0
  162.0830  209.3340  151.2610 C   0  0  2  0  0  3  0  0  0  0  0  0
  160.8260  211.0850  152.3090 C   0  0  1  0  0  3  0  0  0  0  0  0
  161.1440  210.4840  150.9560 C   0  0  1  0  0  3  0  0  0  0  0  0
  161.6990  208.9170  152.6710 C   0  0  2  0  0  3  0  0  0  0  0  0
  163.4170  209.7550  151.2700 O   0  0  0  0  0  1  0  0  0  0  0  0
  160.4670  206.7620  150.3000 C   0  0  2  0  0  3  0  0  0  0  0  0
  160.8490  205.4220  152.2960 C   0  0  2  0  0  3  0  0  0  0  0  0
  160.7680  207.7020  152.6440 C   0  0  2  0  0  3  0  0  0  0  0  0
  161.6160  204.4450  150.0760 C   0  0  0  0  0  2  0  0  0  0  0  0
  161.5520  204.2610  151.6080 C   0  0  0  0  0  2  0  0  0  0  0  0
  160.8850  206.9040  153.9440 C   0  0  0  0  0  2  0  0  0  0  0  0
  161.2160  206.7020  151.6240 C   0  0  2  0  0  3  0  0  0  0  0  0
  160.6490  205.5040  149.4910 C   0  0  2  0  0  3  0  0  0  0  0  0
  161.3780  206.6820  149.2310 O   0  0  0  0  0  0  0  0  0  0  0  0
  161.1800  205.5550  153.6460 O   0  0  0  0  0  0  0  0  0  0  0  0
  161.7250  211.5240  150.0000 C   0  0  0  0  0  2  0  0  0  0  0  0
  161.6930  211.0200  148.5680 C   0  0  0  0  0  2  0  0  0  0  0  0
  161.3480  212.0610  147.7050 O   0  0  0  0  0  1  0  0  0  0  0  0
  161.9580  210.5810  154.3060 C   0  0  0  0  0  2  0  0  0  0  0  0
  161.4070  210.3550  155.7010 C   0  0  0  0  0  2  0  0  0  0  0  0
  159.2000  211.2550  156.1970 C   0  0  0  0  0  3  0  0  0  0  0  0
  160.5000  211.4750  156.0590 C   0  0  0  0  0  3  0  0  0  0  0  0
  156.3200  211.1320  156.0680 O   0  0  0  0  0  0  0  0  0  0  0  0
  158.2950  212.3070  156.5420 N   0  0  0  0  0  0  0  0  0  0  0  0
  156.8910  212.1870  156.4570 C   0  0  0  0  0  0  0  0  0  0  0  0
  154.7250  213.4360  156.8340 C   0  0  0  0  0  1  0  0  0  0  0  0
  157.0270  214.4440  157.2600 C   0  0  0  0  0  2  0  0  0  0  0  0
  158.7860  213.9060  157.1220 S   0  0  0  0  0  0  0  0  0  0  0  0
  156.1740  213.3420  156.8450 N   0  0  0  0  0  0  0  0  0  0  0  0
  159.3810  211.5580  152.3560 C   0  0  0  0  0  2  0  0  0  0  0  0
  159.3150  213.0300  152.7120 C   0  0  0  0  0  2  0  0  0  0  0  0
  159.1180  213.8310  151.4720 C   0  0  0  0  0  3  0  0  0  0  0  0
  158.6970  213.2940  150.4600 O   0  0  0  0  0  0  0  0  0  0  0  0
  1 20  1  0  0  0  0
  2  6  1  1  0  0  0
  2  5  1  0  0  0  0
  3 31  1  6  0  0  0
  3  1  1  0  0  0  0
  4 17  1  6  0  0  0
  4  2  1  0  0  0  0
  4  3  1  0  0  0  0
  5  1  1  6  0  0  0
  7 15  1  6  0  0  0
  7 13  1  0  0  0  0
  8 11  1  6  0  0  0
  8 16  1  0  0  0  0
  9  5  1  0  0  0  0
  9 12  1  1  0  0  0
 10 11  1  0  0  0  0
 13  8  1  0  0  0  0
 13  9  1  0  0  0  0
 14 10  1  0  0  0  0
 14  7  1  0  0  0  0
 15 14  1  0  0  0  0
 16 12  1  0  0  0  0
 18 17  1  0  0  0  0
 19 18  1  0  0  0  0
 20 21  1  0  0  0  0
 21 23  1  0  0  0  0
 22 25  1  0  0  0  0
 23 22  2  0  0  0  0
 24 26  2  0  0  0  0
 25 29  1  0  0  0  0
 26 25  1  0  0  0  0
 26 30  1  0  0  0  0
 27 30  1  0  0  0  0
 29 28  1  0  0  0  0
 30 28  1  0  0  0  0
 31 32  1  0  0  0  0
 33 32  1  0  0  0  0
 34 33  2  0  0  0  0
M  END
>  <MODEL>
7

>  <REMARK>
 VINA RESULT:      -4.4      3.384      8.607
  Name = 
  10 active torsions:
  status: ('A' for Active; 'I' for Inactive)
    1  A    between atoms: C_3  and  N_13
    2  A    between atoms: C_4  and  C_31
    3  A    between atoms: N_5  and  C_18
    4  A    between atoms: C_7  and  C_8
    5  A    between atoms: C_8  and  C_28
    6  A    between atoms: C_12  and  C_16
    7  A    between atoms: C_16  and  C_23
    8  A    between atoms: C_17  and  C_29
    9  A    between atoms: C_18  and  C_29
   10  A    between atoms: C_23  and  C_26
                            x       y       z     vdW  Elec       q    Type
                         _______ _______ _______ _____ _____    ______ ____

>  <TORSDO>
F 10

$$$$
=
 OpenBabel11062408063D

 34 38  0  0  1  0  0  0  0  0999 V2000
  159.5890  211.2420  153.9100 N   0  0  0  0  0  0  0  0  0  0  0  0
  160.7590  211.6850  155.9800 C   0  0  2  0  0  3  0  0  0  0  0  0
  159.2400  210.1990  154.8730 C   0  0  1  0  0  3  0  0  0  0  0  0
  159.6590  210.6770  156.2460 C   0  0  1  0  0  3  0  0  0  0  0  0
  160.4290  212.2250  154.5990 C   0  0  2  0  0  3  0  0  0  0  0  0
  162.0130  211.0680  155.9290 O   0  0  0  0  0  1  0  0  0  0  0  0
  158.4300  214.1390  152.5690 C   0  0  2  0  0  3  0  0  0  0  0  0
  157.5430  214.3920  154.8220 C   0  0  2  0  0  3  0  0  0  0  0  0
  159.6930  213.5640  154.7000 C   0  0  2  0  0  3  0  0  0  0  0  0
  155.8650  214.0090  152.9490 C   0  0  0  0  0  2  0  0  0  0  0  0
  156.0760  214.1920  154.4680 C   0  0  0  0  0  2  0  0  0  0  0  0
  159.2330  213.8190  156.1360 C   0  0  0  0  0  2  0  0  0  0  0  0
  158.3930  213.5210  153.9600 C   0  0  2  0  0  3  0  0  0  0  0  0
  157.0490  214.4510  152.0530 C   0  0  2  0  0  3  0  0  0  0  0  0
  157.7640  213.3020  151.6560 O   0  0  0  0  0  0  0  0  0  0  0  0
  157.8450  214.0810  156.1490 O   0  0  0  0  0  0  0  0  0  0  0  0
  160.0850  209.5150  157.1420 C   0  0  0  0  0  2  0  0  0  0  0  0
  160.0010  208.1960  156.3960 C   0  0  0  0  0  2  0  0  0  0  0  0
  160.5200  207.1690  157.1840 O   0  0  0  0  0  1  0  0  0  0  0  0
  160.4150  210.6250  152.8820 C   0  0  0  0  0  2  0  0  0  0  0  0
  160.7760  209.2120  153.2960 C   0  0  0  0  0  2  0  0  0  0  0  0
  161.0840  207.0490  152.2200 C   0  0  0  0  0  3  0  0  0  0  0  0
  160.7930  208.3370  152.0960 C   0  0  0  0  0  3  0  0  0  0  0  0
  160.8390  204.1750  152.2830 O   0  0  0  0  0  0  0  0  0  0  0  0
  161.1100  206.1750  151.0880 N   0  0  0  0  0  0  0  0  0  0  0  0
  160.9850  204.7720  151.1830 C   0  0  0  0  0  0  0  0  0  0  0  0
  160.9270  202.6470  149.8140 C   0  0  0  0  0  1  0  0  0  0  0  0
  161.2080  204.9690  148.8020 C   0  0  0  0  0  2  0  0  0  0  0  0
  161.3000  206.7080  149.4100 S   0  0  0  0  0  0  0  0  0  0  0  0
  161.0350  204.0890  149.9460 N   0  0  0  0  0  0  0  0  0  0  0  0
  157.7390  209.9530  154.8280 C   0  0  0  0  0  2  0  0  0  0  0  0
  157.0260  210.8370  155.8320 C   0  0  0  0  0  2  0  0  0  0  0  0
  155.5540  210.7200  155.6370 C   0  0  0  0  0  3  0  0  0  0  0  0
  154.8150  210.6490  156.6050 O   0  0  0  0  0  0  0  0  0  0  0  0
  1  3  1  0  0  0  0
  2  6  1  6  0  0  0
  2  4  1  0  0  0  0
  3 31  1  1  0  0  0
  3  4  1  0  0  0  0
  4 17  1  1  0  0  0
  5  1  1  1  0  0  0
  5  9  1  0  0  0  0
  5  2  1  0  0  0  0
  7 15  1  6  0  0  0
  7 13  1  0  0  0  0
  8 11  1  6  0  0  0
  8 16  1  0  0  0  0
  9 12  1  1  0  0  0
 10 11  1  0  0  0  0
 12 16  1  0  0  0  0
 13  9  1  0  0  0  0
 13  8  1  0  0  0  0
 14  7  1  0  0  0  0
 14 10  1  0  0  0  0
 15 14  1  0  0  0  0
 18 17  1  0  0  0  0
 18 19  1  0  0  0  0
 20 21  1  0  0  0  0
 20  1  1  0  0  0  0
 23 22  2  0  0  0  0
 23 21  1  0  0  0  0
 25 26  1  0  0  0  0
 25 22  1  0  0  0  0
 26 24  2  0  0  0  0
 27 30  1  0  0  0  0
 28 29  1  0  0  0  0
 28 30  1  0  0  0  0
 29 25  1  0  0  0  0
 30 26  1  0  0  0  0
 31 32  1  0  0  0  0
 33 32  1  0  0  0  0
 33 34  2  0  0  0  0
M  END
>  <MODEL>
8

>  <REMARK>
 VINA RESULT:      -4.3      1.804      3.810
  Name = 
  10 active torsions:
  status: ('A' for Active; 'I' for Inactive)
    1  A    between atoms: C_3  and  N_13
    2  A    between atoms: C_4  and  C_31
    3  A    between atoms: N_5  and  C_18
    4  A    between atoms: C_7  and  C_8
    5  A    between atoms: C_8  and  C_28
    6  A    between atoms: C_12  and  C_16
    7  A    between atoms: C_16  and  C_23
    8  A    between atoms: C_17  and  C_29
    9  A    between atoms: C_18  and  C_29
   10  A    between atoms: C_23  and  C_26
                            x       y       z     vdW  Elec       q    Type
                         _______ _______ _______ _____ _____    ______ ____

>  <TORSDO>
F 10

$$$$
