=
 OpenBabel11062408213D

 32 36  0  0  1  0  0  0  0  0999 V2000
  160.8410  205.1380  148.7860 C   0  0  1  0  0  3  0  0  0  0  0  0
  161.7160  206.9720  150.2530 C   0  0  0  0  0  0  0  0  0  0  0  0
  160.9060  203.6100  148.8050 C   0  0  0  0  0  2  0  0  0  0  0  0
  161.2270  205.7230  150.1290 C   0  0  0  0  0  0  0  0  0  0  0  0
  161.9510  207.5610  151.6170 C   0  0  0  0  0  0  0  0  0  0  0  0
  160.9980  212.6760  148.0680 C   0  0  0  0  0  1  0  0  0  0  0  0
  162.1240  207.7780  149.0240 C   0  0  1  0  0  3  0  0  0  0  0  0
  161.7520  211.4310  150.4760 S   0  0  0  0  0  0  0  0  0  0  0  0
  162.0600  209.7820  150.5200 C   0  0  0  0  0  0  0  0  0  0  0  0
  160.9790  204.9310  151.3480 C   0  0  0  0  0  0  0  0  0  0  0  0
  162.4810  208.9760  151.7080 C   0  0  0  0  0  2  0  0  0  0  0  0
  161.2940  205.4820  152.5900 O   0  0  0  0  0  0  0  0  0  0  0  0
  160.4890  203.6900  151.2740 C   0  0  0  0  0  3  0  0  0  0  0  0
  161.5160  207.2760  147.7060 C   0  0  0  0  0  2  0  0  0  0  0  0
  161.5990  205.7550  147.6070 C   0  0  1  0  0  3  0  0  0  0  0  0
  161.8840  209.2420  149.2580 C   0  0  0  0  0  0  0  0  0  0  0  0
  161.7350  206.8050  152.7270 C   0  0  0  0  0  0  0  0  0  0  0  0
  160.0670  203.0770  149.9660 C   0  0  0  0  0  2  0  0  0  0  0  0
  161.3820  211.4600  148.8320 C   0  0  0  0  0  0  0  0  0  0  0  0
  161.5040  210.1860  148.2910 C   0  0  0  0  0  3  0  0  0  0  0  0
  161.9360  207.2610  154.0430 O   0  0  0  0  0  0  0  0  0  0  0  0
  160.9260  207.3910  155.0350 C   0  0  0  0  0  1  0  0  0  0  0  0
  163.0460  205.2690  147.5160 C   0  0  0  0  0  2  0  0  0  0  0  0
  163.4010  204.9550  146.0740 C   0  0  0  0  0  2  0  0  0  0  0  0
  162.6650  203.7100  145.6040 C   0  0  0  0  0  2  0  0  0  0  0  0
  161.3780  204.0610  144.9150 C   0  0  0  0  0  0  0  0  0  0  0  0
  159.4950  200.9250  144.7630 O   0  0  0  0  0  0  0  0  0  0  0  0
  161.1500  205.2560  144.5850 O   0  0  0  0  0  0  0  0  0  0  0  0
  160.3950  203.0620  144.6220 N   0  0  0  0  0  2  0  0  0  0  0  0
  160.2510  201.7930  145.2750 C   0  0  0  0  0  0  0  0  0  0  0  0
  160.8880  201.5160  146.6020 C   0  0  0  0  0  2  0  0  0  0  0  0
  161.3210  200.0670  146.6980 C   0  0  0  0  0  1  0  0  0  0  0  0
  1  3  1  1  0  0  0
  1  4  1  0  0  0  0
  2  5  1  0  0  0  0
  3 18  1  0  0  0  0
  4  2  2  0  0  0  0
  4 10  1  0  0  0  0
  5 11  1  0  0  0  0
  5 17  2  0  0  0  0
  6 19  1  0  0  0  0
  7 14  1  6  0  0  0
  7 16  1  0  0  0  0
  7  2  1  0  0  0  0
  8  9  1  0  0  0  0
  9 11  1  0  0  0  0
 10 12  1  0  0  0  0
 12 17  1  0  0  0  0
 13 10  2  0  0  0  0
 15 23  1  1  0  0  0
 15 14  1  0  0  0  0
 15  1  1  0  0  0  0
 16  9  2  0  0  0  0
 17 21  1  0  0  0  0
 18 13  1  0  0  0  0
 19  8  1  0  0  0  0
 20 19  2  0  0  0  0
 20 16  1  0  0  0  0
 21 22  1  0  0  0  0
 24 23  1  0  0  0  0
 25 24  1  0  0  0  0
 26 25  1  0  0  0  0
 27 30  2  0  0  0  0
 28 26  2  0  0  0  0
 29 26  1  0  0  0  0
 29 30  1  0  0  0  0
 30 31  1  0  0  0  0
 31 32  1  0  0  0  0
M  END
>  <MODEL>
1

>  <REMARK>
 VINA RESULT:      -7.5      0.000      0.000
  Name = 
  6 active torsions:
  status: ('A' for Active; 'I' for Inactive)
    1  A    between atoms: C_3  and  C_22
    2  A    between atoms: O_13  and  C_29
    3  A    between atoms: C_15  and  C_26
    4  A    between atoms: C_16  and  C_23
    5  A    between atoms: C_16  and  C_27
    6  A    between atoms: C_22  and  C_23
                            x       y       z     vdW  Elec       q    Type
                         _______ _______ _______ _____ _____    ______ ____

>  <TORSDO>
F 6

$$$$
=
 OpenBabel11062408213D

 32 36  0  0  1  0  0  0  0  0999 V2000
  162.2280  210.7180  150.0240 C   0  0  1  0  0  3  0  0  0  0  0  0
  160.4310  211.0410  151.7410 C   0  0  0  0  0  0  0  0  0  0  0  0
  162.3590  210.9960  148.5250 C   0  0  0  0  0  2  0  0  0  0  0  0
  161.0530  211.4620  150.6230 C   0  0  0  0  0  0  0  0  0  0  0  0
  159.3630  211.8870  152.3790 C   0  0  0  0  0  0  0  0  0  0  0  0
  161.5720  208.5740  157.2580 C   0  0  0  0  0  1  0  0  0  0  0  0
  160.7300  209.6660  152.3320 C   0  0  1  0  0  3  0  0  0  0  0  0
  159.7060  210.3250  156.0880 S   0  0  0  0  0  0  0  0  0  0  0  0
  159.6430  210.5100  154.4210 C   0  0  0  0  0  0  0  0  0  0  0  0
  160.6290  212.7350  150.0100 C   0  0  0  0  0  0  0  0  0  0  0  0
  158.7070  211.3840  153.6470 C   0  0  0  0  0  2  0  0  0  0  0  0
  159.5750  213.4460  150.5830 O   0  0  0  0  0  0  0  0  0  0  0  0
  161.2210  213.1960  148.9030 C   0  0  0  0  0  3  0  0  0  0  0  0
  162.0580  209.0520  151.8640 C   0  0  0  0  0  2  0  0  0  0  0  0
  162.2420  209.2230  150.3590 C   0  0  1  0  0  3  0  0  0  0  0  0
  160.5980  209.7030  153.8280 C   0  0  0  0  0  0  0  0  0  0  0  0
  158.9750  213.0480  151.7850 C   0  0  0  0  0  0  0  0  0  0  0  0
  162.4080  212.5040  148.2880 C   0  0  0  0  0  2  0  0  0  0  0  0
  160.9690  209.2100  156.0570 C   0  0  0  0  0  0  0  0  0  0  0  0
  161.3530  208.9560  154.7460 C   0  0  0  0  0  3  0  0  0  0  0  0
  157.9790  213.9000  152.2950 O   0  0  0  0  0  0  0  0  0  0  0  0
  156.8420  214.3630  151.5780 C   0  0  0  0  0  1  0  0  0  0  0  0
  161.2060  208.4290  149.5640 C   0  0  0  0  0  2  0  0  0  0  0  0
  161.7780  207.0840  149.1580 C   0  0  0  0  0  2  0  0  0  0  0  0
  160.6650  206.0610  148.9900 C   0  0  0  0  0  2  0  0  0  0  0  0
  160.8010  204.9360  149.9740 C   0  0  0  0  0  0  0  0  0  0  0  0
  161.0150  201.9050  147.9320 O   0  0  0  0  0  0  0  0  0  0  0  0
  160.8690  205.1880  151.2070 O   0  0  0  0  0  0  0  0  0  0  0  0
  160.8560  203.5710  149.5420 N   0  0  0  0  0  2  0  0  0  0  0  0
  161.2330  203.1070  148.2380 C   0  0  0  0  0  0  0  0  0  0  0  0
  161.9760  203.9830  147.2770 C   0  0  0  0  0  2  0  0  0  0  0  0
  161.5220  203.7250  145.8540 C   0  0  0  0  0  1  0  0  0  0  0  0
  1  3  1  6  0  0  0
  1 15  1  0  0  0  0
  1  4  1  0  0  0  0
  2  7  1  0  0  0  0
  2  5  1  0  0  0  0
  4  2  2  0  0  0  0
  5 11  1  0  0  0  0
  7 14  1  1  0  0  0
  7 16  1  0  0  0  0
  9  8  1  0  0  0  0
 10 12  1  0  0  0  0
 10  4  1  0  0  0  0
 11  9  1  0  0  0  0
 12 17  1  0  0  0  0
 13 10  2  0  0  0  0
 15 23  1  6  0  0  0
 15 14  1  0  0  0  0
 16  9  2  0  0  0  0
 16 20  1  0  0  0  0
 17 21  1  0  0  0  0
 17  5  2  0  0  0  0
 18  3  1  0  0  0  0
 18 13  1  0  0  0  0
 19  8  1  0  0  0  0
 19  6  1  0  0  0  0
 20 19  2  0  0  0  0
 22 21  1  0  0  0  0
 24 23  1  0  0  0  0
 25 24  1  0  0  0  0
 25 26  1  0  0  0  0
 26 28  2  0  0  0  0
 27 30  2  0  0  0  0
 29 26  1  0  0  0  0
 30 29  1  0  0  0  0
 31 30  1  0  0  0  0
 32 31  1  0  0  0  0
M  END
>  <MODEL>
2

>  <REMARK>
 VINA RESULT:      -7.4      3.290      6.243
  Name = 
  6 active torsions:
  status: ('A' for Active; 'I' for Inactive)
    1  A    between atoms: C_3  and  C_22
    2  A    between atoms: O_13  and  C_29
    3  A    between atoms: C_15  and  C_26
    4  A    between atoms: C_16  and  C_23
    5  A    between atoms: C_16  and  C_27
    6  A    between atoms: C_22  and  C_23
                            x       y       z     vdW  Elec       q    Type
                         _______ _______ _______ _____ _____    ______ ____

>  <TORSDO>
F 6

$$$$
=
 OpenBabel11062408213D

 32 36  0  0  1  0  0  0  0  0999 V2000
  162.0370  211.3820  150.0910 C   0  0  1  0  0  3  0  0  0  0  0  0
  160.2330  211.3970  151.8300 C   0  0  0  0  0  0  0  0  0  0  0  0
  162.1090  211.7200  148.6000 C   0  0  0  0  0  2  0  0  0  0  0  0
  160.7750  211.9350  150.7210 C   0  0  0  0  0  0  0  0  0  0  0  0
  159.0640  212.0640  152.5020 C   0  0  0  0  0  0  0  0  0  0  0  0
  161.7760  208.9550  157.2600 C   0  0  0  0  0  1  0  0  0  0  0  0
  160.7300  210.0620  152.3770 C   0  0  1  0  0  3  0  0  0  0  0  0
  159.6680  210.4580  156.1580 S   0  0  0  0  0  0  0  0  0  0  0  0
  159.5600  210.6810  154.4990 C   0  0  0  0  0  0  0  0  0  0  0  0
  160.1690  213.1530  150.1500 C   0  0  0  0  0  0  0  0  0  0  0  0
  158.5010  211.4370  153.7590 C   0  0  0  0  0  2  0  0  0  0  0  0
  159.0320  213.6900  150.7530 O   0  0  0  0  0  0  0  0  0  0  0  0
  160.6770  213.7250  149.0550 C   0  0  0  0  0  3  0  0  0  0  0  0
  162.1250  209.6550  151.8800 C   0  0  0  0  0  2  0  0  0  0  0  0
  162.2660  209.8950  150.3790 C   0  0  1  0  0  3  0  0  0  0  0  0
  160.6120  210.0350  153.8740 C   0  0  0  0  0  0  0  0  0  0  0  0
  158.5080  213.1760  151.9470 C   0  0  0  0  0  0  0  0  0  0  0  0
  161.9420  213.2270  148.4090 C   0  0  0  0  0  2  0  0  0  0  0  0
  161.0750  209.5340  156.0840 C   0  0  0  0  0  0  0  0  0  0  0  0
  161.4750  209.3760  154.7630 C   0  0  0  0  0  3  0  0  0  0  0  0
  157.4080  213.8640  152.4910 O   0  0  0  0  0  0  0  0  0  0  0  0
  156.2960  214.3550  151.7540 C   0  0  0  0  0  1  0  0  0  0  0  0
  161.3420  208.9860  149.5680 C   0  0  0  0  0  2  0  0  0  0  0  0
  162.1590  208.1030  148.6440 C   0  0  0  0  0  2  0  0  0  0  0  0
  162.3070  206.7090  149.2340 C   0  0  0  0  0  2  0  0  0  0  0  0
  161.0570  205.9000  149.0480 C   0  0  0  0  0  0  0  0  0  0  0  0
  160.8870  203.7220  151.9860 O   0  0  0  0  0  0  0  0  0  0  0  0
  160.3160  206.1120  148.0500 O   0  0  0  0  0  0  0  0  0  0  0  0
  160.6820  204.8830  149.9850 N   0  0  0  0  0  2  0  0  0  0  0  0
  161.1090  204.7870  151.3510 C   0  0  0  0  0  0  0  0  0  0  0  0
  161.7100  205.9550  152.0700 C   0  0  0  0  0  2  0  0  0  0  0  0
  161.2430  205.9970  153.5110 C   0  0  0  0  0  1  0  0  0  0  0  0
  1  3  1  6  0  0  0
  1 15  1  0  0  0  0
  1  4  1  0  0  0  0
  2  7  1  0  0  0  0
  2  5  1  0  0  0  0
  4  2  2  0  0  0  0
  5 11  1  0  0  0  0
  7 14  1  1  0  0  0
  7 16  1  0  0  0  0
  9  8  1  0  0  0  0
 10  4  1  0  0  0  0
 10 12  1  0  0  0  0
 11  9  1  0  0  0  0
 12 17  1  0  0  0  0
 13 10  2  0  0  0  0
 15 23  1  6  0  0  0
 15 14  1  0  0  0  0
 16  9  2  0  0  0  0
 16 20  1  0  0  0  0
 17 21  1  0  0  0  0
 17  5  2  0  0  0  0
 18  3  1  0  0  0  0
 18 13  1  0  0  0  0
 19  8  1  0  0  0  0
 19  6  1  0  0  0  0
 20 19  2  0  0  0  0
 22 21  1  0  0  0  0
 24 25  1  0  0  0  0
 24 23  1  0  0  0  0
 26 25  1  0  0  0  0
 26 29  1  0  0  0  0
 28 26  2  0  0  0  0
 29 30  1  0  0  0  0
 30 27  2  0  0  0  0
 30 31  1  0  0  0  0
 31 32  1  0  0  0  0
M  END
>  <MODEL>
3

>  <REMARK>
 VINA RESULT:      -7.1      3.486      6.856
  Name = 
  6 active torsions:
  status: ('A' for Active; 'I' for Inactive)
    1  A    between atoms: C_3  and  C_22
    2  A    between atoms: O_13  and  C_29
    3  A    between atoms: C_15  and  C_26
    4  A    between atoms: C_16  and  C_23
    5  A    between atoms: C_16  and  C_27
    6  A    between atoms: C_22  and  C_23
                            x       y       z     vdW  Elec       q    Type
                         _______ _______ _______ _____ _____    ______ ____

>  <TORSDO>
F 6

$$$$
=
 OpenBabel11062408213D

 32 36  0  0  1  0  0  0  0  0999 V2000
  162.3230  210.3910  150.0980 C   0  0  1  0  0  3  0  0  0  0  0  0
  160.5340  210.7580  151.8140 C   0  0  0  0  0  0  0  0  0  0  0  0
  162.4790  210.7060  148.6090 C   0  0  0  0  0  2  0  0  0  0  0  0
  161.1850  211.1790  150.7120 C   0  0  0  0  0  0  0  0  0  0  0  0
  159.5090  211.6400  152.4710 C   0  0  0  0  0  0  0  0  0  0  0  0
  161.5050  208.0710  157.2610 C   0  0  0  0  0  1  0  0  0  0  0  0
  160.7560  209.3530  152.3650 C   0  0  1  0  0  3  0  0  0  0  0  0
  159.7430  209.9530  156.1340 S   0  0  0  0  0  0  0  0  0  0  0  0
  159.7010  210.1900  154.4730 C   0  0  0  0  0  0  0  0  0  0  0  0
  160.8340  212.4900  150.1360 C   0  0  0  0  0  0  0  0  0  0  0  0
  158.8180  211.1350  153.7210 C   0  0  0  0  0  2  0  0  0  0  0  0
  159.8150  213.2380  150.7240 O   0  0  0  0  0  0  0  0  0  0  0  0
  161.4560  212.9510  149.0470 C   0  0  0  0  0  3  0  0  0  0  0  0
  162.0520  208.6820  151.8860 C   0  0  0  0  0  2  0  0  0  0  0  0
  162.2560  208.8880  150.3880 C   0  0  1  0  0  3  0  0  0  0  0  0
  160.6160  209.3510  153.8610 C   0  0  0  0  0  0  0  0  0  0  0  0
  159.1860  212.8380  151.9110 C   0  0  0  0  0  0  0  0  0  0  0  0
  162.6090  212.2160  148.4170 C   0  0  0  0  0  2  0  0  0  0  0  0
  160.9450  208.7730  156.0760 C   0  0  0  0  0  0  0  0  0  0  0  0
  161.3230  208.5390  154.7600 C   0  0  0  0  0  3  0  0  0  0  0  0
  158.2340  213.7260  152.4420 O   0  0  0  0  0  0  0  0  0  0  0  0
  157.1710  214.3280  151.7130 C   0  0  0  0  0  1  0  0  0  0  0  0
  161.1830  208.1740  149.5630 C   0  0  0  0  0  2  0  0  0  0  0  0
  161.8240  207.1340  148.6630 C   0  0  0  0  0  2  0  0  0  0  0  0
  161.5370  205.7330  149.1800 C   0  0  0  0  0  2  0  0  0  0  0  0
  161.3320  204.7640  148.0530 C   0  0  0  0  0  0  0  0  0  0  0  0
  161.2060  201.4690  149.6430 O   0  0  0  0  0  0  0  0  0  0  0  0
  161.1960  205.1930  146.8760 O   0  0  0  0  0  0  0  0  0  0  0  0
  161.2880  203.3510  148.2850 N   0  0  0  0  0  2  0  0  0  0  0  0
  160.9820  202.7030  149.5270 C   0  0  0  0  0  0  0  0  0  0  0  0
  160.3060  203.4310  150.6470 C   0  0  0  0  0  2  0  0  0  0  0  0
  161.1390  203.3660  151.9120 C   0  0  0  0  0  1  0  0  0  0  0  0
  1  3  1  6  0  0  0
  1 15  1  0  0  0  0
  1  4  1  0  0  0  0
  2  7  1  0  0  0  0
  2  5  1  0  0  0  0
  4  2  2  0  0  0  0
  5 11  1  0  0  0  0
  7 14  1  1  0  0  0
  7 16  1  0  0  0  0
  9  8  1  0  0  0  0
 10  4  1  0  0  0  0
 10 12  1  0  0  0  0
 11  9  1  0  0  0  0
 12 17  1  0  0  0  0
 13 10  2  0  0  0  0
 15 23  1  6  0  0  0
 15 14  1  0  0  0  0
 16  9  2  0  0  0  0
 16 20  1  0  0  0  0
 17 21  1  0  0  0  0
 17  5  2  0  0  0  0
 18  3  1  0  0  0  0
 18 13  1  0  0  0  0
 19  8  1  0  0  0  0
 19  6  1  0  0  0  0
 20 19  2  0  0  0  0
 22 21  1  0  0  0  0
 24 25  1  0  0  0  0
 24 23  1  0  0  0  0
 26 29  1  0  0  0  0
 26 25  1  0  0  0  0
 28 26  2  0  0  0  0
 29 30  1  0  0  0  0
 30 27  2  0  0  0  0
 30 31  1  0  0  0  0
 31 32  1  0  0  0  0
M  END
>  <MODEL>
4

>  <REMARK>
 VINA RESULT:      -7.0      3.189      6.100
  Name = 
  6 active torsions:
  status: ('A' for Active; 'I' for Inactive)
    1  A    between atoms: C_3  and  C_22
    2  A    between atoms: O_13  and  C_29
    3  A    between atoms: C_15  and  C_26
    4  A    between atoms: C_16  and  C_23
    5  A    between atoms: C_16  and  C_27
    6  A    between atoms: C_22  and  C_23
                            x       y       z     vdW  Elec       q    Type
                         _______ _______ _______ _____ _____    ______ ____

>  <TORSDO>
F 6

$$$$
=
 OpenBabel11062408213D

 32 36  0  0  1  0  0  0  0  0999 V2000
  161.0230  209.8430  155.2030 C   0  0  1  0  0  3  0  0  0  0  0  0
  160.9870  208.6100  153.0210 C   0  0  0  0  0  0  0  0  0  0  0  0
  160.5290  209.5520  156.6210 C   0  0  0  0  0  2  0  0  0  0  0  0
  161.0680  208.5810  154.3660 C   0  0  0  0  0  0  0  0  0  0  0  0
  161.1790  207.3490  152.2240 C   0  0  0  0  0  0  0  0  0  0  0  0
  162.8960  211.8230  148.1370 C   0  0  0  0  0  1  0  0  0  0  0  0
  160.6110  209.8940  152.2870 C   0  0  1  0  0  3  0  0  0  0  0  0
  162.2650  209.1570  148.7790 S   0  0  0  0  0  0  0  0  0  0  0  0
  161.5130  208.7880  150.2320 C   0  0  0  0  0  0  0  0  0  0  0  0
  161.2950  207.2880  155.0380 C   0  0  0  0  0  0  0  0  0  0  0  0
  161.1010  207.4330  150.7140 C   0  0  0  0  0  2  0  0  0  0  0  0
  161.3800  206.1290  154.2670 O   0  0  0  0  0  0  0  0  0  0  0  0
  161.3890  207.2120  156.3690 C   0  0  0  0  0  3  0  0  0  0  0  0
  160.8030  211.1740  153.1120 C   0  0  0  0  0  2  0  0  0  0  0  0
  160.2720  210.9970  154.5320 C   0  0  1  0  0  3  0  0  0  0  0  0
  161.2970  209.9500  150.9520 C   0  0  0  0  0  0  0  0  0  0  0  0
  161.3680  206.1640  152.8660 C   0  0  0  0  0  0  0  0  0  0  0  0
  161.3750  208.4400  157.2390 C   0  0  0  0  0  2  0  0  0  0  0  0
  162.3260  210.8160  149.0700 C   0  0  0  0  0  0  0  0  0  0  0  0
  161.7500  211.1070  150.3000 C   0  0  0  0  0  3  0  0  0  0  0  0
  161.5450  204.9320  152.2110 O   0  0  0  0  0  0  0  0  0  0  0  0
  160.6420  203.8340  152.2600 C   0  0  0  0  0  1  0  0  0  0  0  0
  158.7550  210.8080  154.5550 C   0  0  0  0  0  2  0  0  0  0  0  0
  158.1010  211.9300  155.3390 C   0  0  0  0  0  2  0  0  0  0  0  0
  157.8970  213.1500  154.4540 C   0  0  0  0  0  2  0  0  0  0  0  0
  156.4820  213.2410  153.9640 C   0  0  0  0  0  0  0  0  0  0  0  0
  156.7460  214.4530  150.5190 O   0  0  0  0  0  0  0  0  0  0  0  0
  155.5350  212.8740  154.7100 O   0  0  0  0  0  0  0  0  0  0  0  0
  156.1780  213.7390  152.6550 N   0  0  0  0  0  2  0  0  0  0  0  0
  157.0720  213.7810  151.5340 C   0  0  0  0  0  0  0  0  0  0  0  0
  158.3250  212.9630  151.4970 C   0  0  0  0  0  2  0  0  0  0  0  0
  159.4650  213.7520  150.8830 C   0  0  0  0  0  1  0  0  0  0  0  0
  1  3  1  1  0  0  0
  2  4  2  0  0  0  0
  3 18  1  0  0  0  0
  4 10  1  0  0  0  0
  4  1  1  0  0  0  0
  5 17  2  0  0  0  0
  5  2  1  0  0  0  0
  6 19  1  0  0  0  0
  7  2  1  0  0  0  0
  7 14  1  1  0  0  0
  8 19  1  0  0  0  0
  8  9  1  0  0  0  0
  9 11  1  0  0  0  0
  9 16  2  0  0  0  0
 10 13  2  0  0  0  0
 11  5  1  0  0  0  0
 12 10  1  0  0  0  0
 13 18  1  0  0  0  0
 14 15  1  0  0  0  0
 15 23  1  6  0  0  0
 15  1  1  0  0  0  0
 16  7  1  0  0  0  0
 17 12  1  0  0  0  0
 19 20  2  0  0  0  0
 20 16  1  0  0  0  0
 21 22  1  0  0  0  0
 21 17  1  0  0  0  0
 23 24  1  0  0  0  0
 25 24  1  0  0  0  0
 26 25  1  0  0  0  0
 26 28  2  0  0  0  0
 27 30  2  0  0  0  0
 29 26  1  0  0  0  0
 30 29  1  0  0  0  0
 31 30  1  0  0  0  0
 32 31  1  0  0  0  0
M  END
>  <MODEL>
5

>  <REMARK>
 VINA RESULT:      -6.5      4.640      8.584
  Name = 
  6 active torsions:
  status: ('A' for Active; 'I' for Inactive)
    1  A    between atoms: C_3  and  C_22
    2  A    between atoms: O_13  and  C_29
    3  A    between atoms: C_15  and  C_26
    4  A    between atoms: C_16  and  C_23
    5  A    between atoms: C_16  and  C_27
    6  A    between atoms: C_22  and  C_23
                            x       y       z     vdW  Elec       q    Type
                         _______ _______ _______ _____ _____    ______ ____

>  <TORSDO>
F 6

$$$$
=
 OpenBabel11062408213D

 32 36  0  0  1  0  0  0  0  0999 V2000
  160.6850  206.3650  150.6670 C   0  0  1  0  0  3  0  0  0  0  0  0
  161.1940  207.9120  152.5720 C   0  0  0  0  0  0  0  0  0  0  0  0
  161.1110  204.9480  150.2770 C   0  0  0  0  0  2  0  0  0  0  0  0
  161.0070  206.6580  152.1180 C   0  0  0  0  0  0  0  0  0  0  0  0
  161.3700  208.1660  154.0440 C   0  0  0  0  0  0  0  0  0  0  0  0
  159.0070  213.6310  151.9900 C   0  0  0  0  0  1  0  0  0  0  0  0
  161.3200  209.0840  151.6040 C   0  0  1  0  0  3  0  0  0  0  0  0
  160.1870  212.0280  153.9790 S   0  0  0  0  0  0  0  0  0  0  0  0
  160.8790  210.5520  153.5810 C   0  0  0  0  0  0  0  0  0  0  0  0
  161.0330  205.5410  153.0810 C   0  0  0  0  0  0  0  0  0  0  0  0
  161.5550  209.5940  154.5120 C   0  0  0  0  0  2  0  0  0  0  0  0
  161.2880  205.8110  154.4250 O   0  0  0  0  0  0  0  0  0  0  0  0
  160.8470  204.2800  152.6770 C   0  0  0  0  0  3  0  0  0  0  0  0
  160.7640  208.8080  150.1990 C   0  0  0  0  0  2  0  0  0  0  0  0
  161.1990  207.4340  149.6970 C   0  0  1  0  0  3  0  0  0  0  0  0
  160.7550  210.3320  152.2200 C   0  0  0  0  0  0  0  0  0  0  0  0
  161.4100  207.1190  154.9120 C   0  0  0  0  0  0  0  0  0  0  0  0
  160.4990  203.9440  151.2520 C   0  0  0  0  0  2  0  0  0  0  0  0
  159.7160  212.3910  152.4020 C   0  0  0  0  0  0  0  0  0  0  0  0
  160.1010  211.3710  151.5410 C   0  0  0  0  0  3  0  0  0  0  0  0
  161.5820  207.2520  156.3020 O   0  0  0  0  0  0  0  0  0  0  0  0
  160.5340  207.3110  157.2610 C   0  0  0  0  0  1  0  0  0  0  0  0
  162.7110  207.3580  149.4810 C   0  0  0  0  0  2  0  0  0  0  0  0
  163.0200  207.2070  148.0030 C   0  0  0  0  0  2  0  0  0  0  0  0
  162.6360  205.8170  147.5190 C   0  0  0  0  0  2  0  0  0  0  0  0
  161.5560  205.8770  146.4790 C   0  0  0  0  0  0  0  0  0  0  0  0
  160.9740  202.3960  145.5080 O   0  0  0  0  0  0  0  0  0  0  0  0
  161.0380  206.9860  146.1780 O   0  0  0  0  0  0  0  0  0  0  0  0
  161.0950  204.6950  145.8150 N   0  0  0  0  0  2  0  0  0  0  0  0
  161.2140  203.3490  146.2960 C   0  0  0  0  0  0  0  0  0  0  0  0
  161.5070  203.0520  147.7350 C   0  0  0  0  0  2  0  0  0  0  0  0
  161.0770  201.6430  148.0910 C   0  0  0  0  0  1  0  0  0  0  0  0
  1  3  1  6  0  0  0
  1  4  1  0  0  0  0
  2  5  1  0  0  0  0
  3 18  1  0  0  0  0
  4  2  2  0  0  0  0
  4 10  1  0  0  0  0
  5 11  1  0  0  0  0
  5 17  2  0  0  0  0
  6 19  1  0  0  0  0
  7 14  1  6  0  0  0
  7 16  1  0  0  0  0
  7  2  1  0  0  0  0
  9  8  1  0  0  0  0
  9 11  1  0  0  0  0
 10 12  1  0  0  0  0
 12 17  1  0  0  0  0
 13 10  2  0  0  0  0
 15 23  1  1  0  0  0
 15 14  1  0  0  0  0
 15  1  1  0  0  0  0
 16  9  2  0  0  0  0
 17 21  1  0  0  0  0
 18 13  1  0  0  0  0
 19  8  1  0  0  0  0
 20 16  1  0  0  0  0
 20 19  2  0  0  0  0
 21 22  1  0  0  0  0
 24 23  1  0  0  0  0
 25 24  1  0  0  0  0
 26 25  1  0  0  0  0
 27 30  2  0  0  0  0
 28 26  2  0  0  0  0
 29 30  1  0  0  0  0
 29 26  1  0  0  0  0
 30 31  1  0  0  0  0
 31 32  1  0  0  0  0
M  END
>  <MODEL>
6

>  <REMARK>
 VINA RESULT:      -6.4      2.031      2.717
  Name = 
  6 active torsions:
  status: ('A' for Active; 'I' for Inactive)
    1  A    between atoms: C_3  and  C_22
    2  A    between atoms: O_13  and  C_29
    3  A    between atoms: C_15  and  C_26
    4  A    between atoms: C_16  and  C_23
    5  A    between atoms: C_16  and  C_27
    6  A    between atoms: C_22  and  C_23
                            x       y       z     vdW  Elec       q    Type
                         _______ _______ _______ _____ _____    ______ ____

>  <TORSDO>
F 6

$$$$
=
 OpenBabel11062408213D

 32 36  0  0  1  0  0  0  0  0999 V2000
  160.8830  210.0310  154.9920 C   0  0  1  0  0  3  0  0  0  0  0  0
  160.9630  208.7490  152.8390 C   0  0  0  0  0  0  0  0  0  0  0  0
  160.3360  209.7610  156.3950 C   0  0  0  0  0  2  0  0  0  0  0  0
  160.9890  208.7520  154.1860 C   0  0  0  0  0  0  0  0  0  0  0  0
  161.2140  207.4750  152.0800 C   0  0  0  0  0  0  0  0  0  0  0  0
  163.0120  211.8920  147.9650 C   0  0  0  0  0  1  0  0  0  0  0  0
  160.5930  210.0080  152.0610 C   0  0  1  0  0  3  0  0  0  0  0  0
  162.4070  209.2280  148.6420 S   0  0  0  0  0  0  0  0  0  0  0  0
  161.6020  208.8760  150.0710 C   0  0  0  0  0  0  0  0  0  0  0  0
  161.2130  207.4800  154.8970 C   0  0  0  0  0  0  0  0  0  0  0  0
  161.1970  207.5230  150.5670 C   0  0  0  0  0  2  0  0  0  0  0  0
  161.3530  206.3060  154.1570 O   0  0  0  0  0  0  0  0  0  0  0  0
  161.2530  207.4350  156.2320 C   0  0  0  0  0  3  0  0  0  0  0  0
  160.7250  211.3100  152.8630 C   0  0  0  0  0  2  0  0  0  0  0  0
  160.1390  211.1540  154.2640 C   0  0  1  0  0  3  0  0  0  0  0  0
  161.3330  210.0490  150.7550 C   0  0  0  0  0  0  0  0  0  0  0  0
  161.3990  206.3090  152.7560 C   0  0  0  0  0  0  0  0  0  0  0  0
  161.1780  208.6820  157.0730 C   0  0  0  0  0  2  0  0  0  0  0  0
  162.4230  210.8940  148.8970 C   0  0  0  0  0  0  0  0  0  0  0  0
  161.7900  211.2010  150.0950 C   0  0  0  0  0  3  0  0  0  0  0  0
  161.6280  205.0660  152.1380 O   0  0  0  0  0  0  0  0  0  0  0  0
  160.8410  203.8960  152.3220 C   0  0  0  0  0  1  0  0  0  0  0  0
  158.6260  210.9340  154.2280 C   0  0  0  0  0  2  0  0  0  0  0  0
  157.9980  211.8000  153.1510 C   0  0  0  0  0  2  0  0  0  0  0  0
  157.8980  213.2430  153.6200 C   0  0  0  0  0  2  0  0  0  0  0  0
  156.4820  213.7380  153.5720 C   0  0  0  0  0  0  0  0  0  0  0  0
  155.0920  212.9690  156.8710 O   0  0  0  0  0  0  0  0  0  0  0  0
  156.0580  214.3240  152.5400 O   0  0  0  0  0  0  0  0  0  0  0  0
  155.5930  213.5580  154.6800 N   0  0  0  0  0  2  0  0  0  0  0  0
  155.9710  213.3390  156.0470 C   0  0  0  0  0  0  0  0  0  0  0  0
  157.3530  213.6420  156.5380 C   0  0  0  0  0  2  0  0  0  0  0  0
  157.9400  212.4470  157.2610 C   0  0  0  0  0  1  0  0  0  0  0  0
  1  3  1  1  0  0  0
  2  4  2  0  0  0  0
  3 18  1  0  0  0  0
  4 10  1  0  0  0  0
  4  1  1  0  0  0  0
  5 17  2  0  0  0  0
  5  2  1  0  0  0  0
  6 19  1  0  0  0  0
  7  2  1  0  0  0  0
  7 14  1  1  0  0  0
  8 19  1  0  0  0  0
  8  9  1  0  0  0  0
  9 11  1  0  0  0  0
  9 16  2  0  0  0  0
 10 13  2  0  0  0  0
 11  5  1  0  0  0  0
 12 10  1  0  0  0  0
 13 18  1  0  0  0  0
 14 15  1  0  0  0  0
 15 23  1  6  0  0  0
 15  1  1  0  0  0  0
 16  7  1  0  0  0  0
 17 12  1  0  0  0  0
 19 20  2  0  0  0  0
 20 16  1  0  0  0  0
 21 22  1  0  0  0  0
 21 17  1  0  0  0  0
 24 25  1  0  0  0  0
 24 23  1  0  0  0  0
 26 25  1  0  0  0  0
 26 29  1  0  0  0  0
 28 26  2  0  0  0  0
 29 30  1  0  0  0  0
 30 31  1  0  0  0  0
 30 27  2  0  0  0  0
 31 32  1  0  0  0  0
M  END
>  <MODEL>
7

>  <REMARK>
 VINA RESULT:      -6.1      4.933      9.091
  Name = 
  6 active torsions:
  status: ('A' for Active; 'I' for Inactive)
    1  A    between atoms: C_3  and  C_22
    2  A    between atoms: O_13  and  C_29
    3  A    between atoms: C_15  and  C_26
    4  A    between atoms: C_16  and  C_23
    5  A    between atoms: C_16  and  C_27
    6  A    between atoms: C_22  and  C_23
                            x       y       z     vdW  Elec       q    Type
                         _______ _______ _______ _____ _____    ______ ____

>  <TORSDO>
F 6

$$$$
=
 OpenBabel11062408213D

 32 36  0  0  1  0  0  0  0  0999 V2000
  162.3730  206.5670  150.0950 C   0  0  1  0  0  3  0  0  0  0  0  0
  161.4500  208.6440  151.1510 C   0  0  0  0  0  0  0  0  0  0  0  0
  162.3270  205.9490  148.6960 C   0  0  0  0  0  2  0  0  0  0  0  0
  161.9570  208.0230  150.0680 C   0  0  0  0  0  0  0  0  0  0  0  0
  161.1840  210.1240  151.1200 C   0  0  0  0  0  0  0  0  0  0  0  0
  162.1350  209.0360  157.2510 C   0  0  0  0  0  1  0  0  0  0  0  0
  161.0530  207.8510  152.3930 C   0  0  1  0  0  3  0  0  0  0  0  0
  161.3550  210.6950  155.1150 S   0  0  0  0  0  0  0  0  0  0  0  0
  161.0660  210.0450  153.5960 C   0  0  0  0  0  0  0  0  0  0  0  0
  162.1930  208.8090  148.8430 C   0  0  0  0  0  0  0  0  0  0  0  0
  160.6350  210.7830  152.3680 C   0  0  0  0  0  2  0  0  0  0  0  0
  161.8500  210.1610  148.8280 O   0  0  0  0  0  0  0  0  0  0  0  0
  162.7000  208.2370  147.7460 C   0  0  0  0  0  3  0  0  0  0  0  0
  161.6900  206.4570  152.4850 C   0  0  0  0  0  2  0  0  0  0  0  0
  161.6280  205.7350  151.1420 C   0  0  1  0  0  3  0  0  0  0  0  0
  161.2710  208.6760  153.6290 C   0  0  0  0  0  0  0  0  0  0  0  0
  161.3900  210.8250  149.9730 C   0  0  0  0  0  0  0  0  0  0  0  0
  163.1520  206.8010  147.7330 C   0  0  0  0  0  2  0  0  0  0  0  0
  161.7530  209.2190  155.8250 C   0  0  0  0  0  0  0  0  0  0  0  0
  161.6560  208.1960  154.8900 C   0  0  0  0  0  3  0  0  0  0  0  0
  161.1610  212.2070  149.8400 O   0  0  0  0  0  0  0  0  0  0  0  0
  160.9510  212.8940  148.6140 C   0  0  0  0  0  1  0  0  0  0  0  0
  160.1890  205.4190  150.7320 C   0  0  0  0  0  2  0  0  0  0  0  0
  160.0110  203.9220  150.5610 C   0  0  0  0  0  2  0  0  0  0  0  0
  160.5730  203.4690  149.2230 C   0  0  0  0  0  2  0  0  0  0  0  0
  160.6810  201.9740  149.1520 C   0  0  0  0  0  0  0  0  0  0  0  0
  160.4950  201.1750  145.5830 O   0  0  0  0  0  0  0  0  0  0  0  0
  160.8540  201.3070  150.2070 O   0  0  0  0  0  0  0  0  0  0  0  0
  160.5900  201.2800  147.9020 N   0  0  0  0  0  2  0  0  0  0  0  0
  160.8350  201.8340  146.6020 C   0  0  0  0  0  0  0  0  0  0  0  0
  161.5810  203.1200  146.4250 C   0  0  0  0  0  2  0  0  0  0  0  0
  161.1830  203.7980  145.1290 C   0  0  0  0  0  1  0  0  0  0  0  0
  1  3  1  6  0  0  0
  1 15  1  0  0  0  0
  2  7  1  0  0  0  0
  4  1  1  0  0  0  0
  4  2  2  0  0  0  0
  5  2  1  0  0  0  0
  5 11  1  0  0  0  0
  7 14  1  1  0  0  0
  7 16  1  0  0  0  0
  8 19  1  0  0  0  0
  9 16  2  0  0  0  0
  9  8  1  0  0  0  0
 10  4  1  0  0  0  0
 11  9  1  0  0  0  0
 12 10  1  0  0  0  0
 12 17  1  0  0  0  0
 13 10  2  0  0  0  0
 15 23  1  6  0  0  0
 15 14  1  0  0  0  0
 16 20  1  0  0  0  0
 17  5  2  0  0  0  0
 18 13  1  0  0  0  0
 18  3  1  0  0  0  0
 19  6  1  0  0  0  0
 20 19  2  0  0  0  0
 21 17  1  0  0  0  0
 22 21  1  0  0  0  0
 24 23  1  0  0  0  0
 25 24  1  0  0  0  0
 26 25  1  0  0  0  0
 26 28  2  0  0  0  0
 27 30  2  0  0  0  0
 29 26  1  0  0  0  0
 30 29  1  0  0  0  0
 31 30  1  0  0  0  0
 32 31  1  0  0  0  0
M  END
>  <MODEL>
8

>  <REMARK>
 VINA RESULT:      -5.9      2.466      4.934
  Name = 
  6 active torsions:
  status: ('A' for Active; 'I' for Inactive)
    1  A    between atoms: C_3  and  C_22
    2  A    between atoms: O_13  and  C_29
    3  A    between atoms: C_15  and  C_26
    4  A    between atoms: C_16  and  C_23
    5  A    between atoms: C_16  and  C_27
    6  A    between atoms: C_22  and  C_23
                            x       y       z     vdW  Elec       q    Type
                         _______ _______ _______ _____ _____    ______ ____

>  <TORSDO>
F 6

$$$$
=
 OpenBabel11062408213D

 32 36  0  0  1  0  0  0  0  0999 V2000
  159.5870  211.6470  152.4360 C   0  0  1  0  0  3  0  0  0  0  0  0
  161.1360  211.0080  150.5730 C   0  0  0  0  0  0  0  0  0  0  0  0
  159.3210  212.9230  153.2370 C   0  0  0  0  0  2  0  0  0  0  0  0
  160.3720  211.9400  151.1750 C   0  0  0  0  0  0  0  0  0  0  0  0
  161.7830  211.3010  149.2470 C   0  0  0  0  0  0  0  0  0  0  0  0
  161.2180  205.0300  149.1330 C   0  0  0  0  0  1  0  0  0  0  0  0
  161.4340  209.6780  151.2580 C   0  0  1  0  0  3  0  0  0  0  0  0
  162.1870  207.4540  148.0840 S   0  0  0  0  0  0  0  0  0  0  0  0
  162.1320  208.8590  149.0000 C   0  0  0  0  0  0  0  0  0  0  0  0
  160.2290  213.2630  150.5390 C   0  0  0  0  0  0  0  0  0  0  0  0
  162.6150  210.2160  148.5960 C   0  0  0  0  0  2  0  0  0  0  0  0
  160.9180  213.5240  149.3540 O   0  0  0  0  0  0  0  0  0  0  0  0
  159.4770  214.2170  151.0960 C   0  0  0  0  0  3  0  0  0  0  0  0
  160.4600  209.3170  152.3890 C   0  0  0  0  0  2  0  0  0  0  0  0
  160.1880  210.5220  153.2850 C   0  0  1  0  0  3  0  0  0  0  0  0
  161.5730  208.5860  150.2360 C   0  0  0  0  0  0  0  0  0  0  0  0
  161.6540  212.5350  148.6880 C   0  0  0  0  0  0  0  0  0  0  0  0
  158.6590  213.9640  152.3350 C   0  0  0  0  0  2  0  0  0  0  0  0
  161.4840  206.4860  149.2710 C   0  0  0  0  0  0  0  0  0  0  0  0
  161.2070  207.2410  150.4030 C   0  0  0  0  0  3  0  0  0  0  0  0
  162.2300  212.9090  147.4600 O   0  0  0  0  0  0  0  0  0  0  0  0
  161.9890  214.1310  146.7750 C   0  0  0  0  0  1  0  0  0  0  0  0
  161.4390  210.9600  154.0470 C   0  0  0  0  0  2  0  0  0  0  0  0
  161.0550  211.5230  155.4020 C   0  0  0  0  0  2  0  0  0  0  0  0
  160.6360  210.4040  156.3440 C   0  0  0  0  0  2  0  0  0  0  0  0
  161.8280  209.6980  156.9210 C   0  0  0  0  0  0  0  0  0  0  0  0
  160.7920  206.2030  157.2610 O   0  0  0  0  0  0  0  0  0  0  0  0
  162.8960  210.3360  157.1240 O   0  0  0  0  0  0  0  0  0  0  0  0
  161.7800  208.3050  157.2510 N   0  0  0  0  0  2  0  0  0  0  0  0
  160.8710  207.3350  156.7130 C   0  0  0  0  0  0  0  0  0  0  0  0
  160.0970  207.5950  155.4570 C   0  0  0  0  0  2  0  0  0  0  0  0
  160.7210  206.8690  154.2820 C   0  0  0  0  0  1  0  0  0  0  0  0
  1  3  1  1  0  0  0
  1 15  1  0  0  0  0
  2  4  2  0  0  0  0
  2  7  1  0  0  0  0
  4  1  1  0  0  0  0
  5  2  1  0  0  0  0
  6 19  1  0  0  0  0
  7 14  1  1  0  0  0
  8  9  1  0  0  0  0
  8 19  1  0  0  0  0
  9 16  2  0  0  0  0
 10 13  2  0  0  0  0
 10  4  1  0  0  0  0
 11  9  1  0  0  0  0
 11  5  1  0  0  0  0
 12 10  1  0  0  0  0
 13 18  1  0  0  0  0
 14 15  1  0  0  0  0
 15 23  1  6  0  0  0
 16 20  1  0  0  0  0
 16  7  1  0  0  0  0
 17  5  2  0  0  0  0
 17 12  1  0  0  0  0
 18  3  1  0  0  0  0
 19 20  2  0  0  0  0
 21 17  1  0  0  0  0
 22 21  1  0  0  0  0
 23 24  1  0  0  0  0
 24 25  1  0  0  0  0
 25 26  1  0  0  0  0
 26 28  2  0  0  0  0
 26 29  1  0  0  0  0
 30 29  1  0  0  0  0
 30 27  2  0  0  0  0
 31 30  1  0  0  0  0
 32 31  1  0  0  0  0
M  END
>  <MODEL>
9

>  <REMARK>
 VINA RESULT:      -5.9      4.488      8.999
  Name = 
  6 active torsions:
  status: ('A' for Active; 'I' for Inactive)
    1  A    between atoms: C_3  and  C_22
    2  A    between atoms: O_13  and  C_29
    3  A    between atoms: C_15  and  C_26
    4  A    between atoms: C_16  and  C_23
    5  A    between atoms: C_16  and  C_27
    6  A    between atoms: C_22  and  C_23
                            x       y       z     vdW  Elec       q    Type
                         _______ _______ _______ _____ _____    ______ ____

>  <TORSDO>
F 6

$$$$
