=
 OpenBabel11062409083D

 37 40  0  0  1  0  0  0  0  0999 V2000
  157.9830  211.9300  151.5540 C   0  0  2  0  0  3  0  0  0  0  0  0
  159.9000  210.9790  154.8190 C   0  0  0  0  0  0  0  0  0  0  0  0
  162.6090  210.4450  152.2860 C   0  0  0  0  0  2  0  0  0  0  0  0
  158.8150  213.0010  150.9970 N   0  0  0  0  0  0  0  0  0  0  0  0
  159.2700  211.2430  147.0330 C   0  0  0  0  0  2  0  0  0  0  0  0
  160.1860  208.8650  153.7060 C   0  0  0  0  0  2  0  0  0  0  0  0
  157.2830  211.9700  145.7520 C   0  0  0  0  0  1  0  0  0  0  0  0
  156.5240  214.4500  148.3520 C   0  0  0  0  0  1  0  0  0  0  0  0
  162.0370  210.4550  153.7130 C   0  0  0  0  0  2  0  0  0  0  0  0
  161.2510  211.7100  148.3240 C   0  0  0  0  0  0  0  0  0  0  0  0
  161.1390  207.9510  152.9170 C   0  0  0  0  0  2  0  0  0  0  0  0
  158.4440  213.6060  149.7460 C   0  0  0  0  0  0  0  0  0  0  0  0
  158.5770  212.3920  153.8570 O   0  0  0  0  0  0  0  0  0  0  0  0
  160.6960  211.8580  155.7730 C   0  0  0  0  0  2  0  0  0  0  0  0
  162.1790  210.0600  149.8370 C   0  0  0  0  0  2  0  0  0  0  0  0
  161.3340  208.3650  151.4560 C   0  0  0  0  0  2  0  0  0  0  0  0
  158.5540  211.3230  154.6290 O   0  0  0  0  0  0  0  0  0  0  0  0
  157.1310  213.2690  149.0960 C   0  0  2  0  0  3  0  0  0  0  0  0
  158.1070  212.2200  146.9970 C   0  0  1  0  0  3  0  0  0  0  0  0
  161.6470  209.8510  151.2430 C   0  0  1  0  0  3  0  0  0  0  0  0
  157.5040  212.2300  152.9740 C   0  0  0  0  0  2  0  0  0  0  0  0
  160.5750  210.2870  153.7020 N   0  0  2  0  0  0  0  0  0  0  0  0
  160.5680  211.9630  147.2370 C   0  0  0  0  0  0  0  0  0  0  0  0
  160.2210  210.4760  156.2150 C   0  0  0  0  0  2  0  0  0  0  0  0
  157.2260  212.0190  148.2230 C   0  0  0  0  0  2  0  0  0  0  0  0
  159.2490  214.3820  149.1590 O   0  0  0  0  0  0  0  0  0  0  0  0
  158.6550  210.7080  151.4970 O   0  0  0  0  0  1  0  0  0  0  0  0
  161.9450  211.4640  149.4000 C   0  0  0  0  0  3  0  0  0  0  0  0
  162.2720  213.6240  146.4480 C   0  0  0  0  0  3  0  0  0  0  0  0
  161.1460  212.8290  146.1820 C   0  0  0  0  0  0  0  0  0  0  0  0
  160.5850  212.8690  144.9390 N   0  0  0  0  0  0  0  0  0  0  0  0
  160.4930  213.6540  142.7260 F   0  0  0  0  0  0  0  0  0  0  0  0
  162.2070  214.4470  144.1790 C   0  0  0  0  0  3  0  0  0  0  0  0
  161.0850  213.6500  143.9440 C   0  0  0  0  0  0  0  0  0  0  0  0
  162.8020  214.4310  145.4410 C   0  0  0  0  0  3  0  0  0  0  0  0
  160.7760  214.4530  150.8740 C   0  0  0  0  0  1  0  0  0  0  0  0
  160.1300  213.2710  151.5740 C   0  0  0  0  0  2  0  0  0  0  0  0
  1 27  1  1  0  0  0
  1 21  1  0  0  0  0
  2 14  1  0  0  0  0
  2 24  1  0  0  0  0
  3  9  1  0  0  0  0
  4  1  1  0  0  0  0
  4 37  1  0  0  0  0
  5 23  1  0  0  0  0
 10 28  2  0  0  0  0
 11  6  1  0  0  0  0
 12  4  1  0  0  0  0
 13 17  1  0  0  0  0
 14 24  1  0  0  0  0
 16 11  1  0  0  0  0
 17  2  1  0  0  0  0
 18  8  1  6  0  0  0
 18 12  1  0  0  0  0
 19  7  1  6  0  0  0
 19  5  1  0  0  0  0
 19 25  1  0  0  0  0
 20 15  1  6  0  0  0
 20 16  1  0  0  0  0
 20  3  1  0  0  0  0
 21 13  1  0  0  0  0
 22  6  1  1  0  0  0
 22  9  1  0  0  0  0
 22  2  1  0  0  0  0
 23 10  2  0  0  0  0
 25 18  1  0  0  0  0
 26 12  2  0  0  0  0
 28 15  1  0  0  0  0
 30 29  1  0  0  0  0
 30 23  1  0  0  0  0
 31 30  2  0  0  0  0
 32 34  1  0  0  0  0
 33 35  1  0  0  0  0
 34 33  2  0  0  0  0
 34 31  1  0  0  0  0
 35 29  2  0  0  0  0
 36 37  1  0  0  0  0
M  END
>  <MODEL>
1

>  <REMARK>
 VINA RESULT:       2.7      0.000      0.000
  Name = 
  2 active torsions:
  status: ('A' for Active; 'I' for Inactive)
    1  A    between atoms: N_5  and  C_23
    2  A    between atoms: C_6  and  C_31
                            x       y       z     vdW  Elec       q    Type
                         _______ _______ _______ _____ _____    ______ ____

>  <TORSDO>
F 2

$$$$
=
 OpenBabel11062409083D

 37 40  0  0  1  0  0  0  0  0999 V2000
  162.2150  210.9440  152.4660 C   0  0  2  0  0  3  0  0  0  0  0  0
  160.7110  209.6300  155.8210 C   0  0  0  0  0  0  0  0  0  0  0  0
  157.7410  211.4470  154.4330 C   0  0  0  0  0  2  0  0  0  0  0  0
  161.3000  210.3860  151.4670 N   0  0  0  0  0  0  0  0  0  0  0  0
  160.4330  214.1550  149.4540 C   0  0  0  0  0  2  0  0  0  0  0  0
  160.3490  211.9690  156.2540 C   0  0  0  0  0  2  0  0  0  0  0  0
  162.2410  214.4530  147.7930 C   0  0  0  0  0  1  0  0  0  0  0  0
  163.2360  210.9480  148.2600 C   0  0  0  0  0  1  0  0  0  0  0  0
  158.4740  210.6060  155.4920 C   0  0  0  0  0  2  0  0  0  0  0  0
  158.6030  212.9030  150.3990 C   0  0  0  0  0  0  0  0  0  0  0  0
  159.3330  213.1250  156.2860 C   0  0  0  0  0  2  0  0  0  0  0  0
  161.5100  210.6790  150.0750 C   0  0  0  0  0  0  0  0  0  0  0  0
  161.8810  209.1550  154.0660 O   0  0  0  0  0  0  0  0  0  0  0  0
  160.0090  208.3150  156.1240 C   0  0  0  0  0  2  0  0  0  0  0  0
  157.8950  213.2540  152.6900 C   0  0  0  0  0  2  0  0  0  0  0  0
  158.9610  213.6680  154.9040 C   0  0  0  0  0  2  0  0  0  0  0  0
  162.0170  209.5410  155.3200 O   0  0  0  0  0  0  0  0  0  0  0  0
  162.7460  211.4070  149.6270 C   0  0  2  0  0  3  0  0  0  0  0  0
  161.5610  213.4600  148.7100 C   0  0  1  0  0  3  0  0  0  0  0  0
  158.5900  212.5980  153.8680 C   0  0  1  0  0  3  0  0  0  0  0  0
  162.8470  209.8730  153.3540 C   0  0  0  0  0  2  0  0  0  0  0  0
  159.9280  210.8210  155.4300 N   0  0  2  0  0  0  0  0  0  0  0  0
  159.1510  213.3930  149.3160 C   0  0  0  0  0  0  0  0  0  0  0  0
  160.5650  209.1710  157.2600 C   0  0  0  0  0  2  0  0  0  0  0  0
  162.5810  212.9240  149.7050 C   0  0  0  0  0  2  0  0  0  0  0  0
  160.6240  210.3760  149.2260 O   0  0  0  0  0  0  0  0  0  0  0  0
  161.5710  211.9160  153.2320 O   0  0  0  0  0  1  0  0  0  0  0  0
  158.0440  212.4130  151.4700 C   0  0  0  0  0  3  0  0  0  0  0  0
  157.1650  213.8900  147.8700 C   0  0  0  0  0  3  0  0  0  0  0  0
  158.4340  213.3120  148.0210 C   0  0  0  0  0  0  0  0  0  0  0  0
  159.0000  212.6680  146.9600 N   0  0  0  0  0  0  0  0  0  0  0  0
  158.9800  211.9210  144.7320 F   0  0  0  0  0  0  0  0  0  0  0  0
  157.1150  213.1410  145.5750 C   0  0  0  0  0  3  0  0  0  0  0  0
  158.3760  212.5710  145.7550 C   0  0  0  0  0  0  0  0  0  0  0  0
  156.5070  213.8030  146.6420 C   0  0  0  0  0  3  0  0  0  0  0  0
  160.2470  208.2560  152.0380 C   0  0  0  0  0  1  0  0  0  0  0  0
  160.0540  209.7560  151.8980 C   0  0  0  0  0  2  0  0  0  0  0  0
  1 27  1  1  0  0  0
  1 21  1  0  0  0  0
  2 14  1  0  0  0  0
  2 24  1  0  0  0  0
  3  9  1  0  0  0  0
  4 37  1  0  0  0  0
  4  1  1  0  0  0  0
  6 11  1  0  0  0  0
 10 28  2  0  0  0  0
 12  4  1  0  0  0  0
 13 17  1  0  0  0  0
 14 24  1  0  0  0  0
 16 11  1  0  0  0  0
 17  2  1  0  0  0  0
 18  8  1  6  0  0  0
 18 25  1  0  0  0  0
 18 12  1  0  0  0  0
 19  7  1  6  0  0  0
 19  5  1  0  0  0  0
 19 25  1  0  0  0  0
 20 15  1  6  0  0  0
 20  3  1  0  0  0  0
 20 16  1  0  0  0  0
 21 13  1  0  0  0  0
 22  9  1  1  0  0  0
 22  2  1  0  0  0  0
 22  6  1  0  0  0  0
 23  5  1  0  0  0  0
 23 10  2  0  0  0  0
 26 12  2  0  0  0  0
 28 15  1  0  0  0  0
 29 30  1  0  0  0  0
 30 23  1  0  0  0  0
 31 30  2  0  0  0  0
 32 34  1  0  0  0  0
 33 34  2  0  0  0  0
 33 35  1  0  0  0  0
 34 31  1  0  0  0  0
 35 29  2  0  0  0  0
 37 36  1  0  0  0  0
M  END
>  <MODEL>
2

>  <REMARK>
 VINA RESULT:       5.4      2.122      4.675
  Name = 
  2 active torsions:
  status: ('A' for Active; 'I' for Inactive)
    1  A    between atoms: N_5  and  C_23
    2  A    between atoms: C_6  and  C_31
                            x       y       z     vdW  Elec       q    Type
                         _______ _______ _______ _____ _____    ______ ____

>  <TORSDO>
F 2

$$$$
