=
 OpenBabel11052422053D

 25 28  0  0  1  0  0  0  0  0999 V2000
  161.3540  205.0020  149.1920 C   0  0  0  0  0  0  0  0  0  0  0  0
  161.3870  206.0220  150.1490 C   0  0  0  0  0  0  0  0  0  0  0  0
  161.8570  206.5320  147.3870 C   0  0  0  0  0  3  0  0  0  0  0  0
  161.1200  203.6520  149.2810 C   0  0  0  0  0  0  0  0  0  0  0  0
  160.7470  200.9520  148.7990 C   0  0  0  0  0  3  0  0  0  0  0  0
  161.8870  207.5790  148.3210 C   0  0  0  0  0  3  0  0  0  0  0  0
  161.2230  203.1610  147.9960 C   0  0  0  0  0  0  0  0  0  0  0  0
  161.0410  201.8070  147.7210 C   0  0  0  0  0  2  0  0  0  0  0  0
  161.7000  208.4550  150.6630 C   0  0  0  0  0  0  0  0  0  0  0  0
  161.9550  209.6270  150.2740 O   0  0  0  0  0  0  0  0  0  0  0  0
  161.0820  205.7410  151.5940 C   0  0  0  0  0  2  0  0  0  0  0  0
  160.6440  201.4600  150.1130 C   0  0  0  0  0  3  0  0  0  0  0  0
  161.5850  205.2480  147.8520 C   0  0  0  0  0  0  0  0  0  0  0  0
  161.5100  204.1280  147.0960 N   0  0  0  0  0  0  0  0  0  0  0  0
  161.4040  208.2200  152.1120 C   0  0  0  0  0  2  0  0  0  0  0  0
  160.8310  202.8290  150.3680 C   0  0  0  0  0  3  0  0  0  0  0  0
  161.7440  206.7780  152.5120 C   0  0  1  0  0  3  0  0  0  0  0  0
  161.6490  207.3400  149.6950 C   0  0  0  0  0  0  0  0  0  0  0  0
  161.5320  206.5200  153.8840 O   0  0  0  0  0  0  0  0  0  0  0  0
  160.8170  207.5920  154.4490 C   0  0  0  0  0  2  0  0  0  0  0  0
  160.1520  207.1510  155.7430 C   0  0  0  0  0  2  0  0  0  0  0  0
  160.8510  207.7560  156.9530 C   0  0  0  0  0  2  0  0  0  0  0  0
  161.4790  209.0970  156.6090 C   0  0  0  0  0  3  0  0  0  0  0  0
  162.7060  209.2140  157.2610 O   0  0  0  0  0  1  0  0  0  0  0  0
  160.6390  210.1330  157.0160 O   0  0  0  0  0  1  0  0  0  0  0  0
  1  4  1  0  0  0  0
  1  2  2  0  0  0  0
  2 11  1  0  0  0  0
  3 13  2  0  0  0  0
  3  6  1  0  0  0  0
  4 16  2  0  0  0  0
  5 12  2  0  0  0  0
  6 18  2  0  0  0  0
  7  4  1  0  0  0  0
  8  7  1  0  0  0  0
  8  5  1  0  0  0  0
  9 15  1  0  0  0  0
 10  9  2  0  0  0  0
 11 17  1  0  0  0  0
 12 16  1  0  0  0  0
 13  1  1  0  0  0  0
 14 13  1  0  0  0  0
 14  7  2  0  0  0  0
 15 17  1  0  0  0  0
 17 19  1  1  0  0  0
 18  2  1  0  0  0  0
 18  9  1  0  0  0  0
 19 20  1  0  0  0  0
 20 21  1  0  0  0  0
 21 22  1  0  0  0  0
 23 22  1  0  0  0  0
 23 25  1  0  0  0  0
 23 24  1  0  0  0  0
M  END
>  <MODEL>
1

>  <REMARK>
 VINA RESULT:      -9.6      0.000      0.000
  Name = 
  5 active torsions:
  status: ('A' for Active; 'I' for Inactive)
    1  A    between atoms: C_2  and  C_21
    2  A    between atoms: O_6  and  C_15
    3  A    between atoms: O_6  and  C_23
    4  A    between atoms: C_15  and  C_25
    5  A    between atoms: C_21  and  C_25
                            x       y       z     vdW  Elec       q    Type
                         _______ _______ _______ _____ _____    ______ ____

>  <TORSDO>
F 5

$$$$
=
 OpenBabel11052422053D

 25 28  0  0  1  0  0  0  0  0999 V2000
  161.2420  204.4660  149.5670 C   0  0  0  0  0  0  0  0  0  0  0  0
  161.5130  205.7690  149.9990 C   0  0  0  0  0  0  0  0  0  0  0  0
  160.7620  203.7050  151.8120 C   0  0  0  0  0  3  0  0  0  0  0  0
  161.2550  203.8780  148.3260 C   0  0  0  0  0  0  0  0  0  0  0  0
  161.0980  202.1490  146.1710 C   0  0  0  0  0  3  0  0  0  0  0  0
  161.0360  205.0000  152.2790 C   0  0  0  0  0  3  0  0  0  0  0  0
  160.8960  202.5610  148.5240 C   0  0  0  0  0  0  0  0  0  0  0  0
  160.8080  201.6660  147.4600 C   0  0  0  0  0  2  0  0  0  0  0  0
  161.6870  207.3920  151.9020 C   0  0  0  0  0  0  0  0  0  0  0  0
  161.5820  207.6430  153.1330 O   0  0  0  0  0  0  0  0  0  0  0  0
  161.9610  206.8300  149.0340 C   0  0  0  0  0  2  0  0  0  0  0  0
  161.4650  203.4980  145.9730 C   0  0  0  0  0  3  0  0  0  0  0  0
  160.8750  203.4650  150.4460 C   0  0  0  0  0  0  0  0  0  0  0  0
  160.6560  202.2820  149.8250 N   0  0  0  0  0  0  0  0  0  0  0  0
  162.1350  208.4800  150.9740 C   0  0  0  0  0  2  0  0  0  0  0  0
  161.5480  204.3850  147.0610 C   0  0  0  0  0  3  0  0  0  0  0  0
  161.6140  208.2330  149.5520 C   0  0  1  0  0  3  0  0  0  0  0  0
  161.4170  206.0320  151.3900 C   0  0  0  0  0  0  0  0  0  0  0  0
  161.9660  209.2610  148.6490 O   0  0  0  0  0  0  0  0  0  0  0  0
  162.0190  210.4840  149.3410 C   0  0  0  0  0  2  0  0  0  0  0  0
  162.2590  211.6260  148.3660 C   0  0  0  0  0  2  0  0  0  0  0  0
  161.4270  212.8460  148.7350 C   0  0  0  0  0  2  0  0  0  0  0  0
  160.3780  213.1370  147.6720 C   0  0  0  0  0  3  0  0  0  0  0  0
  159.1260  213.2440  148.2750 O   0  0  0  0  0  1  0  0  0  0  0  0
  160.3530  212.1050  146.7350 O   0  0  0  0  0  1  0  0  0  0  0  0
  1  2  2  0  0  0  0
  1 13  1  0  0  0  0
  2 18  1  0  0  0  0
  3  6  1  0  0  0  0
  4  7  1  0  0  0  0
  4  1  1  0  0  0  0
  5  8  1  0  0  0  0
  7 14  2  0  0  0  0
  8  7  1  0  0  0  0
  9 10  2  0  0  0  0
 11 17  1  0  0  0  0
 11  2  1  0  0  0  0
 12  5  2  0  0  0  0
 12 16  1  0  0  0  0
 13  3  2  0  0  0  0
 14 13  1  0  0  0  0
 15  9  1  0  0  0  0
 16  4  2  0  0  0  0
 17 19  1  6  0  0  0
 17 15  1  0  0  0  0
 18  9  1  0  0  0  0
 18  6  2  0  0  0  0
 19 20  1  0  0  0  0
 21 22  1  0  0  0  0
 21 20  1  0  0  0  0
 23 24  1  0  0  0  0
 23 22  1  0  0  0  0
 25 23  1  0  0  0  0
M  END
>  <MODEL>
2

>  <REMARK>
 VINA RESULT:      -9.3      2.507      5.374
  Name = 
  5 active torsions:
  status: ('A' for Active; 'I' for Inactive)
    1  A    between atoms: C_2  and  C_21
    2  A    between atoms: O_6  and  C_15
    3  A    between atoms: O_6  and  C_23
    4  A    between atoms: C_15  and  C_25
    5  A    between atoms: C_21  and  C_25
                            x       y       z     vdW  Elec       q    Type
                         _______ _______ _______ _____ _____    ______ ____

>  <TORSDO>
F 5

$$$$
=
 OpenBabel11052422053D

 25 28  0  0  1  0  0  0  0  0999 V2000
  161.3360  204.5580  149.0600 C   0  0  0  0  0  0  0  0  0  0  0  0
  161.4230  205.4560  150.1290 C   0  0  0  0  0  0  0  0  0  0  0  0
  160.7980  202.7040  150.5160 C   0  0  0  0  0  3  0  0  0  0  0  0
  161.5020  204.7100  147.7040 C   0  0  0  0  0  0  0  0  0  0  0  0
  161.6950  204.3610  144.9660 C   0  0  0  0  0  3  0  0  0  0  0  0
  160.8870  203.5770  151.6130 C   0  0  0  0  0  3  0  0  0  0  0  0
  161.2870  203.4640  147.1520 C   0  0  0  0  0  0  0  0  0  0  0  0
  161.3770  203.2560  145.7770 C   0  0  0  0  0  2  0  0  0  0  0  0
  161.2770  205.8480  152.6010 C   0  0  0  0  0  0  0  0  0  0  0  0
  161.0610  205.4090  153.7630 O   0  0  0  0  0  0  0  0  0  0  0  0
  161.8080  206.8920  149.9090 C   0  0  0  0  0  2  0  0  0  0  0  0
  161.9130  205.6340  145.5360 C   0  0  0  0  0  3  0  0  0  0  0  0
  161.0300  203.2240  149.2460 C   0  0  0  0  0  0  0  0  0  0  0  0
  160.9940  202.5300  148.0850 N   0  0  0  0  0  0  0  0  0  0  0  0
  161.6560  207.2870  152.4260 C   0  0  0  0  0  2  0  0  0  0  0  0
  161.8180  205.8220  146.9260 C   0  0  0  0  0  3  0  0  0  0  0  0
  161.2650  207.7890  151.0300 C   0  0  1  0  0  3  0  0  0  0  0  0
  161.2030  204.9440  151.4340 C   0  0  0  0  0  0  0  0  0  0  0  0
  161.5540  209.1580  150.8340 O   0  0  0  0  0  0  0  0  0  0  0  0
  161.8250  209.7550  152.0790 C   0  0  0  0  0  2  0  0  0  0  0  0
  160.7690  210.8020  152.3960 C   0  0  0  0  0  2  0  0  0  0  0  0
  160.7870  211.1670  153.8740 C   0  0  0  0  0  2  0  0  0  0  0  0
  161.5980  210.1630  154.6780 C   0  0  0  0  0  3  0  0  0  0  0  0
  160.7410  209.4200  155.4900 O   0  0  0  0  0  1  0  0  0  0  0  0
  162.5260  210.8320  155.4760 O   0  0  0  0  0  1  0  0  0  0  0  0
  1 13  1  0  0  0  0
  1  2  2  0  0  0  0
  2 18  1  0  0  0  0
  3  6  1  0  0  0  0
  4  1  1  0  0  0  0
  5 12  2  0  0  0  0
  5  8  1  0  0  0  0
  7  4  1  0  0  0  0
  7 14  2  0  0  0  0
  8  7  1  0  0  0  0
  9 10  2  0  0  0  0
 11  2  1  0  0  0  0
 11 17  1  0  0  0  0
 12 16  1  0  0  0  0
 13  3  2  0  0  0  0
 14 13  1  0  0  0  0
 15  9  1  0  0  0  0
 16  4  2  0  0  0  0
 17 19  1  6  0  0  0
 17 15  1  0  0  0  0
 18  6  2  0  0  0  0
 18  9  1  0  0  0  0
 19 20  1  0  0  0  0
 20 21  1  0  0  0  0
 21 22  1  0  0  0  0
 22 23  1  0  0  0  0
 23 25  1  0  0  0  0
 23 24  1  0  0  0  0
M  END
>  <MODEL>
3

>  <REMARK>
 VINA RESULT:      -9.3      1.643      3.551
  Name = 
  5 active torsions:
  status: ('A' for Active; 'I' for Inactive)
    1  A    between atoms: C_2  and  C_21
    2  A    between atoms: O_6  and  C_15
    3  A    between atoms: O_6  and  C_23
    4  A    between atoms: C_15  and  C_25
    5  A    between atoms: C_21  and  C_25
                            x       y       z     vdW  Elec       q    Type
                         _______ _______ _______ _____ _____    ______ ____

>  <TORSDO>
F 5

$$$$
=
 OpenBabel11052422053D

 25 28  0  0  1  0  0  0  0  0999 V2000
  161.1520  203.9240  149.5520 C   0  0  0  0  0  0  0  0  0  0  0  0
  161.3790  205.1170  150.2470 C   0  0  0  0  0  0  0  0  0  0  0  0
  160.6830  202.7010  151.5850 C   0  0  0  0  0  3  0  0  0  0  0  0
  161.1930  203.6050  148.2160 C   0  0  0  0  0  0  0  0  0  0  0  0
  161.1060  202.3540  145.7490 C   0  0  0  0  0  3  0  0  0  0  0  0
  160.9120  203.8800  152.3130 C   0  0  0  0  0  3  0  0  0  0  0  0
  160.8750  202.2650  148.1350 C   0  0  0  0  0  0  0  0  0  0  0  0
  160.8230  201.6070  146.9070 C   0  0  0  0  0  2  0  0  0  0  0  0
  161.4880  206.3170  152.4450 C   0  0  0  0  0  0  0  0  0  0  0  0
  161.3670  206.3050  153.7000 O   0  0  0  0  0  0  0  0  0  0  0  0
  161.7990  206.3670  149.5260 C   0  0  0  0  0  2  0  0  0  0  0  0
  161.4300  203.7250  145.8390 C   0  0  0  0  0  3  0  0  0  0  0  0
  160.8120  202.7520  150.2000 C   0  0  0  0  0  0  0  0  0  0  0  0
  160.6360  201.7170  149.3470 N   0  0  0  0  0  0  0  0  0  0  0  0
  161.9070  207.5850  151.7670 C   0  0  0  0  0  2  0  0  0  0  0  0
  161.4770  204.3710  147.0870 C   0  0  0  0  0  3  0  0  0  0  0  0
  161.4040  207.6220  150.3180 C   0  0  1  0  0  3  0  0  0  0  0  0
  161.2650  205.0840  151.6600 C   0  0  0  0  0  0  0  0  0  0  0  0
  161.7280  208.8240  149.6510 O   0  0  0  0  0  0  0  0  0  0  0  0
  162.0990  209.7930  150.6010 C   0  0  0  0  0  2  0  0  0  0  0  0
  161.9380  211.1870  150.0150 C   0  0  0  0  0  2  0  0  0  0  0  0
  162.0130  211.1540  148.4950 C   0  0  0  0  0  2  0  0  0  0  0  0
  161.7850  212.5370  147.9040 C   0  0  0  0  0  3  0  0  0  0  0  0
  162.9770  213.0070  147.3550 O   0  0  0  0  0  1  0  0  0  0  0  0
  161.3570  213.4140  148.9000 O   0  0  0  0  0  1  0  0  0  0  0  0
  1 13  1  0  0  0  0
  1  2  2  0  0  0  0
  2 18  1  0  0  0  0
  3  6  1  0  0  0  0
  4  1  1  0  0  0  0
  5 12  2  0  0  0  0
  5  8  1  0  0  0  0
  7  4  1  0  0  0  0
  7 14  2  0  0  0  0
  8  7  1  0  0  0  0
  9 10  2  0  0  0  0
 11  2  1  0  0  0  0
 11 17  1  0  0  0  0
 12 16  1  0  0  0  0
 13  3  2  0  0  0  0
 14 13  1  0  0  0  0
 15  9  1  0  0  0  0
 16  4  2  0  0  0  0
 17 19  1  6  0  0  0
 17 15  1  0  0  0  0
 18  6  2  0  0  0  0
 18  9  1  0  0  0  0
 19 20  1  0  0  0  0
 21 20  1  0  0  0  0
 22 21  1  0  0  0  0
 23 22  1  0  0  0  0
 23 25  1  0  0  0  0
 24 23  1  0  0  0  0
M  END
>  <MODEL>
4

>  <REMARK>
 VINA RESULT:      -9.2      2.430      5.109
  Name = 
  5 active torsions:
  status: ('A' for Active; 'I' for Inactive)
    1  A    between atoms: C_2  and  C_21
    2  A    between atoms: O_6  and  C_15
    3  A    between atoms: O_6  and  C_23
    4  A    between atoms: C_15  and  C_25
    5  A    between atoms: C_21  and  C_25
                            x       y       z     vdW  Elec       q    Type
                         _______ _______ _______ _____ _____    ______ ____

>  <TORSDO>
F 5

$$$$
=
 OpenBabel11052422053D

 25 28  0  0  1  0  0  0  0  0999 V2000
  161.4480  207.4850  151.0410 C   0  0  0  0  0  0  0  0  0  0  0  0
  161.4990  206.4490  150.1020 C   0  0  0  0  0  0  0  0  0  0  0  0
  161.9270  209.1680  149.3730 C   0  0  0  0  0  3  0  0  0  0  0  0
  161.2130  207.5000  152.3950 C   0  0  1  0  0  3  0  0  0  0  0  0
  160.8220  208.1910  155.0460 C   0  0  0  0  0  3  0  0  0  0  0  0
  161.9940  208.1520  148.4070 C   0  0  0  0  0  3  0  0  0  0  0  0
  161.2880  208.8220  152.7790 C   0  0  0  0  0  0  0  0  0  0  0  0
  161.0960  209.2020  154.1070 C   0  0  0  0  0  3  0  0  0  0  0  0
  161.8510  205.7440  147.7220 C   0  0  0  0  0  0  0  0  0  0  0  0
  162.0870  206.0440  146.5210 O   0  0  0  0  0  0  0  0  0  0  0  0
  161.3240  205.0150  150.5160 C   0  0  0  0  0  2  0  0  0  0  0  0
  160.7450  206.8390  154.6460 C   0  0  0  0  0  3  0  0  0  0  0  0
  161.6530  208.8040  150.6880 C   0  0  0  0  0  0  0  0  0  0  0  0
  161.5580  209.6470  151.7430 N   0  0  0  0  0  0  0  0  0  0  0  0
  161.6820  204.3020  148.0910 C   0  0  0  0  0  2  0  0  0  0  0  0
  160.9430  206.4770  153.3020 C   0  0  0  0  0  3  0  0  0  0  0  0
  160.8140  204.1590  149.3480 C   0  0  1  0  0  3  0  0  0  0  0  0
  161.7900  206.7970  148.7580 C   0  0  0  0  0  0  0  0  0  0  0  0
  160.5800  202.8130  149.7080 O   0  0  0  0  0  0  0  0  0  0  0  0
  160.2130  202.0860  148.5610 C   0  0  0  0  0  2  0  0  0  0  0  0
  161.2130  200.9690  148.3080 C   0  0  0  0  0  2  0  0  0  0  0  0
  161.2300  200.5720  146.8380 C   0  0  0  0  0  2  0  0  0  0  0  0
  160.4720  201.5790  145.9880 C   0  0  0  0  0  3  0  0  0  0  0  0
  159.8960  200.9250  144.9000 O   0  0  0  0  0  1  0  0  0  0  0  0
  161.3450  202.5630  145.5270 O   0  0  0  0  0  1  0  0  0  0  0  0
  1  4  1  0  0  0  0
  2 11  1  0  0  0  0
  2  1  1  0  0  0  0
  3 13  1  0  0  0  0
  4  7  1  0  0  0  0
  4 16  1  6  0  0  0
  6 18  1  0  0  0  0
  6  3  2  0  0  0  0
  7  8  1  0  0  0  0
  8  5  2  0  0  0  0
  9 15  1  0  0  0  0
  9 18  1  0  0  0  0
 10  9  2  0  0  0  0
 12  5  1  0  0  0  0
 13  1  2  0  0  0  0
 13 14  1  0  0  0  0
 14  7  2  0  0  0  0
 15 17  1  0  0  0  0
 16 12  2  0  0  0  0
 17 19  1  1  0  0  0
 17 11  1  0  0  0  0
 18  2  2  0  0  0  0
 20 19  1  0  0  0  0
 21 20  1  0  0  0  0
 22 21  1  0  0  0  0
 23 22  1  0  0  0  0
 24 23  1  0  0  0  0
 25 23  1  0  0  0  0
M  END
>  <MODEL>
5

>  <REMARK>
 VINA RESULT:      -9.0      3.723      7.648
  Name = 
  5 active torsions:
  status: ('A' for Active; 'I' for Inactive)
    1  A    between atoms: C_2  and  C_21
    2  A    between atoms: O_6  and  C_15
    3  A    between atoms: O_6  and  C_23
    4  A    between atoms: C_15  and  C_25
    5  A    between atoms: C_21  and  C_25
                            x       y       z     vdW  Elec       q    Type
                         _______ _______ _______ _____ _____    ______ ____

>  <TORSDO>
F 5

$$$$
=
 OpenBabel11052422053D

 25 28  0  0  1  0  0  0  0  0999 V2000
  161.2640  204.3480  149.2380 C   0  0  0  0  0  0  0  0  0  0  0  0
  161.3750  205.3030  150.2560 C   0  0  0  0  0  0  0  0  0  0  0  0
  160.8220  202.5650  150.8100 C   0  0  0  0  0  3  0  0  0  0  0  0
  161.3740  204.4310  147.8710 C   0  0  0  0  0  0  0  0  0  0  0  0
  161.4660  203.9410  145.1490 C   0  0  0  0  0  3  0  0  0  0  0  0
  160.9350  203.4960  151.8550 C   0  0  0  0  0  3  0  0  0  0  0  0
  161.1630  203.1550  147.3940 C   0  0  0  0  0  0  0  0  0  0  0  0
  161.2020  202.8760  146.0290 C   0  0  0  0  0  2  0  0  0  0  0  0
  161.3190  205.8220  152.7070 C   0  0  0  0  0  0  0  0  0  0  0  0
  161.1570  205.4420  153.8980 O   0  0  0  0  0  0  0  0  0  0  0  0
  161.7220  206.7320  149.9450 C   0  0  0  0  0  2  0  0  0  0  0  0
  161.6800  205.2470  145.6430 C   0  0  0  0  0  3  0  0  0  0  0  0
  160.9930  203.0200  149.5060 C   0  0  0  0  0  0  0  0  0  0  0  0
  160.9250  202.2660  148.3850 N   0  0  0  0  0  0  0  0  0  0  0  0
  161.6610  207.2560  152.4430 C   0  0  0  0  0  2  0  0  0  0  0  0
  161.6360  205.5060  147.0240 C   0  0  0  0  0  3  0  0  0  0  0  0
  161.2060  207.6770  151.0390 C   0  0  1  0  0  3  0  0  0  0  0  0
  161.2170  204.8570  151.5930 C   0  0  0  0  0  0  0  0  0  0  0  0
  161.4600  209.0380  150.7610 O   0  0  0  0  0  0  0  0  0  0  0  0
  161.8100  209.6950  151.9550 C   0  0  0  0  0  2  0  0  0  0  0  0
  160.7370  210.7050  152.3290 C   0  0  0  0  0  2  0  0  0  0  0  0
  160.0960  210.3540  153.6650 C   0  0  0  0  0  2  0  0  0  0  0  0
  159.6270  211.6030  154.3940 C   0  0  0  0  0  3  0  0  0  0  0  0
  159.6560  212.6880  153.5180 O   0  0  0  0  0  1  0  0  0  0  0  0
  160.4640  211.8630  155.4790 O   0  0  0  0  0  1  0  0  0  0  0  0
  1 13  1  0  0  0  0
  1  2  2  0  0  0  0
  2 18  1  0  0  0  0
  3  6  1  0  0  0  0
  4  1  1  0  0  0  0
  5 12  2  0  0  0  0
  5  8  1  0  0  0  0
  7  4  1  0  0  0  0
  7 14  2  0  0  0  0
  8  7  1  0  0  0  0
  9 10  2  0  0  0  0
 11  2  1  0  0  0  0
 11 17  1  0  0  0  0
 12 16  1  0  0  0  0
 13  3  2  0  0  0  0
 14 13  1  0  0  0  0
 15  9  1  0  0  0  0
 16  4  2  0  0  0  0
 17 19  1  6  0  0  0
 17 15  1  0  0  0  0
 18  6  2  0  0  0  0
 18  9  1  0  0  0  0
 19 20  1  0  0  0  0
 20 21  1  0  0  0  0
 21 22  1  0  0  0  0
 22 23  1  0  0  0  0
 23 25  1  0  0  0  0
 24 23  1  0  0  0  0
M  END
>  <MODEL>
6

>  <REMARK>
 VINA RESULT:      -9.0      1.951      3.710
  Name = 
  5 active torsions:
  status: ('A' for Active; 'I' for Inactive)
    1  A    between atoms: C_2  and  C_21
    2  A    between atoms: O_6  and  C_15
    3  A    between atoms: O_6  and  C_23
    4  A    between atoms: C_15  and  C_25
    5  A    between atoms: C_21  and  C_25
                            x       y       z     vdW  Elec       q    Type
                         _______ _______ _______ _____ _____    ______ ____

>  <TORSDO>
F 5

$$$$
=
 OpenBabel11052422053D

 25 28  0  0  1  0  0  0  0  0999 V2000
  161.3100  205.6450  150.7770 C   0  0  0  0  0  0  0  0  0  0  0  0
  161.1630  204.5270  149.9490 C   0  0  0  0  0  0  0  0  0  0  0  0
  160.9860  204.3370  152.7850 C   0  0  0  0  0  3  0  0  0  0  0  0
  161.5480  206.9720  150.5120 C   0  0  0  0  0  0  0  0  0  0  0  0
  162.0040  209.6980  150.6450 C   0  0  0  0  0  3  0  0  0  0  0  0
  160.8250  203.1970  151.9820 C   0  0  0  0  0  3  0  0  0  0  0  0
  161.5950  207.6030  151.7370 C   0  0  0  0  0  0  0  0  0  0  0  0
  161.8240  208.9740  151.8370 C   0  0  0  0  0  3  0  0  0  0  0  0
  160.7430  202.0640  149.7470 C   0  0  0  0  0  0  0  0  0  0  0  0
  160.5350  200.9460  150.2910 O   0  0  0  0  0  0  0  0  0  0  0  0
  161.2040  204.6580  148.4520 C   0  0  0  0  0  2  0  0  0  0  0  0
  161.9550  209.0470  149.3930 C   0  0  0  0  0  3  0  0  0  0  0  0
  161.2280  205.5540  152.1530 C   0  0  2  0  0  3  0  0  0  0  0  0
  161.4010  206.7480  152.7660 N   0  0  0  0  0  0  0  0  0  0  0  0
  160.7790  202.1490  148.2520 C   0  0  0  0  0  2  0  0  0  0  0  0
  161.7230  207.6630  149.3140 C   0  0  0  0  0  3  0  0  0  0  0  0
  161.6320  203.3390  147.7920 C   0  0  1  0  0  3  0  0  0  0  0  0
  160.9030  203.2800  150.5720 C   0  0  0  0  0  0  0  0  0  0  0  0
  161.7400  203.4310  146.3870 O   0  0  0  0  0  0  0  0  0  0  0  0
  162.9590  204.0520  146.0590 C   0  0  0  0  0  2  0  0  0  0  0  0
  162.7060  205.4580  145.5390 C   0  0  0  0  0  2  0  0  0  0  0  0
  161.6680  205.4510  144.4240 C   0  0  0  0  0  2  0  0  0  0  0  0
  160.3620  206.0770  144.8870 C   0  0  0  0  0  3  0  0  0  0  0  0
  160.5220  206.5800  146.1780 O   0  0  0  0  0  1  0  0  0  0  0  0
  159.3490  205.1190  144.8860 O   0  0  0  0  0  1  0  0  0  0  0  0
  1 13  1  0  0  0  0
  2 18  2  0  0  0  0
  2  1  1  0  0  0  0
  4  1  2  0  0  0  0
  4  7  1  0  0  0  0
  5  8  2  0  0  0  0
  6  3  2  0  0  0  0
  7  8  1  0  0  0  0
  7 14  2  0  0  0  0
  9 10  2  0  0  0  0
  9 18  1  0  0  0  0
 11  2  1  0  0  0  0
 12  5  1  0  0  0  0
 13 14  1  0  0  0  0
 13  3  1  6  0  0  0
 15  9  1  0  0  0  0
 16 12  2  0  0  0  0
 16  4  1  0  0  0  0
 17 19  1  6  0  0  0
 17 15  1  0  0  0  0
 17 11  1  0  0  0  0
 18  6  1  0  0  0  0
 20 19  1  0  0  0  0
 21 20  1  0  0  0  0
 22 23  1  0  0  0  0
 22 21  1  0  0  0  0
 23 24  1  0  0  0  0
 25 23  1  0  0  0  0
M  END
>  <MODEL>
7

>  <REMARK>
 VINA RESULT:      -8.9      4.268      7.835
  Name = 
  5 active torsions:
  status: ('A' for Active; 'I' for Inactive)
    1  A    between atoms: C_2  and  C_21
    2  A    between atoms: O_6  and  C_15
    3  A    between atoms: O_6  and  C_23
    4  A    between atoms: C_15  and  C_25
    5  A    between atoms: C_21  and  C_25
                            x       y       z     vdW  Elec       q    Type
                         _______ _______ _______ _____ _____    ______ ____

>  <TORSDO>
F 5

$$$$
=
 OpenBabel11052422053D

 25 28  0  0  1  0  0  0  0  0999 V2000
  161.0820  203.4560  150.0980 C   0  0  0  0  0  0  0  0  0  0  0  0
  161.1060  203.3870  148.7010 C   0  0  0  0  0  0  0  0  0  0  0  0
  160.9560  201.0520  150.3250 C   0  0  0  0  0  3  0  0  0  0  0  0
  161.1160  204.5130  150.9760 C   0  0  1  0  0  3  0  0  0  0  0  0
  161.1550  206.1540  153.2030 C   0  0  0  0  0  3  0  0  0  0  0  0
  160.9700  200.9480  148.9250 C   0  0  0  0  0  3  0  0  0  0  0  0
  161.0670  203.9600  152.2380 C   0  0  0  0  0  0  0  0  0  0  0  0
  161.0850  204.7600  153.3800 C   0  0  0  0  0  3  0  0  0  0  0  0
  161.0640  201.9670  146.6350 C   0  0  0  0  0  0  0  0  0  0  0  0
  161.0260  200.8270  146.0980 O   0  0  0  0  0  0  0  0  0  0  0  0
  161.1300  204.6330  147.8610 C   0  0  0  0  0  2  0  0  0  0  0  0
  161.2070  206.7140  151.9080 C   0  0  0  0  0  3  0  0  0  0  0  0
  161.0120  202.3240  150.8860 C   0  0  0  0  0  0  0  0  0  0  0  0
  161.0020  202.6110  152.2090 N   0  0  0  0  0  0  0  0  0  0  0  0
  161.0890  203.1830  145.7610 C   0  0  0  0  0  2  0  0  0  0  0  0
  161.1870  205.8890  150.7700 C   0  0  0  0  0  3  0  0  0  0  0  0
  161.7520  204.3620  146.4840 C   0  0  1  0  0  3  0  0  0  0  0  0
  161.0370  202.1000  148.1070 C   0  0  0  0  0  0  0  0  0  0  0  0
  161.8480  205.5200  145.6810 O   0  0  0  0  0  0  0  0  0  0  0  0
  161.2040  206.5870  146.3330 C   0  0  0  0  0  2  0  0  0  0  0  0
  162.1610  207.2590  147.3040 C   0  0  0  0  0  2  0  0  0  0  0  0
  161.4040  208.0580  148.3560 C   0  0  0  0  0  2  0  0  0  0  0  0
  162.2440  209.2120  148.8790 C   0  0  0  0  0  3  0  0  0  0  0  0
  162.0590  209.3320  150.2550 O   0  0  0  0  0  1  0  0  0  0  0  0
  161.8590  210.3990  148.2560 O   0  0  0  0  0  1  0  0  0  0  0  0
  1 13  2  0  0  0  0
  1  4  1  0  0  0  0
  2  1  1  0  0  0  0
  3 13  1  0  0  0  0
  4 16  1  1  0  0  0
  4  7  1  0  0  0  0
  5  8  2  0  0  0  0
  6  3  2  0  0  0  0
  7  8  1  0  0  0  0
  9 18  1  0  0  0  0
 10  9  2  0  0  0  0
 11  2  1  0  0  0  0
 12  5  1  0  0  0  0
 13 14  1  0  0  0  0
 14  7  2  0  0  0  0
 15 17  1  0  0  0  0
 15  9  1  0  0  0  0
 16 12  2  0  0  0  0
 17 19  1  6  0  0  0
 17 11  1  0  0  0  0
 18  2  2  0  0  0  0
 18  6  1  0  0  0  0
 19 20  1  0  0  0  0
 20 21  1  0  0  0  0
 21 22  1  0  0  0  0
 22 23  1  0  0  0  0
 23 24  1  0  0  0  0
 25 23  1  0  0  0  0
M  END
>  <MODEL>
8

>  <REMARK>
 VINA RESULT:      -8.7      2.923      6.559
  Name = 
  5 active torsions:
  status: ('A' for Active; 'I' for Inactive)
    1  A    between atoms: C_2  and  C_21
    2  A    between atoms: O_6  and  C_15
    3  A    between atoms: O_6  and  C_23
    4  A    between atoms: C_15  and  C_25
    5  A    between atoms: C_21  and  C_25
                            x       y       z     vdW  Elec       q    Type
                         _______ _______ _______ _____ _____    ______ ____

>  <TORSDO>
F 5

$$$$
=
 OpenBabel11052422053D

 25 28  0  0  1  0  0  0  0  0999 V2000
  161.4490  207.8960  151.3980 C   0  0  0  0  0  0  0  0  0  0  0  0
  161.3770  206.8820  150.4360 C   0  0  0  0  0  0  0  0  0  0  0  0
  162.1100  209.5500  149.7620 C   0  0  0  0  0  3  0  0  0  0  0  0
  161.2230  207.9090  152.7530 C   0  0  1  0  0  3  0  0  0  0  0  0
  160.9260  208.5820  155.4200 C   0  0  0  0  0  3  0  0  0  0  0  0
  162.0560  208.5530  148.7740 C   0  0  0  0  0  3  0  0  0  0  0  0
  161.4510  209.2050  153.1650 C   0  0  0  0  0  0  0  0  0  0  0  0
  161.3080  209.5760  154.5010 C   0  0  0  0  0  3  0  0  0  0  0  0
  161.6370  206.1930  148.0400 C   0  0  0  0  0  0  0  0  0  0  0  0
  161.9000  206.4900  146.8440 O   0  0  0  0  0  0  0  0  0  0  0  0
  161.0420  205.4680  150.8220 C   0  0  0  0  0  2  0  0  0  0  0  0
  160.6940  207.2570  154.9930 C   0  0  0  0  0  3  0  0  0  0  0  0
  161.8020  209.1910  151.0710 C   0  0  0  0  0  0  0  0  0  0  0  0
  161.8090  210.0160  152.1440 N   0  0  0  0  0  0  0  0  0  0  0  0
  161.3060  204.7720  148.3800 C   0  0  0  0  0  2  0  0  0  0  0  0
  160.8420  206.9040  153.6400 C   0  0  0  0  0  3  0  0  0  0  0  0
  160.4330  204.7010  149.6400 C   0  0  1  0  0  3  0  0  0  0  0  0
  161.7010  207.2230  149.0980 C   0  0  0  0  0  0  0  0  0  0  0  0
  160.0490  203.3830  149.9730 O   0  0  0  0  0  0  0  0  0  0  0  0
  161.1560  202.7020  150.5100 C   0  0  0  0  0  2  0  0  0  0  0  0
  161.1570  201.2560  150.0420 C   0  0  0  0  0  2  0  0  0  0  0  0
  160.3820  201.1010  148.7410 C   0  0  0  0  0  2  0  0  0  0  0  0
  161.3170  201.0920  147.5420 C   0  0  0  0  0  3  0  0  0  0  0  0
  160.7200  201.7770  146.4840 O   0  0  0  0  0  1  0  0  0  0  0  0
  161.5780  199.7780  147.1530 O   0  0  0  0  0  1  0  0  0  0  0  0
  1  4  1  0  0  0  0
  2 11  1  0  0  0  0
  2  1  1  0  0  0  0
  3 13  1  0  0  0  0
  4  7  1  0  0  0  0
  4 16  1  6  0  0  0
  6 18  1  0  0  0  0
  6  3  2  0  0  0  0
  7  8  1  0  0  0  0
  8  5  2  0  0  0  0
  9 15  1  0  0  0  0
  9 18  1  0  0  0  0
 10  9  2  0  0  0  0
 12  5  1  0  0  0  0
 13  1  2  0  0  0  0
 13 14  1  0  0  0  0
 14  7  2  0  0  0  0
 15 17  1  0  0  0  0
 16 12  2  0  0  0  0
 17 19  1  1  0  0  0
 17 11  1  0  0  0  0
 18  2  2  0  0  0  0
 19 20  1  0  0  0  0
 21 20  1  0  0  0  0
 22 21  1  0  0  0  0
 23 22  1  0  0  0  0
 24 23  1  0  0  0  0
 25 23  1  0  0  0  0
M  END
>  <MODEL>
9

>  <REMARK>
 VINA RESULT:      -8.7      3.568      7.354
  Name = 
  5 active torsions:
  status: ('A' for Active; 'I' for Inactive)
    1  A    between atoms: C_2  and  C_21
    2  A    between atoms: O_6  and  C_15
    3  A    between atoms: O_6  and  C_23
    4  A    between atoms: C_15  and  C_25
    5  A    between atoms: C_21  and  C_25
                            x       y       z     vdW  Elec       q    Type
                         _______ _______ _______ _____ _____    ______ ____

>  <TORSDO>
F 5

$$$$
