=
 OpenBabel11062409203D

 37 42  0  0  1  0  0  0  0  0999 V2000
  162.0830  209.4000  157.1830 C   0  0  0  0  0  1  0  0  0  0  0  0
  159.4900  211.4950  152.9330 C   0  0  1  0  0  3  0  0  0  0  0  0
  159.1600  210.1150  155.1160 C   0  0  0  0  0  2  0  0  0  0  0  0
  160.8460  211.3970  152.1570 C   0  0  2  0  0  3  0  0  0  0  0  0
  163.2320  210.5680  152.5440 C   0  0  0  0  0  2  0  0  0  0  0  0
  160.6420  211.1770  150.6540 C   0  0  0  0  0  2  0  0  0  0  0  0
  159.5370  211.4440  154.4820 C   0  0  1  0  0  3  0  0  0  0  0  0
  162.5830  210.9060  153.8150 N   0  0  1  0  0  0  0  0  0  0  0  0
  161.5980  210.0760  155.9190 C   0  0  2  0  0  0  0  0  0  0  0  0
  158.1220  212.3980  151.3970 C   0  0  0  0  0  2  0  0  0  0  0  0
  160.7020  212.1550  155.1800 C   0  0  0  0  0  2  0  0  0  0  0  0
  161.2590  211.4220  156.2640 O   0  0  0  0  0  0  0  0  0  0  0  0
  158.8160  212.6740  152.5800 O   0  0  0  0  0  0  0  0  0  0  0  0
  161.7890  210.3250  152.7040 C   0  0  1  0  0  0  0  0  0  0  0  0
  160.3860  209.2700  155.4410 C   0  0  0  0  0  2  0  0  0  0  0  0
  160.1180  212.3880  149.9260 C   0  0  0  0  0  0  0  0  0  0  0  0
  162.7530  209.9510  154.8940 C   0  0  0  0  0  2  0  0  0  0  0  0
  158.9270  212.9090  150.2470 C   0  0  0  0  0  3  0  0  0  0  0  0
  160.4430  208.0990  153.3250 C   0  0  0  0  0  2  0  0  0  0  0  0
  160.8400  206.6850  153.6200 C   0  0  0  0  0  0  0  0  0  0  0  0
  160.5210  207.2940  150.6390 C   0  0  1  0  0  3  0  0  0  0  0  0
  160.9800  205.7440  152.6680 C   0  0  0  0  0  3  0  0  0  0  0  0
  160.7290  205.8760  151.1820 C   0  0  0  0  0  2  0  0  0  0  0  0
  161.6270  208.2960  151.0170 C   0  0  1  0  0  3  0  0  0  0  0  0
  160.3550  207.2460  149.1970 N   0  0  0  0  0  1  0  0  0  0  0  0
  161.5120  208.7970  152.4680 C   0  0  1  0  0  3  0  0  0  0  0  0
  163.2110  207.5710  149.3740 O   0  0  0  0  0  1  0  0  0  0  0  0
  163.0260  207.7540  150.7430 C   0  0  0  0  0  2  0  0  0  0  0  0
  159.9280  206.5580  155.9200 C   0  0  0  0  0  1  0  0  0  0  0  0
  161.1430  206.3320  155.0380 C   0  0  0  0  0  2  0  0  0  0  0  0
  161.9020  213.9060  149.0430 C   0  0  0  0  0  3  0  0  0  0  0  0
  160.9000  212.9530  148.8000 C   0  0  0  0  0  0  0  0  0  0  0  0
  160.6520  212.5540  147.4750 C   0  0  0  0  0  3  0  0  0  0  0  0
  161.1430  212.7010  145.1470 F   0  0  0  0  0  0  0  0  0  0  0  0
  162.3870  214.0420  146.6750 C   0  0  0  0  0  3  0  0  0  0  0  0
  161.3920  213.0950  146.4180 C   0  0  0  0  0  0  0  0  0  0  0  0
  162.6420  214.4470  147.9870 C   0  0  0  0  0  3  0  0  0  0  0  0
  2 13  1  1  0  0  0
  2  7  1  0  0  0  0
  3 15  1  0  0  0  0
  4  6  1  6  0  0  0
  4 14  1  0  0  0  0
  4  2  1  0  0  0  0
  7  3  1  6  0  0  0
  7 11  1  0  0  0  0
  8  5  1  6  0  0  0
  8 17  1  0  0  0  0
  9 12  1  0  0  0  0
  9  1  1  1  0  0  0
 10 13  1  0  0  0  0
 11 12  1  0  0  0  0
 14  5  1  6  0  0  0
 14  8  1  0  0  0  0
 15  9  1  0  0  0  0
 16 18  2  0  0  0  0
 16  6  1  0  0  0  0
 17  9  1  0  0  0  0
 18 10  1  0  0  0  0
 19 20  1  0  0  0  0
 20 30  1  0  0  0  0
 21 25  1  6  0  0  0
 21 24  1  0  0  0  0
 21 23  1  0  0  0  0
 22 20  2  0  0  0  0
 23 22  1  0  0  0  0
 24 28  1  1  0  0  0
 24 26  1  0  0  0  0
 26 14  1  0  0  0  0
 26 19  1  6  0  0  0
 27 28  1  0  0  0  0
 30 29  1  0  0  0  0
 32 31  1  0  0  0  0
 32 16  1  0  0  0  0
 33 32  2  0  0  0  0
 34 36  1  0  0  0  0
 35 37  1  0  0  0  0
 36 35  2  0  0  0  0
 36 33  1  0  0  0  0
 37 31  2  0  0  0  0
M  END
>  <MODEL>
1

>  <REMARK>
 VINA RESULT:      -0.3      0.000      0.000
  Name = 
  4 active torsions:
  status: ('A' for Active; 'I' for Inactive)
    1  A    between atoms: C_5  and  C_23
    2  A    between atoms: C_6  and  C_31
    3  A    between atoms: C_27  and  C_33
    4  A    between atoms: C_29  and  C_36
                            x       y       z     vdW  Elec       q    Type
                         _______ _______ _______ _____ _____    ______ ____

>  <TORSDO>
F 4

$$$$
=
 OpenBabel11062409203D

 37 42  0  0  1  0  0  0  0  0999 V2000
  163.6890  209.8550  157.2610 C   0  0  0  0  0  1  0  0  0  0  0  0
  159.0070  211.2880  154.9810 C   0  0  1  0  0  3  0  0  0  0  0  0
  160.0560  209.8870  156.9090 C   0  0  0  0  0  2  0  0  0  0  0  0
  159.8060  211.4860  153.6490 C   0  0  2  0  0  3  0  0  0  0  0  0
  162.1910  211.2100  152.7750 C   0  0  0  0  0  2  0  0  0  0  0  0
  158.9490  211.2130  152.4090 C   0  0  0  0  0  2  0  0  0  0  0  0
  159.8080  211.2610  156.3090 C   0  0  1  0  0  3  0  0  0  0  0  0
  162.1860  211.4060  154.2280 N   0  0  1  0  0  0  0  0  0  0  0  0
  162.5300  210.3970  156.4530 C   0  0  2  0  0  0  0  0  0  0  0  0
  156.9190  211.8510  154.3750 C   0  0  0  0  0  2  0  0  0  0  0  0
  160.9970  212.2190  156.4390 C   0  0  0  0  0  2  0  0  0  0  0  0
  162.1420  211.6370  157.0490 O   0  0  0  0  0  0  0  0  0  0  0  0
  158.0280  212.2850  155.1090 O   0  0  0  0  0  0  0  0  0  0  0  0
  161.0870  210.6550  153.5740 C   0  0  1  0  0  0  0  0  0  0  0  0
  161.4260  209.3380  156.5280 C   0  0  0  0  0  2  0  0  0  0  0  0
  157.9100  212.2720  152.1420 C   0  0  0  0  0  0  0  0  0  0  0  0
  163.0430  210.5220  154.9960 C   0  0  0  0  0  2  0  0  0  0  0  0
  156.9460  212.5180  153.0380 C   0  0  0  0  0  3  0  0  0  0  0  0
  159.9740  208.2770  154.0870 C   0  0  0  0  0  2  0  0  0  0  0  0
  160.5110  206.9310  154.4630 C   0  0  0  0  0  0  0  0  0  0  0  0
  160.4790  207.4640  151.4510 C   0  0  1  0  0  3  0  0  0  0  0  0
  160.8860  206.0070  153.5580 C   0  0  0  0  0  3  0  0  0  0  0  0
  160.8000  206.0910  152.0500 C   0  0  0  0  0  2  0  0  0  0  0  0
  161.3930  208.6050  151.9310 C   0  0  1  0  0  3  0  0  0  0  0  0
  160.4960  207.3800  150.0010 N   0  0  0  0  0  1  0  0  0  0  0  0
  161.0400  209.1010  153.3460 C   0  0  1  0  0  3  0  0  0  0  0  0
  163.1290  207.5680  150.6500 O   0  0  0  0  0  1  0  0  0  0  0  0
  162.8730  208.2490  151.8390 C   0  0  0  0  0  2  0  0  0  0  0  0
  159.3700  206.7970  156.6580 C   0  0  0  0  0  1  0  0  0  0  0  0
  160.6840  206.6340  155.9160 C   0  0  0  0  0  2  0  0  0  0  0  0
  156.7110  213.3090  150.2050 C   0  0  0  0  0  3  0  0  0  0  0  0
  157.9190  212.9860  150.8420 C   0  0  0  0  0  0  0  0  0  0  0  0
  159.1290  213.3460  150.2220 C   0  0  0  0  0  3  0  0  0  0  0  0
  160.3000  214.3560  148.4090 F   0  0  0  0  0  0  0  0  0  0  0  0
  157.9170  214.3310  148.3720 C   0  0  0  0  0  3  0  0  0  0  0  0
  159.1280  214.0150  148.9940 C   0  0  0  0  0  0  0  0  0  0  0  0
  156.7090  213.9780  148.9770 C   0  0  0  0  0  3  0  0  0  0  0  0
  2 13  1  1  0  0  0
  2  7  1  0  0  0  0
  4  6  1  6  0  0  0
  4  2  1  0  0  0  0
  7 11  1  6  0  0  0
  7  3  1  0  0  0  0
  8  5  1  6  0  0  0
  8 17  1  0  0  0  0
  9 15  1  0  0  0  0
  9 12  1  0  0  0  0
  9  1  1  1  0  0  0
 10 13  1  0  0  0  0
 11 12  1  0  0  0  0
 14  5  1  6  0  0  0
 14  4  1  0  0  0  0
 14  8  1  0  0  0  0
 15  3  1  0  0  0  0
 16  6  1  0  0  0  0
 16 18  2  0  0  0  0
 17  9  1  0  0  0  0
 18 10  1  0  0  0  0
 19 20  1  0  0  0  0
 20 30  1  0  0  0  0
 21 25  1  6  0  0  0
 21 24  1  0  0  0  0
 21 23  1  0  0  0  0
 22 20  2  0  0  0  0
 23 22  1  0  0  0  0
 24 28  1  1  0  0  0
 24 26  1  0  0  0  0
 26 14  1  0  0  0  0
 26 19  1  6  0  0  0
 27 28  1  0  0  0  0
 30 29  1  0  0  0  0
 31 32  1  0  0  0  0
 32 16  1  0  0  0  0
 33 32  2  0  0  0  0
 34 36  1  0  0  0  0
 35 37  1  0  0  0  0
 35 36  2  0  0  0  0
 36 33  1  0  0  0  0
 37 31  2  0  0  0  0
M  END
>  <MODEL>
2

>  <REMARK>
 VINA RESULT:      -0.3      1.775      2.462
  Name = 
  4 active torsions:
  status: ('A' for Active; 'I' for Inactive)
    1  A    between atoms: C_5  and  C_23
    2  A    between atoms: C_6  and  C_31
    3  A    between atoms: C_27  and  C_33
    4  A    between atoms: C_29  and  C_36
                            x       y       z     vdW  Elec       q    Type
                         _______ _______ _______ _____ _____    ______ ____

>  <TORSDO>
F 4

$$$$
=
 OpenBabel11062409203D

 37 42  0  0  1  0  0  0  0  0999 V2000
  163.8200  209.9270  157.2610 C   0  0  0  0  0  1  0  0  0  0  0  0
  158.9490  211.3880  155.4400 C   0  0  1  0  0  3  0  0  0  0  0  0
  160.1700  209.9820  157.2600 C   0  0  0  0  0  2  0  0  0  0  0  0
  159.6180  211.5790  154.0370 C   0  0  2  0  0  3  0  0  0  0  0  0
  161.9050  211.2860  152.9370 C   0  0  0  0  0  2  0  0  0  0  0  0
  158.6430  211.3100  152.8860 C   0  0  0  0  0  2  0  0  0  0  0  0
  159.8740  211.3570  156.6840 C   0  0  1  0  0  3  0  0  0  0  0  0
  162.0420  211.4840  154.3840 N   0  0  1  0  0  0  0  0  0  0  0  0
  162.5920  210.4760  156.5670 C   0  0  2  0  0  0  0  0  0  0  0  0
  156.8160  211.9640  155.0370 C   0  0  0  0  0  2  0  0  0  0  0  0
  161.0770  212.3080  156.6980 C   0  0  0  0  0  2  0  0  0  0  0  0
  162.2710  211.7190  157.1960 O   0  0  0  0  0  0  0  0  0  0  0  0
  157.9940  212.3920  155.6600 O   0  0  0  0  0  0  0  0  0  0  0  0
  160.8800  210.7390  153.8400 C   0  0  1  0  0  0  0  0  0  0  0  0
  161.4930  209.4240  156.7510 C   0  0  0  0  0  2  0  0  0  0  0  0
  157.5900  212.3760  152.7180 C   0  0  0  0  0  0  0  0  0  0  0  0
  162.9630  210.5950  155.0680 C   0  0  0  0  0  2  0  0  0  0  0  0
  156.7190  212.6290  153.7030 C   0  0  0  0  0  3  0  0  0  0  0  0
  161.8070  208.5220  152.6660 C   0  0  0  0  0  2  0  0  0  0  0  0
  161.1690  207.3830  151.9320 C   0  0  0  0  0  0  0  0  0  0  0  0
  161.2090  207.0420  154.9720 C   0  0  1  0  0  3  0  0  0  0  0  0
  160.7120  206.2740  152.5440 C   0  0  0  0  0  3  0  0  0  0  0  0
  160.7860  205.9230  154.0140 C   0  0  0  0  0  2  0  0  0  0  0  0
  160.3930  208.3410  154.8430 C   0  0  1  0  0  3  0  0  0  0  0  0
  161.1680  206.5550  156.3400 N   0  0  0  0  0  1  0  0  0  0  0  0
  160.8010  209.1860  153.6210 C   0  0  1  0  0  3  0  0  0  0  0  0
  158.5640  207.1390  155.8120 O   0  0  0  0  0  1  0  0  0  0  0  0
  158.8890  208.0920  154.8470 C   0  0  0  0  0  2  0  0  0  0  0  0
  161.9860  208.5140  149.8850 C   0  0  0  0  0  1  0  0  0  0  0  0
  160.9890  207.5210  150.4570 C   0  0  0  0  0  2  0  0  0  0  0  0
  156.2250  213.5130  150.9550 C   0  0  0  0  0  3  0  0  0  0  0  0
  157.4780  213.0880  151.4220 C   0  0  0  0  0  0  0  0  0  0  0  0
  158.6160  213.3450  150.6370 C   0  0  0  0  0  3  0  0  0  0  0  0
  159.6050  214.2550  148.6680 F   0  0  0  0  0  0  0  0  0  0  0  0
  157.2460  214.4320  148.9620 C   0  0  0  0  0  3  0  0  0  0  0  0
  158.5010  214.0140  149.4140 C   0  0  0  0  0  0  0  0  0  0  0  0
  156.1090  214.1810  149.7320 C   0  0  0  0  0  3  0  0  0  0  0  0
  2 13  1  1  0  0  0
  2  7  1  0  0  0  0
  4  6  1  6  0  0  0
  4  2  1  0  0  0  0
  7 11  1  6  0  0  0
  7  3  1  0  0  0  0
  8  5  1  6  0  0  0
  8 17  1  0  0  0  0
  9 15  1  0  0  0  0
  9 12  1  0  0  0  0
  9  1  1  1  0  0  0
 10 13  1  0  0  0  0
 11 12  1  0  0  0  0
 14  5  1  6  0  0  0
 14  4  1  0  0  0  0
 14  8  1  0  0  0  0
 15  3  1  0  0  0  0
 16  6  1  0  0  0  0
 16 18  2  0  0  0  0
 17  9  1  0  0  0  0
 18 10  1  0  0  0  0
 20 22  2  0  0  0  0
 20 19  1  0  0  0  0
 21 25  1  1  0  0  0
 22 23  1  0  0  0  0
 23 21  1  0  0  0  0
 24 28  1  6  0  0  0
 24 21  1  0  0  0  0
 26 19  1  1  0  0  0
 26 14  1  0  0  0  0
 26 24  1  0  0  0  0
 28 27  1  0  0  0  0
 29 30  1  0  0  0  0
 30 20  1  0  0  0  0
 31 32  1  0  0  0  0
 32 16  1  0  0  0  0
 33 32  2  0  0  0  0
 34 36  1  0  0  0  0
 35 36  2  0  0  0  0
 35 37  1  0  0  0  0
 36 33  1  0  0  0  0
 37 31  2  0  0  0  0
M  END
>  <MODEL>
3

>  <REMARK>
 VINA RESULT:       0.4      2.694      3.879
  Name = 
  4 active torsions:
  status: ('A' for Active; 'I' for Inactive)
    1  A    between atoms: C_5  and  C_23
    2  A    between atoms: C_6  and  C_31
    3  A    between atoms: C_27  and  C_33
    4  A    between atoms: C_29  and  C_36
                            x       y       z     vdW  Elec       q    Type
                         _______ _______ _______ _____ _____    ______ ____

>  <TORSDO>
F 4

$$$$
=
 OpenBabel11062409203D

 37 42  0  0  1  0  0  0  0  0999 V2000
  156.8870  213.4220  157.0310 C   0  0  0  0  0  1  0  0  0  0  0  0
  160.8890  210.9620  154.3660 C   0  0  1  0  0  3  0  0  0  0  0  0
  160.2350  213.1590  155.6010 C   0  0  0  0  0  2  0  0  0  0  0  0
  159.7830  210.1350  153.6290 C   0  0  2  0  0  3  0  0  0  0  0  0
  157.2350  209.9720  153.5410 C   0  0  0  0  0  2  0  0  0  0  0  0
  160.2050  209.7330  152.2110 C   0  0  0  0  0  2  0  0  0  0  0  0
  160.5020  211.6660  155.6930 C   0  0  1  0  0  3  0  0  0  0  0  0
  157.6800  210.5330  154.8210 N   0  0  1  0  0  0  0  0  0  0  0  0
  157.8360  212.5290  156.2620 C   0  0  2  0  0  0  0  0  0  0  0  0
  162.7790  210.1370  153.4760 C   0  0  0  0  0  2  0  0  0  0  0  0
  159.5530  210.9230  156.6390 C   0  0  0  0  0  2  0  0  0  0  0  0
  158.5550  211.7510  157.2220 O   0  0  0  0  0  0  0  0  0  0  0  0
  161.9990  210.1490  154.6380 O   0  0  0  0  0  0  0  0  0  0  0  0
  158.4260  210.8360  153.5750 C   0  0  1  0  0  0  0  0  0  0  0  0
  158.7480  213.4640  155.4630 C   0  0  0  0  0  2  0  0  0  0  0  0
  161.2690  208.6670  152.1710 C   0  0  0  0  0  0  0  0  0  0  0  0
  156.9560  211.6980  155.2960 C   0  0  0  0  0  2  0  0  0  0  0  0
  162.4720  208.8890  152.7140 C   0  0  0  0  0  3  0  0  0  0  0  0
  158.7780  212.0380  151.2110 C   0  0  0  0  0  2  0  0  0  0  0  0
  159.2010  213.4110  150.7890 C   0  0  0  0  0  0  0  0  0  0  0  0
  156.2120  213.1560  151.3890 C   0  0  1  0  0  3  0  0  0  0  0  0
  158.3370  214.4300  150.6220 C   0  0  0  0  0  3  0  0  0  0  0  0
  156.8310  214.4070  150.7580 C   0  0  0  0  0  2  0  0  0  0  0  0
  156.8100  212.7600  152.7520 C   0  0  1  0  0  3  0  0  0  0  0  0
  154.7730  213.3240  151.5000 N   0  0  0  0  0  1  0  0  0  0  0  0
  158.1780  212.0640  152.6270 C   0  0  1  0  0  3  0  0  0  0  0  0
  155.6180  214.4530  153.9540 O   0  0  0  0  0  1  0  0  0  0  0  0
  156.8910  213.9360  153.7200 C   0  0  0  0  0  2  0  0  0  0  0  0
  161.0980  213.2580  149.2030 C   0  0  0  0  0  1  0  0  0  0  0  0
  160.6600  213.6600  150.6000 C   0  0  0  0  0  2  0  0  0  0  0  0
  160.7320  207.4040  150.0770 C   0  0  0  0  0  3  0  0  0  0  0  0
  160.9970  207.3960  151.4560 C   0  0  0  0  0  0  0  0  0  0  0  0
  160.9910  206.1670  152.1390 C   0  0  0  0  0  3  0  0  0  0  0  0
  160.7270  203.7980  152.1280 F   0  0  0  0  0  0  0  0  0  0  0  0
  160.4690  204.9980  150.0850 C   0  0  0  0  0  3  0  0  0  0  0  0
  160.7290  204.9750  151.4570 C   0  0  0  0  0  0  0  0  0  0  0  0
  160.4700  206.2120  149.3950 C   0  0  0  0  0  3  0  0  0  0  0  0
  2 13  1  1  0  0  0
  2  7  1  0  0  0  0
  4  6  1  6  0  0  0
  4  2  1  0  0  0  0
  7  3  1  6  0  0  0
  7 11  1  0  0  0  0
  8  5  1  6  0  0  0
  8 17  1  0  0  0  0
  9  1  1  1  0  0  0
  9 12  1  0  0  0  0
 10 13  1  0  0  0  0
 11 12  1  0  0  0  0
 14  5  1  6  0  0  0
 14  4  1  0  0  0  0
 14  8  1  0  0  0  0
 15  3  1  0  0  0  0
 15  9  1  0  0  0  0
 16  6  1  0  0  0  0
 16 18  2  0  0  0  0
 17  9  1  0  0  0  0
 18 10  1  0  0  0  0
 20 19  1  0  0  0  0
 21 25  1  1  0  0  0
 21 24  1  0  0  0  0
 22 23  1  0  0  0  0
 22 20  2  0  0  0  0
 23 21  1  0  0  0  0
 24 28  1  1  0  0  0
 26 19  1  6  0  0  0
 26 24  1  0  0  0  0
 26 14  1  0  0  0  0
 28 27  1  0  0  0  0
 29 30  1  0  0  0  0
 30 20  1  0  0  0  0
 31 32  1  0  0  0  0
 32 33  2  0  0  0  0
 32 16  1  0  0  0  0
 35 36  2  0  0  0  0
 36 34  1  0  0  0  0
 36 33  1  0  0  0  0
 37 31  2  0  0  0  0
 37 35  1  0  0  0  0
M  END
>  <MODEL>
4

>  <REMARK>
 VINA RESULT:       1.4      3.132      6.785
  Name = 
  4 active torsions:
  status: ('A' for Active; 'I' for Inactive)
    1  A    between atoms: C_5  and  C_23
    2  A    between atoms: C_6  and  C_31
    3  A    between atoms: C_27  and  C_33
    4  A    between atoms: C_29  and  C_36
                            x       y       z     vdW  Elec       q    Type
                         _______ _______ _______ _____ _____    ______ ____

>  <TORSDO>
F 4

$$$$
=
 OpenBabel11062409203D

 37 42  0  0  1  0  0  0  0  0999 V2000
  156.6920  214.4530  156.1000 C   0  0  0  0  0  1  0  0  0  0  0  0
  160.9020  211.3880  154.6660 C   0  0  1  0  0  3  0  0  0  0  0  0
  160.2050  213.8020  155.3500 C   0  0  0  0  0  2  0  0  0  0  0  0
  159.8800  210.4760  153.9080 C   0  0  2  0  0  3  0  0  0  0  0  0
  157.3760  210.3940  153.4060 C   0  0  0  0  0  2  0  0  0  0  0  0
  160.5010  209.7990  152.6820 C   0  0  0  0  0  2  0  0  0  0  0  0
  160.3500  212.3440  155.7550 C   0  0  1  0  0  3  0  0  0  0  0  0
  157.6400  211.1700  154.6220 N   0  0  1  0  0  0  0  0  0  0  0  0
  157.6920  213.3960  155.6830 C   0  0  2  0  0  0  0  0  0  0  0  0
  162.8520  210.3410  154.2850 C   0  0  0  0  0  2  0  0  0  0  0  0
  159.2090  211.8290  156.6390 C   0  0  0  0  0  2  0  0  0  0  0  0
  158.1880  212.7880  156.8790 O   0  0  0  0  0  0  0  0  0  0  0  0
  161.8940  210.6010  155.2710 O   0  0  0  0  0  0  0  0  0  0  0  0
  158.6010  211.2040  153.4910 C   0  0  1  0  0  0  0  0  0  0  0  0
  158.7860  214.1290  154.9000 C   0  0  0  0  0  2  0  0  0  0  0  0
  161.4820  208.7060  153.0220 C   0  0  0  0  0  0  0  0  0  0  0  0
  156.9290  212.4290  154.7440 C   0  0  0  0  0  2  0  0  0  0  0  0
  162.5910  208.9830  153.7190 C   0  0  0  0  0  3  0  0  0  0  0  0
  157.7140  213.4910  152.4250 C   0  0  0  0  0  2  0  0  0  0  0  0
  157.1610  213.8760  151.0870 C   0  0  0  0  0  0  0  0  0  0  0  0
  160.2170  213.9120  151.2290 C   0  0  1  0  0  3  0  0  0  0  0  0
  157.9310  214.2670  150.0550 C   0  0  0  0  0  3  0  0  0  0  0  0
  159.4320  214.4530  150.0300 C   0  0  0  0  0  2  0  0  0  0  0  0
  159.9340  212.4370  151.5690 C   0  0  1  0  0  3  0  0  0  0  0  0
  161.6390  214.1160  151.0160 N   0  0  0  0  0  1  0  0  0  0  0  0
  158.5980  212.2380  152.3080 C   0  0  1  0  0  3  0  0  0  0  0  0
  161.3400  211.1730  150.1000 O   0  0  0  0  0  1  0  0  0  0  0  0
  160.0140  211.5280  150.3480 C   0  0  0  0  0  2  0  0  0  0  0  0
  154.9370  214.3520  152.0700 C   0  0  0  0  0  1  0  0  0  0  0  0
  155.6860  213.7610  150.8880 C   0  0  0  0  0  2  0  0  0  0  0  0
  161.1520  206.2540  153.4040 C   0  0  0  0  0  3  0  0  0  0  0  0
  161.2460  207.3340  152.5120 C   0  0  0  0  0  0  0  0  0  0  0  0
  161.1190  207.0850  151.1330 C   0  0  0  0  0  3  0  0  0  0  0  0
  160.7790  205.5630  149.3310 F   0  0  0  0  0  0  0  0  0  0  0  0
  160.8080  204.7230  151.5610 C   0  0  0  0  0  3  0  0  0  0  0  0
  160.9000  205.7880  150.6610 C   0  0  0  0  0  0  0  0  0  0  0  0
  160.9340  204.9560  152.9320 C   0  0  0  0  0  3  0  0  0  0  0  0
  2 13  1  1  0  0  0
  2  7  1  0  0  0  0
  4  6  1  6  0  0  0
  4  2  1  0  0  0  0
  6 16  1  0  0  0  0
  7  3  1  6  0  0  0
  7 11  1  0  0  0  0
  8  5  1  6  0  0  0
  8 17  1  0  0  0  0
  9  1  1  1  0  0  0
  9 12  1  0  0  0  0
 10 13  1  0  0  0  0
 11 12  1  0  0  0  0
 14  5  1  6  0  0  0
 14  4  1  0  0  0  0
 14  8  1  0  0  0  0
 15  3  1  0  0  0  0
 15  9  1  0  0  0  0
 16 18  2  0  0  0  0
 17  9  1  0  0  0  0
 18 10  1  0  0  0  0
 20 19  1  0  0  0  0
 21 25  1  6  0  0  0
 21 24  1  0  0  0  0
 22 20  2  0  0  0  0
 23 22  1  0  0  0  0
 23 21  1  0  0  0  0
 24 28  1  6  0  0  0
 24 26  1  0  0  0  0
 26 19  1  1  0  0  0
 26 14  1  0  0  0  0
 27 28  1  0  0  0  0
 30 20  1  0  0  0  0
 30 29  1  0  0  0  0
 32 16  1  0  0  0  0
 32 31  2  0  0  0  0
 33 32  1  0  0  0  0
 34 36  1  0  0  0  0
 35 37  2  0  0  0  0
 36 33  2  0  0  0  0
 36 35  1  0  0  0  0
 37 31  1  0  0  0  0
M  END
>  <MODEL>
5

>  <REMARK>
 VINA RESULT:       1.8      2.875      6.544
  Name = 
  4 active torsions:
  status: ('A' for Active; 'I' for Inactive)
    1  A    between atoms: C_5  and  C_23
    2  A    between atoms: C_6  and  C_31
    3  A    between atoms: C_27  and  C_33
    4  A    between atoms: C_29  and  C_36
                            x       y       z     vdW  Elec       q    Type
                         _______ _______ _______ _____ _____    ______ ____

>  <TORSDO>
F 4

$$$$
