=
 OpenBabel11062408013D

 34 38  0  0  1  0  0  0  0  0999 V2000
  161.1570  203.1490  150.6450 C   0  0  0  0  0  0  0  0  0  0  0  0
  161.1090  203.6070  148.2600 C   0  0  0  0  0  3  0  0  0  0  0  0
  161.7820  205.4470  149.9110 C   0  0  2  0  0  3  0  0  0  0  0  0
  161.5920  207.8920  149.3950 N   0  0  0  0  0  0  0  0  0  0  0  0
  160.6190  201.3810  149.0830 C   0  0  0  0  0  3  0  0  0  0  0  0
  160.5490  201.8060  146.6230 C   0  0  0  0  0  1  0  0  0  0  0  0
  161.8040  206.3250  147.6610 O   0  0  0  0  0  0  0  0  0  0  0  0
  161.2940  204.0570  149.5730 C   0  0  0  0  0  0  0  0  0  0  0  0
  160.8230  201.8150  150.3980 C   0  0  0  0  0  3  0  0  0  0  0  0
  161.1340  205.8780  151.2280 C   0  0  2  0  0  3  0  0  0  0  0  0
  161.3880  203.6270  152.0290 C   0  0  0  0  0  3  0  0  0  0  0  0
  160.7580  202.2760  148.0170 C   0  0  0  0  0  0  0  0  0  0  0  0
  160.9490  208.1570  150.5720 O   0  0  0  0  0  0  0  0  0  0  0  0
  161.5240  207.3250  151.5590 C   0  0  1  0  0  3  0  0  0  0  0  0
  161.6550  206.5460  148.8920 C   0  0  0  0  0  0  0  0  0  0  0  0
  161.4330  204.9060  152.2830 N   0  0  0  0  0  0  0  0  0  0  0  0
  160.2330  209.4040  154.5060 C   0  0  0  0  0  0  0  0  0  0  0  0
  160.0420  208.3840  155.5950 C   0  0  0  0  0  2  0  0  0  0  0  0
  161.0400  207.7350  152.9180 C   0  0  0  0  0  0  0  0  0  0  0  0
  160.4350  206.9910  155.1780 C   0  0  0  0  0  3  0  0  0  0  0  0
  160.7260  209.0100  153.1790 C   0  0  0  0  0  3  0  0  0  0  0  0
  160.8880  206.7000  153.9550 C   0  0  0  0  0  3  0  0  0  0  0  0
  159.9630  210.6120  154.7330 O   0  0  0  0  0  0  0  0  0  0  0  0
  162.2280  208.9810  148.6660 C   0  0  0  0  0  2  0  0  0  0  0  0
  161.8900  210.3220  149.3060 C   0  0  0  0  0  2  0  0  0  0  0  0
  162.3420  211.4790  148.4300 C   0  0  0  0  0  2  0  0  0  0  0  0
  161.2840  212.4690  148.3220 N   0  0  0  0  0  2  0  0  0  0  0  0
  161.9850  214.2710  146.4010 O   0  0  0  0  0  1  0  0  0  0  0  0
  160.6920  212.3140  147.0020 C   0  0  2  0  0  3  0  0  0  0  0  0
  161.5250  213.0390  145.9270 C   0  0  1  0  0  3  0  0  0  0  0  0
  159.5480  212.3370  144.4900 C   0  0  0  0  0  2  0  0  0  0  0  0
  158.5630  212.5490  145.6470 C   0  0  0  0  0  2  0  0  0  0  0  0
  159.2460  212.8020  147.0000 C   0  0  0  0  0  2  0  0  0  0  0  0
  160.7500  213.2690  144.6200 C   0  0  0  0  0  2  0  0  0  0  0  0
  1 11  1  0  0  0  0
  2  8  1  0  0  0  0
  3 15  1  6  0  0  0
  3 10  1  0  0  0  0
  4 13  1  0  0  0  0
  5  9  2  0  0  0  0
  6 12  1  0  0  0  0
  7 15  2  0  0  0  0
  8  3  1  0  0  0  0
  8  1  2  0  0  0  0
  9  1  1  0  0  0  0
 10 14  1  0  0  0  0
 10 16  1  1  0  0  0
 11 16  2  0  0  0  0
 12  2  2  0  0  0  0
 12  5  1  0  0  0  0
 13 14  1  0  0  0  0
 14 19  1  1  0  0  0
 15  4  1  0  0  0  0
 17 23  2  0  0  0  0
 17 18  1  0  0  0  0
 19 21  2  0  0  0  0
 19 22  1  0  0  0  0
 20 18  1  0  0  0  0
 21 17  1  0  0  0  0
 22 20  2  0  0  0  0
 24 25  1  0  0  0  0
 24  4  1  0  0  0  0
 26 25  1  0  0  0  0
 27 26  1  0  0  0  0
 29 27  1  1  0  0  0
 30 28  1  1  0  0  0
 30 29  1  0  0  0  0
 31 34  1  0  0  0  0
 31 32  1  0  0  0  0
 32 33  1  0  0  0  0
 33 29  1  0  0  0  0
 34 30  1  0  0  0  0
M  END
>  <MODEL>
1

>  <REMARK>
 VINA RESULT:     -10.4      0.000      0.000
  Name = 
  6 active torsions:
  status: ('A' for Active; 'I' for Inactive)
    1  A    between atoms: N_3  and  C_13
    2  A    between atoms: N_3  and  C_17
    3  A    between atoms: N_5  and  C_18
    4  A    between atoms: C_12  and  C_28
    5  A    between atoms: C_17  and  C_29
    6  A    between atoms: C_18  and  C_29
                            x       y       z     vdW  Elec       q    Type
                         _______ _______ _______ _____ _____    ______ ____

>  <TORSDO>
F 6

$$$$
=
 OpenBabel11062408013D

 34 38  0  0  1  0  0  0  0  0999 V2000
  161.1640  203.4340  151.0030 C   0  0  0  0  0  0  0  0  0  0  0  0
  161.1770  203.8090  148.6020 C   0  0  0  0  0  3  0  0  0  0  0  0
  161.7840  205.7130  150.2060 C   0  0  2  0  0  3  0  0  0  0  0  0
  161.5810  208.1360  149.6000 N   0  0  0  0  0  0  0  0  0  0  0  0
  160.6890  201.6070  149.4900 C   0  0  0  0  0  3  0  0  0  0  0  0
  160.6830  201.9450  147.0150 C   0  0  0  0  0  1  0  0  0  0  0  0
  161.8590  206.5120  147.9280 O   0  0  0  0  0  0  0  0  0  0  0  0
  161.3210  204.3060  149.9040 C   0  0  0  0  0  0  0  0  0  0  0  0
  160.8520  202.0880  150.7940 C   0  0  0  0  0  3  0  0  0  0  0  0
  161.0950  206.1820  151.4890 C   0  0  2  0  0  3  0  0  0  0  0  0
  161.3520  203.9630  152.3750 C   0  0  0  0  0  3  0  0  0  0  0  0
  160.8470  202.4660  148.3970 C   0  0  0  0  0  0  0  0  0  0  0  0
  160.9030  208.4340  150.7490 O   0  0  0  0  0  0  0  0  0  0  0  0
  161.4600  207.6440  151.7800 C   0  0  1  0  0  3  0  0  0  0  0  0
  161.6730  206.7740  149.1460 C   0  0  0  0  0  0  0  0  0  0  0  0
  161.3760  205.2500  152.5850 N   0  0  0  0  0  0  0  0  0  0  0  0
  160.3380  207.6930  155.4420 C   0  0  0  0  0  0  0  0  0  0  0  0
  159.9550  209.1290  155.6700 C   0  0  0  0  0  2  0  0  0  0  0  0
  160.9340  208.0950  153.1090 C   0  0  0  0  0  0  0  0  0  0  0  0
  160.1050  209.9860  154.4400 C   0  0  0  0  0  3  0  0  0  0  0  0
  160.8360  207.2420  154.1350 C   0  0  0  0  0  3  0  0  0  0  0  0
  160.5550  209.5090  153.2750 C   0  0  0  0  0  3  0  0  0  0  0  0
  160.2360  206.8660  156.3850 O   0  0  0  0  0  0  0  0  0  0  0  0
  162.2250  209.2060  148.8510 C   0  0  0  0  0  2  0  0  0  0  0  0
  161.9380  210.5570  149.4950 C   0  0  0  0  0  2  0  0  0  0  0  0
  162.3910  211.7000  148.6010 C   0  0  0  0  0  2  0  0  0  0  0  0
  161.2990  212.6360  148.3930 N   0  0  0  0  0  2  0  0  0  0  0  0
  162.0580  214.3580  146.4220 O   0  0  0  0  0  1  0  0  0  0  0  0
  160.7870  212.3980  147.0520 C   0  0  2  0  0  3  0  0  0  0  0  0
  161.6590  213.0920  145.9880 C   0  0  1  0  0  3  0  0  0  0  0  0
  159.7840  212.2590  144.4840 C   0  0  0  0  0  2  0  0  0  0  0  0
  158.7310  212.5010  145.5740 C   0  0  0  0  0  2  0  0  0  0  0  0
  159.3300  212.8420  146.9470 C   0  0  0  0  0  2  0  0  0  0  0  0
  160.9530  213.2320  144.6310 C   0  0  0  0  0  2  0  0  0  0  0  0
  1 11  1  0  0  0  0
  2  8  1  0  0  0  0
  3 15  1  6  0  0  0
  3 10  1  0  0  0  0
  4 13  1  0  0  0  0
  5  9  2  0  0  0  0
  6 12  1  0  0  0  0
  7 15  2  0  0  0  0
  8  3  1  0  0  0  0
  8  1  2  0  0  0  0
  9  1  1  0  0  0  0
 10 14  1  0  0  0  0
 10 16  1  1  0  0  0
 11 16  2  0  0  0  0
 12  2  2  0  0  0  0
 12  5  1  0  0  0  0
 13 14  1  0  0  0  0
 14 19  1  1  0  0  0
 15  4  1  0  0  0  0
 17 18  1  0  0  0  0
 17 23  2  0  0  0  0
 19 22  1  0  0  0  0
 19 21  2  0  0  0  0
 20 18  1  0  0  0  0
 21 17  1  0  0  0  0
 22 20  2  0  0  0  0
 24 25  1  0  0  0  0
 24  4  1  0  0  0  0
 26 25  1  0  0  0  0
 27 26  1  0  0  0  0
 29 27  1  1  0  0  0
 30 28  1  1  0  0  0
 30 29  1  0  0  0  0
 31 34  1  0  0  0  0
 31 32  1  0  0  0  0
 32 33  1  0  0  0  0
 33 29  1  0  0  0  0
 34 30  1  0  0  0  0
M  END
>  <MODEL>
2

>  <REMARK>
 VINA RESULT:     -10.4      0.811      1.173
  Name = 
  6 active torsions:
  status: ('A' for Active; 'I' for Inactive)
    1  A    between atoms: N_3  and  C_13
    2  A    between atoms: N_3  and  C_17
    3  A    between atoms: N_5  and  C_18
    4  A    between atoms: C_12  and  C_28
    5  A    between atoms: C_17  and  C_29
    6  A    between atoms: C_18  and  C_29
                            x       y       z     vdW  Elec       q    Type
                         _______ _______ _______ _____ _____    ______ ____

>  <TORSDO>
F 6

$$$$
=
 OpenBabel11062408013D

 34 38  0  0  1  0  0  0  0  0999 V2000
  161.2470  205.0620  151.9920 C   0  0  0  0  0  0  0  0  0  0  0  0
  161.3530  204.9490  149.5670 C   0  0  0  0  0  3  0  0  0  0  0  0
  161.9590  207.1210  150.7820 C   0  0  2  0  0  3  0  0  0  0  0  0
  161.8480  209.3780  149.6990 N   0  0  0  0  0  0  0  0  0  0  0  0
  160.7710  202.9790  150.8550 C   0  0  0  0  0  3  0  0  0  0  0  0
  160.8600  202.8170  148.3640 C   0  0  0  0  0  1  0  0  0  0  0  0
  162.1360  207.4470  148.3950 O   0  0  0  0  0  0  0  0  0  0  0  0
  161.4670  205.6930  150.7480 C   0  0  0  0  0  0  0  0  0  0  0  0
  160.9030  203.7080  152.0420 C   0  0  0  0  0  3  0  0  0  0  0  0
  161.2410  207.8520  151.9180 C   0  0  2  0  0  3  0  0  0  0  0  0
  161.4030  205.8500  153.2380 C   0  0  0  0  0  3  0  0  0  0  0  0
  160.9920  203.5990  149.6200 C   0  0  0  0  0  0  0  0  0  0  0  0
  161.1400  209.9140  150.7380 O   0  0  0  0  0  0  0  0  0  0  0  0
  161.6380  209.3340  151.9270 C   0  0  1  0  0  3  0  0  0  0  0  0
  161.9160  207.9510  149.5290 C   0  0  0  0  0  0  0  0  0  0  0  0
  161.4570  207.1520  153.1880 N   0  0  0  0  0  0  0  0  0  0  0  0
  159.2410  211.0840  154.3480 C   0  0  0  0  0  0  0  0  0  0  0  0
  160.1090  211.3940  155.5360 C   0  0  0  0  0  2  0  0  0  0  0  0
  161.0800  210.0530  153.1180 C   0  0  0  0  0  0  0  0  0  0  0  0
  161.5410  210.9630  155.3520 C   0  0  0  0  0  3  0  0  0  0  0  0
  159.7870  210.3970  153.1700 C   0  0  0  0  0  3  0  0  0  0  0  0
  161.9780  210.3500  154.2480 C   0  0  0  0  0  3  0  0  0  0  0  0
  158.0260  211.4140  154.3640 O   0  0  0  0  0  0  0  0  0  0  0  0
  162.5480  210.2630  148.7780 C   0  0  0  0  0  2  0  0  0  0  0  0
  161.8670  211.6250  148.7230 C   0  0  0  0  0  2  0  0  0  0  0  0
  162.7170  212.6360  147.9710 C   0  0  0  0  0  2  0  0  0  0  0  0
  162.0550  213.0290  146.7390 N   0  0  0  0  0  2  0  0  0  0  0  0
  160.4350  212.8010  144.5580 O   0  0  0  0  0  1  0  0  0  0  0  0
  160.6230  212.9040  146.9690 C   0  0  2  0  0  3  0  0  0  0  0  0
  159.9110  212.2900  145.7480 C   0  0  1  0  0  3  0  0  0  0  0  0
  157.8690  212.8570  147.1550 C   0  0  0  0  0  2  0  0  0  0  0  0
  158.5280  214.1340  147.6930 C   0  0  0  0  0  2  0  0  0  0  0  0
  160.0180  214.2570  147.3370 C   0  0  0  0  0  2  0  0  0  0  0  0
  158.3920  212.5200  145.7600 C   0  0  0  0  0  2  0  0  0  0  0  0
  1  9  1  0  0  0  0
  1 11  1  0  0  0  0
  2 12  2  0  0  0  0
  2  8  1  0  0  0  0
  3 15  1  6  0  0  0
  3 10  1  0  0  0  0
  4 13  1  0  0  0  0
  5  9  2  0  0  0  0
  6 12  1  0  0  0  0
  7 15  2  0  0  0  0
  8  3  1  0  0  0  0
  8  1  2  0  0  0  0
 10 14  1  0  0  0  0
 10 16  1  1  0  0  0
 12  5  1  0  0  0  0
 13 14  1  0  0  0  0
 14 19  1  1  0  0  0
 15  4  1  0  0  0  0
 16 11  2  0  0  0  0
 17 23  2  0  0  0  0
 17 18  1  0  0  0  0
 19 21  2  0  0  0  0
 19 22  1  0  0  0  0
 20 18  1  0  0  0  0
 21 17  1  0  0  0  0
 22 20  2  0  0  0  0
 24  4  1  0  0  0  0
 25 24  1  0  0  0  0
 26 25  1  0  0  0  0
 27 26  1  0  0  0  0
 29 27  1  6  0  0  0
 29 33  1  0  0  0  0
 30 28  1  6  0  0  0
 30 34  1  0  0  0  0
 30 29  1  0  0  0  0
 31 32  1  0  0  0  0
 33 32  1  0  0  0  0
 34 31  1  0  0  0  0
M  END
>  <MODEL>
3

>  <REMARK>
 VINA RESULT:     -10.1      1.502      2.254
  Name = 
  6 active torsions:
  status: ('A' for Active; 'I' for Inactive)
    1  A    between atoms: N_3  and  C_13
    2  A    between atoms: N_3  and  C_17
    3  A    between atoms: N_5  and  C_18
    4  A    between atoms: C_12  and  C_28
    5  A    between atoms: C_17  and  C_29
    6  A    between atoms: C_18  and  C_29
                            x       y       z     vdW  Elec       q    Type
                         _______ _______ _______ _____ _____    ______ ____

>  <TORSDO>
F 6

$$$$
=
 OpenBabel11062408013D

 34 38  0  0  1  0  0  0  0  0999 V2000
  161.3210  205.4670  152.1080 C   0  0  0  0  0  0  0  0  0  0  0  0
  161.4360  205.5660  149.6830 C   0  0  0  0  0  3  0  0  0  0  0  0
  162.0020  207.6350  151.0850 C   0  0  2  0  0  3  0  0  0  0  0  0
  161.8570  209.9750  150.2010 N   0  0  0  0  0  0  0  0  0  0  0  0
  160.8830  203.4830  150.7930 C   0  0  0  0  0  3  0  0  0  0  0  0
  160.9820  203.5390  148.2970 C   0  0  0  0  0  1  0  0  0  0  0  0
  162.1810  208.1690  148.7360 O   0  0  0  0  0  0  0  0  0  0  0  0
  161.5340  206.2070  150.9250 C   0  0  0  0  0  0  0  0  0  0  0  0
  160.9990  204.1080  152.0390 C   0  0  0  0  0  3  0  0  0  0  0  0
  161.2690  208.2520  152.2770 C   0  0  2  0  0  3  0  0  0  0  0  0
  161.4600  206.1460  153.4180 C   0  0  0  0  0  3  0  0  0  0  0  0
  161.0970  204.2110  149.6170 C   0  0  0  0  0  0  0  0  0  0  0  0
  161.1370  210.4070  151.2800 O   0  0  0  0  0  0  0  0  0  0  0  0
  161.6410  209.7340  152.4160 C   0  0  1  0  0  3  0  0  0  0  0  0
  161.9490  208.5700  149.9080 C   0  0  0  0  0  0  0  0  0  0  0  0
  161.4930  207.4480  153.4820 N   0  0  0  0  0  0  0  0  0  0  0  0
  161.2790  211.1890  155.9400 C   0  0  0  0  0  0  0  0  0  0  0  0
  159.8290  211.5850  156.0070 C   0  0  0  0  0  2  0  0  0  0  0  0
  161.0680  210.3380  153.6620 C   0  0  0  0  0  0  0  0  0  0  0  0
  159.0670  211.2580  154.7500 C   0  0  0  0  0  3  0  0  0  0  0  0
  161.8410  210.5790  154.7280 C   0  0  0  0  0  3  0  0  0  0  0  0
  159.6370  210.6910  153.6830 C   0  0  0  0  0  3  0  0  0  0  0  0
  162.0220  211.3880  156.9360 O   0  0  0  0  0  0  0  0  0  0  0  0
  162.5450  210.9480  149.3630 C   0  0  0  0  0  2  0  0  0  0  0  0
  161.5600  211.6420  148.4310 C   0  0  0  0  0  2  0  0  0  0  0  0
  162.2110  212.8150  147.7170 C   0  0  0  0  0  2  0  0  0  0  0  0
  161.1940  213.6770  147.1400 N   0  0  0  0  0  2  0  0  0  0  0  0
  159.8650  212.0830  145.3740 O   0  0  0  0  0  1  0  0  0  0  0  0
  161.5110  213.8210  145.7270 C   0  0  2  0  0  3  0  0  0  0  0  0
  160.3800  213.2670  144.8400 C   0  0  1  0  0  3  0  0  0  0  0  0
  162.0900  213.7800  143.0280 C   0  0  0  0  0  2  0  0  0  0  0  0
  163.2570  213.3810  143.9430 C   0  0  0  0  0  2  0  0  0  0  0  0
  162.8440  213.1500  145.4050 C   0  0  0  0  0  2  0  0  0  0  0  0
  160.8250  213.0060  143.3920 C   0  0  0  0  0  2  0  0  0  0  0  0
  1 11  1  0  0  0  0
  2  8  1  0  0  0  0
  3 15  1  6  0  0  0
  3 10  1  0  0  0  0
  4 13  1  0  0  0  0
  5  9  2  0  0  0  0
  6 12  1  0  0  0  0
  7 15  2  0  0  0  0
  8  3  1  0  0  0  0
  8  1  2  0  0  0  0
  9  1  1  0  0  0  0
 10 14  1  0  0  0  0
 10 16  1  1  0  0  0
 11 16  2  0  0  0  0
 12  2  2  0  0  0  0
 12  5  1  0  0  0  0
 13 14  1  0  0  0  0
 14 19  1  1  0  0  0
 15  4  1  0  0  0  0
 17 18  1  0  0  0  0
 17 23  2  0  0  0  0
 19 22  1  0  0  0  0
 19 21  2  0  0  0  0
 20 18  1  0  0  0  0
 21 17  1  0  0  0  0
 22 20  2  0  0  0  0
 24  4  1  0  0  0  0
 25 24  1  0  0  0  0
 26 25  1  0  0  0  0
 27 26  1  0  0  0  0
 29 27  1  1  0  0  0
 30 28  1  1  0  0  0
 30 29  1  0  0  0  0
 31 34  1  0  0  0  0
 31 32  1  0  0  0  0
 32 33  1  0  0  0  0
 33 29  1  0  0  0  0
 34 30  1  0  0  0  0
M  END
>  <MODEL>
4

>  <REMARK>
 VINA RESULT:      -9.7      1.745      2.792
  Name = 
  6 active torsions:
  status: ('A' for Active; 'I' for Inactive)
    1  A    between atoms: N_3  and  C_13
    2  A    between atoms: N_3  and  C_17
    3  A    between atoms: N_5  and  C_18
    4  A    between atoms: C_12  and  C_28
    5  A    between atoms: C_17  and  C_29
    6  A    between atoms: C_18  and  C_29
                            x       y       z     vdW  Elec       q    Type
                         _______ _______ _______ _____ _____    ______ ____

>  <TORSDO>
F 6

$$$$
=
 OpenBabel11062408013D

 34 38  0  0  1  0  0  0  0  0999 V2000
  161.1340  203.6560  150.9930 C   0  0  0  0  0  0  0  0  0  0  0  0
  161.2040  203.9880  148.5870 C   0  0  0  0  0  3  0  0  0  0  0  0
  161.8260  205.9040  150.1700 C   0  0  2  0  0  3  0  0  0  0  0  0
  161.6960  208.3200  149.5190 N   0  0  0  0  0  0  0  0  0  0  0  0
  160.6440  201.8140  149.5020 C   0  0  0  0  0  3  0  0  0  0  0  0
  160.6960  202.1090  147.0220 C   0  0  0  0  0  1  0  0  0  0  0  0
  161.9670  206.6610  147.8800 O   0  0  0  0  0  0  0  0  0  0  0  0
  161.3350  204.5040  149.8820 C   0  0  0  0  0  0  0  0  0  0  0  0
  160.7930  202.3140  150.8000 C   0  0  0  0  0  3  0  0  0  0  0  0
  161.1240  206.4120  151.4300 C   0  0  2  0  0  3  0  0  0  0  0  0
  161.3070  204.2030  152.3590 C   0  0  0  0  0  3  0  0  0  0  0  0
  160.8460  202.6500  148.3980 C   0  0  0  0  0  0  0  0  0  0  0  0
  161.0030  208.6550  150.6480 O   0  0  0  0  0  0  0  0  0  0  0  0
  161.5190  207.8700  151.7040 C   0  0  1  0  0  3  0  0  0  0  0  0
  161.7630  206.9490  149.0900 C   0  0  0  0  0  0  0  0  0  0  0  0
  161.3590  205.4930  152.5480 N   0  0  0  0  0  0  0  0  0  0  0  0
  160.2830  208.0000  155.3270 C   0  0  0  0  0  0  0  0  0  0  0  0
  159.9780  209.4580  155.5390 C   0  0  0  0  0  2  0  0  0  0  0  0
  160.9780  208.3570  153.0140 C   0  0  0  0  0  0  0  0  0  0  0  0
  160.2200  210.2990  154.3120 C   0  0  0  0  0  3  0  0  0  0  0  0
  160.7950  207.5150  154.0380 C   0  0  0  0  0  3  0  0  0  0  0  0
  160.6780  209.7910  153.1640 C   0  0  0  0  0  3  0  0  0  0  0  0
  160.1010  207.1850  156.2680 O   0  0  0  0  0  0  0  0  0  0  0  0
  162.3810  209.3610  148.7650 C   0  0  0  0  0  2  0  0  0  0  0  0
  162.1570  210.7230  149.4090 C   0  0  0  0  0  2  0  0  0  0  0  0
  161.6930  211.7470  148.3850 C   0  0  0  0  0  2  0  0  0  0  0  0
  161.5380  213.0480  149.0130 N   0  0  0  0  0  2  0  0  0  0  0  0
  159.4240  214.4460  148.0090 O   0  0  0  0  0  1  0  0  0  0  0  0
  160.2890  213.0130  149.7580 C   0  0  2  0  0  3  0  0  0  0  0  0
  159.0930  213.3910  148.8630 C   0  0  1  0  0  3  0  0  0  0  0  0
  157.8880  213.2530  151.0990 C   0  0  0  0  0  2  0  0  0  0  0  0
  159.1020  213.8180  151.8490 C   0  0  0  0  0  2  0  0  0  0  0  0
  160.3680  213.9210  150.9840 C   0  0  0  0  0  2  0  0  0  0  0  0
  157.8400  213.7780  149.6650 C   0  0  0  0  0  2  0  0  0  0  0  0
  1 11  1  0  0  0  0
  2  8  1  0  0  0  0
  3 15  1  6  0  0  0
  3 10  1  0  0  0  0
  4 13  1  0  0  0  0
  5  9  2  0  0  0  0
  6 12  1  0  0  0  0
  7 15  2  0  0  0  0
  8  3  1  0  0  0  0
  8  1  2  0  0  0  0
  9  1  1  0  0  0  0
 10 14  1  0  0  0  0
 10 16  1  1  0  0  0
 11 16  2  0  0  0  0
 12  2  2  0  0  0  0
 12  5  1  0  0  0  0
 13 14  1  0  0  0  0
 14 19  1  1  0  0  0
 15  4  1  0  0  0  0
 17 18  1  0  0  0  0
 17 23  2  0  0  0  0
 19 22  1  0  0  0  0
 19 21  2  0  0  0  0
 20 18  1  0  0  0  0
 21 17  1  0  0  0  0
 22 20  2  0  0  0  0
 24 25  1  0  0  0  0
 24  4  1  0  0  0  0
 26 27  1  0  0  0  0
 26 25  1  0  0  0  0
 29 27  1  6  0  0  0
 29 33  1  0  0  0  0
 30 28  1  1  0  0  0
 30 34  1  0  0  0  0
 30 29  1  0  0  0  0
 31 32  1  0  0  0  0
 33 32  1  0  0  0  0
 34 31  1  0  0  0  0
M  END
>  <MODEL>
5

>  <REMARK>
 VINA RESULT:      -9.4      1.846      2.557
  Name = 
  6 active torsions:
  status: ('A' for Active; 'I' for Inactive)
    1  A    between atoms: N_3  and  C_13
    2  A    between atoms: N_3  and  C_17
    3  A    between atoms: N_5  and  C_18
    4  A    between atoms: C_12  and  C_28
    5  A    between atoms: C_17  and  C_29
    6  A    between atoms: C_18  and  C_29
                            x       y       z     vdW  Elec       q    Type
                         _______ _______ _______ _____ _____    ______ ____

>  <TORSDO>
F 6

$$$$
=
 OpenBabel11062408013D

 34 38  0  0  1  0  0  0  0  0999 V2000
  161.7550  209.0300  151.5860 C   0  0  0  0  0  0  0  0  0  0  0  0
  160.8170  207.9500  153.5500 C   0  0  0  0  0  3  0  0  0  0  0  0
  161.7050  206.5380  151.6050 C   0  0  2  0  0  3  0  0  0  0  0  0
  160.9530  204.1910  151.1550 N   0  0  0  0  0  0  0  0  0  0  0  0
  161.0100  210.3640  153.4620 C   0  0  0  0  0  3  0  0  0  0  0  0
  160.0320  209.2990  155.4990 C   0  0  0  0  0  1  0  0  0  0  0  0
  160.8100  205.0910  153.3190 O   0  0  0  0  0  0  0  0  0  0  0  0
  161.3660  207.8550  152.2650 C   0  0  0  0  0  0  0  0  0  0  0  0
  161.5790  210.2800  152.1870 C   0  0  0  0  0  3  0  0  0  0  0  0
  161.4880  206.6840  150.0980 C   0  0  2  0  0  3  0  0  0  0  0  0
  162.3660  208.9170  150.2400 C   0  0  0  0  0  3  0  0  0  0  0  0
  160.6260  209.2030  154.1410 C   0  0  0  0  0  0  0  0  0  0  0  0
  160.7190  204.4490  149.8340 O   0  0  0  0  0  0  0  0  0  0  0  0
  161.7260  205.3390  149.3970 C   0  0  1  0  0  3  0  0  0  0  0  0
  161.0590  205.2730  152.0970 C   0  0  0  0  0  0  0  0  0  0  0  0
  162.2860  207.7970  149.5750 N   0  0  0  0  0  0  0  0  0  0  0  0
  160.5120  205.9880  145.8230 C   0  0  0  0  0  0  0  0  0  0  0  0
  161.7430  205.7590  144.9900 C   0  0  0  0  0  2  0  0  0  0  0  0
  161.6770  205.4720  147.9050 C   0  0  0  0  0  0  0  0  0  0  0  0
  162.9420  205.3460  145.8030 C   0  0  0  0  0  3  0  0  0  0  0  0
  160.5500  205.8400  147.2840 C   0  0  0  0  0  3  0  0  0  0  0  0
  162.9060  205.2190  147.1330 C   0  0  0  0  0  3  0  0  0  0  0  0
  159.4350  206.3160  145.2610 O   0  0  0  0  0  0  0  0  0  0  0  0
  161.1130  202.8120  151.5980 C   0  0  0  0  0  2  0  0  0  0  0  0
  161.7910  201.9790  150.5170 C   0  0  0  0  0  2  0  0  0  0  0  0
  160.7680  201.3180  149.6080 C   0  0  0  0  0  2  0  0  0  0  0  0
  161.4380  200.6010  148.5370 N   0  0  0  0  0  2  0  0  0  0  0  0
  161.9330  199.0580  146.3450 O   0  0  0  0  0  1  0  0  0  0  0  0
  160.7430  200.9350  147.3030 C   0  0  2  0  0  3  0  0  0  0  0  0
  160.7120  199.7370  146.3360 C   0  0  1  0  0  3  0  0  0  0  0  0
  159.6950  201.5030  144.8130 C   0  0  0  0  0  2  0  0  0  0  0  0
  160.5940  202.6010  145.3980 C   0  0  0  0  0  2  0  0  0  0  0  0
  161.3760  202.1590  146.6450 C   0  0  0  0  0  2  0  0  0  0  0  0
  160.3810  200.1400  144.8900 C   0  0  0  0  0  2  0  0  0  0  0  0
  1  9  2  0  0  0  0
  1  8  1  0  0  0  0
  2 12  1  0  0  0  0
  3 15  1  1  0  0  0
  3  8  1  0  0  0  0
  4 24  1  0  0  0  0
  4 15  1  0  0  0  0
  5 12  2  0  0  0  0
  8  2  2  0  0  0  0
  9  5  1  0  0  0  0
 10 16  1  6  0  0  0
 10  3  1  0  0  0  0
 11  1  1  0  0  0  0
 12  6  1  0  0  0  0
 13  4  1  0  0  0  0
 14 19  1  6  0  0  0
 14 13  1  0  0  0  0
 14 10  1  0  0  0  0
 15  7  2  0  0  0  0
 16 11  2  0  0  0  0
 17 21  1  0  0  0  0
 18 20  1  0  0  0  0
 18 17  1  0  0  0  0
 20 22  2  0  0  0  0
 21 19  2  0  0  0  0
 22 19  1  0  0  0  0
 23 17  2  0  0  0  0
 25 24  1  0  0  0  0
 26 25  1  0  0  0  0
 27 26  1  0  0  0  0
 29 27  1  1  0  0  0
 30 28  1  6  0  0  0
 30 29  1  0  0  0  0
 31 34  1  0  0  0  0
 31 32  1  0  0  0  0
 32 33  1  0  0  0  0
 33 29  1  0  0  0  0
 34 30  1  0  0  0  0
M  END
>  <MODEL>
6

>  <REMARK>
 VINA RESULT:      -8.8      3.570      8.748
  Name = 
  6 active torsions:
  status: ('A' for Active; 'I' for Inactive)
    1  A    between atoms: N_3  and  C_13
    2  A    between atoms: N_3  and  C_17
    3  A    between atoms: N_5  and  C_18
    4  A    between atoms: C_12  and  C_28
    5  A    between atoms: C_17  and  C_29
    6  A    between atoms: C_18  and  C_29
                            x       y       z     vdW  Elec       q    Type
                         _______ _______ _______ _____ _____    ______ ____

>  <TORSDO>
F 6

$$$$
=
 OpenBabel11062408013D

 34 38  0  0  1  0  0  0  0  0999 V2000
  161.8380  210.3190  148.9860 C   0  0  0  0  0  0  0  0  0  0  0  0
  161.1820  212.0400  150.5720 C   0  0  0  0  0  3  0  0  0  0  0  0
  161.8230  209.7020  151.4010 C   0  0  2  0  0  3  0  0  0  0  0  0
  161.0470  208.7610  153.5900 N   0  0  0  0  0  0  0  0  0  0  0  0
  161.3310  212.5540  148.2070 C   0  0  0  0  0  3  0  0  0  0  0  0
  160.6450  214.3530  149.7980 C   0  0  0  0  0  1  0  0  0  0  0  0
  161.1820  211.0830  153.2760 O   0  0  0  0  0  0  0  0  0  0  0  0
  161.5570  210.7160  150.3120 C   0  0  0  0  0  0  0  0  0  0  0  0
  161.7270  211.2390  147.9390 C   0  0  0  0  0  3  0  0  0  0  0  0
  161.4060  208.3230  150.8880 C   0  0  2  0  0  3  0  0  0  0  0  0
  162.2660  208.9240  148.7260 C   0  0  0  0  0  3  0  0  0  0  0  0
  161.0560  212.9520  149.5200 C   0  0  0  0  0  0  0  0  0  0  0  0
  160.6370  207.5900  153.0160 O   0  0  0  0  0  0  0  0  0  0  0  0
  161.5660  207.2750  151.9980 C   0  0  1  0  0  3  0  0  0  0  0  0
  161.2630  209.9290  152.7780 C   0  0  0  0  0  0  0  0  0  0  0  0
  162.1130  208.0090  149.6430 N   0  0  0  0  0  0  0  0  0  0  0  0
  161.0150  204.2680  149.6910 C   0  0  0  0  0  0  0  0  0  0  0  0
  160.8990  203.1130  150.6460 C   0  0  0  0  0  2  0  0  0  0  0  0
  161.3180  205.8860  151.4940 C   0  0  0  0  0  0  0  0  0  0  0  0
  161.0000  203.5250  152.0910 C   0  0  0  0  0  3  0  0  0  0  0  0
  161.2390  205.6350  150.1820 C   0  0  0  0  0  3  0  0  0  0  0  0
  161.1930  204.7910  152.4720 C   0  0  0  0  0  3  0  0  0  0  0  0
  160.9240  204.0620  148.4530 O   0  0  0  0  0  0  0  0  0  0  0  0
  161.2830  208.8100  155.0270 C   0  0  0  0  0  2  0  0  0  0  0  0
  159.9610  208.8540  155.7840 C   0  0  0  0  0  2  0  0  0  0  0  0
  159.6290  210.2680  156.2300 C   0  0  0  0  0  2  0  0  0  0  0  0
  158.2870  210.6260  155.8040 N   0  0  0  0  0  2  0  0  0  0  0  0
  156.3530  212.5170  156.1440 O   0  0  0  0  0  1  0  0  0  0  0  0
  158.4000  211.8560  155.0340 C   0  0  2  0  0  3  0  0  0  0  0  0
  157.5790  212.9930  155.6720 C   0  0  1  0  0  3  0  0  0  0  0  0
  158.3020  214.1740  153.5380 C   0  0  0  0  0  2  0  0  0  0  0  0
  158.2000  212.8780  152.7230 C   0  0  0  0  0  2  0  0  0  0  0  0
  157.9850  211.6230  153.5830 C   0  0  0  0  0  2  0  0  0  0  0  0
  157.3190  214.1610  154.7080 C   0  0  0  0  0  2  0  0  0  0  0  0
  1  8  1  0  0  0  0
  3  8  1  6  0  0  0
  3 15  1  0  0  0  0
  4 24  1  0  0  0  0
  5 12  2  0  0  0  0
  8  2  2  0  0  0  0
  9  5  1  0  0  0  0
  9  1  2  0  0  0  0
 10 16  1  6  0  0  0
 10  3  1  0  0  0  0
 10 14  1  0  0  0  0
 11  1  1  0  0  0  0
 11 16  2  0  0  0  0
 12  6  1  0  0  0  0
 12  2  1  0  0  0  0
 13  4  1  0  0  0  0
 14 19  1  6  0  0  0
 14 13  1  0  0  0  0
 15  7  2  0  0  0  0
 15  4  1  0  0  0  0
 17 21  1  0  0  0  0
 17 18  1  0  0  0  0
 18 20  1  0  0  0  0
 19 22  1  0  0  0  0
 20 22  2  0  0  0  0
 21 19  2  0  0  0  0
 23 17  2  0  0  0  0
 24 25  1  0  0  0  0
 25 26  1  0  0  0  0
 27 26  1  0  0  0  0
 29 30  1  0  0  0  0
 29 27  1  1  0  0  0
 30 28  1  6  0  0  0
 31 34  1  0  0  0  0
 32 31  1  0  0  0  0
 32 33  1  0  0  0  0
 33 29  1  0  0  0  0
 34 30  1  0  0  0  0
M  END
>  <MODEL>
7

>  <REMARK>
 VINA RESULT:      -8.3      2.815      7.568
  Name = 
  6 active torsions:
  status: ('A' for Active; 'I' for Inactive)
    1  A    between atoms: N_3  and  C_13
    2  A    between atoms: N_3  and  C_17
    3  A    between atoms: N_5  and  C_18
    4  A    between atoms: C_12  and  C_28
    5  A    between atoms: C_17  and  C_29
    6  A    between atoms: C_18  and  C_29
                            x       y       z     vdW  Elec       q    Type
                         _______ _______ _______ _____ _____    ______ ____

>  <TORSDO>
F 6

$$$$
=
 OpenBabel11062408013D

 34 38  0  0  1  0  0  0  0  0999 V2000
  161.0610  207.3840  153.4660 C   0  0  0  0  0  0  0  0  0  0  0  0
  161.7160  209.7170  153.6510 C   0  0  0  0  0  3  0  0  0  0  0  0
  161.0620  208.7400  151.3740 C   0  0  2  0  0  3  0  0  0  0  0  0
  161.8220  209.7110  149.1930 N   0  0  0  0  0  0  0  0  0  0  0  0
  161.5800  208.3280  155.6330 C   0  0  0  0  0  3  0  0  0  0  0  0
  162.2650  210.7180  155.8720 C   0  0  0  0  0  1  0  0  0  0  0  0
  161.6990  211.0550  151.1140 O   0  0  0  0  0  0  0  0  0  0  0  0
  161.3370  208.6280  152.8560 C   0  0  0  0  0  0  0  0  0  0  0  0
  161.1810  207.2390  154.8510 C   0  0  0  0  0  3  0  0  0  0  0  0
  161.4760  207.4280  150.7060 C   0  0  2  0  0  3  0  0  0  0  0  0
  160.6290  206.2470  152.6200 C   0  0  0  0  0  3  0  0  0  0  0  0
  161.8510  209.5630  155.0340 C   0  0  0  0  0  0  0  0  0  0  0  0
  162.2300  208.4960  148.7200 O   0  0  0  0  0  0  0  0  0  0  0  0
  161.3060  207.5340  149.1840 C   0  0  1  0  0  3  0  0  0  0  0  0
  161.6150  209.9060  150.6030 C   0  0  0  0  0  0  0  0  0  0  0  0
  160.7740  206.3000  151.3250 N   0  0  0  0  0  0  0  0  0  0  0  0
  162.5280  204.8620  146.7270 C   0  0  0  0  0  0  0  0  0  0  0  0
  162.0080  203.5800  147.3190 C   0  0  0  0  0  2  0  0  0  0  0  0
  161.5510  206.2200  148.5040 C   0  0  0  0  0  0  0  0  0  0  0  0
  161.2070  203.7900  148.5770 C   0  0  0  0  0  3  0  0  0  0  0  0
  162.2740  206.1530  147.3800 C   0  0  0  0  0  3  0  0  0  0  0  0
  161.0040  204.9960  149.1140 C   0  0  0  0  0  3  0  0  0  0  0  0
  163.1940  204.8270  145.6600 O   0  0  0  0  0  0  0  0  0  0  0  0
  161.5800  210.8000  148.2560 C   0  0  0  0  0  2  0  0  0  0  0  0
  162.7440  211.7830  148.2670 C   0  0  0  0  0  2  0  0  0  0  0  0
  162.2860  213.1830  147.8900 C   0  0  0  0  0  2  0  0  0  0  0  0
  162.8650  213.5720  146.6150 N   0  0  0  0  0  2  0  0  0  0  0  0
  163.4800  214.1560  144.0250 O   0  0  0  0  0  1  0  0  0  0  0  0
  162.0200  213.0050  145.5750 C   0  0  2  0  0  3  0  0  0  0  0  0
  162.7450  212.9830  144.2160 C   0  0  1  0  0  3  0  0  0  0  0  0
  160.4470  212.2050  143.4520 C   0  0  0  0  0  2  0  0  0  0  0  0
  159.7430  213.1170  144.4670 C   0  0  0  0  0  2  0  0  0  0  0  0
  160.6980  213.7630  145.4830 C   0  0  0  0  0  2  0  0  0  0  0  0
  161.7890  212.7980  143.0270 C   0  0  0  0  0  2  0  0  0  0  0  0
  1  9  1  0  0  0  0
  2 12  2  0  0  0  0
  3 15  1  6  0  0  0
  3  8  1  0  0  0  0
  4 15  1  0  0  0  0
  8  1  2  0  0  0  0
  8  2  1  0  0  0  0
  9  5  2  0  0  0  0
 10 16  1  1  0  0  0
 10  3  1  0  0  0  0
 11  1  1  0  0  0  0
 12  5  1  0  0  0  0
 12  6  1  0  0  0  0
 13 14  1  0  0  0  0
 13  4  1  0  0  0  0
 14 19  1  6  0  0  0
 14 10  1  0  0  0  0
 15  7  2  0  0  0  0
 16 11  2  0  0  0  0
 17 18  1  0  0  0  0
 17 21  1  0  0  0  0
 18 20  1  0  0  0  0
 19 22  1  0  0  0  0
 20 22  2  0  0  0  0
 21 19  2  0  0  0  0
 23 17  2  0  0  0  0
 24 25  1  0  0  0  0
 24  4  1  0  0  0  0
 26 25  1  0  0  0  0
 27 26  1  0  0  0  0
 29 27  1  1  0  0  0
 30 28  1  6  0  0  0
 30 29  1  0  0  0  0
 31 32  1  0  0  0  0
 32 33  1  0  0  0  0
 33 29  1  0  0  0  0
 34 31  1  0  0  0  0
 34 30  1  0  0  0  0
M  END
>  <MODEL>
8

>  <REMARK>
 VINA RESULT:      -8.3      1.854      5.768
  Name = 
  6 active torsions:
  status: ('A' for Active; 'I' for Inactive)
    1  A    between atoms: N_3  and  C_13
    2  A    between atoms: N_3  and  C_17
    3  A    between atoms: N_5  and  C_18
    4  A    between atoms: C_12  and  C_28
    5  A    between atoms: C_17  and  C_29
    6  A    between atoms: C_18  and  C_29
                            x       y       z     vdW  Elec       q    Type
                         _______ _______ _______ _____ _____    ______ ____

>  <TORSDO>
F 6

$$$$
=
 OpenBabel11062408013D

 34 38  0  0  1  0  0  0  0  0999 V2000
  161.5080  210.4080  150.2190 C   0  0  0  0  0  0  0  0  0  0  0  0
  160.6260  209.9710  152.4410 C   0  0  0  0  0  3  0  0  0  0  0  0
  161.6420  208.0660  151.0620 C   0  0  2  0  0  3  0  0  0  0  0  0
  161.0720  205.6530  151.4230 N   0  0  0  0  0  0  0  0  0  0  0  0
  160.6420  212.2280  151.5580 C   0  0  0  0  0  3  0  0  0  0  0  0
  159.7180  211.8270  153.8440 C   0  0  0  0  0  1  0  0  0  0  0  0
  160.8350  207.2040  153.1690 O   0  0  0  0  0  0  0  0  0  0  0  0
  161.1980  209.4980  151.2530 C   0  0  0  0  0  0  0  0  0  0  0  0
  161.2320  211.7690  150.3750 C   0  0  0  0  0  3  0  0  0  0  0  0
  161.4350  207.6890  149.5940 C   0  0  2  0  0  3  0  0  0  0  0  0
  162.1430  209.9020  148.9790 C   0  0  0  0  0  3  0  0  0  0  0  0
  160.3360  211.3310  152.5870 C   0  0  0  0  0  0  0  0  0  0  0  0
  160.8370  205.4420  150.0930 O   0  0  0  0  0  0  0  0  0  0  0  0
  161.7810  206.2100  149.3740 C   0  0  1  0  0  3  0  0  0  0  0  0
  161.0850  206.9900  151.9520 C   0  0  0  0  0  0  0  0  0  0  0  0
  162.1540  208.6230  148.7230 N   0  0  0  0  0  0  0  0  0  0  0  0
  160.6590  205.7970  145.7350 C   0  0  0  0  0  0  0  0  0  0  0  0
  161.8300  205.1110  145.0850 C   0  0  0  0  0  2  0  0  0  0  0  0
  161.7420  205.8380  147.9230 C   0  0  0  0  0  0  0  0  0  0  0  0
  162.9520  204.8150  146.0460 C   0  0  0  0  0  3  0  0  0  0  0  0
  160.6840  206.1460  147.1620 C   0  0  0  0  0  3  0  0  0  0  0  0
  162.9070  205.1510  147.3390 C   0  0  0  0  0  3  0  0  0  0  0  0
  159.6450  206.0800  145.0460 O   0  0  0  0  0  0  0  0  0  0  0  0
  161.3280  204.5140  152.2940 C   0  0  0  0  0  2  0  0  0  0  0  0
  160.7200  203.2460  151.7090 C   0  0  0  0  0  2  0  0  0  0  0  0
  161.7980  202.2970  151.2120 C   0  0  0  0  0  2  0  0  0  0  0  0
  161.1930  201.1430  150.5680 N   0  0  0  0  0  2  0  0  0  0  0  0
  158.8030  201.4640  149.2970 O   0  0  0  0  0  1  0  0  0  0  0  0
  161.2170  201.3970  149.1350 C   0  0  2  0  0  3  0  0  0  0  0  0
  159.9020  202.0440  148.6590 C   0  0  1  0  0  3  0  0  0  0  0  0
  161.0110  201.6880  146.3980 C   0  0  0  0  0  2  0  0  0  0  0  0
  161.6480  200.3700  146.8580 C   0  0  0  0  0  2  0  0  0  0  0  0
  161.5080  200.1100  148.3660 C   0  0  0  0  0  2  0  0  0  0  0  0
  159.7010  201.9470  147.1390 C   0  0  0  0  0  2  0  0  0  0  0  0
  1  9  2  0  0  0  0
  1  8  1  0  0  0  0
  2 12  1  0  0  0  0
  3  8  1  1  0  0  0
  3 15  1  0  0  0  0
  4 15  1  0  0  0  0
  4 24  1  0  0  0  0
  5 12  2  0  0  0  0
  8  2  2  0  0  0  0
  9  5  1  0  0  0  0
 10 16  1  6  0  0  0
 10  3  1  0  0  0  0
 11  1  1  0  0  0  0
 12  6  1  0  0  0  0
 13  4  1  0  0  0  0
 14 19  1  6  0  0  0
 14 10  1  0  0  0  0
 14 13  1  0  0  0  0
 15  7  2  0  0  0  0
 16 11  2  0  0  0  0
 17 21  1  0  0  0  0
 18 17  1  0  0  0  0
 18 20  1  0  0  0  0
 20 22  2  0  0  0  0
 21 19  2  0  0  0  0
 22 19  1  0  0  0  0
 23 17  2  0  0  0  0
 25 24  1  0  0  0  0
 26 25  1  0  0  0  0
 27 26  1  0  0  0  0
 29 27  1  1  0  0  0
 30 29  1  0  0  0  0
 30 28  1  1  0  0  0
 31 32  1  0  0  0  0
 31 34  1  0  0  0  0
 32 33  1  0  0  0  0
 33 29  1  0  0  0  0
 34 30  1  0  0  0  0
M  END
>  <MODEL>
9

>  <REMARK>
 VINA RESULT:      -8.0      3.085      8.849
  Name = 
  6 active torsions:
  status: ('A' for Active; 'I' for Inactive)
    1  A    between atoms: N_3  and  C_13
    2  A    between atoms: N_3  and  C_17
    3  A    between atoms: N_5  and  C_18
    4  A    between atoms: C_12  and  C_28
    5  A    between atoms: C_17  and  C_29
    6  A    between atoms: C_18  and  C_29
                            x       y       z     vdW  Elec       q    Type
                         _______ _______ _______ _____ _____    ______ ____

>  <TORSDO>
F 6

$$$$
