=
 OpenBabel11062408233D

 32 37  0  0  1  0  0  0  0  0999 V2000
  161.3490  204.1050  149.8290 C   0  0  0  0  0  0  0  0  0  0  0  0
  161.5690  206.2820  150.9130 C   0  0  0  0  0  0  0  0  0  0  0  0
  161.1510  202.7200  149.9400 C   0  0  0  0  0  3  0  0  0  0  0  0
  161.3260  204.9000  150.9900 C   0  0  0  0  0  0  0  0  0  0  0  0
  161.5110  207.0580  152.0870 C   0  0  0  0  0  0  0  0  0  0  0  0
  162.2500  210.6190  148.5170 C   0  0  0  0  0  2  0  0  0  0  0  0
  161.9800  206.9090  149.5910 C   0  0  1  0  0  3  0  0  0  0  0  0
  161.9960  210.5990  150.7800 C   0  0  0  0  0  2  0  0  0  0  0  0
  162.2510  209.0810  150.7990 C   0  0  1  0  0  3  0  0  0  0  0  0
  161.0580  204.3150  152.2440 C   0  0  0  0  0  0  0  0  0  0  0  0
  161.7310  208.4740  152.0180 N   0  0  0  0  0  2  0  0  0  0  0  0
  161.0000  205.0920  153.3570 N   0  0  0  0  0  0  0  0  0  0  0  0
  160.8560  202.9360  152.3390 C   0  0  0  0  0  3  0  0  0  0  0  0
  161.3130  206.1740  148.4270 C   0  0  0  0  0  2  0  0  0  0  0  0
  161.5410  204.7310  148.5490 N   0  0  0  0  0  0  0  0  0  0  0  0
  161.6450  208.4030  149.5680 C   0  0  1  0  0  3  0  0  0  0  0  0
  161.2000  206.4380  153.3090 C   0  0  0  0  0  0  0  0  0  0  0  0
  160.9090  202.1400  151.1900 C   0  0  0  0  0  3  0  0  0  0  0  0
  161.4090  211.0340  149.5680 O   0  0  0  0  0  0  0  0  0  0  0  0
  162.1380  209.1020  148.2960 C   0  0  0  0  0  2  0  0  0  0  0  0
  161.6020  204.4480  145.1600 N   0  0  0  0  0  0  0  0  0  0  0  0
  161.3020  205.2750  144.0030 C   0  0  0  0  0  1  0  0  0  0  0  0
  160.7910  203.3880  145.6440 C   0  0  0  0  0  0  0  0  0  0  0  0
  162.0540  203.9640  147.4130 C   0  0  1  0  0  3  0  0  0  0  0  0
  161.0150  203.0910  146.8770 N   0  0  0  0  0  0  0  0  0  0  0  0
  162.4310  204.9020  146.2610 C   0  0  1  0  0  3  0  0  0  0  0  0
  163.8970  204.7170  145.9150 C   0  0  0  0  0  1  0  0  0  0  0  0
  159.7920  201.2820  144.8080 O   0  0  0  0  0  1  0  0  0  0  0  0
  159.7870  202.6710  144.8420 C   0  0  0  0  0  0  0  0  0  0  0  0
  158.9260  203.3030  144.1760 O   0  0  0  0  0  0  0  0  0  0  0  0
  161.1330  207.2270  154.5740 C   0  0  0  0  0  2  0  0  0  0  0  0
  159.8550  206.9000  155.3220 C   0  0  0  0  0  1  0  0  0  0  0  0
  1  3  2  0  0  0  0
  1  4  1  0  0  0  0
  2  4  2  0  0  0  0
  2  5  1  0  0  0  0
  3 18  1  0  0  0  0
  4 10  1  0  0  0  0
  5 17  2  0  0  0  0
  6 19  1  0  0  0  0
  7 14  1  6  0  0  0
  7  2  1  0  0  0  0
  9  8  1  1  0  0  0
  9 11  1  0  0  0  0
 10 13  1  0  0  0  0
 10 12  2  0  0  0  0
 11  5  1  0  0  0  0
 14 15  1  0  0  0  0
 15  1  1  0  0  0  0
 16 20  1  6  0  0  0
 16  7  1  0  0  0  0
 16  9  1  0  0  0  0
 17 12  1  0  0  0  0
 17 31  1  0  0  0  0
 18 13  2  0  0  0  0
 19  8  1  0  0  0  0
 20  6  1  0  0  0  0
 21 23  1  0  0  0  0
 21 26  1  0  0  0  0
 22 21  1  0  0  0  0
 23 25  2  0  0  0  0
 24 15  1  1  0  0  0
 25 24  1  0  0  0  0
 26 27  1  6  0  0  0
 26 24  1  0  0  0  0
 28 29  1  0  0  0  0
 29 23  1  0  0  0  0
 30 29  2  0  0  0  0
 31 32  1  0  0  0  0
M  END
>  <MODEL>
1

>  <REMARK>
 VINA RESULT:      -9.4      0.000      0.000
  Name = 
  3 active torsions:
  status: ('A' for Active; 'I' for Inactive)
    1  A    between atoms: C_13  and  C_29
    2  A    between atoms: C_15  and  C_19
    3  A    between atoms: C_16  and  N_27
                            x       y       z     vdW  Elec       q    Type
                         _______ _______ _______ _____ _____    ______ ____

>  <TORSDO>
F 3

$$$$
=
 OpenBabel11062408233D

 32 37  0  0  1  0  0  0  0  0999 V2000
  161.3720  205.1730  149.7550 C   0  0  0  0  0  0  0  0  0  0  0  0
  161.4590  207.3890  150.7760 C   0  0  0  0  0  0  0  0  0  0  0  0
  161.1860  203.7890  149.8970 C   0  0  0  0  0  3  0  0  0  0  0  0
  161.2320  206.0070  150.8800 C   0  0  0  0  0  0  0  0  0  0  0  0
  161.2820  208.2040  151.9110 C   0  0  0  0  0  0  0  0  0  0  0  0
  162.2880  211.6540  148.2960 C   0  0  0  0  0  2  0  0  0  0  0  0
  161.9800  207.9780  149.4750 C   0  0  1  0  0  3  0  0  0  0  0  0
  161.8290  211.7060  150.5270 C   0  0  0  0  0  2  0  0  0  0  0  0
  162.1050  210.1960  150.6240 C   0  0  1  0  0  3  0  0  0  0  0  0
  160.8590  205.4600  152.1240 C   0  0  0  0  0  0  0  0  0  0  0  0
  161.4850  209.6210  151.8110 N   0  0  0  0  0  2  0  0  0  0  0  0
  160.6880  206.2740  153.1990 N   0  0  0  0  0  0  0  0  0  0  0  0
  160.6710  204.0810  152.2500 C   0  0  0  0  0  3  0  0  0  0  0  0
  161.4320  207.1910  148.2820 C   0  0  0  0  0  2  0  0  0  0  0  0
  161.6720  205.7580  148.4760 N   0  0  0  0  0  0  0  0  0  0  0  0
  161.6250  209.4640  149.3670 C   0  0  1  0  0  3  0  0  0  0  0  0
  160.8700  207.6200  153.1210 C   0  0  0  0  0  0  0  0  0  0  0  0
  160.8410  203.2480  151.1400 C   0  0  0  0  0  3  0  0  0  0  0  0
  161.3490  212.0880  149.2520 O   0  0  0  0  0  0  0  0  0  0  0  0
  162.2200  210.1280  148.1210 C   0  0  0  0  0  2  0  0  0  0  0  0
  161.2220  204.2720  145.4500 N   0  0  0  0  0  0  0  0  0  0  0  0
  160.2830  204.3430  144.3420 C   0  0  0  0  0  1  0  0  0  0  0  0
  161.2780  203.2290  146.4130 C   0  0  0  0  0  0  0  0  0  0  0  0
  162.2980  204.9620  147.4200 C   0  0  1  0  0  3  0  0  0  0  0  0
  161.8660  203.5710  147.5060 N   0  0  0  0  0  0  0  0  0  0  0  0
  161.8360  205.4460  146.0400 C   0  0  1  0  0  3  0  0  0  0  0  0
  163.0420  205.8660  145.2210 C   0  0  0  0  0  1  0  0  0  0  0  0
  160.7420  200.9660  147.2610 O   0  0  0  0  0  1  0  0  0  0  0  0
  160.7320  201.8770  146.2130 C   0  0  0  0  0  0  0  0  0  0  0  0
  160.2650  201.5310  145.0970 O   0  0  0  0  0  0  0  0  0  0  0  0
  160.6750  208.4520  154.3450 C   0  0  0  0  0  2  0  0  0  0  0  0
  161.6520  208.0240  155.4230 C   0  0  0  0  0  1  0  0  0  0  0  0
  1  3  2  0  0  0  0
  1  4  1  0  0  0  0
  2  4  2  0  0  0  0
  2  5  1  0  0  0  0
  3 18  1  0  0  0  0
  4 10  1  0  0  0  0
  5 17  2  0  0  0  0
  6 19  1  0  0  0  0
  7 14  1  6  0  0  0
  7  2  1  0  0  0  0
  9  8  1  6  0  0  0
  9 11  1  0  0  0  0
 10 13  1  0  0  0  0
 10 12  2  0  0  0  0
 11  5  1  0  0  0  0
 14 15  1  0  0  0  0
 15  1  1  0  0  0  0
 16 20  1  6  0  0  0
 16  7  1  0  0  0  0
 16  9  1  0  0  0  0
 17 12  1  0  0  0  0
 17 31  1  0  0  0  0
 18 13  2  0  0  0  0
 19  8  1  0  0  0  0
 20  6  1  0  0  0  0
 21 26  1  0  0  0  0
 21 23  1  0  0  0  0
 22 21  1  0  0  0  0
 23 25  2  0  0  0  0
 24 25  1  0  0  0  0
 24 15  1  1  0  0  0
 26 27  1  6  0  0  0
 26 24  1  0  0  0  0
 29 23  1  0  0  0  0
 29 28  1  0  0  0  0
 30 29  2  0  0  0  0
 31 32  1  0  0  0  0
M  END
>  <MODEL>
2

>  <REMARK>
 VINA RESULT:      -7.2      1.160      1.327
  Name = 
  3 active torsions:
  status: ('A' for Active; 'I' for Inactive)
    1  A    between atoms: C_13  and  C_29
    2  A    between atoms: C_15  and  C_19
    3  A    between atoms: C_16  and  N_27
                            x       y       z     vdW  Elec       q    Type
                         _______ _______ _______ _____ _____    ______ ____

>  <TORSDO>
F 3

$$$$
=
 OpenBabel11062408233D

 32 37  0  0  1  0  0  0  0  0999 V2000
  161.6050  208.8390  151.0820 C   0  0  0  0  0  0  0  0  0  0  0  0
  161.5710  206.7090  149.8890 C   0  0  0  0  0  0  0  0  0  0  0  0
  161.7690  210.2320  151.0530 C   0  0  0  0  0  3  0  0  0  0  0  0
  161.6840  208.1090  149.8810 C   0  0  0  0  0  0  0  0  0  0  0  0
  161.6240  206.0070  148.6690 C   0  0  0  0  0  0  0  0  0  0  0  0
  160.6060  202.2690  151.9810 C   0  0  0  0  0  2  0  0  0  0  0  0
  161.4850  205.9600  151.2090 C   0  0  1  0  0  3  0  0  0  0  0  0
  160.9310  202.4190  149.7310 C   0  0  0  0  0  2  0  0  0  0  0  0
  161.5300  203.8250  149.9070 C   0  0  1  0  0  3  0  0  0  0  0  0
  161.8780  208.7800  148.6570 C   0  0  0  0  0  0  0  0  0  0  0  0
  161.4830  204.5790  148.6610 N   0  0  0  0  0  2  0  0  0  0  0  0
  161.9170  208.0750  147.4960 N   0  0  0  0  0  0  0  0  0  0  0  0
  162.0340  210.1680  148.6420 C   0  0  0  0  0  3  0  0  0  0  0  0
  160.7420  206.8030  152.2470 C   0  0  0  0  0  2  0  0  0  0  0  0
  161.3240  208.1470  152.3110 N   0  0  0  0  0  0  0  0  0  0  0  0
  160.8150  204.5960  151.0200 C   0  0  1  0  0  3  0  0  0  0  0  0
  161.7780  206.7210  147.4680 C   0  0  0  0  0  0  0  0  0  0  0  0
  161.9860  210.8910  149.8370 C   0  0  0  0  0  3  0  0  0  0  0  0
  159.9790  202.1080  150.7300 O   0  0  0  0  0  0  0  0  0  0  0  0
  160.8010  203.7590  152.3040 C   0  0  0  0  0  2  0  0  0  0  0  0
  160.1900  209.4380  155.2460 N   0  0  0  0  0  0  0  0  0  0  0  0
  158.9570  209.4470  156.0160 C   0  0  0  0  0  1  0  0  0  0  0  0
  160.6920  210.5280  154.4860 C   0  0  0  0  0  0  0  0  0  0  0  0
  161.7050  208.7280  153.5980 C   0  0  1  0  0  3  0  0  0  0  0  0
  161.5310  210.1770  153.5750 N   0  0  0  0  0  0  0  0  0  0  0  0
  160.7760  208.2240  154.7090 C   0  0  1  0  0  3  0  0  0  0  0  0
  161.5960  207.5290  155.7790 C   0  0  0  0  0  1  0  0  0  0  0  0
  160.5310  212.5310  155.9330 O   0  0  0  0  0  1  0  0  0  0  0  0
  160.3170  211.9360  154.6960 C   0  0  0  0  0  0  0  0  0  0  0  0
  159.7940  212.6060  153.7680 O   0  0  0  0  0  0  0  0  0  0  0  0
  161.8420  206.0110  146.1570 C   0  0  0  0  0  2  0  0  0  0  0  0
  160.5050  206.1110  145.4470 C   0  0  0  0  0  1  0  0  0  0  0  0
  1 15  1  0  0  0  0
  2  7  1  0  0  0  0
  3  1  1  0  0  0  0
  4  2  1  0  0  0  0
  4  1  2  0  0  0  0
  5  2  2  0  0  0  0
  6 20  1  0  0  0  0
  7 14  1  1  0  0  0
  8 19  1  0  0  0  0
  9  8  1  6  0  0  0
  9 16  1  0  0  0  0
 10  4  1  0  0  0  0
 11  5  1  0  0  0  0
 11  9  1  0  0  0  0
 12 10  1  0  0  0  0
 13 10  2  0  0  0  0
 13 18  1  0  0  0  0
 14 15  1  0  0  0  0
 16  7  1  0  0  0  0
 16 20  1  1  0  0  0
 17 12  2  0  0  0  0
 17  5  1  0  0  0  0
 18  3  2  0  0  0  0
 19  6  1  0  0  0  0
 21 22  1  0  0  0  0
 23 29  1  0  0  0  0
 23 21  1  0  0  0  0
 24 15  1  6  0  0  0
 24 26  1  0  0  0  0
 25 24  1  0  0  0  0
 25 23  2  0  0  0  0
 26 21  1  0  0  0  0
 26 27  1  1  0  0  0
 29 28  1  0  0  0  0
 30 29  2  0  0  0  0
 31 17  1  0  0  0  0
 32 31  1  0  0  0  0
M  END
>  <MODEL>
3

>  <REMARK>
 VINA RESULT:      -6.9      2.444      8.532
  Name = 
  3 active torsions:
  status: ('A' for Active; 'I' for Inactive)
    1  A    between atoms: C_13  and  C_29
    2  A    between atoms: C_15  and  C_19
    3  A    between atoms: C_16  and  N_27
                            x       y       z     vdW  Elec       q    Type
                         _______ _______ _______ _____ _____    ______ ____

>  <TORSDO>
F 3

$$$$
=
 OpenBabel11062408233D

 32 37  0  0  1  0  0  0  0  0999 V2000
  161.8340  210.4670  150.4560 C   0  0  0  0  0  0  0  0  0  0  0  0
  160.4180  211.2200  152.2970 C   0  0  0  0  0  0  0  0  0  0  0  0
  162.3320  210.6700  149.1600 C   0  0  0  0  0  3  0  0  0  0  0  0
  160.9690  211.4230  151.0210 C   0  0  0  0  0  0  0  0  0  0  0  0
  159.5790  212.2070  152.8500 C   0  0  0  0  0  0  0  0  0  0  0  0
  159.9560  208.8850  156.6970 C   0  0  0  0  0  2  0  0  0  0  0  0
  160.6540  209.9080  153.0280 C   0  0  1  0  0  3  0  0  0  0  0  0
  158.8940  210.8690  156.3460 C   0  0  0  0  0  2  0  0  0  0  0  0
  159.1310  210.7330  154.8320 C   0  0  1  0  0  3  0  0  0  0  0  0
  160.6480  212.5950  150.3080 C   0  0  0  0  0  0  0  0  0  0  0  0
  159.0320  212.0250  154.1640 N   0  0  0  0  0  2  0  0  0  0  0  0
  159.8420  213.5330  150.8720 N   0  0  0  0  0  0  0  0  0  0  0  0
  161.1560  212.7880  149.0210 C   0  0  0  0  0  3  0  0  0  0  0  0
  162.0380  209.3540  152.6850 C   0  0  0  0  0  2  0  0  0  0  0  0
  162.2160  209.3160  151.2300 N   0  0  0  0  0  0  0  0  0  0  0  0
  160.4880  210.0880  154.5400 C   0  0  1  0  0  3  0  0  0  0  0  0
  159.3190  213.3800  152.1190 C   0  0  0  0  0  0  0  0  0  0  0  0
  161.9910  211.8240  148.4470 C   0  0  0  0  0  3  0  0  0  0  0  0
  159.8990  210.2310  157.1100 O   0  0  0  0  0  0  0  0  0  0  0  0
  160.6120  208.7690  155.3120 C   0  0  0  0  0  2  0  0  0  0  0  0
  161.2720  206.3790  149.8010 N   0  0  0  0  0  0  0  0  0  0  0  0
  160.0610  205.7810  149.2630 C   0  0  0  0  0  1  0  0  0  0  0  0
  161.8640  206.0540  151.0500 C   0  0  0  0  0  0  0  0  0  0  0  0
  162.6780  208.0950  150.5720 C   0  0  1  0  0  3  0  0  0  0  0  0
  162.6460  206.9700  151.5030 N   0  0  0  0  0  0  0  0  0  0  0  0
  161.7270  207.7070  149.4340 C   0  0  1  0  0  3  0  0  0  0  0  0
  162.4950  207.6490  148.1280 C   0  0  0  0  0  1  0  0  0  0  0  0
  161.1300  204.8350  153.0770 O   0  0  0  0  0  1  0  0  0  0  0  0
  161.6330  204.7980  151.7830 C   0  0  0  0  0  0  0  0  0  0  0  0
  161.8960  203.6870  151.2520 O   0  0  0  0  0  0  0  0  0  0  0  0
  158.4330  214.4460  152.6720 C   0  0  0  0  0  2  0  0  0  0  0  0
  157.0620  214.3650  152.0290 C   0  0  0  0  0  1  0  0  0  0  0  0
  1  4  1  0  0  0  0
  1 15  1  0  0  0  0
  2  5  1  0  0  0  0
  2  7  1  0  0  0  0
  3  1  2  0  0  0  0
  4  2  2  0  0  0  0
  5 11  1  0  0  0  0
  6 19  1  0  0  0  0
  7 14  1  1  0  0  0
  7 16  1  0  0  0  0
  8 19  1  0  0  0  0
  9  8  1  1  0  0  0
 10 12  2  0  0  0  0
 10  4  1  0  0  0  0
 11  9  1  0  0  0  0
 12 17  1  0  0  0  0
 13 10  1  0  0  0  0
 15 14  1  0  0  0  0
 16  9  1  0  0  0  0
 16 20  1  1  0  0  0
 17 31  1  0  0  0  0
 17  5  2  0  0  0  0
 18 13  2  0  0  0  0
 18  3  1  0  0  0  0
 20  6  1  0  0  0  0
 21 23  1  0  0  0  0
 22 21  1  0  0  0  0
 23 25  2  0  0  0  0
 23 29  1  0  0  0  0
 24 15  1  1  0  0  0
 24 25  1  0  0  0  0
 26 27  1  6  0  0  0
 26 21  1  0  0  0  0
 26 24  1  0  0  0  0
 29 28  1  0  0  0  0
 30 29  2  0  0  0  0
 32 31  1  0  0  0  0
M  END
>  <MODEL>
4

>  <REMARK>
 VINA RESULT:      -6.6      3.612      6.937
  Name = 
  3 active torsions:
  status: ('A' for Active; 'I' for Inactive)
    1  A    between atoms: C_13  and  C_29
    2  A    between atoms: C_15  and  C_19
    3  A    between atoms: C_16  and  N_27
                            x       y       z     vdW  Elec       q    Type
                         _______ _______ _______ _____ _____    ______ ____

>  <TORSDO>
F 3

$$$$
=
 OpenBabel11062408233D

 32 37  0  0  1  0  0  0  0  0999 V2000
  161.2200  206.2210  151.3690 C   0  0  0  0  0  0  0  0  0  0  0  0
  161.0700  204.5840  149.5640 C   0  0  0  0  0  0  0  0  0  0  0  0
  161.2010  206.5020  152.7440 C   0  0  0  0  0  3  0  0  0  0  0  0
  161.1020  204.8880  150.9350 C   0  0  0  0  0  0  0  0  0  0  0  0
  160.9820  203.2380  149.1580 C   0  0  0  0  0  0  0  0  0  0  0  0
  161.5060  205.6420  144.6940 C   0  0  0  0  0  2  0  0  0  0  0  0
  161.0370  205.7050  148.5380 C   0  0  1  0  0  3  0  0  0  0  0  0
  161.2680  203.4800  145.3720 C   0  0  0  0  0  2  0  0  0  0  0  0
  160.8120  203.9610  146.7600 C   0  0  1  0  0  3  0  0  0  0  0  0
  161.0160  203.8430  151.8760 C   0  0  0  0  0  0  0  0  0  0  0  0
  160.9750  202.9130  147.7600 N   0  0  0  0  0  2  0  0  0  0  0  0
  160.9410  202.5530  151.4530 N   0  0  0  0  0  0  0  0  0  0  0  0
  161.0050  204.1350  153.2420 C   0  0  0  0  0  3  0  0  0  0  0  0
  161.8320  206.9100  149.0460 C   0  0  0  0  0  2  0  0  0  0  0  0
  161.3900  207.2680  150.3970 N   0  0  0  0  0  0  0  0  0  0  0  0
  161.5690  205.2220  147.1850 C   0  0  1  0  0  3  0  0  0  0  0  0
  160.9390  202.2260  150.1320 C   0  0  0  0  0  0  0  0  0  0  0  0
  161.0910  205.4620  153.6740 C   0  0  0  0  0  3  0  0  0  0  0  0
  162.1520  204.3910  144.7470 O   0  0  0  0  0  0  0  0  0  0  0  0
  161.4570  206.2880  146.0880 C   0  0  0  0  0  2  0  0  0  0  0  0
  162.1760  210.0040  152.2560 N   0  0  0  0  0  0  0  0  0  0  0  0
  163.3120  210.5040  153.0150 C   0  0  0  0  0  1  0  0  0  0  0  0
  160.9920  209.4570  152.8160 C   0  0  0  0  0  0  0  0  0  0  0  0
  161.0310  208.6490  150.7180 C   0  0  1  0  0  3  0  0  0  0  0  0
  160.3340  208.7110  151.9990 N   0  0  0  0  0  0  0  0  0  0  0  0
  162.2930  209.5010  150.9010 C   0  0  1  0  0  3  0  0  0  0  0  0
  162.2730  210.6550  149.9160 C   0  0  0  0  0  1  0  0  0  0  0  0
  161.0070  208.9190  155.2330 O   0  0  0  0  0  1  0  0  0  0  0  0
  160.5260  209.7010  154.1900 C   0  0  0  0  0  0  0  0  0  0  0  0
  159.6870  210.6070  154.4330 O   0  0  0  0  0  0  0  0  0  0  0  0
  160.8430  200.7890  149.7400 C   0  0  0  0  0  2  0  0  0  0  0  0
  161.6180  200.5480  148.4580 C   0  0  0  0  0  1  0  0  0  0  0  0
  1  3  1  0  0  0  0
  2  4  1  0  0  0  0
  3 18  2  0  0  0  0
  4  1  2  0  0  0  0
  4 10  1  0  0  0  0
  5  2  2  0  0  0  0
  5 17  1  0  0  0  0
  6 19  1  0  0  0  0
  6 20  1  0  0  0  0
  7 14  1  1  0  0  0
  7  2  1  0  0  0  0
  9  8  1  6  0  0  0
  9 16  1  0  0  0  0
  9 11  1  0  0  0  0
 10 13  2  0  0  0  0
 11  5  1  0  0  0  0
 12 10  1  0  0  0  0
 13 18  1  0  0  0  0
 14 15  1  0  0  0  0
 15  1  1  0  0  0  0
 16 20  1  6  0  0  0
 16  7  1  0  0  0  0
 17 12  2  0  0  0  0
 19  8  1  0  0  0  0
 21 23  1  0  0  0  0
 21 22  1  0  0  0  0
 23 29  1  0  0  0  0
 24 15  1  1  0  0  0
 24 26  1  0  0  0  0
 24 25  1  0  0  0  0
 25 23  2  0  0  0  0
 26 27  1  6  0  0  0
 26 21  1  0  0  0  0
 29 30  2  0  0  0  0
 29 28  1  0  0  0  0
 31 17  1  0  0  0  0
 32 31  1  0  0  0  0
M  END
>  <MODEL>
5

>  <REMARK>
 VINA RESULT:      -6.5      2.096      6.922
  Name = 
  3 active torsions:
  status: ('A' for Active; 'I' for Inactive)
    1  A    between atoms: C_13  and  C_29
    2  A    between atoms: C_15  and  C_19
    3  A    between atoms: C_16  and  N_27
                            x       y       z     vdW  Elec       q    Type
                         _______ _______ _______ _____ _____    ______ ____

>  <TORSDO>
F 3

$$$$
