=
 OpenBabel11052422473D

 28 31  0  0  1  0  0  0  0  0999 V2000
  158.7820  212.6060  151.7220 N   0  0  0  0  0  0  0  0  0  0  0  0
  160.0930  212.8530  155.4640 O   0  0  0  0  0  1  0  0  0  0  0  0
  159.2720  211.3150  152.2340 C   0  0  0  0  0  2  0  0  0  0  0  0
  158.1440  212.9690  154.0990 C   0  0  0  0  0  2  0  0  0  0  0  0
  159.2780  212.0870  154.6310 C   0  0  1  0  0  3  0  0  0  0  0  0
  158.5520  213.6100  152.7730 C   0  0  0  0  0  2  0  0  0  0  0  0
  160.1300  211.4590  153.5040 C   0  0  1  0  0  3  0  0  0  0  0  0
  162.0580  210.3540  154.4200 C   0  0  0  0  0  1  0  0  0  0  0  0
  160.7100  210.1580  153.9010 N   0  0  0  0  0  0  0  0  0  0  0  0
  161.3820  205.3810  152.6310 C   0  0  0  0  0  3  0  0  0  0  0  0
  161.5110  207.1650  150.8110 C   0  0  0  0  0  0  0  0  0  0  0  0
  160.7980  207.7310  153.1640 C   0  0  0  0  0  2  0  0  0  0  0  0
  161.0200  204.8350  150.2950 C   0  0  0  0  0  0  0  0  0  0  0  0
  161.6570  206.8240  152.2850 C   0  0  1  0  0  3  0  0  0  0  0  0
  162.2590  209.6820  151.6920 S   0  0  0  0  0  0  0  0  0  0  0  0
  161.2280  206.2310  149.9000 C   0  0  0  0  0  3  0  0  0  0  0  0
  161.7250  208.5720  150.3410 C   0  0  0  0  0  2  0  0  0  0  0  0
  160.7670  203.9620  149.4230 O   0  0  0  0  0  0  0  0  0  0  0  0
  161.0980  204.4610  151.7090 C   0  0  0  0  0  3  0  0  0  0  0  0
  160.8500  209.2260  152.7670 C   0  0  2  0  0  3  0  0  0  0  0  0
  159.8100  213.1300  150.8350 C   0  0  0  0  0  2  0  0  0  0  0  0
  159.1980  214.0900  149.8180 C   0  0  2  0  0  3  0  0  0  0  0  0
  159.7530  213.5600  147.5770 N   0  0  0  0  0  0  0  0  0  0  0  0
  158.0670  213.4910  149.2370 O   0  0  0  0  0  0  0  0  0  0  0  0
  161.6350  214.4530  148.9970 C   0  0  0  0  0  1  0  0  0  0  0  0
  160.1370  214.4210  148.6800 C   0  0  2  0  0  3  0  0  0  0  0  0
  160.4130  212.2600  147.6590 C   0  0  0  0  0  1  0  0  0  0  0  0
  158.3440  213.3160  147.8600 C   0  0  0  0  0  2  0  0  0  0  0  0
  1  3  1  0  0  0  0
  1  6  1  0  0  0  0
  3  7  1  0  0  0  0
  4  5  1  0  0  0  0
  5  2  1  1  0  0  0
  6  4  1  0  0  0  0
  7  9  1  1  0  0  0
  7  5  1  0  0  0  0
  9  8  1  0  0  0  0
 11 14  1  0  0  0  0
 13 19  1  0  0  0  0
 14 10  1  6  0  0  0
 14 12  1  0  0  0  0
 15 20  1  0  0  0  0
 16 13  1  0  0  0  0
 16 11  2  0  0  0  0
 17 11  1  0  0  0  0
 17 15  1  0  0  0  0
 18 13  2  0  0  0  0
 19 10  2  0  0  0  0
 20 12  1  0  0  0  0
 20  9  1  1  0  0  0
 21  1  1  0  0  0  0
 22 21  1  1  0  0  0
 23 27  1  0  0  0  0
 23 28  1  0  0  0  0
 23 26  1  0  0  0  0
 24 22  1  0  0  0  0
 26 25  1  1  0  0  0
 26 22  1  0  0  0  0
 28 24  1  0  0  0  0
M  END
>  <MODEL>
1

>  <REMARK>
 VINA RESULT:      -6.5      0.000      0.000
  Name = 
  4 active torsions:
  status: ('A' for Active; 'I' for Inactive)
    1  A    between atoms: N_1  and  C_2
    2  A    between atoms: C_2  and  C_3
    3  A    between atoms: N_20  and  C_25
    4  A    between atoms: N_20  and  C_27
                            x       y       z     vdW  Elec       q    Type
                         _______ _______ _______ _____ _____    ______ ____

>  <TORSDO>
F 4

$$$$
=
 OpenBabel11052422473D

 28 31  0  0  1  0  0  0  0  0999 V2000
  159.1530  212.0680  156.0340 N   0  0  0  0  0  0  0  0  0  0  0  0
  162.8470  210.6170  155.8430 O   0  0  0  0  0  1  0  0  0  0  0  0
  159.1780  210.5990  155.9480 C   0  0  0  0  0  2  0  0  0  0  0  0
  161.2920  211.7350  157.2610 C   0  0  0  0  0  2  0  0  0  0  0  0
  161.6300  210.4480  156.5030 C   0  0  1  0  0  3  0  0  0  0  0  0
  160.4550  212.6620  156.3800 C   0  0  0  0  0  2  0  0  0  0  0  0
  160.5380  210.0470  155.4840 C   0  0  1  0  0  3  0  0  0  0  0  0
  161.5950  207.9400  155.9560 C   0  0  0  0  0  1  0  0  0  0  0  0
  160.4740  208.5830  155.2810 N   0  0  0  0  0  0  0  0  0  0  0  0
  161.6290  204.8640  152.1630 C   0  0  0  0  0  3  0  0  0  0  0  0
  161.2560  207.2000  151.2040 C   0  0  0  0  0  0  0  0  0  0  0  0
  160.7990  206.6820  153.6310 C   0  0  0  0  0  2  0  0  0  0  0  0
  161.0310  205.1970  149.8350 C   0  0  0  0  0  0  0  0  0  0  0  0
  161.6490  206.3540  152.4050 C   0  0  1  0  0  3  0  0  0  0  0  0
  161.7580  209.2790  152.9630 S   0  0  0  0  0  0  0  0  0  0  0  0
  160.9860  206.6510  150.0180 C   0  0  0  0  0  3  0  0  0  0  0  0
  161.2050  208.6930  151.3230 C   0  0  0  0  0  2  0  0  0  0  0  0
  160.7860  204.6940  148.7070 O   0  0  0  0  0  0  0  0  0  0  0  0
  161.3530  204.3320  150.9730 C   0  0  0  0  0  3  0  0  0  0  0  0
  160.5870  208.1970  153.8630 C   0  0  2  0  0  3  0  0  0  0  0  0
  158.7820  212.5660  154.7180 C   0  0  0  0  0  2  0  0  0  0  0  0
  158.2780  214.0040  154.8150 C   0  0  2  0  0  3  0  0  0  0  0  0
  156.0030  214.2420  154.2000 N   0  0  0  0  0  0  0  0  0  0  0  0
  157.5380  214.1560  155.9990 O   0  0  0  0  0  0  0  0  0  0  0  0
  157.6030  213.7200  152.3230 C   0  0  0  0  0  1  0  0  0  0  0  0
  157.3510  214.3800  153.6820 C   0  0  2  0  0  3  0  0  0  0  0  0
  155.5150  212.8730  154.0580 C   0  0  0  0  0  1  0  0  0  0  0  0
  156.2050  214.4530  155.6270 C   0  0  0  0  0  2  0  0  0  0  0  0
  1  6  1  0  0  0  0
  3  1  1  0  0  0  0
  5  2  1  6  0  0  0
  5  4  1  0  0  0  0
  6  4  1  0  0  0  0
  7  9  1  1  0  0  0
  7  3  1  0  0  0  0
  7  5  1  0  0  0  0
  9  8  1  0  0  0  0
 11 17  1  0  0  0  0
 11 14  1  0  0  0  0
 12 20  1  0  0  0  0
 13 16  1  0  0  0  0
 13 19  1  0  0  0  0
 14 10  1  6  0  0  0
 14 12  1  0  0  0  0
 15 20  1  0  0  0  0
 16 11  2  0  0  0  0
 17 15  1  0  0  0  0
 18 13  2  0  0  0  0
 19 10  2  0  0  0  0
 20  9  1  1  0  0  0
 21  1  1  0  0  0  0
 22 21  1  6  0  0  0
 22 24  1  0  0  0  0
 23 28  1  0  0  0  0
 26 25  1  6  0  0  0
 26 23  1  0  0  0  0
 26 22  1  0  0  0  0
 27 23  1  0  0  0  0
 28 24  1  0  0  0  0
M  END
>  <MODEL>
2

>  <REMARK>
 VINA RESULT:      -6.4      3.130      4.076
  Name = 
  4 active torsions:
  status: ('A' for Active; 'I' for Inactive)
    1  A    between atoms: N_1  and  C_2
    2  A    between atoms: C_2  and  C_3
    3  A    between atoms: N_20  and  C_25
    4  A    between atoms: N_20  and  C_27
                            x       y       z     vdW  Elec       q    Type
                         _______ _______ _______ _____ _____    ______ ____

>  <TORSDO>
F 4

$$$$
=
 OpenBabel11052422473D

 28 31  0  0  1  0  0  0  0  0999 V2000
  161.4510  208.6810  153.5010 N   0  0  0  0  0  0  0  0  0  0  0  0
  158.3350  209.8650  155.6640 O   0  0  0  0  0  1  0  0  0  0  0  0
  161.4450  210.1350  153.7330 C   0  0  0  0  0  2  0  0  0  0  0  0
  160.3660  208.6200  155.7390 C   0  0  0  0  0  2  0  0  0  0  0  0
  159.7200  209.9980  155.5630 C   0  0  1  0  0  3  0  0  0  0  0  0
  160.5350  207.9380  154.3810 C   0  0  0  0  0  2  0  0  0  0  0  0
  160.0810  210.6620  154.2130 C   0  0  1  0  0  3  0  0  0  0  0  0
  160.1320  212.5510  155.6980 C   0  0  0  0  0  1  0  0  0  0  0  0
  160.0840  212.1380  154.3010 N   0  0  0  0  0  0  0  0  0  0  0  0
  157.8460  213.6630  150.1120 C   0  0  0  0  0  3  0  0  0  0  0  0
  156.7700  214.2290  152.3550 C   0  0  0  0  0  0  0  0  0  0  0  0
  158.7760  212.7060  152.2020 C   0  0  0  0  0  2  0  0  0  0  0  0
  155.4790  214.1720  150.2890 C   0  0  0  0  0  0  0  0  0  0  0  0
  158.0400  213.8970  151.5900 C   0  0  1  0  0  3  0  0  0  0  0  0
  158.5280  214.3850  154.4890 S   0  0  0  0  0  0  0  0  0  0  0  0
  155.5940  214.3660  151.7380 C   0  0  0  0  0  3  0  0  0  0  0  0
  156.8220  214.4530  153.8360 C   0  0  0  0  0  2  0  0  0  0  0  0
  154.3670  214.3170  149.7170 O   0  0  0  0  0  0  0  0  0  0  0  0
  156.6640  213.8000  149.5110 C   0  0  0  0  0  3  0  0  0  0  0  0
  158.8610  212.7460  153.7470 C   0  0  2  0  0  3  0  0  0  0  0  0
  161.0090  208.4670  152.1300 C   0  0  0  0  0  2  0  0  0  0  0  0
  162.2040  208.4570  151.1810 C   0  0  2  0  0  3  0  0  0  0  0  0
  161.9250  206.9930  149.3390 N   0  0  0  0  0  0  0  0  0  0  0  0
  161.9100  209.2480  150.0580 O   0  0  0  0  0  0  0  0  0  0  0  0
  162.2440  205.8910  151.5840 C   0  0  0  0  0  1  0  0  0  0  0  0
  162.5280  207.0770  150.6560 C   0  0  2  0  0  3  0  0  0  0  0  0
  160.5310  206.5660  149.4170 C   0  0  0  0  0  1  0  0  0  0  0  0
  161.8970  208.3920  148.9310 C   0  0  0  0  0  2  0  0  0  0  0  0
  1  3  1  0  0  0  0
  1  6  1  0  0  0  0
  3  7  1  0  0  0  0
  5  2  1  6  0  0  0
  5  4  1  0  0  0  0
  6  4  1  0  0  0  0
  7  9  1  1  0  0  0
  7  5  1  0  0  0  0
  9  8  1  0  0  0  0
 11 17  1  0  0  0  0
 12 20  1  0  0  0  0
 13 16  1  0  0  0  0
 14 10  1  6  0  0  0
 14 12  1  0  0  0  0
 14 11  1  0  0  0  0
 16 11  2  0  0  0  0
 17 15  1  0  0  0  0
 18 13  2  0  0  0  0
 19 10  2  0  0  0  0
 19 13  1  0  0  0  0
 20  9  1  6  0  0  0
 20 15  1  0  0  0  0
 21  1  1  0  0  0  0
 22 21  1  1  0  0  0
 23 27  1  0  0  0  0
 23 26  1  0  0  0  0
 24 22  1  0  0  0  0
 26 22  1  0  0  0  0
 26 25  1  1  0  0  0
 28 23  1  0  0  0  0
 28 24  1  0  0  0  0
M  END
>  <MODEL>
3

>  <REMARK>
 VINA RESULT:      -6.3      2.881      6.992
  Name = 
  4 active torsions:
  status: ('A' for Active; 'I' for Inactive)
    1  A    between atoms: N_1  and  C_2
    2  A    between atoms: C_2  and  C_3
    3  A    between atoms: N_20  and  C_25
    4  A    between atoms: N_20  and  C_27
                            x       y       z     vdW  Elec       q    Type
                         _______ _______ _______ _____ _____    ______ ____

>  <TORSDO>
F 4

$$$$
=
 OpenBabel11052422473D

 28 31  0  0  1  0  0  0  0  0999 V2000
  161.3710  209.2290  153.5720 N   0  0  0  0  0  0  0  0  0  0  0  0
  158.0700  210.4830  155.3930 O   0  0  0  0  0  1  0  0  0  0  0  0
  161.2070  210.6900  153.4980 C   0  0  0  0  0  2  0  0  0  0  0  0
  160.2130  209.5080  155.7560 C   0  0  0  0  0  2  0  0  0  0  0  0
  159.4360  210.7420  155.2880 C   0  0  1  0  0  3  0  0  0  0  0  0
  160.5030  208.5860  154.5720 C   0  0  0  0  0  2  0  0  0  0  0  0
  159.7780  211.1520  153.8370 C   0  0  1  0  0  3  0  0  0  0  0  0
  158.9940  213.2200  154.7800 C   0  0  0  0  0  1  0  0  0  0  0  0
  159.6260  212.6070  153.6180 N   0  0  0  0  0  0  0  0  0  0  0  0
  159.5430  213.7300  148.7580 C   0  0  0  0  0  3  0  0  0  0  0  0
  157.3800  213.9160  150.0980 C   0  0  0  0  0  0  0  0  0  0  0  0
  159.4750  212.9350  151.1060 C   0  0  0  0  0  2  0  0  0  0  0  0
  157.3720  213.6400  147.6770 C   0  0  0  0  0  0  0  0  0  0  0  0
  158.9000  213.9370  150.1070 C   0  0  1  0  0  3  0  0  0  0  0  0
  157.7190  214.3980  152.8040 S   0  0  0  0  0  0  0  0  0  0  0  0
  156.6860  213.7910  148.9640 C   0  0  0  0  0  3  0  0  0  0  0  0
  156.6190  214.0790  151.3790 C   0  0  0  0  0  2  0  0  0  0  0  0
  156.7060  213.5360  146.6140 O   0  0  0  0  0  0  0  0  0  0  0  0
  158.8360  213.6030  147.6350 C   0  0  0  0  0  3  0  0  0  0  0  0
  158.7520  212.9240  152.4730 C   0  0  2  0  0  3  0  0  0  0  0  0
  161.0060  208.6930  152.2690 C   0  0  0  0  0  2  0  0  0  0  0  0
  162.2190  208.6760  151.3410 C   0  0  2  0  0  3  0  0  0  0  0  0
  162.0200  207.1190  149.5680 N   0  0  0  0  0  0  0  0  0  0  0  0
  161.9210  209.4040  150.1770 O   0  0  0  0  0  0  0  0  0  0  0  0
  162.3310  206.1350  151.8690 C   0  0  0  0  0  1  0  0  0  0  0  0
  162.5950  207.2840  150.8900 C   0  0  2  0  0  3  0  0  0  0  0  0
  160.6380  206.6520  149.6420 C   0  0  0  0  0  1  0  0  0  0  0  0
  161.9560  208.4950  149.0920 C   0  0  0  0  0  2  0  0  0  0  0  0
  1  6  1  0  0  0  0
  3  1  1  0  0  0  0
  3  7  1  0  0  0  0
  5  2  1  6  0  0  0
  5  4  1  0  0  0  0
  6  4  1  0  0  0  0
  7  9  1  1  0  0  0
  7  5  1  0  0  0  0
  9  8  1  0  0  0  0
 11 14  1  0  0  0  0
 11 17  1  0  0  0  0
 12 20  1  0  0  0  0
 13 16  1  0  0  0  0
 14 10  1  6  0  0  0
 14 12  1  0  0  0  0
 16 11  2  0  0  0  0
 17 15  1  0  0  0  0
 18 13  2  0  0  0  0
 19 13  1  0  0  0  0
 19 10  2  0  0  0  0
 20 15  1  0  0  0  0
 20  9  1  1  0  0  0
 21  1  1  0  0  0  0
 22 21  1  1  0  0  0
 23 27  1  0  0  0  0
 23 26  1  0  0  0  0
 24 22  1  0  0  0  0
 26 22  1  0  0  0  0
 26 25  1  1  0  0  0
 28 23  1  0  0  0  0
 28 24  1  0  0  0  0
M  END
>  <MODEL>
4

>  <REMARK>
 VINA RESULT:      -6.1      2.484      6.656
  Name = 
  4 active torsions:
  status: ('A' for Active; 'I' for Inactive)
    1  A    between atoms: N_1  and  C_2
    2  A    between atoms: C_2  and  C_3
    3  A    between atoms: N_20  and  C_25
    4  A    between atoms: N_20  and  C_27
                            x       y       z     vdW  Elec       q    Type
                         _______ _______ _______ _____ _____    ______ ____

>  <TORSDO>
F 4

$$$$
=
 OpenBabel11052422473D

 28 31  0  0  1  0  0  0  0  0999 V2000
  160.0440  211.3090  154.8520 N   0  0  0  0  0  0  0  0  0  0  0  0
  158.7250  212.1900  151.2090 O   0  0  0  0  0  1  0  0  0  0  0  0
  161.0510  211.0470  153.8090 C   0  0  0  0  0  2  0  0  0  0  0  0
  159.3510  213.1310  153.3060 C   0  0  0  0  0  2  0  0  0  0  0  0
  159.8150  212.3730  152.0600 C   0  0  1  0  0  3  0  0  0  0  0  0
  158.9240  212.1470  154.3950 C   0  0  0  0  0  2  0  0  0  0  0  0
  160.4500  211.0030  152.3920 C   0  0  1  0  0  3  0  0  0  0  0  0
  161.4240  211.5050  150.2530 C   0  0  0  0  0  1  0  0  0  0  0  0
  161.4690  210.6040  151.3970 N   0  0  0  0  0  0  0  0  0  0  0  0
  162.0440  205.7220  152.2530 C   0  0  0  0  0  3  0  0  0  0  0  0
  161.2610  206.4810  149.9460 C   0  0  0  0  0  0  0  0  0  0  0  0
  161.4930  208.1080  151.8600 C   0  0  0  0  0  2  0  0  0  0  0  0
  160.8360  204.2280  150.7710 C   0  0  0  0  0  0  0  0  0  0  0  0
  162.0150  206.8230  151.2210 C   0  0  1  0  0  3  0  0  0  0  0  0
  162.0480  209.0370  149.2260 S   0  0  0  0  0  0  0  0  0  0  0  0
  160.7320  205.2720  149.7470 C   0  0  0  0  0  3  0  0  0  0  0  0
  161.1320  207.5000  148.8540 C   0  0  0  0  0  2  0  0  0  0  0  0
  160.3430  203.0880  150.5650 O   0  0  0  0  0  0  0  0  0  0  0  0
  161.5080  204.5210  152.0400 C   0  0  0  0  0  3  0  0  0  0  0  0
  161.2370  209.2540  150.8520 C   0  0  2  0  0  3  0  0  0  0  0  0
  159.4940  210.0200  155.2450 C   0  0  0  0  0  2  0  0  0  0  0  0
  159.8760  209.6950  156.6870 C   0  0  2  0  0  3  0  0  0  0  0  0
  161.5550  208.0330  156.8590 N   0  0  0  0  0  0  0  0  0  0  0  0
  161.0790  210.3470  157.0050 O   0  0  0  0  0  0  0  0  0  0  0  0
  159.2940  207.2390  156.0730 C   0  0  0  0  0  1  0  0  0  0  0  0
  160.1170  208.2210  156.9140 C   0  0  2  0  0  3  0  0  0  0  0  0
  162.0150  207.8310  155.4880 C   0  0  0  0  0  1  0  0  0  0  0  0
  162.0460  209.3450  157.2610 C   0  0  0  0  0  2  0  0  0  0  0  0
  1 21  1  0  0  0  0
  3  1  1  0  0  0  0
  4  6  1  0  0  0  0
  5  2  1  6  0  0  0
  5  7  1  0  0  0  0
  5  4  1  0  0  0  0
  6  1  1  0  0  0  0
  7  9  1  6  0  0  0
  7  3  1  0  0  0  0
  8  9  1  0  0  0  0
 11 14  1  0  0  0  0
 13 19  1  0  0  0  0
 14 12  1  1  0  0  0
 14 10  1  0  0  0  0
 15 20  1  0  0  0  0
 16 11  2  0  0  0  0
 16 13  1  0  0  0  0
 17 15  1  0  0  0  0
 17 11  1  0  0  0  0
 18 13  2  0  0  0  0
 19 10  2  0  0  0  0
 20  9  1  1  0  0  0
 20 12  1  0  0  0  0
 22 21  1  6  0  0  0
 22 26  1  0  0  0  0
 22 24  1  0  0  0  0
 23 26  1  0  0  0  0
 23 28  1  0  0  0  0
 24 28  1  0  0  0  0
 26 25  1  6  0  0  0
 27 23  1  0  0  0  0
M  END
>  <MODEL>
5

>  <REMARK>
 VINA RESULT:      -5.9      2.246      5.397
  Name = 
  4 active torsions:
  status: ('A' for Active; 'I' for Inactive)
    1  A    between atoms: N_1  and  C_2
    2  A    between atoms: C_2  and  C_3
    3  A    between atoms: N_20  and  C_25
    4  A    between atoms: N_20  and  C_27
                            x       y       z     vdW  Elec       q    Type
                         _______ _______ _______ _____ _____    ______ ____

>  <TORSDO>
F 4

$$$$
=
 OpenBabel11052422473D

 28 31  0  0  1  0  0  0  0  0999 V2000
  158.3000  212.5280  153.9270 N   0  0  0  0  0  0  0  0  0  0  0  0
  160.3610  211.4780  150.6970 O   0  0  0  0  0  1  0  0  0  0  0  0
  159.3620  211.5550  154.2280 C   0  0  0  0  0  2  0  0  0  0  0  0
  159.9000  213.2860  152.1790 C   0  0  0  0  0  2  0  0  0  0  0  0
  160.5210  211.8950  152.0180 C   0  0  1  0  0  3  0  0  0  0  0  0
  158.4370  213.1650  152.6080 C   0  0  0  0  0  2  0  0  0  0  0  0
  159.9030  210.8470  152.9720 C   0  0  1  0  0  3  0  0  0  0  0  0
  162.2160  210.3370  153.3840 C   0  0  0  0  0  1  0  0  0  0  0  0
  160.8660  209.7860  153.3360 N   0  0  0  0  0  0  0  0  0  0  0  0
  161.2610  204.8480  152.7470 C   0  0  0  0  0  3  0  0  0  0  0  0
  161.3950  206.3450  150.6850 C   0  0  0  0  0  0  0  0  0  0  0  0
  160.8100  207.2770  152.9550 C   0  0  0  0  0  2  0  0  0  0  0  0
  160.7750  203.9940  150.5280 C   0  0  0  0  0  0  0  0  0  0  0  0
  161.5870  206.2100  152.1870 C   0  0  1  0  0  3  0  0  0  0  0  0
  162.2970  208.9190  151.1660 S   0  0  0  0  0  0  0  0  0  0  0  0
  161.0320  205.3070  149.9290 C   0  0  0  0  0  3  0  0  0  0  0  0
  161.6550  207.6580  150.0100 C   0  0  0  0  0  2  0  0  0  0  0  0
  160.4450  203.0200  149.8010 O   0  0  0  0  0  0  0  0  0  0  0  0
  160.8960  203.8220  151.9780 C   0  0  0  0  0  3  0  0  0  0  0  0
  160.9150  208.6950  152.3450 C   0  0  2  0  0  3  0  0  0  0  0  0
  157.0400  211.7980  153.9310 C   0  0  0  0  0  2  0  0  0  0  0  0
  155.9670  212.5920  154.6720 C   0  0  2  0  0  3  0  0  0  0  0  0
  156.1030  212.3800  157.0270 N   0  0  0  0  0  0  0  0  0  0  0  0
  156.5290  213.7810  155.1670 O   0  0  0  0  0  0  0  0  0  0  0  0
  155.3430  210.3260  155.7780 C   0  0  0  0  0  1  0  0  0  0  0  0
  155.4090  211.8540  155.8670 C   0  0  2  0  0  3  0  0  0  0  0  0
  157.3610  211.6760  157.2610 C   0  0  0  0  0  1  0  0  0  0  0  0
  156.4670  213.7190  156.5800 C   0  0  0  0  0  2  0  0  0  0  0  0
  1 21  1  0  0  0  0
  1  3  1  0  0  0  0
  4  6  1  0  0  0  0
  5  2  1  6  0  0  0
  5  4  1  0  0  0  0
  5  7  1  0  0  0  0
  6  1  1  0  0  0  0
  7  9  1  1  0  0  0
  7  3  1  0  0  0  0
  9  8  1  0  0  0  0
 11 14  1  0  0  0  0
 13 19  1  0  0  0  0
 14 10  1  1  0  0  0
 14 12  1  0  0  0  0
 15 20  1  0  0  0  0
 16 13  1  0  0  0  0
 16 11  2  0  0  0  0
 17 11  1  0  0  0  0
 17 15  1  0  0  0  0
 18 13  2  0  0  0  0
 19 10  2  0  0  0  0
 20 12  1  0  0  0  0
 20  9  1  1  0  0  0
 22 21  1  1  0  0  0
 22 24  1  0  0  0  0
 22 26  1  0  0  0  0
 23 27  1  0  0  0  0
 24 28  1  0  0  0  0
 26 25  1  6  0  0  0
 26 23  1  0  0  0  0
 28 23  1  0  0  0  0
M  END
>  <MODEL>
6

>  <REMARK>
 VINA RESULT:      -5.8      2.418      4.708
  Name = 
  4 active torsions:
  status: ('A' for Active; 'I' for Inactive)
    1  A    between atoms: N_1  and  C_2
    2  A    between atoms: C_2  and  C_3
    3  A    between atoms: N_20  and  C_25
    4  A    between atoms: N_20  and  C_27
                            x       y       z     vdW  Elec       q    Type
                         _______ _______ _______ _____ _____    ______ ____

>  <TORSDO>
F 4

$$$$
=
 OpenBabel11052422473D

 28 31  0  0  1  0  0  0  0  0999 V2000
  158.9880  209.9030  155.7600 N   0  0  0  0  0  0  0  0  0  0  0  0
  162.8760  210.7030  155.5940 O   0  0  0  0  0  1  0  0  0  0  0  0
  159.4930  209.9610  154.3790 C   0  0  0  0  0  2  0  0  0  0  0  0
  161.2780  209.0610  156.2460 C   0  0  0  0  0  2  0  0  0  0  0  0
  161.9070  209.8380  155.0860 C   0  0  1  0  0  3  0  0  0  0  0  0
  160.0500  209.8020  156.7740 C   0  0  0  0  0  2  0  0  0  0  0  0
  160.8690  210.6430  154.2700 C   0  0  1  0  0  3  0  0  0  0  0  0
  160.3770  211.7380  152.1870 C   0  0  0  0  0  1  0  0  0  0  0  0
  161.2710  210.8000  152.8550 N   0  0  0  0  0  0  0  0  0  0  0  0
  161.6730  205.8360  153.1360 C   0  0  0  0  0  3  0  0  0  0  0  0
  161.4200  206.9200  150.8400 C   0  0  0  0  0  0  0  0  0  0  0  0
  161.2080  208.2660  152.9630 C   0  0  0  0  0  2  0  0  0  0  0  0
  160.8370  204.5860  151.2320 C   0  0  0  0  0  0  0  0  0  0  0  0
  161.8680  207.0670  152.2850 C   0  0  1  0  0  3  0  0  0  0  0  0
  162.3310  209.5290  150.6720 S   0  0  0  0  0  0  0  0  0  0  0  0
  160.9570  205.7620  150.3640 C   0  0  0  0  0  3  0  0  0  0  0  0
  161.5310  208.0800  149.8980 C   0  0  0  0  0  2  0  0  0  0  0  0
  160.4110  203.4970  150.7670 O   0  0  0  0  0  0  0  0  0  0  0  0
  161.2060  204.6880  152.6460 C   0  0  0  0  0  3  0  0  0  0  0  0
  161.1760  209.5430  152.0910 C   0  0  2  0  0  3  0  0  0  0  0  0
  158.2690  211.1450  156.0030 C   0  0  0  0  0  2  0  0  0  0  0  0
  157.6810  211.6840  154.7010 C   0  0  2  0  0  3  0  0  0  0  0  0
  155.6830  212.9160  155.0150 N   0  0  0  0  0  0  0  0  0  0  0  0
  158.0050  213.0450  154.5750 O   0  0  0  0  0  0  0  0  0  0  0  0
  155.5160  210.4300  155.3990 C   0  0  0  0  0  1  0  0  0  0  0  0
  156.1730  211.5980  154.6570 C   0  0  2  0  0  3  0  0  0  0  0  0
  155.5680  213.0670  156.4630 C   0  0  0  0  0  1  0  0  0  0  0  0
  156.7900  213.7710  154.6070 C   0  0  0  0  0  2  0  0  0  0  0  0
  1 21  1  0  0  0  0
  1  6  1  0  0  0  0
  3  1  1  0  0  0  0
  4  6  1  0  0  0  0
  5  2  1  1  0  0  0
  5  4  1  0  0  0  0
  7  9  1  6  0  0  0
  7  3  1  0  0  0  0
  7  5  1  0  0  0  0
  8  9  1  0  0  0  0
 11 14  1  0  0  0  0
 13 19  1  0  0  0  0
 14 12  1  1  0  0  0
 14 10  1  0  0  0  0
 15 20  1  0  0  0  0
 16 11  2  0  0  0  0
 16 13  1  0  0  0  0
 17 15  1  0  0  0  0
 17 11  1  0  0  0  0
 18 13  2  0  0  0  0
 19 10  2  0  0  0  0
 20  9  1  1  0  0  0
 20 12  1  0  0  0  0
 22 21  1  1  0  0  0
 23 27  1  0  0  0  0
 24 28  1  0  0  0  0
 24 22  1  0  0  0  0
 26 22  1  0  0  0  0
 26 23  1  0  0  0  0
 26 25  1  1  0  0  0
 28 23  1  0  0  0  0
M  END
>  <MODEL>
7

>  <REMARK>
 VINA RESULT:      -5.8      2.727      4.661
  Name = 
  4 active torsions:
  status: ('A' for Active; 'I' for Inactive)
    1  A    between atoms: N_1  and  C_2
    2  A    between atoms: C_2  and  C_3
    3  A    between atoms: N_20  and  C_25
    4  A    between atoms: N_20  and  C_27
                            x       y       z     vdW  Elec       q    Type
                         _______ _______ _______ _____ _____    ______ ____

>  <TORSDO>
F 4

$$$$
=
 OpenBabel11052422473D

 28 31  0  0  1  0  0  0  0  0999 V2000
  158.8500  210.2350  154.8110 N   0  0  0  0  0  0  0  0  0  0  0  0
  161.9540  208.0800  156.0400 O   0  0  0  0  0  1  0  0  0  0  0  0
  159.7460  209.8560  153.7060 C   0  0  0  0  0  2  0  0  0  0  0  0
  159.5880  208.0570  155.7610 C   0  0  0  0  0  2  0  0  0  0  0  0
  160.9530  208.1160  155.0690 C   0  0  1  0  0  3  0  0  0  0  0  0
  159.0800  209.4700  156.0470 C   0  0  0  0  0  2  0  0  0  0  0  0
  161.1270  209.3760  154.1890 C   0  0  1  0  0  3  0  0  0  0  0  0
  162.1270  210.3410  152.2280 C   0  0  0  0  0  1  0  0  0  0  0  0
  162.0340  209.1380  153.0460 N   0  0  0  0  0  0  0  0  0  0  0  0
  162.2740  204.2640  152.0100 C   0  0  0  0  0  3  0  0  0  0  0  0
  161.0890  205.8130  150.3640 C   0  0  0  0  0  0  0  0  0  0  0  0
  161.9000  206.6420  152.6040 C   0  0  0  0  0  2  0  0  0  0  0  0
  160.6230  203.4220  150.4430 C   0  0  0  0  0  0  0  0  0  0  0  0
  162.1340  205.6610  151.4570 C   0  0  1  0  0  3  0  0  0  0  0  0
  161.9600  208.4410  150.3980 S   0  0  0  0  0  0  0  0  0  0  0  0
  160.4060  204.7650  149.8960 C   0  0  0  0  0  3  0  0  0  0  0  0
  160.8300  207.1570  149.7540 C   0  0  0  0  0  2  0  0  0  0  0  0
  159.9820  202.4410  149.9830 O   0  0  0  0  0  0  0  0  0  0  0  0
  161.5820  203.2290  151.5330 C   0  0  0  0  0  3  0  0  0  0  0  0
  161.5500  208.0770  152.1440 C   0  0  2  0  0  3  0  0  0  0  0  0
  159.1110  211.6360  155.1100 C   0  0  0  0  0  2  0  0  0  0  0  0
  157.8600  212.3010  155.6780 C   0  0  2  0  0  3  0  0  0  0  0  0
  157.1910  214.2240  154.4670 N   0  0  0  0  0  0  0  0  0  0  0  0
  156.7490  211.9390  154.8990 O   0  0  0  0  0  0  0  0  0  0  0  0
  159.3120  214.4510  155.8110 C   0  0  0  0  0  1  0  0  0  0  0  0
  157.9300  213.8110  155.6450 C   0  0  2  0  0  3  0  0  0  0  0  0
  158.0380  214.2230  153.2780 C   0  0  0  0  0  1  0  0  0  0  0  0
  156.2540  213.1200  154.2960 C   0  0  0  0  0  2  0  0  0  0  0  0
  1 21  1  0  0  0  0
  1  6  1  0  0  0  0
  3  7  1  0  0  0  0
  3  1  1  0  0  0  0
  4  6  1  0  0  0  0
  5  4  1  0  0  0  0
  5  2  1  1  0  0  0
  7  9  1  6  0  0  0
  7  5  1  0  0  0  0
  8  9  1  0  0  0  0
 11 14  1  0  0  0  0
 13 19  1  0  0  0  0
 14 10  1  1  0  0  0
 14 12  1  0  0  0  0
 15 20  1  0  0  0  0
 16 11  2  0  0  0  0
 16 13  1  0  0  0  0
 17 11  1  0  0  0  0
 17 15  1  0  0  0  0
 18 13  2  0  0  0  0
 19 10  2  0  0  0  0
 20 12  1  0  0  0  0
 20  9  1  1  0  0  0
 22 21  1  6  0  0  0
 23 26  1  0  0  0  0
 24 22  1  0  0  0  0
 26 22  1  0  0  0  0
 26 25  1  6  0  0  0
 27 23  1  0  0  0  0
 28 23  1  0  0  0  0
 28 24  1  0  0  0  0
M  END
>  <MODEL>
8

>  <REMARK>
 VINA RESULT:      -5.5      3.197      4.260
  Name = 
  4 active torsions:
  status: ('A' for Active; 'I' for Inactive)
    1  A    between atoms: N_1  and  C_2
    2  A    between atoms: C_2  and  C_3
    3  A    between atoms: N_20  and  C_25
    4  A    between atoms: N_20  and  C_27
                            x       y       z     vdW  Elec       q    Type
                         _______ _______ _______ _____ _____    ______ ____

>  <TORSDO>
F 4

$$$$
=
 OpenBabel11052422473D

 28 31  0  0  1  0  0  0  0  0999 V2000
  160.9380  204.5450  147.8660 N   0  0  0  0  0  0  0  0  0  0  0  0
  163.4670  207.6060  147.7090 O   0  0  0  0  0  1  0  0  0  0  0  0
  160.4420  205.7250  148.5930 C   0  0  0  0  0  2  0  0  0  0  0  0
  161.9950  206.2610  146.4060 C   0  0  0  0  0  2  0  0  0  0  0  0
  162.1210  207.2790  147.5420 C   0  0  1  0  0  3  0  0  0  0  0  0
  162.0620  204.8380  146.9610 C   0  0  0  0  0  2  0  0  0  0  0  0
  161.5420  206.7620  148.8790 C   0  0  1  0  0  3  0  0  0  0  0  0
  161.9210  209.0100  149.6430 C   0  0  0  0  0  1  0  0  0  0  0  0
  161.0280  207.8600  149.7270 N   0  0  0  0  0  0  0  0  0  0  0  0
  160.5920  209.6680  154.3560 C   0  0  0  0  0  3  0  0  0  0  0  0
  161.1760  207.2030  154.0500 C   0  0  0  0  0  0  0  0  0  0  0  0
  160.5620  208.6650  152.0880 C   0  0  0  0  0  2  0  0  0  0  0  0
  160.1650  208.0400  156.1030 C   0  0  0  0  0  0  0  0  0  0  0  0
  161.2040  208.6090  153.4720 C   0  0  1  0  0  3  0  0  0  0  0  0
  162.4720  206.5940  151.6800 S   0  0  0  0  0  0  0  0  0  0  0  0
  160.7030  206.9570  155.2740 C   0  0  0  0  0  3  0  0  0  0  0  0
  161.7240  206.0550  153.2580 C   0  0  0  0  0  2  0  0  0  0  0  0
  159.7340  207.7960  157.2610 O   0  0  0  0  0  0  0  0  0  0  0  0
  160.1210  209.4060  155.5750 C   0  0  0  0  0  3  0  0  0  0  0  0
  160.9720  207.5010  151.1550 C   0  0  2  0  0  3  0  0  0  0  0  0
  161.4160  203.6000  148.8640 C   0  0  0  0  0  2  0  0  0  0  0  0
  160.2650  203.1370  149.7540 C   0  0  2  0  0  3  0  0  0  0  0  0
  160.9770  201.8720  151.6250 N   0  0  0  0  0  0  0  0  0  0  0  0
  160.1840  203.9740  150.8790 O   0  0  0  0  0  0  0  0  0  0  0  0
  161.2080  200.7460  149.3810 C   0  0  0  0  0  1  0  0  0  0  0  0
  160.4550  201.7330  150.2790 C   0  0  2  0  0  3  0  0  0  0  0  0
  162.4320  201.9990  151.6230 C   0  0  0  0  0  1  0  0  0  0  0  0
  160.4590  203.1770  152.0160 C   0  0  0  0  0  2  0  0  0  0  0  0
  1  3  1  0  0  0  0
  1 21  1  0  0  0  0
  3  7  1  0  0  0  0
  4  6  1  0  0  0  0
  4  5  1  0  0  0  0
  5  2  1  1  0  0  0
  5  7  1  0  0  0  0
  6  1  1  0  0  0  0
  7  9  1  6  0  0  0
  8  9  1  0  0  0  0
 10 19  2  0  0  0  0
 11 16  2  0  0  0  0
 13 18  2  0  0  0  0
 14 12  1  6  0  0  0
 14 11  1  0  0  0  0
 14 10  1  0  0  0  0
 15 17  1  0  0  0  0
 16 13  1  0  0  0  0
 17 11  1  0  0  0  0
 19 13  1  0  0  0  0
 20  9  1  6  0  0  0
 20 15  1  0  0  0  0
 20 12  1  0  0  0  0
 22 21  1  6  0  0  0
 22 26  1  0  0  0  0
 22 24  1  0  0  0  0
 23 28  1  0  0  0  0
 24 28  1  0  0  0  0
 26 25  1  6  0  0  0
 26 23  1  0  0  0  0
 27 23  1  0  0  0  0
M  END
>  <MODEL>
9

>  <REMARK>
 VINA RESULT:      -5.4      3.989      8.408
  Name = 
  4 active torsions:
  status: ('A' for Active; 'I' for Inactive)
    1  A    between atoms: N_1  and  C_2
    2  A    between atoms: C_2  and  C_3
    3  A    between atoms: N_20  and  C_25
    4  A    between atoms: N_20  and  C_27
                            x       y       z     vdW  Elec       q    Type
                         _______ _______ _______ _____ _____    ______ ____

>  <TORSDO>
F 4

$$$$
