=
 OpenBabel11062408343D

 32 33  0  0  1  0  0  0  0  0999 V2000
  161.3920  207.6940  150.3040 O   0  0  0  0  0  0  0  0  0  0  0  0
  161.4710  206.2890  150.2150 C   0  0  2  0  0  3  0  0  0  0  0  0
  161.2680  205.8170  148.7730 C   0  0  1  0  0  3  0  0  0  0  0  0
  162.3390  206.7830  147.6410 S   0  0  0  0  0  0  0  0  0  0  0  0
  160.6250  201.7070  146.2990 C   0  0  0  0  0  2  0  0  0  0  0  0
  161.5280  204.3490  148.6160 C   0  0  0  0  0  3  0  0  0  0  0  0
  161.1260  203.8260  144.9310 C   0  0  0  0  0  2  0  0  0  0  0  0
  161.1030  204.6540  146.2130 C   0  0  2  0  0  3  0  0  0  0  0  0
  162.1100  205.7960  146.0990 C   0  0  0  0  0  2  0  0  0  0  0  0
  161.4240  203.7920  147.4090 C   0  0  0  0  0  0  0  0  0  0  0  0
  160.2590  202.5740  145.0790 C   0  0  0  0  0  2  0  0  0  0  0  0
  161.6750  202.3260  147.2310 C   0  0  0  0  0  2  0  0  0  0  0  0
  160.5620  205.6820  151.0950 O   0  0  0  0  0  0  0  0  0  0  0  0
  161.3510  205.1360  152.1100 C   0  0  1  0  0  3  0  0  0  0  0  0
  161.3120  206.0070  153.2730 N   0  0  0  0  0  1  0  0  0  0  0  0
  161.2440  202.7400  151.4410 C   0  0  0  0  0  1  0  0  0  0  0  0
  160.8200  203.7610  152.4800 C   0  0  0  0  0  2  0  0  0  0  0  0
  162.4960  208.0970  150.9190 O   0  0  0  0  0  0  0  0  0  0  0  0
  162.3190  209.4560  151.2380 C   0  0  1  0  0  3  0  0  0  0  0  0
  161.9260  210.1940  150.1140 O   0  0  0  0  0  1  0  0  0  0  0  0
  161.3790  209.6520  152.4000 C   0  0  0  0  0  0  0  0  0  0  0  0
  160.2410  209.2120  152.3530 O   0  0  0  0  0  0  0  0  0  0  0  0
  161.8230  210.3960  153.6280 C   0  0  0  0  0  2  0  0  0  0  0  0
  160.6810  210.7790  154.5740 C   0  0  1  0  0  3  0  0  0  0  0  0
  161.1140  210.7550  156.0380 C   0  0  0  0  0  2  0  0  0  0  0  0
  160.7500  209.4320  156.6930 C   0  0  0  0  0  3  0  0  0  0  0  0
  162.0090  208.6220  156.9190 C   0  0  0  0  0  1  0  0  0  0  0  0
  159.8050  208.6370  155.8110 C   0  0  0  0  0  1  0  0  0  0  0  0
  160.0650  212.1220  154.1990 C   0  0  0  0  0  2  0  0  0  0  0  0
  157.9020  211.1950  154.5820 O   0  0  0  0  0  0  0  0  0  0  0  0
  158.0400  212.6730  152.7960 N   0  0  0  0  0  1  0  0  0  0  0  0
  158.6140  211.9680  153.8910 C   0  0  0  0  0  0  0  0  0  0  0  0
  1 18  1  0  0  0  0
  2  1  1  6  0  0  0
  2 13  1  0  0  0  0
  3  2  1  1  0  0  0
  4  3  1  0  0  0  0
  5 12  1  0  0  0  0
  6  3  1  0  0  0  0
  7 11  1  0  0  0  0
  8  7  1  6  0  0  0
  8 10  1  0  0  0  0
  9  8  1  0  0  0  0
  9  4  1  0  0  0  0
 10  6  2  0  0  0  0
 11  5  1  0  0  0  0
 12 10  1  0  0  0  0
 13 14  1  0  0  0  0
 14 17  1  0  0  0  0
 14 15  1  1  0  0  0
 16 17  1  0  0  0  0
 18 19  1  0  0  0  0
 19 20  1  6  0  0  0
 19 21  1  0  0  0  0
 21 23  1  0  0  0  0
 22 21  2  0  0  0  0
 24 23  1  6  0  0  0
 24 25  1  0  0  0  0
 25 26  1  0  0  0  0
 26 27  1  0  0  0  0
 28 26  1  0  0  0  0
 29 24  1  0  0  0  0
 31 32  1  0  0  0  0
 32 29  1  0  0  0  0
 32 30  2  0  0  0  0
M  END
>  <MODEL>
1

>  <REMARK>
 VINA RESULT:      -6.7      0.000      0.000
  Name = 
  14 active torsions:
  status: ('A' for Active; 'I' for Inactive)
    1  A    between atoms: O_1  and  C_5
    2  A    between atoms: O_1  and  O_30
    3  A    between atoms: C_2  and  C_5
    4  A    between atoms: C_3  and  C_8
    5  A    between atoms: C_3  and  C_20
    6  A    between atoms: C_4  and  C_24
    7  A    between atoms: C_4  and  O_30
    8  A    between atoms: C_5  and  O_14
    9  A    between atoms: C_13  and  O_14
   10  A    between atoms: C_13  and  C_29
   11  A    between atoms: C_15  and  C_20
   12  A    between atoms: C_15  and  C_26
   13  A    between atoms: C_16  and  C_20
   14  A    between atoms: C_16  and  C_24
                            x       y       z     vdW  Elec       q    Type
                         _______ _______ _______ _____ _____    ______ ____

>  <TORSDO>
F 14

$$$$
=
 OpenBabel11062408343D

 32 33  0  0  1  0  0  0  0  0999 V2000
  161.3340  209.2760  153.0450 O   0  0  0  0  0  0  0  0  0  0  0  0
  160.6140  209.7940  154.1420 C   0  0  2  0  0  3  0  0  0  0  0  0
  159.6770  210.9220  153.7010 C   0  0  1  0  0  3  0  0  0  0  0  0
  159.4700  212.1320  155.0630 S   0  0  0  0  0  0  0  0  0  0  0  0
  158.7450  213.6210  149.7940 C   0  0  0  0  0  2  0  0  0  0  0  0
  160.1610  211.6070  152.4590 C   0  0  0  0  0  3  0  0  0  0  0  0
  157.6660  214.3610  152.0080 C   0  0  0  0  0  2  0  0  0  0  0  0
  158.2420  213.1270  152.6960 C   0  0  2  0  0  3  0  0  0  0  0  0
  158.5900  213.4670  154.1430 C   0  0  0  0  0  2  0  0  0  0  0  0
  159.4670  212.6340  151.9660 C   0  0  0  0  0  0  0  0  0  0  0  0
  157.4710  214.1060  150.5110 C   0  0  0  0  0  2  0  0  0  0  0  0
  159.9300  213.3300  150.7230 C   0  0  0  0  0  2  0  0  0  0  0  0
  161.4870  210.2090  155.1590 O   0  0  0  0  0  0  0  0  0  0  0  0
  161.6390  209.0910  155.9830 C   0  0  1  0  0  3  0  0  0  0  0  0
  162.5460  209.4140  157.0720 N   0  0  0  0  0  1  0  0  0  0  0  0
  160.3820  207.3360  157.2240 C   0  0  0  0  0  1  0  0  0  0  0  0
  160.2860  208.6890  156.5440 C   0  0  0  0  0  2  0  0  0  0  0  0
  160.6820  208.1950  152.6400 O   0  0  0  0  0  0  0  0  0  0  0  0
  161.4030  207.0790  153.1030 C   0  0  1  0  0  3  0  0  0  0  0  0
  160.6180  206.2810  153.9440 O   0  0  0  0  0  1  0  0  0  0  0  0
  162.0110  206.2850  151.9750 C   0  0  0  0  0  0  0  0  0  0  0  0
  162.9410  206.7430  151.3300 O   0  0  0  0  0  0  0  0  0  0  0  0
  161.4800  204.9240  151.6220 C   0  0  0  0  0  2  0  0  0  0  0  0
  161.1540  204.7460  150.1370 C   0  0  1  0  0  3  0  0  0  0  0  0
  160.3690  203.4640  149.8700 C   0  0  0  0  0  2  0  0  0  0  0  0
  161.2600  202.3970  149.2520 C   0  0  0  0  0  3  0  0  0  0  0  0
  160.9280  202.2590  147.7810 C   0  0  0  0  0  1  0  0  0  0  0  0
  161.0480  201.0590  149.9330 C   0  0  0  0  0  1  0  0  0  0  0  0
  160.4380  205.9650  149.5680 C   0  0  0  0  0  2  0  0  0  0  0  0
  161.4670  205.7240  147.4310 O   0  0  0  0  0  0  0  0  0  0  0  0
  161.5410  207.8660  148.3270 N   0  0  0  0  0  1  0  0  0  0  0  0
  161.1640  206.4950  148.3780 C   0  0  0  0  0  0  0  0  0  0  0  0
  2  1  1  6  0  0  0
  2 13  1  0  0  0  0
  3  2  1  1  0  0  0
  3  4  1  0  0  0  0
  5 11  1  0  0  0  0
  5 12  1  0  0  0  0
  6  3  1  0  0  0  0
  8  7  1  6  0  0  0
  8  9  1  0  0  0  0
  9  4  1  0  0  0  0
 10  6  2  0  0  0  0
 10  8  1  0  0  0  0
 11  7  1  0  0  0  0
 12 10  1  0  0  0  0
 13 14  1  0  0  0  0
 14 17  1  0  0  0  0
 14 15  1  1  0  0  0
 17 16  1  0  0  0  0
 18  1  1  0  0  0  0
 18 19  1  0  0  0  0
 19 20  1  6  0  0  0
 21 19  1  0  0  0  0
 22 21  2  0  0  0  0
 23 21  1  0  0  0  0
 24 29  1  1  0  0  0
 24 23  1  0  0  0  0
 25 24  1  0  0  0  0
 26 25  1  0  0  0  0
 26 28  1  0  0  0  0
 27 26  1  0  0  0  0
 30 32  2  0  0  0  0
 31 32  1  0  0  0  0
 32 29  1  0  0  0  0
M  END
>  <MODEL>
2

>  <REMARK>
 VINA RESULT:      -6.7      3.020      8.476
  Name = 
  14 active torsions:
  status: ('A' for Active; 'I' for Inactive)
    1  A    between atoms: O_1  and  C_5
    2  A    between atoms: O_1  and  O_30
    3  A    between atoms: C_2  and  C_5
    4  A    between atoms: C_3  and  C_8
    5  A    between atoms: C_3  and  C_20
    6  A    between atoms: C_4  and  C_24
    7  A    between atoms: C_4  and  O_30
    8  A    between atoms: C_5  and  O_14
    9  A    between atoms: C_13  and  O_14
   10  A    between atoms: C_13  and  C_29
   11  A    between atoms: C_15  and  C_20
   12  A    between atoms: C_15  and  C_26
   13  A    between atoms: C_16  and  C_20
   14  A    between atoms: C_16  and  C_24
                            x       y       z     vdW  Elec       q    Type
                         _______ _______ _______ _____ _____    ______ ____

>  <TORSDO>
F 14

$$$$
=
 OpenBabel11062408343D

 32 33  0  0  1  0  0  0  0  0999 V2000
  161.2460  210.0560  153.2640 O   0  0  0  0  0  0  0  0  0  0  0  0
  160.4230  210.0110  154.4080 C   0  0  2  0  0  3  0  0  0  0  0  0
  159.4590  211.1990  154.4400 C   0  0  1  0  0  3  0  0  0  0  0  0
  159.1140  211.7730  152.7330 S   0  0  0  0  0  0  0  0  0  0  0  0
  155.5140  212.6770  156.8220 C   0  0  0  0  0  2  0  0  0  0  0  0
  158.1810  210.8720  155.1520 C   0  0  0  0  0  3  0  0  0  0  0  0
  156.1650  213.9960  154.7130 C   0  0  0  0  0  2  0  0  0  0  0  0
  157.4180  213.1350  154.5680 C   0  0  2  0  0  3  0  0  0  0  0  0
  157.7340  212.9450  153.0860 C   0  0  0  0  0  2  0  0  0  0  0  0
  157.2240  211.7970  155.2370 C   0  0  0  0  0  0  0  0  0  0  0  0
  155.7200  214.0600  156.1760 C   0  0  0  0  0  2  0  0  0  0  0  0
  155.9410  211.4920  155.9470 C   0  0  0  0  0  2  0  0  0  0  0  0
  161.1980  209.9370  155.5760 O   0  0  0  0  0  0  0  0  0  0  0  0
  161.4740  208.5770  155.7400 C   0  0  1  0  0  3  0  0  0  0  0  0
  162.1830  208.3770  156.9930 N   0  0  0  0  0  1  0  0  0  0  0  0
  160.0480  207.0120  157.0490 C   0  0  0  0  0  1  0  0  0  0  0  0
  160.1720  207.7950  155.7560 C   0  0  0  0  0  2  0  0  0  0  0  0
  161.0180  208.9370  152.5890 O   0  0  0  0  0  0  0  0  0  0  0  0
  161.4010  209.1730  151.2560 C   0  0  1  0  0  3  0  0  0  0  0  0
  162.3310  210.2170  151.1720 O   0  0  0  0  0  1  0  0  0  0  0  0
  161.8930  207.9220  150.5740 C   0  0  0  0  0  0  0  0  0  0  0  0
  162.9420  207.4010  150.9220 O   0  0  0  0  0  0  0  0  0  0  0  0
  161.1090  207.3010  149.4520 C   0  0  0  0  0  2  0  0  0  0  0  0
  161.2260  205.7760  149.3770 C   0  0  1  0  0  3  0  0  0  0  0  0
  160.4740  205.0840  150.5100 C   0  0  0  0  0  2  0  0  0  0  0  0
  161.4410  204.4450  151.4960 C   0  0  0  0  0  3  0  0  0  0  0  0
  161.1820  202.9540  151.5550 C   0  0  0  0  0  1  0  0  0  0  0  0
  161.2600  205.0310  152.8830 C   0  0  0  0  0  1  0  0  0  0  0  0
  160.7910  205.2450  148.0160 C   0  0  0  0  0  2  0  0  0  0  0  0
  162.7130  204.3770  146.9020 O   0  0  0  0  0  0  0  0  0  0  0  0
  161.3420  202.7850  147.8940 N   0  0  0  0  0  1  0  0  0  0  0  0
  161.6790  204.1300  147.5770 C   0  0  0  0  0  0  0  0  0  0  0  0
  2  1  1  6  0  0  0
  2 13  1  0  0  0  0
  3  2  1  6  0  0  0
  3  6  1  0  0  0  0
  4  9  1  0  0  0  0
  4  3  1  0  0  0  0
  6 10  2  0  0  0  0
  7 11  1  0  0  0  0
  8  9  1  6  0  0  0
  8  7  1  0  0  0  0
  8 10  1  0  0  0  0
 10 12  1  0  0  0  0
 11  5  1  0  0  0  0
 12  5  1  0  0  0  0
 13 14  1  0  0  0  0
 14 17  1  0  0  0  0
 14 15  1  1  0  0  0
 17 16  1  0  0  0  0
 18  1  1  0  0  0  0
 19 20  1  1  0  0  0
 19 18  1  0  0  0  0
 21 22  2  0  0  0  0
 21 19  1  0  0  0  0
 23 21  1  0  0  0  0
 24 29  1  6  0  0  0
 24 23  1  0  0  0  0
 24 25  1  0  0  0  0
 25 26  1  0  0  0  0
 26 27  1  0  0  0  0
 26 28  1  0  0  0  0
 30 32  2  0  0  0  0
 32 31  1  0  0  0  0
 32 29  1  0  0  0  0
M  END
>  <MODEL>
3

>  <REMARK>
 VINA RESULT:      -6.7      2.814      8.951
  Name = 
  14 active torsions:
  status: ('A' for Active; 'I' for Inactive)
    1  A    between atoms: O_1  and  C_5
    2  A    between atoms: O_1  and  O_30
    3  A    between atoms: C_2  and  C_5
    4  A    between atoms: C_3  and  C_8
    5  A    between atoms: C_3  and  C_20
    6  A    between atoms: C_4  and  C_24
    7  A    between atoms: C_4  and  O_30
    8  A    between atoms: C_5  and  O_14
    9  A    between atoms: C_13  and  O_14
   10  A    between atoms: C_13  and  C_29
   11  A    between atoms: C_15  and  C_20
   12  A    between atoms: C_15  and  C_26
   13  A    between atoms: C_16  and  C_20
   14  A    between atoms: C_16  and  C_24
                            x       y       z     vdW  Elec       q    Type
                         _______ _______ _______ _____ _____    ______ ____

>  <TORSDO>
F 14

$$$$
=
 OpenBabel11062408343D

 32 33  0  0  1  0  0  0  0  0999 V2000
  161.9500  207.7290  152.9060 O   0  0  0  0  0  0  0  0  0  0  0  0
  161.6460  209.0790  152.6330 C   0  0  2  0  0  3  0  0  0  0  0  0
  160.8040  209.6920  153.7550 C   0  0  1  0  0  3  0  0  0  0  0  0
  161.8920  210.5300  154.9700 S   0  0  0  0  0  0  0  0  0  0  0  0
  156.6180  212.0470  154.3500 C   0  0  0  0  0  2  0  0  0  0  0  0
  159.7710  210.6440  153.2310 C   0  0  0  0  0  3  0  0  0  0  0  0
  158.2180  211.9840  156.3630 C   0  0  0  0  0  2  0  0  0  0  0  0
  159.1680  211.0870  155.5730 C   0  0  2  0  0  3  0  0  0  0  0  0
  160.6090  211.4000  155.9690 C   0  0  0  0  0  2  0  0  0  0  0  0
  158.9770  211.2850  154.0900 C   0  0  0  0  0  0  0  0  0  0  0  0
  156.7800  211.8210  155.8660 C   0  0  0  0  0  2  0  0  0  0  0  0
  157.9360  212.2370  153.5880 C   0  0  0  0  0  2  0  0  0  0  0  0
  161.0210  209.2060  151.3830 O   0  0  0  0  0  0  0  0  0  0  0  0
  162.0410  209.5800  150.5050 C   0  0  1  0  0  3  0  0  0  0  0  0
  161.9840  208.7470  149.3160 N   0  0  0  0  0  1  0  0  0  0  0  0
  162.1440  211.2260  148.6400 C   0  0  0  0  0  1  0  0  0  0  0  0
  161.8660  211.0390  150.1190 C   0  0  0  0  0  2  0  0  0  0  0  0
  160.9050  207.0170  152.5070 O   0  0  0  0  0  0  0  0  0  0  0  0
  161.3960  205.7750  152.0650 C   0  0  1  0  0  3  0  0  0  0  0  0
  161.0540  204.7490  152.9540 O   0  0  0  0  0  1  0  0  0  0  0  0
  160.9720  205.4630  150.6520 C   0  0  0  0  0  0  0  0  0  0  0  0
  160.1080  206.1320  150.1070 O   0  0  0  0  0  0  0  0  0  0  0  0
  161.5970  204.3230  149.8980 C   0  0  0  0  0  2  0  0  0  0  0  0
  160.9250  204.0180  148.5560 C   0  0  1  0  0  3  0  0  0  0  0  0
  161.3770  204.9740  147.4550 C   0  0  0  0  0  2  0  0  0  0  0  0
  161.9360  204.2090  146.2650 C   0  0  0  0  0  3  0  0  0  0  0  0
  163.3710  204.6290  146.0300 C   0  0  0  0  0  1  0  0  0  0  0  0
  161.1280  204.4960  145.0140 C   0  0  0  0  0  1  0  0  0  0  0  0
  161.1230  202.5640  148.1460 C   0  0  0  0  0  2  0  0  0  0  0  0
  159.1950  201.5230  149.0860 O   0  0  0  0  0  0  0  0  0  0  0  0
  161.2140  200.9360  150.0720 N   0  0  0  0  0  1  0  0  0  0  0  0
  160.4470  201.6480  149.1080 C   0  0  0  0  0  0  0  0  0  0  0  0
  2 13  1  6  0  0  0
  2  1  1  0  0  0  0
  3  2  1  6  0  0  0
  3  4  1  0  0  0  0
  4  9  1  0  0  0  0
  5 11  1  0  0  0  0
  6  3  1  0  0  0  0
  6 10  2  0  0  0  0
  8  9  1  1  0  0  0
  8  7  1  0  0  0  0
 10  8  1  0  0  0  0
 11  7  1  0  0  0  0
 12 10  1  0  0  0  0
 12  5  1  0  0  0  0
 14 15  1  6  0  0  0
 14 13  1  0  0  0  0
 16 17  1  0  0  0  0
 17 14  1  0  0  0  0
 18  1  1  0  0  0  0
 19 18  1  0  0  0  0
 19 20  1  1  0  0  0
 21 19  1  0  0  0  0
 22 21  2  0  0  0  0
 23 21  1  0  0  0  0
 24 25  1  6  0  0  0
 24 23  1  0  0  0  0
 26 25  1  0  0  0  0
 27 26  1  0  0  0  0
 28 26  1  0  0  0  0
 29 24  1  0  0  0  0
 29 32  1  0  0  0  0
 30 32  2  0  0  0  0
 32 31  1  0  0  0  0
M  END
>  <MODEL>
4

>  <REMARK>
 VINA RESULT:      -6.6      2.684      9.370
  Name = 
  14 active torsions:
  status: ('A' for Active; 'I' for Inactive)
    1  A    between atoms: O_1  and  C_5
    2  A    between atoms: O_1  and  O_30
    3  A    between atoms: C_2  and  C_5
    4  A    between atoms: C_3  and  C_8
    5  A    between atoms: C_3  and  C_20
    6  A    between atoms: C_4  and  C_24
    7  A    between atoms: C_4  and  O_30
    8  A    between atoms: C_5  and  O_14
    9  A    between atoms: C_13  and  O_14
   10  A    between atoms: C_13  and  C_29
   11  A    between atoms: C_15  and  C_20
   12  A    between atoms: C_15  and  C_26
   13  A    between atoms: C_16  and  C_20
   14  A    between atoms: C_16  and  C_24
                            x       y       z     vdW  Elec       q    Type
                         _______ _______ _______ _____ _____    ______ ____

>  <TORSDO>
F 14

$$$$
=
 OpenBabel11062408343D

 32 33  0  0  1  0  0  0  0  0999 V2000
  161.5660  209.4360  152.1550 O   0  0  0  0  0  0  0  0  0  0  0  0
  160.7140  209.3830  153.2770 C   0  0  2  0  0  3  0  0  0  0  0  0
  160.1610  210.7700  153.6150 C   0  0  1  0  0  3  0  0  0  0  0  0
  160.2120  211.8440  152.1290 S   0  0  0  0  0  0  0  0  0  0  0  0
  156.6000  212.7850  156.2000 C   0  0  0  0  0  2  0  0  0  0  0  0
  158.7680  210.7040  154.1670 C   0  0  0  0  0  3  0  0  0  0  0  0
  157.8670  214.3160  154.5680 C   0  0  0  0  0  2  0  0  0  0  0  0
  158.8060  213.1630  154.2230 C   0  0  2  0  0  3  0  0  0  0  0  0
  159.2220  213.2680  152.7570 C   0  0  0  0  0  2  0  0  0  0  0  0
  158.1360  211.8360  154.4810 C   0  0  0  0  0  0  0  0  0  0  0  0
  157.2920  214.1430  155.9760 C   0  0  0  0  0  2  0  0  0  0  0  0
  156.7470  211.7930  155.0390 C   0  0  0  0  0  2  0  0  0  0  0  0
  161.3690  208.8020  154.3740 O   0  0  0  0  0  0  0  0  0  0  0  0
  160.5420  207.7490  154.7720 C   0  0  1  0  0  3  0  0  0  0  0  0
  160.9860  206.5190  154.1370 N   0  0  0  0  0  1  0  0  0  0  0  0
  160.3090  208.9270  156.9540 C   0  0  0  0  0  1  0  0  0  0  0  0
  160.6060  207.5990  156.2830 C   0  0  0  0  0  2  0  0  0  0  0  0
  161.1210  208.5280  151.2970 O   0  0  0  0  0  0  0  0  0  0  0  0
  162.2450  207.9980  150.6360 C   0  0  1  0  0  3  0  0  0  0  0  0
  162.7830  206.9140  151.3400 O   0  0  0  0  0  1  0  0  0  0  0  0
  161.9500  207.6490  149.2000 C   0  0  0  0  0  0  0  0  0  0  0  0
  162.6360  208.1080  148.3010 O   0  0  0  0  0  0  0  0  0  0  0  0
  160.8050  206.7390  148.8510 C   0  0  0  0  0  2  0  0  0  0  0  0
  161.1640  205.2510  148.8630 C   0  0  1  0  0  3  0  0  0  0  0  0
  160.4200  204.4880  149.9560 C   0  0  0  0  0  2  0  0  0  0  0  0
  161.2810  203.3680  150.5210 C   0  0  0  0  0  3  0  0  0  0  0  0
  160.7120  202.0330  150.0890 C   0  0  0  0  0  1  0  0  0  0  0  0
  161.3080  203.4240  152.0370 C   0  0  0  0  0  1  0  0  0  0  0  0
  160.9520  204.6100  147.4960 C   0  0  0  0  0  2  0  0  0  0  0  0
  161.4050  205.9930  145.6070 O   0  0  0  0  0  0  0  0  0  0  0  0
  163.2490  204.8900  146.4880 N   0  0  0  0  0  1  0  0  0  0  0  0
  161.8640  205.2150  146.4830 C   0  0  0  0  0  0  0  0  0  0  0  0
  2  1  1  6  0  0  0
  2 13  1  0  0  0  0
  3  2  1  6  0  0  0
  3  6  1  0  0  0  0
  4  9  1  0  0  0  0
  4  3  1  0  0  0  0
  6 10  2  0  0  0  0
  7 11  1  0  0  0  0
  8  9  1  6  0  0  0
  8 10  1  0  0  0  0
  8  7  1  0  0  0  0
 10 12  1  0  0  0  0
 11  5  1  0  0  0  0
 12  5  1  0  0  0  0
 13 14  1  0  0  0  0
 14 15  1  6  0  0  0
 14 17  1  0  0  0  0
 17 16  1  0  0  0  0
 18  1  1  0  0  0  0
 19 18  1  0  0  0  0
 19 20  1  1  0  0  0
 21 19  1  0  0  0  0
 22 21  2  0  0  0  0
 23 24  1  0  0  0  0
 23 21  1  0  0  0  0
 24 29  1  6  0  0  0
 24 25  1  0  0  0  0
 25 26  1  0  0  0  0
 26 28  1  0  0  0  0
 27 26  1  0  0  0  0
 30 32  2  0  0  0  0
 32 31  1  0  0  0  0
 32 29  1  0  0  0  0
M  END
>  <MODEL>
5

>  <REMARK>
 VINA RESULT:      -6.6      2.541      8.851
  Name = 
  14 active torsions:
  status: ('A' for Active; 'I' for Inactive)
    1  A    between atoms: O_1  and  C_5
    2  A    between atoms: O_1  and  O_30
    3  A    between atoms: C_2  and  C_5
    4  A    between atoms: C_3  and  C_8
    5  A    between atoms: C_3  and  C_20
    6  A    between atoms: C_4  and  C_24
    7  A    between atoms: C_4  and  O_30
    8  A    between atoms: C_5  and  O_14
    9  A    between atoms: C_13  and  O_14
   10  A    between atoms: C_13  and  C_29
   11  A    between atoms: C_15  and  C_20
   12  A    between atoms: C_15  and  C_26
   13  A    between atoms: C_16  and  C_20
   14  A    between atoms: C_16  and  C_24
                            x       y       z     vdW  Elec       q    Type
                         _______ _______ _______ _____ _____    ______ ____

>  <TORSDO>
F 14

$$$$
=
 OpenBabel11062408343D

 32 33  0  0  1  0  0  0  0  0999 V2000
  161.2400  207.7370  150.5920 O   0  0  0  0  0  0  0  0  0  0  0  0
  161.4190  206.3540  150.3820 C   0  0  2  0  0  3  0  0  0  0  0  0
  161.2480  205.9940  148.9040 C   0  0  1  0  0  3  0  0  0  0  0  0
  162.3210  207.0640  147.8710 S   0  0  0  0  0  0  0  0  0  0  0  0
  160.7190  202.0830  146.1040 C   0  0  0  0  0  2  0  0  0  0  0  0
  161.5370  204.5470  148.6370 C   0  0  0  0  0  3  0  0  0  0  0  0
  161.2070  204.3110  144.9160 C   0  0  0  0  0  2  0  0  0  0  0  0
  161.1470  205.0340  146.2590 C   0  0  2  0  0  3  0  0  0  0  0  0
  162.1360  206.1980  146.2530 C   0  0  0  0  0  2  0  0  0  0  0  0
  161.4620  204.0850  147.3880 C   0  0  0  0  0  0  0  0  0  0  0  0
  160.3590  203.0370  144.9490 C   0  0  0  0  0  2  0  0  0  0  0  0
  161.7420  202.6430  147.1000 C   0  0  0  0  0  2  0  0  0  0  0  0
  160.5560  205.6110  151.2020 O   0  0  0  0  0  0  0  0  0  0  0  0
  161.3940  204.9470  152.1020 C   0  0  1  0  0  3  0  0  0  0  0  0
  161.4660  205.7020  153.3420 N   0  0  0  0  0  1  0  0  0  0  0  0
  161.5510  202.5330  151.5130 C   0  0  0  0  0  1  0  0  0  0  0  0
  160.8430  203.5590  152.3770 C   0  0  0  0  0  2  0  0  0  0  0  0
  162.3660  208.1870  151.1300 O   0  0  0  0  0  0  0  0  0  0  0  0
  162.1160  209.5000  151.5720 C   0  0  1  0  0  3  0  0  0  0  0  0
  161.9630  210.3780  150.4930 O   0  0  0  0  0  1  0  0  0  0  0  0
  160.9520  209.5690  152.5280 C   0  0  0  0  0  0  0  0  0  0  0  0
  160.8420  208.7480  153.4250 O   0  0  0  0  0  0  0  0  0  0  0  0
  159.9080  210.6400  152.3870 C   0  0  0  0  0  2  0  0  0  0  0  0
  160.1180  211.8430  153.3110 C   0  0  1  0  0  3  0  0  0  0  0  0
  159.6320  213.1450  152.6790 C   0  0  0  0  0  2  0  0  0  0  0  0
  159.2050  212.9250  151.2360 C   0  0  0  0  0  3  0  0  0  0  0  0
  160.0870  213.7510  150.3220 C   0  0  0  0  0  1  0  0  0  0  0  0
  157.7610  213.3410  151.0330 C   0  0  0  0  0  1  0  0  0  0  0  0
  159.4860  211.6200  154.6790 C   0  0  0  0  0  2  0  0  0  0  0  0
  161.4770  211.0170  155.8450 O   0  0  0  0  0  0  0  0  0  0  0  0
  160.3330  212.8400  156.7200 N   0  0  0  0  0  1  0  0  0  0  0  0
  160.4950  211.8000  155.7620 C   0  0  0  0  0  0  0  0  0  0  0  0
  1 18  1  0  0  0  0
  2  1  1  6  0  0  0
  2 13  1  0  0  0  0
  3  2  1  1  0  0  0
  4  3  1  0  0  0  0
  5 12  1  0  0  0  0
  6  3  1  0  0  0  0
  7 11  1  0  0  0  0
  8  7  1  6  0  0  0
  8 10  1  0  0  0  0
  9  8  1  0  0  0  0
  9  4  1  0  0  0  0
 10  6  2  0  0  0  0
 11  5  1  0  0  0  0
 12 10  1  0  0  0  0
 13 14  1  0  0  0  0
 14 17  1  0  0  0  0
 14 15  1  1  0  0  0
 16 17  1  0  0  0  0
 18 19  1  0  0  0  0
 19 20  1  6  0  0  0
 19 21  1  0  0  0  0
 21 22  2  0  0  0  0
 23 21  1  0  0  0  0
 24 23  1  6  0  0  0
 24 29  1  0  0  0  0
 25 24  1  0  0  0  0
 26 25  1  0  0  0  0
 27 26  1  0  0  0  0
 28 26  1  0  0  0  0
 29 32  1  0  0  0  0
 32 30  2  0  0  0  0
 32 31  1  0  0  0  0
M  END
>  <MODEL>
6

>  <REMARK>
 VINA RESULT:      -6.5      1.640      2.749
  Name = 
  14 active torsions:
  status: ('A' for Active; 'I' for Inactive)
    1  A    between atoms: O_1  and  C_5
    2  A    between atoms: O_1  and  O_30
    3  A    between atoms: C_2  and  C_5
    4  A    between atoms: C_3  and  C_8
    5  A    between atoms: C_3  and  C_20
    6  A    between atoms: C_4  and  C_24
    7  A    between atoms: C_4  and  O_30
    8  A    between atoms: C_5  and  O_14
    9  A    between atoms: C_13  and  O_14
   10  A    between atoms: C_13  and  C_29
   11  A    between atoms: C_15  and  C_20
   12  A    between atoms: C_15  and  C_26
   13  A    between atoms: C_16  and  C_20
   14  A    between atoms: C_16  and  C_24
                            x       y       z     vdW  Elec       q    Type
                         _______ _______ _______ _____ _____    ______ ____

>  <TORSDO>
F 14

$$$$
=
 OpenBabel11062408343D

 32 33  0  0  1  0  0  0  0  0999 V2000
  161.2790  207.9220  150.3170 O   0  0  0  0  0  0  0  0  0  0  0  0
  161.4470  206.5220  150.2960 C   0  0  2  0  0  3  0  0  0  0  0  0
  161.2760  205.9680  148.8800 C   0  0  1  0  0  3  0  0  0  0  0  0
  162.3310  206.9030  147.7090 S   0  0  0  0  0  0  0  0  0  0  0  0
  160.7830  201.7140  146.6260 C   0  0  0  0  0  2  0  0  0  0  0  0
  161.5810  204.5020  148.8060 C   0  0  0  0  0  3  0  0  0  0  0  0
  161.2390  203.7700  145.1500 C   0  0  0  0  0  2  0  0  0  0  0  0
  161.1760  204.6640  146.3860 C   0  0  2  0  0  3  0  0  0  0  0  0
  162.1500  205.8280  146.2210 C   0  0  0  0  0  2  0  0  0  0  0  0
  161.5070  203.8780  147.6300 C   0  0  0  0  0  0  0  0  0  0  0  0
  160.4060  202.5020  145.3570 C   0  0  0  0  0  2  0  0  0  0  0  0
  161.8030  202.4130  147.5340 C   0  0  0  0  0  2  0  0  0  0  0  0
  160.5780  205.9030  151.2080 O   0  0  0  0  0  0  0  0  0  0  0  0
  161.4090  205.1630  152.0530 C   0  0  1  0  0  3  0  0  0  0  0  0
  161.5810  205.8790  153.3070 N   0  0  0  0  0  1  0  0  0  0  0  0
  161.5810  202.7150  151.6350 C   0  0  0  0  0  1  0  0  0  0  0  0
  160.7800  203.8060  152.3190 C   0  0  0  0  0  2  0  0  0  0  0  0
  160.7680  208.2250  151.5030 O   0  0  0  0  0  0  0  0  0  0  0  0
  161.4710  209.3460  151.9820 C   0  0  1  0  0  3  0  0  0  0  0  0
  162.3260  209.8660  151.0020 O   0  0  0  0  0  1  0  0  0  0  0  0
  160.5510  210.3990  152.5460 C   0  0  0  0  0  0  0  0  0  0  0  0
  160.4640  211.4920  152.0100 O   0  0  0  0  0  0  0  0  0  0  0  0
  159.7340  210.1230  153.7770 C   0  0  0  0  0  2  0  0  0  0  0  0
  160.0950  211.0020  154.9770 C   0  0  1  0  0  3  0  0  0  0  0  0
  159.0510  212.0860  155.2320 C   0  0  0  0  0  2  0  0  0  0  0  0
  157.7590  211.7840  154.4870 C   0  0  0  0  0  3  0  0  0  0  0  0
  157.3570  212.9960  153.6730 C   0  0  0  0  0  1  0  0  0  0  0  0
  156.6430  211.4510  155.4580 C   0  0  0  0  0  1  0  0  0  0  0  0
  160.3490  210.1700  156.2280 C   0  0  0  0  0  2  0  0  0  0  0  0
  162.7060  210.3610  155.9240 O   0  0  0  0  0  0  0  0  0  0  0  0
  161.9560  208.2460  156.5250 N   0  0  0  0  0  1  0  0  0  0  0  0
  161.7350  209.6190  156.2230 C   0  0  0  0  0  0  0  0  0  0  0  0
  1 18  1  0  0  0  0
  2  1  1  6  0  0  0
  2 13  1  0  0  0  0
  3  2  1  1  0  0  0
  4  3  1  0  0  0  0
  5 12  1  0  0  0  0
  6  3  1  0  0  0  0
  7 11  1  0  0  0  0
  8  7  1  6  0  0  0
  8 10  1  0  0  0  0
  9  8  1  0  0  0  0
  9  4  1  0  0  0  0
 10  6  2  0  0  0  0
 11  5  1  0  0  0  0
 12 10  1  0  0  0  0
 13 14  1  0  0  0  0
 14 17  1  0  0  0  0
 14 15  1  1  0  0  0
 16 17  1  0  0  0  0
 18 19  1  0  0  0  0
 19 20  1  6  0  0  0
 19 21  1  0  0  0  0
 21 23  1  0  0  0  0
 22 21  2  0  0  0  0
 24 23  1  6  0  0  0
 24 25  1  0  0  0  0
 24 29  1  0  0  0  0
 26 25  1  0  0  0  0
 26 28  1  0  0  0  0
 27 26  1  0  0  0  0
 30 32  2  0  0  0  0
 32 29  1  0  0  0  0
 32 31  1  0  0  0  0
M  END
>  <MODEL>
7

>  <REMARK>
 VINA RESULT:      -6.5      1.603      2.604
  Name = 
  14 active torsions:
  status: ('A' for Active; 'I' for Inactive)
    1  A    between atoms: O_1  and  C_5
    2  A    between atoms: O_1  and  O_30
    3  A    between atoms: C_2  and  C_5
    4  A    between atoms: C_3  and  C_8
    5  A    between atoms: C_3  and  C_20
    6  A    between atoms: C_4  and  C_24
    7  A    between atoms: C_4  and  O_30
    8  A    between atoms: C_5  and  O_14
    9  A    between atoms: C_13  and  O_14
   10  A    between atoms: C_13  and  C_29
   11  A    between atoms: C_15  and  C_20
   12  A    between atoms: C_15  and  C_26
   13  A    between atoms: C_16  and  C_20
   14  A    between atoms: C_16  and  C_24
                            x       y       z     vdW  Elec       q    Type
                         _______ _______ _______ _____ _____    ______ ____

>  <TORSDO>
F 14

$$$$
=
 OpenBabel11062408343D

 32 33  0  0  1  0  0  0  0  0999 V2000
  161.6460  209.5180  149.9220 O   0  0  0  0  0  0  0  0  0  0  0  0
  161.7700  210.6990  150.6820 C   0  0  2  0  0  3  0  0  0  0  0  0
  160.8890  210.6440  151.9320 C   0  0  1  0  0  3  0  0  0  0  0  0
  161.9210  210.3270  153.4140 S   0  0  0  0  0  0  0  0  0  0  0  0
  157.0530  212.9020  153.8340 C   0  0  0  0  0  2  0  0  0  0  0  0
  160.0840  211.8970  152.1120 C   0  0  0  0  0  3  0  0  0  0  0  0
  158.3510  211.3050  155.3770 C   0  0  0  0  0  2  0  0  0  0  0  0
  159.2530  210.9170  154.2080 C   0  0  2  0  0  3  0  0  0  0  0  0
  160.6600  210.6310  154.7260 C   0  0  0  0  0  2  0  0  0  0  0  0
  159.2880  212.0150  153.1750 C   0  0  0  0  0  0  0  0  0  0  0  0
  156.9810  211.7670  154.8730 C   0  0  0  0  0  2  0  0  0  0  0  0
  158.4720  213.2560  153.3720 C   0  0  0  0  0  2  0  0  0  0  0  0
  161.4930  211.8290  149.8970 O   0  0  0  0  0  0  0  0  0  0  0  0
  161.9260  211.4910  148.6130 C   0  0  1  0  0  3  0  0  0  0  0  0
  160.8580  211.7470  147.6600 N   0  0  0  0  0  1  0  0  0  0  0  0
  162.7150  213.6950  147.7640 C   0  0  0  0  0  1  0  0  0  0  0  0
  163.1440  212.3260  148.2540 C   0  0  0  0  0  2  0  0  0  0  0  0
  162.5520  208.6690  150.3880 O   0  0  0  0  0  0  0  0  0  0  0  0
  162.0480  207.3720  150.1820 C   0  0  1  0  0  3  0  0  0  0  0  0
  160.8340  207.1860  150.8540 O   0  0  0  0  0  1  0  0  0  0  0  0
  161.9430  207.0260  148.7180 C   0  0  0  0  0  0  0  0  0  0  0  0
  162.6750  207.5660  147.9040 O   0  0  0  0  0  0  0  0  0  0  0  0
  160.9350  206.0200  148.2390 C   0  0  0  0  0  2  0  0  0  0  0  0
  161.3500  204.5630  148.4630 C   0  0  1  0  0  3  0  0  0  0  0  0
  160.4540  203.8580  149.4780 C   0  0  0  0  0  2  0  0  0  0  0  0
  161.1770  202.6840  150.1200 C   0  0  0  0  0  3  0  0  0  0  0  0
  160.4580  201.3990  149.7610 C   0  0  0  0  0  1  0  0  0  0  0  0
  161.2030  202.8280  151.6290 C   0  0  0  0  0  1  0  0  0  0  0  0
  161.4190  203.7900  147.1510 C   0  0  0  0  0  2  0  0  0  0  0  0
  163.4640  204.7010  146.3330 O   0  0  0  0  0  0  0  0  0  0  0  0
  161.6100  205.0690  144.9840 N   0  0  0  0  0  1  0  0  0  0  0  0
  162.2320  204.5300  146.1440 C   0  0  0  0  0  0  0  0  0  0  0  0
  1 18  1  0  0  0  0
  1  2  1  0  0  0  0
  2 13  1  6  0  0  0
  3  2  1  6  0  0  0
  3  6  1  0  0  0  0
  3  4  1  0  0  0  0
  4  9  1  0  0  0  0
  5 11  1  0  0  0  0
  6 10  2  0  0  0  0
  8  9  1  1  0  0  0
  8  7  1  0  0  0  0
 10 12  1  0  0  0  0
 10  8  1  0  0  0  0
 11  7  1  0  0  0  0
 12  5  1  0  0  0  0
 14 15  1  6  0  0  0
 14 13  1  0  0  0  0
 16 17  1  0  0  0  0
 17 14  1  0  0  0  0
 19 18  1  0  0  0  0
 19 20  1  6  0  0  0
 21 19  1  0  0  0  0
 22 21  2  0  0  0  0
 23 24  1  0  0  0  0
 23 21  1  0  0  0  0
 24 29  1  6  0  0  0
 24 25  1  0  0  0  0
 25 26  1  0  0  0  0
 26 28  1  0  0  0  0
 27 26  1  0  0  0  0
 31 32  1  0  0  0  0
 32 30  2  0  0  0  0
 32 29  1  0  0  0  0
M  END
>  <MODEL>
8

>  <REMARK>
 VINA RESULT:      -6.5      3.002      9.108
  Name = 
  14 active torsions:
  status: ('A' for Active; 'I' for Inactive)
    1  A    between atoms: O_1  and  C_5
    2  A    between atoms: O_1  and  O_30
    3  A    between atoms: C_2  and  C_5
    4  A    between atoms: C_3  and  C_8
    5  A    between atoms: C_3  and  C_20
    6  A    between atoms: C_4  and  C_24
    7  A    between atoms: C_4  and  O_30
    8  A    between atoms: C_5  and  O_14
    9  A    between atoms: C_13  and  O_14
   10  A    between atoms: C_13  and  C_29
   11  A    between atoms: C_15  and  C_20
   12  A    between atoms: C_15  and  C_26
   13  A    between atoms: C_16  and  C_20
   14  A    between atoms: C_16  and  C_24
                            x       y       z     vdW  Elec       q    Type
                         _______ _______ _______ _____ _____    ______ ____

>  <TORSDO>
F 14

$$$$
=
 OpenBabel11062408343D

 32 33  0  0  1  0  0  0  0  0999 V2000
  161.5600  209.2470  150.1980 O   0  0  0  0  0  0  0  0  0  0  0  0
  161.9940  210.4650  150.7610 C   0  0  2  0  0  3  0  0  0  0  0  0
  161.5430  210.5890  152.2190 C   0  0  1  0  0  3  0  0  0  0  0  0
  160.0670  211.6710  152.3290 S   0  0  0  0  0  0  0  0  0  0  0  0
  161.0840  207.8430  156.1780 C   0  0  0  0  0  2  0  0  0  0  0  0
  161.2620  209.2530  152.8400 C   0  0  0  0  0  3  0  0  0  0  0  0
  159.9970  210.1730  156.2410 C   0  0  0  0  0  2  0  0  0  0  0  0
  160.5740  210.4740  154.8600 C   0  0  2  0  0  3  0  0  0  0  0  0
  159.6040  211.3650  154.0880 C   0  0  0  0  0  2  0  0  0  0  0  0
  160.8290  209.1970  154.1000 C   0  0  0  0  0  0  0  0  0  0  0  0
  160.8590  209.1420  156.9750 C   0  0  0  0  0  2  0  0  0  0  0  0
  160.5470  207.8730  154.7410 C   0  0  0  0  0  2  0  0  0  0  0  0
  161.5620  211.5530  149.9880 O   0  0  0  0  0  0  0  0  0  0  0  0
  161.9620  211.2510  148.6840 C   0  0  1  0  0  3  0  0  0  0  0  0
  160.8430  211.4490  147.7770 N   0  0  0  0  0  1  0  0  0  0  0  0
  162.6290  213.2230  147.3180 C   0  0  0  0  0  1  0  0  0  0  0  0
  163.1130  212.1590  148.2850 C   0  0  0  0  0  2  0  0  0  0  0  0
  162.5520  208.3810  150.3560 O   0  0  0  0  0  0  0  0  0  0  0  0
  162.0350  207.1040  150.0700 C   0  0  1  0  0  3  0  0  0  0  0  0
  160.8210  206.8870  150.7330 O   0  0  0  0  0  1  0  0  0  0  0  0
  161.9230  206.8520  148.5880 C   0  0  0  0  0  0  0  0  0  0  0  0
  162.6100  207.4860  147.8020 O   0  0  0  0  0  0  0  0  0  0  0  0
  160.9630  205.8260  148.0550 C   0  0  0  0  0  2  0  0  0  0  0  0
  161.3780  204.3790  148.3310 C   0  0  1  0  0  3  0  0  0  0  0  0
  160.4800  203.7110  149.3700 C   0  0  0  0  0  2  0  0  0  0  0  0
  161.2900  202.8120  150.2920 C   0  0  0  0  0  3  0  0  0  0  0  0
  160.8290  201.3790  150.1250 C   0  0  0  0  0  1  0  0  0  0  0  0
  161.1050  203.2220  151.7410 C   0  0  0  0  0  1  0  0  0  0  0  0
  161.4470  203.5590  147.0480 C   0  0  0  0  0  2  0  0  0  0  0  0
  161.3660  204.6960  144.9540 O   0  0  0  0  0  0  0  0  0  0  0  0
  163.4390  204.7030  146.0020 N   0  0  0  0  0  1  0  0  0  0  0  0
  162.0610  204.3540  145.9460 C   0  0  0  0  0  0  0  0  0  0  0  0
  1 18  1  0  0  0  0
  1  2  1  0  0  0  0
  2 13  1  6  0  0  0
  3  2  1  6  0  0  0
  3  4  1  0  0  0  0
  3  6  1  0  0  0  0
  4  9  1  0  0  0  0
  5 11  1  0  0  0  0
  6 10  2  0  0  0  0
  7 11  1  0  0  0  0
  8  9  1  6  0  0  0
  8  7  1  0  0  0  0
 10 12  1  0  0  0  0
 10  8  1  0  0  0  0
 12  5  1  0  0  0  0
 14 15  1  6  0  0  0
 14 13  1  0  0  0  0
 16 17  1  0  0  0  0
 17 14  1  0  0  0  0
 19 18  1  0  0  0  0
 19 20  1  1  0  0  0
 21 19  1  0  0  0  0
 22 21  2  0  0  0  0
 23 24  1  0  0  0  0
 23 21  1  0  0  0  0
 24 29  1  6  0  0  0
 24 25  1  0  0  0  0
 25 26  1  0  0  0  0
 26 28  1  0  0  0  0
 27 26  1  0  0  0  0
 30 32  2  0  0  0  0
 32 31  1  0  0  0  0
 32 29  1  0  0  0  0
M  END
>  <MODEL>
9

>  <REMARK>
 VINA RESULT:      -6.4      2.931      8.762
  Name = 
  14 active torsions:
  status: ('A' for Active; 'I' for Inactive)
    1  A    between atoms: O_1  and  C_5
    2  A    between atoms: O_1  and  O_30
    3  A    between atoms: C_2  and  C_5
    4  A    between atoms: C_3  and  C_8
    5  A    between atoms: C_3  and  C_20
    6  A    between atoms: C_4  and  C_24
    7  A    between atoms: C_4  and  O_30
    8  A    between atoms: C_5  and  O_14
    9  A    between atoms: C_13  and  O_14
   10  A    between atoms: C_13  and  C_29
   11  A    between atoms: C_15  and  C_20
   12  A    between atoms: C_15  and  C_26
   13  A    between atoms: C_16  and  C_20
   14  A    between atoms: C_16  and  C_24
                            x       y       z     vdW  Elec       q    Type
                         _______ _______ _______ _____ _____    ______ ____

>  <TORSDO>
F 14

$$$$
