=
 OpenBabel11062408503D

 55 59  0  0  1  0  0  0  0  0999 V2000
  158.3650  213.2550  150.2310 C   0  0  0  0  0  2  0  0  0  0  0  0
  158.0870  213.2040  146.3980 C   0  0  0  0  0  2  0  0  0  0  0  0
  159.8330  212.2550  148.4260 C   0  0  1  0  0  3  0  0  0  0  0  0
  160.2230  212.3520  147.0770 O   0  0  0  0  0  0  0  0  0  0  0  0
  160.8960  212.9850  150.6630 C   0  0  2  0  0  3  0  0  0  0  0  0
  159.4680  212.8000  151.1960 C   0  0  1  0  0  3  0  0  0  0  0  0
  161.1990  214.3380  150.5040 O   0  0  0  0  0  1  0  0  0  0  0  0
  157.6420  213.3470  147.8510 C   0  0  0  0  0  2  0  0  0  0  0  0
  159.0900  212.0560  146.3010 C   0  0  0  0  0  2  0  0  0  0  0  0
  161.0850  212.2630  149.3240 C   0  0  1  0  0  3  0  0  0  0  0  0
  158.8490  213.3870  148.7870 C   0  0  1  0  0  3  0  0  0  0  0  0
  159.7030  214.4530  152.8850 O   0  0  0  0  0  0  0  0  0  0  0  0
  159.2860  213.2980  152.6020 C   0  0  0  0  0  0  0  0  0  0  0  0
  157.7820  210.3520  153.8330 O   0  0  0  0  0  0  0  0  0  0  0  0
  158.5710  212.5410  153.5970 N   0  0  0  0  0  0  0  0  0  0  0  0
  158.7780  211.1240  153.7610 C   0  0  0  0  0  0  0  0  0  0  0  0
  157.4070  212.6260  155.7600 C   0  0  0  0  0  3  0  0  0  0  0  0
  156.2820  212.8130  156.4550 C   0  0  0  0  0  3  0  0  0  0  0  0
  156.2230  213.3260  153.6490 C   0  0  0  0  0  2  0  0  0  0  0  0
  155.1370  213.8380  154.5560 C   0  0  0  0  0  3  0  0  0  0  0  0
  155.1530  213.5590  155.8630 C   0  0  0  0  0  3  0  0  0  0  0  0
  157.5640  213.2440  154.3930 C   0  0  2  0  0  3  0  0  0  0  0  0
  160.1400  210.5780  153.9370 C   0  0  0  0  0  0  0  0  0  0  0  0
  161.0870  211.3770  154.1720 O   0  0  0  0  0  0  0  0  0  0  0  0
  160.4140  208.8970  156.6020 Cl  0  0  0  0  0  0  0  0  0  0  0  0
  160.5290  208.5580  152.5470 C   0  0  0  0  0  3  0  0  0  0  0  0
  160.8310  207.2050  152.3910 C   0  0  0  0  0  3  0  0  0  0  0  0
  160.5970  208.3020  154.9590 C   0  0  0  0  0  0  0  0  0  0  0  0
  160.8920  206.9470  154.7940 C   0  0  0  0  0  3  0  0  0  0  0  0
  161.0310  206.3950  153.5130 C   0  0  0  0  0  0  0  0  0  0  0  0
  160.4140  209.1270  153.8240 C   0  0  0  0  0  0  0  0  0  0  0  0
  161.3150  204.9350  153.3400 C   0  0  1  0  0  3  0  0  0  0  0  0
  160.9380  204.4940  151.9970 C   0  0  0  0  0  2  0  0  0  0  0  0
  162.3520  204.7390  152.3110 N   0  0  0  0  0  2  0  0  0  0  0  0
  161.5160  210.9290  149.5520 O   0  0  0  0  0  0  0  0  0  0  0  0
  162.0340  210.1430  148.5240 C   0  0  0  0  0  0  0  0  0  0  0  0
  163.0300  210.5560  147.8740 O   0  0  0  0  0  0  0  0  0  0  0  0
  161.4420  208.9170  148.2110 O   0  0  0  0  0  0  0  0  0  0  0  0
  162.2020  207.7880  147.8070 C   0  0  1  0  0  3  0  0  0  0  0  0
  162.7880  207.6440  150.1460 O   0  0  0  0  0  1  0  0  0  0  0  0
  162.4500  206.8830  149.0200 C   0  0  1  0  0  3  0  0  0  0  0  0
  161.2400  206.0110  149.3110 C   0  0  0  0  0  2  0  0  0  0  0  0
  160.0950  206.8030  149.3920 O   0  0  0  0  0  1  0  0  0  0  0  0
  161.4640  207.0700  146.6820 C   0  0  0  0  0  2  0  0  0  0  0  0
  162.8100  205.8720  144.9780 C   0  0  0  0  0  1  0  0  0  0  0  0
  162.1310  205.7460  146.3320 C   0  0  2  0  0  3  0  0  0  0  0  0
  161.0920  204.6220  146.3070 C   0  0  1  0  0  3  0  0  0  0  0  0
  160.2270  204.7650  145.2130 O   0  0  0  0  0  1  0  0  0  0  0  0
  162.4340  203.1860  147.4610 O   0  0  0  0  0  1  0  0  0  0  0  0
  161.7330  203.2990  146.3060 N   0  0  0  0  0  0  0  0  0  0  0  0
  160.7260  202.2440  146.3060 C   0  0  0  0  0  2  0  0  0  0  0  0
  160.8710  201.4600  147.4510 O   0  0  0  0  0  0  0  0  0  0  0  0
  159.7420  201.7530  148.2180 C   0  0  0  0  0  2  0  0  0  0  0  0
  160.9350  201.3330  150.0230 C   0  0  0  0  0  1  0  0  0  0  0  0
  160.1360  202.3110  149.4340 O   0  0  0  0  0  0  0  0  0  0  0  0
  1  6  1  0  0  0  0
  2  8  1  0  0  0  0
  3  4  1  6  0  0  0
  3 11  1  0  0  0  0
  3 10  1  0  0  0  0
  5  7  1  6  0  0  0
  5  6  1  0  0  0  0
  6 13  1  1  0  0  0
  9  2  1  0  0  0  0
  9  4  1  0  0  0  0
 10 35  1  1  0  0  0
 10  5  1  0  0  0  0
 11  8  1  6  0  0  0
 11  1  1  0  0  0  0
 13 12  2  0  0  0  0
 13 15  1  0  0  0  0
 15 16  1  0  0  0  0
 16 14  2  0  0  0  0
 16 23  1  0  0  0  0
 17 18  2  0  0  0  0
 19 22  1  0  0  0  0
 19 20  1  0  0  0  0
 20 21  2  0  0  0  0
 21 18  1  0  0  0  0
 22 15  1  6  0  0  0
 22 17  1  0  0  0  0
 23 24  2  0  0  0  0
 26 31  1  0  0  0  0
 27 26  2  0  0  0  0
 27 30  1  0  0  0  0
 28 25  1  0  0  0  0
 29 28  1  0  0  0  0
 30 29  2  0  0  0  0
 31 23  1  0  0  0  0
 31 28  2  0  0  0  0
 32 30  1  6  0  0  0
 33 34  1  0  0  0  0
 33 32  1  0  0  0  0
 34 32  1  0  0  0  0
 36 35  1  0  0  0  0
 37 36  2  0  0  0  0
 38 36  1  0  0  0  0
 39 44  1  6  0  0  0
 39 38  1  0  0  0  0
 39 41  1  0  0  0  0
 41 42  1  0  0  0  0
 41 40  1  1  0  0  0
 42 43  1  0  0  0  0
 46 45  1  6  0  0  0
 46 44  1  0  0  0  0
 47 48  1  6  0  0  0
 47 46  1  0  0  0  0
 50 47  1  0  0  0  0
 50 49  1  0  0  0  0
 51 50  1  0  0  0  0
 51 52  1  0  0  0  0
 52 53  1  0  0  0  0
 53 55  1  0  0  0  0
 55 54  1  0  0  0  0
M  END
>  <MODEL>
1

>  <REMARK>
 VINA RESULT:      -3.0      0.000      0.000
  Name = 
  19 active torsions:
  status: ('A' for Active; 'I' for Inactive)
    1  A    between atoms: C_1  and  C_21
    2  A    between atoms: C_1  and  N_53
    3  A    between atoms: C_3  and  O_25
    4  A    between atoms: C_3  and  O_38
    5  A    between atoms: C_6  and  C_14
    6  A    between atoms: C_6  and  O_22
    7  A    between atoms: C_6  and  C_46
    8  A    between atoms: C_8  and  O_22
    9  A    between atoms: C_8  and  O_54
   10  A    between atoms: C_10  and  C_48
   11  A    between atoms: C_14  and  C_20
   12  A    between atoms: C_19  and  C_37
   13  A    between atoms: C_21  and  C_46
   14  A    between atoms: C_26  and  N_45
   15  A    between atoms: C_29  and  O_38
   16  A    between atoms: C_29  and  N_53
   17  A    between atoms: C_33  and  C_49
   18  A    between atoms: C_33  and  C_52
   19  A    between atoms: C_51  and  O_54
                            x       y       z     vdW  Elec       q    Type
                         _______ _______ _______ _____ _____    ______ ____

>  <TORSDO>
F 19

$$$$
=
 OpenBabel11062408503D

 55 59  0  0  1  0  0  0  0  0999 V2000
  159.8580  213.6500  148.5360 C   0  0  0  0  0  2  0  0  0  0  0  0
  159.8120  213.5960  144.6930 C   0  0  0  0  0  2  0  0  0  0  0  0
  160.4060  211.8450  146.8470 C   0  0  1  0  0  3  0  0  0  0  0  0
  160.8340  211.5950  145.5290 O   0  0  0  0  0  0  0  0  0  0  0  0
  161.5720  211.8200  149.1510 C   0  0  2  0  0  3  0  0  0  0  0  0
  160.3440  212.6370  149.5800 C   0  0  1  0  0  3  0  0  0  0  0  0
  162.6920  212.6390  149.0070 O   0  0  0  0  0  1  0  0  0  0  0  0
  159.4940  214.0690  146.1090 C   0  0  0  0  0  2  0  0  0  0  0  0
  159.8240  212.0700  144.6740 C   0  0  0  0  0  2  0  0  0  0  0  0
  161.3110  211.0820  147.8330 C   0  0  1  0  0  3  0  0  0  0  0  0
  160.3840  213.3610  147.1300 C   0  0  1  0  0  3  0  0  0  0  0  0
  161.0470  214.3100  151.1120 O   0  0  0  0  0  0  0  0  0  0  0  0
  160.4590  213.2050  150.9670 C   0  0  0  0  0  0  0  0  0  0  0  0
  158.8570  210.5130  152.5910 O   0  0  0  0  0  0  0  0  0  0  0  0
  159.8400  212.5790  152.1060 N   0  0  0  0  0  0  0  0  0  0  0  0
  159.9080  211.1540  152.3150 C   0  0  0  0  0  0  0  0  0  0  0  0
  159.1330  212.9250  154.4340 C   0  0  0  0  0  3  0  0  0  0  0  0
  158.1840  213.2670  155.3110 C   0  0  0  0  0  3  0  0  0  0  0  0
  157.6190  213.5880  152.5320 C   0  0  0  0  0  2  0  0  0  0  0  0
  156.7770  214.2640  153.5800 C   0  0  0  0  0  3  0  0  0  0  0  0
  157.0260  214.0760  154.8800 C   0  0  0  0  0  3  0  0  0  0  0  0
  159.0690  213.4290  153.0140 C   0  0  2  0  0  3  0  0  0  0  0  0
  161.2080  210.4530  152.2980 C   0  0  0  0  0  0  0  0  0  0  0  0
  162.2660  211.1380  152.2780 O   0  0  0  0  0  0  0  0  0  0  0  0
  160.3600  208.8810  154.9080 Cl  0  0  0  0  0  0  0  0  0  0  0  0
  161.7290  208.3330  151.1130 C   0  0  0  0  0  3  0  0  0  0  0  0
  161.8650  206.9460  151.0660 C   0  0  0  0  0  3  0  0  0  0  0  0
  160.9760  208.1880  153.4150 C   0  0  0  0  0  0  0  0  0  0  0  0
  161.1090  206.7990  153.3580 C   0  0  0  0  0  3  0  0  0  0  0  0
  161.5720  206.1710  152.1930 C   0  0  0  0  0  0  0  0  0  0  0  0
  161.2910  208.9740  152.2820 C   0  0  0  0  0  0  0  0  0  0  0  0
  161.6820  204.6800  152.1240 C   0  0  1  0  0  3  0  0  0  0  0  0
  160.9330  204.0590  153.2170 C   0  0  0  0  0  2  0  0  0  0  0  0
  160.3570  204.0860  151.8660 N   0  0  0  0  0  2  0  0  0  0  0  0
  160.7540  209.8030  148.0990 O   0  0  0  0  0  0  0  0  0  0  0  0
  161.5230  208.6430  148.0320 C   0  0  0  0  0  0  0  0  0  0  0  0
  162.7690  208.7360  147.8720 O   0  0  0  0  0  0  0  0  0  0  0  0
  160.9140  207.3890  148.1270 O   0  0  0  0  0  0  0  0  0  0  0  0
  161.2470  206.3150  147.2600 C   0  0  1  0  0  3  0  0  0  0  0  0
  161.9440  206.3570  144.9480 O   0  0  0  0  0  1  0  0  0  0  0  0
  160.9020  206.7020  145.8170 C   0  0  1  0  0  3  0  0  0  0  0  0
  159.6010  206.0550  145.3710 C   0  0  0  0  0  2  0  0  0  0  0  0
  159.8720  205.0120  144.4860 O   0  0  0  0  0  1  0  0  0  0  0  0
  162.7220  205.9730  147.4380 C   0  0  0  0  0  2  0  0  0  0  0  0
  163.8360  204.2370  146.0620 C   0  0  0  0  0  1  0  0  0  0  0  0
  162.9710  204.4780  147.2880 C   0  0  2  0  0  3  0  0  0  0  0  0
  161.6410  203.7320  147.1600 C   0  0  1  0  0  3  0  0  0  0  0  0
  161.5620  203.0590  145.9320 O   0  0  0  0  0  1  0  0  0  0  0  0
  160.5520  203.3910  149.1320 O   0  0  0  0  0  1  0  0  0  0  0  0
  161.4330  202.8080  148.2840 N   0  0  0  0  0  0  0  0  0  0  0  0
  160.8260  201.5660  147.8180 C   0  0  0  0  0  2  0  0  0  0  0  0
  161.8270  200.6690  147.4410 O   0  0  0  0  0  0  0  0  0  0  0  0
  161.1380  199.6070  146.8550 C   0  0  0  0  0  2  0  0  0  0  0  0
  161.3200  198.0050  145.3520 C   0  0  0  0  0  1  0  0  0  0  0  0
  161.6910  199.3240  145.6060 O   0  0  0  0  0  0  0  0  0  0  0  0
  1  6  1  0  0  0  0
  2  8  1  0  0  0  0
  3  4  1  6  0  0  0
  3 11  1  0  0  0  0
  3 10  1  0  0  0  0
  5  7  1  6  0  0  0
  5  6  1  0  0  0  0
  6 13  1  1  0  0  0
  9  2  1  0  0  0  0
  9  4  1  0  0  0  0
 10 35  1  1  0  0  0
 10  5  1  0  0  0  0
 11  8  1  6  0  0  0
 11  1  1  0  0  0  0
 13 12  2  0  0  0  0
 13 15  1  0  0  0  0
 15 16  1  0  0  0  0
 16 14  2  0  0  0  0
 17 18  2  0  0  0  0
 19 22  1  0  0  0  0
 19 20  1  0  0  0  0
 20 21  2  0  0  0  0
 21 18  1  0  0  0  0
 22 15  1  6  0  0  0
 22 17  1  0  0  0  0
 23 16  1  0  0  0  0
 24 23  2  0  0  0  0
 26 31  1  0  0  0  0
 27 26  2  0  0  0  0
 27 30  1  0  0  0  0
 28 25  1  0  0  0  0
 29 28  1  0  0  0  0
 30 29  2  0  0  0  0
 31 23  1  0  0  0  0
 31 28  2  0  0  0  0
 32 30  1  1  0  0  0
 32 33  1  0  0  0  0
 34 32  1  0  0  0  0
 34 33  1  0  0  0  0
 36 35  1  0  0  0  0
 36 38  1  0  0  0  0
 37 36  2  0  0  0  0
 39 44  1  6  0  0  0
 39 38  1  0  0  0  0
 41 40  1  6  0  0  0
 41 39  1  0  0  0  0
 42 41  1  0  0  0  0
 43 42  1  0  0  0  0
 46 45  1  6  0  0  0
 46 44  1  0  0  0  0
 47 48  1  6  0  0  0
 47 46  1  0  0  0  0
 47 50  1  0  0  0  0
 50 49  1  0  0  0  0
 51 50  1  0  0  0  0
 52 51  1  0  0  0  0
 53 52  1  0  0  0  0
 54 55  1  0  0  0  0
 55 53  1  0  0  0  0
M  END
>  <MODEL>
2

>  <REMARK>
 VINA RESULT:      -1.9      1.683      2.475
  Name = 
  19 active torsions:
  status: ('A' for Active; 'I' for Inactive)
    1  A    between atoms: C_1  and  C_21
    2  A    between atoms: C_1  and  N_53
    3  A    between atoms: C_3  and  O_25
    4  A    between atoms: C_3  and  O_38
    5  A    between atoms: C_6  and  C_14
    6  A    between atoms: C_6  and  O_22
    7  A    between atoms: C_6  and  C_46
    8  A    between atoms: C_8  and  O_22
    9  A    between atoms: C_8  and  O_54
   10  A    between atoms: C_10  and  C_48
   11  A    between atoms: C_14  and  C_20
   12  A    between atoms: C_19  and  C_37
   13  A    between atoms: C_21  and  C_46
   14  A    between atoms: C_26  and  N_45
   15  A    between atoms: C_29  and  O_38
   16  A    between atoms: C_29  and  N_53
   17  A    between atoms: C_33  and  C_49
   18  A    between atoms: C_33  and  C_52
   19  A    between atoms: C_51  and  O_54
                            x       y       z     vdW  Elec       q    Type
                         _______ _______ _______ _____ _____    ______ ____

>  <TORSDO>
F 19

$$$$
=
 OpenBabel11062408503D

 55 59  0  0  1  0  0  0  0  0999 V2000
  159.8940  210.9620  151.1920 C   0  0  0  0  0  2  0  0  0  0  0  0
  162.8020  210.0290  148.8570 C   0  0  0  0  0  2  0  0  0  0  0  0
  161.4550  208.9700  151.1210 C   0  0  1  0  0  3  0  0  0  0  0  0
  162.7270  208.5190  150.7180 O   0  0  0  0  0  0  0  0  0  0  0  0
  160.4410  209.7050  153.3790 C   0  0  2  0  0  3  0  0  0  0  0  0
  159.3610  210.3320  152.4850 C   0  0  1  0  0  3  0  0  0  0  0  0
  161.3080  210.6790  153.8750 O   0  0  0  0  0  1  0  0  0  0  0  0
  161.5360  210.7370  149.3350 C   0  0  0  0  0  2  0  0  0  0  0  0
  162.7540  208.5730  149.3150 C   0  0  0  0  0  2  0  0  0  0  0  0
  161.2480  208.6500  152.6140 C   0  0  1  0  0  3  0  0  0  0  0  0
  161.2950  210.4740  150.8200 C   0  0  1  0  0  3  0  0  0  0  0  0
  157.4160  210.6680  153.8050 O   0  0  0  0  0  0  0  0  0  0  0  0
  158.4000  211.2110  153.2350 C   0  0  0  0  0  0  0  0  0  0  0  0
  160.0220  214.2510  152.4710 O   0  0  0  0  0  0  0  0  0  0  0  0
  158.6220  212.6240  153.4000 N   0  0  0  0  0  0  0  0  0  0  0  0
  159.0580  213.4540  152.3050 C   0  0  0  0  0  0  0  0  0  0  0  0
  158.4630  212.1100  155.7980 C   0  0  0  0  0  3  0  0  0  0  0  0
  157.9070  212.3390  156.9910 C   0  0  0  0  0  3  0  0  0  0  0  0
  157.2090  214.0680  154.8310 C   0  0  0  0  0  2  0  0  0  0  0  0
  156.9230  214.4520  156.2580 C   0  0  0  0  0  3  0  0  0  0  0  0
  157.2190  213.6180  157.2600 C   0  0  0  0  0  3  0  0  0  0  0  0
  158.4620  213.1860  154.7420 C   0  0  2  0  0  3  0  0  0  0  0  0
  158.3310  213.4450  151.0190 C   0  0  0  0  0  0  0  0  0  0  0  0
  157.0960  213.1890  151.0230 O   0  0  0  0  0  0  0  0  0  0  0  0
  156.5970  213.5110  148.3750 Cl  0  0  0  0  0  0  0  0  0  0  0  0
  160.4080  213.9260  149.7450 C   0  0  0  0  0  3  0  0  0  0  0  0
  161.1080  214.1330  148.5570 C   0  0  0  0  0  3  0  0  0  0  0  0
  158.3380  213.7120  148.4970 C   0  0  0  0  0  0  0  0  0  0  0  0
  159.0450  213.9270  147.3120 C   0  0  0  0  0  3  0  0  0  0  0  0
  160.4340  214.1180  147.3310 C   0  0  0  0  0  0  0  0  0  0  0  0
  159.0220  213.7080  149.7350 C   0  0  0  0  0  0  0  0  0  0  0  0
  161.1840  214.3810  146.0630 C   0  0  1  0  0  3  0  0  0  0  0  0
  162.3840  213.5470  145.9930 C   0  0  0  0  0  2  0  0  0  0  0  0
  161.1940  213.1710  145.2190 N   0  0  0  0  0  2  0  0  0  0  0  0
  160.6270  207.3790  152.7470 O   0  0  0  0  0  0  0  0  0  0  0  0
  161.3760  206.2140  152.9030 C   0  0  0  0  0  0  0  0  0  0  0  0
  162.5430  206.2880  153.3690 O   0  0  0  0  0  0  0  0  0  0  0  0
  160.8390  204.9780  152.5310 O   0  0  0  0  0  0  0  0  0  0  0  0
  160.5810  204.6400  151.1760 C   0  0  1  0  0  3  0  0  0  0  0  0
  162.6130  205.3580  150.0870 O   0  0  0  0  0  1  0  0  0  0  0  0
  161.2580  205.6650  150.2590 C   0  0  1  0  0  3  0  0  0  0  0  0
  160.5560  205.7470  148.9140 C   0  0  0  0  0  2  0  0  0  0  0  0
  160.1500  207.0590  148.6720 O   0  0  0  0  0  1  0  0  0  0  0  0
  161.0630  203.2160  150.9200 C   0  0  0  0  0  2  0  0  0  0  0  0
  159.2740  201.8530  149.8770 C   0  0  0  0  0  1  0  0  0  0  0  0
  160.5250  202.6720  149.6040 C   0  0  2  0  0  3  0  0  0  0  0  0
  161.5860  201.8120  148.9130 C   0  0  1  0  0  3  0  0  0  0  0  0
  161.3720  200.4500  149.1720 O   0  0  0  0  0  1  0  0  0  0  0  0
  160.4580  201.6580  146.9400 O   0  0  0  0  0  1  0  0  0  0  0  0
  161.6340  202.0760  147.4680 N   0  0  0  0  0  0  0  0  0  0  0  0
  161.7380  203.5080  147.2130 C   0  0  0  0  0  2  0  0  0  0  0  0
  161.1060  203.8150  146.0070 O   0  0  0  0  0  0  0  0  0  0  0  0
  162.1000  204.4240  145.2400 C   0  0  0  0  0  2  0  0  0  0  0  0
  160.7140  206.1300  145.3940 C   0  0  0  0  0  1  0  0  0  0  0  0
  162.0680  205.8030  145.4430 O   0  0  0  0  0  0  0  0  0  0  0  0
  1  6  1  0  0  0  0
  2  9  1  0  0  0  0
  2  8  1  0  0  0  0
  3  4  1  1  0  0  0
  3 10  1  0  0  0  0
  5  7  1  6  0  0  0
  6 13  1  1  0  0  0
  6  5  1  0  0  0  0
  9  4  1  0  0  0  0
 10 35  1  6  0  0  0
 10  5  1  0  0  0  0
 11  8  1  6  0  0  0
 11  3  1  0  0  0  0
 11  1  1  0  0  0  0
 13 15  1  0  0  0  0
 13 12  2  0  0  0  0
 16 14  2  0  0  0  0
 16 15  1  0  0  0  0
 17 18  2  0  0  0  0
 18 21  1  0  0  0  0
 19 20  1  0  0  0  0
 20 21  2  0  0  0  0
 22 15  1  6  0  0  0
 22 19  1  0  0  0  0
 22 17  1  0  0  0  0
 23 24  2  0  0  0  0
 23 16  1  0  0  0  0
 25 28  1  0  0  0  0
 27 26  2  0  0  0  0
 28 31  2  0  0  0  0
 29 30  2  0  0  0  0
 29 28  1  0  0  0  0
 30 27  1  0  0  0  0
 31 26  1  0  0  0  0
 31 23  1  0  0  0  0
 32 30  1  1  0  0  0
 33 32  1  0  0  0  0
 34 33  1  0  0  0  0
 34 32  1  0  0  0  0
 35 36  1  0  0  0  0
 36 37  2  0  0  0  0
 38 36  1  0  0  0  0
 39 44  1  6  0  0  0
 39 38  1  0  0  0  0
 41 40  1  6  0  0  0
 41 39  1  0  0  0  0
 42 41  1  0  0  0  0
 43 42  1  0  0  0  0
 46 45  1  1  0  0  0
 46 44  1  0  0  0  0
 47 48  1  6  0  0  0
 47 46  1  0  0  0  0
 49 50  1  0  0  0  0
 50 47  1  0  0  0  0
 51 50  1  0  0  0  0
 52 51  1  0  0  0  0
 53 55  1  0  0  0  0
 53 52  1  0  0  0  0
 54 55  1  0  0  0  0
M  END
>  <MODEL>
3

>  <REMARK>
 VINA RESULT:      -1.9      2.500      5.631
  Name = 
  19 active torsions:
  status: ('A' for Active; 'I' for Inactive)
    1  A    between atoms: C_1  and  C_21
    2  A    between atoms: C_1  and  N_53
    3  A    between atoms: C_3  and  O_25
    4  A    between atoms: C_3  and  O_38
    5  A    between atoms: C_6  and  C_14
    6  A    between atoms: C_6  and  O_22
    7  A    between atoms: C_6  and  C_46
    8  A    between atoms: C_8  and  O_22
    9  A    between atoms: C_8  and  O_54
   10  A    between atoms: C_10  and  C_48
   11  A    between atoms: C_14  and  C_20
   12  A    between atoms: C_19  and  C_37
   13  A    between atoms: C_21  and  C_46
   14  A    between atoms: C_26  and  N_45
   15  A    between atoms: C_29  and  O_38
   16  A    between atoms: C_29  and  N_53
   17  A    between atoms: C_33  and  C_49
   18  A    between atoms: C_33  and  C_52
   19  A    between atoms: C_51  and  O_54
                            x       y       z     vdW  Elec       q    Type
                         _______ _______ _______ _____ _____    ______ ____

>  <TORSDO>
F 19

$$$$
=
 OpenBabel11062408503D

 55 59  0  0  1  0  0  0  0  0999 V2000
  162.5700  205.5700  149.4040 C   0  0  0  0  0  2  0  0  0  0  0  0
  162.2530  204.4550  145.7390 C   0  0  0  0  0  2  0  0  0  0  0  0
  162.0310  206.8320  147.2760 C   0  0  1  0  0  3  0  0  0  0  0  0
  161.5040  206.7210  145.9750 O   0  0  0  0  0  0  0  0  0  0  0  0
  161.0980  207.6880  149.5260 C   0  0  2  0  0  3  0  0  0  0  0  0
  162.2800  206.9010  150.1110 C   0  0  1  0  0  3  0  0  0  0  0  0
  159.8980  207.0000  149.7140 O   0  0  0  0  0  1  0  0  0  0  0  0
  162.6600  204.3990  147.2100 C   0  0  0  0  0  2  0  0  0  0  0  0
  162.3790  205.8960  145.2480 C   0  0  0  0  0  2  0  0  0  0  0  0
  161.2980  207.9580  148.0300 C   0  0  1  0  0  3  0  0  0  0  0  0
  161.9400  205.4810  148.0130 C   0  0  1  0  0  3  0  0  0  0  0  0
  163.1700  207.3470  152.2660 O   0  0  0  0  0  0  0  0  0  0  0  0
  162.2470  206.7960  151.6090 C   0  0  0  0  0  0  0  0  0  0  0  0
  159.3300  204.8170  151.7660 O   0  0  0  0  0  0  0  0  0  0  0  0
  161.1530  206.1760  152.3100 N   0  0  0  0  0  0  0  0  0  0  0  0
  160.5820  204.9280  151.8690 C   0  0  0  0  0  0  0  0  0  0  0  0
  160.6710  208.3880  153.2680 C   0  0  0  0  0  3  0  0  0  0  0  0
  160.6240  209.1980  154.3290 C   0  0  0  0  0  3  0  0  0  0  0  0
  161.2250  206.4440  154.7710 C   0  0  0  0  0  2  0  0  0  0  0  0
  160.8060  207.3400  155.9050 C   0  0  0  0  0  3  0  0  0  0  0  0
  160.5640  208.6370  155.6940 C   0  0  0  0  0  3  0  0  0  0  0  0
  160.5820  206.8940  153.4510 C   0  0  2  0  0  3  0  0  0  0  0  0
  161.4440  203.7530  151.6240 C   0  0  0  0  0  0  0  0  0  0  0  0
  162.4380  203.5630  152.3750 O   0  0  0  0  0  0  0  0  0  0  0  0
  162.7300  200.8670  151.7590 Cl  0  0  0  0  0  0  0  0  0  0  0  0
  160.3590  203.2370  149.4500 C   0  0  0  0  0  3  0  0  0  0  0  0
  160.1150  202.4040  148.3580 C   0  0  0  0  0  3  0  0  0  0  0  0
  161.7440  201.5200  150.4600 C   0  0  0  0  0  0  0  0  0  0  0  0
  161.4890  200.6890  149.3660 C   0  0  0  0  0  3  0  0  0  0  0  0
  160.6920  201.1320  148.3010 C   0  0  0  0  0  0  0  0  0  0  0  0
  161.1760  202.8150  150.5090 C   0  0  0  0  0  0  0  0  0  0  0  0
  160.3950  200.2270  147.1460 C   0  0  1  0  0  3  0  0  0  0  0  0
  160.7890  200.8570  145.8860 C   0  0  0  0  0  2  0  0  0  0  0  0
  161.6480  199.8240  146.4820 N   0  0  0  0  0  2  0  0  0  0  0  0
  161.9940  209.1830  147.8510 O   0  0  0  0  0  0  0  0  0  0  0  0
  161.8200  210.2560  148.7240 C   0  0  0  0  0  0  0  0  0  0  0  0
  162.1460  210.1270  149.9330 O   0  0  0  0  0  0  0  0  0  0  0  0
  161.2750  211.4560  148.2610 O   0  0  0  0  0  0  0  0  0  0  0  0
  161.8450  212.7190  148.5720 C   0  0  1  0  0  3  0  0  0  0  0  0
  163.9220  212.2740  147.4210 O   0  0  0  0  0  1  0  0  0  0  0  0
  162.8120  213.1270  147.4540 C   0  0  1  0  0  3  0  0  0  0  0  0
  162.1150  213.1450  146.1040 C   0  0  0  0  0  2  0  0  0  0  0  0
  162.6460  214.1620  145.3110 O   0  0  0  0  0  1  0  0  0  0  0  0
  160.7240  213.7330  148.7760 C   0  0  0  0  0  2  0  0  0  0  0  0
  158.3040  213.3310  148.4130 C   0  0  0  0  0  1  0  0  0  0  0  0
  159.4750  213.0770  149.3480 C   0  0  2  0  0  3  0  0  0  0  0  0
  159.1770  213.6350  150.7420 C   0  0  1  0  0  3  0  0  0  0  0  0
  158.0360  214.4510  150.7210 O   0  0  0  0  0  1  0  0  0  0  0  0
  160.2520  211.9660  151.8600 O   0  0  0  0  0  1  0  0  0  0  0  0
  159.0400  212.5590  151.7340 N   0  0  0  0  0  0  0  0  0  0  0  0
  158.6890  213.1080  153.0390 C   0  0  0  0  0  2  0  0  0  0  0  0
  157.4490  212.6100  153.4380 O   0  0  0  0  0  0  0  0  0  0  0  0
  157.7520  211.6740  154.4270 C   0  0  0  0  0  2  0  0  0  0  0  0
  158.5660  211.6780  156.4760 C   0  0  0  0  0  1  0  0  0  0  0  0
  158.8320  212.1280  155.1840 O   0  0  0  0  0  0  0  0  0  0  0  0
  1  6  1  0  0  0  0
  2  8  1  0  0  0  0
  3  4  1  6  0  0  0
  3 11  1  0  0  0  0
  3 10  1  0  0  0  0
  5  7  1  6  0  0  0
  5  6  1  0  0  0  0
  6 13  1  1  0  0  0
  9  2  1  0  0  0  0
  9  4  1  0  0  0  0
 10 35  1  1  0  0  0
 10  5  1  0  0  0  0
 11  8  1  6  0  0  0
 11  1  1  0  0  0  0
 13 12  2  0  0  0  0
 13 15  1  0  0  0  0
 14 16  2  0  0  0  0
 16 15  1  0  0  0  0
 17 22  1  0  0  0  0
 17 18  2  0  0  0  0
 18 21  1  0  0  0  0
 19 20  1  0  0  0  0
 21 20  2  0  0  0  0
 22 15  1  6  0  0  0
 22 19  1  0  0  0  0
 23 16  1  0  0  0  0
 23 24  2  0  0  0  0
 26 31  1  0  0  0  0
 27 26  2  0  0  0  0
 28 31  2  0  0  0  0
 28 25  1  0  0  0  0
 29 28  1  0  0  0  0
 30 27  1  0  0  0  0
 30 29  2  0  0  0  0
 31 23  1  0  0  0  0
 32 30  1  1  0  0  0
 33 34  1  0  0  0  0
 33 32  1  0  0  0  0
 34 32  1  0  0  0  0
 35 36  1  0  0  0  0
 36 37  2  0  0  0  0
 38 39  1  0  0  0  0
 38 36  1  0  0  0  0
 39 44  1  6  0  0  0
 41 40  1  6  0  0  0
 41 39  1  0  0  0  0
 42 41  1  0  0  0  0
 43 42  1  0  0  0  0
 44 46  1  0  0  0  0
 46 45  1  6  0  0  0
 46 47  1  0  0  0  0
 47 48  1  6  0  0  0
 47 50  1  0  0  0  0
 50 49  1  0  0  0  0
 50 51  1  0  0  0  0
 51 52  1  0  0  0  0
 52 53  1  0  0  0  0
 53 55  1  0  0  0  0
 55 54  1  0  0  0  0
M  END
>  <MODEL>
4

>  <REMARK>
 VINA RESULT:      -1.0      2.344      8.067
  Name = 
  19 active torsions:
  status: ('A' for Active; 'I' for Inactive)
    1  A    between atoms: C_1  and  C_21
    2  A    between atoms: C_1  and  N_53
    3  A    between atoms: C_3  and  O_25
    4  A    between atoms: C_3  and  O_38
    5  A    between atoms: C_6  and  C_14
    6  A    between atoms: C_6  and  O_22
    7  A    between atoms: C_6  and  C_46
    8  A    between atoms: C_8  and  O_22
    9  A    between atoms: C_8  and  O_54
   10  A    between atoms: C_10  and  C_48
   11  A    between atoms: C_14  and  C_20
   12  A    between atoms: C_19  and  C_37
   13  A    between atoms: C_21  and  C_46
   14  A    between atoms: C_26  and  N_45
   15  A    between atoms: C_29  and  O_38
   16  A    between atoms: C_29  and  N_53
   17  A    between atoms: C_33  and  C_49
   18  A    between atoms: C_33  and  C_52
   19  A    between atoms: C_51  and  O_54
                            x       y       z     vdW  Elec       q    Type
                         _______ _______ _______ _____ _____    ______ ____

>  <TORSDO>
F 19

$$$$
=
 OpenBabel11062408503D

 55 59  0  0  1  0  0  0  0  0999 V2000
  162.5460  205.5710  149.4330 C   0  0  0  0  0  2  0  0  0  0  0  0
  162.2210  204.4820  145.7610 C   0  0  0  0  0  2  0  0  0  0  0  0
  162.1160  206.8660  147.3000 C   0  0  1  0  0  3  0  0  0  0  0  0
  161.6040  206.7880  145.9910 O   0  0  0  0  0  0  0  0  0  0  0  0
  161.2010  207.7720  149.5380 C   0  0  2  0  0  3  0  0  0  0  0  0
  162.3250  206.9150  150.1390 C   0  0  1  0  0  3  0  0  0  0  0  0
  159.9590  207.1560  149.7060 O   0  0  0  0  0  1  0  0  0  0  0  0
  162.6010  204.4000  147.2380 C   0  0  0  0  0  2  0  0  0  0  0  0
  162.4400  205.9130  145.2760 C   0  0  0  0  0  2  0  0  0  0  0  0
  161.4400  208.0310  148.0460 C   0  0  1  0  0  3  0  0  0  0  0  0
  161.9340  205.5210  148.0330 C   0  0  1  0  0  3  0  0  0  0  0  0
  163.1760  207.3550  152.3110 O   0  0  0  0  0  0  0  0  0  0  0  0
  162.2620  206.8100  151.6360 C   0  0  0  0  0  0  0  0  0  0  0  0
  159.3320  204.8450  151.7350 O   0  0  0  0  0  0  0  0  0  0  0  0
  161.1510  206.1960  152.3160 N   0  0  0  0  0  0  0  0  0  0  0  0
  160.5830  204.9500  151.8620 C   0  0  0  0  0  0  0  0  0  0  0  0
  160.7190  208.4080  153.2960 C   0  0  0  0  0  3  0  0  0  0  0  0
  160.6610  209.2000  154.3700 C   0  0  0  0  0  3  0  0  0  0  0  0
  161.1300  206.4160  154.7820 C   0  0  0  0  0  2  0  0  0  0  0  0
  160.7000  207.3080  155.9150 C   0  0  0  0  0  3  0  0  0  0  0  0
  160.5210  208.6180  155.7200 C   0  0  0  0  0  3  0  0  0  0  0  0
  160.5620  206.9160  153.4460 C   0  0  2  0  0  3  0  0  0  0  0  0
  161.4430  203.7710  151.6340 C   0  0  0  0  0  0  0  0  0  0  0  0
  162.4320  203.5850  152.3930 O   0  0  0  0  0  0  0  0  0  0  0  0
  162.6940  200.8720  151.8180 Cl  0  0  0  0  0  0  0  0  0  0  0  0
  160.3820  203.2430  149.4510 C   0  0  0  0  0  3  0  0  0  0  0  0
  160.1440  202.4010  148.3650 C   0  0  0  0  0  3  0  0  0  0  0  0
  161.7330  201.5210  150.4990 C   0  0  0  0  0  0  0  0  0  0  0  0
  161.4850  200.6820  149.4110 C   0  0  0  0  0  3  0  0  0  0  0  0
  160.7080  201.1210  148.3300 C   0  0  0  0  0  0  0  0  0  0  0  0
  161.1800  202.8230  150.5260 C   0  0  0  0  0  0  0  0  0  0  0  0
  160.4160  200.2070  147.1810 C   0  0  1  0  0  3  0  0  0  0  0  0
  160.7740  200.8450  145.9140 C   0  0  0  0  0  2  0  0  0  0  0  0
  161.6680  199.8360  146.4970 N   0  0  0  0  0  2  0  0  0  0  0  0
  162.2090  209.2140  147.8800 O   0  0  0  0  0  0  0  0  0  0  0  0
  161.8000  210.4330  148.4180 C   0  0  0  0  0  0  0  0  0  0  0  0
  162.3330  210.8490  149.4800 O   0  0  0  0  0  0  0  0  0  0  0  0
  160.7960  211.1750  147.7910 O   0  0  0  0  0  0  0  0  0  0  0  0
  160.8950  212.5790  147.6030 C   0  0  1  0  0  3  0  0  0  0  0  0
  162.1840  214.2830  148.7300 O   0  0  0  0  0  1  0  0  0  0  0  0
  161.2670  213.2440  148.9330 C   0  0  1  0  0  3  0  0  0  0  0  0
  160.0330  213.7580  149.6560 C   0  0  0  0  0  2  0  0  0  0  0  0
  159.7730  212.9630  150.7720 O   0  0  0  0  0  1  0  0  0  0  0  0
  161.9110  212.8620  146.5020 C   0  0  0  0  0  2  0  0  0  0  0  0
  159.9880  214.2430  145.7620 C   0  0  0  0  0  1  0  0  0  0  0  0
  161.2640  213.5510  145.3090 C   0  0  2  0  0  3  0  0  0  0  0  0
  160.9560  212.5290  144.2110 C   0  0  1  0  0  3  0  0  0  0  0  0
  159.5720  212.4010  144.0200 O   0  0  0  0  0  1  0  0  0  0  0  0
  162.9520  213.0260  143.2300 O   0  0  0  0  0  1  0  0  0  0  0  0
  161.6340  212.8720  142.9530 N   0  0  0  0  0  0  0  0  0  0  0  0
  161.5190  211.7770  141.9960 C   0  0  0  0  0  2  0  0  0  0  0  0
  162.3040  212.0520  140.8750 O   0  0  0  0  0  0  0  0  0  0  0  0
  162.3410  210.8450  140.1740 C   0  0  0  0  0  2  0  0  0  0  0  0
  160.9960  209.6530  138.8990 C   0  0  0  0  0  1  0  0  0  0  0  0
  161.0640  210.2870  140.1380 O   0  0  0  0  0  0  0  0  0  0  0  0
  1  6  1  0  0  0  0
  2  8  1  0  0  0  0
  3  4  1  6  0  0  0
  3 11  1  0  0  0  0
  3 10  1  0  0  0  0
  5  7  1  6  0  0  0
  5  6  1  0  0  0  0
  6 13  1  1  0  0  0
  9  2  1  0  0  0  0
  9  4  1  0  0  0  0
 10 35  1  1  0  0  0
 10  5  1  0  0  0  0
 11  8  1  6  0  0  0
 11  1  1  0  0  0  0
 13 12  2  0  0  0  0
 13 15  1  0  0  0  0
 14 16  2  0  0  0  0
 16 15  1  0  0  0  0
 17 22  1  0  0  0  0
 17 18  2  0  0  0  0
 18 21  1  0  0  0  0
 19 20  1  0  0  0  0
 21 20  2  0  0  0  0
 22 15  1  6  0  0  0
 22 19  1  0  0  0  0
 23 16  1  0  0  0  0
 23 24  2  0  0  0  0
 26 31  1  0  0  0  0
 27 26  2  0  0  0  0
 28 31  2  0  0  0  0
 28 25  1  0  0  0  0
 29 28  1  0  0  0  0
 30 27  1  0  0  0  0
 30 29  2  0  0  0  0
 31 23  1  0  0  0  0
 32 30  1  1  0  0  0
 33 34  1  0  0  0  0
 33 32  1  0  0  0  0
 34 32  1  0  0  0  0
 35 36  1  0  0  0  0
 36 37  2  0  0  0  0
 38 36  1  0  0  0  0
 39 44  1  6  0  0  0
 39 38  1  0  0  0  0
 39 41  1  0  0  0  0
 41 40  1  6  0  0  0
 41 42  1  0  0  0  0
 42 43  1  0  0  0  0
 46 45  1  1  0  0  0
 46 44  1  0  0  0  0
 47 48  1  6  0  0  0
 47 46  1  0  0  0  0
 50 49  1  0  0  0  0
 50 47  1  0  0  0  0
 51 50  1  0  0  0  0
 52 51  1  0  0  0  0
 53 52  1  0  0  0  0
 54 55  1  0  0  0  0
 55 53  1  0  0  0  0
M  END
>  <MODEL>
5

>  <REMARK>
 VINA RESULT:      -0.9      3.274      7.860
  Name = 
  19 active torsions:
  status: ('A' for Active; 'I' for Inactive)
    1  A    between atoms: C_1  and  C_21
    2  A    between atoms: C_1  and  N_53
    3  A    between atoms: C_3  and  O_25
    4  A    between atoms: C_3  and  O_38
    5  A    between atoms: C_6  and  C_14
    6  A    between atoms: C_6  and  O_22
    7  A    between atoms: C_6  and  C_46
    8  A    between atoms: C_8  and  O_22
    9  A    between atoms: C_8  and  O_54
   10  A    between atoms: C_10  and  C_48
   11  A    between atoms: C_14  and  C_20
   12  A    between atoms: C_19  and  C_37
   13  A    between atoms: C_21  and  C_46
   14  A    between atoms: C_26  and  N_45
   15  A    between atoms: C_29  and  O_38
   16  A    between atoms: C_29  and  N_53
   17  A    between atoms: C_33  and  C_49
   18  A    between atoms: C_33  and  C_52
   19  A    between atoms: C_51  and  O_54
                            x       y       z     vdW  Elec       q    Type
                         _______ _______ _______ _____ _____    ______ ____

>  <TORSDO>
F 19

$$$$
=
 OpenBabel11062408503D

 55 59  0  0  1  0  0  0  0  0999 V2000
  161.2270  207.4040  154.0180 C   0  0  0  0  0  2  0  0  0  0  0  0
  160.9930  210.1210  156.7270 C   0  0  0  0  0  2  0  0  0  0  0  0
  160.7980  209.8970  153.9040 C   0  0  1  0  0  3  0  0  0  0  0  0
  161.0030  211.1300  154.5520 O   0  0  0  0  0  0  0  0  0  0  0  0
  161.9170  208.7110  151.9010 C   0  0  2  0  0  3  0  0  0  0  0  0
  161.2310  207.4680  152.4850 C   0  0  1  0  0  3  0  0  0  0  0  0
  163.2830  208.7100  152.1890 O   0  0  0  0  0  1  0  0  0  0  0  0
  160.9940  208.7220  156.1170 C   0  0  0  0  0  2  0  0  0  0  0  0
  160.2940  211.0780  155.7640 C   0  0  0  0  0  2  0  0  0  0  0  0
  161.2860  209.9980  152.4460 C   0  0  1  0  0  3  0  0  0  0  0  0
  161.4960  208.7590  154.6750 C   0  0  1  0  0  3  0  0  0  0  0  0
  162.7680  205.6890  152.1530 O   0  0  0  0  0  0  0  0  0  0  0  0
  161.6570  206.1860  151.8270 C   0  0  0  0  0  0  0  0  0  0  0  0
  158.8250  205.8920  149.7440 O   0  0  0  0  0  0  0  0  0  0  0  0
  160.8010  205.4680  150.9200 N   0  0  0  0  0  0  0  0  0  0  0  0
  160.0520  206.1460  149.8910 C   0  0  0  0  0  0  0  0  0  0  0  0
  161.8950  203.4180  151.7210 C   0  0  0  0  0  3  0  0  0  0  0  0
  162.1400  202.1120  151.5790 C   0  0  0  0  0  3  0  0  0  0  0  0
  160.2460  203.3200  149.8190 C   0  0  0  0  0  2  0  0  0  0  0  0
  160.3210  201.8250  149.9740 C   0  0  0  0  0  3  0  0  0  0  0  0
  161.2370  201.2680  150.7710 C   0  0  0  0  0  3  0  0  0  0  0  0
  160.6520  204.0250  151.1220 C   0  0  2  0  0  3  0  0  0  0  0  0
  160.7270  207.0640  148.9520 C   0  0  0  0  0  0  0  0  0  0  0  0
  160.9420  208.2520  149.3150 O   0  0  0  0  0  0  0  0  0  0  0  0
  163.7480  206.2520  148.4860 Cl  0  0  0  0  0  0  0  0  0  0  0  0
  160.1650  206.5780  146.5820 C   0  0  0  0  0  3  0  0  0  0  0  0
  160.5090  206.2140  145.2800 C   0  0  0  0  0  3  0  0  0  0  0  0
  162.4700  206.2860  147.2810 C   0  0  0  0  0  0  0  0  0  0  0  0
  162.8050  205.9160  145.9770 C   0  0  0  0  0  3  0  0  0  0  0  0
  161.8350  205.8970  144.9660 C   0  0  0  0  0  0  0  0  0  0  0  0
  161.1320  206.6260  147.5960 C   0  0  0  0  0  0  0  0  0  0  0  0
  162.1910  205.4690  143.5770 C   0  0  1  0  0  3  0  0  0  0  0  0
  160.9950  205.0490  142.8460 C   0  0  0  0  0  2  0  0  0  0  0  0
  161.5720  206.3750  142.5920 N   0  0  0  0  0  2  0  0  0  0  0  0
  160.2100  210.3980  151.6100 O   0  0  0  0  0  0  0  0  0  0  0  0
  159.3210  211.4000  151.9940 C   0  0  0  0  0  0  0  0  0  0  0  0
  158.2170  211.0820  152.5100 O   0  0  0  0  0  0  0  0  0  0  0  0
  159.6460  212.7440  151.7910 O   0  0  0  0  0  0  0  0  0  0  0  0
  159.1930  213.4730  150.6600 C   0  0  1  0  0  3  0  0  0  0  0  0
  156.9650  214.3250  150.2770 O   0  0  0  0  0  1  0  0  0  0  0  0
  158.0950  214.4510  151.0950 C   0  0  1  0  0  3  0  0  0  0  0  0
  157.7220  214.2450  152.5530 C   0  0  0  0  0  2  0  0  0  0  0  0
  156.4400  213.7030  152.6410 O   0  0  0  0  0  1  0  0  0  0  0  0
  160.3820  214.1760  150.0140 C   0  0  0  0  0  2  0  0  0  0  0  0
  159.4460  212.8580  148.1350 C   0  0  0  0  0  1  0  0  0  0  0  0
  160.6570  213.6380  148.6170 C   0  0  2  0  0  3  0  0  0  0  0  0
  161.8990  212.7420  148.6320 C   0  0  1  0  0  3  0  0  0  0  0  0
  161.5500  211.4000  148.4160 O   0  0  0  0  0  1  0  0  0  0  0  0
  163.7870  212.1830  147.4850 O   0  0  0  0  0  1  0  0  0  0  0  0
  162.8980  213.1930  147.6530 N   0  0  0  0  0  0  0  0  0  0  0  0
  162.2720  213.4370  146.3590 C   0  0  0  0  0  2  0  0  0  0  0  0
  163.1070  212.9760  145.3400 O   0  0  0  0  0  0  0  0  0  0  0  0
  162.5720  213.5280  144.1760 C   0  0  0  0  0  2  0  0  0  0  0  0
  161.4360  212.7500  142.4550 C   0  0  0  0  0  1  0  0  0  0  0  0
  162.6380  212.5940  143.1430 O   0  0  0  0  0  0  0  0  0  0  0  0
  3  4  1  1  0  0  0
  3 11  1  0  0  0  0
  4  9  1  0  0  0  0
  5  7  1  1  0  0  0
  5 10  1  0  0  0  0
  5  6  1  0  0  0  0
  6 13  1  6  0  0  0
  6  1  1  0  0  0  0
  8  2  1  0  0  0  0
  9  2  1  0  0  0  0
 10 35  1  6  0  0  0
 10  3  1  0  0  0  0
 11  1  1  6  0  0  0
 11  8  1  0  0  0  0
 13 12  2  0  0  0  0
 14 16  2  0  0  0  0
 15 13  1  0  0  0  0
 16 15  1  0  0  0  0
 18 17  2  0  0  0  0
 19 20  1  0  0  0  0
 19 22  1  0  0  0  0
 20 21  2  0  0  0  0
 21 18  1  0  0  0  0
 22 15  1  6  0  0  0
 22 17  1  0  0  0  0
 23 24  2  0  0  0  0
 23 16  1  0  0  0  0
 26 31  1  0  0  0  0
 27 26  2  0  0  0  0
 28 31  2  0  0  0  0
 28 25  1  0  0  0  0
 29 28  1  0  0  0  0
 30 27  1  0  0  0  0
 30 29  2  0  0  0  0
 31 23  1  0  0  0  0
 32 30  1  1  0  0  0
 33 32  1  0  0  0  0
 34 33  1  0  0  0  0
 34 32  1  0  0  0  0
 35 36  1  0  0  0  0
 36 37  2  0  0  0  0
 38 36  1  0  0  0  0
 39 44  1  1  0  0  0
 39 41  1  0  0  0  0
 39 38  1  0  0  0  0
 41 40  1  6  0  0  0
 41 42  1  0  0  0  0
 42 43  1  0  0  0  0
 46 45  1  1  0  0  0
 46 47  1  0  0  0  0
 46 44  1  0  0  0  0
 47 48  1  6  0  0  0
 49 50  1  0  0  0  0
 50 47  1  0  0  0  0
 51 50  1  0  0  0  0
 52 51  1  0  0  0  0
 53 52  1  0  0  0  0
 54 55  1  0  0  0  0
 55 53  1  0  0  0  0
M  END
>  <MODEL>
6

>  <REMARK>
 VINA RESULT:      -0.7      2.814      8.958
  Name = 
  19 active torsions:
  status: ('A' for Active; 'I' for Inactive)
    1  A    between atoms: C_1  and  C_21
    2  A    between atoms: C_1  and  N_53
    3  A    between atoms: C_3  and  O_25
    4  A    between atoms: C_3  and  O_38
    5  A    between atoms: C_6  and  C_14
    6  A    between atoms: C_6  and  O_22
    7  A    between atoms: C_6  and  C_46
    8  A    between atoms: C_8  and  O_22
    9  A    between atoms: C_8  and  O_54
   10  A    between atoms: C_10  and  C_48
   11  A    between atoms: C_14  and  C_20
   12  A    between atoms: C_19  and  C_37
   13  A    between atoms: C_21  and  C_46
   14  A    between atoms: C_26  and  N_45
   15  A    between atoms: C_29  and  O_38
   16  A    between atoms: C_29  and  N_53
   17  A    between atoms: C_33  and  C_49
   18  A    between atoms: C_33  and  C_52
   19  A    between atoms: C_51  and  O_54
                            x       y       z     vdW  Elec       q    Type
                         _______ _______ _______ _____ _____    ______ ____

>  <TORSDO>
F 19

$$$$
=
 OpenBabel11062408503D

 55 59  0  0  1  0  0  0  0  0999 V2000
  161.9300  211.1670  150.2200 C   0  0  0  0  0  2  0  0  0  0  0  0
  160.7500  208.8120  153.0200 C   0  0  0  0  0  2  0  0  0  0  0  0
  161.8050  208.6430  150.3890 C   0  0  1  0  0  3  0  0  0  0  0  0
  161.1490  207.5640  151.0120 O   0  0  0  0  0  0  0  0  0  0  0  0
  161.6120  209.7690  148.0730 C   0  0  2  0  0  3  0  0  0  0  0  0
  162.3590  210.9160  148.7680 C   0  0  1  0  0  3  0  0  0  0  0  0
  160.2580  210.0720  147.9210 O   0  0  0  0  0  1  0  0  0  0  0  0
  161.2400  210.0990  152.3600 C   0  0  0  0  0  2  0  0  0  0  0  0
  161.4670  207.6260  152.3790 C   0  0  0  0  0  2  0  0  0  0  0  0
  161.7520  208.4600  148.8600 C   0  0  1  0  0  3  0  0  0  0  0  0
  161.1850  209.9830  150.8380 C   0  0  1  0  0  3  0  0  0  0  0  0
  163.5810  212.6430  147.6890 O   0  0  0  0  0  0  0  0  0  0  0  0
  162.4410  212.1660  147.9370 C   0  0  0  0  0  0  0  0  0  0  0  0
  158.9560  212.5790  147.5630 O   0  0  0  0  0  0  0  0  0  0  0  0
  161.2770  212.7700  147.3440 N   0  0  0  0  0  0  0  0  0  0  0  0
  160.0500  212.9330  148.0830 C   0  0  0  0  0  0  0  0  0  0  0  0
  160.4140  212.3280  145.0860 C   0  0  0  0  0  3  0  0  0  0  0  0
  160.6320  212.1990  143.7740 C   0  0  0  0  0  3  0  0  0  0  0  0
  162.7950  213.0810  145.4130 C   0  0  0  0  0  2  0  0  0  0  0  0
  162.8350  213.2450  143.9170 C   0  0  0  0  0  3  0  0  0  0  0  0
  161.8340  212.7930  143.1560 C   0  0  0  0  0  3  0  0  0  0  0  0
  161.3520  213.1510  145.9320 C   0  0  2  0  0  3  0  0  0  0  0  0
  160.0500  213.5940  149.4050 C   0  0  0  0  0  0  0  0  0  0  0  0
  161.1490  213.9780  149.8900 O   0  0  0  0  0  0  0  0  0  0  0  0
  160.0640  212.8920  152.4890 Cl  0  0  0  0  0  0  0  0  0  0  0  0
  157.6680  214.2890  149.5090 C   0  0  0  0  0  3  0  0  0  0  0  0
  156.4570  214.4500  150.1810 C   0  0  0  0  0  3  0  0  0  0  0  0
  158.6970  213.4630  151.5460 C   0  0  0  0  0  0  0  0  0  0  0  0
  157.4810  213.6330  152.2130 C   0  0  0  0  0  3  0  0  0  0  0  0
  156.3510  214.1070  151.5320 C   0  0  0  0  0  0  0  0  0  0  0  0
  158.7990  213.7910  150.1730 C   0  0  0  0  0  0  0  0  0  0  0  0
  155.0590  214.3190  152.2580 C   0  0  1  0  0  3  0  0  0  0  0  0
  154.7830  213.1960  153.1540 C   0  0  0  0  0  2  0  0  0  0  0  0
  155.3070  214.4530  153.7060 N   0  0  0  0  0  2  0  0  0  0  0  0
  162.9070  207.7580  148.4250 O   0  0  0  0  0  0  0  0  0  0  0  0
  162.8270  206.4600  147.9240 C   0  0  0  0  0  0  0  0  0  0  0  0
  163.8500  205.9280  147.4190 O   0  0  0  0  0  0  0  0  0  0  0  0
  161.6160  205.7630  147.9700 O   0  0  0  0  0  0  0  0  0  0  0  0
  161.2130  204.8720  146.9410 C   0  0  1  0  0  3  0  0  0  0  0  0
  161.7120  204.7130  144.5830 O   0  0  0  0  0  1  0  0  0  0  0  0
  161.2890  205.5910  145.5890 C   0  0  1  0  0  3  0  0  0  0  0  0
  159.9520  206.2140  145.2230 C   0  0  0  0  0  2  0  0  0  0  0  0
  159.0390  205.2140  144.8900 O   0  0  0  0  0  1  0  0  0  0  0  0
  162.0900  203.6260  146.9920 C   0  0  0  0  0  2  0  0  0  0  0  0
  160.6250  202.0720  145.7320 C   0  0  0  0  0  1  0  0  0  0  0  0
  161.2540  202.3570  147.0860 C   0  0  2  0  0  3  0  0  0  0  0  0
  160.1700  202.5170  148.1560 C   0  0  1  0  0  3  0  0  0  0  0  0
  158.9020  202.2290  147.6300 O   0  0  0  0  0  1  0  0  0  0  0  0
  161.5350  200.9240  149.0460 O   0  0  0  0  0  1  0  0  0  0  0  0
  160.4540  201.6880  149.3360 N   0  0  0  0  0  0  0  0  0  0  0  0
  160.8120  202.5260  150.4750 C   0  0  0  0  0  2  0  0  0  0  0  0
  161.8220  203.4150  150.1030 O   0  0  0  0  0  0  0  0  0  0  0  0
  161.8630  204.3470  151.1410 C   0  0  0  0  0  2  0  0  0  0  0  0
  160.8520  204.5520  153.0880 C   0  0  0  0  0  1  0  0  0  0  0  0
  160.6000  204.4550  151.7210 O   0  0  0  0  0  0  0  0  0  0  0  0
  3 11  1  0  0  0  0
  3  4  1  1  0  0  0
  4  9  1  0  0  0  0
  5  7  1  1  0  0  0
  5  6  1  0  0  0  0
  5 10  1  0  0  0  0
  6 13  1  6  0  0  0
  6  1  1  0  0  0  0
  8  2  1  0  0  0  0
  9  2  1  0  0  0  0
 10 35  1  6  0  0  0
 10  3  1  0  0  0  0
 11  1  1  6  0  0  0
 11  8  1  0  0  0  0
 12 13  2  0  0  0  0
 14 16  2  0  0  0  0
 15 13  1  0  0  0  0
 15 16  1  0  0  0  0
 16 23  1  0  0  0  0
 17 22  1  0  0  0  0
 18 17  2  0  0  0  0
 19 22  1  0  0  0  0
 20 19  1  0  0  0  0
 21 18  1  0  0  0  0
 21 20  2  0  0  0  0
 22 15  1  1  0  0  0
 23 24  2  0  0  0  0
 23 31  1  0  0  0  0
 26 31  2  0  0  0  0
 26 27  1  0  0  0  0
 27 30  2  0  0  0  0
 28 29  2  0  0  0  0
 28 25  1  0  0  0  0
 30 29  1  0  0  0  0
 31 28  1  0  0  0  0
 32 30  1  6  0  0  0
 32 33  1  0  0  0  0
 32 34  1  0  0  0  0
 33 34  1  0  0  0  0
 36 38  1  0  0  0  0
 36 35  1  0  0  0  0
 37 36  2  0  0  0  0
 39 44  1  6  0  0  0
 39 38  1  0  0  0  0
 41 40  1  6  0  0  0
 41 39  1  0  0  0  0
 42 41  1  0  0  0  0
 43 42  1  0  0  0  0
 44 46  1  0  0  0  0
 46 45  1  6  0  0  0
 46 47  1  0  0  0  0
 47 48  1  6  0  0  0
 47 50  1  0  0  0  0
 49 50  1  0  0  0  0
 50 51  1  0  0  0  0
 52 51  1  0  0  0  0
 52 53  1  0  0  0  0
 53 55  1  0  0  0  0
 55 54  1  0  0  0  0
M  END
>  <MODEL>
7

>  <REMARK>
 VINA RESULT:      -0.4      2.357      6.884
  Name = 
  19 active torsions:
  status: ('A' for Active; 'I' for Inactive)
    1  A    between atoms: C_1  and  C_21
    2  A    between atoms: C_1  and  N_53
    3  A    between atoms: C_3  and  O_25
    4  A    between atoms: C_3  and  O_38
    5  A    between atoms: C_6  and  C_14
    6  A    between atoms: C_6  and  O_22
    7  A    between atoms: C_6  and  C_46
    8  A    between atoms: C_8  and  O_22
    9  A    between atoms: C_8  and  O_54
   10  A    between atoms: C_10  and  C_48
   11  A    between atoms: C_14  and  C_20
   12  A    between atoms: C_19  and  C_37
   13  A    between atoms: C_21  and  C_46
   14  A    between atoms: C_26  and  N_45
   15  A    between atoms: C_29  and  O_38
   16  A    between atoms: C_29  and  N_53
   17  A    between atoms: C_33  and  C_49
   18  A    between atoms: C_33  and  C_52
   19  A    between atoms: C_51  and  O_54
                            x       y       z     vdW  Elec       q    Type
                         _______ _______ _______ _____ _____    ______ ____

>  <TORSDO>
F 19

$$$$
