=
 OpenBabel11062408413D

 55 60  0  0  1  0  0  0  0  0999 V2000
  161.0700  207.6270  151.6750 C   0  0  0  0  0  2  0  0  0  0  0  0
  159.2170  213.0770  151.7640 C   0  0  0  0  0  2  0  0  0  0  0  0
  159.5540  213.9730  147.9550 O   0  0  0  0  0  0  0  0  0  0  0  0
  159.2210  211.4340  154.0280 C   0  0  0  0  0  2  0  0  0  0  0  0
  160.8210  213.0520  155.0440 C   0  0  0  0  0  2  0  0  0  0  0  0
  162.3060  213.0880  148.4190 C   0  0  0  0  0  2  0  0  0  0  0  0
  156.6220  214.4500  155.9820 C   0  0  0  0  0  2  0  0  0  0  0  0
  155.3110  212.6720  154.7340 C   0  0  2  0  0  3  0  0  0  0  0  0
  155.7040  211.5700  155.5270 O   0  0  0  0  0  0  0  0  0  0  0  0
  163.7610  213.3120  148.8270 C   0  0  0  0  0  2  0  0  0  0  0  0
  162.5890  210.6420  148.7310 C   0  0  2  0  0  3  0  0  0  0  0  0
  164.0410  210.8330  149.1500 C   0  0  0  0  0  2  0  0  0  0  0  0
  159.7480  210.4010  149.6700 C   0  0  0  0  0  2  0  0  0  0  0  0
  158.6110  212.6230  156.1580 C   0  0  1  0  0  3  0  0  0  0  0  0
  159.6910  213.6630  155.8680 C   0  0  0  0  0  2  0  0  0  0  0  0
  164.6070  212.0870  148.4830 C   0  0  0  0  0  2  0  0  0  0  0  0
  162.1860  208.0620  154.7590 C   0  0  0  0  0  2  0  0  0  0  0  0
  157.3500  213.3620  157.2570 S   0  0  0  0  0  0  0  0  0  0  0  0
  161.7540  211.8620  149.1450 C   0  0  2  0  0  3  0  0  0  0  0  0
  162.9310  209.8400  153.2490 C   0  0  0  0  0  0  0  0  0  0  0  0
  160.2620  208.1680  150.5900 N   0  0  2  0  0  0  0  0  0  0  0  0
  155.2400  213.9640  155.5550 C   0  0  1  0  0  3  0  0  0  0  0  0
  163.7130  210.2340  152.3430 O   0  0  0  0  0  0  0  0  0  0  0  0
  161.6370  208.4150  148.0570 C   0  0  2  0  0  3  0  0  0  0  0  0
  160.3500  207.1770  149.5040 C   0  0  0  0  0  2  0  0  0  0  0  0
  159.8000  213.5710  152.9460 O   0  0  0  0  0  0  0  0  0  0  0  0
  162.0340  209.3080  149.2420 C   0  0  2  0  0  3  0  0  0  0  0  0
  159.7470  213.8330  150.5690 C   0  0  0  0  0  2  0  0  0  0  0  0
  159.1770  213.0100  149.0730 S   0  0  2  0  0  0  0  0  0  0  0  0
  161.1840  207.1210  154.0960 C   0  0  0  0  0  2  0  0  0  0  0  0
  158.0560  212.0140  154.8450 C   0  0  2  0  0  3  0  0  0  0  0  0
  160.3040  212.4920  153.7180 C   0  0  2  0  0  0  0  0  0  0  0  0
  160.3700  207.8080  153.0090 C   0  0  0  0  0  2  0  0  0  0  0  0
  160.2760  211.5830  148.8390 C   0  0  2  0  0  3  0  0  0  0  0  0
  160.8460  209.4670  150.2140 C   0  0  1  0  0  3  0  0  0  0  0  0
  154.4030  213.8240  156.6660 O   0  0  0  0  0  1  0  0  0  0  0  0
  161.4930  211.8340  153.0040 C   0  0  0  0  0  2  0  0  0  0  0  0
  160.3780  207.7900  148.2330 O   0  0  0  0  0  0  0  0  0  0  0  0
  156.8970  210.9710  155.0290 C   0  0  1  0  0  0  0  0  0  0  0  0
  161.8770  210.6450  153.6800 O   0  0  0  0  0  0  0  0  0  0  0  0
  163.1160  208.5810  153.8160 O   0  0  0  0  0  0  0  0  0  0  0  0
  157.3320  209.9350  156.0420 C   0  0  0  0  0  0  0  0  0  0  0  0
  158.3990  209.0870  155.7670 O   0  0  0  0  0  0  0  0  0  0  0  0
  156.7120  209.8040  157.1330 O   0  0  0  0  0  1  0  0  0  0  0  0
  153.8510  213.1780  152.7220 C   0  0  0  0  0  1  0  0  0  0  0  0
  153.9900  212.3890  154.0140 C   0  0  0  0  0  2  0  0  0  0  0  0
  156.5830  210.1850  153.7290 C   0  0  0  0  0  2  0  0  0  0  0  0
  155.5320  209.0930  153.8790 C   0  0  0  0  0  1  0  0  0  0  0  0
  162.7370  207.4110  147.7340 C   0  0  0  0  0  2  0  0  0  0  0  0
  162.2300  205.9960  147.9490 C   0  0  0  0  0  2  0  0  0  0  0  0
  163.7430  204.6030  146.5770 C   0  0  0  0  0  1  0  0  0  0  0  0
  162.3500  205.1930  146.6660 C   0  0  2  0  0  3  0  0  0  0  0  0
  162.1200  206.0550  145.5180 N   0  0  0  0  0  2  0  0  0  0  0  0
  160.7190  205.9180  145.1600 C   0  0  0  0  0  2  0  0  0  0  0  0
  160.5100  204.6090  144.4300 C   0  0  0  0  0  1  0  0  0  0  0  0
  1 33  1  0  0  0  0
  2 26  1  0  0  0  0
  3 29  2  0  0  0  0
  4 31  1  0  0  0  0
  5 15  1  0  0  0  0
  6 10  1  0  0  0  0
  7 18  1  0  0  0  0
  8 46  1  1  0  0  0
  8  9  1  0  0  0  0
  8 22  1  0  0  0  0
 11 19  1  0  0  0  0
 11 12  1  1  0  0  0
 11 27  1  0  0  0  0
 13 35  1  0  0  0  0
 14 15  1  6  0  0  0
 14 18  1  0  0  0  0
 16 10  1  0  0  0  0
 16 12  1  0  0  0  0
 19  6  1  6  0  0  0
 20 40  1  0  0  0  0
 20 41  1  0  0  0  0
 21 25  1  6  0  0  0
 21  1  1  0  0  0  0
 22  7  1  0  0  0  0
 22 36  1  1  0  0  0
 23 20  2  0  0  0  0
 24 49  1  1  0  0  0
 24 38  1  0  0  0  0
 24 27  1  0  0  0  0
 26 32  1  0  0  0  0
 27 35  1  0  0  0  0
 28  2  1  0  0  0  0
 29 28  1  0  0  0  0
 30 17  1  0  0  0  0
 31 39  1  0  0  0  0
 31 14  1  0  0  0  0
 32  4  1  0  0  0  0
 32  5  1  0  0  0  0
 33 30  1  0  0  0  0
 34 29  1  0  0  0  0
 34 19  1  0  0  0  0
 34 13  1  0  0  0  0
 35 21  1  0  0  0  0
 37 40  1  0  0  0  0
 37 32  1  0  0  0  0
 38 25  1  0  0  0  0
 39  9  1  0  0  0  0
 39 42  1  0  0  0  0
 41 17  1  0  0  0  0
 42 44  1  0  0  0  0
 43 42  2  0  0  0  0
 45 46  1  0  0  0  0
 47 48  1  0  0  0  0
 47 39  1  0  0  0  0
 49 50  1  0  0  0  0
 51 52  1  0  0  0  0
 52 50  1  0  0  0  0
 53 52  1  0  0  0  0
 54 53  1  0  0  0  0
 55 54  1  0  0  0  0
M  END
>  <MODEL>
1

>  <REMARK>
 VINA RESULT:      30.4      0.000      0.000
  Name = 
  8 active torsions:
  status: ('A' for Active; 'I' for Inactive)
    1  A    between atoms: C_1  and  C_53
    2  A    between atoms: C_6  and  C_53
    3  A    between atoms: C_12  and  C_38
    4  A    between atoms: C_13  and  C_33
    5  A    between atoms: C_13  and  C_48
    6  A    between atoms: C_18  and  N_39
    7  A    between atoms: C_32  and  N_39
    8  A    between atoms: C_32  and  C_48
                            x       y       z     vdW  Elec       q    Type
                         _______ _______ _______ _____ _____    ______ ____

>  <TORSDO>
F 8

$$$$
=
 OpenBabel11062408413D

 55 60  0  0  1  0  0  0  0  0999 V2000
  160.1560  211.2260  151.1840 C   0  0  0  0  0  2  0  0  0  0  0  0
  161.0950  206.1100  153.6510 C   0  0  0  0  0  2  0  0  0  0  0  0
  159.7230  206.8320  157.2590 O   0  0  0  0  0  0  0  0  0  0  0  0
  161.5990  206.6100  150.9450 C   0  0  0  0  0  2  0  0  0  0  0  0
  163.9930  206.1220  151.4320 C   0  0  0  0  0  2  0  0  0  0  0  0
  161.6440  209.0360  157.0950 C   0  0  0  0  0  2  0  0  0  0  0  0
  161.9460  202.2220  150.3990 C   0  0  0  0  0  2  0  0  0  0  0  0
  159.5780  203.0760  150.0810 C   0  0  2  0  0  3  0  0  0  0  0  0
  159.8270  203.8750  148.9430 O   0  0  0  0  0  0  0  0  0  0  0  0
  163.0320  209.6520  157.2610 C   0  0  0  0  0  2  0  0  0  0  0  0
  160.9980  210.8860  155.5700 C   0  0  2  0  0  3  0  0  0  0  0  0
  162.3770  211.5200  155.7070 C   0  0  0  0  0  2  0  0  0  0  0  0
  159.2780  209.0120  153.9760 C   0  0  0  0  0  2  0  0  0  0  0  0
  162.7560  204.7230  149.7520 C   0  0  1  0  0  3  0  0  0  0  0  0
  163.8400  204.7290  150.8290 C   0  0  0  0  0  2  0  0  0  0  0  0
  162.9700  211.1670  157.0720 C   0  0  0  0  0  2  0  0  0  0  0  0
  162.7810  210.6630  149.2520 C   0  0  0  0  0  2  0  0  0  0  0  0
  162.7010  203.0720  148.9680 S   0  0  0  0  0  0  0  0  0  0  0  0
  161.1030  209.3590  155.7030 C   0  0  2  0  0  3  0  0  0  0  0  0
  163.2850  210.3000  151.6200 C   0  0  0  0  0  0  0  0  0  0  0  0
  159.2130  210.6650  152.1420 N   0  0  2  0  0  0  0  0  0  0  0  0
  160.4930  201.8480  150.1230 C   0  0  1  0  0  3  0  0  0  0  0  0
  163.5550  210.7750  152.7550 O   0  0  0  0  0  0  0  0  0  0  0  0
  159.0110  212.1110  154.6390 C   0  0  2  0  0  3  0  0  0  0  0  0
  158.2960  211.7670  152.4820 C   0  0  0  0  0  2  0  0  0  0  0  0
  162.3520  205.7530  153.1300 O   0  0  0  0  0  0  0  0  0  0  0  0
  160.2980  211.3510  154.2880 C   0  0  2  0  0  3  0  0  0  0  0  0
  161.1770  206.2560  155.1520 C   0  0  0  0  0  2  0  0  0  0  0  0
  159.6280  206.9540  155.7450 S   0  0  2  0  0  0  0  0  0  0  0  0
  161.2970  210.9240  149.0080 C   0  0  0  0  0  2  0  0  0  0  0  0
  161.4020  205.2190  150.3220 C   0  0  2  0  0  3  0  0  0  0  0  0
  162.6820  206.6110  152.0480 C   0  0  2  0  0  0  0  0  0  0  0  0
  160.4100  210.2540  150.0460 C   0  0  0  0  0  2  0  0  0  0  0  0
  159.7270  208.7380  155.4210 C   0  0  2  0  0  3  0  0  0  0  0  0
  159.9910  210.2020  153.3040 C   0  0  1  0  0  3  0  0  0  0  0  0
  160.3950  201.0910  148.9520 O   0  0  0  0  0  1  0  0  0  0  0  0
  162.9180  208.0410  152.5520 C   0  0  0  0  0  2  0  0  0  0  0  0
  157.9070  211.7290  153.8380 O   0  0  0  0  0  0  0  0  0  0  0  0
  160.2030  205.1990  149.3080 C   0  0  1  0  0  0  0  0  0  0  0  0
  163.0620  208.9330  151.4560 O   0  0  0  0  0  0  0  0  0  0  0  0
  163.1940  211.1520  150.5220 O   0  0  0  0  0  0  0  0  0  0  0  0
  160.6260  205.9090  148.0410 C   0  0  0  0  0  0  0  0  0  0  0  0
  160.8050  207.2880  148.0340 O   0  0  0  0  0  1  0  0  0  0  0  0
  160.7870  205.2650  146.9690 O   0  0  0  0  0  0  0  0  0  0  0  0
  157.7000  201.6880  149.0880 C   0  0  0  0  0  1  0  0  0  0  0  0
  158.1010  202.6820  150.1670 C   0  0  0  0  0  2  0  0  0  0  0  0
  158.9620  205.9690  149.8310 C   0  0  0  0  0  2  0  0  0  0  0  0
  159.2640  207.0370  150.8750 C   0  0  0  0  0  1  0  0  0  0  0  0
  159.2410  213.6170  154.6190 C   0  0  0  0  0  2  0  0  0  0  0  0
  158.0160  214.3390  155.1520 C   0  0  0  0  0  2  0  0  0  0  0  0
  159.3140  213.7240  157.1630 C   0  0  0  0  0  1  0  0  0  0  0  0
  158.0120  214.3220  156.6690 C   0  0  2  0  0  3  0  0  0  0  0  0
  156.9010  213.5180  157.1530 N   0  0  0  0  0  2  0  0  0  0  0  0
  155.8290  213.6490  156.1820 C   0  0  0  0  0  2  0  0  0  0  0  0
  154.5180  213.8740  156.9040 C   0  0  0  0  0  1  0  0  0  0  0  0
  2 28  1  0  0  0  0
  4 32  1  0  0  0  0
  5 32  1  0  0  0  0
  6 10  1  0  0  0  0
  8 22  1  0  0  0  0
  8 46  1  6  0  0  0
  9 39  1  0  0  0  0
  9  8  1  0  0  0  0
 11 19  1  0  0  0  0
 11 12  1  6  0  0  0
 12 16  1  0  0  0  0
 13 34  1  0  0  0  0
 14 31  1  0  0  0  0
 14 15  1  1  0  0  0
 15  5  1  0  0  0  0
 16 10  1  0  0  0  0
 17 41  1  0  0  0  0
 18 14  1  0  0  0  0
 18  7  1  0  0  0  0
 19  6  1  1  0  0  0
 20 23  2  0  0  0  0
 21  1  1  6  0  0  0
 21 25  1  0  0  0  0
 21 35  1  0  0  0  0
 22 36  1  6  0  0  0
 22  7  1  0  0  0  0
 24 49  1  6  0  0  0
 25 38  1  0  0  0  0
 26  2  1  0  0  0  0
 27 24  1  0  0  0  0
 27 11  1  0  0  0  0
 28 29  1  0  0  0  0
 29  3  2  0  0  0  0
 30 17  1  0  0  0  0
 30 33  1  0  0  0  0
 31  4  1  0  0  0  0
 32 37  1  0  0  0  0
 32 26  1  0  0  0  0
 33  1  1  0  0  0  0
 34 19  1  0  0  0  0
 34 29  1  0  0  0  0
 35 13  1  0  0  0  0
 35 27  1  0  0  0  0
 38 24  1  0  0  0  0
 39 47  1  0  0  0  0
 39 31  1  0  0  0  0
 40 20  1  0  0  0  0
 40 37  1  0  0  0  0
 41 20  1  0  0  0  0
 42 39  1  0  0  0  0
 43 42  1  0  0  0  0
 44 42  2  0  0  0  0
 45 46  1  0  0  0  0
 47 48  1  0  0  0  0
 49 50  1  0  0  0  0
 50 52  1  0  0  0  0
 52 53  1  0  0  0  0
 52 51  1  0  0  0  0
 54 55  1  0  0  0  0
 54 53  1  0  0  0  0
M  END
>  <MODEL>
2

>  <REMARK>
 VINA RESULT:      32.7      3.364      9.473
  Name = 
  8 active torsions:
  status: ('A' for Active; 'I' for Inactive)
    1  A    between atoms: C_1  and  C_53
    2  A    between atoms: C_6  and  C_53
    3  A    between atoms: C_12  and  C_38
    4  A    between atoms: C_13  and  C_33
    5  A    between atoms: C_13  and  C_48
    6  A    between atoms: C_18  and  N_39
    7  A    between atoms: C_32  and  N_39
    8  A    between atoms: C_32  and  C_48
                            x       y       z     vdW  Elec       q    Type
                         _______ _______ _______ _____ _____    ______ ____

>  <TORSDO>
F 8

$$$$
