=
 OpenBabel11052422453D

 31 34  0  0  1  0  0  0  0  0999 V2000
  160.4520  210.7600  153.7250 C   0  0  2  0  0  3  0  0  0  0  0  0
  160.3120  212.1770  155.7180 C   0  0  0  0  0  2  0  0  0  0  0  0
  160.1070  212.1630  154.2080 C   0  0  2  0  0  3  0  0  0  0  0  0
  161.0070  210.0110  154.9220 C   0  0  1  0  0  3  0  0  0  0  0  0
  160.4740  210.7330  156.1420 C   0  0  0  0  0  2  0  0  0  0  0  0
  159.6050  208.2300  155.6450 O   0  0  0  0  0  0  0  0  0  0  0  0
  160.5670  208.5830  154.9090 C   0  0  0  0  0  0  0  0  0  0  0  0
  161.2580  207.6230  154.1030 N   0  0  0  0  0  2  0  0  0  0  0  0
  160.8450  206.2310  154.0070 C   0  0  0  0  0  2  0  0  0  0  0  0
  160.9190  204.2990  152.4390 C   0  0  0  0  0  1  0  0  0  0  0  0
  161.6660  205.5130  152.9490 C   0  0  0  0  0  2  0  0  0  0  0  0
  161.4570  210.8000  152.5800 C   0  0  0  0  0  2  0  0  0  0  0  0
  161.0910  209.8000  151.5850 N   0  0  0  0  0  2  0  0  0  0  0  0
  162.2850  209.4460  150.8380 C   0  0  0  0  0  3  0  0  0  0  0  0
  162.2900  207.9460  150.5950 C   0  0  0  0  0  2  0  0  0  0  0  0
  161.9150  208.8840  149.4760 C   0  0  0  0  0  2  0  0  0  0  0  0
  158.6740  212.5290  153.7910 C   0  0  2  0  0  3  0  0  0  0  0  0
  156.1170  214.4530  149.8800 C   0  0  0  0  0  1  0  0  0  0  0  0
  158.5570  213.8550  153.0300 C   0  0  2  0  0  3  0  0  0  0  0  0
  158.9750  214.0150  150.5360 C   0  0  0  0  0  2  0  0  0  0  0  0
  156.8500  214.3620  152.5620 S   0  0  0  0  0  0  0  0  0  0  0  0
  156.7750  213.5500  150.9090 C   0  0  2  0  0  3  0  0  0  0  0  0
  157.9980  213.0140  150.4460 O   0  0  0  0  0  0  0  0  0  0  0  0
  159.6010  213.9920  151.9200 C   0  0  0  0  0  2  0  0  0  0  0  0
  157.5920  212.2220  154.7960 C   0  0  0  0  0  0  0  0  0  0  0  0
  156.3690  212.8800  156.7920 C   0  0  0  0  0  3  0  0  0  0  0  0
  157.3990  213.0990  155.8690 C   0  0  0  0  0  3  0  0  0  0  0  0
  155.5250  211.7770  156.6460 C   0  0  0  0  0  3  0  0  0  0  0  0
  154.8820  209.7920  155.4410 O   0  0  0  0  0  1  0  0  0  0  0  0
  156.7420  211.1170  154.6550 C   0  0  0  0  0  3  0  0  0  0  0  0
  155.7130  210.8930  155.5800 C   0  0  0  0  0  0  0  0  0  0  0  0
  1 12  1  6  0  0  0
  1  3  1  0  0  0  0
  1  4  1  0  0  0  0
  2  5  1  0  0  0  0
  3 17  1  1  0  0  0
  3  2  1  0  0  0  0
  4  7  1  1  0  0  0
  4  5  1  0  0  0  0
  7  6  2  0  0  0  0
  8  7  1  0  0  0  0
  9  8  1  0  0  0  0
 10 11  1  0  0  0  0
 11  9  1  0  0  0  0
 13 12  1  0  0  0  0
 14 13  1  0  0  0  0
 15 14  1  0  0  0  0
 16 15  1  0  0  0  0
 16 14  1  0  0  0  0
 17 25  1  1  0  0  0
 19 17  1  6  0  0  0
 20 24  1  0  0  0  0
 21 19  1  0  0  0  0
 22 18  1  6  0  0  0
 22 21  1  0  0  0  0
 23 20  1  0  0  0  0
 23 22  1  0  0  0  0
 24 19  1  0  0  0  0
 25 27  1  0  0  0  0
 27 26  2  0  0  0  0
 28 26  1  0  0  0  0
 29 31  1  0  0  0  0
 30 25  2  0  0  0  0
 30 31  1  0  0  0  0
 31 28  2  0  0  0  0
M  END
>  <MODEL>
1

>  <REMARK>
 VINA RESULT:      -5.0      0.000      0.000
  Name = 
  9 active torsions:
  status: ('A' for Active; 'I' for Inactive)
    1  A    between atoms: C_1  and  N_24
    2  A    between atoms: C_3  and  C_15
    3  A    between atoms: C_3  and  N_24
    4  A    between atoms: C_4  and  C_27
    5  A    between atoms: C_5  and  C_27
    6  A    between atoms: C_9  and  C_23
    7  A    between atoms: C_19  and  C_21
    8  A    between atoms: C_20  and  C_27
    9  A    between atoms: N_22  and  C_23
                            x       y       z     vdW  Elec       q    Type
                         _______ _______ _______ _____ _____    ______ ____

>  <TORSDO>
F 9

$$$$
=
 OpenBabel11052422453D

 31 34  0  0  1  0  0  0  0  0999 V2000
  162.0260  206.7630  148.9980 C   0  0  2  0  0  3  0  0  0  0  0  0
  159.8530  205.8010  148.4100 C   0  0  0  0  0  2  0  0  0  0  0  0
  161.3130  205.8830  147.9800 C   0  0  2  0  0  3  0  0  0  0  0  0
  160.9590  207.3180  149.9210 C   0  0  1  0  0  3  0  0  0  0  0  0
  159.7860  206.3650  149.8130 C   0  0  0  0  0  2  0  0  0  0  0  0
  162.5490  206.8420  151.6260 O   0  0  0  0  0  0  0  0  0  0  0  0
  161.4570  207.3980  151.3280 C   0  0  0  0  0  0  0  0  0  0  0  0
  160.6790  208.0620  152.3310 N   0  0  0  0  0  2  0  0  0  0  0  0
  161.1350  208.2190  153.7040 C   0  0  0  0  0  2  0  0  0  0  0  0
  160.0480  207.4180  155.7960 C   0  0  0  0  0  1  0  0  0  0  0  0
  160.7540  206.9980  154.5240 C   0  0  0  0  0  2  0  0  0  0  0  0
  162.8050  207.8800  148.3150 C   0  0  0  0  0  2  0  0  0  0  0  0
  161.9560  209.0600  148.2030 N   0  0  0  0  0  2  0  0  0  0  0  0
  162.6900  210.1980  148.7280 C   0  0  0  0  0  3  0  0  0  0  0  0
  161.9380  211.4720  148.3840 C   0  0  0  0  0  2  0  0  0  0  0  0
  161.8710  210.9190  149.7850 C   0  0  0  0  0  2  0  0  0  0  0  0
  161.9940  204.5090  147.8970 C   0  0  2  0  0  3  0  0  0  0  0  0
  161.3330  206.0970  143.1450 C   0  0  0  0  0  1  0  0  0  0  0  0
  162.3480  204.0650  146.4730 C   0  0  2  0  0  3  0  0  0  0  0  0
  160.5750  203.6910  144.7010 C   0  0  0  0  0  2  0  0  0  0  0  0
  162.9040  205.3990  145.3330 S   0  0  0  0  0  0  0  0  0  0  0  0
  161.2580  205.8650  144.6440 C   0  0  2  0  0  3  0  0  0  0  0  0
  160.1940  205.0060  144.9990 O   0  0  0  0  0  0  0  0  0  0  0  0
  161.3210  203.0960  145.8840 C   0  0  0  0  0  2  0  0  0  0  0  0
  161.4660  203.4480  148.8310 C   0  0  0  0  0  0  0  0  0  0  0  0
  160.6370  201.1830  149.1360 C   0  0  0  0  0  3  0  0  0  0  0  0
  161.0800  202.2130  148.2980 C   0  0  0  0  0  3  0  0  0  0  0  0
  160.5760  201.3850  150.5170 C   0  0  0  0  0  3  0  0  0  0  0  0
  160.8840  202.8210  152.4270 O   0  0  0  0  0  1  0  0  0  0  0  0
  161.4020  203.6450  150.2170 C   0  0  0  0  0  3  0  0  0  0  0  0
  160.9550  202.6170  151.0580 C   0  0  0  0  0  0  0  0  0  0  0  0
  1 12  1  6  0  0  0
  1  4  1  0  0  0  0
  2  5  1  0  0  0  0
  3 17  1  1  0  0  0
  3  2  1  0  0  0  0
  3  1  1  0  0  0  0
  4  7  1  1  0  0  0
  5  4  1  0  0  0  0
  7  6  2  0  0  0  0
  7  8  1  0  0  0  0
  8  9  1  0  0  0  0
  9 11  1  0  0  0  0
 11 10  1  0  0  0  0
 13 12  1  0  0  0  0
 13 14  1  0  0  0  0
 14 16  1  0  0  0  0
 15 14  1  0  0  0  0
 15 16  1  0  0  0  0
 17 25  1  6  0  0  0
 19 17  1  1  0  0  0
 20 23  1  0  0  0  0
 20 24  1  0  0  0  0
 21 19  1  0  0  0  0
 22 18  1  6  0  0  0
 22 23  1  0  0  0  0
 22 21  1  0  0  0  0
 24 19  1  0  0  0  0
 25 30  1  0  0  0  0
 26 28  2  0  0  0  0
 27 25  2  0  0  0  0
 27 26  1  0  0  0  0
 28 31  1  0  0  0  0
 30 31  2  0  0  0  0
 31 29  1  0  0  0  0
M  END
>  <MODEL>
2

>  <REMARK>
 VINA RESULT:      -5.0      5.133      9.077
  Name = 
  9 active torsions:
  status: ('A' for Active; 'I' for Inactive)
    1  A    between atoms: C_1  and  N_24
    2  A    between atoms: C_3  and  C_15
    3  A    between atoms: C_3  and  N_24
    4  A    between atoms: C_4  and  C_27
    5  A    between atoms: C_5  and  C_27
    6  A    between atoms: C_9  and  C_23
    7  A    between atoms: C_19  and  C_21
    8  A    between atoms: C_20  and  C_27
    9  A    between atoms: N_22  and  C_23
                            x       y       z     vdW  Elec       q    Type
                         _______ _______ _______ _____ _____    ______ ____

>  <TORSDO>
F 9

$$$$
=
 OpenBabel11052422453D

 31 34  0  0  1  0  0  0  0  0999 V2000
  160.2850  211.0030  152.4330 C   0  0  2  0  0  3  0  0  0  0  0  0
  161.8860  210.9790  154.2850 C   0  0  0  0  0  2  0  0  0  0  0  0
  160.4430  211.3030  153.9180 C   0  0  2  0  0  3  0  0  0  0  0  0
  161.6650  210.6600  151.9070 C   0  0  1  0  0  3  0  0  0  0  0  0
  162.4670  210.2170  153.1130 C   0  0  0  0  0  2  0  0  0  0  0  0
  161.9340  209.8250  149.6950 O   0  0  0  0  0  0  0  0  0  0  0  0
  161.5930  209.5740  150.8830 C   0  0  0  0  0  0  0  0  0  0  0  0
  161.1020  208.2770  151.2420 N   0  0  0  0  0  2  0  0  0  0  0  0
  161.0570  207.1650  150.3050 C   0  0  0  0  0  2  0  0  0  0  0  0
  160.8140  204.6880  150.2890 C   0  0  0  0  0  1  0  0  0  0  0  0
  161.4230  205.8710  151.0110 C   0  0  0  0  0  2  0  0  0  0  0  0
  159.6850  212.1900  151.6890 C   0  0  0  0  0  2  0  0  0  0  0  0
  160.7430  212.8920  150.9730 N   0  0  0  0  0  2  0  0  0  0  0  0
  160.2060  213.3450  149.7010 C   0  0  0  0  0  3  0  0  0  0  0  0
  161.0910  214.4530  149.1570 C   0  0  0  0  0  2  0  0  0  0  0  0
  161.1880  213.0650  148.5770 C   0  0  0  0  0  2  0  0  0  0  0  0
  159.4200  210.4990  154.7330 C   0  0  2  0  0  3  0  0  0  0  0  0
  155.4410  213.5860  154.3020 C   0  0  0  0  0  1  0  0  0  0  0  0
  158.5190  211.3530  155.6350 C   0  0  2  0  0  3  0  0  0  0  0  0
  158.2300  213.8450  155.2730 C   0  0  0  0  0  2  0  0  0  0  0  0
  156.7200  211.3030  155.2470 S   0  0  0  0  0  0  0  0  0  0  0  0
  156.6630  212.7150  154.0630 C   0  0  2  0  0  3  0  0  0  0  0  0
  157.8510  213.4750  153.9760 O   0  0  0  0  0  0  0  0  0  0  0  0
  159.0890  212.7500  155.8840 C   0  0  0  0  0  2  0  0  0  0  0  0
  159.9040  209.1880  155.3000 C   0  0  0  0  0  0  0  0  0  0  0  0
  160.3820  207.8260  157.2580 C   0  0  0  0  0  3  0  0  0  0  0  0
  159.9900  209.0450  156.6900 C   0  0  0  0  0  3  0  0  0  0  0  0
  160.6920  206.7420  156.4340 C   0  0  0  0  0  3  0  0  0  0  0  0
  160.9330  205.8030  154.2280 O   0  0  0  0  0  1  0  0  0  0  0  0
  160.2170  208.0960  154.4800 C   0  0  0  0  0  3  0  0  0  0  0  0
  160.6140  206.8770  155.0450 C   0  0  0  0  0  0  0  0  0  0  0  0
  1 12  1  6  0  0  0
  1  3  1  0  0  0  0
  3  2  1  0  0  0  0
  3 17  1  1  0  0  0
  4  7  1  6  0  0  0
  4  1  1  0  0  0  0
  4  5  1  0  0  0  0
  5  2  1  0  0  0  0
  6  7  2  0  0  0  0
  7  8  1  0  0  0  0
  9 11  1  0  0  0  0
  9  8  1  0  0  0  0
 10 11  1  0  0  0  0
 13 12  1  0  0  0  0
 14 13  1  0  0  0  0
 15 14  1  0  0  0  0
 16 15  1  0  0  0  0
 16 14  1  0  0  0  0
 17 25  1  1  0  0  0
 19 17  1  6  0  0  0
 19 24  1  0  0  0  0
 20 24  1  0  0  0  0
 21 19  1  0  0  0  0
 22 18  1  1  0  0  0
 22 21  1  0  0  0  0
 23 22  1  0  0  0  0
 23 20  1  0  0  0  0
 25 27  1  0  0  0  0
 27 26  2  0  0  0  0
 28 26  1  0  0  0  0
 29 31  1  0  0  0  0
 30 31  1  0  0  0  0
 30 25  2  0  0  0  0
 31 28  2  0  0  0  0
M  END
>  <MODEL>
3

>  <REMARK>
 VINA RESULT:      -4.6      2.352      4.382
  Name = 
  9 active torsions:
  status: ('A' for Active; 'I' for Inactive)
    1  A    between atoms: C_1  and  N_24
    2  A    between atoms: C_3  and  C_15
    3  A    between atoms: C_3  and  N_24
    4  A    between atoms: C_4  and  C_27
    5  A    between atoms: C_5  and  C_27
    6  A    between atoms: C_9  and  C_23
    7  A    between atoms: C_19  and  C_21
    8  A    between atoms: C_20  and  C_27
    9  A    between atoms: N_22  and  C_23
                            x       y       z     vdW  Elec       q    Type
                         _______ _______ _______ _____ _____    ______ ____

>  <TORSDO>
F 9

$$$$
=
 OpenBabel11052422453D

 31 34  0  0  1  0  0  0  0  0999 V2000
  160.8740  205.5650  150.0880 C   0  0  2  0  0  3  0  0  0  0  0  0
  159.9540  203.2960  150.1260 C   0  0  0  0  0  2  0  0  0  0  0  0
  160.4520  204.4000  149.2010 C   0  0  2  0  0  3  0  0  0  0  0  0
  160.4740  205.2020  151.5050 C   0  0  1  0  0  3  0  0  0  0  0  0
  160.3650  203.6910  151.5280 C   0  0  0  0  0  2  0  0  0  0  0  0
  162.7150  205.4570  152.2630 O   0  0  0  0  0  0  0  0  0  0  0  0
  161.4940  205.6810  152.4880 C   0  0  0  0  0  0  0  0  0  0  0  0
  161.0820  206.3460  153.6870 N   0  0  0  0  0  2  0  0  0  0  0  0
  162.0280  206.8810  154.6550 C   0  0  0  0  0  2  0  0  0  0  0  0
  159.9830  207.3260  156.0020 C   0  0  0  0  0  1  0  0  0  0  0  0
  161.3310  207.8670  155.5760 C   0  0  0  0  0  2  0  0  0  0  0  0
  160.2180  206.8660  149.6410 C   0  0  0  0  0  2  0  0  0  0  0  0
  161.2360  207.9050  149.5350 N   0  0  0  0  0  2  0  0  0  0  0  0
  161.2060  208.6940  150.7540 C   0  0  0  0  0  3  0  0  0  0  0  0
  162.6260  208.8680  151.2650 C   0  0  0  0  0  2  0  0  0  0  0  0
  161.9410  210.0080  150.5560 C   0  0  0  0  0  2  0  0  0  0  0  0
  161.6260  203.9580  148.3140 C   0  0  2  0  0  3  0  0  0  0  0  0
  161.2110  205.7650  143.6120 C   0  0  0  0  0  1  0  0  0  0  0  0
  162.2210  205.0780  147.4520 C   0  0  2  0  0  3  0  0  0  0  0  0
  163.3900  204.6050  145.2530 C   0  0  0  0  0  2  0  0  0  0  0  0
  161.0300  205.9830  146.3790 S   0  0  0  0  0  0  0  0  0  0  0  0
  161.1650  204.9240  144.8770 C   0  0  2  0  0  3  0  0  0  0  0  0
  162.1950  203.9580  144.9140 O   0  0  0  0  0  0  0  0  0  0  0  0
  163.5250  204.6650  146.7660 C   0  0  0  0  0  2  0  0  0  0  0  0
  161.4990  202.5990  147.6730 C   0  0  0  0  0  0  0  0  0  0  0  0
  161.9030  200.2040  147.7940 C   0  0  0  0  0  3  0  0  0  0  0  0
  162.0470  201.4900  148.3280 C   0  0  0  0  0  3  0  0  0  0  0  0
  161.2080  200.0200  146.5970 C   0  0  0  0  0  3  0  0  0  0  0  0
  159.9800  200.9400  144.7390 O   0  0  0  0  0  1  0  0  0  0  0  0
  160.8020  202.4080  146.4720 C   0  0  0  0  0  3  0  0  0  0  0  0
  160.6600  201.1220  145.9330 C   0  0  0  0  0  0  0  0  0  0  0  0
  1 12  1  6  0  0  0
  1  4  1  0  0  0  0
  2  5  1  0  0  0  0
  3 17  1  1  0  0  0
  3  1  1  0  0  0  0
  3  2  1  0  0  0  0
  4  5  1  0  0  0  0
  4  7  1  1  0  0  0
  6  7  2  0  0  0  0
  7  8  1  0  0  0  0
  8  9  1  0  0  0  0
  9 11  1  0  0  0  0
 11 10  1  0  0  0  0
 13 12  1  0  0  0  0
 13 14  1  0  0  0  0
 14 15  1  0  0  0  0
 16 14  1  0  0  0  0
 16 15  1  0  0  0  0
 17 25  1  6  0  0  0
 19 17  1  6  0  0  0
 20 24  1  0  0  0  0
 21 19  1  0  0  0  0
 22 18  1  6  0  0  0
 22 23  1  0  0  0  0
 22 21  1  0  0  0  0
 23 20  1  0  0  0  0
 24 19  1  0  0  0  0
 25 27  1  0  0  0  0
 26 27  2  0  0  0  0
 28 26  1  0  0  0  0
 29 31  1  0  0  0  0
 30 25  2  0  0  0  0
 31 30  1  0  0  0  0
 31 28  2  0  0  0  0
M  END
>  <MODEL>
4

>  <REMARK>
 VINA RESULT:      -4.1      5.478      9.832
  Name = 
  9 active torsions:
  status: ('A' for Active; 'I' for Inactive)
    1  A    between atoms: C_1  and  N_24
    2  A    between atoms: C_3  and  C_15
    3  A    between atoms: C_3  and  N_24
    4  A    between atoms: C_4  and  C_27
    5  A    between atoms: C_5  and  C_27
    6  A    between atoms: C_9  and  C_23
    7  A    between atoms: C_19  and  C_21
    8  A    between atoms: C_20  and  C_27
    9  A    between atoms: N_22  and  C_23
                            x       y       z     vdW  Elec       q    Type
                         _______ _______ _______ _____ _____    ______ ____

>  <TORSDO>
F 9

$$$$
=
 OpenBabel11052422453D

 31 34  0  0  1  0  0  0  0  0999 V2000
  161.4940  209.3300  149.6500 C   0  0  2  0  0  3  0  0  0  0  0  0
  163.0840  208.7040  151.4040 C   0  0  0  0  0  2  0  0  0  0  0  0
  162.0770  209.7680  150.9880 C   0  0  2  0  0  3  0  0  0  0  0  0
  162.2720  208.1020  149.2160 C   0  0  1  0  0  3  0  0  0  0  0  0
  162.8650  207.5220  150.4840 C   0  0  0  0  0  2  0  0  0  0  0  0
  160.3960  206.6390  149.1770 O   0  0  0  0  0  0  0  0  0  0  0  0
  161.3770  207.1130  148.5410 C   0  0  0  0  0  0  0  0  0  0  0  0
  161.6590  206.6820  147.2060 N   0  0  0  0  0  2  0  0  0  0  0  0
  160.7960  205.7630  146.4770 C   0  0  0  0  0  2  0  0  0  0  0  0
  161.5960  203.6460  147.5140 C   0  0  0  0  0  1  0  0  0  0  0  0
  161.5200  204.4490  146.2330 C   0  0  0  0  0  2  0  0  0  0  0  0
  161.5880  210.4430  148.6140 C   0  0  0  0  0  2  0  0  0  0  0  0
  162.5470  211.4420  149.0670 N   0  0  0  0  0  2  0  0  0  0  0  0
  162.8530  212.3170  147.9490 C   0  0  0  0  0  3  0  0  0  0  0  0
  161.5550  212.7490  147.2890 C   0  0  0  0  0  2  0  0  0  0  0  0
  162.2910  213.7070  148.1900 C   0  0  0  0  0  2  0  0  0  0  0  0
  160.9540  209.9690  152.0150 C   0  0  2  0  0  3  0  0  0  0  0  0
  157.5130  212.7050  154.5090 C   0  0  0  0  0  1  0  0  0  0  0  0
  160.6960  211.4340  152.3920 C   0  0  2  0  0  3  0  0  0  0  0  0
  158.5630  212.6350  151.7380 C   0  0  0  0  0  2  0  0  0  0  0  0
  160.0850  211.7250  154.1030 S   0  0  0  0  0  0  0  0  0  0  0  0
  158.2760  211.6250  153.7620 C   0  0  2  0  0  3  0  0  0  0  0  0
  157.9250  211.5730  152.3940 O   0  0  0  0  0  0  0  0  0  0  0  0
  159.9510  212.2010  151.2980 C   0  0  0  0  0  2  0  0  0  0  0  0
  160.8860  208.9570  153.1320 C   0  0  0  0  0  0  0  0  0  0  0  0
  160.5180  206.6540  153.8220 C   0  0  0  0  0  3  0  0  0  0  0  0
  160.5390  207.6360  152.8240 C   0  0  0  0  0  3  0  0  0  0  0  0
  160.8440  206.9910  155.1380 C   0  0  0  0  0  3  0  0  0  0  0  0
  161.5000  208.6440  156.7630 O   0  0  0  0  0  1  0  0  0  0  0  0
  161.2120  209.2890  154.4540 C   0  0  0  0  0  3  0  0  0  0  0  0
  161.1870  208.3090  155.4550 C   0  0  0  0  0  0  0  0  0  0  0  0
  1 12  1  6  0  0  0
  1  3  1  0  0  0  0
  3  2  1  0  0  0  0
  3 17  1  1  0  0  0
  4  7  1  1  0  0  0
  4  1  1  0  0  0  0
  4  5  1  0  0  0  0
  5  2  1  0  0  0  0
  7  6  2  0  0  0  0
  8  7  1  0  0  0  0
  9  8  1  0  0  0  0
 11  9  1  0  0  0  0
 11 10  1  0  0  0  0
 12 13  1  0  0  0  0
 14 16  1  0  0  0  0
 14 13  1  0  0  0  0
 15 14  1  0  0  0  0
 15 16  1  0  0  0  0
 17 25  1  1  0  0  0
 19 17  1  6  0  0  0
 19 21  1  0  0  0  0
 20 23  1  0  0  0  0
 22 21  1  0  0  0  0
 22 18  1  6  0  0  0
 23 22  1  0  0  0  0
 24 20  1  0  0  0  0
 24 19  1  0  0  0  0
 25 30  1  0  0  0  0
 26 28  2  0  0  0  0
 27 25  2  0  0  0  0
 27 26  1  0  0  0  0
 28 31  1  0  0  0  0
 30 31  2  0  0  0  0
 31 29  1  0  0  0  0
M  END
>  <MODEL>
5

>  <REMARK>
 VINA RESULT:      -4.0      2.972      5.478
  Name = 
  9 active torsions:
  status: ('A' for Active; 'I' for Inactive)
    1  A    between atoms: C_1  and  N_24
    2  A    between atoms: C_3  and  C_15
    3  A    between atoms: C_3  and  N_24
    4  A    between atoms: C_4  and  C_27
    5  A    between atoms: C_5  and  C_27
    6  A    between atoms: C_9  and  C_23
    7  A    between atoms: C_19  and  C_21
    8  A    between atoms: C_20  and  C_27
    9  A    between atoms: N_22  and  C_23
                            x       y       z     vdW  Elec       q    Type
                         _______ _______ _______ _____ _____    ______ ____

>  <TORSDO>
F 9

$$$$
=
 OpenBabel11052422453D

 31 34  0  0  1  0  0  0  0  0999 V2000
  161.8020  211.0570  139.1830 C   0  0  2  0  0  3  0  0  0  0  0  0
  160.9380  211.7840  137.0110 C   0  0  0  0  0  2  0  0  0  0  0  0
  160.6650  210.8570  138.1890 C   0  0  2  0  0  3  0  0  0  0  0  0
  162.8100  211.9730  138.5170 C   0  0  1  0  0  3  0  0  0  0  0  0
  162.0400  212.7250  137.4500 C   0  0  0  0  0  2  0  0  0  0  0  0
  164.5280  213.4470  139.2510 O   0  0  0  0  0  0  0  0  0  0  0  0
  163.4120  212.9160  139.5080 C   0  0  0  0  0  0  0  0  0  0  0  0
  162.7480  213.1780  140.7490 N   0  0  0  0  0  2  0  0  0  0  0  0
  163.2570  214.1250  141.7290 C   0  0  0  0  0  2  0  0  0  0  0  0
  163.7770  213.8870  144.1520 C   0  0  0  0  0  1  0  0  0  0  0  0
  162.6880  213.8120  143.1030 C   0  0  0  0  0  2  0  0  0  0  0  0
  162.4340  209.7270  139.5760 C   0  0  0  0  0  2  0  0  0  0  0  0
  161.4110  208.8590  140.1470 N   0  0  0  0  0  2  0  0  0  0  0  0
  161.6600  207.5030  139.6900 C   0  0  0  0  0  3  0  0  0  0  0  0
  163.0920  207.1230  140.0260 C   0  0  0  0  0  2  0  0  0  0  0  0
  161.9600  206.5900  140.8660 C   0  0  0  0  0  2  0  0  0  0  0  0
  159.3140  211.1280  138.8680 C   0  0  2  0  0  3  0  0  0  0  0  0
  154.3080  210.4390  138.9690 C   0  0  0  0  0  1  0  0  0  0  0  0
  158.1220  211.1810  137.9030 C   0  0  2  0  0  3  0  0  0  0  0  0
  156.5910  209.1940  137.5470 C   0  0  0  0  0  2  0  0  0  0  0  0
  156.5950  211.9700  138.5610 S   0  0  0  0  0  0  0  0  0  0  0  0
  155.7980  210.4640  139.2650 C   0  0  2  0  0  3  0  0  0  0  0  0
  156.4280  209.2430  138.9380 O   0  0  0  0  0  0  0  0  0  0  0  0
  157.9020  209.8600  137.1640 C   0  0  0  0  0  2  0  0  0  0  0  0
  159.3250  212.1320  139.9930 C   0  0  0  0  0  0  0  0  0  0  0  0
  159.1730  214.4530  140.7020 C   0  0  0  0  0  3  0  0  0  0  0  0
  159.2220  213.4930  139.6840 C   0  0  0  0  0  3  0  0  0  0  0  0
  159.2280  214.0540  142.0390 C   0  0  0  0  0  3  0  0  0  0  0  0
  159.4010  212.3030  143.6850 O   0  0  0  0  0  1  0  0  0  0  0  0
  159.3800  211.7380  141.3370 C   0  0  0  0  0  3  0  0  0  0  0  0
  159.3350  212.6980  142.3580 C   0  0  0  0  0  0  0  0  0  0  0  0
  1 12  1  6  0  0  0
  2  5  1  0  0  0  0
  2  3  1  0  0  0  0
  3 17  1  1  0  0  0
  3  1  1  0  0  0  0
  4  1  1  0  0  0  0
  4  7  1  1  0  0  0
  5  4  1  0  0  0  0
  6  7  2  0  0  0  0
  7  8  1  0  0  0  0
  8  9  1  0  0  0  0
  9 11  1  0  0  0  0
 11 10  1  0  0  0  0
 12 13  1  0  0  0  0
 14 15  1  0  0  0  0
 14 13  1  0  0  0  0
 14 16  1  0  0  0  0
 15 16  1  0  0  0  0
 17 25  1  6  0  0  0
 19 21  1  0  0  0  0
 19 17  1  1  0  0  0
 20 23  1  0  0  0  0
 21 22  1  0  0  0  0
 22 18  1  6  0  0  0
 23 22  1  0  0  0  0
 24 20  1  0  0  0  0
 24 19  1  0  0  0  0
 25 30  1  0  0  0  0
 26 28  2  0  0  0  0
 27 25  2  0  0  0  0
 27 26  1  0  0  0  0
 28 31  1  0  0  0  0
 30 31  2  0  0  0  0
 31 29  1  0  0  0  0
M  END
>  <MODEL>
6

>  <REMARK>
 VINA RESULT:      -3.9     11.525     14.470
  Name = 
  9 active torsions:
  status: ('A' for Active; 'I' for Inactive)
    1  A    between atoms: C_1  and  N_24
    2  A    between atoms: C_3  and  C_15
    3  A    between atoms: C_3  and  N_24
    4  A    between atoms: C_4  and  C_27
    5  A    between atoms: C_5  and  C_27
    6  A    between atoms: C_9  and  C_23
    7  A    between atoms: C_19  and  C_21
    8  A    between atoms: C_20  and  C_27
    9  A    between atoms: N_22  and  C_23
                            x       y       z     vdW  Elec       q    Type
                         _______ _______ _______ _____ _____    ______ ____

>  <TORSDO>
F 9

$$$$
=
 OpenBabel11052422453D

 31 34  0  0  1  0  0  0  0  0999 V2000
  161.1570  209.7820  153.3890 C   0  0  2  0  0  3  0  0  0  0  0  0
  161.8640  210.7290  155.5340 C   0  0  0  0  0  2  0  0  0  0  0  0
  161.2690  211.0820  154.1770 C   0  0  2  0  0  3  0  0  0  0  0  0
  161.8300  208.7070  154.2220 C   0  0  1  0  0  3  0  0  0  0  0  0
  161.8110  209.2200  155.6480 C   0  0  0  0  0  2  0  0  0  0  0  0
  160.0640  207.2240  154.8080 O   0  0  0  0  0  0  0  0  0  0  0  0
  161.0990  207.4090  154.1100 C   0  0  0  0  0  0  0  0  0  0  0  0
  161.5940  206.3750  153.2520 N   0  0  0  0  0  2  0  0  0  0  0  0
  160.9000  205.1110  153.0600 C   0  0  0  0  0  2  0  0  0  0  0  0
  160.6290  203.9310  150.8840 C   0  0  0  0  0  1  0  0  0  0  0  0
  161.5990  204.2870  151.9910 C   0  0  0  0  0  2  0  0  0  0  0  0
  161.8060  209.9090  152.0170 C   0  0  0  0  0  2  0  0  0  0  0  0
  161.2140  208.9300  151.1130 N   0  0  0  0  0  2  0  0  0  0  0  0
  162.2850  208.3050  150.3560 C   0  0  0  0  0  3  0  0  0  0  0  0
  161.7150  207.1480  149.5550 C   0  0  0  0  0  2  0  0  0  0  0  0
  162.0380  208.4490  148.8640 C   0  0  0  0  0  2  0  0  0  0  0  0
  159.8950  211.7590  154.2790 C   0  0  2  0  0  3  0  0  0  0  0  0
  155.2800  212.2870  156.2720 C   0  0  0  0  0  1  0  0  0  0  0  0
  158.8070  210.8860  154.9170 C   0  0  2  0  0  3  0  0  0  0  0  0
  157.9140  211.3380  157.2460 C   0  0  0  0  0  2  0  0  0  0  0  0
  157.0780  211.2640  154.4110 S   0  0  0  0  0  0  0  0  0  0  0  0
  156.6800  212.4990  155.7210 C   0  0  2  0  0  3  0  0  0  0  0  0
  157.6450  212.6190  156.7460 O   0  0  0  0  0  0  0  0  0  0  0  0
  159.0140  210.6900  156.4200 C   0  0  0  0  0  2  0  0  0  0  0  0
  159.4830  212.6090  153.1030 C   0  0  0  0  0  0  0  0  0  0  0  0
  158.1510  214.4530  152.2430 C   0  0  0  0  0  3  0  0  0  0  0  0
  158.5200  213.6060  153.2960 C   0  0  0  0  0  3  0  0  0  0  0  0
  158.7460  214.3040  150.9880 C   0  0  0  0  0  3  0  0  0  0  0  0
  160.2860  213.1540  149.5360 O   0  0  0  0  0  1  0  0  0  0  0  0
  160.0760  212.4650  151.8410 C   0  0  0  0  0  3  0  0  0  0  0  0
  159.7050  213.3080  150.7850 C   0  0  0  0  0  0  0  0  0  0  0  0
  1 12  1  6  0  0  0
  1  3  1  0  0  0  0
  1  4  1  0  0  0  0
  2  5  1  0  0  0  0
  3 17  1  1  0  0  0
  3  2  1  0  0  0  0
  4  7  1  1  0  0  0
  4  5  1  0  0  0  0
  7  6  2  0  0  0  0
  8  7  1  0  0  0  0
  9  8  1  0  0  0  0
 10 11  1  0  0  0  0
 11  9  1  0  0  0  0
 13 12  1  0  0  0  0
 14 13  1  0  0  0  0
 15 14  1  0  0  0  0
 16 15  1  0  0  0  0
 16 14  1  0  0  0  0
 17 25  1  6  0  0  0
 19 17  1  1  0  0  0
 19 24  1  0  0  0  0
 21 19  1  0  0  0  0
 21 22  1  0  0  0  0
 22 18  1  1  0  0  0
 22 23  1  0  0  0  0
 23 20  1  0  0  0  0
 24 20  1  0  0  0  0
 25 27  1  0  0  0  0
 26 27  2  0  0  0  0
 28 26  1  0  0  0  0
 29 31  1  0  0  0  0
 30 25  2  0  0  0  0
 31 28  2  0  0  0  0
 31 30  1  0  0  0  0
M  END
>  <MODEL>
7

>  <REMARK>
 VINA RESULT:      -3.9      1.644      3.976
  Name = 
  9 active torsions:
  status: ('A' for Active; 'I' for Inactive)
    1  A    between atoms: C_1  and  N_24
    2  A    between atoms: C_3  and  C_15
    3  A    between atoms: C_3  and  N_24
    4  A    between atoms: C_4  and  C_27
    5  A    between atoms: C_5  and  C_27
    6  A    between atoms: C_9  and  C_23
    7  A    between atoms: C_19  and  C_21
    8  A    between atoms: C_20  and  C_27
    9  A    between atoms: N_22  and  C_23
                            x       y       z     vdW  Elec       q    Type
                         _______ _______ _______ _____ _____    ______ ____

>  <TORSDO>
F 9

$$$$
=
 OpenBabel11052422453D

 31 34  0  0  1  0  0  0  0  0999 V2000
  161.2530  207.4670  152.1080 C   0  0  2  0  0  3  0  0  0  0  0  0
  162.6590  207.8020  150.1310 C   0  0  0  0  0  2  0  0  0  0  0  0
  161.9040  206.7490  150.9320 C   0  0  2  0  0  3  0  0  0  0  0  0
  161.7570  208.8970  152.0790 C   0  0  1  0  0  3  0  0  0  0  0  0
  162.2020  209.1480  150.6530 C   0  0  0  0  0  2  0  0  0  0  0  0
  159.5350  209.4020  152.7680 O   0  0  0  0  0  0  0  0  0  0  0  0
  160.6780  209.8520  152.4790 C   0  0  0  0  0  0  0  0  0  0  0  0
  160.9320  211.2610  152.4930 N   0  0  0  0  0  2  0  0  0  0  0  0
  159.9410  212.2360  152.9230 C   0  0  0  0  0  2  0  0  0  0  0  0
  159.9840  213.3210  150.6830 C   0  0  0  0  0  1  0  0  0  0  0  0
  159.1030  212.6870  151.7390 C   0  0  0  0  0  2  0  0  0  0  0  0
  161.5890  206.7850  153.4280 C   0  0  0  0  0  2  0  0  0  0  0  0
  160.4590  206.9190  154.3390 N   0  0  0  0  0  2  0  0  0  0  0  0
  160.9320  207.5550  155.5570 C   0  0  0  0  0  3  0  0  0  0  0  0
  159.8520  208.4850  156.0820 C   0  0  0  0  0  2  0  0  0  0  0  0
  160.0720  207.1470  156.7400 C   0  0  0  0  0  2  0  0  0  0  0  0
  160.8400  206.0120  150.1060 C   0  0  2  0  0  3  0  0  0  0  0  0
  162.3230  201.5440  151.9450 C   0  0  0  0  0  1  0  0  0  0  0  0
  160.2280  204.7930  150.8070 C   0  0  2  0  0  3  0  0  0  0  0  0
  160.4280  202.4530  149.8540 C   0  0  0  0  0  2  0  0  0  0  0  0
  161.2170  204.0850  152.1900 S   0  0  0  0  0  0  0  0  0  0  0  0
  162.2070  202.8720  151.2160 C   0  0  2  0  0  3  0  0  0  0  0  0
  161.8050  202.7100  149.8710 O   0  0  0  0  0  0  0  0  0  0  0  0
  159.6650  203.7670  149.8220 C   0  0  0  0  0  2  0  0  0  0  0  0
  161.1190  205.8800  148.6290 C   0  0  0  0  0  0  0  0  0  0  0  0
  160.4710  206.3960  146.3430 C   0  0  0  0  0  3  0  0  0  0  0  0
  160.2210  206.4490  147.7200 C   0  0  0  0  0  3  0  0  0  0  0  0
  161.6270  205.7710  145.8690 C   0  0  0  0  0  3  0  0  0  0  0  0
  163.6680  204.5660  146.2970 O   0  0  0  0  0  1  0  0  0  0  0  0
  162.2760  205.2540  148.1470 C   0  0  0  0  0  3  0  0  0  0  0  0
  162.5280  205.1960  146.7700 C   0  0  0  0  0  0  0  0  0  0  0  0
  1 12  1  1  0  0  0
  2  5  1  0  0  0  0
  2  3  1  0  0  0  0
  3 17  1  6  0  0  0
  3  1  1  0  0  0  0
  4  1  1  0  0  0  0
  4  7  1  6  0  0  0
  5  4  1  0  0  0  0
  7  8  1  0  0  0  0
  7  6  2  0  0  0  0
  8  9  1  0  0  0  0
 10 11  1  0  0  0  0
 11  9  1  0  0  0  0
 12 13  1  0  0  0  0
 13 14  1  0  0  0  0
 14 15  1  0  0  0  0
 14 16  1  0  0  0  0
 15 16  1  0  0  0  0
 17 25  1  6  0  0  0
 19 17  1  6  0  0  0
 19 21  1  0  0  0  0
 20 23  1  0  0  0  0
 22 18  1  1  0  0  0
 22 21  1  0  0  0  0
 23 22  1  0  0  0  0
 24 20  1  0  0  0  0
 24 19  1  0  0  0  0
 26 27  1  0  0  0  0
 27 25  2  0  0  0  0
 28 26  2  0  0  0  0
 28 31  1  0  0  0  0
 29 31  1  0  0  0  0
 30 25  1  0  0  0  0
 31 30  2  0  0  0  0
M  END
>  <MODEL>
8

>  <REMARK>
 VINA RESULT:      -3.8      3.975      9.060
  Name = 
  9 active torsions:
  status: ('A' for Active; 'I' for Inactive)
    1  A    between atoms: C_1  and  N_24
    2  A    between atoms: C_3  and  C_15
    3  A    between atoms: C_3  and  N_24
    4  A    between atoms: C_4  and  C_27
    5  A    between atoms: C_5  and  C_27
    6  A    between atoms: C_9  and  C_23
    7  A    between atoms: C_19  and  C_21
    8  A    between atoms: C_20  and  C_27
    9  A    between atoms: N_22  and  C_23
                            x       y       z     vdW  Elec       q    Type
                         _______ _______ _______ _____ _____    ______ ____

>  <TORSDO>
F 9

$$$$
=
 OpenBabel11052422453D

 31 34  0  0  1  0  0  0  0  0999 V2000
  160.7420  211.2580  151.7510 C   0  0  2  0  0  3  0  0  0  0  0  0
  162.6580  210.2040  152.8540 C   0  0  0  0  0  2  0  0  0  0  0  0
  161.2060  210.6220  153.0560 C   0  0  2  0  0  3  0  0  0  0  0  0
  161.9600  211.3530  150.8530 C   0  0  1  0  0  3  0  0  0  0  0  0
  162.9340  210.3130  151.3690 C   0  0  0  0  0  2  0  0  0  0  0  0
  161.7330  209.9190  148.9670 O   0  0  0  0  0  0  0  0  0  0  0  0
  161.5960  211.0860  149.4280 C   0  0  0  0  0  0  0  0  0  0  0  0
  161.1380  212.1520  148.5900 N   0  0  0  0  0  2  0  0  0  0  0  0
  160.7190  211.9460  147.2120 C   0  0  0  0  0  2  0  0  0  0  0  0
  160.8500  212.8310  144.8880 C   0  0  0  0  0  1  0  0  0  0  0  0
  161.2660  213.0530  146.3270 C   0  0  0  0  0  2  0  0  0  0  0  0
  160.1210  212.6280  151.9930 C   0  0  0  0  0  2  0  0  0  0  0  0
  158.7120  212.5900  151.6200 N   0  0  0  0  0  2  0  0  0  0  0  0
  158.4600  213.6770  150.6910 C   0  0  0  0  0  3  0  0  0  0  0  0
  157.4850  213.2030  149.6270 C   0  0  0  0  0  2  0  0  0  0  0  0
  157.0000  214.0950  150.7420 C   0  0  0  0  0  2  0  0  0  0  0  0
  160.2880  209.4490  153.4300 C   0  0  2  0  0  3  0  0  0  0  0  0
  158.6890  212.9280  156.7290 C   0  0  0  0  0  1  0  0  0  0  0  0
  159.7300  209.5150  154.8570 C   0  0  2  0  0  3  0  0  0  0  0  0
  160.8400  210.8900  156.6740 C   0  0  0  0  0  2  0  0  0  0  0  0
  158.3350  210.6880  155.1170 S   0  0  0  0  0  0  0  0  0  0  0  0
  159.3210  212.1790  155.5680 C   0  0  2  0  0  3  0  0  0  0  0  0
  160.7010  211.9490  155.7680 O   0  0  0  0  0  0  0  0  0  0  0  0
  160.8290  209.5710  155.9190 C   0  0  0  0  0  2  0  0  0  0  0  0
  160.7060  208.0910  152.9240 C   0  0  0  0  0  0  0  0  0  0  0  0
  161.3560  205.8020  153.4260 C   0  0  0  0  0  3  0  0  0  0  0  0
  161.0180  207.0920  153.8530 C   0  0  0  0  0  3  0  0  0  0  0  0
  161.3860  205.5050  152.0610 C   0  0  0  0  0  3  0  0  0  0  0  0
  161.1200  206.2060  149.7710 O   0  0  0  0  0  1  0  0  0  0  0  0
  160.7370  207.7870  151.5560 C   0  0  0  0  0  3  0  0  0  0  0  0
  161.0800  206.4980  151.1260 C   0  0  0  0  0  0  0  0  0  0  0  0
  1 12  1  1  0  0  0
  1  3  1  0  0  0  0
  2  3  1  0  0  0  0
  3 17  1  6  0  0  0
  4  7  1  6  0  0  0
  4  5  1  0  0  0  0
  4  1  1  0  0  0  0
  5  2  1  0  0  0  0
  6  7  2  0  0  0  0
  8  7  1  0  0  0  0
  9  8  1  0  0  0  0
 10 11  1  0  0  0  0
 11  9  1  0  0  0  0
 13 12  1  0  0  0  0
 14 16  1  0  0  0  0
 14 13  1  0  0  0  0
 15 14  1  0  0  0  0
 15 16  1  0  0  0  0
 17 25  1  1  0  0  0
 19 17  1  6  0  0  0
 19 21  1  0  0  0  0
 19 24  1  0  0  0  0
 21 22  1  0  0  0  0
 22 23  1  0  0  0  0
 22 18  1  1  0  0  0
 23 20  1  0  0  0  0
 24 20  1  0  0  0  0
 25 27  1  0  0  0  0
 26 27  2  0  0  0  0
 28 26  1  0  0  0  0
 29 31  1  0  0  0  0
 30 25  2  0  0  0  0
 31 30  1  0  0  0  0
 31 28  2  0  0  0  0
M  END
>  <MODEL>
9

>  <REMARK>
 VINA RESULT:      -3.8      2.835      6.726
  Name = 
  9 active torsions:
  status: ('A' for Active; 'I' for Inactive)
    1  A    between atoms: C_1  and  N_24
    2  A    between atoms: C_3  and  C_15
    3  A    between atoms: C_3  and  N_24
    4  A    between atoms: C_4  and  C_27
    5  A    between atoms: C_5  and  C_27
    6  A    between atoms: C_9  and  C_23
    7  A    between atoms: C_19  and  C_21
    8  A    between atoms: C_20  and  C_27
    9  A    between atoms: N_22  and  C_23
                            x       y       z     vdW  Elec       q    Type
                         _______ _______ _______ _____ _____    ______ ____

>  <TORSDO>
F 9

$$$$
