=
 OpenBabel11052422163D

 25 28  0  0  1  0  0  0  0  0999 V2000
  161.3710  205.2950  149.2330 C   0  0  0  0  0  0  0  0  0  0  0  0
  161.3840  206.2440  150.2760 C   0  0  0  0  0  0  0  0  0  0  0  0
  161.8520  207.0370  147.5920 C   0  0  0  0  0  3  0  0  0  0  0  0
  161.1450  203.9060  149.3120 C   0  0  0  0  0  0  0  0  0  0  0  0
  160.7510  201.1490  149.0690 C   0  0  0  0  0  3  0  0  0  0  0  0
  161.8680  207.9850  148.6200 C   0  0  0  0  0  3  0  0  0  0  0  0
  161.2080  203.2780  148.0690 C   0  0  0  0  0  0  0  0  0  0  0  0
  161.0150  201.9070  147.9200 C   0  0  0  0  0  3  0  0  0  0  0  0
  161.6550  208.5560  150.9930 C   0  0  0  0  0  0  0  0  0  0  0  0
  161.9690  210.2580  150.6770 Cl  0  0  0  0  0  0  0  0  0  0  0  0
  161.1570  205.8880  151.6100 C   0  0  0  0  0  3  0  0  0  0  0  0
  160.6840  201.7660  150.3320 C   0  0  0  0  0  3  0  0  0  0  0  0
  161.6030  205.7090  147.9200 C   0  0  0  0  0  0  0  0  0  0  0  0
  161.5360  204.4010  146.8580 S   0  0  0  0  0  0  0  0  0  0  0  0
  161.4300  208.1640  152.2760 N   0  0  0  0  0  0  0  0  0  0  0  0
  160.8810  203.1490  150.4590 C   0  0  0  0  0  3  0  0  0  0  0  0
  161.1770  206.8680  152.6010 C   0  0  0  0  0  0  0  0  0  0  0  0
  161.6370  207.6060  149.9570 C   0  0  0  0  0  0  0  0  0  0  0  0
  160.9640  206.4870  154.0230 C   0  0  0  0  0  2  0  0  0  0  0  0
  161.2420  207.6260  154.8810 N   0  0  0  0  0  2  0  0  0  0  0  0
  160.0590  207.8450  155.6980 C   0  0  1  0  0  3  0  0  0  0  0  0
  160.1640  207.0460  156.9860 C   0  0  0  0  0  1  0  0  0  0  0  0
  159.9100  209.2980  156.0050 C   0  0  0  0  0  0  0  0  0  0  0  0
  160.0140  209.7180  157.1890 O   0  0  0  0  0  0  0  0  0  0  0  0
  159.6380  210.2150  154.9510 N   0  0  0  0  0  1  0  0  0  0  0  0
  1  4  1  0  0  0  0
  1  2  2  0  0  0  0
  2 11  1  0  0  0  0
  3 13  2  0  0  0  0
  3  6  1  0  0  0  0
  4 16  1  0  0  0  0
  5 12  1  0  0  0  0
  6 18  2  0  0  0  0
  7  4  2  0  0  0  0
  8  7  1  0  0  0  0
  8  5  2  0  0  0  0
  9 15  2  0  0  0  0
 10  9  1  0  0  0  0
 11 17  2  0  0  0  0
 12 16  2  0  0  0  0
 13  1  1  0  0  0  0
 14 13  1  0  0  0  0
 14  7  1  0  0  0  0
 15 17  1  0  0  0  0
 17 19  1  0  0  0  0
 18  2  1  0  0  0  0
 18  9  1  0  0  0  0
 19 20  1  0  0  0  0
 20 21  1  0  0  0  0
 21 23  1  0  0  0  0
 21 22  1  1  0  0  0
 23 24  2  0  0  0  0
 25 23  1  0  0  0  0
M  END
>  <MODEL>
1

>  <REMARK>
 VINA RESULT:      -9.9      0.000      0.000
  Name = 
  4 active torsions:
  status: ('A' for Active; 'I' for Inactive)
    1  A    between atoms: C_2  and  C_21
    2  A    between atoms: C_6  and  N_15
    3  A    between atoms: C_6  and  C_23
    4  A    between atoms: N_15  and  C_21
                            x       y       z     vdW  Elec       q    Type
                         _______ _______ _______ _____ _____    ______ ____

>  <TORSDO>
F 4

$$$$
=
 OpenBabel11052422163D

 25 28  0  0  1  0  0  0  0  0999 V2000
  161.1750  204.7160  149.5810 C   0  0  0  0  0  0  0  0  0  0  0  0
  161.3370  206.0540  149.9990 C   0  0  0  0  0  0  0  0  0  0  0  0
  160.8200  203.9990  151.8870 C   0  0  0  0  0  3  0  0  0  0  0  0
  161.2330  204.1910  148.2750 C   0  0  0  0  0  0  0  0  0  0  0  0
  161.2720  202.7920  145.8540 C   0  0  0  0  0  3  0  0  0  0  0  0
  160.9780  205.3230  152.3120 C   0  0  0  0  0  3  0  0  0  0  0  0
  161.0240  202.8130  148.2380 C   0  0  0  0  0  0  0  0  0  0  0  0
  161.0390  202.0930  147.0470 C   0  0  0  0  0  3  0  0  0  0  0  0
  161.3910  207.6850  151.8070 C   0  0  0  0  0  0  0  0  0  0  0  0
  161.2710  208.1330  153.5030 Cl  0  0  0  0  0  0  0  0  0  0  0  0
  161.5930  207.0900  149.0960 C   0  0  0  0  0  3  0  0  0  0  0  0
  161.4850  204.1830  145.8730 C   0  0  0  0  0  3  0  0  0  0  0  0
  160.9220  203.7230  150.5290 C   0  0  0  0  0  0  0  0  0  0  0  0
  160.7680  202.2150  149.7910 S   0  0  0  0  0  0  0  0  0  0  0  0
  161.6380  208.6610  150.8930 N   0  0  0  0  0  0  0  0  0  0  0  0
  161.4660  204.8900  147.0850 C   0  0  0  0  0  3  0  0  0  0  0  0
  161.7490  208.3940  149.5640 C   0  0  0  0  0  0  0  0  0  0  0  0
  161.2350  206.3530  151.3840 C   0  0  0  0  0  0  0  0  0  0  0  0
  161.9930  209.5020  148.6020 C   0  0  0  0  0  2  0  0  0  0  0  0
  162.1350  210.7540  149.3240 N   0  0  0  0  0  2  0  0  0  0  0  0
  161.5820  211.8010  148.4800 C   0  0  1  0  0  3  0  0  0  0  0  0
  160.8980  212.8520  149.3380 C   0  0  0  0  0  1  0  0  0  0  0  0
  162.6630  212.4270  147.6640 C   0  0  0  0  0  0  0  0  0  0  0  0
  163.8510  212.4530  148.0840 O   0  0  0  0  0  0  0  0  0  0  0  0
  162.3470  213.0090  146.4050 N   0  0  0  0  0  1  0  0  0  0  0  0
  1  2  2  0  0  0  0
  1 13  1  0  0  0  0
  2 18  1  0  0  0  0
  3  6  1  0  0  0  0
  4  1  1  0  0  0  0
  5 12  2  0  0  0  0
  5  8  1  0  0  0  0
  7  4  1  0  0  0  0
  7 14  1  0  0  0  0
  8  7  2  0  0  0  0
  9 10  1  0  0  0  0
 11 17  2  0  0  0  0
 11  2  1  0  0  0  0
 12 16  1  0  0  0  0
 13  3  2  0  0  0  0
 14 13  1  0  0  0  0
 15  9  2  0  0  0  0
 16  4  2  0  0  0  0
 17 15  1  0  0  0  0
 18  9  1  0  0  0  0
 18  6  2  0  0  0  0
 19 20  1  0  0  0  0
 19 17  1  0  0  0  0
 21 20  1  0  0  0  0
 21 22  1  1  0  0  0
 23 24  2  0  0  0  0
 23 21  1  0  0  0  0
 25 23  1  0  0  0  0
M  END
>  <MODEL>
2

>  <REMARK>
 VINA RESULT:      -9.6      3.412      5.280
  Name = 
  4 active torsions:
  status: ('A' for Active; 'I' for Inactive)
    1  A    between atoms: C_2  and  C_21
    2  A    between atoms: C_6  and  N_15
    3  A    between atoms: C_6  and  C_23
    4  A    between atoms: N_15  and  C_21
                            x       y       z     vdW  Elec       q    Type
                         _______ _______ _______ _____ _____    ______ ____

>  <TORSDO>
F 4

$$$$
=
 OpenBabel11052422163D

 25 28  0  0  1  0  0  0  0  0999 V2000
  161.3550  205.8980  150.9050 C   0  0  0  0  0  0  0  0  0  0  0  0
  161.5490  207.2950  150.9320 C   0  0  0  0  0  0  0  0  0  0  0  0
  161.1820  205.8380  153.3390 C   0  0  0  0  0  3  0  0  0  0  0  0
  161.3110  205.0370  149.7900 C   0  0  0  0  0  0  0  0  0  0  0  0
  161.1610  203.0360  147.8430 C   0  0  0  0  0  3  0  0  0  0  0  0
  161.3720  207.2240  153.3760 C   0  0  0  0  0  3  0  0  0  0  0  0
  161.1000  203.7050  150.1440 C   0  0  0  0  0  0  0  0  0  0  0  0
  161.0220  202.6900  149.1950 C   0  0  0  0  0  3  0  0  0  0  0  0
  161.7440  209.3520  152.2200 C   0  0  0  0  0  0  0  0  0  0  0  0
  161.7570  210.2450  153.7350 Cl  0  0  0  0  0  0  0  0  0  0  0  0
  161.7330  208.0420  149.7640 C   0  0  0  0  0  3  0  0  0  0  0  0
  161.3740  204.3750  147.4680 C   0  0  0  0  0  3  0  0  0  0  0  0
  161.1780  205.2030  152.1030 C   0  0  0  0  0  0  0  0  0  0  0  0
  160.9670  203.5550  151.8150 S   0  0  0  0  0  0  0  0  0  0  0  0
  161.9180  210.0390  151.0590 N   0  0  0  0  0  0  0  0  0  0  0  0
  161.4500  205.3840  148.4410 C   0  0  0  0  0  3  0  0  0  0  0  0
  161.9240  209.4210  149.8480 C   0  0  0  0  0  0  0  0  0  0  0  0
  161.5560  207.9590  152.1870 C   0  0  0  0  0  0  0  0  0  0  0  0
  162.0920  210.2220  148.6060 C   0  0  0  0  0  2  0  0  0  0  0  0
  162.1500  211.6350  148.9400 N   0  0  0  0  0  2  0  0  0  0  0  0
  161.4330  212.3510  147.8970 C   0  0  1  0  0  3  0  0  0  0  0  0
  160.2800  213.1320  148.5040 C   0  0  0  0  0  1  0  0  0  0  0  0
  162.3600  213.2760  147.1810 C   0  0  0  0  0  0  0  0  0  0  0  0
  162.6560  213.0780  145.9720 O   0  0  0  0  0  0  0  0  0  0  0  0
  162.9230  214.3840  147.8730 N   0  0  0  0  0  1  0  0  0  0  0  0
  1  2  2  0  0  0  0
  1 13  1  0  0  0  0
  2 18  1  0  0  0  0
  3  6  1  0  0  0  0
  4  7  1  0  0  0  0
  4  1  1  0  0  0  0
  5  8  1  0  0  0  0
  7 14  1  0  0  0  0
  8  7  2  0  0  0  0
  9 10  1  0  0  0  0
 11 17  2  0  0  0  0
 11  2  1  0  0  0  0
 12  5  2  0  0  0  0
 12 16  1  0  0  0  0
 13  3  2  0  0  0  0
 14 13  1  0  0  0  0
 15  9  2  0  0  0  0
 16  4  2  0  0  0  0
 17 15  1  0  0  0  0
 18  9  1  0  0  0  0
 18  6  2  0  0  0  0
 19 20  1  0  0  0  0
 19 17  1  0  0  0  0
 21 22  1  1  0  0  0
 21 20  1  0  0  0  0
 23 25  1  0  0  0  0
 23 21  1  0  0  0  0
 24 23  2  0  0  0  0
M  END
>  <MODEL>
3

>  <REMARK>
 VINA RESULT:      -9.2      3.831      5.660
  Name = 
  4 active torsions:
  status: ('A' for Active; 'I' for Inactive)
    1  A    between atoms: C_2  and  C_21
    2  A    between atoms: C_6  and  N_15
    3  A    between atoms: C_6  and  C_23
    4  A    between atoms: N_15  and  C_21
                            x       y       z     vdW  Elec       q    Type
                         _______ _______ _______ _____ _____    ______ ____

>  <TORSDO>
F 4

$$$$
=
 OpenBabel11052422163D

 25 28  0  0  1  0  0  0  0  0999 V2000
  161.0900  206.5930  152.0050 C   0  0  0  0  0  0  0  0  0  0  0  0
  161.1050  205.9150  150.7680 C   0  0  0  0  0  0  0  0  0  0  0  0
  160.8950  204.4760  153.2050 C   0  0  0  0  0  3  0  0  0  0  0  0
  161.1690  207.9780  152.2490 C   0  0  0  0  0  0  0  0  0  0  0  0
  161.3030  210.6310  153.1220 C   0  0  0  0  0  3  0  0  0  0  0  0
  160.9090  203.7950  151.9830 C   0  0  0  0  0  3  0  0  0  0  0  0
  161.1250  208.2910  153.6070 C   0  0  0  0  0  0  0  0  0  0  0  0
  161.1900  209.6030  154.0680 C   0  0  0  0  0  3  0  0  0  0  0  0
  161.0310  203.8150  149.5360 C   0  0  0  0  0  0  0  0  0  0  0  0
  160.9290  202.0610  149.4540 Cl  0  0  0  0  0  0  0  0  0  0  0  0
  161.2070  206.5920  149.5490 C   0  0  0  0  0  3  0  0  0  0  0  0
  161.3490  210.3340  151.7470 C   0  0  0  0  0  3  0  0  0  0  0  0
  160.9850  205.8630  153.1910 C   0  0  0  0  0  0  0  0  0  0  0  0
  160.9890  206.8890  154.5290 S   0  0  0  0  0  0  0  0  0  0  0  0
  161.1320  204.5150  148.3750 N   0  0  0  0  0  0  0  0  0  0  0  0
  161.2820  209.0040  151.3030 C   0  0  0  0  0  3  0  0  0  0  0  0
  161.2120  205.8730  148.3550 C   0  0  0  0  0  0  0  0  0  0  0  0
  161.0130  204.4970  150.7660 C   0  0  0  0  0  0  0  0  0  0  0  0
  161.3490  206.5900  147.0590 C   0  0  0  0  0  2  0  0  0  0  0  0
  160.3370  206.1170  146.1300 N   0  0  0  0  0  2  0  0  0  0  0  0
  161.0350  205.5320  144.9970 C   0  0  1  0  0  3  0  0  0  0  0  0
  162.5370  205.6370  145.2020 C   0  0  0  0  0  1  0  0  0  0  0  0
  160.6370  204.1030  144.8320 C   0  0  0  0  0  0  0  0  0  0  0  0
  159.6410  203.7920  144.1250 O   0  0  0  0  0  0  0  0  0  0  0  0
  161.3840  203.0850  145.4870 N   0  0  0  0  0  1  0  0  0  0  0  0
  1  4  1  0  0  0  0
  1 13  2  0  0  0  0
  2  1  1  0  0  0  0
  4  7  1  0  0  0  0
  5  8  1  0  0  0  0
  6  3  2  0  0  0  0
  7  8  2  0  0  0  0
  7 14  1  0  0  0  0
  9 18  2  0  0  0  0
 10  9  1  0  0  0  0
 11  2  2  0  0  0  0
 12  5  2  0  0  0  0
 13  3  1  0  0  0  0
 13 14  1  0  0  0  0
 15  9  1  0  0  0  0
 16 12  1  0  0  0  0
 16  4  2  0  0  0  0
 17 15  2  0  0  0  0
 17 11  1  0  0  0  0
 18  2  1  0  0  0  0
 18  6  1  0  0  0  0
 19 17  1  0  0  0  0
 20 19  1  0  0  0  0
 21 22  1  1  0  0  0
 21 20  1  0  0  0  0
 23 21  1  0  0  0  0
 23 25  1  0  0  0  0
 24 23  2  0  0  0  0
M  END
>  <MODEL>
4

>  <REMARK>
 VINA RESULT:      -9.1      4.720      8.058
  Name = 
  4 active torsions:
  status: ('A' for Active; 'I' for Inactive)
    1  A    between atoms: C_2  and  C_21
    2  A    between atoms: C_6  and  N_15
    3  A    between atoms: C_6  and  C_23
    4  A    between atoms: N_15  and  C_21
                            x       y       z     vdW  Elec       q    Type
                         _______ _______ _______ _____ _____    ______ ____

>  <TORSDO>
F 4

$$$$
=
 OpenBabel11052422163D

 25 28  0  0  1  0  0  0  0  0999 V2000
  161.5070  207.2420  151.0780 C   0  0  0  0  0  0  0  0  0  0  0  0
  161.3630  205.8990  150.6720 C   0  0  0  0  0  0  0  0  0  0  0  0
  161.2460  206.6000  153.4190 C   0  0  0  0  0  3  0  0  0  0  0  0
  161.7150  208.3850  150.2810 C   0  0  0  0  0  0  0  0  0  0  0  0
  162.1310  210.8580  149.0430 C   0  0  0  0  0  3  0  0  0  0  0  0
  161.1040  205.2650  153.0250 C   0  0  0  0  0  3  0  0  0  0  0  0
  161.8100  209.5570  151.0300 C   0  0  0  0  0  0  0  0  0  0  0  0
  162.0170  210.8000  150.4390 C   0  0  0  0  0  3  0  0  0  0  0  0
  161.0200  203.5620  151.2650 C   0  0  0  0  0  0  0  0  0  0  0  0
  160.7730  202.2740  152.4360 Cl  0  0  0  0  0  0  0  0  0  0  0  0
  161.4160  205.5200  149.3270 C   0  0  0  0  0  3  0  0  0  0  0  0
  162.0370  209.6850  148.2710 C   0  0  0  0  0  3  0  0  0  0  0  0
  161.4440  207.5630  152.4360 C   0  0  0  0  0  0  0  0  0  0  0  0
  161.6410  209.2210  152.6710 S   0  0  0  0  0  0  0  0  0  0  0  0
  161.0790  203.2390  149.9450 N   0  0  0  0  0  0  0  0  0  0  0  0
  161.8290  208.4410  148.8870 C   0  0  0  0  0  3  0  0  0  0  0  0
  161.2640  204.1780  148.9790 C   0  0  0  0  0  0  0  0  0  0  0  0
  161.1600  204.9040  151.6640 C   0  0  0  0  0  0  0  0  0  0  0  0
  161.3480  203.7690  147.5520 C   0  0  0  0  0  2  0  0  0  0  0  0
  161.9780  204.8240  146.7770 N   0  0  0  0  0  2  0  0  0  0  0  0
  161.8680  204.4510  145.3760 C   0  0  1  0  0  3  0  0  0  0  0  0
  161.1300  203.1300  145.2470 C   0  0  0  0  0  1  0  0  0  0  0  0
  161.1520  205.5180  144.6170 C   0  0  0  0  0  0  0  0  0  0  0  0
  161.4180  205.7300  143.4040 O   0  0  0  0  0  0  0  0  0  0  0  0
  160.1670  206.3080  145.2730 N   0  0  0  0  0  1  0  0  0  0  0  0
  1 13  1  0  0  0  0
  2  1  2  0  0  0  0
  2 18  1  0  0  0  0
  4  7  1  0  0  0  0
  4  1  1  0  0  0  0
  5  8  1  0  0  0  0
  6  3  1  0  0  0  0
  7 14  1  0  0  0  0
  8  7  2  0  0  0  0
  9 18  1  0  0  0  0
  9 10  1  0  0  0  0
 11  2  1  0  0  0  0
 12 16  1  0  0  0  0
 12  5  2  0  0  0  0
 13 14  1  0  0  0  0
 13  3  2  0  0  0  0
 15  9  2  0  0  0  0
 16  4  2  0  0  0  0
 17 11  2  0  0  0  0
 17 15  1  0  0  0  0
 18  6  2  0  0  0  0
 19 17  1  0  0  0  0
 20 19  1  0  0  0  0
 21 22  1  1  0  0  0
 21 20  1  0  0  0  0
 23 25  1  0  0  0  0
 23 21  1  0  0  0  0
 24 23  2  0  0  0  0
M  END
>  <MODEL>
5

>  <REMARK>
 VINA RESULT:      -8.7      4.686      7.808
  Name = 
  4 active torsions:
  status: ('A' for Active; 'I' for Inactive)
    1  A    between atoms: C_2  and  C_21
    2  A    between atoms: C_6  and  N_15
    3  A    between atoms: C_6  and  C_23
    4  A    between atoms: N_15  and  C_21
                            x       y       z     vdW  Elec       q    Type
                         _______ _______ _______ _____ _____    ______ ____

>  <TORSDO>
F 4

$$$$
=
 OpenBabel11052422163D

 25 28  0  0  1  0  0  0  0  0999 V2000
  161.4090  207.7950  151.2540 C   0  0  0  0  0  0  0  0  0  0  0  0
  161.3680  206.7150  150.3470 C   0  0  0  0  0  0  0  0  0  0  0  0
  162.0110  209.3310  149.4550 C   0  0  0  0  0  3  0  0  0  0  0  0
  161.1640  207.7880  152.6420 C   0  0  0  0  0  0  0  0  0  0  0  0
  160.7510  208.1680  155.3810 C   0  0  0  0  0  3  0  0  0  0  0  0
  161.9720  208.2670  148.5480 C   0  0  0  0  0  3  0  0  0  0  0  0
  161.2970  209.0490  153.2200 C   0  0  0  0  0  0  0  0  0  0  0  0
  161.0970  209.2660  154.5810 C   0  0  0  0  0  3  0  0  0  0  0  0
  161.6100  205.8910  148.0690 C   0  0  0  0  0  0  0  0  0  0  0  0
  161.9450  206.1210  146.3570 Cl  0  0  0  0  0  0  0  0  0  0  0  0
  161.0550  205.4140  150.7540 C   0  0  0  0  0  3  0  0  0  0  0  0
  160.6130  206.8870  154.8140 C   0  0  0  0  0  3  0  0  0  0  0  0
  161.7290  209.0730  150.7910 C   0  0  0  0  0  0  0  0  0  0  0  0
  161.7150  210.1900  152.0540 S   0  0  0  0  0  0  0  0  0  0  0  0
  161.3000  204.6420  148.5080 N   0  0  0  0  0  0  0  0  0  0  0  0
  160.8190  206.6910  153.4400 C   0  0  0  0  0  3  0  0  0  0  0  0
  161.0330  204.3830  149.8160 C   0  0  0  0  0  0  0  0  0  0  0  0
  161.6540  206.9630  148.9780 C   0  0  0  0  0  0  0  0  0  0  0  0
  160.6720  203.0040  150.2410 C   0  0  0  0  0  2  0  0  0  0  0  0
  161.5860  202.0510  149.6350 N   0  0  0  0  0  2  0  0  0  0  0  0
  160.7780  200.9910  149.0550 C   0  0  1  0  0  3  0  0  0  0  0  0
  159.3020  201.3110  149.2250 C   0  0  0  0  0  1  0  0  0  0  0  0
  161.1060  200.8300  147.6080 C   0  0  0  0  0  0  0  0  0  0  0  0
  161.6380  199.7690  147.1850 O   0  0  0  0  0  0  0  0  0  0  0  0
  160.8250  201.8900  146.7010 N   0  0  0  0  0  1  0  0  0  0  0  0
  1  4  1  0  0  0  0
  2 11  1  0  0  0  0
  2  1  1  0  0  0  0
  3 13  1  0  0  0  0
  4  7  2  0  0  0  0
  4 16  1  0  0  0  0
  6 18  1  0  0  0  0
  6  3  2  0  0  0  0
  7  8  1  0  0  0  0
  8  5  2  0  0  0  0
  9 15  2  0  0  0  0
  9 18  1  0  0  0  0
 10  9  1  0  0  0  0
 12  5  1  0  0  0  0
 13  1  2  0  0  0  0
 13 14  1  0  0  0  0
 14  7  1  0  0  0  0
 15 17  1  0  0  0  0
 16 12  2  0  0  0  0
 17 19  1  0  0  0  0
 17 11  2  0  0  0  0
 18  2  2  0  0  0  0
 20 19  1  0  0  0  0
 21 22  1  6  0  0  0
 21 20  1  0  0  0  0
 23 21  1  0  0  0  0
 24 23  2  0  0  0  0
 25 23  1  0  0  0  0
M  END
>  <MODEL>
6

>  <REMARK>
 VINA RESULT:      -8.7      4.342      7.184
  Name = 
  4 active torsions:
  status: ('A' for Active; 'I' for Inactive)
    1  A    between atoms: C_2  and  C_21
    2  A    between atoms: C_6  and  N_15
    3  A    between atoms: C_6  and  C_23
    4  A    between atoms: N_15  and  C_21
                            x       y       z     vdW  Elec       q    Type
                         _______ _______ _______ _____ _____    ______ ____

>  <TORSDO>
F 4

$$$$
=
 OpenBabel11052422163D

 25 28  0  0  1  0  0  0  0  0999 V2000
  161.3930  205.3630  149.1220 C   0  0  0  0  0  0  0  0  0  0  0  0
  161.4000  206.4780  149.9860 C   0  0  0  0  0  0  0  0  0  0  0  0
  161.9310  206.7910  147.2160 C   0  0  0  0  0  3  0  0  0  0  0  0
  161.1450  204.0120  149.4330 C   0  0  0  0  0  0  0  0  0  0  0  0
  160.7150  201.2580  149.6600 C   0  0  0  0  0  3  0  0  0  0  0  0
  161.9410  207.9020  148.0650 C   0  0  0  0  0  3  0  0  0  0  0  0
  161.2220  203.1780  148.3180 C   0  0  0  0  0  0  0  0  0  0  0  0
  161.0120  201.8050  148.4040 C   0  0  0  0  0  3  0  0  0  0  0  0
  161.6920  208.8760  150.3000 C   0  0  0  0  0  0  0  0  0  0  0  0
  162.0370  210.4940  149.7020 Cl  0  0  0  0  0  0  0  0  0  0  0  0
  161.1430  206.3600  151.3550 C   0  0  0  0  0  3  0  0  0  0  0  0
  160.6330  202.0840  150.7960 C   0  0  0  0  0  3  0  0  0  0  0  0
  161.6560  205.5420  147.7620 C   0  0  0  0  0  0  0  0  0  0  0  0
  161.5900  204.0720  146.9400 S   0  0  0  0  0  0  0  0  0  0  0  0
  161.4370  208.7130  151.6260 N   0  0  0  0  0  0  0  0  0  0  0  0
  160.8480  203.4670  150.6880 C   0  0  0  0  0  3  0  0  0  0  0  0
  161.1590  207.4960  152.1640 C   0  0  0  0  0  0  0  0  0  0  0  0
  161.6790  207.7610  149.4430 C   0  0  0  0  0  0  0  0  0  0  0  0
  160.9130  207.3680  153.6250 C   0  0  0  0  0  2  0  0  0  0  0  0
  161.5930  208.4400  154.3310 N   0  0  0  0  0  2  0  0  0  0  0  0
  160.7610  208.8010  155.4670 C   0  0  1  0  0  3  0  0  0  0  0  0
  159.3160  208.4220  155.1930 C   0  0  0  0  0  1  0  0  0  0  0  0
  161.2490  208.1130  156.6990 C   0  0  0  0  0  0  0  0  0  0  0  0
  162.3150  208.4830  157.2610 O   0  0  0  0  0  0  0  0  0  0  0  0
  160.5090  207.0230  157.2350 N   0  0  0  0  0  1  0  0  0  0  0  0
  1  4  1  0  0  0  0
  1  2  2  0  0  0  0
  2 11  1  0  0  0  0
  3 13  2  0  0  0  0
  3  6  1  0  0  0  0
  4 16  1  0  0  0  0
  5 12  1  0  0  0  0
  6 18  2  0  0  0  0
  7  8  1  0  0  0  0
  7  4  2  0  0  0  0
  8  5  2  0  0  0  0
  9 15  2  0  0  0  0
 10  9  1  0  0  0  0
 11 17  2  0  0  0  0
 13  1  1  0  0  0  0
 14 13  1  0  0  0  0
 14  7  1  0  0  0  0
 15 17  1  0  0  0  0
 16 12  2  0  0  0  0
 17 19  1  0  0  0  0
 18  2  1  0  0  0  0
 18  9  1  0  0  0  0
 19 20  1  0  0  0  0
 20 21  1  0  0  0  0
 21 22  1  6  0  0  0
 21 23  1  0  0  0  0
 23 25  1  0  0  0  0
 23 24  2  0  0  0  0
M  END
>  <MODEL>
7

>  <REMARK>
 VINA RESULT:      -8.6      1.030      1.288
  Name = 
  4 active torsions:
  status: ('A' for Active; 'I' for Inactive)
    1  A    between atoms: C_2  and  C_21
    2  A    between atoms: C_6  and  N_15
    3  A    between atoms: C_6  and  C_23
    4  A    between atoms: N_15  and  C_21
                            x       y       z     vdW  Elec       q    Type
                         _______ _______ _______ _____ _____    ______ ____

>  <TORSDO>
F 4

$$$$
=
 OpenBabel11052422163D

 25 28  0  0  1  0  0  0  0  0999 V2000
  161.2550  204.4550  149.1930 C   0  0  0  0  0  0  0  0  0  0  0  0
  161.3170  205.4690  150.1710 C   0  0  0  0  0  0  0  0  0  0  0  0
  160.9030  202.7620  150.9170 C   0  0  0  0  0  3  0  0  0  0  0  0
  161.3750  204.5740  147.7940 C   0  0  0  0  0  0  0  0  0  0  0  0
  161.5580  204.4140  145.0080 C   0  0  0  0  0  3  0  0  0  0  0  0
  160.9620  203.7620  151.8940 C   0  0  0  0  0  3  0  0  0  0  0  0
  161.2610  203.3510  147.1360 C   0  0  0  0  0  0  0  0  0  0  0  0
  161.3490  203.2430  145.7500 C   0  0  0  0  0  3  0  0  0  0  0  0
  161.2240  206.1170  152.5170 C   0  0  0  0  0  0  0  0  0  0  0  0
  161.0400  205.7500  154.2270 Cl  0  0  0  0  0  0  0  0  0  0  0  0
  161.5200  206.8120  149.8390 C   0  0  0  0  0  3  0  0  0  0  0  0
  161.6750  205.6580  145.6560 C   0  0  0  0  0  3  0  0  0  0  0  0
  161.0520  203.1300  149.5840 C   0  0  0  0  0  0  0  0  0  0  0  0
  161.0150  202.1070  148.2440 S   0  0  0  0  0  0  0  0  0  0  0  0
  161.4220  207.4100  152.1470 N   0  0  0  0  0  0  0  0  0  0  0  0
  161.5830  205.7440  147.0540 C   0  0  0  0  0  3  0  0  0  0  0  0
  161.5770  207.7740  150.8470 C   0  0  0  0  0  0  0  0  0  0  0  0
  161.1680  205.1090  151.5380 C   0  0  0  0  0  0  0  0  0  0  0  0
  161.7650  209.2060  150.4930 C   0  0  0  0  0  2  0  0  0  0  0  0
  162.2600  209.9340  151.6480 N   0  0  0  0  0  2  0  0  0  0  0  0
  161.1340  210.1300  152.5470 C   0  0  1  0  0  3  0  0  0  0  0  0
  161.6340  210.3760  153.9600 C   0  0  0  0  0  1  0  0  0  0  0  0
  160.3050  211.2830  152.0860 C   0  0  0  0  0  0  0  0  0  0  0  0
  160.7620  212.1090  151.2510 O   0  0  0  0  0  0  0  0  0  0  0  0
  158.9910  211.4570  152.6050 N   0  0  0  0  0  1  0  0  0  0  0  0
  1 13  1  0  0  0  0
  1  2  2  0  0  0  0
  2 18  1  0  0  0  0
  3  6  1  0  0  0  0
  4  1  1  0  0  0  0
  5 12  2  0  0  0  0
  5  8  1  0  0  0  0
  7  4  1  0  0  0  0
  7 14  1  0  0  0  0
  8  7  2  0  0  0  0
  9 10  1  0  0  0  0
 11  2  1  0  0  0  0
 11 17  2  0  0  0  0
 12 16  1  0  0  0  0
 13  3  2  0  0  0  0
 14 13  1  0  0  0  0
 15  9  2  0  0  0  0
 16  4  2  0  0  0  0
 17 15  1  0  0  0  0
 18  6  2  0  0  0  0
 18  9  1  0  0  0  0
 19 17  1  0  0  0  0
 19 20  1  0  0  0  0
 20 21  1  0  0  0  0
 21 22  1  1  0  0  0
 23 21  1  0  0  0  0
 23 25  1  0  0  0  0
 24 23  2  0  0  0  0
M  END
>  <MODEL>
8

>  <REMARK>
 VINA RESULT:      -8.5      2.550      3.886
  Name = 
  4 active torsions:
  status: ('A' for Active; 'I' for Inactive)
    1  A    between atoms: C_2  and  C_21
    2  A    between atoms: C_6  and  N_15
    3  A    between atoms: C_6  and  C_23
    4  A    between atoms: N_15  and  C_21
                            x       y       z     vdW  Elec       q    Type
                         _______ _______ _______ _____ _____    ______ ____

>  <TORSDO>
F 4

$$$$
=
 OpenBabel11052422163D

 25 28  0  0  1  0  0  0  0  0999 V2000
  161.2050  204.4450  149.3220 C   0  0  0  0  0  0  0  0  0  0  0  0
  161.2520  205.4050  150.3550 C   0  0  0  0  0  0  0  0  0  0  0  0
  160.8290  202.6620  150.9470 C   0  0  0  0  0  3  0  0  0  0  0  0
  161.3450  204.6390  147.9340 C   0  0  0  0  0  0  0  0  0  0  0  0
  161.5690  204.6290  145.1470 C   0  0  0  0  0  3  0  0  0  0  0  0
  160.8730  203.6070  151.9780 C   0  0  0  0  0  3  0  0  0  0  0  0
  161.2420  203.4530  147.2090 C   0  0  0  0  0  0  0  0  0  0  0  0
  161.3500  203.4200  145.8220 C   0  0  0  0  0  3  0  0  0  0  0  0
  161.1250  205.9250  152.7300 C   0  0  0  0  0  0  0  0  0  0  0  0
  160.9160  205.4670  154.4160 Cl  0  0  0  0  0  0  0  0  0  0  0  0
  161.4590  206.7640  150.0980 C   0  0  0  0  0  3  0  0  0  0  0  0
  161.6770  205.8360  145.8620 C   0  0  0  0  0  3  0  0  0  0  0  0
  160.9970  203.1010  149.6390 C   0  0  0  0  0  0  0  0  0  0  0  0
  160.9810  202.1520  148.2450 S   0  0  0  0  0  0  0  0  0  0  0  0
  161.3280  207.2370  152.4340 N   0  0  0  0  0  0  0  0  0  0  0  0
  161.5640  205.8470  147.2610 C   0  0  0  0  0  3  0  0  0  0  0  0
  161.5010  207.6700  151.1570 C   0  0  0  0  0  0  0  0  0  0  0  0
  161.0830  204.9720  151.6970 C   0  0  0  0  0  0  0  0  0  0  0  0
  161.6930  209.1190  150.8830 C   0  0  0  0  0  2  0  0  0  0  0  0
  162.4370  209.7280  151.9730 N   0  0  0  0  0  2  0  0  0  0  0  0
  161.5700  210.7260  152.5780 C   0  0  1  0  0  3  0  0  0  0  0  0
  160.2900  210.8610  151.7710 C   0  0  0  0  0  1  0  0  0  0  0  0
  161.2530  210.3440  153.9860 C   0  0  0  0  0  0  0  0  0  0  0  0
  160.0790  210.0270  154.3160 O   0  0  0  0  0  0  0  0  0  0  0  0
  162.2850  210.3490  154.9650 N   0  0  0  0  0  1  0  0  0  0  0  0
  1 13  1  0  0  0  0
  1  2  2  0  0  0  0
  2 18  1  0  0  0  0
  3  6  1  0  0  0  0
  4  1  1  0  0  0  0
  5  8  2  0  0  0  0
  5 12  1  0  0  0  0
  7  4  2  0  0  0  0
  7 14  1  0  0  0  0
  8  7  1  0  0  0  0
  9 10  1  0  0  0  0
 11  2  1  0  0  0  0
 11 17  2  0  0  0  0
 12 16  2  0  0  0  0
 13  3  2  0  0  0  0
 14 13  1  0  0  0  0
 15  9  2  0  0  0  0
 16  4  1  0  0  0  0
 17 15  1  0  0  0  0
 18  6  2  0  0  0  0
 18  9  1  0  0  0  0
 19 17  1  0  0  0  0
 19 20  1  0  0  0  0
 20 21  1  0  0  0  0
 21 22  1  6  0  0  0
 21 23  1  0  0  0  0
 23 24  2  0  0  0  0
 23 25  1  0  0  0  0
M  END
>  <MODEL>
9

>  <REMARK>
 VINA RESULT:      -8.4      2.257      3.779
  Name = 
  4 active torsions:
  status: ('A' for Active; 'I' for Inactive)
    1  A    between atoms: C_2  and  C_21
    2  A    between atoms: C_6  and  N_15
    3  A    between atoms: C_6  and  C_23
    4  A    between atoms: N_15  and  C_21
                            x       y       z     vdW  Elec       q    Type
                         _______ _______ _______ _____ _____    ______ ____

>  <TORSDO>
F 4

$$$$
