=
 OpenBabel11062407523D

 34 39  0  0  1  0  0  0  0  0999 V2000
  161.9100  210.2750  150.1190 C   0  0  0  0  0  0  0  0  0  0  0  0
  160.3070  211.3890  151.6530 C   0  0  0  0  0  0  0  0  0  0  0  0
  161.2600  209.0520  152.2280 C   0  0  0  0  0  0  0  0  0  0  0  0
  161.0640  207.6660  154.1560 N   0  0  0  0  0  0  0  0  0  0  0  0
  161.2210  212.5490  149.6830 C   0  0  0  0  0  3  0  0  0  0  0  0
  160.2760  212.4370  150.8170 C   0  0  0  0  0  3  0  0  0  0  0  0
  161.2530  209.9660  154.5070 N   0  0  0  0  0  2  0  0  0  0  0  0
  161.4570  210.3960  151.5590 C   0  0  0  0  0  0  0  0  0  0  0  0
  161.0620  207.8110  155.5960 C   0  0  0  0  0  2  0  0  0  0  0  0
  161.9900  211.5120  149.3320 C   0  0  0  0  0  2  0  0  0  0  0  0
  161.3850  207.7960  151.4420 C   0  0  0  0  0  0  0  0  0  0  0  0
  162.0640  209.1270  149.5330 N   0  0  0  0  0  0  0  0  0  0  0  0
  159.2920  211.3360  152.7430 C   0  0  0  0  0  1  0  0  0  0  0  0
  161.0580  206.4650  153.4320 N   0  0  0  0  0  0  0  0  0  0  0  0
  161.1880  206.4740  152.1320 C   0  0  0  0  0  0  0  0  0  0  0  0
  161.1750  209.3390  155.8290 C   0  0  2  0  0  3  0  0  0  0  0  0
  161.1710  208.9250  153.5550 C   0  0  0  0  0  0  0  0  0  0  0  0
  161.8140  207.8700  150.1780 C   0  0  0  0  0  3  0  0  0  0  0  0
  160.9880  203.8770  149.3700 C   0  0  0  0  0  0  0  0  0  0  0  0
  161.0100  202.7300  150.1000 N   0  0  0  0  0  0  0  0  0  0  0  0
  161.1460  205.1750  151.4090 C   0  0  0  0  0  0  0  0  0  0  0  0
  161.0910  202.7530  151.4560 C   0  0  0  0  0  3  0  0  0  0  0  0
  161.0510  205.1150  150.0110 C   0  0  0  0  0  3  0  0  0  0  0  0
  161.1570  203.9730  152.1330 C   0  0  0  0  0  3  0  0  0  0  0  0
  160.9020  203.8190  148.0200 F   0  0  0  0  0  0  0  0  0  0  0  0
  159.9430  209.8520  156.5600 C   0  0  0  0  0  2  0  0  0  0  0  0
  159.7690  211.2770  156.3190 N   0  0  0  0  0  2  0  0  0  0  0  0
  158.3830  211.6070  156.6170 C   0  0  0  0  0  2  0  0  0  0  0  0
  156.0770  211.1560  154.9440 C   0  0  0  0  0  1  0  0  0  0  0  0
  156.5460  212.5960  155.0970 C   0  0  2  0  0  3  0  0  0  0  0  0
  156.2610  214.1470  156.8000 C   0  0  0  0  0  2  0  0  0  0  0  0
  157.7370  213.9980  156.6660 C   0  0  0  0  0  2  0  0  0  0  0  0
  157.9230  212.7880  155.7610 C   0  0  1  0  0  3  0  0  0  0  0  0
  155.6080  213.3740  155.9470 C   0  0  0  0  0  2  0  0  0  0  0  0
  1  8  1  0  0  0  0
  2 13  1  0  0  0  0
  3 17  2  0  0  0  0
  4  9  1  0  0  0  0
  5  6  2  0  0  0  0
  6  2  1  0  0  0  0
  7 16  1  0  0  0  0
  8  2  2  0  0  0  0
  8  3  1  0  0  0  0
  9 16  1  0  0  0  0
 10  5  1  0  0  0  0
 10  1  1  0  0  0  0
 11 15  1  0  0  0  0
 11  3  1  0  0  0  0
 12  1  2  0  0  0  0
 12 18  1  0  0  0  0
 14  4  1  0  0  0  0
 15 14  2  0  0  0  0
 16 26  1  6  0  0  0
 17  4  1  0  0  0  0
 17  7  1  0  0  0  0
 18 11  2  0  0  0  0
 19 23  2  0  0  0  0
 19 20  1  0  0  0  0
 20 22  2  0  0  0  0
 21 15  1  0  0  0  0
 21 24  2  0  0  0  0
 22 24  1  0  0  0  0
 23 21  1  0  0  0  0
 25 19  1  0  0  0  0
 27 26  1  0  0  0  0
 27 28  1  0  0  0  0
 30 29  1  1  0  0  0
 30 33  1  0  0  0  0
 30 34  1  0  0  0  0
 32 31  1  0  0  0  0
 33 28  1  1  0  0  0
 33 32  1  0  0  0  0
 34 31  1  0  0  0  0
M  END
>  <MODEL>
1

>  <REMARK>
 VINA RESULT:      -8.3      0.000      0.000
  Name = 
  5 active torsions:
  status: ('A' for Active; 'I' for Inactive)
    1  A    between atoms: N_3  and  C_13
    2  A    between atoms: N_3  and  C_17
    3  A    between atoms: C_12  and  C_28
    4  A    between atoms: C_13  and  C_33
    5  A    between atoms: C_17  and  C_29
                            x       y       z     vdW  Elec       q    Type
                         _______ _______ _______ _____ _____    ______ ____

>  <TORSDO>
F 5

$$$$
=
 OpenBabel11062407523D

 34 39  0  0  1  0  0  0  0  0999 V2000
  161.5430  205.1660  152.2340 C   0  0  0  0  0  0  0  0  0  0  0  0
  160.7650  205.6800  149.9330 C   0  0  0  0  0  0  0  0  0  0  0  0
  161.3960  207.5920  151.5600 C   0  0  0  0  0  0  0  0  0  0  0  0
  161.5800  209.9510  151.2740 N   0  0  0  0  0  0  0  0  0  0  0  0
  161.1900  203.3670  150.6610 C   0  0  0  0  0  3  0  0  0  0  0  0
  160.6620  204.3640  149.7010 C   0  0  0  0  0  3  0  0  0  0  0  0
  162.3030  208.6010  149.5130 N   0  0  0  0  0  2  0  0  0  0  0  0
  161.6140  206.1670  151.1000 C   0  0  1  0  0  3  0  0  0  0  0  0
  162.0740  210.8850  150.2860 C   0  0  0  0  0  2  0  0  0  0  0  0
  161.5930  203.7420  151.8800 C   0  0  0  0  0  3  0  0  0  0  0  0
  161.0190  207.8780  152.9710 C   0  0  0  0  0  0  0  0  0  0  0  0
  161.2780  205.5170  153.4560 N   0  0  0  0  0  0  0  0  0  0  0  0
  160.1690  206.6130  148.9350 C   0  0  0  0  0  1  0  0  0  0  0  0
  161.1130  210.2580  152.5620 N   0  0  0  0  0  0  0  0  0  0  0  0
  160.8130  209.3040  153.4020 C   0  0  0  0  0  0  0  0  0  0  0  0
  162.5420  209.9890  149.1110 C   0  0  2  0  0  3  0  0  0  0  0  0
  161.7200  208.6420  150.8000 C   0  0  0  0  0  0  0  0  0  0  0  0
  161.0200  206.8720  153.8510 C   0  0  0  0  0  3  0  0  0  0  0  0
  158.6310  210.7180  156.1680 C   0  0  0  0  0  0  0  0  0  0  0  0
  159.3850  210.4240  157.2610 N   0  0  0  0  0  0  0  0  0  0  0  0
  160.2930  209.6830  154.7430 C   0  0  0  0  0  0  0  0  0  0  0  0
  160.5770  209.7800  157.1480 C   0  0  0  0  0  3  0  0  0  0  0  0
  159.0730  210.3580  154.8950 C   0  0  0  0  0  3  0  0  0  0  0  0
  161.0520  209.4020  155.8890 C   0  0  0  0  0  3  0  0  0  0  0  0
  157.4510  211.3650  156.3160 F   0  0  0  0  0  0  0  0  0  0  0  0
  161.7350  210.2990  147.8590 C   0  0  0  0  0  2  0  0  0  0  0  0
  161.2060  211.6530  147.9210 N   0  0  0  0  0  2  0  0  0  0  0  0
  162.0040  212.4790  147.0270 C   0  0  0  0  0  2  0  0  0  0  0  0
  163.0460  213.3300  144.4750 C   0  0  0  0  0  1  0  0  0  0  0  0
  161.5700  213.5940  144.7390 C   0  0  2  0  0  3  0  0  0  0  0  0
  159.7080  212.2110  144.6520 C   0  0  0  0  0  2  0  0  0  0  0  0
  159.7390  212.7160  146.0530 C   0  0  0  0  0  2  0  0  0  0  0  0
  161.1000  213.3850  146.1910 C   0  0  1  0  0  3  0  0  0  0  0  0
  160.7140  212.6850  143.9340 C   0  0  0  0  0  2  0  0  0  0  0  0
  1 12  2  0  0  0  0
  3 11  1  0  0  0  0
  4 14  1  0  0  0  0
  5 10  2  0  0  0  0
  6  2  2  0  0  0  0
  6  5  1  0  0  0  0
  7 17  1  0  0  0  0
  8  2  1  6  0  0  0
  8  3  1  0  0  0  0
  8  1  1  0  0  0  0
  9  4  1  0  0  0  0
 10  1  1  0  0  0  0
 11 15  1  0  0  0  0
 11 18  2  0  0  0  0
 12 18  1  0  0  0  0
 13  2  1  0  0  0  0
 14 15  2  0  0  0  0
 15 21  1  0  0  0  0
 16 26  1  6  0  0  0
 16  7  1  0  0  0  0
 16  9  1  0  0  0  0
 17  4  1  0  0  0  0
 17  3  2  0  0  0  0
 19 25  1  0  0  0  0
 19 20  1  0  0  0  0
 21 23  1  0  0  0  0
 21 24  2  0  0  0  0
 22 20  2  0  0  0  0
 23 19  2  0  0  0  0
 24 22  1  0  0  0  0
 26 27  1  0  0  0  0
 28 27  1  0  0  0  0
 30 29  1  1  0  0  0
 30 33  1  0  0  0  0
 31 32  1  0  0  0  0
 32 33  1  0  0  0  0
 33 28  1  1  0  0  0
 34 31  1  0  0  0  0
 34 30  1  0  0  0  0
M  END
>  <MODEL>
2

>  <REMARK>
 VINA RESULT:      -8.0      3.134      8.084
  Name = 
  5 active torsions:
  status: ('A' for Active; 'I' for Inactive)
    1  A    between atoms: N_3  and  C_13
    2  A    between atoms: N_3  and  C_17
    3  A    between atoms: C_12  and  C_28
    4  A    between atoms: C_13  and  C_33
    5  A    between atoms: C_17  and  C_29
                            x       y       z     vdW  Elec       q    Type
                         _______ _______ _______ _____ _____    ______ ____

>  <TORSDO>
F 5

$$$$
=
 OpenBabel11062407523D

 34 39  0  0  1  0  0  0  0  0999 V2000
  161.6120  205.1010  152.0120 C   0  0  0  0  0  0  0  0  0  0  0  0
  160.7500  205.6750  149.7560 C   0  0  0  0  0  0  0  0  0  0  0  0
  161.4290  207.5440  151.4130 C   0  0  0  0  0  0  0  0  0  0  0  0
  161.5920  209.9110  151.1870 N   0  0  0  0  0  0  0  0  0  0  0  0
  161.2120  203.3450  150.4030 C   0  0  0  0  0  3  0  0  0  0  0  0
  160.6450  204.3650  149.4910 C   0  0  0  0  0  3  0  0  0  0  0  0
  162.2580  208.6150  149.3650 N   0  0  0  0  0  2  0  0  0  0  0  0
  161.6380  206.1340  150.9050 C   0  0  1  0  0  3  0  0  0  0  0  0
  162.0460  210.8760  150.2090 C   0  0  0  0  0  2  0  0  0  0  0  0
  161.6560  203.6880  151.6170 C   0  0  0  0  0  3  0  0  0  0  0  0
  161.1020  207.7880  152.8430 C   0  0  0  0  0  0  0  0  0  0  0  0
  161.3890  205.4160  153.2530 N   0  0  0  0  0  0  0  0  0  0  0  0
  160.1140  206.6320  148.8060 C   0  0  0  0  0  1  0  0  0  0  0  0
  161.1700  210.1790  152.4990 N   0  0  0  0  0  0  0  0  0  0  0  0
  160.9040  209.2010  153.3220 C   0  0  0  0  0  0  0  0  0  0  0  0
  162.4760  210.0150  148.9930 C   0  0  2  0  0  3  0  0  0  0  0  0
  161.7220  208.6170  150.6720 C   0  0  0  0  0  0  0  0  0  0  0  0
  161.1390  206.7580  153.6940 C   0  0  0  0  0  3  0  0  0  0  0  0
  158.8560  210.5900  156.2000 C   0  0  0  0  0  0  0  0  0  0  0  0
  159.6120  210.1990  157.2610 N   0  0  0  0  0  0  0  0  0  0  0  0
  160.4310  209.5390  154.6910 C   0  0  0  0  0  0  0  0  0  0  0  0
  160.7640  209.4980  157.0910 C   0  0  0  0  0  3  0  0  0  0  0  0
  159.2540  210.2710  154.9010 C   0  0  0  0  0  3  0  0  0  0  0  0
  161.1940  209.1590  155.8060 C   0  0  0  0  0  3  0  0  0  0  0  0
  157.7160  211.2920  156.4050 F   0  0  0  0  0  0  0  0  0  0  0  0
  161.6230  210.3560  147.7800 C   0  0  0  0  0  2  0  0  0  0  0  0
  161.6220  211.7930  147.5500 N   0  0  0  0  0  2  0  0  0  0  0  0
  160.3470  212.1400  146.9410 C   0  0  0  0  0  2  0  0  0  0  0  0
  157.5330  212.6210  147.3530 C   0  0  0  0  0  1  0  0  0  0  0  0
  158.4910  213.7220  147.7880 C   0  0  2  0  0  3  0  0  0  0  0  0
  159.8350  213.9540  149.6660 C   0  0  0  0  0  2  0  0  0  0  0  0
  160.7800  214.0010  148.5170 C   0  0  0  0  0  2  0  0  0  0  0  0
  159.9500  213.5680  147.3160 C   0  0  1  0  0  3  0  0  0  0  0  0
  158.5820  213.7940  149.2690 C   0  0  0  0  0  2  0  0  0  0  0  0
  1 12  2  0  0  0  0
  3 11  1  0  0  0  0
  4 14  1  0  0  0  0
  5 10  2  0  0  0  0
  6  2  2  0  0  0  0
  6  5  1  0  0  0  0
  7 17  1  0  0  0  0
  8  2  1  6  0  0  0
  8  3  1  0  0  0  0
  8  1  1  0  0  0  0
  9  4  1  0  0  0  0
 10  1  1  0  0  0  0
 11 15  1  0  0  0  0
 11 18  2  0  0  0  0
 12 18  1  0  0  0  0
 13  2  1  0  0  0  0
 14 15  2  0  0  0  0
 15 21  1  0  0  0  0
 16 26  1  6  0  0  0
 16  7  1  0  0  0  0
 16  9  1  0  0  0  0
 17  4  1  0  0  0  0
 17  3  2  0  0  0  0
 19 25  1  0  0  0  0
 19 20  1  0  0  0  0
 21 23  1  0  0  0  0
 21 24  2  0  0  0  0
 22 20  2  0  0  0  0
 23 19  2  0  0  0  0
 24 22  1  0  0  0  0
 27 26  1  0  0  0  0
 28 27  1  0  0  0  0
 30 29  1  1  0  0  0
 30 34  1  0  0  0  0
 32 31  1  0  0  0  0
 33 28  1  1  0  0  0
 33 30  1  0  0  0  0
 33 32  1  0  0  0  0
 34 31  1  0  0  0  0
M  END
>  <MODEL>
3

>  <REMARK>
 VINA RESULT:      -8.0      2.865      7.164
  Name = 
  5 active torsions:
  status: ('A' for Active; 'I' for Inactive)
    1  A    between atoms: N_3  and  C_13
    2  A    between atoms: N_3  and  C_17
    3  A    between atoms: C_12  and  C_28
    4  A    between atoms: C_13  and  C_33
    5  A    between atoms: C_17  and  C_29
                            x       y       z     vdW  Elec       q    Type
                         _______ _______ _______ _____ _____    ______ ____

>  <TORSDO>
F 5

$$$$
=
 OpenBabel11062407523D

 34 39  0  0  1  0  0  0  0  0999 V2000
  161.9570  210.3750  149.6470 C   0  0  0  0  0  0  0  0  0  0  0  0
  160.3920  211.3330  151.3190 C   0  0  0  0  0  0  0  0  0  0  0  0
  161.2920  208.9220  151.5990 C   0  0  0  0  0  0  0  0  0  0  0  0
  161.0750  207.3190  153.3490 N   0  0  0  0  0  0  0  0  0  0  0  0
  161.3200  212.7000  149.4940 C   0  0  0  0  0  3  0  0  0  0  0  0
  160.3800  212.4750  150.6160 C   0  0  0  0  0  3  0  0  0  0  0  0
  161.3230  209.5540  153.9710 N   0  0  0  0  0  2  0  0  0  0  0  0
  161.5170  210.3320  151.0950 C   0  0  0  0  0  0  0  0  0  0  0  0
  161.0870  207.2880  154.7950 C   0  0  0  0  0  2  0  0  0  0  0  0
  162.0610  211.6950  149.0130 C   0  0  0  0  0  2  0  0  0  0  0  0
  161.3810  207.7670  150.6660 C   0  0  0  0  0  0  0  0  0  0  0  0
  162.0790  209.3020  148.9250 N   0  0  0  0  0  0  0  0  0  0  0  0
  159.3830  211.1730  152.4050 C   0  0  0  0  0  1  0  0  0  0  0  0
  161.0360  206.2140  152.4850 N   0  0  0  0  0  0  0  0  0  0  0  0
  161.1570  206.3760  151.1940 C   0  0  0  0  0  0  0  0  0  0  0  0
  161.2390  208.7750  155.2090 C   0  0  2  0  0  3  0  0  0  0  0  0
  161.2090  208.6380  152.9020 C   0  0  0  0  0  0  0  0  0  0  0  0
  161.8030  207.9830  149.4160 C   0  0  0  0  0  3  0  0  0  0  0  0
  160.8310  202.7880  150.0010 C   0  0  0  0  0  0  0  0  0  0  0  0
  160.9930  202.9510  148.6610 N   0  0  0  0  0  0  0  0  0  0  0  0
  161.0780  205.1760  150.3210 C   0  0  0  0  0  0  0  0  0  0  0  0
  161.2020  204.1790  148.1160 C   0  0  0  0  0  3  0  0  0  0  0  0
  160.8750  203.8930  150.8510 C   0  0  0  0  0  3  0  0  0  0  0  0
  161.2510  205.3090  148.9350 C   0  0  0  0  0  3  0  0  0  0  0  0
  160.6300  201.5500  150.5120 F   0  0  0  0  0  0  0  0  0  0  0  0
  160.0250  209.2240  156.0080 C   0  0  0  0  0  2  0  0  0  0  0  0
  159.6300  210.5680  155.6150 N   0  0  0  0  0  2  0  0  0  0  0  0
  159.5890  211.3850  156.8180 C   0  0  0  0  0  2  0  0  0  0  0  0
  159.6540  214.2530  156.5120 C   0  0  0  0  0  1  0  0  0  0  0  0
  158.2840  213.5880  156.4890 C   0  0  2  0  0  3  0  0  0  0  0  0
  157.1520  212.4280  154.8280 C   0  0  0  0  0  2  0  0  0  0  0  0
  157.2690  211.4600  155.9540 C   0  0  0  0  0  2  0  0  0  0  0  0
  158.2470  212.1110  156.9230 C   0  0  1  0  0  3  0  0  0  0  0  0
  157.7150  213.5910  155.1170 C   0  0  0  0  0  2  0  0  0  0  0  0
  1  8  1  0  0  0  0
  2 13  1  0  0  0  0
  3 17  2  0  0  0  0
  4  9  1  0  0  0  0
  5  6  2  0  0  0  0
  6  2  1  0  0  0  0
  7 16  1  0  0  0  0
  8  2  2  0  0  0  0
  8  3  1  0  0  0  0
  9 16  1  0  0  0  0
 10  5  1  0  0  0  0
 10  1  1  0  0  0  0
 11 15  1  0  0  0  0
 11  3  1  0  0  0  0
 12 18  1  0  0  0  0
 12  1  2  0  0  0  0
 14  4  1  0  0  0  0
 15 14  2  0  0  0  0
 16 26  1  6  0  0  0
 17  4  1  0  0  0  0
 17  7  1  0  0  0  0
 18 11  2  0  0  0  0
 19 25  1  0  0  0  0
 19 23  1  0  0  0  0
 20 19  2  0  0  0  0
 21 23  2  0  0  0  0
 21 15  1  0  0  0  0
 22 20  1  0  0  0  0
 22 24  2  0  0  0  0
 24 21  1  0  0  0  0
 27 26  1  0  0  0  0
 27 28  1  0  0  0  0
 30 29  1  6  0  0  0
 30 33  1  0  0  0  0
 31 34  1  0  0  0  0
 31 32  1  0  0  0  0
 32 33  1  0  0  0  0
 33 28  1  6  0  0  0
 34 30  1  0  0  0  0
M  END
>  <MODEL>
4

>  <REMARK>
 VINA RESULT:      -7.8      1.130      1.782
  Name = 
  5 active torsions:
  status: ('A' for Active; 'I' for Inactive)
    1  A    between atoms: N_3  and  C_13
    2  A    between atoms: N_3  and  C_17
    3  A    between atoms: C_12  and  C_28
    4  A    between atoms: C_13  and  C_33
    5  A    between atoms: C_17  and  C_29
                            x       y       z     vdW  Elec       q    Type
                         _______ _______ _______ _____ _____    ______ ____

>  <TORSDO>
F 5

$$$$
=
 OpenBabel11062407523D

 34 39  0  0  1  0  0  0  0  0999 V2000
  160.4260  209.2100  155.8970 C   0  0  0  0  0  0  0  0  0  0  0  0
  160.8840  207.6930  153.9860 C   0  0  0  0  0  0  0  0  0  0  0  0
  160.2890  210.1770  153.5720 C   0  0  0  0  0  0  0  0  0  0  0  0
  160.2400  211.5110  151.5970 N   0  0  0  0  0  0  0  0  0  0  0  0
  161.2110  206.9640  156.3150 C   0  0  0  0  0  3  0  0  0  0  0  0
  161.1130  206.7020  154.8600 C   0  0  0  0  0  3  0  0  0  0  0  0
  161.9610  209.9460  151.7890 N   0  0  0  0  0  2  0  0  0  0  0  0
  160.9230  209.1360  154.4690 C   0  0  1  0  0  3  0  0  0  0  0  0
  161.0280  211.6960  150.3980 C   0  0  0  0  0  2  0  0  0  0  0  0
  160.8640  208.1540  156.8180 C   0  0  0  0  0  3  0  0  0  0  0  0
  159.2000  211.0500  154.0860 C   0  0  0  0  0  0  0  0  0  0  0  0
  159.5190  210.0590  156.2750 N   0  0  0  0  0  0  0  0  0  0  0  0
  160.7590  207.3350  152.5450 C   0  0  0  0  0  1  0  0  0  0  0  0
  159.1350  212.2750  152.0030 N   0  0  0  0  0  0  0  0  0  0  0  0
  158.5900  212.0800  153.1740 C   0  0  0  0  0  0  0  0  0  0  0  0
  162.1640  210.6480  150.5190 C   0  0  2  0  0  3  0  0  0  0  0  0
  160.7990  210.4930  152.3780 C   0  0  0  0  0  0  0  0  0  0  0  0
  158.8950  210.9970  155.3860 C   0  0  0  0  0  3  0  0  0  0  0  0
  155.7170  213.6040  155.1330 C   0  0  0  0  0  0  0  0  0  0  0  0
  155.1490  214.3880  154.1790 N   0  0  0  0  0  0  0  0  0  0  0  0
  157.4020  212.8950  153.5440 C   0  0  0  0  0  0  0  0  0  0  0  0
  155.6550  214.4530  152.9190 C   0  0  0  0  0  3  0  0  0  0  0  0
  156.8470  212.8430  154.8310 C   0  0  0  0  0  3  0  0  0  0  0  0
  156.7860  213.7060  152.5800 C   0  0  0  0  0  3  0  0  0  0  0  0
  155.1840  213.5580  156.3770 F   0  0  0  0  0  0  0  0  0  0  0  0
  162.0850  209.6520  149.3720 C   0  0  0  0  0  2  0  0  0  0  0  0
  162.0000  208.2940  149.8870 N   0  0  0  0  0  2  0  0  0  0  0  0
  162.2340  207.3860  148.7740 C   0  0  0  0  0  2  0  0  0  0  0  0
  162.2620  205.7660  146.3870 C   0  0  0  0  0  1  0  0  0  0  0  0
  161.1620  205.4820  147.4000 C   0  0  2  0  0  3  0  0  0  0  0  0
  161.1640  204.3130  149.4050 C   0  0  0  0  0  2  0  0  0  0  0  0
  160.7280  205.6900  149.7700 C   0  0  0  0  0  2  0  0  0  0  0  0
  160.9970  206.5220  148.5230 C   0  0  1  0  0  3  0  0  0  0  0  0
  161.4090  204.2000  148.1090 C   0  0  0  0  0  2  0  0  0  0  0  0
  1 12  2  0  0  0  0
  1 10  1  0  0  0  0
  2  8  1  0  0  0  0
  2  6  2  0  0  0  0
  3 11  1  0  0  0  0
  4 14  1  0  0  0  0
  4 17  1  0  0  0  0
  5 10  2  0  0  0  0
  6  5  1  0  0  0  0
  7 17  1  0  0  0  0
  8  3  1  6  0  0  0
  8  1  1  0  0  0  0
  9 16  1  0  0  0  0
  9  4  1  0  0  0  0
 11 18  2  0  0  0  0
 13  2  1  0  0  0  0
 14 15  2  0  0  0  0
 15 21  1  0  0  0  0
 15 11  1  0  0  0  0
 16 26  1  6  0  0  0
 16  7  1  0  0  0  0
 17  3  2  0  0  0  0
 18 12  1  0  0  0  0
 19 25  1  0  0  0  0
 20 19  2  0  0  0  0
 21 23  2  0  0  0  0
 22 20  1  0  0  0  0
 23 19  1  0  0  0  0
 24 22  2  0  0  0  0
 24 21  1  0  0  0  0
 26 27  1  0  0  0  0
 28 27  1  0  0  0  0
 30 29  1  6  0  0  0
 30 34  1  0  0  0  0
 30 33  1  0  0  0  0
 31 32  1  0  0  0  0
 33 28  1  1  0  0  0
 33 32  1  0  0  0  0
 34 31  1  0  0  0  0
M  END
>  <MODEL>
5

>  <REMARK>
 VINA RESULT:      -7.2      3.163      8.826
  Name = 
  5 active torsions:
  status: ('A' for Active; 'I' for Inactive)
    1  A    between atoms: N_3  and  C_13
    2  A    between atoms: N_3  and  C_17
    3  A    between atoms: C_12  and  C_28
    4  A    between atoms: C_13  and  C_33
    5  A    between atoms: C_17  and  C_29
                            x       y       z     vdW  Elec       q    Type
                         _______ _______ _______ _____ _____    ______ ____

>  <TORSDO>
F 5

$$$$
=
 OpenBabel11062407523D

 34 39  0  0  1  0  0  0  0  0999 V2000
  162.0600  210.0370  149.6670 C   0  0  0  0  0  0  0  0  0  0  0  0
  160.4940  210.4770  151.5430 C   0  0  0  0  0  0  0  0  0  0  0  0
  161.4380  208.0980  151.1560 C   0  0  0  0  0  0  0  0  0  0  0  0
  161.2640  206.0770  152.4070 N   0  0  0  0  0  0  0  0  0  0  0  0
  161.3820  212.3040  150.1520 C   0  0  0  0  0  3  0  0  0  0  0  0
  160.4570  211.7660  151.1750 C   0  0  0  0  0  3  0  0  0  0  0  0
  161.4800  208.0650  153.6100 N   0  0  0  0  0  2  0  0  0  0  0  0
  161.6340  209.5950  151.0510 C   0  0  0  0  0  0  0  0  0  0  0  0
  161.2900  205.6570  153.7910 C   0  0  0  0  0  2  0  0  0  0  0  0
  162.1360  211.4810  149.4140 C   0  0  0  0  0  2  0  0  0  0  0  0
  161.5380  207.2400  149.9450 C   0  0  0  0  0  0  0  0  0  0  0  0
  162.1930  209.2020  148.6810 N   0  0  0  0  0  0  0  0  0  0  0  0
  159.4980  210.0100  152.5490 C   0  0  0  0  0  1  0  0  0  0  0  0
  161.2360  205.2460  151.2760 N   0  0  0  0  0  0  0  0  0  0  0  0
  161.3420  205.7540  150.0780 C   0  0  0  0  0  0  0  0  0  0  0  0
  161.4210  206.9780  154.5910 C   0  0  2  0  0  3  0  0  0  0  0  0
  161.3710  207.4700  152.3330 C   0  0  0  0  0  0  0  0  0  0  0  0
  161.9440  207.7940  148.7980 C   0  0  0  0  0  3  0  0  0  0  0  0
  161.3360  204.4080  146.5280 C   0  0  0  0  0  0  0  0  0  0  0  0
  161.0860  203.0910  146.7580 N   0  0  0  0  0  0  0  0  0  0  0  0
  161.2750  204.8340  148.9120 C   0  0  0  0  0  0  0  0  0  0  0  0
  160.9200  202.6100  148.0180 C   0  0  0  0  0  3  0  0  0  0  0  0
  161.4300  205.2990  147.5980 C   0  0  0  0  0  3  0  0  0  0  0  0
  161.0080  203.4710  149.1140 C   0  0  0  0  0  3  0  0  0  0  0  0
  161.4910  204.8560  145.2600 F   0  0  0  0  0  0  0  0  0  0  0  0
  160.2070  207.1710  155.4880 C   0  0  0  0  0  2  0  0  0  0  0  0
  160.6160  207.6680  156.7930 N   0  0  0  0  0  2  0  0  0  0  0  0
  160.0500  208.9980  156.9560 C   0  0  0  0  0  2  0  0  0  0  0  0
  158.5080  211.2440  156.0070 C   0  0  0  0  0  1  0  0  0  0  0  0
  160.0150  211.3100  155.8080 C   0  0  2  0  0  3  0  0  0  0  0  0
  161.7500  211.8270  157.2610 C   0  0  0  0  0  2  0  0  0  0  0  0
  162.0520  210.4480  156.7870 C   0  0  0  0  0  2  0  0  0  0  0  0
  160.7860  210.0010  156.0670 C   0  0  1  0  0  3  0  0  0  0  0  0
  160.6310  212.2970  156.7310 C   0  0  0  0  0  2  0  0  0  0  0  0
  1  8  1  0  0  0  0
  2 13  1  0  0  0  0
  3 17  2  0  0  0  0
  4  9  1  0  0  0  0
  5  6  2  0  0  0  0
  6  2  1  0  0  0  0
  7 16  1  0  0  0  0
  8  3  1  0  0  0  0
  8  2  2  0  0  0  0
  9 16  1  0  0  0  0
 10  1  1  0  0  0  0
 10  5  1  0  0  0  0
 11 15  1  0  0  0  0
 11  3  1  0  0  0  0
 12 18  1  0  0  0  0
 12  1  2  0  0  0  0
 14  4  1  0  0  0  0
 15 14  2  0  0  0  0
 16 26  1  1  0  0  0
 17  4  1  0  0  0  0
 17  7  1  0  0  0  0
 18 11  2  0  0  0  0
 19 20  2  0  0  0  0
 19 23  1  0  0  0  0
 20 22  1  0  0  0  0
 21 24  1  0  0  0  0
 21 15  1  0  0  0  0
 22 24  2  0  0  0  0
 23 21  2  0  0  0  0
 25 19  1  0  0  0  0
 26 27  1  0  0  0  0
 27 28  1  0  0  0  0
 30 29  1  1  0  0  0
 30 33  1  0  0  0  0
 30 34  1  0  0  0  0
 32 31  1  0  0  0  0
 33 32  1  0  0  0  0
 33 28  1  1  0  0  0
 34 31  1  0  0  0  0
M  END
>  <MODEL>
6

>  <REMARK>
 VINA RESULT:      -6.7      1.872      2.858
  Name = 
  5 active torsions:
  status: ('A' for Active; 'I' for Inactive)
    1  A    between atoms: N_3  and  C_13
    2  A    between atoms: N_3  and  C_17
    3  A    between atoms: C_12  and  C_28
    4  A    between atoms: C_13  and  C_33
    5  A    between atoms: C_17  and  C_29
                            x       y       z     vdW  Elec       q    Type
                         _______ _______ _______ _____ _____    ______ ____

>  <TORSDO>
F 5

$$$$
=
 OpenBabel11062407523D

 34 39  0  0  1  0  0  0  0  0999 V2000
  160.6140  208.4890  154.5100 C   0  0  0  0  0  0  0  0  0  0  0  0
  162.3570  210.1370  153.8720 C   0  0  0  0  0  0  0  0  0  0  0  0
  161.3520  208.5410  152.0990 C   0  0  0  0  0  0  0  0  0  0  0  0
  161.6210  208.3900  149.7360 N   0  0  0  0  0  0  0  0  0  0  0  0
  161.3610  210.1240  156.1230 C   0  0  0  0  0  3  0  0  0  0  0  0
  162.3740  210.5720  155.1400 C   0  0  0  0  0  3  0  0  0  0  0  0
  161.5450  210.5280  150.6700 N   0  0  0  0  0  2  0  0  0  0  0  0
  161.1650  209.3290  153.3780 C   0  0  1  0  0  3  0  0  0  0  0  0
  161.7230  209.2810  148.6000 C   0  0  0  0  0  2  0  0  0  0  0  0
  160.5310  209.1150  155.8360 C   0  0  0  0  0  3  0  0  0  0  0  0
  161.1270  207.0710  152.0820 C   0  0  0  0  0  0  0  0  0  0  0  0
  160.3770  207.2180  154.3820 N   0  0  0  0  0  0  0  0  0  0  0  0
  163.4390  210.6060  152.9600 C   0  0  0  0  0  1  0  0  0  0  0  0
  161.5310  206.9900  149.7010 N   0  0  0  0  0  0  0  0  0  0  0  0
  161.3170  206.3120  150.7960 C   0  0  0  0  0  0  0  0  0  0  0  0
  161.6850  210.7010  149.2220 C   0  0  2  0  0  3  0  0  0  0  0  0
  161.5240  209.1370  150.9160 C   0  0  0  0  0  0  0  0  0  0  0  0
  160.6190  206.4870  153.1720 C   0  0  0  0  0  3  0  0  0  0  0  0
  160.7990  202.7830  149.4980 C   0  0  0  0  0  0  0  0  0  0  0  0
  161.1140  202.0580  150.6050 N   0  0  0  0  0  0  0  0  0  0  0  0
  161.2610  204.8290  150.7090 C   0  0  0  0  0  0  0  0  0  0  0  0
  161.4930  202.6590  151.7630 C   0  0  0  0  0  3  0  0  0  0  0  0
  160.8630  204.1770  149.5330 C   0  0  0  0  0  3  0  0  0  0  0  0
  161.5690  204.0520  151.8360 C   0  0  0  0  0  3  0  0  0  0  0  0
  160.4210  202.1520  148.3620 F   0  0  0  0  0  0  0  0  0  0  0  0
  162.9820  211.4390  148.9240 C   0  0  0  0  0  2  0  0  0  0  0  0
  162.6980  212.7510  148.3610 N   0  0  0  0  0  2  0  0  0  0  0  0
  162.7330  212.6250  146.9110 C   0  0  0  0  0  2  0  0  0  0  0  0
  163.1040  213.2900  144.1290 C   0  0  0  0  0  1  0  0  0  0  0  0
  161.7490  213.6180  144.7410 C   0  0  2  0  0  3  0  0  0  0  0  0
  159.9030  212.2950  145.2170 C   0  0  0  0  0  2  0  0  0  0  0  0
  160.2980  212.8790  146.5290 C   0  0  0  0  0  2  0  0  0  0  0  0
  161.6610  213.5100  146.2750 C   0  0  1  0  0  3  0  0  0  0  0  0
  160.7020  212.6930  144.2390 C   0  0  0  0  0  2  0  0  0  0  0  0
  1 10  1  0  0  0  0
  2  6  2  0  0  0  0
  4 17  1  0  0  0  0
  6  5  1  0  0  0  0
  7 17  1  0  0  0  0
  8  3  1  6  0  0  0
  8  2  1  0  0  0  0
  8  1  1  0  0  0  0
  9 16  1  0  0  0  0
  9  4  1  0  0  0  0
 10  5  2  0  0  0  0
 11  3  1  0  0  0  0
 11 18  2  0  0  0  0
 12  1  2  0  0  0  0
 13  2  1  0  0  0  0
 14  4  1  0  0  0  0
 14 15  2  0  0  0  0
 15 11  1  0  0  0  0
 16 26  1  1  0  0  0
 16  7  1  0  0  0  0
 17  3  2  0  0  0  0
 18 12  1  0  0  0  0
 19 23  2  0  0  0  0
 19 20  1  0  0  0  0
 20 22  2  0  0  0  0
 21 15  1  0  0  0  0
 21 24  2  0  0  0  0
 22 24  1  0  0  0  0
 23 21  1  0  0  0  0
 25 19  1  0  0  0  0
 27 26  1  0  0  0  0
 28 27  1  0  0  0  0
 30 29  1  6  0  0  0
 30 33  1  0  0  0  0
 31 32  1  0  0  0  0
 33 32  1  0  0  0  0
 33 28  1  6  0  0  0
 34 30  1  0  0  0  0
 34 31  1  0  0  0  0
M  END
>  <MODEL>
7

>  <REMARK>
 VINA RESULT:      -6.6      2.835      6.603
  Name = 
  5 active torsions:
  status: ('A' for Active; 'I' for Inactive)
    1  A    between atoms: N_3  and  C_13
    2  A    between atoms: N_3  and  C_17
    3  A    between atoms: C_12  and  C_28
    4  A    between atoms: C_13  and  C_33
    5  A    between atoms: C_17  and  C_29
                            x       y       z     vdW  Elec       q    Type
                         _______ _______ _______ _____ _____    ______ ____

>  <TORSDO>
F 5

$$$$
=
 OpenBabel11062407523D

 34 39  0  0  1  0  0  0  0  0999 V2000
  160.3470  212.9490  150.4330 C   0  0  0  0  0  0  0  0  0  0  0  0
  162.0040  212.1470  148.7670 C   0  0  0  0  0  0  0  0  0  0  0  0
  161.1470  210.5650  150.6280 C   0  0  0  0  0  0  0  0  0  0  0  0
  161.4880  208.2440  151.0470 N   0  0  0  0  0  0  0  0  0  0  0  0
  160.9490  214.3630  148.5700 C   0  0  0  0  0  3  0  0  0  0  0  0
  161.9600  213.3530  148.1820 C   0  0  0  0  0  3  0  0  0  0  0  0
  161.2570  208.9060  148.8210 N   0  0  0  0  0  2  0  0  0  0  0  0
  160.8770  211.7330  149.7040 C   0  0  0  0  0  0  0  0  0  0  0  0
  161.5670  207.0100  150.2960 C   0  0  0  0  0  2  0  0  0  0  0  0
  160.1900  214.1860  149.6570 C   0  0  0  0  0  2  0  0  0  0  0  0
  161.0110  210.7250  152.1010 C   0  0  0  0  0  0  0  0  0  0  0  0
  160.1910  212.9740  151.7220 N   0  0  0  0  0  0  0  0  0  0  0  0
  163.0800  211.2060  148.3460 C   0  0  0  0  0  1  0  0  0  0  0  0
  161.4850  208.3800  152.4440 N   0  0  0  0  0  0  0  0  0  0  0  0
  161.2810  209.5460  152.9960 C   0  0  0  0  0  0  0  0  0  0  0  0
  161.4270  207.4510  148.8170 C   0  0  2  0  0  3  0  0  0  0  0  0
  161.3140  209.3210  150.1710 C   0  0  0  0  0  0  0  0  0  0  0  0
  160.5100  211.8680  152.5790 C   0  0  0  0  0  3  0  0  0  0  0  0
  162.3430  210.3950  156.5400 C   0  0  0  0  0  0  0  0  0  0  0  0
  161.3840  209.7470  157.2540 N   0  0  0  0  0  0  0  0  0  0  0  0
  161.3180  209.6410  154.4800 C   0  0  0  0  0  0  0  0  0  0  0  0
  160.3970  209.0430  156.6400 C   0  0  0  0  0  3  0  0  0  0  0  0
  162.3290  210.3490  155.1460 C   0  0  0  0  0  3  0  0  0  0  0  0
  160.3490  208.9760  155.2450 C   0  0  0  0  0  3  0  0  0  0  0  0
  163.3160  211.0830  157.1840 F   0  0  0  0  0  0  0  0  0  0  0  0
  162.6830  207.0900  148.0400 C   0  0  0  0  0  2  0  0  0  0  0  0
  162.3340  206.4200  146.7960 N   0  0  0  0  0  2  0  0  0  0  0  0
  161.3990  205.3530  147.1180 C   0  0  0  0  0  2  0  0  0  0  0  0
  160.8240  203.5040  149.2570 C   0  0  0  0  0  1  0  0  0  0  0  0
  161.5640  202.9500  148.0470 C   0  0  2  0  0  3  0  0  0  0  0  0
  160.8280  202.3070  145.9410 C   0  0  0  0  0  2  0  0  0  0  0  0
  161.8270  203.3810  145.6820 C   0  0  0  0  0  2  0  0  0  0  0  0
  162.0980  203.9950  147.0490 C   0  0  1  0  0  3  0  0  0  0  0  0
  160.6770  202.0760  147.2360 C   0  0  0  0  0  2  0  0  0  0  0  0
  1 12  2  0  0  0  0
  2  8  2  0  0  0  0
  3 11  1  0  0  0  0
  4 14  1  0  0  0  0
  5 10  1  0  0  0  0
  6  5  2  0  0  0  0
  6  2  1  0  0  0  0
  7 17  1  0  0  0  0
  8  1  1  0  0  0  0
  8  3  1  0  0  0  0
  9  4  1  0  0  0  0
 10  1  1  0  0  0  0
 11 18  2  0  0  0  0
 11 15  1  0  0  0  0
 12 18  1  0  0  0  0
 13  2  1  0  0  0  0
 14 15  2  0  0  0  0
 15 21  1  0  0  0  0
 16 26  1  6  0  0  0
 16  7  1  0  0  0  0
 16  9  1  0  0  0  0
 17  3  2  0  0  0  0
 17  4  1  0  0  0  0
 19 25  1  0  0  0  0
 19 20  1  0  0  0  0
 21 23  1  0  0  0  0
 21 24  2  0  0  0  0
 22 20  2  0  0  0  0
 23 19  2  0  0  0  0
 24 22  1  0  0  0  0
 27 28  1  0  0  0  0
 27 26  1  0  0  0  0
 30 29  1  1  0  0  0
 31 34  1  0  0  0  0
 32 31  1  0  0  0  0
 32 33  1  0  0  0  0
 33 28  1  6  0  0  0
 33 30  1  0  0  0  0
 34 30  1  0  0  0  0
M  END
>  <MODEL>
8

>  <REMARK>
 VINA RESULT:      -6.2      3.488      8.371
  Name = 
  5 active torsions:
  status: ('A' for Active; 'I' for Inactive)
    1  A    between atoms: N_3  and  C_13
    2  A    between atoms: N_3  and  C_17
    3  A    between atoms: C_12  and  C_28
    4  A    between atoms: C_13  and  C_33
    5  A    between atoms: C_17  and  C_29
                            x       y       z     vdW  Elec       q    Type
                         _______ _______ _______ _____ _____    ______ ____

>  <TORSDO>
F 5

$$$$
=
 OpenBabel11062407523D

 34 39  0  0  1  0  0  0  0  0999 V2000
  160.9030  206.1970  149.3250 C   0  0  0  0  0  0  0  0  0  0  0  0
  161.9110  205.7370  151.5470 C   0  0  0  0  0  0  0  0  0  0  0  0
  161.2110  208.1440  150.8990 C   0  0  0  0  0  0  0  0  0  0  0  0
  161.1510  210.1860  152.1280 N   0  0  0  0  0  0  0  0  0  0  0  0
  161.3260  203.9160  149.9970 C   0  0  0  0  0  3  0  0  0  0  0  0
  161.9810  204.4400  151.2180 C   0  0  0  0  0  3  0  0  0  0  0  0
  160.5390  208.2380  153.2590 N   0  0  0  0  0  2  0  0  0  0  0  0
  160.9780  206.6540  150.7670 C   0  0  0  0  0  0  0  0  0  0  0  0
  160.7890  210.6400  153.4530 C   0  0  0  0  0  2  0  0  0  0  0  0
  160.8280  204.7520  149.0790 C   0  0  0  0  0  2  0  0  0  0  0  0
  161.4660  208.9760  149.6930 C   0  0  0  0  0  0  0  0  0  0  0  0
  161.0680  207.0130  148.3280 N   0  0  0  0  0  0  0  0  0  0  0  0
  162.6350  206.1860  152.7700 C   0  0  0  0  0  1  0  0  0  0  0  0
  161.5080  210.9870  151.0330 N   0  0  0  0  0  0  0  0  0  0  0  0
  161.6900  210.4550  149.8540 C   0  0  0  0  0  0  0  0  0  0  0  0
  160.3950  209.3450  154.2080 C   0  0  2  0  0  3  0  0  0  0  0  0
  161.0010  208.7960  152.0460 C   0  0  0  0  0  0  0  0  0  0  0  0
  161.3440  208.4120  148.4880 C   0  0  0  0  0  3  0  0  0  0  0  0
  161.5940  212.6290  146.7430 C   0  0  0  0  0  0  0  0  0  0  0  0
  162.9090  212.9550  146.6220 N   0  0  0  0  0  0  0  0  0  0  0  0
  162.0980  211.3440  148.7330 C   0  0  0  0  0  0  0  0  0  0  0  0
  163.8370  212.5050  147.5080 C   0  0  0  0  0  3  0  0  0  0  0  0
  161.1690  211.8170  147.7950 C   0  0  0  0  0  3  0  0  0  0  0  0
  163.4480  211.6900  148.5740 C   0  0  0  0  0  3  0  0  0  0  0  0
  160.6970  213.0900  145.8400 F   0  0  0  0  0  0  0  0  0  0  0  0
  161.3270  209.1220  155.3900 C   0  0  0  0  0  2  0  0  0  0  0  0
  160.6580  209.4720  156.6340 N   0  0  0  0  0  2  0  0  0  0  0  0
  160.6660  210.9230  156.7460 C   0  0  0  0  0  2  0  0  0  0  0  0
  160.4530  213.7540  157.2610 C   0  0  0  0  0  1  0  0  0  0  0  0
  159.1550  212.9590  157.2290 C   0  0  2  0  0  3  0  0  0  0  0  0
  157.8680  212.1610  155.4700 C   0  0  0  0  0  2  0  0  0  0  0  0
  158.2390  210.9470  156.2500 C   0  0  0  0  0  2  0  0  0  0  0  0
  159.3040  211.4260  157.2270 C   0  0  1  0  0  3  0  0  0  0  0  0
  158.3760  213.2620  156.0020 C   0  0  0  0  0  2  0  0  0  0  0  0
  1  8  1  0  0  0  0
  2 13  1  0  0  0  0
  3 17  2  0  0  0  0
  4  9  1  0  0  0  0
  5  6  2  0  0  0  0
  6  2  1  0  0  0  0
  7 16  1  0  0  0  0
  8  3  1  0  0  0  0
  8  2  2  0  0  0  0
  9 16  1  0  0  0  0
 10  1  1  0  0  0  0
 10  5  1  0  0  0  0
 11 15  1  0  0  0  0
 11  3  1  0  0  0  0
 12 18  1  0  0  0  0
 12  1  2  0  0  0  0
 14  4  1  0  0  0  0
 15 14  2  0  0  0  0
 16 26  1  1  0  0  0
 17  4  1  0  0  0  0
 17  7  1  0  0  0  0
 18 11  2  0  0  0  0
 19 23  1  0  0  0  0
 20 19  2  0  0  0  0
 20 22  1  0  0  0  0
 21 15  1  0  0  0  0
 22 24  2  0  0  0  0
 23 21  2  0  0  0  0
 24 21  1  0  0  0  0
 25 19  1  0  0  0  0
 26 27  1  0  0  0  0
 27 28  1  0  0  0  0
 30 29  1  6  0  0  0
 31 34  1  0  0  0  0
 31 32  1  0  0  0  0
 32 33  1  0  0  0  0
 33 28  1  6  0  0  0
 33 30  1  0  0  0  0
 34 30  1  0  0  0  0
M  END
>  <MODEL>
9

>  <REMARK>
 VINA RESULT:      -5.9      2.401      5.603
  Name = 
  5 active torsions:
  status: ('A' for Active; 'I' for Inactive)
    1  A    between atoms: N_3  and  C_13
    2  A    between atoms: N_3  and  C_17
    3  A    between atoms: C_12  and  C_28
    4  A    between atoms: C_13  and  C_33
    5  A    between atoms: C_17  and  C_29
                            x       y       z     vdW  Elec       q    Type
                         _______ _______ _______ _____ _____    ______ ____

>  <TORSDO>
F 5

$$$$
