=
 OpenBabel11062409033D

 37 45  0  0  1  0  0  0  0  0999 V2000
  161.1820  212.1320  149.2370 C   0  0  1  0  0  3  0  0  0  0  0  0
  157.4150  214.4530  154.5460 C   0  0  0  0  0  2  0  0  0  0  0  0
  160.8700  206.4460  151.4440 C   0  0  0  0  0  2  0  0  0  0  0  0
  160.8870  210.3550  153.5000 C   0  0  1  0  0  3  0  0  0  0  0  0
  161.5270  213.6000  149.1310 C   0  0  0  0  0  2  0  0  0  0  0  0
  157.4290  213.1700  153.6820 C   0  0  2  0  0  0  0  0  0  0  0  0
  157.2890  213.3710  152.1930 C   0  0  0  0  0  2  0  0  0  0  0  0
  157.1050  211.8110  154.3040 C   0  0  2  0  0  3  0  0  0  0  0  0
  162.0210  208.2420  153.7520 C   0  0  0  0  0  2  0  0  0  0  0  0
  160.4800  211.3010  152.3650 C   0  0  2  0  0  3  0  0  0  0  0  0
  161.7910  210.0780  148.3530 O   0  0  0  0  0  1  0  0  0  0  0  0
  161.9210  209.4820  152.9610 N   0  0  1  0  0  0  0  0  0  0  0  0
  158.9890  211.7110  152.4560 C   0  0  2  0  0  3  0  0  0  0  0  0
  157.0620  210.8420  156.4560 O   0  0  0  0  0  0  0  0  0  0  0  0
  160.7510  207.3960  153.7520 C   0  0  0  0  0  2  0  0  0  0  0  0
  160.4390  214.4530  149.7970 C   0  0  0  0  0  2  0  0  0  0  0  0
  156.5150  213.1280  156.4720 C   0  0  0  0  0  2  0  0  0  0  0  0
  156.9190  211.8580  155.7960 C   0  0  0  0  0  0  0  0  0  0  0  0
  161.4430  209.2290  151.6070 C   0  0  2  0  0  3  0  0  0  0  0  0
  161.8470  207.6710  149.6110 C   0  0  0  0  0  2  0  0  0  0  0  0
  160.0980  211.6160  155.4520 C   0  0  0  0  0  2  0  0  0  0  0  0
  162.3290  211.2310  148.9090 C   0  0  2  0  0  3  0  0  0  0  0  0
  162.0950  210.3650  155.5970 O   0  0  0  0  0  1  0  0  0  0  0  0
  162.4580  208.4340  150.7730 C   0  0  2  0  0  3  0  0  0  0  0  0
  158.9780  214.0640  149.4590 C   0  0  2  0  0  3  0  0  0  0  0  0
  158.6300  212.9440  151.6430 C   0  0  1  0  0  3  0  0  0  0  0  0
  161.3430  211.1530  154.7230 C   0  0  1  0  0  3  0  0  0  0  0  0
  160.8820  210.5630  151.0700 C   0  0  2  0  0  3  0  0  0  0  0  0
  160.9740  206.1400  152.9280 C   0  0  0  0  0  2  0  0  0  0  0  0
  158.5490  212.1340  153.8750 C   0  0  1  0  0  0  0  0  0  0  0  0
  162.2050  206.9120  150.8600 C   0  0  1  0  0  3  0  0  0  0  0  0
  158.5450  212.7630  150.1420 C   0  0  0  0  0  2  0  0  0  0  0  0
  157.4780  214.2220  156.0550 C   0  0  0  0  0  2  0  0  0  0  0  0
  161.9210  211.4660  150.3790 C   0  0  2  0  0  3  0  0  0  0  0  0
  159.5090  212.6750  154.7560 O   0  0  0  0  0  0  0  0  0  0  0  0
  158.7160  214.0000  147.9610 C   0  0  0  0  0  2  0  0  0  0  0  0
  157.6680  212.9470  147.6520 C   0  0  0  0  0  1  0  0  0  0  0  0
  1  5  1  1  0  0  0
  1 34  1  0  0  0  0
  2 33  1  0  0  0  0
  3 29  1  0  0  0  0
  4 27  1  0  0  0  0
  5 16  1  0  0  0  0
  6 30  1  0  0  0  0
  6  8  1  0  0  0  0
  6  2  1  0  0  0  0
  7  6  1  0  0  0  0
  8 18  1  0  0  0  0
 10 13  1  0  0  0  0
 10  4  1  0  0  0  0
 11 22  1  0  0  0  0
 12  4  1  0  0  0  0
 12  9  1  0  0  0  0
 13 30  1  0  0  0  0
 15  9  1  0  0  0  0
 18 14  2  0  0  0  0
 18 17  1  0  0  0  0
 19 12  1  0  0  0  0
 20 24  1  0  0  0  0
 20 31  1  0  0  0  0
 22  1  1  0  0  0  0
 22 34  1  0  0  0  0
 24 31  1  0  0  0  0
 24 19  1  0  0  0  0
 25 16  1  0  0  0  0
 25 32  1  0  0  0  0
 26  7  1  0  0  0  0
 26 13  1  0  0  0  0
 27 21  1  0  0  0  0
 27 23  1  0  0  0  0
 28 19  1  0  0  0  0
 28 10  1  0  0  0  0
 29 15  1  0  0  0  0
 30  8  1  0  0  0  0
 30 35  1  0  0  0  0
 31  3  1  0  0  0  0
 32 26  1  0  0  0  0
 33 17  1  0  0  0  0
 34 28  1  0  0  0  0
 35 21  1  0  0  0  0
 36 25  1  0  0  0  0
 37 36  1  0  0  0  0
M  END
>  <MODEL>
1

>  <REMARK>
 VINA RESULT:      -5.9      0.000      0.000
  Name = 
  1 active torsions:
  status: ('A' for Active; 'I' for Inactive)
    1  A    between atoms: C_11  and  C_26
                            x       y       z     vdW  Elec       q    Type
                         _______ _______ _______ _____ _____    ______ ____

>  <TORSDO>
F 1

$$$$
