=
 OpenBabel11062410293D

 43 48  0  0  1  0  0  0  0  0999 V2000
  160.9150  202.6890  149.0290 C   0  0  0  0  0  0  0  0  0  0  0  0
  161.6110  207.7280  148.3300 C   0  0  2  0  0  3  0  0  0  0  0  0
  162.2860  208.5740  150.4430 C   0  0  1  0  0  3  0  0  0  0  0  0
  161.6310  204.8200  148.2150 C   0  0  0  0  0  0  0  0  0  0  0  0
  160.0250  203.2850  150.0800 C   0  0  0  0  0  2  0  0  0  0  0  0
  161.0080  201.4390  148.9300 O   0  0  0  0  0  0  0  0  0  0  0  0
  160.8970  205.4940  149.3150 C   0  0  0  0  0  0  0  0  0  0  0  0
  161.6210  203.5270  148.1060 N   0  0  0  0  0  0  0  0  0  0  0  0
  160.1800  204.7760  150.1830 C   0  0  0  0  0  3  0  0  0  0  0  0
  161.7100  207.3020  150.6700 O   0  0  0  0  0  0  0  0  0  0  0  0
  160.9930  206.9840  149.5060 C   0  0  1  0  0  3  0  0  0  0  0  0
  162.7960  206.9640  147.7420 C   0  0  0  0  0  2  0  0  0  0  0  0
  162.1110  208.9820  148.9800 C   0  0  2  0  0  3  0  0  0  0  0  0
  162.3300  205.6330  147.1710 C   0  0  0  0  0  2  0  0  0  0  0  0
  161.8240  209.6120  151.3800 N   0  0  0  0  0  0  0  0  0  0  0  0
  163.0080  210.1350  152.0370 C   0  0  0  0  0  1  0  0  0  0  0  0
  160.9580  209.0690  152.4280 C   0  0  0  0  0  2  0  0  0  0  0  0
  160.1460  210.1690  153.1080 C   0  0  1  0  0  3  0  0  0  0  0  0
  160.5480  210.3200  154.4360 O   0  0  0  0  0  1  0  0  0  0  0  0
  160.2570  211.4830  152.3900 C   0  0  0  0  0  3  0  0  0  0  0  0
  159.3330  212.4500  152.4510 C   0  0  0  0  0  0  0  0  0  0  0  0
  157.2380  214.4520  152.2410 C   0  0  0  0  0  2  0  0  0  0  0  0
  158.1030  212.3220  153.3200 C   0  0  2  0  0  3  0  0  0  0  0  0
  159.6340  213.7620  151.7810 C   0  0  0  0  0  2  0  0  0  0  0  0
  158.3800  214.4400  151.2250 C   0  0  1  0  0  3  0  0  0  0  0  0
  156.8940  213.0380  152.7140 C   0  0  0  0  0  2  0  0  0  0  0  0
  157.9490  213.8110  149.9120 C   0  0  0  0  0  1  0  0  0  0  0  0
  158.3590  212.7360  154.7420 C   0  0  0  0  0  0  0  0  0  0  0  0
  158.5850  214.0780  157.2610 C   0  0  0  0  0  2  0  0  0  0  0  0
  157.8110  212.7690  157.2220 C   0  0  0  0  0  2  0  0  0  0  0  0
  159.8190  213.9420  156.3780 C   0  0  0  0  0  2  0  0  0  0  0  0
  157.3030  212.5080  155.8040 C   0  0  0  0  0  2  0  0  0  0  0  0
  159.4590  213.4640  154.9950 C   0  0  0  0  0  3  0  0  0  0  0  0
  161.1470  209.9860  148.8390 O   0  0  0  0  0  0  0  0  0  0  0  0
  161.8070  211.0280  148.1850 C   0  0  0  0  0  2  0  0  0  0  0  0
  161.5670  212.3300  148.9240 C   0  0  0  0  0  2  0  0  0  0  0  0
  162.1650  213.4340  148.1940 N   0  0  0  0  0  2  0  0  0  0  0  0
  161.9750  213.1450  146.7850 C   0  0  0  0  0  2  0  0  0  0  0  0
  161.1440  214.2420  146.1330 C   0  0  1  0  0  3  0  0  0  0  0  0
  160.1280  213.7090  145.1160 C   0  0  2  0  0  3  0  0  0  0  0  0
  159.6830  214.1000  146.5120 C   0  0  0  0  0  2  0  0  0  0  0  0
  159.9050  212.0540  143.6680 C   0  0  0  0  0  1  0  0  0  0  0  0
  160.1550  212.3150  145.0140 O   0  0  0  0  0  0  0  0  0  0  0  0
  1  5  1  0  0  0  0
  2 12  1  1  0  0  0
  2 13  1  0  0  0  0
  2 11  1  0  0  0  0
  3 10  1  0  0  0  0
  3 15  1  1  0  0  0
  4  7  1  0  0  0  0
  5  9  1  0  0  0  0
  6  1  2  0  0  0  0
  7  9  2  0  0  0  0
  8  4  2  0  0  0  0
  8  1  1  0  0  0  0
 11  7  1  6  0  0  0
 11 10  1  0  0  0  0
 13 34  1  1  0  0  0
 13  3  1  0  0  0  0
 14 12  1  0  0  0  0
 14  4  1  0  0  0  0
 15 16  1  0  0  0  0
 15 17  1  0  0  0  0
 17 18  1  0  0  0  0
 18 19  1  1  0  0  0
 20 21  2  0  0  0  0
 20 18  1  0  0  0  0
 21 23  1  0  0  0  0
 22 26  1  0  0  0  0
 23 28  1  1  0  0  0
 24 21  1  0  0  0  0
 25 27  1  6  0  0  0
 25 24  1  0  0  0  0
 25 22  1  0  0  0  0
 26 23  1  0  0  0  0
 28 33  2  0  0  0  0
 28 32  1  0  0  0  0
 30 29  1  0  0  0  0
 31 29  1  0  0  0  0
 32 30  1  0  0  0  0
 33 31  1  0  0  0  0
 35 34  1  0  0  0  0
 35 36  1  0  0  0  0
 37 36  1  0  0  0  0
 38 37  1  0  0  0  0
 39 41  1  0  0  0  0
 39 38  1  1  0  0  0
 40 43  1  1  0  0  0
 40 39  1  0  0  0  0
 40 41  1  0  0  0  0
 42 43  1  0  0  0  0
M  END
>  <MODEL>
1

>  <REMARK>
 VINA RESULT:      -5.9      0.000      0.000
  Name = 
  12 active torsions:
  status: ('A' for Active; 'I' for Inactive)
    1  A    between atoms: C_1  and  C_35
    2  A    between atoms: C_1  and  O_38
    3  A    between atoms: N_2  and  C_6
    4  A    between atoms: N_2  and  C_13
    5  A    between atoms: C_3  and  C_12
    6  A    between atoms: C_6  and  C_12
    7  A    between atoms: C_9  and  C_19
    8  A    between atoms: C_9  and  N_32
    9  A    between atoms: C_11  and  C_14
   10  A    between atoms: C_25  and  O_39
   11  A    between atoms: N_32  and  C_35
   12  A    between atoms: C_34  and  O_38
                            x       y       z     vdW  Elec       q    Type
                         _______ _______ _______ _____ _____    ______ ____

>  <TORSDO>
F 12

$$$$
=
 OpenBabel11062410293D

 43 48  0  0  1  0  0  0  0  0999 V2000
  161.0220  213.4920  143.8910 C   0  0  0  0  0  0  0  0  0  0  0  0
  161.0330  212.5320  148.9340 C   0  0  2  0  0  3  0  0  0  0  0  0
  162.0920  210.4220  149.1760 C   0  0  1  0  0  3  0  0  0  0  0  0
  161.3150  213.6410  146.2590 C   0  0  0  0  0  0  0  0  0  0  0  0
  160.3450  212.1550  143.9640 C   0  0  0  0  0  2  0  0  0  0  0  0
  161.2130  214.0300  142.7700 O   0  0  0  0  0  0  0  0  0  0  0  0
  160.7920  212.2610  146.4170 C   0  0  0  0  0  0  0  0  0  0  0  0
  161.4080  214.1850  145.0830 N   0  0  0  0  0  0  0  0  0  0  0  0
  160.3710  211.5760  145.3510 C   0  0  0  0  0  3  0  0  0  0  0  0
  161.7140  210.5430  147.8180 O   0  0  0  0  0  0  0  0  0  0  0  0
  160.7810  211.5910  147.7650 C   0  0  1  0  0  3  0  0  0  0  0  0
  162.1200  213.5570  148.6090 C   0  0  0  0  0  2  0  0  0  0  0  0
  161.5430  211.5960  149.9870 C   0  0  2  0  0  3  0  0  0  0  0  0
  161.6690  214.4530  147.4650 C   0  0  0  0  0  2  0  0  0  0  0  0
  161.7600  209.1160  149.7720 N   0  0  0  0  0  0  0  0  0  0  0  0
  162.4760  209.0410  151.0320 C   0  0  0  0  0  1  0  0  0  0  0  0
  162.2220  207.9970  148.9500 C   0  0  0  0  0  2  0  0  0  0  0  0
  161.2850  206.7960  149.0640 C   0  0  1  0  0  3  0  0  0  0  0  0
  160.3770  206.9840  150.1070 O   0  0  0  0  0  1  0  0  0  0  0  0
  160.5420  206.5310  147.7850 C   0  0  0  0  0  3  0  0  0  0  0  0
  160.8460  205.5430  146.9340 C   0  0  0  0  0  0  0  0  0  0  0  0
  161.6400  203.6610  144.8690 C   0  0  0  0  0  2  0  0  0  0  0  0
  161.9460  204.5490  147.2290 C   0  0  2  0  0  3  0  0  0  0  0  0
  159.9400  205.3200  145.7550 C   0  0  0  0  0  2  0  0  0  0  0  0
  160.6920  204.8090  144.5240 C   0  0  1  0  0  3  0  0  0  0  0  0
  162.6410  204.0670  145.9530 C   0  0  0  0  0  2  0  0  0  0  0  0
  161.4190  205.9370  143.8150 C   0  0  0  0  0  1  0  0  0  0  0  0
  161.4750  203.4100  148.0880 C   0  0  0  0  0  0  0  0  0  0  0  0
  159.9980  201.4220  149.5240 C   0  0  0  0  0  2  0  0  0  0  0  0
  161.0720  200.9460  148.5580 C   0  0  0  0  0  2  0  0  0  0  0  0
  160.5190  202.6430  150.2700 C   0  0  0  0  0  2  0  0  0  0  0  0
  161.3330  202.0200  147.5010 C   0  0  0  0  0  2  0  0  0  0  0  0
  161.0220  203.6980  149.3190 C   0  0  0  0  0  3  0  0  0  0  0  0
  160.4780  211.2020  150.8040 O   0  0  0  0  0  0  0  0  0  0  0  0
  160.6530  211.9160  151.9910 C   0  0  0  0  0  2  0  0  0  0  0  0
  160.3260  211.0290  153.1760 C   0  0  0  0  0  2  0  0  0  0  0  0
  161.2590  211.2810  154.2590 N   0  0  0  0  0  2  0  0  0  0  0  0
  161.6830  209.9820  154.7450 C   0  0  0  0  0  2  0  0  0  0  0  0
  160.4960  209.2300  155.3350 C   0  0  1  0  0  3  0  0  0  0  0  0
  160.2910  207.8420  154.7180 C   0  0  2  0  0  3  0  0  0  0  0  0
  160.9630  207.9900  156.0700 C   0  0  0  0  0  2  0  0  0  0  0  0
  161.2800  206.1440  153.7050 C   0  0  0  0  0  1  0  0  0  0  0  0
  161.2560  207.5380  153.7540 O   0  0  0  0  0  0  0  0  0  0  0  0
  1  5  1  0  0  0  0
  1  8  1  0  0  0  0
  2 12  1  6  0  0  0
  2 13  1  0  0  0  0
  3 15  1  1  0  0  0
  3 13  1  0  0  0  0
  4  7  1  0  0  0  0
  4 14  1  0  0  0  0
  5  9  1  0  0  0  0
  6  1  2  0  0  0  0
  8  4  2  0  0  0  0
  9  7  2  0  0  0  0
 10  3  1  0  0  0  0
 11  7  1  6  0  0  0
 11 10  1  0  0  0  0
 11  2  1  0  0  0  0
 13 34  1  1  0  0  0
 14 12  1  0  0  0  0
 15 16  1  0  0  0  0
 17 18  1  0  0  0  0
 17 15  1  0  0  0  0
 18 19  1  1  0  0  0
 20 18  1  0  0  0  0
 21 23  1  0  0  0  0
 21 20  2  0  0  0  0
 22 26  1  0  0  0  0
 23 28  1  6  0  0  0
 24 21  1  0  0  0  0
 25 27  1  1  0  0  0
 25 22  1  0  0  0  0
 25 24  1  0  0  0  0
 26 23  1  0  0  0  0
 28 33  2  0  0  0  0
 29 31  1  0  0  0  0
 30 29  1  0  0  0  0
 32 28  1  0  0  0  0
 32 30  1  0  0  0  0
 33 31  1  0  0  0  0
 34 35  1  0  0  0  0
 35 36  1  0  0  0  0
 36 37  1  0  0  0  0
 37 38  1  0  0  0  0
 39 38  1  6  0  0  0
 39 41  1  0  0  0  0
 40 43  1  6  0  0  0
 40 39  1  0  0  0  0
 40 41  1  0  0  0  0
 42 43  1  0  0  0  0
M  END
>  <MODEL>
2

>  <REMARK>
 VINA RESULT:      -5.6      2.700      9.474
  Name = 
  12 active torsions:
  status: ('A' for Active; 'I' for Inactive)
    1  A    between atoms: C_1  and  C_35
    2  A    between atoms: C_1  and  O_38
    3  A    between atoms: N_2  and  C_6
    4  A    between atoms: N_2  and  C_13
    5  A    between atoms: C_3  and  C_12
    6  A    between atoms: C_6  and  C_12
    7  A    between atoms: C_9  and  C_19
    8  A    between atoms: C_9  and  N_32
    9  A    between atoms: C_11  and  C_14
   10  A    between atoms: C_25  and  O_39
   11  A    between atoms: N_32  and  C_35
   12  A    between atoms: C_34  and  O_38
                            x       y       z     vdW  Elec       q    Type
                         _______ _______ _______ _____ _____    ______ ____

>  <TORSDO>
F 12

$$$$
=
 OpenBabel11062410293D

 43 48  0  0  1  0  0  0  0  0999 V2000
  161.9170  211.3510  148.2010 C   0  0  0  0  0  0  0  0  0  0  0  0
  161.7920  207.0340  150.9790 C   0  0  2  0  0  3  0  0  0  0  0  0
  160.6930  207.6140  153.0020 C   0  0  1  0  0  3  0  0  0  0  0  0
  161.5810  209.1030  148.9430 C   0  0  0  0  0  0  0  0  0  0  0  0
  162.5700  211.7750  149.4840 C   0  0  0  0  0  2  0  0  0  0  0  0
  161.7570  212.1910  147.2790 O   0  0  0  0  0  0  0  0  0  0  0  0
  162.0770  209.4670  150.2930 C   0  0  0  0  0  0  0  0  0  0  0  0
  161.5190  209.9900  147.9960 N   0  0  0  0  0  0  0  0  0  0  0  0
  162.5070  210.7070  150.5390 C   0  0  0  0  0  3  0  0  0  0  0  0
  161.1000  208.8230  152.3890 O   0  0  0  0  0  0  0  0  0  0  0  0
  162.0500  208.4680  151.4190 C   0  0  1  0  0  3  0  0  0  0  0  0
  160.7290  206.9650  149.8830 C   0  0  0  0  0  2  0  0  0  0  0  0
  161.2460  206.4150  152.2290 C   0  0  2  0  0  3  0  0  0  0  0  0
  161.2170  207.6840  148.6340 C   0  0  0  0  0  2  0  0  0  0  0  0
  160.9930  207.5460  154.4420 N   0  0  0  0  0  0  0  0  0  0  0  0
  159.7700  207.1230  155.1010 C   0  0  0  0  0  1  0  0  0  0  0  0
  161.3470  208.8530  154.9980 C   0  0  0  0  0  2  0  0  0  0  0  0
  160.1110  209.7240  155.2110 C   0  0  1  0  0  3  0  0  0  0  0  0
  159.7250  209.7000  156.5520 O   0  0  0  0  0  1  0  0  0  0  0  0
  160.3320  211.1420  154.7700 C   0  0  0  0  0  3  0  0  0  0  0  0
  159.3940  211.9000  154.1870 C   0  0  0  0  0  0  0  0  0  0  0  0
  157.5470  213.4940  152.6100 C   0  0  0  0  0  2  0  0  0  0  0  0
  157.9830  211.3990  153.9780 C   0  0  2  0  0  3  0  0  0  0  0  0
  159.7180  213.3410  153.9110 C   0  0  0  0  0  2  0  0  0  0  0  0
  159.0280  213.8680  152.6510 C   0  0  1  0  0  3  0  0  0  0  0  0
  157.3490  211.9800  152.7130 C   0  0  0  0  0  2  0  0  0  0  0  0
  159.7510  213.4140  151.3960 C   0  0  0  0  0  1  0  0  0  0  0  0
  157.1190  211.5950  155.1920 C   0  0  0  0  0  0  0  0  0  0  0  0
  155.1880  212.4110  157.1420 C   0  0  0  0  0  2  0  0  0  0  0  0
  155.2170  210.9420  156.7450 C   0  0  0  0  0  2  0  0  0  0  0  0
  156.6210  212.9130  157.2600 C   0  0  0  0  0  2  0  0  0  0  0  0
  155.8450  210.7920  155.3590 C   0  0  0  0  0  2  0  0  0  0  0  0
  157.4160  212.6130  156.0170 C   0  0  0  0  0  3  0  0  0  0  0  0
  162.2880  205.7920  152.9240 O   0  0  0  0  0  0  0  0  0  0  0  0
  162.4170  204.5370  152.3290 C   0  0  0  0  0  2  0  0  0  0  0  0
  161.0430  203.9570  152.0530 C   0  0  0  0  0  2  0  0  0  0  0  0
  161.1650  202.7330  151.2830 N   0  0  0  0  0  2  0  0  0  0  0  0
  160.8080  203.0700  149.9180 C   0  0  0  0  0  2  0  0  0  0  0  0
  160.2510  201.8440  149.2040 C   0  0  1  0  0  3  0  0  0  0  0  0
  160.5710  201.8180  147.7060 C   0  0  2  0  0  3  0  0  0  0  0  0
  161.3770  200.9770  148.6770 C   0  0  0  0  0  2  0  0  0  0  0  0
  161.2540  202.9140  145.9110 C   0  0  0  0  0  1  0  0  0  0  0  0
  161.3350  202.9170  147.3030 O   0  0  0  0  0  0  0  0  0  0  0  0
  1  5  1  0  0  0  0
  2 12  1  6  0  0  0
  2 11  1  0  0  0  0
  2 13  1  0  0  0  0
  3 15  1  1  0  0  0
  4  7  1  0  0  0  0
  5  9  1  0  0  0  0
  6  1  2  0  0  0  0
  7  9  2  0  0  0  0
  8  1  1  0  0  0  0
  8  4  2  0  0  0  0
 10  3  1  0  0  0  0
 11  7  1  6  0  0  0
 11 10  1  0  0  0  0
 13 34  1  1  0  0  0
 13  3  1  0  0  0  0
 14  4  1  0  0  0  0
 14 12  1  0  0  0  0
 15 17  1  0  0  0  0
 15 16  1  0  0  0  0
 17 18  1  0  0  0  0
 18 19  1  1  0  0  0
 20 18  1  0  0  0  0
 21 20  2  0  0  0  0
 22 25  1  0  0  0  0
 22 26  1  0  0  0  0
 23 21  1  0  0  0  0
 23 28  1  1  0  0  0
 24 21  1  0  0  0  0
 25 27  1  6  0  0  0
 25 24  1  0  0  0  0
 26 23  1  0  0  0  0
 28 32  1  0  0  0  0
 28 33  2  0  0  0  0
 29 31  1  0  0  0  0
 30 29  1  0  0  0  0
 32 30  1  0  0  0  0
 33 31  1  0  0  0  0
 35 34  1  0  0  0  0
 36 35  1  0  0  0  0
 37 36  1  0  0  0  0
 38 37  1  0  0  0  0
 39 38  1  1  0  0  0
 40 43  1  1  0  0  0
 40 41  1  0  0  0  0
 40 39  1  0  0  0  0
 41 39  1  0  0  0  0
 42 43  1  0  0  0  0
M  END
>  <MODEL>
3

>  <REMARK>
 VINA RESULT:      -5.5      2.240      6.262
  Name = 
  12 active torsions:
  status: ('A' for Active; 'I' for Inactive)
    1  A    between atoms: C_1  and  C_35
    2  A    between atoms: C_1  and  O_38
    3  A    between atoms: N_2  and  C_6
    4  A    between atoms: N_2  and  C_13
    5  A    between atoms: C_3  and  C_12
    6  A    between atoms: C_6  and  C_12
    7  A    between atoms: C_9  and  C_19
    8  A    between atoms: C_9  and  N_32
    9  A    between atoms: C_11  and  C_14
   10  A    between atoms: C_25  and  O_39
   11  A    between atoms: N_32  and  C_35
   12  A    between atoms: C_34  and  O_38
                            x       y       z     vdW  Elec       q    Type
                         _______ _______ _______ _____ _____    ______ ____

>  <TORSDO>
F 12

$$$$
=
 OpenBabel11062410293D

 43 48  0  0  1  0  0  0  0  0999 V2000
  160.8030  201.9420  146.2250 C   0  0  0  0  0  0  0  0  0  0  0  0
  161.5240  204.7800  150.4430 C   0  0  2  0  0  3  0  0  0  0  0  0
  160.5260  206.8810  149.9710 C   0  0  1  0  0  3  0  0  0  0  0  0
  160.8530  202.7410  148.4780 C   0  0  0  0  0  0  0  0  0  0  0  0
  161.4930  203.1580  145.6800 C   0  0  0  0  0  2  0  0  0  0  0  0
  160.4500  201.0250  145.4400 O   0  0  0  0  0  0  0  0  0  0  0  0
  161.4020  204.0390  148.0120 C   0  0  0  0  0  0  0  0  0  0  0  0
  160.5880  201.7910  147.6330 N   0  0  0  0  0  0  0  0  0  0  0  0
  161.6710  204.2290  146.7190 C   0  0  0  0  0  3  0  0  0  0  0  0
  160.7040  206.2190  148.7340 O   0  0  0  0  0  0  0  0  0  0  0  0
  161.6120  205.1760  148.9760 C   0  0  1  0  0  3  0  0  0  0  0  0
  160.3950  203.7800  150.6890 C   0  0  0  0  0  2  0  0  0  0  0  0
  161.1770  206.0800  151.1000 C   0  0  2  0  0  3  0  0  0  0  0  0
  160.6700  202.4840  149.9410 C   0  0  0  0  0  2  0  0  0  0  0  0
  160.9500  208.2920  149.9590 N   0  0  0  0  0  0  0  0  0  0  0  0
  161.9510  208.4150  148.9160 C   0  0  0  0  0  1  0  0  0  0  0  0
  161.5880  208.6900  151.2150 C   0  0  0  0  0  2  0  0  0  0  0  0
  160.7200  209.6740  151.9960 C   0  0  1  0  0  3  0  0  0  0  0  0
  160.9550  209.5500  153.3650 O   0  0  0  0  0  1  0  0  0  0  0  0
  160.9450  211.0950  151.5680 C   0  0  0  0  0  3  0  0  0  0  0  0
  160.0240  212.0630  151.6670 C   0  0  0  0  0  0  0  0  0  0  0  0
  157.9930  214.1330  151.5170 C   0  0  0  0  0  2  0  0  0  0  0  0
  158.6720  211.8120  152.2930 C   0  0  2  0  0  3  0  0  0  0  0  0
  160.4300  213.4660  151.3140 C   0  0  0  0  0  2  0  0  0  0  0  0
  159.2810  214.2760  150.7090 C   0  0  1  0  0  3  0  0  0  0  0  0
  157.5750  212.6680  151.6530 C   0  0  0  0  0  2  0  0  0  0  0  0
  159.0640  213.9190  149.2500 C   0  0  0  0  0  1  0  0  0  0  0  0
  158.6990  211.9440  153.7890 C   0  0  0  0  0  0  0  0  0  0  0  0
  158.6280  212.8100  156.5170 C   0  0  0  0  0  2  0  0  0  0  0  0
  157.6720  211.7010  156.1010 C   0  0  0  0  0  2  0  0  0  0  0  0
  159.9750  212.5690  155.8490 C   0  0  0  0  0  2  0  0  0  0  0  0
  157.4260  211.7680  154.5930 C   0  0  0  0  0  2  0  0  0  0  0  0
  159.8290  212.3910  154.3600 C   0  0  0  0  0  3  0  0  0  0  0  0
  162.3510  206.6930  151.5520 O   0  0  0  0  0  0  0  0  0  0  0  0
  162.5300  206.2120  152.8500 C   0  0  0  0  0  2  0  0  0  0  0  0
  161.2090  206.2440  153.5940 C   0  0  0  0  0  2  0  0  0  0  0  0
  161.4410  206.4770  155.0080 N   0  0  0  0  0  2  0  0  0  0  0  0
  160.3990  207.3840  155.4510 C   0  0  0  0  0  2  0  0  0  0  0  0
  160.5590  207.6800  156.9370 C   0  0  1  0  0  3  0  0  0  0  0  0
  161.5450  208.8180  157.2250 C   0  0  2  0  0  3  0  0  0  0  0  0
  160.0490  209.0700  157.2610 C   0  0  0  0  0  2  0  0  0  0  0  0
  162.9120  210.3980  156.5020 C   0  0  0  0  0  1  0  0  0  0  0  0
  162.0780  209.3720  156.0580 O   0  0  0  0  0  0  0  0  0  0  0  0
  1  8  1  0  0  0  0
  2 12  1  6  0  0  0
  2 13  1  0  0  0  0
  3 15  1  6  0  0  0
  3 13  1  0  0  0  0
  4 14  1  0  0  0  0
  5  1  1  0  0  0  0
  5  9  1  0  0  0  0
  6  1  2  0  0  0  0
  7  4  1  0  0  0  0
  8  4  2  0  0  0  0
  9  7  2  0  0  0  0
 10 11  1  0  0  0  0
 10  3  1  0  0  0  0
 11  7  1  6  0  0  0
 11  2  1  0  0  0  0
 13 34  1  6  0  0  0
 14 12  1  0  0  0  0
 15 17  1  0  0  0  0
 16 15  1  0  0  0  0
 17 18  1  0  0  0  0
 18 19  1  1  0  0  0
 20 21  2  0  0  0  0
 20 18  1  0  0  0  0
 21 23  1  0  0  0  0
 22 26  1  0  0  0  0
 23 28  1  1  0  0  0
 24 21  1  0  0  0  0
 25 27  1  6  0  0  0
 25 24  1  0  0  0  0
 25 22  1  0  0  0  0
 26 23  1  0  0  0  0
 28 33  2  0  0  0  0
 28 32  1  0  0  0  0
 30 29  1  0  0  0  0
 31 29  1  0  0  0  0
 32 30  1  0  0  0  0
 33 31  1  0  0  0  0
 34 35  1  0  0  0  0
 35 36  1  0  0  0  0
 36 37  1  0  0  0  0
 37 38  1  0  0  0  0
 39 38  1  6  0  0  0
 39 40  1  0  0  0  0
 39 41  1  0  0  0  0
 40 43  1  6  0  0  0
 40 41  1  0  0  0  0
 43 42  1  0  0  0  0
M  END
>  <MODEL>
4

>  <REMARK>
 VINA RESULT:      -5.5      2.491      5.541
  Name = 
  12 active torsions:
  status: ('A' for Active; 'I' for Inactive)
    1  A    between atoms: C_1  and  C_35
    2  A    between atoms: C_1  and  O_38
    3  A    between atoms: N_2  and  C_6
    4  A    between atoms: N_2  and  C_13
    5  A    between atoms: C_3  and  C_12
    6  A    between atoms: C_6  and  C_12
    7  A    between atoms: C_9  and  C_19
    8  A    between atoms: C_9  and  N_32
    9  A    between atoms: C_11  and  C_14
   10  A    between atoms: C_25  and  O_39
   11  A    between atoms: N_32  and  C_35
   12  A    between atoms: C_34  and  O_38
                            x       y       z     vdW  Elec       q    Type
                         _______ _______ _______ _____ _____    ______ ____

>  <TORSDO>
F 12

$$$$
=
 OpenBabel11062410293D

 43 49  0  0  1  0  0  0  0  0999 V2000
  161.0930  202.7320  145.8830 C   0  0  0  0  0  0  0  0  0  0  0  0
  161.6400  205.2370  150.3310 C   0  0  2  0  0  3  0  0  0  0  0  0
  161.4070  207.5370  149.7970 C   0  0  1  0  0  3  0  0  0  0  0  0
  160.8690  203.4810  148.1430 C   0  0  0  0  0  0  0  0  0  0  0  0
  162.2010  203.6960  145.5740 C   0  0  0  0  0  2  0  0  0  0  0  0
  160.6750  201.9580  144.9840 O   0  0  0  0  0  0  0  0  0  0  0  0
  161.8520  204.5640  147.8870 C   0  0  0  0  0  0  0  0  0  0  0  0
  160.5390  202.6500  147.2020 N   0  0  0  0  0  0  0  0  0  0  0  0
  162.4410  204.6690  146.6940 C   0  0  0  0  0  3  0  0  0  0  0  0
  161.6580  206.8530  148.5840 O   0  0  0  0  0  0  0  0  0  0  0  0
  162.1570  205.5920  148.9440 C   0  0  1  0  0  3  0  0  0  0  0  0
  160.2490  204.6070  150.2700 C   0  0  0  0  0  2  0  0  0  0  0  0
  161.5400  206.5820  150.9830 C   0  0  2  0  0  3  0  0  0  0  0  0
  160.3040  203.2870  149.5150 C   0  0  0  0  0  2  0  0  0  0  0  0
  162.2040  208.7640  149.9650 N   0  0  2  0  0  0  0  0  0  0  0  0
  161.5780  209.5250  151.0300 C   0  0  0  0  0  2  0  0  0  0  0  0
  162.1840  209.6080  148.7680 C   0  0  0  0  0  2  0  0  0  0  0  0
  161.5210  210.9550  149.0460 C   0  0  1  0  0  3  0  0  0  0  0  0
  161.5810  211.2550  150.4080 O   0  0  0  0  0  0  0  0  0  0  0  0
  162.1430  212.0690  148.2530 C   0  0  0  0  0  3  0  0  0  0  0  0
  161.5600  212.6520  147.1980 C   0  0  0  0  0  0  0  0  0  0  0  0
  160.5370  213.7340  144.7040 C   0  0  0  0  0  2  0  0  0  0  0  0
  160.1670  212.2740  146.7480 C   0  0  2  0  0  3  0  0  0  0  0  0
  162.2440  213.8370  146.5750 C   0  0  0  0  0  2  0  0  0  0  0  0
  162.0100  213.9260  145.0650 C   0  0  1  0  0  3  0  0  0  0  0  0
  159.9980  212.4040  145.2320 C   0  0  0  0  0  2  0  0  0  0  0  0
  162.8980  212.9530  144.3110 C   0  0  0  0  0  1  0  0  0  0  0  0
  159.0990  213.0100  147.5070 C   0  0  0  0  0  0  0  0  0  0  0  0
  156.9150  213.8270  149.1680 C   0  0  0  0  0  2  0  0  0  0  0  0
  158.2770  214.4530  149.4300 C   0  0  0  0  0  2  0  0  0  0  0  0
  156.7060  213.7250  147.6630 C   0  0  0  0  0  2  0  0  0  0  0  0
  159.3800  213.5360  148.9010 C   0  0  0  0  0  2  0  0  0  0  0  0
  157.8590  213.0260  146.9920 C   0  0  0  0  0  3  0  0  0  0  0  0
  162.7110  206.8270  151.7100 O   0  0  0  0  0  0  0  0  0  0  0  0
  162.4290  206.3830  153.0030 C   0  0  0  0  0  2  0  0  0  0  0  0
  161.0960  206.9440  153.4590 C   0  0  0  0  0  2  0  0  0  0  0  0
  160.8950  206.6670  154.8690 N   0  0  0  0  0  2  0  0  0  0  0  0
  160.8850  207.9520  155.5420 C   0  0  0  0  0  2  0  0  0  0  0  0
  160.7530  209.0770  154.5220 C   0  0  1  0  0  3  0  0  0  0  0  0
  160.0110  210.3030  155.0660 C   0  0  2  0  0  3  0  0  0  0  0  0
  161.5250  210.2990  154.9750 C   0  0  0  0  0  2  0  0  0  0  0  0
  159.2250  211.4200  156.8050 C   0  0  0  0  0  1  0  0  0  0  0  0
  159.6290  210.1470  156.4020 O   0  0  0  0  0  0  0  0  0  0  0  0
  1  8  1  0  0  0  0
  2 12  1  6  0  0  0
  2 13  1  0  0  0  0
  3 10  1  6  0  0  0
  3 15  1  0  0  0  0
  3 13  1  0  0  0  0
  4 14  1  0  0  0  0
  5  1  1  0  0  0  0
  5  9  1  0  0  0  0
  6  1  2  0  0  0  0
  7  4  1  0  0  0  0
  8  4  2  0  0  0  0
  9  7  2  0  0  0  0
 10 11  1  0  0  0  0
 11  7  1  6  0  0  0
 11  2  1  0  0  0  0
 13 34  1  6  0  0  0
 14 12  1  0  0  0  0
 15 17  1  6  0  0  0
 15 16  1  0  0  0  0
 17 18  1  0  0  0  0
 18 20  1  6  0  0  0
 18 19  1  0  0  0  0
 19 16  1  0  0  0  0
 21 20  2  0  0  0  0
 22 25  1  0  0  0  0
 22 26  1  0  0  0  0
 23 21  1  0  0  0  0
 23 28  1  1  0  0  0
 24 21  1  0  0  0  0
 25 27  1  6  0  0  0
 25 24  1  0  0  0  0
 26 23  1  0  0  0  0
 28 32  1  0  0  0  0
 29 30  1  0  0  0  0
 31 29  1  0  0  0  0
 32 30  1  0  0  0  0
 33 28  2  0  0  0  0
 33 31  1  0  0  0  0
 34 35  1  0  0  0  0
 35 36  1  0  0  0  0
 36 37  1  0  0  0  0
 37 38  1  0  0  0  0
 39 41  1  0  0  0  0
 39 40  1  0  0  0  0
 39 38  1  1  0  0  0
 40 43  1  1  0  0  0
 41 40  1  0  0  0  0
 43 42  1  0  0  0  0
M  END
>  <MODEL>
5

>  <REMARK>
 VINA RESULT:      -5.3      2.287      6.623
  Name = 
  12 active torsions:
  status: ('A' for Active; 'I' for Inactive)
    1  A    between atoms: C_1  and  C_35
    2  A    between atoms: C_1  and  O_38
    3  A    between atoms: N_2  and  C_6
    4  A    between atoms: N_2  and  C_13
    5  A    between atoms: C_3  and  C_12
    6  A    between atoms: C_6  and  C_12
    7  A    between atoms: C_9  and  C_19
    8  A    between atoms: C_9  and  N_32
    9  A    between atoms: C_11  and  C_14
   10  A    between atoms: C_25  and  O_39
   11  A    between atoms: N_32  and  C_35
   12  A    between atoms: C_34  and  O_38
                            x       y       z     vdW  Elec       q    Type
                         _______ _______ _______ _____ _____    ______ ____

>  <TORSDO>
F 12

$$$$
=
 OpenBabel11062410293D

 43 48  0  0  1  0  0  0  0  0999 V2000
  160.5400  213.7000  144.2610 C   0  0  0  0  0  0  0  0  0  0  0  0
  161.4080  212.5960  149.2000 C   0  0  2  0  0  3  0  0  0  0  0  0
  162.1830  210.3520  149.2220 C   0  0  1  0  0  3  0  0  0  0  0  0
  161.3120  213.7350  146.5240 C   0  0  0  0  0  0  0  0  0  0  0  0
  159.7080  212.4670  144.4660 C   0  0  0  0  0  2  0  0  0  0  0  0
  160.5820  214.2390  143.1260 O   0  0  0  0  0  0  0  0  0  0  0  0
  160.6400  212.4360  146.7800 C   0  0  0  0  0  0  0  0  0  0  0  0
  161.2480  214.2960  145.3540 N   0  0  0  0  0  0  0  0  0  0  0  0
  159.9240  211.8490  145.8180 C   0  0  0  0  0  3  0  0  0  0  0  0
  161.5660  210.5660  147.9660 O   0  0  0  0  0  0  0  0  0  0  0  0
  160.7990  211.7340  148.1020 C   0  0  1  0  0  3  0  0  0  0  0  0
  162.5430  213.4690  148.6660 C   0  0  0  0  0  2  0  0  0  0  0  0
  161.9760  211.5670  150.1280 C   0  0  2  0  0  3  0  0  0  0  0  0
  162.0080  214.4530  147.6370 C   0  0  0  0  0  2  0  0  0  0  0  0
  161.7920  209.0880  149.8700 N   0  0  0  0  0  0  0  0  0  0  0  0
  162.4740  209.0500  151.1500 C   0  0  0  0  0  1  0  0  0  0  0  0
  162.2360  207.9160  149.1130 C   0  0  0  0  0  2  0  0  0  0  0  0
  161.2230  206.7780  149.2010 C   0  0  1  0  0  3  0  0  0  0  0  0
  160.2910  207.0320  150.2080 O   0  0  0  0  0  1  0  0  0  0  0  0
  160.5130  206.5480  147.8970 C   0  0  0  0  0  3  0  0  0  0  0  0
  160.8620  205.6070  147.0100 C   0  0  0  0  0  0  0  0  0  0  0  0
  161.7520  203.8420  144.8820 C   0  0  0  0  0  2  0  0  0  0  0  0
  161.9860  204.6340  147.2840 C   0  0  2  0  0  3  0  0  0  0  0  0
  159.9860  205.4090  145.8050 C   0  0  0  0  0  2  0  0  0  0  0  0
  160.7760  204.9750  144.5680 C   0  0  1  0  0  3  0  0  0  0  0  0
  162.7190  204.2280  146.0030 C   0  0  0  0  0  2  0  0  0  0  0  0
  161.4820  206.1540  143.9240 C   0  0  0  0  0  1  0  0  0  0  0  0
  161.5330  203.4450  148.0840 C   0  0  0  0  0  0  0  0  0  0  0  0
  160.0860  201.4020  149.4730 C   0  0  0  0  0  2  0  0  0  0  0  0
  161.0520  200.9680  148.3800 C   0  0  0  0  0  2  0  0  0  0  0  0
  160.7260  202.5320  150.2690 C   0  0  0  0  0  2  0  0  0  0  0  0
  161.2750  202.1180  147.3980 C   0  0  0  0  0  2  0  0  0  0  0  0
  161.1990  203.6430  149.3690 C   0  0  0  0  0  3  0  0  0  0  0  0
  161.0480  211.3000  151.1400 O   0  0  0  0  0  0  0  0  0  0  0  0
  160.4890  212.5410  151.4500 C   0  0  0  0  0  2  0  0  0  0  0  0
  159.0190  212.3720  151.7830 C   0  0  0  0  0  2  0  0  0  0  0  0
  158.5190  213.5620  152.4460 N   0  0  0  0  0  2  0  0  0  0  0  0
  157.5650  213.1080  153.4400 C   0  0  0  0  0  2  0  0  0  0  0  0
  158.2850  212.3510  154.5490 C   0  0  1  0  0  3  0  0  0  0  0  0
  157.7510  212.6770  155.9490 C   0  0  2  0  0  3  0  0  0  0  0  0
  157.3350  211.3980  155.2460 C   0  0  0  0  0  2  0  0  0  0  0  0
  156.9200  214.4340  157.0020 C   0  0  0  0  0  1  0  0  0  0  0  0
  156.6900  213.5860  155.9180 O   0  0  0  0  0  0  0  0  0  0  0  0
  1  5  1  0  0  0  0
  1  8  1  0  0  0  0
  2 12  1  6  0  0  0
  2 13  1  0  0  0  0
  3 15  1  1  0  0  0
  3 13  1  0  0  0  0
  4  7  1  0  0  0  0
  4 14  1  0  0  0  0
  5  9  1  0  0  0  0
  6  1  2  0  0  0  0
  8  4  2  0  0  0  0
  9  7  2  0  0  0  0
 10 11  1  0  0  0  0
 10  3  1  0  0  0  0
 11  7  1  6  0  0  0
 11  2  1  0  0  0  0
 13 34  1  1  0  0  0
 14 12  1  0  0  0  0
 15 16  1  0  0  0  0
 17 18  1  0  0  0  0
 17 15  1  0  0  0  0
 18 19  1  1  0  0  0
 20 18  1  0  0  0  0
 21 23  1  0  0  0  0
 21 20  2  0  0  0  0
 22 26  1  0  0  0  0
 23 28  1  6  0  0  0
 24 21  1  0  0  0  0
 25 27  1  1  0  0  0
 25 22  1  0  0  0  0
 25 24  1  0  0  0  0
 26 23  1  0  0  0  0
 28 33  2  0  0  0  0
 29 31  1  0  0  0  0
 30 29  1  0  0  0  0
 32 28  1  0  0  0  0
 32 30  1  0  0  0  0
 33 31  1  0  0  0  0
 34 35  1  0  0  0  0
 35 36  1  0  0  0  0
 36 37  1  0  0  0  0
 37 38  1  0  0  0  0
 39 38  1  6  0  0  0
 39 41  1  0  0  0  0
 39 40  1  0  0  0  0
 40 43  1  6  0  0  0
 41 40  1  0  0  0  0
 43 42  1  0  0  0  0
M  END
>  <MODEL>
6

>  <REMARK>
 VINA RESULT:      -5.2      2.021      9.441
  Name = 
  12 active torsions:
  status: ('A' for Active; 'I' for Inactive)
    1  A    between atoms: C_1  and  C_35
    2  A    between atoms: C_1  and  O_38
    3  A    between atoms: N_2  and  C_6
    4  A    between atoms: N_2  and  C_13
    5  A    between atoms: C_3  and  C_12
    6  A    between atoms: C_6  and  C_12
    7  A    between atoms: C_9  and  C_19
    8  A    between atoms: C_9  and  N_32
    9  A    between atoms: C_11  and  C_14
   10  A    between atoms: C_25  and  O_39
   11  A    between atoms: N_32  and  C_35
   12  A    between atoms: C_34  and  O_38
                            x       y       z     vdW  Elec       q    Type
                         _______ _______ _______ _____ _____    ______ ____

>  <TORSDO>
F 12

$$$$
=
 OpenBabel11062410293D

 43 48  0  0  1  0  0  0  0  0999 V2000
  160.8340  202.3200  146.1580 C   0  0  0  0  0  0  0  0  0  0  0  0
  161.5650  204.8030  150.5920 C   0  0  2  0  0  3  0  0  0  0  0  0
  160.7040  206.9870  150.2450 C   0  0  1  0  0  3  0  0  0  0  0  0
  160.8490  202.9520  148.4630 C   0  0  0  0  0  0  0  0  0  0  0  0
  161.6110  203.5300  145.7250 C   0  0  0  0  0  2  0  0  0  0  0  0
  160.4570  201.4840  145.2970 O   0  0  0  0  0  0  0  0  0  0  0  0
  161.4870  204.2450  148.1120 C   0  0  0  0  0  0  0  0  0  0  0  0
  160.5610  202.0820  147.5430 N   0  0  0  0  0  0  0  0  0  0  0  0
  161.8110  204.5120  146.8440 C   0  0  0  0  0  3  0  0  0  0  0  0
  160.8880  206.4070  148.9690 O   0  0  0  0  0  0  0  0  0  0  0  0
  161.7270  205.2970  149.1620 C   0  0  1  0  0  3  0  0  0  0  0  0
  160.3730  203.8560  150.7290 C   0  0  0  0  0  2  0  0  0  0  0  0
  161.2690  206.0710  151.3320 C   0  0  2  0  0  3  0  0  0  0  0  0
  160.6010  202.6030  149.8970 C   0  0  0  0  0  2  0  0  0  0  0  0
  161.2080  208.3680  150.3500 N   0  0  0  0  0  0  0  0  0  0  0  0
  162.4500  208.4150  149.6000 C   0  0  0  0  0  1  0  0  0  0  0  0
  161.5260  208.7400  151.7290 C   0  0  0  0  0  2  0  0  0  0  0  0
  161.0290  210.1460  152.0570 C   0  0  1  0  0  3  0  0  0  0  0  0
  160.9370  210.9130  150.8950 O   0  0  0  0  0  1  0  0  0  0  0  0
  159.7030  210.1300  152.7620 C   0  0  0  0  0  3  0  0  0  0  0  0
  159.0880  211.2250  153.2270 C   0  0  0  0  0  0  0  0  0  0  0  0
  157.8530  213.4850  154.5710 C   0  0  0  0  0  2  0  0  0  0  0  0
  159.6620  212.6080  153.0190 C   0  0  2  0  0  3  0  0  0  0  0  0
  157.7070  211.0740  153.8010 C   0  0  0  0  0  2  0  0  0  0  0  0
  157.4310  212.0620  154.9360 C   0  0  1  0  0  3  0  0  0  0  0  0
  159.3310  213.5480  154.1810 C   0  0  0  0  0  2  0  0  0  0  0  0
  158.0740  211.6070  156.2330 C   0  0  0  0  0  1  0  0  0  0  0  0
  159.2850  213.1920  151.6870 C   0  0  0  0  0  0  0  0  0  0  0  0
  158.8290  213.7670  148.9200 C   0  0  0  0  0  2  0  0  0  0  0  0
  157.6220  213.7380  149.8460 C   0  0  0  0  0  2  0  0  0  0  0  0
  159.9810  214.4530  149.6410 C   0  0  0  0  0  2  0  0  0  0  0  0
  157.9320  212.8850  151.0760 C   0  0  0  0  0  2  0  0  0  0  0  0
  160.2370  213.8320  150.9890 C   0  0  0  0  0  3  0  0  0  0  0  0
  162.4600  206.5790  151.8640 O   0  0  0  0  0  0  0  0  0  0  0  0
  162.3190  206.4480  153.2460 C   0  0  0  0  0  2  0  0  0  0  0  0
  160.8710  206.1590  153.5890 C   0  0  0  0  0  2  0  0  0  0  0  0
  160.5900  206.5760  154.9510 N   0  0  0  0  0  2  0  0  0  0  0  0
  161.4510  207.7120  155.2180 C   0  0  0  0  0  2  0  0  0  0  0  0
  161.5540  207.9490  156.7210 C   0  0  1  0  0  3  0  0  0  0  0  0
  161.9180  209.3940  157.0820 C   0  0  2  0  0  3  0  0  0  0  0  0
  160.4820  208.9150  157.1820 C   0  0  0  0  0  2  0  0  0  0  0  0
  161.5800  211.4550  156.3590 C   0  0  0  0  0  1  0  0  0  0  0  0
  162.0560  210.2090  155.9550 O   0  0  0  0  0  0  0  0  0  0  0  0
  1  8  1  0  0  0  0
  2 12  1  6  0  0  0
  2 13  1  0  0  0  0
  3 15  1  6  0  0  0
  3 13  1  0  0  0  0
  4 14  1  0  0  0  0
  5  1  1  0  0  0  0
  5  9  1  0  0  0  0
  6  1  2  0  0  0  0
  7  4  1  0  0  0  0
  8  4  2  0  0  0  0
  9  7  2  0  0  0  0
 10 11  1  0  0  0  0
 10  3  1  0  0  0  0
 11  7  1  6  0  0  0
 11  2  1  0  0  0  0
 13 34  1  6  0  0  0
 14 12  1  0  0  0  0
 15 17  1  0  0  0  0
 16 15  1  0  0  0  0
 17 18  1  0  0  0  0
 18 19  1  6  0  0  0
 18 20  1  0  0  0  0
 20 21  2  0  0  0  0
 21 24  1  0  0  0  0
 22 25  1  0  0  0  0
 23 28  1  6  0  0  0
 23 21  1  0  0  0  0
 23 26  1  0  0  0  0
 24 25  1  0  0  0  0
 25 27  1  1  0  0  0
 26 22  1  0  0  0  0
 29 31  1  0  0  0  0
 29 30  1  0  0  0  0
 30 32  1  0  0  0  0
 31 33  1  0  0  0  0
 32 28  1  0  0  0  0
 33 28  2  0  0  0  0
 34 35  1  0  0  0  0
 35 36  1  0  0  0  0
 36 37  1  0  0  0  0
 37 38  1  0  0  0  0
 39 38  1  6  0  0  0
 39 40  1  0  0  0  0
 39 41  1  0  0  0  0
 40 43  1  6  0  0  0
 40 41  1  0  0  0  0
 43 42  1  0  0  0  0
M  END
>  <MODEL>
7

>  <REMARK>
 VINA RESULT:      -5.1      2.427      6.063
  Name = 
  12 active torsions:
  status: ('A' for Active; 'I' for Inactive)
    1  A    between atoms: C_1  and  C_35
    2  A    between atoms: C_1  and  O_38
    3  A    between atoms: N_2  and  C_6
    4  A    between atoms: N_2  and  C_13
    5  A    between atoms: C_3  and  C_12
    6  A    between atoms: C_6  and  C_12
    7  A    between atoms: C_9  and  C_19
    8  A    between atoms: C_9  and  N_32
    9  A    between atoms: C_11  and  C_14
   10  A    between atoms: C_25  and  O_39
   11  A    between atoms: N_32  and  C_35
   12  A    between atoms: C_34  and  O_38
                            x       y       z     vdW  Elec       q    Type
                         _______ _______ _______ _____ _____    ______ ____

>  <TORSDO>
F 12

$$$$
=
 OpenBabel11062410293D

 43 48  0  0  1  0  0  0  0  0999 V2000
  161.6430  204.4340  146.4660 C   0  0  0  0  0  0  0  0  0  0  0  0
  161.8490  207.9810  150.1730 C   0  0  2  0  0  3  0  0  0  0  0  0
  161.4240  210.0520  149.0940 C   0  0  1  0  0  3  0  0  0  0  0  0
  161.2950  205.6840  148.4750 C   0  0  0  0  0  0  0  0  0  0  0  0
  162.6680  205.3940  145.9360 C   0  0  0  0  0  2  0  0  0  0  0  0
  161.3200  203.4300  145.7810 O   0  0  0  0  0  0  0  0  0  0  0  0
  162.1830  206.7590  147.9670 C   0  0  0  0  0  0  0  0  0  0  0  0
  161.0650  204.6220  147.7630 N   0  0  0  0  0  0  0  0  0  0  0  0
  162.7910  206.6270  146.7850 C   0  0  0  0  0  3  0  0  0  0  0  0
  161.7670  209.1210  148.0850 O   0  0  0  0  0  0  0  0  0  0  0  0
  162.3680  208.0360  148.7430 C   0  0  1  0  0  3  0  0  0  0  0  0
  160.5220  207.2290  150.2620 C   0  0  0  0  0  2  0  0  0  0  0  0
  161.6120  209.4280  150.4770 C   0  0  2  0  0  3  0  0  0  0  0  0
  160.7140  205.7760  149.8510 C   0  0  0  0  0  2  0  0  0  0  0  0
  162.1040  211.3520  148.9600 N   0  0  0  0  0  0  0  0  0  0  0  0
  161.4000  212.2800  149.8250 C   0  0  0  0  0  1  0  0  0  0  0  0
  162.0190  211.8860  147.6000 C   0  0  0  0  0  2  0  0  0  0  0  0
  162.1120  213.4100  147.5910 C   0  0  1  0  0  3  0  0  0  0  0  0
  163.2060  213.8350  148.3470 O   0  0  0  0  0  1  0  0  0  0  0  0
  162.2090  213.9660  146.2000 C   0  0  0  0  0  3  0  0  0  0  0  0
  161.3930  213.6200  145.1960 C   0  0  0  0  0  0  0  0  0  0  0  0
  159.9050  212.6790  142.8860 C   0  0  0  0  0  2  0  0  0  0  0  0
  160.2370  212.6670  145.4040 C   0  0  2  0  0  3  0  0  0  0  0  0
  161.5280  214.3480  143.8890 C   0  0  0  0  0  2  0  0  0  0  0  0
  161.2020  213.4610  142.6850 C   0  0  1  0  0  3  0  0  0  0  0  0
  159.9550  211.8270  144.1550 C   0  0  0  0  0  2  0  0  0  0  0  0
  162.3600  212.5400  142.3490 C   0  0  0  0  0  1  0  0  0  0  0  0
  159.0070  213.3600  145.9160 C   0  0  0  0  0  0  0  0  0  0  0  0
  156.4030  214.0980  146.8500 C   0  0  0  0  0  2  0  0  0  0  0  0
  157.5890  214.3840  147.7590 C   0  0  0  0  0  2  0  0  0  0  0  0
  156.7980  214.4240  145.4150 C   0  0  0  0  0  2  0  0  0  0  0  0
  158.7490  213.4530  147.4070 C   0  0  0  0  0  2  0  0  0  0  0  0
  158.0740  213.7280  145.0220 C   0  0  0  0  0  3  0  0  0  0  0  0
  162.7370  209.9500  151.1270 O   0  0  0  0  0  0  0  0  0  0  0  0
  162.4070  209.9350  152.4830 C   0  0  0  0  0  2  0  0  0  0  0  0
  160.9130  210.1350  152.6490 C   0  0  0  0  0  2  0  0  0  0  0  0
  160.5730  210.1950  154.0590 N   0  0  0  0  0  2  0  0  0  0  0  0
  159.7210  211.3570  154.2260 C   0  0  0  0  0  2  0  0  0  0  0  0
  159.0080  211.6760  152.9170 C   0  0  1  0  0  3  0  0  0  0  0  0
  157.7550  212.5390  153.1050 C   0  0  2  0  0  3  0  0  0  0  0  0
  159.0540  213.1640  152.6350 C   0  0  0  0  0  2  0  0  0  0  0  0
  156.1540  212.8010  154.6080 C   0  0  0  0  0  1  0  0  0  0  0  0
  157.5360  212.8800  154.4430 O   0  0  0  0  0  0  0  0  0  0  0  0
  1  8  1  0  0  0  0
  2 12  1  6  0  0  0
  2 13  1  0  0  0  0
  3 15  1  1  0  0  0
  3 13  1  0  0  0  0
  4 14  1  0  0  0  0
  5  1  1  0  0  0  0
  5  9  1  0  0  0  0
  6  1  2  0  0  0  0
  7  4  1  0  0  0  0
  8  4  2  0  0  0  0
  9  7  2  0  0  0  0
 10 11  1  0  0  0  0
 10  3  1  0  0  0  0
 11  7  1  6  0  0  0
 11  2  1  0  0  0  0
 13 34  1  6  0  0  0
 14 12  1  0  0  0  0
 15 16  1  0  0  0  0
 17 15  1  0  0  0  0
 18 17  1  0  0  0  0
 18 19  1  1  0  0  0
 20 18  1  0  0  0  0
 21 23  1  0  0  0  0
 21 20  2  0  0  0  0
 22 26  1  0  0  0  0
 23 28  1  6  0  0  0
 24 21  1  0  0  0  0
 25 27  1  1  0  0  0
 25 22  1  0  0  0  0
 25 24  1  0  0  0  0
 26 23  1  0  0  0  0
 28 32  1  0  0  0  0
 29 30  1  0  0  0  0
 31 29  1  0  0  0  0
 32 30  1  0  0  0  0
 33 31  1  0  0  0  0
 33 28  2  0  0  0  0
 34 35  1  0  0  0  0
 35 36  1  0  0  0  0
 36 37  1  0  0  0  0
 37 38  1  0  0  0  0
 39 40  1  0  0  0  0
 39 38  1  1  0  0  0
 40 43  1  1  0  0  0
 41 39  1  0  0  0  0
 41 40  1  0  0  0  0
 43 42  1  0  0  0  0
M  END
>  <MODEL>
8

>  <REMARK>
 VINA RESULT:      -4.7      2.025      6.835
  Name = 
  12 active torsions:
  status: ('A' for Active; 'I' for Inactive)
    1  A    between atoms: C_1  and  C_35
    2  A    between atoms: C_1  and  O_38
    3  A    between atoms: N_2  and  C_6
    4  A    between atoms: N_2  and  C_13
    5  A    between atoms: C_3  and  C_12
    6  A    between atoms: C_6  and  C_12
    7  A    between atoms: C_9  and  C_19
    8  A    between atoms: C_9  and  N_32
    9  A    between atoms: C_11  and  C_14
   10  A    between atoms: C_25  and  O_39
   11  A    between atoms: N_32  and  C_35
   12  A    between atoms: C_34  and  O_38
                            x       y       z     vdW  Elec       q    Type
                         _______ _______ _______ _____ _____    ______ ____

>  <TORSDO>
F 12

$$$$
=
 OpenBabel11062410293D

 43 48  0  0  1  0  0  0  0  0999 V2000
  161.2580  205.1470  149.9040 C   0  0  0  0  0  0  0  0  0  0  0  0
  161.2620  208.5770  153.7230 C   0  0  2  0  0  3  0  0  0  0  0  0
  159.6190  210.1850  153.1330 C   0  0  1  0  0  3  0  0  0  0  0  0
  161.1730  206.2000  152.0480 C   0  0  0  0  0  0  0  0  0  0  0  0
  161.4910  206.4380  149.1750 C   0  0  0  0  0  2  0  0  0  0  0  0
  161.1740  204.0740  149.2530 O   0  0  0  0  0  0  0  0  0  0  0  0
  161.2510  207.5340  151.4030 C   0  0  0  0  0  0  0  0  0  0  0  0
  161.1800  205.1160  151.3330 N   0  0  0  0  0  0  0  0  0  0  0  0
  161.3720  207.6340  150.0780 C   0  0  0  0  0  3  0  0  0  0  0  0
  159.9310  209.4620  151.9590 O   0  0  0  0  0  0  0  0  0  0  0  0
  161.1370  208.7930  152.2220 C   0  0  1  0  0  3  0  0  0  0  0  0
  160.5280  207.3150  154.1740 C   0  0  0  0  0  2  0  0  0  0  0  0
  160.5530  209.7780  154.2730 C   0  0  2  0  0  3  0  0  0  0  0  0
  161.1630  206.0860  153.5410 C   0  0  0  0  0  2  0  0  0  0  0  0
  159.5670  211.6450  152.9370 N   0  0  0  0  0  0  0  0  0  0  0  0
  158.1630  212.0120  152.9210 C   0  0  0  0  0  1  0  0  0  0  0  0
  160.1310  212.0520  151.6490 C   0  0  0  0  0  2  0  0  0  0  0  0
  159.8760  213.5320  151.3710 C   0  0  1  0  0  3  0  0  0  0  0  0
  159.8620  214.2560  152.5630 O   0  0  0  0  0  1  0  0  0  0  0  0
  160.8920  214.1160  150.4320 C   0  0  0  0  0  3  0  0  0  0  0  0
  161.0840  213.6920  149.1770 C   0  0  0  0  0  0  0  0  0  0  0  0
  161.8100  212.6180  146.5770 C   0  0  0  0  0  2  0  0  0  0  0  0
  160.2290  212.6060  148.5650 C   0  0  2  0  0  3  0  0  0  0  0  0
  162.0500  214.4510  148.3110 C   0  0  0  0  0  2  0  0  0  0  0  0
  162.7750  213.5510  147.3080 C   0  0  1  0  0  3  0  0  0  0  0  0
  161.0100  211.7580  147.5580 C   0  0  0  0  0  2  0  0  0  0  0  0
  163.8990  212.7790  147.9720 C   0  0  0  0  0  1  0  0  0  0  0  0
  158.9480  213.1410  147.9880 C   0  0  0  0  0  0  0  0  0  0  0  0
  156.2980  213.5650  146.9920 C   0  0  0  0  0  2  0  0  0  0  0  0
  156.7770  214.4520  148.1320 C   0  0  0  0  0  2  0  0  0  0  0  0
  157.4420  213.3790  146.0040 C   0  0  0  0  0  2  0  0  0  0  0  0
  157.9000  213.7530  148.8970 C   0  0  0  0  0  2  0  0  0  0  0  0
  158.6930  212.8990  146.6920 C   0  0  0  0  0  3  0  0  0  0  0  0
  161.4930  210.7770  154.5490 O   0  0  0  0  0  0  0  0  0  0  0  0
  162.4210  210.1720  155.3980 C   0  0  0  0  0  2  0  0  0  0  0  0
  163.2070  211.2360  156.1390 C   0  0  0  0  0  2  0  0  0  0  0  0
  164.5890  211.2330  155.6950 N   0  0  0  0  0  2  0  0  0  0  0  0
  165.3780  211.7300  156.8070 C   0  0  0  0  0  2  0  0  0  0  0  0
  166.0380  213.0510  156.4320 C   0  0  1  0  0  3  0  0  0  0  0  0
  167.5460  213.0730  156.7050 C   0  0  2  0  0  3  0  0  0  0  0  0
  167.0240  212.8500  155.2990 C   0  0  0  0  0  2  0  0  0  0  0  0
  169.0420  211.4820  156.3580 C   0  0  0  0  0  1  0  0  0  0  0  0
  168.0140  211.8610  157.2210 O   0  0  0  0  0  0  0  0  0  0  0  0
  1  8  1  0  0  0  0
  2 12  1  6  0  0  0
  2 13  1  0  0  0  0
  3 15  1  6  0  0  0
  3 13  1  0  0  0  0
  4 14  1  0  0  0  0
  5  1  1  0  0  0  0
  5  9  1  0  0  0  0
  6  1  2  0  0  0  0
  7  4  1  0  0  0  0
  8  4  2  0  0  0  0
  9  7  2  0  0  0  0
 10 11  1  0  0  0  0
 10  3  1  0  0  0  0
 11  7  1  6  0  0  0
 11  2  1  0  0  0  0
 13 34  1  6  0  0  0
 14 12  1  0  0  0  0
 16 15  1  0  0  0  0
 17 15  1  0  0  0  0
 18 17  1  0  0  0  0
 18 19  1  1  0  0  0
 20 18  1  0  0  0  0
 21 20  2  0  0  0  0
 22 25  1  0  0  0  0
 22 26  1  0  0  0  0
 23 28  1  6  0  0  0
 23 21  1  0  0  0  0
 24 21  1  0  0  0  0
 25 27  1  1  0  0  0
 25 24  1  0  0  0  0
 26 23  1  0  0  0  0
 28 32  1  0  0  0  0
 29 30  1  0  0  0  0
 30 32  1  0  0  0  0
 31 33  1  0  0  0  0
 31 29  1  0  0  0  0
 33 28  2  0  0  0  0
 34 35  1  0  0  0  0
 35 36  1  0  0  0  0
 37 36  1  0  0  0  0
 37 38  1  0  0  0  0
 39 40  1  0  0  0  0
 39 38  1  1  0  0  0
 40 43  1  1  0  0  0
 41 39  1  0  0  0  0
 41 40  1  0  0  0  0
 42 43  1  0  0  0  0
M  END
>  <MODEL>
9

>  <REMARK>
 VINA RESULT:      -4.1      3.327      7.321
  Name = 
  12 active torsions:
  status: ('A' for Active; 'I' for Inactive)
    1  A    between atoms: C_1  and  C_35
    2  A    between atoms: C_1  and  O_38
    3  A    between atoms: N_2  and  C_6
    4  A    between atoms: N_2  and  C_13
    5  A    between atoms: C_3  and  C_12
    6  A    between atoms: C_6  and  C_12
    7  A    between atoms: C_9  and  C_19
    8  A    between atoms: C_9  and  N_32
    9  A    between atoms: C_11  and  C_14
   10  A    between atoms: C_25  and  O_39
   11  A    between atoms: N_32  and  C_35
   12  A    between atoms: C_34  and  O_38
                            x       y       z     vdW  Elec       q    Type
                         _______ _______ _______ _____ _____    ______ ____

>  <TORSDO>
F 12

$$$$
