=
 OpenBabel11062409453D

 34 39  0  0  0  0  0  0  0  0999 V2000
  161.3750  206.2980  150.4890 C   0  0  0  0  0  3  0  0  0  0  0  0
  161.6860  210.0150  151.1300 C   0  0  0  0  0  0  0  0  0  0  0  0
  161.4730  210.0260  152.5900 C   0  0  0  0  0  0  0  0  0  0  0  0
  160.9490  205.1540  152.5390 N   0  0  0  0  0  0  0  0  0  0  0  0
  161.4090  207.5240  151.1650 C   0  0  0  0  0  0  0  0  0  0  0  0
  160.9740  206.3200  153.2330 C   0  0  0  0  0  0  0  0  0  0  0  0
  160.7960  207.5110  155.3350 C   0  0  0  0  0  3  0  0  0  0  0  0
  160.7700  206.3130  154.6150 C   0  0  0  0  0  3  0  0  0  0  0  0
  161.1420  205.1080  151.1910 C   0  0  0  0  0  0  0  0  0  0  0  0
  161.2310  208.7480  153.2890 C   0  0  0  0  0  0  0  0  0  0  0  0
  161.2060  207.5400  152.5600 C   0  0  0  0  0  0  0  0  0  0  0  0
  161.0240  208.7210  154.6760 C   0  0  0  0  0  3  0  0  0  0  0  0
  161.9200  211.2110  150.4360 C   0  0  0  0  0  3  0  0  0  0  0  0
  162.1180  211.1970  149.0530 C   0  0  0  0  0  0  0  0  0  0  0  0
  162.0940  209.9850  148.3570 C   0  0  0  0  0  3  0  0  0  0  0  0
  161.4980  211.1110  153.2330 O   0  0  0  0  0  0  0  0  0  0  0  0
  161.8630  208.7890  149.0400 C   0  0  0  0  0  3  0  0  0  0  0  0
  161.6570  208.7920  150.4290 C   0  0  0  0  0  0  0  0  0  0  0  0
  161.0730  201.3520  150.5450 C   0  0  0  0  0  3  0  0  0  0  0  0
  161.0620  203.7780  149.0740 C   0  0  0  0  0  3  0  0  0  0  0  0
  160.9620  200.9250  147.0120 C   0  0  0  0  0  0  0  0  0  0  0  0
  160.9920  200.3070  148.2670 C   0  0  0  0  0  3  0  0  0  0  0  0
  161.0320  201.3650  149.1550 C   0  0  0  0  0  0  0  0  0  0  0  0
  160.9840  202.2780  147.1280 N   0  0  0  0  0  0  0  0  0  0  0  0
  161.0270  202.5340  148.4440 C   0  0  0  0  0  0  0  0  0  0  0  0
  160.9660  203.2700  146.0610 C   0  0  0  0  0  1  0  0  0  0  0  0
  161.1040  203.8100  150.4840 C   0  0  0  0  0  0  0  0  0  0  0  0
  161.1100  202.5910  151.2090 C   0  0  0  0  0  3  0  0  0  0  0  0
  160.9150  200.1820  145.7380 C   0  0  0  0  0  0  0  0  0  0  0  0
  160.2950  200.6450  144.7460 O   0  0  0  0  0  0  0  0  0  0  0  0
  161.5750  198.9250  145.6220 N   0  0  0  0  0  1  0  0  0  0  0  0
  162.3830  212.4690  148.3250 C   0  0  0  0  0  2  0  0  0  0  0  0
  161.3510  212.6710  147.2330 C   0  0  0  0  0  2  0  0  0  0  0  0
  161.9950  212.9930  146.0400 O   0  0  0  0  0  1  0  0  0  0  0  0
  1  5  2  0  0  0  0
  1  9  1  0  0  0  0
  2  3  1  0  0  0  0
  3 16  2  0  0  0  0
  3 10  1  0  0  0  0
  4  6  1  0  0  0  0
  5 11  1  0  0  0  0
  6  8  1  0  0  0  0
  8  7  2  0  0  0  0
  9  4  2  0  0  0  0
 10 12  2  0  0  0  0
 11  6  2  0  0  0  0
 11 10  1  0  0  0  0
 12  7  1  0  0  0  0
 13  2  1  0  0  0  0
 14 13  2  0  0  0  0
 15 17  2  0  0  0  0
 15 14  1  0  0  0  0
 17 18  1  0  0  0  0
 18  2  2  0  0  0  0
 18  5  1  0  0  0  0
 19 28  1  0  0  0  0
 20 27  1  0  0  0  0
 21 24  1  0  0  0  0
 21 22  2  0  0  0  0
 22 23  1  0  0  0  0
 23 19  2  0  0  0  0
 24 25  1  0  0  0  0
 25 20  2  0  0  0  0
 25 23  1  0  0  0  0
 26 24  1  0  0  0  0
 27  9  1  0  0  0  0
 27 28  2  0  0  0  0
 29 21  1  0  0  0  0
 30 29  2  0  0  0  0
 31 29  1  0  0  0  0
 32 14  1  0  0  0  0
 33 32  1  0  0  0  0
 34 33  1  0  0  0  0
M  END
>  <MODEL>
1

>  <REMARK>
 VINA RESULT:     -10.2      0.000      0.000
  Name = 
  4 active torsions:
  status: ('A' for Active; 'I' for Inactive)
    1  A    between atoms: C_3  and  C_13
    2  A    between atoms: C_3  and  C_25
    3  A    between atoms: C_7  and  C_11
    4  A    between atoms: C_18  and  C_30
                            x       y       z     vdW  Elec       q    Type
                         _______ _______ _______ _____ _____    ______ ____

>  <TORSDO>
F 4

$$$$
=
 OpenBabel11062409453D

 34 39  0  0  0  0  0  0  0  0999 V2000
  161.0830  206.1760  151.2750 C   0  0  0  0  0  3  0  0  0  0  0  0
  161.0860  209.2570  153.4730 C   0  0  0  0  0  0  0  0  0  0  0  0
  161.4190  210.2760  152.4590 C   0  0  0  0  0  0  0  0  0  0  0  0
  161.5970  206.7840  149.0250 N   0  0  0  0  0  0  0  0  0  0  0  0
  161.1910  207.5140  151.6750 C   0  0  0  0  0  0  0  0  0  0  0  0
  161.7100  208.0920  149.3700 C   0  0  0  0  0  0  0  0  0  0  0  0
  162.1430  210.3920  148.7470 C   0  0  0  0  0  3  0  0  0  0  0  0
  162.0260  209.0440  148.3980 C   0  0  0  0  0  3  0  0  0  0  0  0
  161.2900  205.8180  149.9360 C   0  0  0  0  0  0  0  0  0  0  0  0
  161.6290  209.8530  151.0600 C   0  0  0  0  0  0  0  0  0  0  0  0
  161.5080  208.4910  150.7100 C   0  0  0  0  0  0  0  0  0  0  0  0
  161.9460  210.7950  150.0700 C   0  0  0  0  0  3  0  0  0  0  0  0
  160.8800  209.6250  154.8100 C   0  0  0  0  0  3  0  0  0  0  0  0
  160.5670  208.6570  155.7690 C   0  0  0  0  0  0  0  0  0  0  0  0
  160.4490  207.3160  155.3930 C   0  0  0  0  0  3  0  0  0  0  0  0
  161.5220  211.4910  152.7820 O   0  0  0  0  0  0  0  0  0  0  0  0
  160.6520  206.9410  154.0630 C   0  0  0  0  0  3  0  0  0  0  0  0
  160.9720  207.9040  153.0930 C   0  0  0  0  0  0  0  0  0  0  0  0
  160.9790  202.0220  150.0630 C   0  0  0  0  0  3  0  0  0  0  0  0
  161.1670  204.0910  148.1310 C   0  0  0  0  0  3  0  0  0  0  0  0
  160.9200  200.8880  146.6880 C   0  0  0  0  0  0  0  0  0  0  0  0
  160.8790  200.5390  148.0430 C   0  0  0  0  0  3  0  0  0  0  0  0
  160.9700  201.7520  148.6980 C   0  0  0  0  0  0  0  0  0  0  0  0
  161.0310  202.2320  146.5280 N   0  0  0  0  0  0  0  0  0  0  0  0
  161.0610  202.7490  147.7660 C   0  0  0  0  0  0  0  0  0  0  0  0
  161.1050  202.9830  145.2820 C   0  0  0  0  0  1  0  0  0  0  0  0
  161.1790  204.4070  149.5060 C   0  0  0  0  0  0  0  0  0  0  0  0
  161.0860  203.3650  150.4630 C   0  0  0  0  0  3  0  0  0  0  0  0
  160.8510  199.9040  145.5900 C   0  0  0  0  0  0  0  0  0  0  0  0
  160.1190  200.1100  144.5870 O   0  0  0  0  0  0  0  0  0  0  0  0
  161.6170  198.7060  145.6590 N   0  0  0  0  0  1  0  0  0  0  0  0
  160.3330  209.0580  157.1840 C   0  0  0  0  0  2  0  0  0  0  0  0
  160.0040  210.5350  157.2610 C   0  0  0  0  0  2  0  0  0  0  0  0
  158.6960  210.7440  156.8250 O   0  0  0  0  0  1  0  0  0  0  0  0
  1  5  1  0  0  0  0
  2 13  1  0  0  0  0
  3 16  2  0  0  0  0
  3  2  1  0  0  0  0
  4  6  2  0  0  0  0
  4  9  1  0  0  0  0
  5 18  1  0  0  0  0
  6 11  1  0  0  0  0
  7 12  1  0  0  0  0
  8  7  2  0  0  0  0
  8  6  1  0  0  0  0
  9  1  2  0  0  0  0
 10  3  1  0  0  0  0
 11 10  1  0  0  0  0
 11  5  2  0  0  0  0
 12 10  2  0  0  0  0
 13 14  2  0  0  0  0
 14 32  1  0  0  0  0
 15 14  1  0  0  0  0
 17 15  2  0  0  0  0
 18  2  2  0  0  0  0
 18 17  1  0  0  0  0
 19 28  1  0  0  0  0
 20 27  1  0  0  0  0
 21 22  2  0  0  0  0
 22 23  1  0  0  0  0
 23 19  2  0  0  0  0
 24 21  1  0  0  0  0
 24 25  1  0  0  0  0
 25 20  2  0  0  0  0
 25 23  1  0  0  0  0
 26 24  1  0  0  0  0
 27  9  1  0  0  0  0
 27 28  2  0  0  0  0
 29 31  1  0  0  0  0
 29 21  1  0  0  0  0
 30 29  2  0  0  0  0
 32 33  1  0  0  0  0
 34 33  1  0  0  0  0
M  END
>  <MODEL>
2

>  <REMARK>
 VINA RESULT:      -9.8      1.623      4.528
  Name = 
  4 active torsions:
  status: ('A' for Active; 'I' for Inactive)
    1  A    between atoms: C_3  and  C_13
    2  A    between atoms: C_3  and  C_25
    3  A    between atoms: C_7  and  C_11
    4  A    between atoms: C_18  and  C_30
                            x       y       z     vdW  Elec       q    Type
                         _______ _______ _______ _____ _____    ______ ____

>  <TORSDO>
F 4

$$$$
=
 OpenBabel11062409453D

 34 39  0  0  0  0  0  0  0  0999 V2000
  161.2190  206.1700  149.5610 C   0  0  0  0  0  3  0  0  0  0  0  0
  161.1280  203.8070  146.6060 C   0  0  0  0  0  0  0  0  0  0  0  0
  161.1090  202.5200  147.3280 C   0  0  0  0  0  0  0  0  0  0  0  0
  161.2190  204.9250  151.5970 N   0  0  0  0  0  0  0  0  0  0  0  0
  161.1840  204.9830  148.8190 C   0  0  0  0  0  0  0  0  0  0  0  0
  161.1840  203.7510  150.9170 C   0  0  0  0  0  0  0  0  0  0  0  0
  161.1300  201.3300  150.9200 C   0  0  0  0  0  3  0  0  0  0  0  0
  161.1660  202.5410  151.6150 C   0  0  0  0  0  3  0  0  0  0  0  0
  161.2370  206.1310  150.9620 C   0  0  0  0  0  0  0  0  0  0  0  0
  161.1290  202.5250  148.8050 C   0  0  0  0  0  0  0  0  0  0  0  0
  161.1650  203.7510  149.5040 C   0  0  0  0  0  0  0  0  0  0  0  0
  161.1120  201.3210  149.5230 C   0  0  0  0  0  3  0  0  0  0  0  0
  161.1090  203.8370  145.2050 C   0  0  0  0  0  3  0  0  0  0  0  0
  161.1310  205.0580  144.5240 C   0  0  0  0  0  0  0  0  0  0  0  0
  161.1610  206.2560  145.2430 C   0  0  0  0  0  3  0  0  0  0  0  0
  161.0760  201.4310  146.6940 O   0  0  0  0  0  0  0  0  0  0  0  0
  161.1790  206.2360  146.6390 C   0  0  0  0  0  3  0  0  0  0  0  0
  161.1640  205.0150  147.3330 C   0  0  0  0  0  0  0  0  0  0  0  0
  161.7210  209.7930  151.9000 C   0  0  0  0  0  3  0  0  0  0  0  0
  160.9060  207.3620  153.1140 C   0  0  0  0  0  3  0  0  0  0  0  0
  160.8540  210.0900  155.3410 C   0  0  0  0  0  0  0  0  0  0  0  0
  161.2970  210.7390  154.1830 C   0  0  0  0  0  3  0  0  0  0  0  0
  161.3480  209.7320  153.2380 C   0  0  0  0  0  0  0  0  0  0  0  0
  160.6490  208.7660  155.1150 N   0  0  0  0  0  0  0  0  0  0  0  0
  160.9550  208.5610  153.8250 C   0  0  0  0  0  0  0  0  0  0  0  0
  160.1920  207.7560  156.0600 C   0  0  0  0  0  1  0  0  0  0  0  0
  161.2760  207.3800  151.7520 C   0  0  0  0  0  0  0  0  0  0  0  0
  161.6820  208.6000  151.1560 C   0  0  0  0  0  3  0  0  0  0  0  0
  160.6450  210.7740  156.6310 C   0  0  0  0  0  0  0  0  0  0  0  0
  159.5160  210.7680  157.1870 O   0  0  0  0  0  0  0  0  0  0  0  0
  161.7270  211.4530  157.2610 N   0  0  0  0  0  1  0  0  0  0  0  0
  161.0930  205.0820  143.0360 C   0  0  0  0  0  2  0  0  0  0  0  0
  161.8670  206.2750  142.5130 C   0  0  0  0  0  2  0  0  0  0  0  0
  161.8570  206.2620  141.1190 O   0  0  0  0  0  1  0  0  0  0  0  0
  1  9  1  0  0  0  0
  2  3  1  0  0  0  0
  2 18  1  0  0  0  0
  3 10  1  0  0  0  0
  5 11  1  0  0  0  0
  5  1  2  0  0  0  0
  6  4  1  0  0  0  0
  6  8  1  0  0  0  0
  7  8  2  0  0  0  0
  9  4  2  0  0  0  0
  9 27  1  0  0  0  0
 10 11  1  0  0  0  0
 10 12  2  0  0  0  0
 11  6  2  0  0  0  0
 12  7  1  0  0  0  0
 13  2  2  0  0  0  0
 14 13  1  0  0  0  0
 14 15  2  0  0  0  0
 15 17  1  0  0  0  0
 16  3  2  0  0  0  0
 17 18  2  0  0  0  0
 18  5  1  0  0  0  0
 19 23  1  0  0  0  0
 20 25  1  0  0  0  0
 21 29  1  0  0  0  0
 22 21  2  0  0  0  0
 23 25  2  0  0  0  0
 23 22  1  0  0  0  0
 24 21  1  0  0  0  0
 24 26  1  0  0  0  0
 25 24  1  0  0  0  0
 27 20  2  0  0  0  0
 28 27  1  0  0  0  0
 28 19  2  0  0  0  0
 29 30  2  0  0  0  0
 29 31  1  0  0  0  0
 32 14  1  0  0  0  0
 33 32  1  0  0  0  0
 34 33  1  0  0  0  0
M  END
>  <MODEL>
3

>  <REMARK>
 VINA RESULT:      -9.6      2.966      8.716
  Name = 
  4 active torsions:
  status: ('A' for Active; 'I' for Inactive)
    1  A    between atoms: C_3  and  C_13
    2  A    between atoms: C_3  and  C_25
    3  A    between atoms: C_7  and  C_11
    4  A    between atoms: C_18  and  C_30
                            x       y       z     vdW  Elec       q    Type
                         _______ _______ _______ _____ _____    ______ ____

>  <TORSDO>
F 4

$$$$
=
 OpenBabel11062409453D

 34 39  0  0  0  0  0  0  0  0999 V2000
  161.6550  208.8950  149.3450 C   0  0  0  0  0  3  0  0  0  0  0  0
  161.1120  205.6250  151.1720 C   0  0  0  0  0  0  0  0  0  0  0  0
  161.0840  206.1260  152.5580 C   0  0  0  0  0  0  0  0  0  0  0  0
  161.7820  210.6900  150.9130 N   0  0  0  0  0  0  0  0  0  0  0  0
  161.4680  207.9790  150.3870 C   0  0  0  0  0  0  0  0  0  0  0  0
  161.6020  209.8360  151.9540 C   0  0  0  0  0  0  0  0  0  0  0  0
  161.3930  209.4530  154.3360 C   0  0  0  0  0  3  0  0  0  0  0  0
  161.5780  210.3260  153.2610 C   0  0  0  0  0  3  0  0  0  0  0  0
  161.8130  210.2600  149.6200 C   0  0  0  0  0  0  0  0  0  0  0  0
  161.2540  207.5730  152.8030 C   0  0  0  0  0  0  0  0  0  0  0  0
  161.4400  208.4530  151.7150 C   0  0  0  0  0  0  0  0  0  0  0  0
  161.2320  208.0840  154.1080 C   0  0  0  0  0  3  0  0  0  0  0  0
  160.9530  204.2580  150.9050 C   0  0  0  0  0  3  0  0  0  0  0  0
  160.9830  203.7860  149.5900 C   0  0  0  0  0  0  0  0  0  0  0  0
  161.1630  204.6820  148.5320 C   0  0  0  0  0  3  0  0  0  0  0  0
  160.9160  205.3310  153.5230 O   0  0  0  0  0  0  0  0  0  0  0  0
  161.3220  206.0450  148.7880 C   0  0  0  0  0  3  0  0  0  0  0  0
  161.2990  206.5300  150.1050 C   0  0  0  0  0  0  0  0  0  0  0  0
  163.3740  212.9670  147.4380 C   0  0  0  0  0  3  0  0  0  0  0  0
  161.0350  211.3640  147.5150 C   0  0  0  0  0  3  0  0  0  0  0  0
  161.1140  213.5410  144.7480 C   0  0  0  0  0  0  0  0  0  0  0  0
  162.3300  213.8820  145.3500 C   0  0  0  0  0  3  0  0  0  0  0  0
  162.3880  213.0650  146.4630 C   0  0  0  0  0  0  0  0  0  0  0  0
  160.4690  212.5750  145.4520 N   0  0  0  0  0  0  0  0  0  0  0  0
  161.2590  212.2930  146.4990 C   0  0  0  0  0  0  0  0  0  0  0  0
  159.1840  211.9560  145.1550 C   0  0  0  0  0  1  0  0  0  0  0  0
  162.0120  211.2330  148.5240 C   0  0  0  0  0  0  0  0  0  0  0  0
  163.1770  212.0400  148.4760 C   0  0  0  0  0  3  0  0  0  0  0  0
  160.6140  214.1650  143.5080 C   0  0  0  0  0  0  0  0  0  0  0  0
  159.3960  214.4530  143.3780 O   0  0  0  0  0  0  0  0  0  0  0  0
  161.5140  214.4470  142.4400 N   0  0  0  0  0  1  0  0  0  0  0  0
  160.7960  202.3350  149.3140 C   0  0  0  0  0  2  0  0  0  0  0  0
  161.0490  202.0440  147.8480 C   0  0  0  0  0  2  0  0  0  0  0  0
  161.1370  200.6670  147.6560 O   0  0  0  0  0  1  0  0  0  0  0  0
  1  9  2  0  0  0  0
  1  5  1  0  0  0  0
  2  3  1  0  0  0  0
  3 10  1  0  0  0  0
  3 16  2  0  0  0  0
  4  6  2  0  0  0  0
  5 11  2  0  0  0  0
  6  8  1  0  0  0  0
  8  7  2  0  0  0  0
  9  4  1  0  0  0  0
 10 12  2  0  0  0  0
 11  6  1  0  0  0  0
 11 10  1  0  0  0  0
 12  7  1  0  0  0  0
 13  2  1  0  0  0  0
 14 13  2  0  0  0  0
 15 17  2  0  0  0  0
 15 14  1  0  0  0  0
 17 18  1  0  0  0  0
 18  5  1  0  0  0  0
 18  2  2  0  0  0  0
 19 28  1  0  0  0  0
 20 27  1  0  0  0  0
 21 22  2  0  0  0  0
 21 24  1  0  0  0  0
 22 23  1  0  0  0  0
 23 25  1  0  0  0  0
 23 19  2  0  0  0  0
 24 25  1  0  0  0  0
 25 20  2  0  0  0  0
 26 24  1  0  0  0  0
 27  9  1  0  0  0  0
 28 27  2  0  0  0  0
 29 21  1  0  0  0  0
 30 29  2  0  0  0  0
 31 29  1  0  0  0  0
 32 14  1  0  0  0  0
 33 32  1  0  0  0  0
 34 33  1  0  0  0  0
M  END
>  <MODEL>
4

>  <REMARK>
 VINA RESULT:      -9.4      3.551      8.600
  Name = 
  4 active torsions:
  status: ('A' for Active; 'I' for Inactive)
    1  A    between atoms: C_3  and  C_13
    2  A    between atoms: C_3  and  C_25
    3  A    between atoms: C_7  and  C_11
    4  A    between atoms: C_18  and  C_30
                            x       y       z     vdW  Elec       q    Type
                         _______ _______ _______ _____ _____    ______ ____

>  <TORSDO>
F 4

$$$$
=
 OpenBabel11062409453D

 34 39  0  0  0  0  0  0  0  0999 V2000
  160.5370  208.0860  152.3100 C   0  0  0  0  0  3  0  0  0  0  0  0
  159.8980  211.3840  154.0530 C   0  0  0  0  0  0  0  0  0  0  0  0
  160.2380  210.9950  155.4350 C   0  0  0  0  0  0  0  0  0  0  0  0
  161.2620  206.4570  153.8950 N   0  0  0  0  0  0  0  0  0  0  0  0
  160.4350  209.0470  153.3230 C   0  0  0  0  0  0  0  0  0  0  0  0
  161.1770  207.3570  154.9080 C   0  0  0  0  0  0  0  0  0  0  0  0
  161.4180  207.8960  157.2570 C   0  0  0  0  0  3  0  0  0  0  0  0
  161.5030  206.9730  156.2110 C   0  0  0  0  0  3  0  0  0  0  0  0
  160.9550  206.7820  152.6080 C   0  0  0  0  0  0  0  0  0  0  0  0
  160.6740  209.6100  155.7040 C   0  0  0  0  0  0  0  0  0  0  0  0
  160.7590  208.6810  154.6450 C   0  0  0  0  0  0  0  0  0  0  0  0
  161.0050  209.2070  157.0050 C   0  0  0  0  0  3  0  0  0  0  0  0
  159.4820  212.6910  153.7630 C   0  0  0  0  0  3  0  0  0  0  0  0
  159.1570  213.0550  152.4530 C   0  0  0  0  0  0  0  0  0  0  0  0
  159.2570  212.1150  151.4230 C   0  0  0  0  0  3  0  0  0  0  0  0
  160.1600  211.8350  156.3730 O   0  0  0  0  0  0  0  0  0  0  0  0
  159.6710  210.8110  151.7030 C   0  0  0  0  0  3  0  0  0  0  0  0
  159.9940  210.4330  153.0160 C   0  0  0  0  0  0  0  0  0  0  0  0
  161.1420  203.4040  150.8540 C   0  0  0  0  0  3  0  0  0  0  0  0
  161.1970  206.1630  150.1970 C   0  0  0  0  0  3  0  0  0  0  0  0
  161.4850  204.0770  147.3740 C   0  0  0  0  0  0  0  0  0  0  0  0
  161.3900  203.1050  148.3770 C   0  0  0  0  0  3  0  0  0  0  0  0
  161.2700  203.8410  149.5400 C   0  0  0  0  0  0  0  0  0  0  0  0
  161.4280  205.3300  147.8960 N   0  0  0  0  0  0  0  0  0  0  0  0
  161.2980  205.1710  149.2220 C   0  0  0  0  0  0  0  0  0  0  0  0
  161.4950  206.6000  147.1860 C   0  0  0  0  0  1  0  0  0  0  0  0
  161.0640  205.7620  151.5430 C   0  0  0  0  0  0  0  0  0  0  0  0
  161.0390  204.3810  151.8600 C   0  0  0  0  0  3  0  0  0  0  0  0
  161.6290  203.7590  145.9410 C   0  0  0  0  0  0  0  0  0  0  0  0
  162.4940  204.3420  145.2360 O   0  0  0  0  0  0  0  0  0  0  0  0
  160.7830  202.7840  145.3390 N   0  0  0  0  0  1  0  0  0  0  0  0
  158.7330  214.4500  152.1510 C   0  0  0  0  0  2  0  0  0  0  0  0
  157.3820  214.4480  151.4630 C   0  0  0  0  0  2  0  0  0  0  0  0
  156.4120  213.9720  152.3440 O   0  0  0  0  0  1  0  0  0  0  0  0
  1  9  2  0  0  0  0
  1  5  1  0  0  0  0
  2  3  1  0  0  0  0
  3 10  1  0  0  0  0
  3 16  2  0  0  0  0
  4  6  2  0  0  0  0
  5 11  2  0  0  0  0
  6  8  1  0  0  0  0
  8  7  2  0  0  0  0
  9  4  1  0  0  0  0
 10 12  2  0  0  0  0
 11  6  1  0  0  0  0
 11 10  1  0  0  0  0
 12  7  1  0  0  0  0
 13  2  1  0  0  0  0
 14 13  2  0  0  0  0
 15 17  2  0  0  0  0
 15 14  1  0  0  0  0
 17 18  1  0  0  0  0
 18  5  1  0  0  0  0
 18  2  2  0  0  0  0
 19 28  1  0  0  0  0
 20 27  1  0  0  0  0
 21 24  1  0  0  0  0
 21 22  2  0  0  0  0
 22 23  1  0  0  0  0
 23 19  2  0  0  0  0
 24 25  1  0  0  0  0
 25 23  1  0  0  0  0
 25 20  2  0  0  0  0
 26 24  1  0  0  0  0
 27 28  2  0  0  0  0
 27  9  1  0  0  0  0
 29 21  1  0  0  0  0
 30 29  2  0  0  0  0
 31 29  1  0  0  0  0
 32 14  1  0  0  0  0
 33 32  1  0  0  0  0
 33 34  1  0  0  0  0
M  END
>  <MODEL>
5

>  <REMARK>
 VINA RESULT:      -8.4      2.803      3.623
  Name = 
  4 active torsions:
  status: ('A' for Active; 'I' for Inactive)
    1  A    between atoms: C_3  and  C_13
    2  A    between atoms: C_3  and  C_25
    3  A    between atoms: C_7  and  C_11
    4  A    between atoms: C_18  and  C_30
                            x       y       z     vdW  Elec       q    Type
                         _______ _______ _______ _____ _____    ______ ____

>  <TORSDO>
F 4

$$$$
=
 OpenBabel11062409453D

 34 39  0  0  0  0  0  0  0  0999 V2000
  160.9380  206.3240  151.0730 C   0  0  0  0  0  3  0  0  0  0  0  0
  161.0330  204.5790  147.7160 C   0  0  0  0  0  0  0  0  0  0  0  0
  161.1450  203.1810  148.1760 C   0  0  0  0  0  0  0  0  0  0  0  0
  161.0800  204.7150  152.8300 N   0  0  0  0  0  0  0  0  0  0  0  0
  161.0050  205.3050  150.1150 C   0  0  0  0  0  0  0  0  0  0  0  0
  161.1480  203.6960  151.9340 C   0  0  0  0  0  0  0  0  0  0  0  0
  161.3230  201.3260  151.4690 C   0  0  0  0  0  3  0  0  0  0  0  0
  161.2530  202.3790  152.3850 C   0  0  0  0  0  3  0  0  0  0  0  0
  160.9770  206.0170  152.4400 C   0  0  0  0  0  0  0  0  0  0  0  0
  161.1830  202.9030  149.6250 C   0  0  0  0  0  0  0  0  0  0  0  0
  161.1120  203.9680  150.5480 C   0  0  0  0  0  0  0  0  0  0  0  0
  161.2880  201.5870  150.0970 C   0  0  0  0  0  3  0  0  0  0  0  0
  160.9940  204.8770  146.3470 C   0  0  0  0  0  3  0  0  0  0  0  0
  160.8920  206.2030  145.9160 C   0  0  0  0  0  0  0  0  0  0  0  0
  160.8170  207.2380  146.8530 C   0  0  0  0  0  3  0  0  0  0  0  0
  161.2060  202.2370  147.3420 O   0  0  0  0  0  0  0  0  0  0  0  0
  160.8550  206.9490  148.2190 C   0  0  0  0  0  3  0  0  0  0  0  0
  160.9640  205.6220  148.6640 C   0  0  0  0  0  0  0  0  0  0  0  0
  161.1450  207.8280  155.7890 C   0  0  0  0  0  3  0  0  0  0  0  0
  160.5380  208.3950  153.0770 C   0  0  0  0  0  3  0  0  0  0  0  0
  160.2500  211.2170  155.1640 C   0  0  0  0  0  0  0  0  0  0  0  0
  160.6370  210.2630  156.1110 C   0  0  0  0  0  3  0  0  0  0  0  0
  160.7760  209.1030  155.3730 C   0  0  0  0  0  0  0  0  0  0  0  0
  160.1590  210.6720  153.9230 N   0  0  0  0  0  0  0  0  0  0  0  0
  160.4830  209.3780  154.0650 C   0  0  0  0  0  0  0  0  0  0  0  0
  159.7870  211.3330  152.6790 C   0  0  0  0  0  1  0  0  0  0  0  0
  160.9070  207.0880  153.4570 C   0  0  0  0  0  0  0  0  0  0  0  0
  161.2080  206.8160  154.8160 C   0  0  0  0  0  3  0  0  0  0  0  0
  159.9800  212.6300  155.4930 C   0  0  0  0  0  0  0  0  0  0  0  0
  159.3310  213.3620  154.7020 O   0  0  0  0  0  0  0  0  0  0  0  0
  160.4560  213.1800  156.7180 N   0  0  0  0  0  1  0  0  0  0  0  0
  160.8330  206.5110  144.4600 C   0  0  0  0  0  2  0  0  0  0  0  0
  161.5810  205.4530  143.6720 C   0  0  0  0  0  2  0  0  0  0  0  0
  161.6400  205.8280  142.3310 O   0  0  0  0  0  1  0  0  0  0  0  0
  1  9  1  0  0  0  0
  2  3  1  0  0  0  0
  2 18  1  0  0  0  0
  3 10  1  0  0  0  0
  5 11  1  0  0  0  0
  5  1  2  0  0  0  0
  6  8  1  0  0  0  0
  6  4  1  0  0  0  0
  7  8  2  0  0  0  0
  9  4  2  0  0  0  0
  9 27  1  0  0  0  0
 10 12  2  0  0  0  0
 10 11  1  0  0  0  0
 11  6  2  0  0  0  0
 12  7  1  0  0  0  0
 13  2  2  0  0  0  0
 14 13  1  0  0  0  0
 14 15  2  0  0  0  0
 15 17  1  0  0  0  0
 16  3  2  0  0  0  0
 17 18  2  0  0  0  0
 18  5  1  0  0  0  0
 20 27  2  0  0  0  0
 20 25  1  0  0  0  0
 21 29  1  0  0  0  0
 21 22  2  0  0  0  0
 23 19  1  0  0  0  0
 23 22  1  0  0  0  0
 24 25  1  0  0  0  0
 24 21  1  0  0  0  0
 25 23  2  0  0  0  0
 26 24  1  0  0  0  0
 27 28  1  0  0  0  0
 28 19  2  0  0  0  0
 29 31  1  0  0  0  0
 30 29  2  0  0  0  0
 32 14  1  0  0  0  0
 33 32  1  0  0  0  0
 34 33  1  0  0  0  0
M  END
>  <MODEL>
6

>  <REMARK>
 VINA RESULT:      -7.8      3.308      8.564
  Name = 
  4 active torsions:
  status: ('A' for Active; 'I' for Inactive)
    1  A    between atoms: C_3  and  C_13
    2  A    between atoms: C_3  and  C_25
    3  A    between atoms: C_7  and  C_11
    4  A    between atoms: C_18  and  C_30
                            x       y       z     vdW  Elec       q    Type
                         _______ _______ _______ _____ _____    ______ ____

>  <TORSDO>
F 4

$$$$
=
 OpenBabel11062409453D

 34 39  0  0  0  0  0  0  0  0999 V2000
  161.2840  206.7370  149.9160 C   0  0  0  0  0  3  0  0  0  0  0  0
  161.1370  208.7190  153.1370 C   0  0  0  0  0  0  0  0  0  0  0  0
  161.4140  210.0650  152.6030 C   0  0  0  0  0  0  0  0  0  0  0  0
  161.7570  208.1950  148.0860 N   0  0  0  0  0  0  0  0  0  0  0  0
  161.3250  207.8170  150.8050 C   0  0  0  0  0  0  0  0  0  0  0  0
  161.8050  209.2700  148.9140 C   0  0  0  0  0  0  0  0  0  0  0  0
  162.1180  211.6490  149.2390 C   0  0  0  0  0  3  0  0  0  0  0  0
  162.0680  210.5390  148.3930 C   0  0  0  0  0  3  0  0  0  0  0  0
  161.5040  206.9370  148.5460 C   0  0  0  0  0  0  0  0  0  0  0  0
  161.6400  210.2310  151.1530 C   0  0  0  0  0  0  0  0  0  0  0  0
  161.5880  209.1070  150.3010 C   0  0  0  0  0  0  0  0  0  0  0  0
  161.9050  211.4960  150.6110 C   0  0  0  0  0  3  0  0  0  0  0  0
  160.9180  208.5270  154.5080 C   0  0  0  0  0  3  0  0  0  0  0  0
  160.6590  207.2490  155.0110 C   0  0  0  0  0  0  0  0  0  0  0  0
  160.6080  206.1550  154.1420 C   0  0  0  0  0  3  0  0  0  0  0  0
  161.4570  211.0630  153.3740 O   0  0  0  0  0  0  0  0  0  0  0  0
  160.8250  206.3360  152.7740 C   0  0  0  0  0  3  0  0  0  0  0  0
  161.0920  207.6150  152.2590 C   0  0  0  0  0  0  0  0  0  0  0  0
  161.5990  204.9360  145.3040 C   0  0  0  0  0  3  0  0  0  0  0  0
  161.2520  204.4920  148.0840 C   0  0  0  0  0  3  0  0  0  0  0  0
  161.0870  201.5260  146.1920 C   0  0  0  0  0  0  0  0  0  0  0  0
  161.3080  202.4490  145.1640 C   0  0  0  0  0  3  0  0  0  0  0  0
  161.3880  203.6620  145.8210 C   0  0  0  0  0  0  0  0  0  0  0  0
  161.0340  202.1400  147.4030 N   0  0  0  0  0  0  0  0  0  0  0  0
  161.2200  203.4460  147.1610 C   0  0  0  0  0  0  0  0  0  0  0  0
  160.8210  201.5300  148.7080 C   0  0  0  0  0  1  0  0  0  0  0  0
  161.4640  205.8000  147.6010 C   0  0  0  0  0  0  0  0  0  0  0  0
  161.6350  206.0110  146.2100 C   0  0  0  0  0  3  0  0  0  0  0  0
  160.9310  200.0760  145.9670 C   0  0  0  0  0  0  0  0  0  0  0  0
  160.2100  199.6440  145.0310 O   0  0  0  0  0  0  0  0  0  0  0  0
  161.6000  199.1480  146.8160 N   0  0  0  0  0  1  0  0  0  0  0  0
  160.4100  207.0570  156.4660 C   0  0  0  0  0  2  0  0  0  0  0  0
  161.0600  208.1740  157.2600 C   0  0  0  0  0  2  0  0  0  0  0  0
  162.2670  208.5280  156.6600 O   0  0  0  0  0  1  0  0  0  0  0  0
  1  5  1  0  0  0  0
  2 13  1  0  0  0  0
  3  2  1  0  0  0  0
  3 16  2  0  0  0  0
  4  9  1  0  0  0  0
  4  6  2  0  0  0  0
  5 18  1  0  0  0  0
  6 11  1  0  0  0  0
  7 12  1  0  0  0  0
  8  6  1  0  0  0  0
  8  7  2  0  0  0  0
  9  1  2  0  0  0  0
 10  3  1  0  0  0  0
 11  5  2  0  0  0  0
 11 10  1  0  0  0  0
 12 10  2  0  0  0  0
 13 14  2  0  0  0  0
 14 32  1  0  0  0  0
 15 14  1  0  0  0  0
 17 15  2  0  0  0  0
 18 17  1  0  0  0  0
 18  2  2  0  0  0  0
 19 23  2  0  0  0  0
 19 28  1  0  0  0  0
 21 24  1  0  0  0  0
 22 23  1  0  0  0  0
 22 21  2  0  0  0  0
 23 25  1  0  0  0  0
 24 26  1  0  0  0  0
 25 24  1  0  0  0  0
 25 20  2  0  0  0  0
 27 20  1  0  0  0  0
 27  9  1  0  0  0  0
 28 27  2  0  0  0  0
 29 21  1  0  0  0  0
 29 31  1  0  0  0  0
 30 29  2  0  0  0  0
 32 33  1  0  0  0  0
 34 33  1  0  0  0  0
M  END
>  <MODEL>
7

>  <REMARK>
 VINA RESULT:      -7.7      1.938      5.074
  Name = 
  4 active torsions:
  status: ('A' for Active; 'I' for Inactive)
    1  A    between atoms: C_3  and  C_13
    2  A    between atoms: C_3  and  C_25
    3  A    between atoms: C_7  and  C_11
    4  A    between atoms: C_18  and  C_30
                            x       y       z     vdW  Elec       q    Type
                         _______ _______ _______ _____ _____    ______ ____

>  <TORSDO>
F 4

$$$$
=
 OpenBabel11062409453D

 34 39  0  0  0  0  0  0  0  0999 V2000
  161.0100  205.6010  150.1040 C   0  0  0  0  0  3  0  0  0  0  0  0
  161.0140  204.0860  146.6360 C   0  0  0  0  0  0  0  0  0  0  0  0
  161.0890  202.6580  146.9980 C   0  0  0  0  0  0  0  0  0  0  0  0
  161.1250  203.8730  151.7450 N   0  0  0  0  0  0  0  0  0  0  0  0
  161.0360  204.6480  149.0790 C   0  0  0  0  0  0  0  0  0  0  0  0
  161.1520  202.9160  150.7820 C   0  0  0  0  0  0  0  0  0  0  0  0
  161.2500  200.5790  150.1550 C   0  0  0  0  0  3  0  0  0  0  0  0
  161.2230  201.5680  151.1420 C   0  0  0  0  0  3  0  0  0  0  0  0
  161.0560  205.2000  151.4460 C   0  0  0  0  0  0  0  0  0  0  0  0
  161.1350  202.2800  148.4250 C   0  0  0  0  0  0  0  0  0  0  0  0
  161.1070  203.2820  149.4190 C   0  0  0  0  0  0  0  0  0  0  0  0
  161.2070  200.9330  148.8040 C   0  0  0  0  0  3  0  0  0  0  0  0
  160.9680  204.4780  145.2910 C   0  0  0  0  0  3  0  0  0  0  0  0
  160.9000  205.8330  144.9510 C   0  0  0  0  0  0  0  0  0  0  0  0
  160.8680  206.8030  145.9580 C   0  0  0  0  0  3  0  0  0  0  0  0
  161.1120  201.7710  146.1010 O   0  0  0  0  0  0  0  0  0  0  0  0
  160.9120  206.4210  147.3000 C   0  0  0  0  0  3  0  0  0  0  0  0
  160.9870  205.0640  147.6520 C   0  0  0  0  0  0  0  0  0  0  0  0
  161.1830  206.7500  154.9250 C   0  0  0  0  0  3  0  0  0  0  0  0
  160.8300  207.5640  152.2310 C   0  0  0  0  0  3  0  0  0  0  0  0
  160.7010  210.2530  154.5020 C   0  0  0  0  0  0  0  0  0  0  0  0
  160.9170  209.1990  155.3970 C   0  0  0  0  0  3  0  0  0  0  0  0
  160.9830  208.0840  154.5840 C   0  0  0  0  0  0  0  0  0  0  0  0
  160.6390  209.8060  153.2200 N   0  0  0  0  0  0  0  0  0  0  0  0
  160.8120  208.4780  153.2850 C   0  0  0  0  0  0  0  0  0  0  0  0
  160.4270  210.5870  152.0090 C   0  0  0  0  0  1  0  0  0  0  0  0
  161.0310  206.2010  152.5350 C   0  0  0  0  0  0  0  0  0  0  0  0
  161.2050  205.8060  153.8850 C   0  0  0  0  0  3  0  0  0  0  0  0
  160.5610  211.6610  154.9190 C   0  0  0  0  0  0  0  0  0  0  0  0
  160.0820  212.5200  154.1340 O   0  0  0  0  0  0  0  0  0  0  0  0
  160.9730  212.0630  156.2220 N   0  0  0  0  0  1  0  0  0  0  0  0
  160.8330  206.2400  143.5210 C   0  0  0  0  0  2  0  0  0  0  0  0
  162.1010  205.8250  142.8000 C   0  0  0  0  0  2  0  0  0  0  0  0
  162.0200  206.2050  141.4620 O   0  0  0  0  0  1  0  0  0  0  0  0
  1  9  1  0  0  0  0
  2  3  1  0  0  0  0
  2 18  1  0  0  0  0
  3 10  1  0  0  0  0
  5 11  1  0  0  0  0
  5  1  2  0  0  0  0
  6  8  1  0  0  0  0
  6  4  1  0  0  0  0
  7  8  2  0  0  0  0
  9  4  2  0  0  0  0
  9 27  1  0  0  0  0
 10 12  2  0  0  0  0
 10 11  1  0  0  0  0
 11  6  2  0  0  0  0
 12  7  1  0  0  0  0
 13  2  2  0  0  0  0
 14 13  1  0  0  0  0
 14 15  2  0  0  0  0
 15 17  1  0  0  0  0
 16  3  2  0  0  0  0
 17 18  2  0  0  0  0
 18  5  1  0  0  0  0
 20 27  2  0  0  0  0
 20 25  1  0  0  0  0
 21 29  1  0  0  0  0
 21 22  2  0  0  0  0
 23 19  1  0  0  0  0
 23 22  1  0  0  0  0
 24 25  1  0  0  0  0
 24 21  1  0  0  0  0
 25 23  2  0  0  0  0
 26 24  1  0  0  0  0
 27 28  1  0  0  0  0
 28 19  2  0  0  0  0
 29 31  1  0  0  0  0
 30 29  2  0  0  0  0
 32 14  1  0  0  0  0
 33 32  1  0  0  0  0
 34 33  1  0  0  0  0
M  END
>  <MODEL>
8

>  <REMARK>
 VINA RESULT:      -7.6      2.893      8.401
  Name = 
  4 active torsions:
  status: ('A' for Active; 'I' for Inactive)
    1  A    between atoms: C_3  and  C_13
    2  A    between atoms: C_3  and  C_25
    3  A    between atoms: C_7  and  C_11
    4  A    between atoms: C_18  and  C_30
                            x       y       z     vdW  Elec       q    Type
                         _______ _______ _______ _____ _____    ______ ____

>  <TORSDO>
F 4

$$$$
