=
 OpenBabel11052423013D

 28 32  0  0  0  0  0  0  0  0999 V2000
  161.2270  203.5110  148.5630 C   0  0  0  0  0  0  0  0  0  0  0  0
  161.8560  208.5340  149.0190 C   0  0  0  0  0  3  0  0  0  0  0  0
  161.1230  204.3160  153.3710 O   0  0  0  0  0  1  0  0  0  0  0  0
  161.3170  209.0200  151.3650 C   0  0  0  0  0  0  0  0  0  0  0  0
  161.4260  206.6320  150.5030 C   0  0  0  0  0  0  0  0  0  0  0  0
  161.8610  210.8850  149.9000 C   0  0  0  0  0  0  0  0  0  0  0  0
  161.5390  208.0800  150.2410 C   0  0  0  0  0  0  0  0  0  0  0  0
  161.4710  207.1270  152.9830 C   0  0  0  0  0  2  0  0  0  0  0  0
  161.4640  210.3350  151.2020 C   0  0  0  0  0  3  0  0  0  0  0  0
  161.1590  203.9020  150.9830 C   0  0  0  0  0  0  0  0  0  0  0  0
  161.3900  205.7440  149.4720 N   0  0  0  0  0  0  0  0  0  0  0  0
  160.8390  208.4870  152.6800 C   0  0  0  0  0  2  0  0  0  0  0  0
  160.9510  201.6500  150.1160 C   0  0  0  0  0  3  0  0  0  0  0  0
  161.2030  204.7930  152.0650 C   0  0  0  0  0  0  0  0  0  0  0  0
  161.0040  202.5280  151.1970 C   0  0  0  0  0  3  0  0  0  0  0  0
  162.0700  212.1210  149.7870 O   0  0  0  0  0  0  0  0  0  0  0  0
  161.9840  209.9980  148.6920 C   0  0  0  0  0  2  0  0  0  0  0  0
  161.3290  206.1680  151.8290 C   0  0  0  0  0  0  0  0  0  0  0  0
  161.0590  202.1380  148.8140 C   0  0  0  0  0  3  0  0  0  0  0  0
  161.2690  204.4030  149.6630 C   0  0  0  0  0  0  0  0  0  0  0  0
  161.3540  203.9750  147.1540 C   0  0  0  0  0  0  0  0  0  0  0  0
  160.4840  203.5320  146.2340 C   0  0  0  0  0  3  0  0  0  0  0  0
  161.5700  204.9630  144.4490 C   0  0  0  0  0  0  0  0  0  0  0  0
  162.5290  204.8450  146.7460 C   0  0  0  0  0  2  0  0  0  0  0  0
  159.7760  203.4870  143.9800 O   0  0  0  0  0  0  0  0  0  0  0  0
  160.5730  203.9580  144.8340 C   0  0  0  0  0  0  0  0  0  0  0  0
  161.5850  205.4810  143.1590 O   0  0  0  0  0  1  0  0  0  0  0  0
  162.4560  205.3980  145.3440 C   0  0  0  0  0  3  0  0  0  0  0  0
  1 19  2  0  0  0  0
  1 20  1  0  0  0  0
  2  7  2  0  0  0  0
  4 12  1  0  0  0  0
  5 18  1  0  0  0  0
  6  9  1  0  0  0  0
  7  5  1  0  0  0  0
  7  4  1  0  0  0  0
  9  4  2  0  0  0  0
 10 15  1  0  0  0  0
 10 14  1  0  0  0  0
 11 20  1  0  0  0  0
 11  5  2  0  0  0  0
 12  8  1  0  0  0  0
 13 15  2  0  0  0  0
 14  3  1  0  0  0  0
 16  6  2  0  0  0  0
 17  2  1  0  0  0  0
 17  6  1  0  0  0  0
 18 14  2  0  0  0  0
 18  8  1  0  0  0  0
 19 13  1  0  0  0  0
 20 10  2  0  0  0  0
 21  1  1  0  0  0  0
 22 21  2  0  0  0  0
 23 26  1  0  0  0  0
 23 28  2  0  0  0  0
 24 21  1  0  0  0  0
 25 26  2  0  0  0  0
 26 22  1  0  0  0  0
 27 23  1  0  0  0  0
 28 24  1  0  0  0  0
M  END
>  <MODEL>
1

>  <REMARK>
 VINA RESULT:     -10.3      0.000      0.000
  Name = 
  1 active torsions:
  status: ('A' for Active; 'I' for Inactive)
    1  A    between atoms: C_1  and  C_2
                            x       y       z     vdW  Elec       q    Type
                         _______ _______ _______ _____ _____    ______ ____

>  <TORSDO>
F 1

$$$$
=
 OpenBabel11052423013D

 28 32  0  0  0  0  0  0  0  0999 V2000
  161.2300  207.7180  152.1830 C   0  0  0  0  0  0  0  0  0  0  0  0
  161.0140  206.3430  147.2950 C   0  0  0  0  0  3  0  0  0  0  0  0
  160.8540  202.8580  152.3050 O   0  0  0  0  0  1  0  0  0  0  0  0
  161.3210  203.9060  147.3170 C   0  0  0  0  0  0  0  0  0  0  0  0
  161.0950  205.2290  149.4760 C   0  0  0  0  0  0  0  0  0  0  0  0
  161.1220  205.0210  145.1630 C   0  0  0  0  0  0  0  0  0  0  0  0
  161.1460  205.2100  148.0010 C   0  0  0  0  0  0  0  0  0  0  0  0
  160.8100  202.7150  149.4490 C   0  0  0  0  0  2  0  0  0  0  0  0
  161.3150  203.8200  145.9880 C   0  0  0  0  0  3  0  0  0  0  0  0
  161.0540  205.2730  152.2600 C   0  0  0  0  0  0  0  0  0  0  0  0
  161.1680  206.4070  150.1540 N   0  0  0  0  0  0  0  0  0  0  0  0
  161.5950  202.6830  148.1360 C   0  0  0  0  0  2  0  0  0  0  0  0
  161.1540  206.5430  154.3200 C   0  0  0  0  0  3  0  0  0  0  0  0
  160.9680  204.0460  151.5860 C   0  0  0  0  0  0  0  0  0  0  0  0
  161.0580  205.3200  153.6580 C   0  0  0  0  0  3  0  0  0  0  0  0
  161.0420  204.9070  143.9130 O   0  0  0  0  0  0  0  0  0  0  0  0
  161.0580  206.3850  145.7900 C   0  0  0  0  0  2  0  0  0  0  0  0
  160.9970  204.0180  150.1860 C   0  0  0  0  0  0  0  0  0  0  0  0
  161.2410  207.7270  153.5880 C   0  0  0  0  0  3  0  0  0  0  0  0
  161.1430  206.4730  151.5130 C   0  0  0  0  0  0  0  0  0  0  0  0
  161.3090  209.0140  151.4530 C   0  0  0  0  0  0  0  0  0  0  0  0
  161.8640  209.0490  150.2330 C   0  0  0  0  0  3  0  0  0  0  0  0
  161.3650  211.5240  150.0270 C   0  0  0  0  0  0  0  0  0  0  0  0
  160.8730  210.2960  152.1390 C   0  0  0  0  0  2  0  0  0  0  0  0
  162.5400  210.3180  148.3570 O   0  0  0  0  0  0  0  0  0  0  0  0
  161.9680  210.3030  149.4790 C   0  0  0  0  0  0  0  0  0  0  0  0
  161.3320  212.6900  149.2720 O   0  0  0  0  0  1  0  0  0  0  0  0
  160.8290  211.5120  151.2460 C   0  0  0  0  0  3  0  0  0  0  0  0
  1 19  1  0  0  0  0
  2  7  2  0  0  0  0
  4  7  1  0  0  0  0
  4 12  1  0  0  0  0
  5 11  2  0  0  0  0
  5 18  1  0  0  0  0
  6 17  1  0  0  0  0
  6  9  1  0  0  0  0
  7  5  1  0  0  0  0
  8 18  1  0  0  0  0
  9  4  2  0  0  0  0
 10 15  2  0  0  0  0
 11 20  1  0  0  0  0
 12  8  1  0  0  0  0
 14 10  1  0  0  0  0
 14  3  1  0  0  0  0
 15 13  1  0  0  0  0
 16  6  2  0  0  0  0
 17  2  1  0  0  0  0
 18 14  2  0  0  0  0
 19 13  2  0  0  0  0
 20  1  2  0  0  0  0
 20 10  1  0  0  0  0
 21 24  1  0  0  0  0
 21  1  1  0  0  0  0
 22 21  2  0  0  0  0
 23 28  2  0  0  0  0
 25 26  2  0  0  0  0
 26 23  1  0  0  0  0
 26 22  1  0  0  0  0
 27 23  1  0  0  0  0
 28 24  1  0  0  0  0
M  END
>  <MODEL>
2

>  <REMARK>
 VINA RESULT:     -10.2      1.196      6.226
  Name = 
  1 active torsions:
  status: ('A' for Active; 'I' for Inactive)
    1  A    between atoms: C_1  and  C_2
                            x       y       z     vdW  Elec       q    Type
                         _______ _______ _______ _____ _____    ______ ____

>  <TORSDO>
F 1

$$$$
=
 OpenBabel11052423013D

 28 32  0  0  0  0  0  0  0  0999 V2000
  161.2540  207.7470  152.0550 C   0  0  0  0  0  0  0  0  0  0  0  0
  160.9990  206.2090  147.2170 C   0  0  0  0  0  3  0  0  0  0  0  0
  160.8340  202.8970  152.3430 O   0  0  0  0  0  1  0  0  0  0  0  0
  161.2850  203.7720  147.3200 C   0  0  0  0  0  0  0  0  0  0  0  0
  161.0820  205.1690  149.4340 C   0  0  0  0  0  0  0  0  0  0  0  0
  161.0840  204.8150  145.1310 C   0  0  0  0  0  0  0  0  0  0  0  0
  161.1250  205.1000  147.9600 C   0  0  0  0  0  0  0  0  0  0  0  0
  160.7740  202.6590  149.4940 C   0  0  0  0  0  2  0  0  0  0  0  0
  161.2710  203.6410  145.9940 C   0  0  0  0  0  3  0  0  0  0  0  0
  161.0570  205.3070  152.2150 C   0  0  0  0  0  0  0  0  0  0  0  0
  161.1700  206.3680  150.0720 N   0  0  0  0  0  0  0  0  0  0  0  0
  161.5510  202.5750  148.1790 C   0  0  0  0  0  2  0  0  0  0  0  0
  161.1790  206.6450  154.2300 C   0  0  0  0  0  3  0  0  0  0  0  0
  160.9550  204.0590  151.5840 C   0  0  0  0  0  0  0  0  0  0  0  0
  161.0680  205.4020  153.6110 C   0  0  0  0  0  3  0  0  0  0  0  0
  160.9960  204.6600  143.8850 O   0  0  0  0  0  0  0  0  0  0  0  0
  161.0360  206.2000  145.7110 C   0  0  0  0  0  2  0  0  0  0  0  0
  160.9760  203.9830  150.1860 C   0  0  0  0  0  0  0  0  0  0  0  0
  161.2730  207.8030  153.4590 C   0  0  0  0  0  3  0  0  0  0  0  0
  161.1520  206.4800  151.4280 C   0  0  0  0  0  0  0  0  0  0  0  0
  161.3410  209.0160  151.2810 C   0  0  0  0  0  0  0  0  0  0  0  0
  160.8030  210.1350  151.7900 C   0  0  0  0  0  3  0  0  0  0  0  0
  161.6040  211.4800  149.7990 C   0  0  0  0  0  0  0  0  0  0  0  0
  161.9260  209.0110  149.8810 C   0  0  0  0  0  2  0  0  0  0  0  0
  160.3020  212.4310  151.5380 O   0  0  0  0  0  0  0  0  0  0  0  0
  160.8600  211.4070  151.0620 C   0  0  0  0  0  0  0  0  0  0  0  0
  161.7860  212.7020  149.1610 O   0  0  0  0  0  1  0  0  0  0  0  0
  162.1250  210.3750  149.2690 C   0  0  0  0  0  3  0  0  0  0  0  0
  1 19  1  0  0  0  0
  2  7  2  0  0  0  0
  4  7  1  0  0  0  0
  4 12  1  0  0  0  0
  5 11  2  0  0  0  0
  5 18  1  0  0  0  0
  6 17  1  0  0  0  0
  6  9  1  0  0  0  0
  7  5  1  0  0  0  0
  8 18  1  0  0  0  0
  9  4  2  0  0  0  0
 10 15  2  0  0  0  0
 11 20  1  0  0  0  0
 12  8  1  0  0  0  0
 14 10  1  0  0  0  0
 14  3  1  0  0  0  0
 15 13  1  0  0  0  0
 16  6  2  0  0  0  0
 17  2  1  0  0  0  0
 18 14  2  0  0  0  0
 19 13  2  0  0  0  0
 20  1  2  0  0  0  0
 20 10  1  0  0  0  0
 21 22  2  0  0  0  0
 21  1  1  0  0  0  0
 23 26  1  0  0  0  0
 24 21  1  0  0  0  0
 26 25  2  0  0  0  0
 26 22  1  0  0  0  0
 27 23  1  0  0  0  0
 28 23  2  0  0  0  0
 28 24  1  0  0  0  0
M  END
>  <MODEL>
3

>  <REMARK>
 VINA RESULT:     -10.2      1.163      6.399
  Name = 
  1 active torsions:
  status: ('A' for Active; 'I' for Inactive)
    1  A    between atoms: C_1  and  C_2
                            x       y       z     vdW  Elec       q    Type
                         _______ _______ _______ _____ _____    ______ ____

>  <TORSDO>
F 1

$$$$
=
 OpenBabel11052423013D

 28 32  0  0  0  0  0  0  0  0999 V2000
  161.2260  204.2670  149.6690 C   0  0  0  0  0  0  0  0  0  0  0  0
  161.9060  209.2490  148.9260 C   0  0  0  0  0  3  0  0  0  0  0  0
  161.1570  206.1840  154.1530 O   0  0  0  0  0  1  0  0  0  0  0  0
  161.3850  210.2810  151.0930 C   0  0  0  0  0  0  0  0  0  0  0  0
  161.4660  207.7550  150.8180 C   0  0  0  0  0  0  0  0  0  0  0  0
  161.9380  211.7410  149.2280 C   0  0  0  0  0  0  0  0  0  0  0  0
  161.5910  209.1000  150.2210 C   0  0  0  0  0  0  0  0  0  0  0  0
  161.5300  208.8210  153.1120 C   0  0  0  0  0  2  0  0  0  0  0  0
  161.5440  211.5180  150.6240 C   0  0  0  0  0  3  0  0  0  0  0  0
  161.1760  205.2190  151.9290 C   0  0  0  0  0  0  0  0  0  0  0  0
  161.4150  206.6500  150.0250 N   0  0  0  0  0  0  0  0  0  0  0  0
  160.9090  210.0770  152.4980 C   0  0  0  0  0  2  0  0  0  0  0  0
  160.9410  202.8280  151.6180 C   0  0  0  0  0  3  0  0  0  0  0  0
  161.2350  206.3390  152.7710 C   0  0  0  0  0  0  0  0  0  0  0  0
  161.0090  203.9360  152.4610 C   0  0  0  0  0  3  0  0  0  0  0  0
  162.1580  212.9130  148.8250 O   0  0  0  0  0  0  0  0  0  0  0  0
  162.0460  210.5940  148.2630 C   0  0  0  0  0  2  0  0  0  0  0  0
  161.3720  207.6180  152.2160 C   0  0  0  0  0  0  0  0  0  0  0  0
  161.0470  202.9950  150.2380 C   0  0  0  0  0  3  0  0  0  0  0  0
  161.2830  205.3930  150.5280 C   0  0  0  0  0  0  0  0  0  0  0  0
  161.3490  204.3850  148.1900 C   0  0  0  0  0  0  0  0  0  0  0  0
  161.0480  203.3300  147.4190 C   0  0  0  0  0  3  0  0  0  0  0  0
  161.5120  204.6720  145.3210 C   0  0  0  0  0  0  0  0  0  0  0  0
  161.9250  205.6480  147.5760 C   0  0  0  0  0  2  0  0  0  0  0  0
  160.9190  202.3770  145.2600 O   0  0  0  0  0  0  0  0  0  0  0  0
  161.1590  203.3970  145.9580 C   0  0  0  0  0  0  0  0  0  0  0  0
  161.4910  204.7950  143.9370 O   0  0  0  0  0  1  0  0  0  0  0  0
  161.8350  205.7230  146.0720 C   0  0  0  0  0  3  0  0  0  0  0  0
  1 19  2  0  0  0  0
  1 20  1  0  0  0  0
  2  7  2  0  0  0  0
  4 12  1  0  0  0  0
  5 18  1  0  0  0  0
  6  9  1  0  0  0  0
  7  5  1  0  0  0  0
  7  4  1  0  0  0  0
  9  4  2  0  0  0  0
 10 15  1  0  0  0  0
 10 14  1  0  0  0  0
 11 20  1  0  0  0  0
 11  5  2  0  0  0  0
 12  8  1  0  0  0  0
 13 15  2  0  0  0  0
 14  3  1  0  0  0  0
 16  6  2  0  0  0  0
 17  2  1  0  0  0  0
 17  6  1  0  0  0  0
 18 14  2  0  0  0  0
 18  8  1  0  0  0  0
 19 13  1  0  0  0  0
 20 10  2  0  0  0  0
 21  1  1  0  0  0  0
 22 21  2  0  0  0  0
 23 26  1  0  0  0  0
 23 28  2  0  0  0  0
 24 21  1  0  0  0  0
 25 26  2  0  0  0  0
 26 22  1  0  0  0  0
 27 23  1  0  0  0  0
 28 24  1  0  0  0  0
M  END
>  <MODEL>
4

>  <REMARK>
 VINA RESULT:     -10.1      1.094      1.406
  Name = 
  1 active torsions:
  status: ('A' for Active; 'I' for Inactive)
    1  A    between atoms: C_1  and  C_2
                            x       y       z     vdW  Elec       q    Type
                         _______ _______ _______ _____ _____    ______ ____

>  <TORSDO>
F 1

$$$$
=
 OpenBabel11052423013D

 28 32  0  0  0  0  0  0  0  0999 V2000
  161.3090  210.0810  151.8540 C   0  0  0  0  0  0  0  0  0  0  0  0
  161.1070  206.7800  147.9950 C   0  0  0  0  0  3  0  0  0  0  0  0
  160.8300  205.7300  154.0030 O   0  0  0  0  0  1  0  0  0  0  0  0
  161.3640  204.5750  149.0450 C   0  0  0  0  0  0  0  0  0  0  0  0
  161.1460  206.6860  150.4430 C   0  0  0  0  0  0  0  0  0  0  0  0
  161.2070  204.6830  146.6190 C   0  0  0  0  0  0  0  0  0  0  0  0
  161.2090  206.0480  149.1140 C   0  0  0  0  0  0  0  0  0  0  0  0
  160.8090  204.4000  151.4710 C   0  0  0  0  0  2  0  0  0  0  0  0
  161.3670  203.9380  147.8750 C   0  0  0  0  0  3  0  0  0  0  0  0
  161.0820  207.8990  152.9490 C   0  0  0  0  0  0  0  0  0  0  0  0
  161.2380  208.0390  150.5640 N   0  0  0  0  0  0  0  0  0  0  0  0
  161.6040  203.8060  150.3070 C   0  0  0  0  0  2  0  0  0  0  0  0
  161.1900  209.9160  154.2850 C   0  0  0  0  0  3  0  0  0  0  0  0
  160.9760  206.5030  152.8530 C   0  0  0  0  0  0  0  0  0  0  0  0
  161.0740  208.5300  154.1980 C   0  0  0  0  0  3  0  0  0  0  0  0
  161.1350  204.0550  145.5310 O   0  0  0  0  0  0  0  0  0  0  0  0
  161.1660  206.1850  146.6130 C   0  0  0  0  0  2  0  0  0  0  0  0
  161.0160  205.8880  151.5950 C   0  0  0  0  0  0  0  0  0  0  0  0
  161.3080  210.6810  153.1260 C   0  0  0  0  0  3  0  0  0  0  0  0
  161.2020  208.6710  151.7690 C   0  0  0  0  0  0  0  0  0  0  0  0
  161.4210  210.9480  150.6490 C   0  0  0  0  0  0  0  0  0  0  0  0
  160.7550  212.1120  150.6110 C   0  0  0  0  0  3  0  0  0  0  0  0
  161.7310  212.6490  148.3360 C   0  0  0  0  0  0  0  0  0  0  0  0
  162.1860  210.4580  149.4330 C   0  0  0  0  0  2  0  0  0  0  0  0
  160.1560  214.0580  149.4110 O   0  0  0  0  0  0  0  0  0  0  0  0
  160.8320  212.9960  149.4430 C   0  0  0  0  0  0  0  0  0  0  0  0
  161.9220  213.5350  147.2830 O   0  0  0  0  0  1  0  0  0  0  0  0
  162.3830  211.4880  148.3470 C   0  0  0  0  0  3  0  0  0  0  0  0
  1 19  1  0  0  0  0
  2  7  2  0  0  0  0
  4  7  1  0  0  0  0
  4 12  1  0  0  0  0
  5 11  2  0  0  0  0
  5 18  1  0  0  0  0
  6  9  1  0  0  0  0
  7  5  1  0  0  0  0
  8 18  1  0  0  0  0
  9  4  2  0  0  0  0
 10 15  2  0  0  0  0
 11 20  1  0  0  0  0
 12  8  1  0  0  0  0
 14 10  1  0  0  0  0
 14  3  1  0  0  0  0
 15 13  1  0  0  0  0
 16  6  2  0  0  0  0
 17  6  1  0  0  0  0
 17  2  1  0  0  0  0
 18 14  2  0  0  0  0
 19 13  2  0  0  0  0
 20  1  2  0  0  0  0
 20 10  1  0  0  0  0
 21  1  1  0  0  0  0
 22 21  2  0  0  0  0
 23 28  2  0  0  0  0
 23 26  1  0  0  0  0
 24 21  1  0  0  0  0
 25 26  2  0  0  0  0
 26 22  1  0  0  0  0
 27 23  1  0  0  0  0
 28 24  1  0  0  0  0
M  END
>  <MODEL>
5

>  <REMARK>
 VINA RESULT:      -9.3      1.631      6.681
  Name = 
  1 active torsions:
  status: ('A' for Active; 'I' for Inactive)
    1  A    between atoms: C_1  and  C_2
                            x       y       z     vdW  Elec       q    Type
                         _______ _______ _______ _____ _____    ______ ____

>  <TORSDO>
F 1

$$$$
=
 OpenBabel11052423013D

 28 32  0  0  0  0  0  0  0  0999 V2000
  161.3050  209.0880  152.1800 C   0  0  0  0  0  0  0  0  0  0  0  0
  161.0790  204.0800  151.3440 C   0  0  0  0  0  3  0  0  0  0  0  0
  162.3910  208.5970  147.4520 O   0  0  0  0  0  1  0  0  0  0  0  0
  161.1310  203.8520  148.8990 C   0  0  0  0  0  0  0  0  0  0  0  0
  161.4440  206.1110  150.0220 C   0  0  0  0  0  0  0  0  0  0  0  0
  160.8850  201.8350  150.2370 C   0  0  0  0  0  0  0  0  0  0  0  0
  161.2040  204.6590  150.1410 C   0  0  0  0  0  0  0  0  0  0  0  0
  162.0820  205.7580  147.6000 C   0  0  0  0  0  2  0  0  0  0  0  0
  160.9770  202.5290  148.9470 C   0  0  0  0  0  3  0  0  0  0  0  0
  161.8400  208.8580  149.7980 C   0  0  0  0  0  0  0  0  0  0  0  0
  161.2900  206.9260  151.1010 N   0  0  0  0  0  0  0  0  0  0  0  0
  161.1460  204.5480  147.5740 C   0  0  0  0  0  2  0  0  0  0  0  0
  161.8270  211.0500  150.8280 C   0  0  0  0  0  3  0  0  0  0  0  0
  162.0140  208.0400  148.6720 C   0  0  0  0  0  0  0  0  0  0  0  0
  162.0120  210.2430  149.7070 C   0  0  0  0  0  3  0  0  0  0  0  0
  160.8180  200.5780  150.2620 O   0  0  0  0  0  0  0  0  0  0  0  0
  160.8330  202.6050  151.5270 C   0  0  0  0  0  2  0  0  0  0  0  0
  161.8080  206.6590  148.7780 C   0  0  0  0  0  0  0  0  0  0  0  0
  161.4750  210.4770  152.0500 C   0  0  0  0  0  3  0  0  0  0  0  0
  161.4830  208.2710  151.0370 C   0  0  0  0  0  0  0  0  0  0  0  0
  160.9450  208.5290  153.5130 C   0  0  0  0  0  0  0  0  0  0  0  0
  160.4900  209.3500  154.4700 C   0  0  0  0  0  3  0  0  0  0  0  0
  160.1720  207.4010  156.0560 C   0  0  0  0  0  0  0  0  0  0  0  0
  161.2080  207.0650  153.8150 C   0  0  0  0  0  2  0  0  0  0  0  0
  159.7520  209.6450  156.6960 O   0  0  0  0  0  0  0  0  0  0  0  0
  160.1280  208.8450  155.7990 C   0  0  0  0  0  0  0  0  0  0  0  0
  159.7060  206.8880  157.2610 O   0  0  0  0  0  1  0  0  0  0  0  0
  160.6420  206.5730  155.1250 C   0  0  0  0  0  3  0  0  0  0  0  0
  1 21  1  0  0  0  0
  2 17  1  0  0  0  0
  3 14  1  0  0  0  0
  4  9  2  0  0  0  0
  4  7  1  0  0  0  0
  5  7  1  0  0  0  0
  5 11  2  0  0  0  0
  6 16  2  0  0  0  0
  6 17  1  0  0  0  0
  7  2  2  0  0  0  0
  8 18  1  0  0  0  0
  9  6  1  0  0  0  0
 10 20  1  0  0  0  0
 12  8  1  0  0  0  0
 12  4  1  0  0  0  0
 13 19  2  0  0  0  0
 14 18  2  0  0  0  0
 14 10  1  0  0  0  0
 15 10  2  0  0  0  0
 15 13  1  0  0  0  0
 18  5  1  0  0  0  0
 19  1  1  0  0  0  0
 20 11  1  0  0  0  0
 20  1  2  0  0  0  0
 21 24  1  0  0  0  0
 21 22  2  0  0  0  0
 22 26  1  0  0  0  0
 23 27  1  0  0  0  0
 24 28  1  0  0  0  0
 26 23  1  0  0  0  0
 26 25  2  0  0  0  0
 28 23  2  0  0  0  0
M  END
>  <MODEL>
6

>  <REMARK>
 VINA RESULT:      -9.0      2.392      8.269
  Name = 
  1 active torsions:
  status: ('A' for Active; 'I' for Inactive)
    1  A    between atoms: C_1  and  C_2
                            x       y       z     vdW  Elec       q    Type
                         _______ _______ _______ _____ _____    ______ ____

>  <TORSDO>
F 1

$$$$
=
 OpenBabel11052423013D

 28 32  0  0  0  0  0  0  0  0999 V2000
  161.4900  205.2960  148.4240 C   0  0  0  0  0  0  0  0  0  0  0  0
  160.7580  206.4240  153.3250 C   0  0  0  0  0  3  0  0  0  0  0  0
  161.9650  210.1450  148.6380 O   0  0  0  0  0  1  0  0  0  0  0  0
  161.4730  208.7630  153.5420 C   0  0  0  0  0  0  0  0  0  0  0  0
  161.3630  207.6210  151.2740 C   0  0  0  0  0  0  0  0  0  0  0  0
  160.7580  207.5890  155.5490 C   0  0  0  0  0  0  0  0  0  0  0  0
  161.1870  207.5510  152.7380 C   0  0  0  0  0  0  0  0  0  0  0  0
  161.5060  210.1390  151.4600 C   0  0  0  0  0  2  0  0  0  0  0  0
  161.2760  208.7780  154.8590 C   0  0  0  0  0  3  0  0  0  0  0  0
  161.7450  207.7340  148.5180 C   0  0  0  0  0  0  0  0  0  0  0  0
  161.3390  206.4870  150.5210 N   0  0  0  0  0  0  0  0  0  0  0  0
  162.0730  209.9600  152.8700 C   0  0  0  0  0  2  0  0  0  0  0  0
  161.9450  206.5780  146.3990 C   0  0  0  0  0  3  0  0  0  0  0  0
  161.7650  208.9190  149.2680 C   0  0  0  0  0  0  0  0  0  0  0  0
  161.9560  207.7610  147.1360 C   0  0  0  0  0  3  0  0  0  0  0  0
  160.5060  207.6480  156.7810 O   0  0  0  0  0  0  0  0  0  0  0  0
  160.5620  206.2940  154.8130 C   0  0  0  0  0  2  0  0  0  0  0  0
  161.5810  208.8660  150.6560 C   0  0  0  0  0  0  0  0  0  0  0  0
  161.7160  205.3600  147.0380 C   0  0  0  0  0  3  0  0  0  0  0  0
  161.5130  206.4990  149.1720 C   0  0  0  0  0  0  0  0  0  0  0  0
  161.2350  203.9700  149.0520 C   0  0  0  0  0  0  0  0  0  0  0  0
  161.2060  202.8720  148.2820 C   0  0  0  0  0  3  0  0  0  0  0  0
  160.8270  201.4030  150.3100 C   0  0  0  0  0  0  0  0  0  0  0  0
  160.8920  203.8850  150.5280 C   0  0  0  0  0  2  0  0  0  0  0  0
  160.8810  200.5380  148.1030 O   0  0  0  0  0  0  0  0  0  0  0  0
  160.9540  201.5460  148.8550 C   0  0  0  0  0  0  0  0  0  0  0  0
  160.7230  200.1430  150.8860 O   0  0  0  0  0  1  0  0  0  0  0  0
  160.8310  202.4850  151.0870 C   0  0  0  0  0  3  0  0  0  0  0  0
  1 21  1  0  0  0  0
  1 20  1  0  0  0  0
  2 17  1  0  0  0  0
  3 14  1  0  0  0  0
  4  9  2  0  0  0  0
  5  7  1  0  0  0  0
  6 16  2  0  0  0  0
  7  2  2  0  0  0  0
  7  4  1  0  0  0  0
  8 12  1  0  0  0  0
  9  6  1  0  0  0  0
 10 20  2  0  0  0  0
 10 14  1  0  0  0  0
 11  5  2  0  0  0  0
 12  4  1  0  0  0  0
 13 19  1  0  0  0  0
 13 15  2  0  0  0  0
 14 18  2  0  0  0  0
 15 10  1  0  0  0  0
 17  6  1  0  0  0  0
 18  5  1  0  0  0  0
 18  8  1  0  0  0  0
 19  1  2  0  0  0  0
 20 11  1  0  0  0  0
 21 24  1  0  0  0  0
 22 26  1  0  0  0  0
 22 21  2  0  0  0  0
 23 27  1  0  0  0  0
 23 28  2  0  0  0  0
 24 28  1  0  0  0  0
 25 26  2  0  0  0  0
 26 23  1  0  0  0  0
M  END
>  <MODEL>
7

>  <REMARK>
 VINA RESULT:      -8.1      2.305      5.045
  Name = 
  1 active torsions:
  status: ('A' for Active; 'I' for Inactive)
    1  A    between atoms: C_1  and  C_2
                            x       y       z     vdW  Elec       q    Type
                         _______ _______ _______ _____ _____    ______ ____

>  <TORSDO>
F 1

$$$$
