=
 OpenBabel11052423093D

 27 30  0  0  1  0  0  0  0  0999 V2000
  162.0100  212.1090  149.0230 N   0  0  0  0  0  2  0  0  0  0  0  0
  162.2380  214.4530  148.9170 N   0  0  0  0  0  2  0  0  0  0  0  0
  161.2230  209.3340  151.4290 C   0  0  1  0  0  3  0  0  0  0  0  0
  160.1220  211.5530  151.9510 C   0  0  0  0  0  3  0  0  0  0  0  0
  159.9880  213.5820  150.1070 S   0  0  0  0  0  0  0  0  0  0  0  0
  160.6700  210.2710  152.5300 C   0  0  2  0  0  3  0  0  0  0  0  0
  161.4840  213.4290  149.1370 C   0  0  0  0  0  0  0  0  0  0  0  0
  161.2050  211.1350  149.7320 C   0  0  2  0  0  3  0  0  0  0  0  0
  160.3720  211.9380  150.6890 C   0  0  0  0  0  0  0  0  0  0  0  0
  162.0890  210.1190  150.4480 C   0  0  0  0  0  2  0  0  0  0  0  0
  161.9590  208.2400  151.9700 O   0  0  0  0  0  0  0  0  0  0  0  0
  160.8490  204.2320  151.3780 C   0  0  0  0  0  3  0  0  0  0  0  0
  161.5840  206.9040  151.7960 C   0  0  0  0  0  0  0  0  0  0  0  0
  161.5710  205.9960  152.8670 C   0  0  0  0  0  3  0  0  0  0  0  0
  161.2050  204.6640  152.6570 C   0  0  0  0  0  3  0  0  0  0  0  0
  160.8570  205.1320  150.3070 C   0  0  0  0  0  3  0  0  0  0  0  0
  161.2230  206.4640  150.5180 C   0  0  0  0  0  3  0  0  0  0  0  0
  161.7300  210.6310  153.5680 C   0  0  0  0  0  2  0  0  0  0  0  0
  162.3060  210.3270  156.0330 C   0  0  0  0  0  0  0  0  0  0  0  0
  160.1690  207.9260  155.7900 C   0  0  0  0  0  1  0  0  0  0  0  0
  159.3590  210.3100  155.6780 C   0  0  0  0  0  2  0  0  0  0  0  0
  162.5350  209.3350  156.9880 O   0  0  0  0  0  1  0  0  0  0  0  0
  163.5320  210.9060  155.6990 O   0  0  0  0  0  1  0  0  0  0  0  0
  160.2160  209.2300  155.0120 C   0  0  1  0  0  3  0  0  0  0  0  0
  160.0150  210.8440  156.9470 C   0  0  0  0  0  2  0  0  0  0  0  0
  161.3970  211.4050  156.6290 C   0  0  0  0  0  2  0  0  0  0  0  0
  161.6640  209.6970  154.7770 C   0  0  1  0  0  3  0  0  0  0  0  0
  1  7  1  0  0  0  0
  1  8  1  0  0  0  0
  2  7  2  0  0  0  0
  3 11  1  1  0  0  0
  3  6  1  0  0  0  0
  4  6  1  0  0  0  0
  5  9  1  0  0  0  0
  6 18  1  1  0  0  0
  7  5  1  0  0  0  0
  8 10  1  1  0  0  0
  8  9  1  0  0  0  0
  9  4  2  0  0  0  0
 10  3  1  0  0  0  0
 12 15  1  0  0  0  0
 13 11  1  0  0  0  0
 13 14  1  0  0  0  0
 15 14  2  0  0  0  0
 16 17  1  0  0  0  0
 16 12  2  0  0  0  0
 17 13  2  0  0  0  0
 19 26  1  0  0  0  0
 19 22  1  0  0  0  0
 21 25  1  0  0  0  0
 23 19  1  0  0  0  0
 24 21  1  0  0  0  0
 24 20  1  1  0  0  0
 26 25  1  0  0  0  0
 27 18  1  6  0  0  0
 27 24  1  0  0  0  0
 27 19  1  0  0  0  0
M  END
>  <MODEL>
1

>  <REMARK>
 VINA RESULT:      -6.0      0.000      0.000
  Name = 
  4 active torsions:
  status: ('A' for Active; 'I' for Inactive)
    1  A    between atoms: O_2  and  C_6
    2  A    between atoms: O_2  and  C_9
    3  A    between atoms: C_3  and  C_14
    4  A    between atoms: C_3  and  C_26
                            x       y       z     vdW  Elec       q    Type
                         _______ _______ _______ _____ _____    ______ ____

>  <TORSDO>
F 4

$$$$
=
 OpenBabel11052423093D

 27 30  0  0  1  0  0  0  0  0999 V2000
  160.6790  206.7550  155.0060 N   0  0  0  0  0  2  0  0  0  0  0  0
  159.7100  206.9840  157.1430 N   0  0  0  0  0  2  0  0  0  0  0  0
  161.5830  208.7480  151.9540 C   0  0  1  0  0  3  0  0  0  0  0  0
  161.6410  210.0350  154.1330 C   0  0  0  0  0  3  0  0  0  0  0  0
  161.6370  208.7720  156.5700 S   0  0  0  0  0  0  0  0  0  0  0  0
  161.4130  210.1230  152.6430 C   0  0  2  0  0  3  0  0  0  0  0  0
  160.6610  207.2920  156.3260 C   0  0  0  0  0  0  0  0  0  0  0  0
  161.5070  207.5340  154.1080 C   0  0  2  0  0  3  0  0  0  0  0  0
  161.6770  208.8630  154.7870 C   0  0  0  0  0  0  0  0  0  0  0  0
  160.8490  207.6650  152.7390 C   0  0  0  0  0  2  0  0  0  0  0  0
  161.1360  208.7630  150.6000 O   0  0  0  0  0  0  0  0  0  0  0  0
  161.6870  205.5430  147.9590 C   0  0  0  0  0  3  0  0  0  0  0  0
  161.2980  207.6820  149.7280 C   0  0  0  0  0  0  0  0  0  0  0  0
  160.6420  206.4580  149.9400 C   0  0  0  0  0  3  0  0  0  0  0  0
  160.8370  205.3920  149.0580 C   0  0  0  0  0  3  0  0  0  0  0  0
  162.3410  206.7590  147.7420 C   0  0  0  0  0  3  0  0  0  0  0  0
  162.1450  207.8250  148.6240 C   0  0  0  0  0  3  0  0  0  0  0  0
  160.0290  210.7220  152.4070 C   0  0  0  0  0  2  0  0  0  0  0  0
  159.4590  213.1500  151.8770 C   0  0  0  0  0  0  0  0  0  0  0  0
  159.4100  213.3870  155.0920 C   0  0  0  0  0  1  0  0  0  0  0  0
  157.5840  212.1000  153.9250 C   0  0  0  0  0  2  0  0  0  0  0  0
  159.7250  214.4530  152.3020 O   0  0  0  0  0  1  0  0  0  0  0  0
  160.1470  212.9290  150.6810 O   0  0  0  0  0  1  0  0  0  0  0  0
  159.0830  212.1800  154.2290 C   0  0  1  0  0  3  0  0  0  0  0  0
  157.1600  213.1570  152.9090 C   0  0  0  0  0  2  0  0  0  0  0  0
  157.9580  212.9960  151.6190 C   0  0  0  0  0  2  0  0  0  0  0  0
  159.9400  212.1490  152.9510 C   0  0  1  0  0  3  0  0  0  0  0  0
  1  7  1  0  0  0  0
  3 11  1  6  0  0  0
  3  6  1  0  0  0  0
  3 10  1  0  0  0  0
  4  9  2  0  0  0  0
  6 18  1  1  0  0  0
  6  4  1  0  0  0  0
  7  5  1  0  0  0  0
  7  2  2  0  0  0  0
  8 10  1  6  0  0  0
  8  9  1  0  0  0  0
  8  1  1  0  0  0  0
  9  5  1  0  0  0  0
 12 15  1  0  0  0  0
 13 14  1  0  0  0  0
 13 11  1  0  0  0  0
 15 14  2  0  0  0  0
 16 12  2  0  0  0  0
 16 17  1  0  0  0  0
 17 13  2  0  0  0  0
 19 22  1  0  0  0  0
 19 27  1  0  0  0  0
 21 24  1  0  0  0  0
 23 19  1  0  0  0  0
 24 20  1  6  0  0  0
 25 21  1  0  0  0  0
 26 19  1  0  0  0  0
 26 25  1  0  0  0  0
 27 18  1  6  0  0  0
 27 24  1  0  0  0  0
M  END
>  <MODEL>
2

>  <REMARK>
 VINA RESULT:      -5.6      3.857      5.331
  Name = 
  4 active torsions:
  status: ('A' for Active; 'I' for Inactive)
    1  A    between atoms: O_2  and  C_6
    2  A    between atoms: O_2  and  C_9
    3  A    between atoms: C_3  and  C_14
    4  A    between atoms: C_3  and  C_26
                            x       y       z     vdW  Elec       q    Type
                         _______ _______ _______ _____ _____    ______ ____

>  <TORSDO>
F 4

$$$$
=
 OpenBabel11052423093D

 27 30  0  0  1  0  0  0  0  0999 V2000
  160.4560  208.4910  152.9900 N   0  0  0  0  0  2  0  0  0  0  0  0
  159.6650  210.0150  154.6050 N   0  0  0  0  0  2  0  0  0  0  0  0
  162.0110  208.3650  149.5730 C   0  0  1  0  0  3  0  0  0  0  0  0
  162.5700  210.4260  150.9330 C   0  0  0  0  0  3  0  0  0  0  0  0
  162.1170  210.5540  153.6370 S   0  0  0  0  0  0  0  0  0  0  0  0
  162.3770  209.8680  149.5430 C   0  0  2  0  0  3  0  0  0  0  0  0
  160.6540  209.5610  153.9110 C   0  0  0  0  0  0  0  0  0  0  0  0
  161.5070  208.4230  151.9950 C   0  0  2  0  0  3  0  0  0  0  0  0
  162.1700  209.7700  152.0330 C   0  0  0  0  0  0  0  0  0  0  0  0
  160.9320  208.1010  150.6200 C   0  0  0  0  0  2  0  0  0  0  0  0
  161.5890  207.8860  148.2990 O   0  0  0  0  0  0  0  0  0  0  0  0
  161.8710  203.8600  147.1320 C   0  0  0  0  0  3  0  0  0  0  0  0
  161.6630  206.5400  147.9240 C   0  0  0  0  0  0  0  0  0  0  0  0
  161.1010  205.5230  148.7120 C   0  0  0  0  0  3  0  0  0  0  0  0
  161.2060  204.1860  148.3160 C   0  0  0  0  0  3  0  0  0  0  0  0
  162.4310  204.8690  146.3420 C   0  0  0  0  0  3  0  0  0  0  0  0
  162.3260  206.2050  146.7380 C   0  0  0  0  0  3  0  0  0  0  0  0
  161.3160  210.7080  148.8350 C   0  0  0  0  0  2  0  0  0  0  0  0
  162.3930  212.7930  147.8400 C   0  0  0  0  0  0  0  0  0  0  0  0
  160.4940  214.2710  149.9860 C   0  0  0  0  0  1  0  0  0  0  0  0
  159.4490  213.1510  147.9840 C   0  0  0  0  0  2  0  0  0  0  0  0
  162.9010  214.0420  148.2040 O   0  0  0  0  0  1  0  0  0  0  0  0
  163.4670  211.9530  147.5370 O   0  0  0  0  0  1  0  0  0  0  0  0
  160.2600  212.9520  149.2680 C   0  0  1  0  0  3  0  0  0  0  0  0
  160.2880  213.7980  146.8850 C   0  0  0  0  0  2  0  0  0  0  0  0
  161.5180  212.9460  146.5920 C   0  0  0  0  0  2  0  0  0  0  0  0
  161.5810  212.2030  149.0140 C   0  0  1  0  0  3  0  0  0  0  0  0
  1  7  1  0  0  0  0
  3 11  1  6  0  0  0
  3 10  1  0  0  0  0
  4  9  2  0  0  0  0
  5  7  1  0  0  0  0
  6 18  1  1  0  0  0
  6  3  1  0  0  0  0
  6  4  1  0  0  0  0
  7  2  2  0  0  0  0
  8 10  1  6  0  0  0
  8  9  1  0  0  0  0
  8  1  1  0  0  0  0
  9  5  1  0  0  0  0
 12 15  1  0  0  0  0
 13 11  1  0  0  0  0
 13 14  1  0  0  0  0
 15 14  2  0  0  0  0
 16 17  1  0  0  0  0
 16 12  2  0  0  0  0
 17 13  2  0  0  0  0
 19 22  1  0  0  0  0
 19 27  1  0  0  0  0
 21 24  1  0  0  0  0
 23 19  1  0  0  0  0
 24 20  1  6  0  0  0
 25 21  1  0  0  0  0
 26 25  1  0  0  0  0
 26 19  1  0  0  0  0
 27 18  1  6  0  0  0
 27 24  1  0  0  0  0
M  END
>  <MODEL>
3

>  <REMARK>
 VINA RESULT:      -5.5      3.724      6.177
  Name = 
  4 active torsions:
  status: ('A' for Active; 'I' for Inactive)
    1  A    between atoms: O_2  and  C_6
    2  A    between atoms: O_2  and  C_9
    3  A    between atoms: C_3  and  C_14
    4  A    between atoms: C_3  and  C_26
                            x       y       z     vdW  Elec       q    Type
                         _______ _______ _______ _____ _____    ______ ____

>  <TORSDO>
F 4

$$$$
=
 OpenBabel11052423093D

 27 30  0  0  1  0  0  0  0  0999 V2000
  161.4210  206.8360  149.3390 N   0  0  0  0  0  2  0  0  0  0  0  0
  160.4410  204.7980  150.0050 N   0  0  0  0  0  2  0  0  0  0  0  0
  162.0880  210.3220  150.5680 C   0  0  1  0  0  3  0  0  0  0  0  0
  162.0140  208.5450  152.3690 C   0  0  0  0  0  3  0  0  0  0  0  0
  162.1580  205.8680  151.7790 S   0  0  0  0  0  0  0  0  0  0  0  0
  161.7720  210.0000  152.0480 C   0  0  2  0  0  3  0  0  0  0  0  0
  161.3490  205.6960  150.1920 C   0  0  0  0  0  0  0  0  0  0  0  0
  162.1550  207.9290  149.9450 C   0  0  2  0  0  3  0  0  0  0  0  0
  162.1810  207.6160  151.4140 C   0  0  0  0  0  0  0  0  0  0  0  0
  161.4810  209.2640  149.6510 C   0  0  0  0  0  2  0  0  0  0  0  0
  161.6370  211.6200  150.1890 O   0  0  0  0  0  0  0  0  0  0  0  0
  161.9080  213.1570  146.2880 C   0  0  0  0  0  3  0  0  0  0  0  0
  161.7470  212.1200  148.8870 C   0  0  0  0  0  0  0  0  0  0  0  0
  162.9840  212.1830  148.2240 C   0  0  0  0  0  3  0  0  0  0  0  0
  163.0630  212.7020  146.9290 C   0  0  0  0  0  3  0  0  0  0  0  0
  160.6740  213.0940  146.9420 C   0  0  0  0  0  3  0  0  0  0  0  0
  160.5950  212.5760  148.2370 C   0  0  0  0  0  3  0  0  0  0  0  0
  160.3290  210.3360  152.4170 C   0  0  0  0  0  2  0  0  0  0  0  0
  158.9990  212.2820  153.3900 C   0  0  0  0  0  0  0  0  0  0  0  0
  160.9370  211.7780  155.9170 C   0  0  0  0  0  1  0  0  0  0  0  0
  159.1570  210.0780  155.3730 C   0  0  0  0  0  2  0  0  0  0  0  0
  159.1550  213.4370  154.1590 O   0  0  0  0  0  1  0  0  0  0  0  0
  158.8040  212.6620  152.0610 O   0  0  0  0  0  1  0  0  0  0  0  0
  160.4360  210.7710  154.8950 C   0  0  1  0  0  3  0  0  0  0  0  0
  157.9520  211.0120  155.2990 C   0  0  0  0  0  2  0  0  0  0  0  0
  157.7640  211.5160  153.8710 C   0  0  0  0  0  2  0  0  0  0  0  0
  160.2690  211.4100  153.5050 C   0  0  1  0  0  3  0  0  0  0  0  0
  1  8  1  0  0  0  0
  1  7  1  0  0  0  0
  2  7  2  0  0  0  0
  3 11  1  6  0  0  0
  3  6  1  0  0  0  0
  6  4  1  0  0  0  0
  6 18  1  6  0  0  0
  7  5  1  0  0  0  0
  8 10  1  1  0  0  0
  8  9  1  0  0  0  0
  9  5  1  0  0  0  0
  9  4  2  0  0  0  0
 10  3  1  0  0  0  0
 12 15  2  0  0  0  0
 12 16  1  0  0  0  0
 13 11  1  0  0  0  0
 14 13  2  0  0  0  0
 15 14  1  0  0  0  0
 16 17  2  0  0  0  0
 17 13  1  0  0  0  0
 19 27  1  0  0  0  0
 19 26  1  0  0  0  0
 19 22  1  0  0  0  0
 23 19  1  0  0  0  0
 24 21  1  0  0  0  0
 24 20  1  1  0  0  0
 25 21  1  0  0  0  0
 26 25  1  0  0  0  0
 27 18  1  6  0  0  0
 27 24  1  0  0  0  0
M  END
>  <MODEL>
4

>  <REMARK>
 VINA RESULT:      -5.5      3.246      5.761
  Name = 
  4 active torsions:
  status: ('A' for Active; 'I' for Inactive)
    1  A    between atoms: O_2  and  C_6
    2  A    between atoms: O_2  and  C_9
    3  A    between atoms: C_3  and  C_14
    4  A    between atoms: C_3  and  C_26
                            x       y       z     vdW  Elec       q    Type
                         _______ _______ _______ _____ _____    ______ ____

>  <TORSDO>
F 4

$$$$
=
 OpenBabel11052423093D

 27 30  0  0  1  0  0  0  0  0999 V2000
  162.3190  204.6260  151.8600 N   0  0  0  0  0  2  0  0  0  0  0  0
  162.2230  202.2810  151.6360 N   0  0  0  0  0  2  0  0  0  0  0  0
  161.5800  207.7950  149.9850 C   0  0  1  0  0  3  0  0  0  0  0  0
  160.1050  205.8260  149.3890 C   0  0  0  0  0  3  0  0  0  0  0  0
  159.9650  203.5820  150.9640 S   0  0  0  0  0  0  0  0  0  0  0  0
  160.7370  207.1030  148.8870 C   0  0  2  0  0  3  0  0  0  0  0  0
  161.5980  203.4100  151.6760 C   0  0  0  0  0  0  0  0  0  0  0  0
  161.5640  205.7830  151.4240 C   0  0  2  0  0  3  0  0  0  0  0  0
  160.4880  205.2350  150.5320 C   0  0  0  0  0  0  0  0  0  0  0  0
  162.4640  206.7770  150.6990 C   0  0  0  0  0  2  0  0  0  0  0  0
  162.3740  208.8590  149.4650 O   0  0  0  0  0  0  0  0  0  0  0  0
  161.1070  212.8640  149.3790 C   0  0  0  0  0  3  0  0  0  0  0  0
  161.9560  210.1940  149.4600 C   0  0  0  0  0  0  0  0  0  0  0  0
  161.4810  210.8230  150.6230 C   0  0  0  0  0  3  0  0  0  0  0  0
  161.0570  212.1540  150.5810 C   0  0  0  0  0  3  0  0  0  0  0  0
  161.5810  212.2440  148.2190 C   0  0  0  0  0  3  0  0  0  0  0  0
  162.0040  210.9130  148.2610 C   0  0  0  0  0  3  0  0  0  0  0  0
  161.5640  206.7710  147.6470 C   0  0  0  0  0  2  0  0  0  0  0  0
  160.9830  205.4620  145.5380 C   0  0  0  0  0  0  0  0  0  0  0  0
  161.5810  202.9420  147.4580 C   0  0  0  0  0  1  0  0  0  0  0  0
  163.4950  204.4070  146.7180 C   0  0  0  0  0  2  0  0  0  0  0  0
  160.3050  204.3170  145.1130 O   0  0  0  0  0  1  0  0  0  0  0  0
  160.2180  206.5780  145.1950 O   0  0  0  0  0  1  0  0  0  0  0  0
  162.1870  204.3350  147.5120 C   0  0  1  0  0  3  0  0  0  0  0  0
  163.2400  204.3880  145.2140 C   0  0  0  0  0  2  0  0  0  0  0  0
  162.3320  205.5480  144.8190 C   0  0  0  0  0  2  0  0  0  0  0  0
  161.1760  205.4080  147.0700 C   0  0  1  0  0  3  0  0  0  0  0  0
  2  7  2  0  0  0  0
  3 11  1  6  0  0  0
  3 10  1  0  0  0  0
  4  9  2  0  0  0  0
  5  7  1  0  0  0  0
  6 18  1  6  0  0  0
  6  4  1  0  0  0  0
  6  3  1  0  0  0  0
  7  1  1  0  0  0  0
  8 10  1  6  0  0  0
  8  1  1  0  0  0  0
  9  5  1  0  0  0  0
  9  8  1  0  0  0  0
 12 15  1  0  0  0  0
 13 11  1  0  0  0  0
 13 14  1  0  0  0  0
 15 14  2  0  0  0  0
 16 17  1  0  0  0  0
 16 12  2  0  0  0  0
 17 13  2  0  0  0  0
 19 27  1  0  0  0  0
 21 24  1  0  0  0  0
 22 19  1  0  0  0  0
 23 19  1  0  0  0  0
 24 20  1  6  0  0  0
 25 21  1  0  0  0  0
 26 25  1  0  0  0  0
 26 19  1  0  0  0  0
 27 24  1  0  0  0  0
 27 18  1  6  0  0  0
M  END
>  <MODEL>
5

>  <REMARK>
 VINA RESULT:      -5.2      4.778      8.831
  Name = 
  4 active torsions:
  status: ('A' for Active; 'I' for Inactive)
    1  A    between atoms: O_2  and  C_6
    2  A    between atoms: O_2  and  C_9
    3  A    between atoms: C_3  and  C_14
    4  A    between atoms: C_3  and  C_26
                            x       y       z     vdW  Elec       q    Type
                         _______ _______ _______ _____ _____    ______ ____

>  <TORSDO>
F 4

$$$$
=
 OpenBabel11052423093D

 27 30  0  0  1  0  0  0  0  0999 V2000
  162.7380  210.7070  148.8160 N   0  0  0  0  0  2  0  0  0  0  0  0
  163.4800  212.9220  148.5000 N   0  0  0  0  0  2  0  0  0  0  0  0
  161.1160  208.4810  151.3690 C   0  0  1  0  0  3  0  0  0  0  0  0
  160.4740  210.9260  151.5130 C   0  0  0  0  0  3  0  0  0  0  0  0
  160.9810  212.6860  149.4690 S   0  0  0  0  0  0  0  0  0  0  0  0
  160.6660  209.6430  152.2870 C   0  0  2  0  0  3  0  0  0  0  0  0
  162.5020  212.1100  148.7240 C   0  0  0  0  0  0  0  0  0  0  0  0
  161.6710  210.0160  149.5100 C   0  0  2  0  0  3  0  0  0  0  0  0
  160.9350  211.0870  150.2620 C   0  0  0  0  0  0  0  0  0  0  0  0
  162.2310  208.9410  150.4350 C   0  0  0  0  0  2  0  0  0  0  0  0
  161.5350  207.3380  152.1110 O   0  0  0  0  0  0  0  0  0  0  0  0
  160.7810  203.4090  150.8280 C   0  0  0  0  0  3  0  0  0  0  0  0
  161.2760  206.0250  151.7060 C   0  0  0  0  0  0  0  0  0  0  0  0
  161.2190  204.9660  152.6280 C   0  0  0  0  0  3  0  0  0  0  0  0
  160.9720  203.6630  152.1880 C   0  0  0  0  0  3  0  0  0  0  0  0
  160.8350  204.4600  149.9060 C   0  0  0  0  0  3  0  0  0  0  0  0
  161.0810  205.7630  150.3460 C   0  0  0  0  0  3  0  0  0  0  0  0
  161.6630  209.9100  153.4120 C   0  0  0  0  0  2  0  0  0  0  0  0
  160.6910  208.9360  155.5580 C   0  0  0  0  0  0  0  0  0  0  0  0
  160.8000  212.0200  156.4950 C   0  0  0  0  0  1  0  0  0  0  0  0
  162.9550  210.7430  156.2080 C   0  0  0  0  0  2  0  0  0  0  0  0
  159.7490  209.2070  156.5530 O   0  0  0  0  0  1  0  0  0  0  0  0
  160.1820  207.9300  154.7340 O   0  0  0  0  0  1  0  0  0  0  0  0
  161.7080  211.2980  155.5130 C   0  0  1  0  0  3  0  0  0  0  0  0
  162.6240  209.5240  157.0640 C   0  0  0  0  0  2  0  0  0  0  0  0
  161.9840  208.4370  156.2060 C   0  0  0  0  0  2  0  0  0  0  0  0
  160.9460  210.2140  154.7290 C   0  0  1  0  0  3  0  0  0  0  0  0
  1  8  1  0  0  0  0
  2  7  2  0  0  0  0
  3 11  1  1  0  0  0
  3  6  1  0  0  0  0
  4  6  1  0  0  0  0
  5  9  1  0  0  0  0
  6 18  1  1  0  0  0
  7  1  1  0  0  0  0
  7  5  1  0  0  0  0
  8  9  1  0  0  0  0
  8 10  1  1  0  0  0
  9  4  2  0  0  0  0
 10  3  1  0  0  0  0
 12 15  1  0  0  0  0
 13 11  1  0  0  0  0
 13 14  1  0  0  0  0
 15 14  2  0  0  0  0
 16 17  1  0  0  0  0
 16 12  2  0  0  0  0
 17 13  2  0  0  0  0
 19 26  1  0  0  0  0
 19 22  1  0  0  0  0
 21 25  1  0  0  0  0
 23 19  1  0  0  0  0
 24 21  1  0  0  0  0
 24 20  1  1  0  0  0
 26 25  1  0  0  0  0
 27 18  1  6  0  0  0
 27 24  1  0  0  0  0
 27 19  1  0  0  0  0
M  END
>  <MODEL>
6

>  <REMARK>
 VINA RESULT:      -4.7      1.462      2.065
  Name = 
  4 active torsions:
  status: ('A' for Active; 'I' for Inactive)
    1  A    between atoms: O_2  and  C_6
    2  A    between atoms: O_2  and  C_9
    3  A    between atoms: C_3  and  C_14
    4  A    between atoms: C_3  and  C_26
                            x       y       z     vdW  Elec       q    Type
                         _______ _______ _______ _____ _____    ______ ____

>  <TORSDO>
F 4

$$$$
=
 OpenBabel11052423093D

 27 30  0  0  1  0  0  0  0  0999 V2000
  161.3540  210.0460  150.4830 N   0  0  0  0  0  2  0  0  0  0  0  0
  161.3740  212.0160  149.1890 N   0  0  0  0  0  2  0  0  0  0  0  0
  161.3230  206.3050  150.1500 C   0  0  1  0  0  3  0  0  0  0  0  0
  162.4800  207.5410  148.2680 C   0  0  0  0  0  3  0  0  0  0  0  0
  163.2100  210.1770  148.4910 S   0  0  0  0  0  0  0  0  0  0  0  0
  161.6990  206.3060  148.6490 C   0  0  2  0  0  3  0  0  0  0  0  0
  161.9610  210.9200  149.5360 C   0  0  0  0  0  0  0  0  0  0  0  0
  161.8860  208.7000  150.4070 C   0  0  2  0  0  3  0  0  0  0  0  0
  162.5550  208.6190  149.0650 C   0  0  0  0  0  0  0  0  0  0  0  0
  160.7750  207.6680  150.5620 C   0  0  0  0  0  2  0  0  0  0  0  0
  160.3860  205.2790  150.4710 O   0  0  0  0  0  0  0  0  0  0  0  0
  161.4850  201.2580  150.9930 C   0  0  0  0  0  3  0  0  0  0  0  0
  160.7440  203.9360  150.6230 C   0  0  0  0  0  0  0  0  0  0  0  0
  160.1310  202.9190  149.8710 C   0  0  0  0  0  3  0  0  0  0  0  0
  160.5010  201.5850  150.0580 C   0  0  0  0  0  3  0  0  0  0  0  0
  162.1010  202.2650  151.7420 C   0  0  0  0  0  3  0  0  0  0  0  0
  161.7310  203.6000  151.5560 C   0  0  0  0  0  3  0  0  0  0  0  0
  160.4720  206.2200  147.7440 C   0  0  0  0  0  2  0  0  0  0  0  0
  160.8100  205.4500  145.3370 C   0  0  0  0  0  0  0  0  0  0  0  0
  161.3450  202.6150  146.7760 C   0  0  0  0  0  1  0  0  0  0  0  0
  163.0390  204.4640  147.0320 C   0  0  0  0  0  2  0  0  0  0  0  0
  160.5390  204.3790  144.4830 O   0  0  0  0  0  1  0  0  0  0  0  0
  159.9590  206.5060  145.0030 O   0  0  0  0  0  1  0  0  0  0  0  0
  161.6040  204.0110  147.3160 C   0  0  1  0  0  3  0  0  0  0  0  0
  163.2380  204.8100  145.5590 C   0  0  0  0  0  2  0  0  0  0  0  0
  162.2590  205.9020  145.1390 C   0  0  0  0  0  2  0  0  0  0  0  0
  160.5610  205.0200  146.8000 C   0  0  1  0  0  3  0  0  0  0  0  0
  2  7  2  0  0  0  0
  3 11  1  6  0  0  0
  3 10  1  0  0  0  0
  4  6  1  0  0  0  0
  4  9  2  0  0  0  0
  5  9  1  0  0  0  0
  5  7  1  0  0  0  0
  6 18  1  6  0  0  0
  6  3  1  0  0  0  0
  7  1  1  0  0  0  0
  8  1  1  0  0  0  0
  8 10  1  6  0  0  0
  9  8  1  0  0  0  0
 11 13  1  0  0  0  0
 12 16  1  0  0  0  0
 13 17  1  0  0  0  0
 14 15  1  0  0  0  0
 14 13  2  0  0  0  0
 15 12  2  0  0  0  0
 17 16  2  0  0  0  0
 19 27  1  0  0  0  0
 21 24  1  0  0  0  0
 22 19  1  0  0  0  0
 23 19  1  0  0  0  0
 24 20  1  6  0  0  0
 25 21  1  0  0  0  0
 26 19  1  0  0  0  0
 26 25  1  0  0  0  0
 27 24  1  0  0  0  0
 27 18  1  1  0  0  0
M  END
>  <MODEL>
7

>  <REMARK>
 VINA RESULT:      -4.3      4.206      7.510
  Name = 
  4 active torsions:
  status: ('A' for Active; 'I' for Inactive)
    1  A    between atoms: O_2  and  C_6
    2  A    between atoms: O_2  and  C_9
    3  A    between atoms: C_3  and  C_14
    4  A    between atoms: C_3  and  C_26
                            x       y       z     vdW  Elec       q    Type
                         _______ _______ _______ _____ _____    ______ ____

>  <TORSDO>
F 4

$$$$
=
 OpenBabel11052423093D

 27 30  0  0  1  0  0  0  0  0999 V2000
  162.2420  212.1340  149.1830 N   0  0  0  0  0  2  0  0  0  0  0  0
  162.4700  214.4530  148.8270 N   0  0  0  0  0  2  0  0  0  0  0  0
  160.8720  209.6540  151.6490 C   0  0  1  0  0  3  0  0  0  0  0  0
  159.6530  211.8710  151.5660 C   0  0  0  0  0  3  0  0  0  0  0  0
  159.9930  213.6420  149.4960 S   0  0  0  0  0  0  0  0  0  0  0  0
  160.0410  210.6980  152.4330 C   0  0  2  0  0  3  0  0  0  0  0  0
  161.6930  213.4330  148.9780 C   0  0  0  0  0  0  0  0  0  0  0  0
  161.2870  211.2230  149.7820 C   0  0  2  0  0  3  0  0  0  0  0  0
  160.2240  212.1040  150.3730 C   0  0  0  0  0  0  0  0  0  0  0  0
  161.9600  210.3450  150.8320 C   0  0  0  0  0  2  0  0  0  0  0  0
  161.4490  208.6710  152.5050 O   0  0  0  0  0  0  0  0  0  0  0  0
  161.1240  204.5320  151.8560 C   0  0  0  0  0  3  0  0  0  0  0  0
  161.3500  207.2960  152.2670 C   0  0  0  0  0  0  0  0  0  0  0  0
  161.2430  206.7780  150.9650 C   0  0  0  0  0  3  0  0  0  0  0  0
  161.1300  205.4000  150.7620 C   0  0  0  0  0  3  0  0  0  0  0  0
  161.2320  205.0410  153.1540 C   0  0  0  0  0  3  0  0  0  0  0  0
  161.3450  206.4190  153.3570 C   0  0  0  0  0  3  0  0  0  0  0  0
  160.7860  211.2330  153.6530 C   0  0  0  0  0  2  0  0  0  0  0  0
  161.0270  210.4520  156.0690 C   0  0  0  0  0  0  0  0  0  0  0  0
  158.0070  211.5610  156.2730 C   0  0  0  0  0  1  0  0  0  0  0  0
  159.9040  213.1990  156.0060 C   0  0  0  0  0  2  0  0  0  0  0  0
  160.3140  209.8210  157.0900 O   0  0  0  0  0  1  0  0  0  0  0  0
  161.9610  209.5460  155.5610 O   0  0  0  0  0  1  0  0  0  0  0  0
  159.1300  212.0410  155.3690 C   0  0  1  0  0  3  0  0  0  0  0  0
  160.7960  212.7180  157.1470 C   0  0  0  0  0  2  0  0  0  0  0  0
  161.7720  211.6610  156.6410 C   0  0  0  0  0  2  0  0  0  0  0  0
  160.0530  210.8830  154.9490 C   0  0  1  0  0  3  0  0  0  0  0  0
  1  8  1  0  0  0  0
  2  7  2  0  0  0  0
  3  6  1  0  0  0  0
  3 11  1  1  0  0  0
  4  6  1  0  0  0  0
  5  9  1  0  0  0  0
  6 18  1  1  0  0  0
  7  1  1  0  0  0  0
  7  5  1  0  0  0  0
  8  9  1  0  0  0  0
  8 10  1  1  0  0  0
  9  4  2  0  0  0  0
 10  3  1  0  0  0  0
 12 16  1  0  0  0  0
 13 11  1  0  0  0  0
 13 17  1  0  0  0  0
 14 13  2  0  0  0  0
 15 14  1  0  0  0  0
 15 12  2  0  0  0  0
 16 17  2  0  0  0  0
 19 26  1  0  0  0  0
 19 22  1  0  0  0  0
 21 25  1  0  0  0  0
 23 19  1  0  0  0  0
 24 21  1  0  0  0  0
 24 20  1  1  0  0  0
 26 25  1  0  0  0  0
 27 18  1  6  0  0  0
 27 24  1  0  0  0  0
 27 19  1  0  0  0  0
M  END
>  <MODEL>
8

>  <REMARK>
 VINA RESULT:      -4.3      1.092      1.780
  Name = 
  4 active torsions:
  status: ('A' for Active; 'I' for Inactive)
    1  A    between atoms: O_2  and  C_6
    2  A    between atoms: O_2  and  C_9
    3  A    between atoms: C_3  and  C_14
    4  A    between atoms: C_3  and  C_26
                            x       y       z     vdW  Elec       q    Type
                         _______ _______ _______ _____ _____    ______ ____

>  <TORSDO>
F 4

$$$$
=
 OpenBabel11052423093D

 27 30  0  0  1  0  0  0  0  0999 V2000
  161.8780  202.0600  151.1210 N   0  0  0  0  0  2  0  0  0  0  0  0
  161.6370  200.1500  149.7620 N   0  0  0  0  0  2  0  0  0  0  0  0
  161.4040  205.7860  151.0740 C   0  0  1  0  0  3  0  0  0  0  0  0
  159.8250  204.4830  149.5840 C   0  0  0  0  0  3  0  0  0  0  0  0
  159.4910  201.7700  149.8360 S   0  0  0  0  0  0  0  0  0  0  0  0
  160.5530  205.7910  149.7820 C   0  0  2  0  0  3  0  0  0  0  0  0
  161.0860  201.1510  150.3600 C   0  0  0  0  0  0  0  0  0  0  0  0
  161.2130  203.3310  151.3220 C   0  0  2  0  0  3  0  0  0  0  0  0
  160.1320  203.3770  150.2800 C   0  0  0  0  0  0  0  0  0  0  0  0
  162.1970  204.4870  151.1840 C   0  0  0  0  0  2  0  0  0  0  0  0
  162.2810  206.9070  151.1490 O   0  0  0  0  0  0  0  0  0  0  0  0
  161.0110  210.7150  152.3890 C   0  0  0  0  0  3  0  0  0  0  0  0
  161.8610  208.1830  151.5390 C   0  0  0  0  0  0  0  0  0  0  0  0
  162.2210  209.3320  150.8150 C   0  0  0  0  0  3  0  0  0  0  0  0
  161.7970  210.5930  151.2410 C   0  0  0  0  0  3  0  0  0  0  0  0
  160.6470  209.5750  153.1120 C   0  0  0  0  0  3  0  0  0  0  0  0
  161.0710  208.3130  152.6870 C   0  0  0  0  0  3  0  0  0  0  0  0
  161.3950  206.0600  148.5370 C   0  0  0  0  0  2  0  0  0  0  0  0
  160.9770  205.8180  146.0330 C   0  0  0  0  0  0  0  0  0  0  0  0
  161.3420  202.6880  146.7140 C   0  0  0  0  0  1  0  0  0  0  0  0
  163.3470  204.2120  146.8180 C   0  0  0  0  0  2  0  0  0  0  0  0
  160.3140  205.0090  145.1090 O   0  0  0  0  0  1  0  0  0  0  0  0
  160.2710  207.0170  146.1530 O   0  0  0  0  0  1  0  0  0  0  0  0
  161.9720  203.8850  147.4070 C   0  0  1  0  0  3  0  0  0  0  0  0
  163.2290  204.8550  145.4390 C   0  0  0  0  0  2  0  0  0  0  0  0
  162.3870  206.1240  145.5210 C   0  0  0  0  0  2  0  0  0  0  0  0
  161.0300  205.1030  147.4010 C   0  0  1  0  0  3  0  0  0  0  0  0
  1  8  1  0  0  0  0
  2  7  2  0  0  0  0
  3 11  1  6  0  0  0
  3 10  1  0  0  0  0
  4  6  1  0  0  0  0
  4  9  2  0  0  0  0
  5  9  1  0  0  0  0
  5  7  1  0  0  0  0
  6 18  1  6  0  0  0
  6  3  1  0  0  0  0
  7  1  1  0  0  0  0
  8 10  1  6  0  0  0
  9  8  1  0  0  0  0
 11 13  1  0  0  0  0
 12 16  1  0  0  0  0
 13 17  1  0  0  0  0
 14 15  1  0  0  0  0
 14 13  2  0  0  0  0
 15 12  2  0  0  0  0
 17 16  2  0  0  0  0
 19 23  1  0  0  0  0
 19 27  1  0  0  0  0
 21 24  1  0  0  0  0
 22 19  1  0  0  0  0
 24 20  1  6  0  0  0
 25 26  1  0  0  0  0
 25 21  1  0  0  0  0
 26 19  1  0  0  0  0
 27 24  1  0  0  0  0
 27 18  1  1  0  0  0
M  END
>  <MODEL>
9

>  <REMARK>
 VINA RESULT:      -4.1      4.919      9.015
  Name = 
  4 active torsions:
  status: ('A' for Active; 'I' for Inactive)
    1  A    between atoms: O_2  and  C_6
    2  A    between atoms: O_2  and  C_9
    3  A    between atoms: C_3  and  C_14
    4  A    between atoms: C_3  and  C_26
                            x       y       z     vdW  Elec       q    Type
                         _______ _______ _______ _____ _____    ______ ____

>  <TORSDO>
F 4

$$$$
