=
 OpenBabel11052422183D

 25 27  0  0  1  0  0  0  0  0999 V2000
  161.1940  208.2360  152.2370 C   0  0  0  0  0  0  0  0  0  0  0  0
  161.0880  207.0970  151.4250 C   0  0  0  0  0  0  0  0  0  0  0  0
  161.3360  206.8390  154.1900 C   0  0  0  0  0  3  0  0  0  0  0  0
  161.1090  209.6490  151.7610 C   0  0  1  0  0  3  0  0  0  0  0  0
  161.2340  205.7320  153.4010 N   0  0  0  0  0  0  0  0  0  0  0  0
  160.8650  210.5280  152.9950 C   0  0  2  0  0  3  0  0  0  0  0  0
  160.9950  204.6630  151.2540 C   0  0  0  0  0  0  0  0  0  0  0  0
  161.0080  203.3040  151.8670 C   0  0  0  0  0  1  0  0  0  0  0  0
  160.9480  207.1940  150.0360 C   0  0  0  0  0  3  0  0  0  0  0  0
  161.3200  208.1030  153.6020 C   0  0  0  0  0  0  0  0  0  0  0  0
  161.3760  209.6290  154.5120 S   0  0  0  0  0  0  0  0  0  0  0  0
  160.8600  204.7780  149.8660 C   0  0  0  0  0  3  0  0  0  0  0  0
  160.8410  206.0380  149.2570 C   0  0  0  0  0  0  0  0  0  0  0  0
  161.1110  205.8220  152.0430 C   0  0  0  0  0  0  0  0  0  0  0  0
  158.2710  211.1520  153.1620 C   0  0  0  0  0  3  0  0  0  0  0  0
  159.4410  210.8680  153.0840 C   0  0  0  0  0  0  0  0  0  0  0  0
  162.3460  210.4830  149.9100 O   0  0  0  0  0  0  0  0  0  0  0  0
  162.3680  210.0640  151.0590 C   0  0  0  0  0  3  0  0  0  0  0  0
  160.6850  206.1460  147.7810 C   0  0  0  0  0  2  0  0  0  0  0  0
  162.0460  206.1350  147.1070 C   0  0  0  0  0  2  0  0  0  0  0  0
  162.3050  204.7870  146.4560 C   0  0  2  0  0  3  0  0  0  0  0  0
  163.6490  204.6880  146.1050 O   0  0  0  0  0  1  0  0  0  0  0  0
  161.4550  204.6070  145.2420 C   0  0  0  0  0  0  0  0  0  0  0  0
  160.8430  203.5220  145.0630 O   0  0  0  0  0  1  0  0  0  0  0  0
  161.3400  205.6270  144.3060 O   0  0  0  0  0  0  0  0  0  0  0  0
  1 10  1  0  0  0  0
  2 14  1  0  0  0  0
  2  1  2  0  0  0  0
  4 18  1  1  0  0  0
  4  1  1  0  0  0  0
  4  6  1  0  0  0  0
  5  3  1  0  0  0  0
  6 16  1  1  0  0  0
  6 11  1  0  0  0  0
  7  8  1  0  0  0  0
  7 14  1  0  0  0  0
  9  2  1  0  0  0  0
 10  3  2  0  0  0  0
 10 11  1  0  0  0  0
 12  7  2  0  0  0  0
 13 12  1  0  0  0  0
 13  9  2  0  0  0  0
 14  5  2  0  0  0  0
 16 15  3  0  0  0  0
 17 18  2  0  0  0  0
 19 13  1  0  0  0  0
 20 19  1  0  0  0  0
 21 22  1  6  0  0  0
 21 20  1  0  0  0  0
 23 21  1  0  0  0  0
 24 23  1  0  0  0  0
 25 23  2  0  0  0  0
M  END
>  <MODEL>
1

>  <REMARK>
 VINA RESULT:      -8.5      0.000      0.000
  Name = 
  6 active torsions:
  status: ('A' for Active; 'I' for Inactive)
    1  A    between atoms: C_2  and  C_21
    2  A    between atoms: C_5  and  C_22
    3  A    between atoms: C_6  and  C_15
    4  A    between atoms: C_6  and  C_23
    5  A    between atoms: C_10  and  C_11
    6  A    between atoms: C_15  and  C_21
                            x       y       z     vdW  Elec       q    Type
                         _______ _______ _______ _____ _____    ______ ____

>  <TORSDO>
F 6

$$$$
=
 OpenBabel11052422183D

 25 27  0  0  1  0  0  0  0  0999 V2000
  161.2990  205.5540  148.5990 C   0  0  0  0  0  0  0  0  0  0  0  0
  161.3950  206.4850  149.6430 C   0  0  0  0  0  0  0  0  0  0  0  0
  160.9520  203.7890  150.1950 C   0  0  0  0  0  3  0  0  0  0  0  0
  161.4930  205.8550  147.1500 C   0  0  1  0  0  3  0  0  0  0  0  0
  161.0440  204.6950  151.2100 N   0  0  0  0  0  0  0  0  0  0  0  0
  161.7050  204.5150  146.4330 C   0  0  2  0  0  3  0  0  0  0  0  0
  161.3630  206.9330  152.0430 C   0  0  0  0  0  0  0  0  0  0  0  0
  161.2340  206.4860  153.4590 C   0  0  0  0  0  1  0  0  0  0  0  0
  161.6300  207.8430  149.3990 C   0  0  0  0  0  3  0  0  0  0  0  0
  161.0760  204.2230  148.8770 C   0  0  0  0  0  0  0  0  0  0  0  0
  161.0460  203.1460  147.4640 S   0  0  0  0  0  0  0  0  0  0  0  0
  161.5950  208.2880  151.7800 C   0  0  0  0  0  3  0  0  0  0  0  0
  161.7230  208.7440  150.4640 C   0  0  0  0  0  0  0  0  0  0  0  0
  161.2600  206.0230  150.9760 C   0  0  0  0  0  0  0  0  0  0  0  0
  164.3140  204.1240  146.0020 C   0  0  0  0  0  3  0  0  0  0  0  0
  163.1360  204.3040  146.1950 C   0  0  0  0  0  0  0  0  0  0  0  0
  159.9050  206.3420  145.4490 O   0  0  0  0  0  0  0  0  0  0  0  0
  160.3080  206.5770  146.5800 C   0  0  0  0  0  3  0  0  0  0  0  0
  161.9810  210.1850  150.2000 C   0  0  0  0  0  2  0  0  0  0  0  0
  162.0660  210.4390  148.7040 C   0  0  0  0  0  2  0  0  0  0  0  0
  161.6140  211.8520  148.3800 C   0  0  2  0  0  3  0  0  0  0  0  0
  160.7170  211.8220  147.3140 O   0  0  0  0  0  1  0  0  0  0  0  0
  162.7780  212.7190  148.0320 C   0  0  0  0  0  0  0  0  0  0  0  0
  163.8810  212.1940  147.7310 O   0  0  0  0  0  0  0  0  0  0  0  0
  162.6520  214.1030  148.0440 O   0  0  0  0  0  1  0  0  0  0  0  0
  1 10  2  0  0  0  0
  1  2  1  0  0  0  0
  2 14  1  0  0  0  0
  3  5  2  0  0  0  0
  4 18  1  6  0  0  0
  4  1  1  0  0  0  0
  6 16  1  1  0  0  0
  6  4  1  0  0  0  0
  6 11  1  0  0  0  0
  7  8  1  0  0  0  0
  9  2  2  0  0  0  0
  9 13  1  0  0  0  0
 10  3  1  0  0  0  0
 11 10  1  0  0  0  0
 12  7  1  0  0  0  0
 13 12  2  0  0  0  0
 14  5  1  0  0  0  0
 14  7  2  0  0  0  0
 15 16  3  0  0  0  0
 17 18  2  0  0  0  0
 19 13  1  0  0  0  0
 20 19  1  0  0  0  0
 21 22  1  6  0  0  0
 21 20  1  0  0  0  0
 23 25  1  0  0  0  0
 23 21  1  0  0  0  0
 24 23  2  0  0  0  0
M  END
>  <MODEL>
2

>  <REMARK>
 VINA RESULT:      -7.1      2.816      6.581
  Name = 
  6 active torsions:
  status: ('A' for Active; 'I' for Inactive)
    1  A    between atoms: C_2  and  C_21
    2  A    between atoms: C_5  and  C_22
    3  A    between atoms: C_6  and  C_15
    4  A    between atoms: C_6  and  C_23
    5  A    between atoms: C_10  and  C_11
    6  A    between atoms: C_15  and  C_21
                            x       y       z     vdW  Elec       q    Type
                         _______ _______ _______ _____ _____    ______ ____

>  <TORSDO>
F 6

$$$$
=
 OpenBabel11052422183D

 25 27  0  0  1  0  0  0  0  0999 V2000
  160.8730  209.0880  153.9290 C   0  0  0  0  0  0  0  0  0  0  0  0
  161.1590  208.2820  152.8190 C   0  0  0  0  0  0  0  0  0  0  0  0
  160.9460  211.0460  152.5350 C   0  0  0  0  0  3  0  0  0  0  0  0
  160.7370  208.6070  155.3370 C   0  0  1  0  0  3  0  0  0  0  0  0
  161.2230  210.2620  151.4550 N   0  0  0  0  0  0  0  0  0  0  0  0
  160.8370  209.8380  156.2470 C   0  0  2  0  0  3  0  0  0  0  0  0
  161.6330  208.1200  150.4290 C   0  0  0  0  0  0  0  0  0  0  0  0
  161.8310  208.7380  149.0870 C   0  0  0  0  0  1  0  0  0  0  0  0
  161.2850  206.8920  152.9310 C   0  0  0  0  0  3  0  0  0  0  0  0
  160.7650  210.4540  153.7830 C   0  0  0  0  0  0  0  0  0  0  0  0
  160.4680  211.3580  155.2840 S   0  0  0  0  0  0  0  0  0  0  0  0
  161.7520  206.7320  150.5590 C   0  0  0  0  0  3  0  0  0  0  0  0
  161.5750  206.1180  151.8030 C   0  0  0  0  0  0  0  0  0  0  0  0
  161.3340  208.9040  151.5580 C   0  0  0  0  0  0  0  0  0  0  0  0
  163.3040  210.0050  157.2610 C   0  0  0  0  0  3  0  0  0  0  0  0
  162.1890  209.9290  156.8060 C   0  0  0  0  0  0  0  0  0  0  0  0
  159.3530  206.9050  156.2520 O   0  0  0  0  0  0  0  0  0  0  0  0
  159.4300  207.9010  155.5460 C   0  0  0  0  0  3  0  0  0  0  0  0
  161.7160  204.6420  151.9290 C   0  0  0  0  0  2  0  0  0  0  0  0
  160.6040  203.9410  151.1690 C   0  0  0  0  0  2  0  0  0  0  0  0
  161.1570  203.2580  149.9310 C   0  0  2  0  0  3  0  0  0  0  0  0
  160.8090  203.9920  148.7980 O   0  0  0  0  0  1  0  0  0  0  0  0
  160.6320  201.8660  149.8070 C   0  0  0  0  0  0  0  0  0  0  0  0
  161.3020  200.9030  150.2640 O   0  0  0  0  0  1  0  0  0  0  0  0
  159.4130  201.6260  149.1860 O   0  0  0  0  0  0  0  0  0  0  0  0
  1  4  1  0  0  0  0
  2  9  1  0  0  0  0
  2  1  2  0  0  0  0
  3 10  2  0  0  0  0
  4 18  1  6  0  0  0
  4  6  1  0  0  0  0
  5 14  2  0  0  0  0
  5  3  1  0  0  0  0
  6 16  1  6  0  0  0
  7 12  2  0  0  0  0
  7 14  1  0  0  0  0
  8  7  1  0  0  0  0
 10  1  1  0  0  0  0
 10 11  1  0  0  0  0
 11  6  1  0  0  0  0
 12 13  1  0  0  0  0
 13 19  1  0  0  0  0
 13  9  2  0  0  0  0
 14  2  1  0  0  0  0
 16 15  3  0  0  0  0
 18 17  2  0  0  0  0
 20 19  1  0  0  0  0
 21 22  1  6  0  0  0
 21 20  1  0  0  0  0
 23 21  1  0  0  0  0
 23 24  1  0  0  0  0
 25 23  2  0  0  0  0
M  END
>  <MODEL>
3

>  <REMARK>
 VINA RESULT:      -7.1      3.098      4.525
  Name = 
  6 active torsions:
  status: ('A' for Active; 'I' for Inactive)
    1  A    between atoms: C_2  and  C_21
    2  A    between atoms: C_5  and  C_22
    3  A    between atoms: C_6  and  C_15
    4  A    between atoms: C_6  and  C_23
    5  A    between atoms: C_10  and  C_11
    6  A    between atoms: C_15  and  C_21
                            x       y       z     vdW  Elec       q    Type
                         _______ _______ _______ _____ _____    ______ ____

>  <TORSDO>
F 6

$$$$
=
 OpenBabel11052422183D

 25 27  0  0  1  0  0  0  0  0999 V2000
  161.2380  205.1740  148.6600 C   0  0  0  0  0  0  0  0  0  0  0  0
  161.3130  205.9660  149.8140 C   0  0  0  0  0  0  0  0  0  0  0  0
  160.9180  203.2140  150.0170 C   0  0  0  0  0  3  0  0  0  0  0  0
  161.4320  205.6610  147.2620 C   0  0  1  0  0  3  0  0  0  0  0  0
  160.9890  203.9850  151.1390 N   0  0  0  0  0  0  0  0  0  0  0  0
  161.6720  204.4270  146.3820 C   0  0  2  0  0  3  0  0  0  0  0  0
  161.2640  206.1050  152.2520 C   0  0  0  0  0  0  0  0  0  0  0  0
  161.1380  205.4790  153.5980 C   0  0  0  0  0  1  0  0  0  0  0  0
  161.5230  207.3480  149.7460 C   0  0  0  0  0  3  0  0  0  0  0  0
  161.0390  203.8150  148.7650 C   0  0  0  0  0  0  0  0  0  0  0  0
  161.0340  202.9260  147.2260 S   0  0  0  0  0  0  0  0  0  0  0  0
  161.4710  207.4870  152.1650 C   0  0  0  0  0  3  0  0  0  0  0  0
  161.5960  208.1080  150.9180 C   0  0  0  0  0  0  0  0  0  0  0  0
  161.1820  205.3360  151.0770 C   0  0  0  0  0  0  0  0  0  0  0  0
  164.2900  204.1440  145.9250 C   0  0  0  0  0  3  0  0  0  0  0  0
  163.1070  204.2730  146.1280 C   0  0  0  0  0  0  0  0  0  0  0  0
  159.8990  206.4060  145.6050 O   0  0  0  0  0  0  0  0  0  0  0  0
  160.2360  206.4270  146.7810 C   0  0  0  0  0  3  0  0  0  0  0  0
  161.8280  209.5760  150.8410 C   0  0  0  0  0  2  0  0  0  0  0  0
  161.9980  210.1550  152.2350 C   0  0  0  0  0  2  0  0  0  0  0  0
  160.6990  210.7810  152.7110 C   0  0  2  0  0  3  0  0  0  0  0  0
  160.3540  211.8370  151.8710 O   0  0  0  0  0  1  0  0  0  0  0  0
  160.8250  211.2750  154.1130 C   0  0  0  0  0  0  0  0  0  0  0  0
  160.0880  212.2130  154.5140 O   0  0  0  0  0  0  0  0  0  0  0  0
  161.7540  210.7100  154.9780 O   0  0  0  0  0  1  0  0  0  0  0  0
  1 10  2  0  0  0  0
  1  2  1  0  0  0  0
  2 14  1  0  0  0  0
  3  5  2  0  0  0  0
  4 18  1  6  0  0  0
  4  1  1  0  0  0  0
  6 16  1  1  0  0  0
  6 11  1  0  0  0  0
  6  4  1  0  0  0  0
  7  8  1  0  0  0  0
  9  2  2  0  0  0  0
  9 13  1  0  0  0  0
 10  3  1  0  0  0  0
 11 10  1  0  0  0  0
 12  7  1  0  0  0  0
 13 12  2  0  0  0  0
 14  5  1  0  0  0  0
 14  7  2  0  0  0  0
 15 16  3  0  0  0  0
 17 18  2  0  0  0  0
 19 13  1  0  0  0  0
 19 20  1  0  0  0  0
 20 21  1  0  0  0  0
 21 22  1  6  0  0  0
 21 23  1  0  0  0  0
 23 24  2  0  0  0  0
 23 25  1  0  0  0  0
M  END
>  <MODEL>
4

>  <REMARK>
 VINA RESULT:      -6.8      2.826      7.329
  Name = 
  6 active torsions:
  status: ('A' for Active; 'I' for Inactive)
    1  A    between atoms: C_2  and  C_21
    2  A    between atoms: C_5  and  C_22
    3  A    between atoms: C_6  and  C_15
    4  A    between atoms: C_6  and  C_23
    5  A    between atoms: C_10  and  C_11
    6  A    between atoms: C_15  and  C_21
                            x       y       z     vdW  Elec       q    Type
                         _______ _______ _______ _____ _____    ______ ____

>  <TORSDO>
F 6

$$$$
=
 OpenBabel11052422183D

 25 27  0  0  1  0  0  0  0  0999 V2000
  161.0910  203.7240  149.3970 C   0  0  0  0  0  0  0  0  0  0  0  0
  161.1710  205.0210  149.9250 C   0  0  0  0  0  0  0  0  0  0  0  0
  161.5300  204.5850  147.1950 C   0  0  0  0  0  3  0  0  0  0  0  0
  160.7430  202.4950  150.1710 C   0  0  1  0  0  3  0  0  0  0  0  0
  161.6080  205.8450  147.7080 N   0  0  0  0  0  0  0  0  0  0  0  0
  160.3750  201.4080  149.1520 C   0  0  2  0  0  3  0  0  0  0  0  0
  161.5120  207.4080  149.5400 C   0  0  0  0  0  0  0  0  0  0  0  0
  161.7840  208.5650  148.6420 C   0  0  0  0  0  1  0  0  0  0  0  0
  160.9830  205.2740  151.2890 C   0  0  0  0  0  3  0  0  0  0  0  0
  161.2730  203.5130  148.0480 C   0  0  0  0  0  0  0  0  0  0  0  0
  161.0770  201.8310  147.5090 S   0  0  0  0  0  0  0  0  0  0  0  0
  161.3250  207.6420  150.9080 C   0  0  0  0  0  3  0  0  0  0  0  0
  161.0650  206.5800  151.7800 C   0  0  0  0  0  0  0  0  0  0  0  0
  161.4380  206.0950  149.0400 C   0  0  0  0  0  0  0  0  0  0  0  0
  157.7150  201.2190  148.9690 C   0  0  0  0  0  3  0  0  0  0  0  0
  158.9160  201.3020  149.0490 C   0  0  0  0  0  0  0  0  0  0  0  0
  161.8870  202.2310  152.2380 O   0  0  0  0  0  0  0  0  0  0  0  0
  161.8890  202.0470  151.0280 C   0  0  0  0  0  3  0  0  0  0  0  0
  160.8560  206.8450  153.2290 C   0  0  0  0  0  2  0  0  0  0  0  0
  161.1520  208.3010  153.5460 C   0  0  0  0  0  2  0  0  0  0  0  0
  160.4020  208.7360  154.7920 C   0  0  2  0  0  3  0  0  0  0  0  0
  160.6340  210.0890  155.0300 O   0  0  0  0  0  1  0  0  0  0  0  0
  160.8270  207.9370  155.9790 C   0  0  0  0  0  0  0  0  0  0  0  0
  161.9820  208.0930  156.4560 O   0  0  0  0  0  0  0  0  0  0  0  0
  159.9600  207.0200  156.5570 O   0  0  0  0  0  1  0  0  0  0  0  0
  1  2  1  0  0  0  0
  1  4  1  0  0  0  0
  2  9  1  0  0  0  0
  3  5  2  0  0  0  0
  3 10  1  0  0  0  0
  4 18  1  6  0  0  0
  5 14  1  0  0  0  0
  6 16  1  6  0  0  0
  6  4  1  0  0  0  0
  7 12  2  0  0  0  0
  8  7  1  0  0  0  0
  9 13  2  0  0  0  0
 10  1  2  0  0  0  0
 11 10  1  0  0  0  0
 11  6  1  0  0  0  0
 12 13  1  0  0  0  0
 13 19  1  0  0  0  0
 14  7  1  0  0  0  0
 14  2  2  0  0  0  0
 15 16  3  0  0  0  0
 18 17  2  0  0  0  0
 19 20  1  0  0  0  0
 20 21  1  0  0  0  0
 21 22  1  1  0  0  0
 21 23  1  0  0  0  0
 23 24  2  0  0  0  0
 23 25  1  0  0  0  0
M  END
>  <MODEL>
5

>  <REMARK>
 VINA RESULT:      -6.4      4.050      7.987
  Name = 
  6 active torsions:
  status: ('A' for Active; 'I' for Inactive)
    1  A    between atoms: C_2  and  C_21
    2  A    between atoms: C_5  and  C_22
    3  A    between atoms: C_6  and  C_15
    4  A    between atoms: C_6  and  C_23
    5  A    between atoms: C_10  and  C_11
    6  A    between atoms: C_15  and  C_21
                            x       y       z     vdW  Elec       q    Type
                         _______ _______ _______ _____ _____    ______ ____

>  <TORSDO>
F 6

$$$$
=
 OpenBabel11052422183D

 25 27  0  0  1  0  0  0  0  0999 V2000
  161.0830  203.7040  149.3280 C   0  0  0  0  0  0  0  0  0  0  0  0
  161.1770  205.0200  149.8010 C   0  0  0  0  0  0  0  0  0  0  0  0
  161.5510  204.4660  147.0950 C   0  0  0  0  0  3  0  0  0  0  0  0
  160.7110  202.5130  150.1490 C   0  0  1  0  0  3  0  0  0  0  0  0
  161.6430  205.7460  147.5560 N   0  0  0  0  0  0  0  0  0  0  0  0
  160.3360  201.3900  149.1730 C   0  0  2  0  0  3  0  0  0  0  0  0
  161.5540  207.3840  149.3200 C   0  0  0  0  0  0  0  0  0  0  0  0
  161.8500  208.4990  148.3760 C   0  0  0  0  0  1  0  0  0  0  0  0
  160.9820  205.3330  151.1520 C   0  0  0  0  0  3  0  0  0  0  0  0
  161.2720  203.4340  147.9900 C   0  0  0  0  0  0  0  0  0  0  0  0
  161.0560  201.7340  147.5200 S   0  0  0  0  0  0  0  0  0  0  0  0
  161.3600  207.6780  150.6750 C   0  0  0  0  0  3  0  0  0  0  0  0
  161.0790  206.6570  151.5890 C   0  0  0  0  0  0  0  0  0  0  0  0
  161.4660  206.0530  148.8750 C   0  0  0  0  0  0  0  0  0  0  0  0
  157.6750  201.2290  148.9770 C   0  0  0  0  0  3  0  0  0  0  0  0
  158.8770  201.3000  149.0620 C   0  0  0  0  0  0  0  0  0  0  0  0
  161.8730  202.3880  152.2190 O   0  0  0  0  0  0  0  0  0  0  0  0
  161.8450  202.0860  151.0340 C   0  0  0  0  0  3  0  0  0  0  0  0
  160.8620  206.9860  153.0240 C   0  0  0  0  0  2  0  0  0  0  0  0
  160.7540  208.4900  153.2090 C   0  0  0  0  0  2  0  0  0  0  0  0
  161.1430  208.8790  154.6240 C   0  0  2  0  0  3  0  0  0  0  0  0
  160.0460  208.7270  155.4690 O   0  0  0  0  0  1  0  0  0  0  0  0
  161.6250  210.2910  154.6770 C   0  0  0  0  0  0  0  0  0  0  0  0
  162.5990  210.5910  155.4150 O   0  0  0  0  0  1  0  0  0  0  0  0
  161.0020  211.2760  153.9210 O   0  0  0  0  0  0  0  0  0  0  0  0
  1  2  1  0  0  0  0
  1  4  1  0  0  0  0
  2  9  1  0  0  0  0
  3  5  2  0  0  0  0
  3 10  1  0  0  0  0
  4 18  1  6  0  0  0
  5 14  1  0  0  0  0
  6 16  1  6  0  0  0
  6  4  1  0  0  0  0
  7 12  2  0  0  0  0
  8  7  1  0  0  0  0
  9 13  2  0  0  0  0
 10  1  2  0  0  0  0
 11 10  1  0  0  0  0
 11  6  1  0  0  0  0
 12 13  1  0  0  0  0
 13 19  1  0  0  0  0
 14  7  1  0  0  0  0
 14  2  2  0  0  0  0
 15 16  3  0  0  0  0
 18 17  2  0  0  0  0
 19 20  1  0  0  0  0
 20 21  1  0  0  0  0
 21 23  1  0  0  0  0
 21 22  1  1  0  0  0
 23 24  1  0  0  0  0
 25 23  2  0  0  0  0
M  END
>  <MODEL>
6

>  <REMARK>
 VINA RESULT:      -6.3      3.951      7.910
  Name = 
  6 active torsions:
  status: ('A' for Active; 'I' for Inactive)
    1  A    between atoms: C_2  and  C_21
    2  A    between atoms: C_5  and  C_22
    3  A    between atoms: C_6  and  C_15
    4  A    between atoms: C_6  and  C_23
    5  A    between atoms: C_10  and  C_11
    6  A    between atoms: C_15  and  C_21
                            x       y       z     vdW  Elec       q    Type
                         _______ _______ _______ _____ _____    ______ ____

>  <TORSDO>
F 6

$$$$
=
 OpenBabel11052422183D

 25 27  0  0  1  0  0  0  0  0999 V2000
  161.0980  204.5920  148.2310 C   0  0  0  0  0  0  0  0  0  0  0  0
  161.1410  205.1560  149.5130 C   0  0  0  0  0  0  0  0  0  0  0  0
  160.7090  202.4210  149.1900 C   0  0  0  0  0  3  0  0  0  0  0  0
  161.3450  205.3250  146.9530 C   0  0  1  0  0  3  0  0  0  0  0  0
  160.7510  202.9700  150.4380 N   0  0  0  0  0  0  0  0  0  0  0  0
  161.6000  204.2710  145.8680 C   0  0  2  0  0  3  0  0  0  0  0  0
  161.0100  204.8430  151.9320 C   0  0  0  0  0  0  0  0  0  0  0  0
  160.8310  203.9810  153.1340 C   0  0  0  0  0  1  0  0  0  0  0  0
  161.3680  206.5230  149.7090 C   0  0  0  0  0  3  0  0  0  0  0  0
  160.8800  203.2400  148.0760 C   0  0  0  0  0  0  0  0  0  0  0  0
  160.9180  202.6510  146.3990 S   0  0  0  0  0  0  0  0  0  0  0  0
  161.2350  206.2130  152.1080 C   0  0  0  0  0  3  0  0  0  0  0  0
  161.4090  207.0520  151.0030 C   0  0  0  0  0  0  0  0  0  0  0  0
  160.9600  204.3060  150.6320 C   0  0  0  0  0  0  0  0  0  0  0  0
  164.2290  204.0310  145.4470 C   0  0  0  0  0  3  0  0  0  0  0  0
  163.0420  204.1430  145.6360 C   0  0  0  0  0  0  0  0  0  0  0  0
  159.7390  206.2150  145.4420 O   0  0  0  0  0  0  0  0  0  0  0  0
  160.1730  206.1880  146.5850 C   0  0  0  0  0  3  0  0  0  0  0  0
  161.6600  208.5050  151.2060 C   0  0  0  0  0  2  0  0  0  0  0  0
  160.6270  209.0880  152.1550 C   0  0  0  0  0  2  0  0  0  0  0  0
  161.2860  209.5260  153.4510 C   0  0  2  0  0  3  0  0  0  0  0  0
  160.8660  208.6990  154.4910 O   0  0  0  0  0  1  0  0  0  0  0  0
  160.9490  210.9440  153.7710 C   0  0  0  0  0  0  0  0  0  0  0  0
  160.4570  211.6860  152.8810 O   0  0  0  0  0  0  0  0  0  0  0  0
  161.1810  211.4530  155.0420 O   0  0  0  0  0  1  0  0  0  0  0  0
  1  2  1  0  0  0  0
  2  9  2  0  0  0  0
  2 14  1  0  0  0  0
  3  5  2  0  0  0  0
  4 18  1  6  0  0  0
  4  1  1  0  0  0  0
  5 14  1  0  0  0  0
  6 16  1  1  0  0  0
  6 11  1  0  0  0  0
  6  4  1  0  0  0  0
  7 12  1  0  0  0  0
  7  8  1  0  0  0  0
  9 13  1  0  0  0  0
 10  1  2  0  0  0  0
 10  3  1  0  0  0  0
 11 10  1  0  0  0  0
 13 19  1  0  0  0  0
 13 12  2  0  0  0  0
 14  7  2  0  0  0  0
 15 16  3  0  0  0  0
 17 18  2  0  0  0  0
 19 20  1  0  0  0  0
 20 21  1  0  0  0  0
 21 23  1  0  0  0  0
 21 22  1  1  0  0  0
 23 25  1  0  0  0  0
 24 23  2  0  0  0  0
M  END
>  <MODEL>
7

>  <REMARK>
 VINA RESULT:      -6.3      3.085      7.415
  Name = 
  6 active torsions:
  status: ('A' for Active; 'I' for Inactive)
    1  A    between atoms: C_2  and  C_21
    2  A    between atoms: C_5  and  C_22
    3  A    between atoms: C_6  and  C_15
    4  A    between atoms: C_6  and  C_23
    5  A    between atoms: C_10  and  C_11
    6  A    between atoms: C_15  and  C_21
                            x       y       z     vdW  Elec       q    Type
                         _______ _______ _______ _____ _____    ______ ____

>  <TORSDO>
F 6

$$$$
=
 OpenBabel11052422183D

 25 27  0  0  1  0  0  0  0  0999 V2000
  161.1610  204.8080  148.3360 C   0  0  0  0  0  0  0  0  0  0  0  0
  161.2470  205.4900  149.5580 C   0  0  0  0  0  0  0  0  0  0  0  0
  160.7880  202.7410  149.5080 C   0  0  0  0  0  3  0  0  0  0  0  0
  161.3730  205.4150  146.9880 C   0  0  1  0  0  3  0  0  0  0  0  0
  160.8710  203.4050  150.6960 N   0  0  0  0  0  0  0  0  0  0  0  0
  161.5880  204.2610  146.0000 C   0  0  2  0  0  3  0  0  0  0  0  0
  161.1890  205.4090  151.9970 C   0  0  0  0  0  0  0  0  0  0  0  0
  161.0410  204.6660  153.2810 C   0  0  0  0  0  1  0  0  0  0  0  0
  161.4900  206.8680  149.6160 C   0  0  0  0  0  3  0  0  0  0  0  0
  160.9300  203.4500  148.3160 C   0  0  0  0  0  0  0  0  0  0  0  0
  160.9130  202.7050  146.7030 S   0  0  0  0  0  0  0  0  0  0  0  0
  161.4280  206.7870  152.0370 C   0  0  0  0  0  3  0  0  0  0  0  0
  161.5740  207.5160  150.8520 C   0  0  0  0  0  0  0  0  0  0  0  0
  161.0950  204.7520  150.7570 C   0  0  0  0  0  0  0  0  0  0  0  0
  164.2020  203.9700  145.5220 C   0  0  0  0  0  3  0  0  0  0  0  0
  163.0220  204.0970  145.7380 C   0  0  0  0  0  0  0  0  0  0  0  0
  159.7430  206.1900  145.4410 O   0  0  0  0  0  0  0  0  0  0  0  0
  160.1970  206.2500  146.5750 C   0  0  0  0  0  3  0  0  0  0  0  0
  161.8400  208.9790  150.9090 C   0  0  0  0  0  2  0  0  0  0  0  0
  161.9510  209.5480  149.5050 C   0  0  0  0  0  2  0  0  0  0  0  0
  162.2940  211.0260  149.5580 C   0  0  2  0  0  3  0  0  0  0  0  0
  161.4950  211.6580  150.5090 O   0  0  0  0  0  1  0  0  0  0  0  0
  162.0940  211.6710  148.2270 C   0  0  0  0  0  0  0  0  0  0  0  0
  161.0420  211.4420  147.5740 O   0  0  0  0  0  0  0  0  0  0  0  0
  163.0620  212.5170  147.7020 O   0  0  0  0  0  1  0  0  0  0  0  0
  1  2  1  0  0  0  0
  2  9  2  0  0  0  0
  2 14  1  0  0  0  0
  3  5  2  0  0  0  0
  4 18  1  6  0  0  0
  4  1  1  0  0  0  0
  5 14  1  0  0  0  0
  6 16  1  1  0  0  0
  6 11  1  0  0  0  0
  6  4  1  0  0  0  0
  7 12  1  0  0  0  0
  7  8  1  0  0  0  0
  9 13  1  0  0  0  0
 10  1  2  0  0  0  0
 10  3  1  0  0  0  0
 11 10  1  0  0  0  0
 13 19  1  0  0  0  0
 13 12  2  0  0  0  0
 14  7  2  0  0  0  0
 15 16  3  0  0  0  0
 17 18  2  0  0  0  0
 20 21  1  0  0  0  0
 20 19  1  0  0  0  0
 21 22  1  1  0  0  0
 23 21  1  0  0  0  0
 24 23  2  0  0  0  0
 25 23  1  0  0  0  0
M  END
>  <MODEL>
8

>  <REMARK>
 VINA RESULT:      -6.1      2.994      6.592
  Name = 
  6 active torsions:
  status: ('A' for Active; 'I' for Inactive)
    1  A    between atoms: C_2  and  C_21
    2  A    between atoms: C_5  and  C_22
    3  A    between atoms: C_6  and  C_15
    4  A    between atoms: C_6  and  C_23
    5  A    between atoms: C_10  and  C_11
    6  A    between atoms: C_15  and  C_21
                            x       y       z     vdW  Elec       q    Type
                         _______ _______ _______ _____ _____    ______ ____

>  <TORSDO>
F 6

$$$$
