=
 OpenBabel11062409013D

 55 55  0  0  1  0  0  0  0  0999 V2000
  161.6660  207.8690  152.3250 C   0  0  2  0  0  3  0  0  0  0  0  0
  163.5230  207.5180  150.8400 O   0  0  0  0  0  0  0  0  0  0  0  0
  162.3260  207.8870  150.9750 C   0  0  0  0  0  0  0  0  0  0  0  0
  161.5890  208.3150  149.8360 N   0  0  0  0  0  1  0  0  0  0  0  0
  160.8850  206.5640  152.5630 C   0  0  2  0  0  3  0  0  0  0  0  0
  161.3110  205.8710  153.8550 C   0  0  0  0  0  1  0  0  0  0  0  0
  159.8060  205.8350  150.5580 O   0  0  0  0  0  1  0  0  0  0  0  0
  160.9170  205.5930  151.3710 C   0  0  2  0  0  3  0  0  0  0  0  0
  160.2900  203.9390  153.0100 O   0  0  0  0  0  1  0  0  0  0  0  0
  160.9690  204.1230  151.8040 C   0  0  1  0  0  3  0  0  0  0  0  0
  160.3350  203.2440  150.7390 C   0  0  0  0  0  2  0  0  0  0  0  0
  161.3550  202.8120  149.6860 C   0  0  1  0  0  3  0  0  0  0  0  0
  159.5980  201.2710  149.1370 O   0  0  0  0  0  1  0  0  0  0  0  0
  160.7360  201.8960  148.6210 C   0  0  2  0  0  3  0  0  0  0  0  0
  161.7240  200.8490  148.1060 C   0  0  0  0  0  2  0  0  0  0  0  0
  161.0440  199.7980  147.4290 O   0  0  0  0  0  0  0  0  0  0  0  0
  160.9260  199.7520  146.0360 C   0  0  0  0  0  0  0  0  0  0  0  0
  160.6300  200.7890  145.3800 O   0  0  0  0  0  0  0  0  0  0  0  0
  161.1640  198.4880  145.3310 C   0  0  0  0  0  0  0  0  0  0  0  0
  160.1910  197.7740  144.9690 O   0  0  0  0  0  0  0  0  0  0  0  0
  162.4940  198.0540  145.0690 N   0  0  0  0  0  1  0  0  0  0  0  0
  162.0050  204.0370  149.0520 C   0  0  0  0  0  2  0  0  0  0  0  0
  162.2430  203.8150  147.6700 O   0  0  0  0  0  0  0  0  0  0  0  0
  161.3390  205.8840  146.8290 C   0  0  0  0  0  3  0  0  0  0  0  0
  160.3980  204.5850  144.5370 C   0  0  0  0  0  0  0  0  0  0  0  0
  161.0790  203.8640  145.5200 C   0  0  0  0  0  3  0  0  0  0  0  0
  160.6580  206.6060  145.8440 C   0  0  0  0  0  3  0  0  0  0  0  0
  161.5560  204.5110  146.6740 C   0  0  0  0  0  0  0  0  0  0  0  0
  159.9420  203.9560  143.4270 F   0  0  0  0  0  0  0  0  0  0  0  0
  160.1900  205.9570  144.6980 C   0  0  0  0  0  3  0  0  0  0  0  0
  160.9460  210.0810  151.5680 O   0  0  0  0  0  1  0  0  0  0  0  0
  160.7510  209.0920  152.5350 C   0  0  2  0  0  3  0  0  0  0  0  0
  160.6990  209.6720  153.9590 C   0  0  2  0  0  3  0  0  0  0  0  0
  162.4600  209.5890  155.6290 O   0  0  0  0  0  1  0  0  0  0  0  0
  161.4150  208.8620  155.0510 C   0  0  1  0  0  3  0  0  0  0  0  0
  159.7890  207.2580  156.0610 O   0  0  0  0  0  0  0  0  0  0  0  0
  160.4410  208.4800  156.1200 C   0  0  0  0  0  0  0  0  0  0  0  0
  160.1830  209.2780  157.0620 O   0  0  0  0  0  1  0  0  0  0  0  0
  159.2510  209.9640  154.3710 C   0  0  0  0  0  2  0  0  0  0  0  0
  158.9020  211.4580  154.3390 C   0  0  2  0  0  0  0  0  0  0  0  0
  157.3440  210.4680  155.9670 O   0  0  0  0  0  1  0  0  0  0  0  0
  157.6450  211.6260  155.2430 C   0  0  2  0  0  3  0  0  0  0  0  0
  156.4040  212.1310  154.4880 C   0  0  1  0  0  3  0  0  0  0  0  0
  155.3160  211.2770  154.6810 O   0  0  0  0  0  1  0  0  0  0  0  0
  155.5920  213.7890  156.2950 C   0  0  0  0  0  1  0  0  0  0  0  0
  156.0410  213.5260  154.9000 C   0  0  0  0  0  0  0  0  0  0  0  0
  156.1270  214.4520  154.1080 O   0  0  0  0  0  0  0  0  0  0  0  0
  158.5890  211.7820  152.8580 C   0  0  0  0  0  2  0  0  0  0  0  0
  159.5210  212.6470  152.2770 O   0  0  0  0  0  0  0  0  0  0  0  0
  158.8100  213.8240  152.0500 C   0  0  0  0  0  2  0  0  0  0  0  0
  159.2750  214.4490  150.7490 C   0  0  0  0  0  1  0  0  0  0  0  0
  160.0400  212.1600  154.8300 O   0  0  0  0  0  0  0  0  0  0  0  0
  159.6710  213.1830  155.7190 C   0  0  0  0  0  2  0  0  0  0  0  0
  159.9320  212.7380  157.1460 C   0  0  0  0  0  2  0  0  0  0  0  0
  161.2290  212.2390  157.2590 O   0  0  0  0  0  1  0  0  0  0  0  0
  1  3  1  6  0  0  0
  1 32  1  0  0  0  0
  1  5  1  0  0  0  0
  2  3  2  0  0  0  0
  4  3  1  0  0  0  0
  5  6  1  1  0  0  0
  8  7  1  1  0  0  0
  8 10  1  0  0  0  0
  8  5  1  0  0  0  0
 10  9  1  1  0  0  0
 11 10  1  0  0  0  0
 12 22  1  6  0  0  0
 12 11  1  0  0  0  0
 14 13  1  1  0  0  0
 14 12  1  0  0  0  0
 15 14  1  0  0  0  0
 16 15  1  0  0  0  0
 17 16  1  0  0  0  0
 18 17  2  0  0  0  0
 19 17  1  0  0  0  0
 20 19  2  0  0  0  0
 21 19  1  0  0  0  0
 23 22  1  0  0  0  0
 25 30  2  0  0  0  0
 25 26  1  0  0  0  0
 26 28  2  0  0  0  0
 27 24  2  0  0  0  0
 28 24  1  0  0  0  0
 28 23  1  0  0  0  0
 29 25  1  0  0  0  0
 30 27  1  0  0  0  0
 32 31  1  6  0  0  0
 32 33  1  0  0  0  0
 33 39  1  1  0  0  0
 33 35  1  0  0  0  0
 35 34  1  1  0  0  0
 35 37  1  0  0  0  0
 36 37  2  0  0  0  0
 37 38  1  0  0  0  0
 40 48  1  6  0  0  0
 40 39  1  0  0  0  0
 40 52  1  0  0  0  0
 40 42  1  0  0  0  0
 42 41  1  6  0  0  0
 43 44  1  1  0  0  0
 43 46  1  0  0  0  0
 43 42  1  0  0  0  0
 46 45  1  0  0  0  0
 47 46  2  0  0  0  0
 49 48  1  0  0  0  0
 50 49  1  0  0  0  0
 51 50  1  0  0  0  0
 52 53  1  0  0  0  0
 53 54  1  0  0  0  0
 54 55  1  0  0  0  0
M  END
>  <MODEL>
1

>  <REMARK>
 VINA RESULT:      -3.0      0.000      0.000
  Name = 
  29 active torsions:
  status: ('A' for Active; 'I' for Inactive)
    1  A    between atoms: C_1  and  C_30
    2  A    between atoms: O_2  and  C_28
    3  A    between atoms: O_2  and  C_44
    4  A    between atoms: C_6  and  C_8
    5  A    between atoms: C_6  and  O_20
    6  A    between atoms: C_6  and  C_38
    7  A    between atoms: C_6  and  C_46
    8  A    between atoms: C_7  and  C_8
    9  A    between atoms: C_7  and  C_23
   10  A    between atoms: C_7  and  C_43
   11  A    between atoms: C_10  and  C_32
   12  A    between atoms: C_11  and  C_29
   13  A    between atoms: C_11  and  C_38
   14  A    between atoms: C_12  and  O_14
   15  A    between atoms: O_14  and  C_46
   16  A    between atoms: C_16  and  C_17
   17  A    between atoms: C_16  and  C_26
   18  A    between atoms: C_17  and  C_23
   19  A    between atoms: C_17  and  C_37
   20  A    between atoms: O_20  and  C_30
   21  A    between atoms: C_26  and  C_45
   22  A    between atoms: C_28  and  C_33
   23  A    between atoms: C_32  and  O_39
   24  A    between atoms: C_33  and  C_49
   25  A    between atoms: C_33  and  C_52
   26  A    between atoms: C_34  and  O_39
   27  A    between atoms: C_34  and  C_52
   28  A    between atoms: C_35  and  C_43
   29  A    between atoms: C_45  and  C_49
                            x       y       z     vdW  Elec       q    Type
                         _______ _______ _______ _____ _____    ______ ____

>  <TORSDO>
F 29

$$$$
=
 OpenBabel11062409013D

 55 55  0  0  1  0  0  0  0  0999 V2000
  160.9730  208.4250  152.6470 C   0  0  2  0  0  3  0  0  0  0  0  0
  162.6240  206.7230  152.2480 O   0  0  0  0  0  0  0  0  0  0  0  0
  161.8760  207.3040  153.0800 C   0  0  0  0  0  0  0  0  0  0  0  0
  161.8950  206.9020  154.4430 N   0  0  0  0  0  1  0  0  0  0  0  0
  160.7180  208.4000  151.1280 C   0  0  2  0  0  3  0  0  0  0  0  0
  160.1650  207.0550  150.6640 C   0  0  0  0  0  1  0  0  0  0  0  0
  162.3450  210.0970  150.6930 O   0  0  0  0  0  1  0  0  0  0  0  0
  161.9320  208.8260  150.2860 C   0  0  2  0  0  3  0  0  0  0  0  0
  161.9000  210.0470  148.2070 O   0  0  0  0  0  1  0  0  0  0  0  0
  161.6490  208.7990  148.7790 C   0  0  1  0  0  3  0  0  0  0  0  0
  162.5250  207.7580  148.1020 C   0  0  0  0  0  2  0  0  0  0  0  0
  161.7250  206.5130  147.7210 C   0  0  1  0  0  3  0  0  0  0  0  0
  162.9110  206.9160  145.6720 O   0  0  0  0  0  1  0  0  0  0  0  0
  162.1070  205.9830  146.3320 C   0  0  2  0  0  3  0  0  0  0  0  0
  160.8830  205.6460  145.4790 C   0  0  0  0  0  2  0  0  0  0  0  0
  161.1080  204.4690  144.7100 O   0  0  0  0  0  0  0  0  0  0  0  0
  160.9690  203.1840  145.2450 C   0  0  0  0  0  0  0  0  0  0  0  0
  161.7760  202.7580  146.1160 O   0  0  0  0  0  0  0  0  0  0  0  0
  159.8640  202.3300  144.7970 C   0  0  0  0  0  0  0  0  0  0  0  0
  158.8290  202.8470  144.2970 O   0  0  0  0  0  0  0  0  0  0  0  0
  159.9480  200.9160  144.9390 N   0  0  0  0  0  1  0  0  0  0  0  0
  161.8900  205.4370  148.7880 C   0  0  0  0  0  2  0  0  0  0  0  0
  161.0990  204.2990  148.4740 O   0  0  0  0  0  0  0  0  0  0  0  0
  160.8610  201.9350  148.8720 C   0  0  0  0  0  3  0  0  0  0  0  0
  160.6510  202.3810  151.6260 C   0  0  0  0  0  0  0  0  0  0  0  0
  160.8190  203.4590  150.7530 C   0  0  0  0  0  3  0  0  0  0  0  0
  160.6930  200.8560  149.7460 C   0  0  0  0  0  3  0  0  0  0  0  0
  160.9260  203.2410  149.3680 C   0  0  0  0  0  0  0  0  0  0  0  0
  160.5490  202.5970  152.9590 F   0  0  0  0  0  0  0  0  0  0  0  0
  160.5900  201.0790  151.1220 C   0  0  0  0  0  3  0  0  0  0  0  0
  162.7820  209.7200  153.6650 O   0  0  0  0  0  1  0  0  0  0  0  0
  161.5150  209.8010  153.0810 C   0  0  2  0  0  3  0  0  0  0  0  0
  160.5570  210.6900  153.8910 C   0  0  2  0  0  3  0  0  0  0  0  0
  159.6720  208.9000  155.2740 O   0  0  0  0  0  1  0  0  0  0  0  0
  160.1970  210.1960  155.3020 C   0  0  1  0  0  3  0  0  0  0  0  0
  162.1420  211.3760  156.3310 O   0  0  0  0  0  0  0  0  0  0  0  0
  161.4160  210.2060  156.1690 C   0  0  0  0  0  0  0  0  0  0  0  0
  161.8080  209.1470  156.7300 O   0  0  0  0  0  1  0  0  0  0  0  0
  159.2850  210.9870  153.0880 C   0  0  0  0  0  2  0  0  0  0  0  0
  158.8700  212.4630  153.1340 C   0  0  2  0  0  0  0  0  0  0  0  0
  159.9430  214.4360  152.1260 O   0  0  0  0  0  1  0  0  0  0  0  0
  159.5070  213.1300  151.8790 C   0  0  2  0  0  3  0  0  0  0  0  0
  158.6070  213.0850  150.6320 C   0  0  1  0  0  3  0  0  0  0  0  0
  157.5780  214.0250  150.7210 O   0  0  0  0  0  1  0  0  0  0  0  0
  158.8100  214.1080  148.2690 C   0  0  0  0  0  1  0  0  0  0  0  0
  159.3970  213.3070  149.3780 C   0  0  0  0  0  0  0  0  0  0  0  0
  160.5250  212.8520  149.2630 O   0  0  0  0  0  0  0  0  0  0  0  0
  159.4730  213.0250  154.4460 C   0  0  0  0  0  2  0  0  0  0  0  0
  158.9770  214.2880  154.7800 O   0  0  0  0  0  0  0  0  0  0  0  0
  159.3170  214.4530  156.1220 C   0  0  0  0  0  2  0  0  0  0  0  0
  159.0500  213.1610  156.8690 C   0  0  0  0  0  1  0  0  0  0  0  0
  157.4460  212.4950  153.1220 O   0  0  0  0  0  0  0  0  0  0  0  0
  156.9180  212.3910  154.4190 C   0  0  0  0  0  2  0  0  0  0  0  0
  155.4030  212.4750  154.3610 C   0  0  0  0  0  2  0  0  0  0  0  0
  155.0170  213.6390  153.6970 O   0  0  0  0  0  1  0  0  0  0  0  0
  1  3  1  6  0  0  0
  1 32  1  0  0  0  0
  2  3  2  0  0  0  0
  3  4  1  0  0  0  0
  5  6  1  6  0  0  0
  5  1  1  0  0  0  0
  8  7  1  1  0  0  0
  8  5  1  0  0  0  0
 10  9  1  6  0  0  0
 10  8  1  0  0  0  0
 11 10  1  0  0  0  0
 12 11  1  1  0  0  0
 12 22  1  0  0  0  0
 14 13  1  6  0  0  0
 14 12  1  0  0  0  0
 15 14  1  0  0  0  0
 16 17  1  0  0  0  0
 16 15  1  0  0  0  0
 17 18  2  0  0  0  0
 19 21  1  0  0  0  0
 19 17  1  0  0  0  0
 20 19  2  0  0  0  0
 23 22  1  0  0  0  0
 23 28  1  0  0  0  0
 24 28  2  0  0  0  0
 24 27  1  0  0  0  0
 25 29  1  0  0  0  0
 26 25  2  0  0  0  0
 27 30  2  0  0  0  0
 28 26  1  0  0  0  0
 30 25  1  0  0  0  0
 32 31  1  1  0  0  0
 32 33  1  0  0  0  0
 33 39  1  6  0  0  0
 33 35  1  0  0  0  0
 35 34  1  6  0  0  0
 35 37  1  0  0  0  0
 37 36  2  0  0  0  0
 37 38  1  0  0  0  0
 40 39  1  6  0  0  0
 40 48  1  0  0  0  0
 42 41  1  1  0  0  0
 42 40  1  0  0  0  0
 43 44  1  1  0  0  0
 43 42  1  0  0  0  0
 45 46  1  0  0  0  0
 46 43  1  0  0  0  0
 47 46  2  0  0  0  0
 48 49  1  0  0  0  0
 49 50  1  0  0  0  0
 50 51  1  0  0  0  0
 52 40  1  0  0  0  0
 52 53  1  0  0  0  0
 54 53  1  0  0  0  0
 55 54  1  0  0  0  0
M  END
>  <MODEL>
2

>  <REMARK>
 VINA RESULT:      -3.0      2.466      4.796
  Name = 
  29 active torsions:
  status: ('A' for Active; 'I' for Inactive)
    1  A    between atoms: C_1  and  C_30
    2  A    between atoms: O_2  and  C_28
    3  A    between atoms: O_2  and  C_44
    4  A    between atoms: C_6  and  C_8
    5  A    between atoms: C_6  and  O_20
    6  A    between atoms: C_6  and  C_38
    7  A    between atoms: C_6  and  C_46
    8  A    between atoms: C_7  and  C_8
    9  A    between atoms: C_7  and  C_23
   10  A    between atoms: C_7  and  C_43
   11  A    between atoms: C_10  and  C_32
   12  A    between atoms: C_11  and  C_29
   13  A    between atoms: C_11  and  C_38
   14  A    between atoms: C_12  and  O_14
   15  A    between atoms: O_14  and  C_46
   16  A    between atoms: C_16  and  C_17
   17  A    between atoms: C_16  and  C_26
   18  A    between atoms: C_17  and  C_23
   19  A    between atoms: C_17  and  C_37
   20  A    between atoms: O_20  and  C_30
   21  A    between atoms: C_26  and  C_45
   22  A    between atoms: C_28  and  C_33
   23  A    between atoms: C_32  and  O_39
   24  A    between atoms: C_33  and  C_49
   25  A    between atoms: C_33  and  C_52
   26  A    between atoms: C_34  and  O_39
   27  A    between atoms: C_34  and  C_52
   28  A    between atoms: C_35  and  C_43
   29  A    between atoms: C_45  and  C_49
                            x       y       z     vdW  Elec       q    Type
                         _______ _______ _______ _____ _____    ______ ____

>  <TORSDO>
F 29

$$$$
=
 OpenBabel11062409013D

 55 55  0  0  1  0  0  0  0  0999 V2000
  161.4570  206.8310  151.2810 C   0  0  2  0  0  3  0  0  0  0  0  0
  163.4960  207.1780  150.0560 O   0  0  0  0  0  0  0  0  0  0  0  0
  162.9160  206.5930  151.0090 C   0  0  0  0  0  0  0  0  0  0  0  0
  163.6520  205.7070  151.8430 N   0  0  0  0  0  1  0  0  0  0  0  0
  160.5900  206.5400  150.0420 C   0  0  2  0  0  3  0  0  0  0  0  0
  160.0400  205.1150  150.0520 C   0  0  0  0  0  1  0  0  0  0  0  0
  161.2580  208.2450  148.5050 O   0  0  0  0  0  1  0  0  0  0  0  0
  161.2820  206.8620  148.7080 C   0  0  2  0  0  3  0  0  0  0  0  0
  159.2990  206.4340  147.4050 O   0  0  0  0  0  1  0  0  0  0  0  0
  160.6550  206.1230  147.5190 C   0  0  1  0  0  3  0  0  0  0  0  0
  161.3630  206.5110  146.2320 C   0  0  0  0  0  2  0  0  0  0  0  0
  160.7870  205.7680  145.0280 C   0  0  1  0  0  3  0  0  0  0  0  0
  163.0050  206.1890  144.2110 O   0  0  0  0  0  1  0  0  0  0  0  0
  161.8670  205.4070  143.9990 C   0  0  2  0  0  3  0  0  0  0  0  0
  161.3790  205.5690  142.5580 C   0  0  0  0  0  2  0  0  0  0  0  0
  161.7880  206.8210  142.0200 O   0  0  0  0  0  0  0  0  0  0  0  0
  162.2320  206.9640  140.7010 C   0  0  0  0  0  0  0  0  0  0  0  0
  162.8740  206.0380  140.1330 O   0  0  0  0  0  0  0  0  0  0  0  0
  161.9340  208.1990  139.9680 C   0  0  0  0  0  0  0  0  0  0  0  0
  162.6270  209.2330  140.1640 O   0  0  0  0  0  0  0  0  0  0  0  0
  160.8510  208.2400  139.0450 N   0  0  0  0  0  1  0  0  0  0  0  0
  160.0270  204.5290  145.4900 C   0  0  0  0  0  2  0  0  0  0  0  0
  160.7480  203.3510  145.1590 O   0  0  0  0  0  0  0  0  0  0  0  0
  161.0940  202.6260  147.4300 C   0  0  0  0  0  3  0  0  0  0  0  0
  161.1900  199.9550  146.6040 C   0  0  0  0  0  0  0  0  0  0  0  0
  160.9960  200.9720  145.6660 C   0  0  0  0  0  3  0  0  0  0  0  0
  161.2870  201.6090  148.3700 C   0  0  0  0  0  3  0  0  0  0  0  0
  160.9450  202.3160  146.0750 C   0  0  0  0  0  0  0  0  0  0  0  0
  161.2360  198.6620  146.2040 F   0  0  0  0  0  0  0  0  0  0  0  0
  161.3330  200.2740  147.9570 C   0  0  0  0  0  3  0  0  0  0  0  0
  162.1210  209.1850  151.3220 O   0  0  0  0  0  1  0  0  0  0  0  0
  161.1930  208.2570  151.8020 C   0  0  2  0  0  3  0  0  0  0  0  0
  160.9560  208.4000  153.3150 C   0  0  2  0  0  3  0  0  0  0  0  0
  161.5230  206.1060  153.8750 O   0  0  0  0  0  1  0  0  0  0  0  0
  160.5760  207.1160  154.0700 C   0  0  1  0  0  3  0  0  0  0  0  0
  159.2460  207.2710  156.1770 O   0  0  0  0  0  0  0  0  0  0  0  0
  160.4670  207.4020  155.5340 C   0  0  0  0  0  0  0  0  0  0  0  0
  161.4740  207.7950  156.1840 O   0  0  0  0  0  1  0  0  0  0  0  0
  159.9360  209.5090  153.5990 C   0  0  0  0  0  2  0  0  0  0  0  0
  160.5840  210.8770  153.8520 C   0  0  2  0  0  0  0  0  0  0  0  0
  160.3380  212.4710  155.7110 O   0  0  0  0  0  1  0  0  0  0  0  0
  159.6420  211.6260  154.8400 C   0  0  2  0  0  3  0  0  0  0  0  0
  158.7010  210.6940  155.6230 C   0  0  1  0  0  3  0  0  0  0  0  0
  159.1550  210.5070  156.9310 O   0  0  0  0  0  1  0  0  0  0  0  0
  157.0270  212.5900  156.1490 C   0  0  0  0  0  1  0  0  0  0  0  0
  157.2970  211.2180  155.6370 C   0  0  0  0  0  0  0  0  0  0  0  0
  156.3740  210.5380  155.2170 O   0  0  0  0  0  0  0  0  0  0  0  0
  160.6350  211.5760  152.4710 C   0  0  0  0  0  2  0  0  0  0  0  0
  159.3680  211.8550  151.9510 O   0  0  0  0  0  0  0  0  0  0  0  0
  159.3330  213.2440  151.8430 C   0  0  0  0  0  2  0  0  0  0  0  0
  159.9550  213.6610  150.5240 C   0  0  0  0  0  1  0  0  0  0  0  0
  161.8780  210.6300  154.3930 O   0  0  0  0  0  0  0  0  0  0  0  0
  161.8910  210.7840  155.7890 C   0  0  0  0  0  2  0  0  0  0  0  0
  163.3240  210.7950  156.2890 C   0  0  0  0  0  2  0  0  0  0  0  0
  164.1950  211.0360  155.2270 O   0  0  0  0  0  1  0  0  0  0  0  0
  1  3  1  6  0  0  0
  1 32  1  0  0  0  0
  2  3  2  0  0  0  0
  3  4  1  0  0  0  0
  5  6  1  6  0  0  0
  5  1  1  0  0  0  0
  8  7  1  6  0  0  0
  8  5  1  0  0  0  0
 10  9  1  6  0  0  0
 10  8  1  0  0  0  0
 11 10  1  0  0  0  0
 12 22  1  1  0  0  0
 12 11  1  0  0  0  0
 14 13  1  6  0  0  0
 14 12  1  0  0  0  0
 15 14  1  0  0  0  0
 16 15  1  0  0  0  0
 17 16  1  0  0  0  0
 18 17  2  0  0  0  0
 19 20  2  0  0  0  0
 19 17  1  0  0  0  0
 21 19  1  0  0  0  0
 23 22  1  0  0  0  0
 23 28  1  0  0  0  0
 24 27  1  0  0  0  0
 25 30  1  0  0  0  0
 26 28  1  0  0  0  0
 26 25  2  0  0  0  0
 28 24  2  0  0  0  0
 29 25  1  0  0  0  0
 30 27  2  0  0  0  0
 32 31  1  1  0  0  0
 32 33  1  0  0  0  0
 33 39  1  6  0  0  0
 33 35  1  0  0  0  0
 35 34  1  1  0  0  0
 35 37  1  0  0  0  0
 37 36  2  0  0  0  0
 37 38  1  0  0  0  0
 39 40  1  0  0  0  0
 40 48  1  6  0  0  0
 40 52  1  0  0  0  0
 40 42  1  0  0  0  0
 42 43  1  0  0  0  0
 42 41  1  1  0  0  0
 43 46  1  0  0  0  0
 43 44  1  1  0  0  0
 46 45  1  0  0  0  0
 47 46  2  0  0  0  0
 49 48  1  0  0  0  0
 50 49  1  0  0  0  0
 51 50  1  0  0  0  0
 52 53  1  0  0  0  0
 53 54  1  0  0  0  0
 55 54  1  0  0  0  0
M  END
>  <MODEL>
3

>  <REMARK>
 VINA RESULT:      -2.7      3.159      4.936
  Name = 
  29 active torsions:
  status: ('A' for Active; 'I' for Inactive)
    1  A    between atoms: C_1  and  C_30
    2  A    between atoms: O_2  and  C_28
    3  A    between atoms: O_2  and  C_44
    4  A    between atoms: C_6  and  C_8
    5  A    between atoms: C_6  and  O_20
    6  A    between atoms: C_6  and  C_38
    7  A    between atoms: C_6  and  C_46
    8  A    between atoms: C_7  and  C_8
    9  A    between atoms: C_7  and  C_23
   10  A    between atoms: C_7  and  C_43
   11  A    between atoms: C_10  and  C_32
   12  A    between atoms: C_11  and  C_29
   13  A    between atoms: C_11  and  C_38
   14  A    between atoms: C_12  and  O_14
   15  A    between atoms: O_14  and  C_46
   16  A    between atoms: C_16  and  C_17
   17  A    between atoms: C_16  and  C_26
   18  A    between atoms: C_17  and  C_23
   19  A    between atoms: C_17  and  C_37
   20  A    between atoms: O_20  and  C_30
   21  A    between atoms: C_26  and  C_45
   22  A    between atoms: C_28  and  C_33
   23  A    between atoms: C_32  and  O_39
   24  A    between atoms: C_33  and  C_49
   25  A    between atoms: C_33  and  C_52
   26  A    between atoms: C_34  and  O_39
   27  A    between atoms: C_34  and  C_52
   28  A    between atoms: C_35  and  C_43
   29  A    between atoms: C_45  and  C_49
                            x       y       z     vdW  Elec       q    Type
                         _______ _______ _______ _____ _____    ______ ____

>  <TORSDO>
F 29

$$$$
=
 OpenBabel11062409013D

 55 55  0  0  1  0  0  0  0  0999 V2000
  161.5060  208.4520  151.4270 C   0  0  2  0  0  3  0  0  0  0  0  0
  163.1670  210.1680  151.6960 O   0  0  0  0  0  0  0  0  0  0  0  0
  162.1690  209.7480  151.0520 C   0  0  0  0  0  0  0  0  0  0  0  0
  161.6730  210.5010  149.9530 N   0  0  0  0  0  1  0  0  0  0  0  0
  161.0040  207.6860  150.1890 C   0  0  2  0  0  3  0  0  0  0  0  0
  160.0600  206.5470  150.5660 C   0  0  0  0  0  1  0  0  0  0  0  0
  163.3620  207.4790  149.8560 O   0  0  0  0  0  1  0  0  0  0  0  0
  162.1290  207.1970  149.2620 C   0  0  2  0  0  3  0  0  0  0  0  0
  162.9730  208.8390  147.7100 O   0  0  0  0  0  1  0  0  0  0  0  0
  162.0470  207.8040  147.8560 C   0  0  1  0  0  3  0  0  0  0  0  0
  162.3250  206.7380  146.8110 C   0  0  0  0  0  2  0  0  0  0  0  0
  161.0440  206.0280  146.3770 C   0  0  1  0  0  3  0  0  0  0  0  0
  159.8050  205.2530  144.4710 O   0  0  0  0  0  1  0  0  0  0  0  0
  160.7920  206.1590  144.8680 C   0  0  2  0  0  3  0  0  0  0  0  0
  162.0620  205.9480  144.0430 C   0  0  0  0  0  2  0  0  0  0  0  0
  161.7450  205.6710  142.6830 O   0  0  0  0  0  0  0  0  0  0  0  0
  161.7960  206.6500  141.6850 C   0  0  0  0  0  0  0  0  0  0  0  0
  161.4460  207.8380  141.9280 O   0  0  0  0  0  0  0  0  0  0  0  0
  162.2760  206.2920  140.3460 C   0  0  0  0  0  0  0  0  0  0  0  0
  163.1090  205.3570  140.2020 O   0  0  0  0  0  0  0  0  0  0  0  0
  161.8170  207.0100  139.2050 N   0  0  0  0  0  1  0  0  0  0  0  0
  161.0820  204.5660  146.8060 C   0  0  0  0  0  2  0  0  0  0  0  0
  161.0640  204.4620  148.2220 O   0  0  0  0  0  0  0  0  0  0  0  0
  160.9260  203.2010  150.2700 C   0  0  0  0  0  3  0  0  0  0  0  0
  161.2270  200.8040  148.8600 C   0  0  0  0  0  0  0  0  0  0  0  0
  161.2260  202.0220  148.1770 C   0  0  0  0  0  3  0  0  0  0  0  0
  160.9270  201.9810  150.9540 C   0  0  0  0  0  3  0  0  0  0  0  0
  161.0730  203.2310  148.8800 C   0  0  0  0  0  0  0  0  0  0  0  0
  161.3740  199.6440  148.1770 F   0  0  0  0  0  0  0  0  0  0  0  0
  161.0760  200.7830  150.2490 C   0  0  0  0  0  3  0  0  0  0  0  0
  159.3710  209.5260  151.9490 O   0  0  0  0  0  1  0  0  0  0  0  0
  160.3580  208.6640  152.4330 C   0  0  2  0  0  3  0  0  0  0  0  0
  160.7650  208.9980  153.8780 C   0  0  2  0  0  3  0  0  0  0  0  0
  160.0750  207.4760  155.6400 O   0  0  0  0  0  1  0  0  0  0  0  0
  161.1250  207.8050  154.7780 C   0  0  1  0  0  3  0  0  0  0  0  0
  160.6020  205.5180  153.9230 O   0  0  0  0  0  1  0  0  0  0  0  0
  161.4510  206.6130  153.9340 C   0  0  0  0  0  0  0  0  0  0  0  0
  162.5140  206.5840  153.2550 O   0  0  0  0  0  0  0  0  0  0  0  0
  159.7020  209.8740  154.5510 C   0  0  0  0  0  2  0  0  0  0  0  0
  160.2760  211.1570  155.1670 C   0  0  2  0  0  0  0  0  0  0  0  0
  159.7780  213.5270  154.7260 O   0  0  0  0  0  1  0  0  0  0  0  0
  160.0220  212.2870  154.1250 C   0  0  2  0  0  3  0  0  0  0  0  0
  158.9230  211.9520  153.1050 C   0  0  1  0  0  3  0  0  0  0  0  0
  157.6540  212.1970  153.6350 O   0  0  0  0  0  1  0  0  0  0  0  0
  157.9310  212.9740  150.9500 C   0  0  0  0  0  1  0  0  0  0  0  0
  159.1040  212.7200  151.8310 C   0  0  0  0  0  0  0  0  0  0  0  0
  160.2010  213.1550  151.5160 O   0  0  0  0  0  0  0  0  0  0  0  0
  161.7890  210.8870  155.3600 C   0  0  0  0  0  2  0  0  0  0  0  0
  162.3630  211.6750  156.3600 O   0  0  0  0  0  0  0  0  0  0  0  0
  163.4440  210.9230  156.8200 C   0  0  0  0  0  2  0  0  0  0  0  0
  162.9530  209.5570  157.2600 C   0  0  0  0  0  1  0  0  0  0  0  0
  159.5910  211.3680  156.3980 O   0  0  0  0  0  0  0  0  0  0  0  0
  158.2680  210.9030  156.3380 C   0  0  0  0  0  2  0  0  0  0  0  0
  157.3920  211.7340  157.2570 C   0  0  0  0  0  2  0  0  0  0  0  0
  156.6100  212.6100  156.5050 O   0  0  0  0  0  1  0  0  0  0  0  0
  1  3  1  6  0  0  0
  1 32  1  0  0  0  0
  3  2  2  0  0  0  0
  4  3  1  0  0  0  0
  5  6  1  1  0  0  0
  5  1  1  0  0  0  0
  8  7  1  1  0  0  0
  8  5  1  0  0  0  0
 10  9  1  1  0  0  0
 10  8  1  0  0  0  0
 11 10  1  0  0  0  0
 12 22  1  6  0  0  0
 12 11  1  0  0  0  0
 14 13  1  6  0  0  0
 14 12  1  0  0  0  0
 15 14  1  0  0  0  0
 16 15  1  0  0  0  0
 17 18  2  0  0  0  0
 17 16  1  0  0  0  0
 19 17  1  0  0  0  0
 20 19  2  0  0  0  0
 21 19  1  0  0  0  0
 22 23  1  0  0  0  0
 23 28  1  0  0  0  0
 24 27  1  0  0  0  0
 25 30  1  0  0  0  0
 26 25  2  0  0  0  0
 26 28  1  0  0  0  0
 28 24  2  0  0  0  0
 29 25  1  0  0  0  0
 30 27  2  0  0  0  0
 32 31  1  6  0  0  0
 32 33  1  0  0  0  0
 33 39  1  1  0  0  0
 33 35  1  0  0  0  0
 35 34  1  1  0  0  0
 36 37  1  0  0  0  0
 37 35  1  0  0  0  0
 38 37  2  0  0  0  0
 40 39  1  6  0  0  0
 40 48  1  0  0  0  0
 40 52  1  0  0  0  0
 42 41  1  1  0  0  0
 42 40  1  0  0  0  0
 43 44  1  1  0  0  0
 43 42  1  0  0  0  0
 45 46  1  0  0  0  0
 46 43  1  0  0  0  0
 47 46  2  0  0  0  0
 48 49  1  0  0  0  0
 49 50  1  0  0  0  0
 50 51  1  0  0  0  0
 53 52  1  0  0  0  0
 53 54  1  0  0  0  0
 55 54  1  0  0  0  0
M  END
>  <MODEL>
4

>  <REMARK>
 VINA RESULT:      -2.0      2.948      5.080
  Name = 
  29 active torsions:
  status: ('A' for Active; 'I' for Inactive)
    1  A    between atoms: C_1  and  C_30
    2  A    between atoms: O_2  and  C_28
    3  A    between atoms: O_2  and  C_44
    4  A    between atoms: C_6  and  C_8
    5  A    between atoms: C_6  and  O_20
    6  A    between atoms: C_6  and  C_38
    7  A    between atoms: C_6  and  C_46
    8  A    between atoms: C_7  and  C_8
    9  A    between atoms: C_7  and  C_23
   10  A    between atoms: C_7  and  C_43
   11  A    between atoms: C_10  and  C_32
   12  A    between atoms: C_11  and  C_29
   13  A    between atoms: C_11  and  C_38
   14  A    between atoms: C_12  and  O_14
   15  A    between atoms: O_14  and  C_46
   16  A    between atoms: C_16  and  C_17
   17  A    between atoms: C_16  and  C_26
   18  A    between atoms: C_17  and  C_23
   19  A    between atoms: C_17  and  C_37
   20  A    between atoms: O_20  and  C_30
   21  A    between atoms: C_26  and  C_45
   22  A    between atoms: C_28  and  C_33
   23  A    between atoms: C_32  and  O_39
   24  A    between atoms: C_33  and  C_49
   25  A    between atoms: C_33  and  C_52
   26  A    between atoms: C_34  and  O_39
   27  A    between atoms: C_34  and  C_52
   28  A    between atoms: C_35  and  C_43
   29  A    between atoms: C_45  and  C_49
                            x       y       z     vdW  Elec       q    Type
                         _______ _______ _______ _____ _____    ______ ____

>  <TORSDO>
F 29

$$$$
=
 OpenBabel11062409013D

 55 55  0  0  1  0  0  0  0  0999 V2000
  161.3030  208.9360  152.2420 C   0  0  2  0  0  3  0  0  0  0  0  0
  161.2760  211.0410  151.0810 O   0  0  0  0  0  0  0  0  0  0  0  0
  161.9150  210.2420  151.8160 C   0  0  0  0  0  0  0  0  0  0  0  0
  163.2230  210.5830  152.2550 N   0  0  0  0  0  1  0  0  0  0  0  0
  160.9120  208.0660  151.0330 C   0  0  2  0  0  3  0  0  0  0  0  0
  160.3140  206.7280  151.4620 C   0  0  0  0  0  1  0  0  0  0  0  0
  163.0910  208.7460  150.3220 O   0  0  0  0  0  1  0  0  0  0  0  0
  162.0460  207.8710  150.0140 C   0  0  2  0  0  3  0  0  0  0  0  0
  161.6420  209.4080  148.2000 O   0  0  0  0  0  1  0  0  0  0  0  0
  161.5820  208.0620  148.5640 C   0  0  1  0  0  3  0  0  0  0  0  0
  162.4610  207.2550  147.6250 C   0  0  0  0  0  2  0  0  0  0  0  0
  161.7500  205.9950  147.1330 C   0  0  1  0  0  3  0  0  0  0  0  0
  161.3050  206.3760  144.8040 O   0  0  0  0  0  1  0  0  0  0  0  0
  162.1160  205.6520  145.6820 C   0  0  2  0  0  3  0  0  0  0  0  0
  162.0040  204.1550  145.3900 C   0  0  0  0  0  2  0  0  0  0  0  0
  160.6550  203.7890  145.1230 O   0  0  0  0  0  0  0  0  0  0  0  0
  160.2300  202.4560  145.0850 C   0  0  0  0  0  0  0  0  0  0  0  0
  159.4220  202.0610  144.2000 O   0  0  0  0  0  0  0  0  0  0  0  0
  160.7430  201.5060  146.0790 C   0  0  0  0  0  0  0  0  0  0  0  0
  160.7420  201.8090  147.3020 O   0  0  0  0  0  0  0  0  0  0  0  0
  161.2600  200.2460  145.6650 N   0  0  0  0  0  1  0  0  0  0  0  0
  162.0430  204.8270  148.0680 C   0  0  0  0  0  2  0  0  0  0  0  0
  161.0480  204.7350  149.0770 O   0  0  0  0  0  0  0  0  0  0  0  0
  161.0060  203.9930  151.3690 C   0  0  0  0  0  3  0  0  0  0  0  0
  160.9720  201.3200  150.5440 C   0  0  0  0  0  0  0  0  0  0  0  0
  161.0040  202.3450  149.5950 C   0  0  0  0  0  3  0  0  0  0  0  0
  160.9730  202.9670  152.3180 C   0  0  0  0  0  3  0  0  0  0  0  0
  161.0200  203.6910  150.0030 C   0  0  0  0  0  0  0  0  0  0  0  0
  160.9550  200.0270  150.1440 F   0  0  0  0  0  0  0  0  0  0  0  0
  160.9540  201.6320  151.9060 C   0  0  0  0  0  3  0  0  0  0  0  0
  159.1050  209.9480  152.5990 O   0  0  0  0  0  1  0  0  0  0  0  0
  160.0930  209.1440  153.1730 C   0  0  2  0  0  3  0  0  0  0  0  0
  160.4050  209.5510  154.6220 C   0  0  2  0  0  3  0  0  0  0  0  0
  159.3650  208.3120  156.4340 O   0  0  0  0  0  1  0  0  0  0  0  0
  160.5140  208.4070  155.6430 C   0  0  1  0  0  3  0  0  0  0  0  0
  161.9540  206.8110  154.3720 O   0  0  0  0  0  0  0  0  0  0  0  0
  160.7200  207.1080  154.9300 C   0  0  0  0  0  0  0  0  0  0  0  0
  159.7670  206.2920  154.8030 O   0  0  0  0  0  1  0  0  0  0  0  0
  159.4120  210.6120  155.1120 C   0  0  0  0  0  2  0  0  0  0  0  0
  160.0790  211.7440  155.9050 C   0  0  2  0  0  0  0  0  0  0  0  0
  159.8730  214.1960  155.8400 O   0  0  0  0  0  1  0  0  0  0  0  0
  159.8860  213.0360  155.0580 C   0  0  2  0  0  3  0  0  0  0  0  0
  158.6580  212.9920  154.1330 C   0  0  1  0  0  3  0  0  0  0  0  0
  157.6450  213.8310  154.6020 O   0  0  0  0  0  1  0  0  0  0  0  0
  158.2300  212.8020  151.5920 C   0  0  0  0  0  1  0  0  0  0  0  0
  159.0190  213.3600  152.7250 C   0  0  0  0  0  0  0  0  0  0  0  0
  159.9420  214.1270  152.4980 O   0  0  0  0  0  0  0  0  0  0  0  0
  161.5720  211.3520  156.0170 C   0  0  0  0  0  2  0  0  0  0  0  0
  161.8950  210.7650  157.2440 O   0  0  0  0  0  0  0  0  0  0  0  0
  163.2270  210.3790  157.1070 C   0  0  0  0  0  2  0  0  0  0  0  0
  164.1020  211.6150  157.0170 C   0  0  0  0  0  1  0  0  0  0  0  0
  159.4270  211.8040  157.1700 O   0  0  0  0  0  0  0  0  0  0  0  0
  158.2190  212.5160  157.0940 C   0  0  0  0  0  2  0  0  0  0  0  0
  157.0510  211.5600  157.2580 C   0  0  0  0  0  2  0  0  0  0  0  0
  155.8480  212.2570  157.1520 O   0  0  0  0  0  1  0  0  0  0  0  0
  1  3  1  6  0  0  0
  1 32  1  0  0  0  0
  2  3  2  0  0  0  0
  3  4  1  0  0  0  0
  5  6  1  1  0  0  0
  5  1  1  0  0  0  0
  8  7  1  1  0  0  0
  8  5  1  0  0  0  0
 10  9  1  6  0  0  0
 10  8  1  0  0  0  0
 11 10  1  0  0  0  0
 12 11  1  1  0  0  0
 12 22  1  0  0  0  0
 14 13  1  6  0  0  0
 14 12  1  0  0  0  0
 15 14  1  0  0  0  0
 16 15  1  0  0  0  0
 17 16  1  0  0  0  0
 17 19  1  0  0  0  0
 18 17  2  0  0  0  0
 19 20  2  0  0  0  0
 21 19  1  0  0  0  0
 22 23  1  0  0  0  0
 23 28  1  0  0  0  0
 24 27  1  0  0  0  0
 25 30  1  0  0  0  0
 26 28  1  0  0  0  0
 26 25  2  0  0  0  0
 28 24  2  0  0  0  0
 29 25  1  0  0  0  0
 30 27  2  0  0  0  0
 32 31  1  6  0  0  0
 32 33  1  0  0  0  0
 33 39  1  1  0  0  0
 33 35  1  0  0  0  0
 35 34  1  6  0  0  0
 36 37  2  0  0  0  0
 37 35  1  0  0  0  0
 38 37  1  0  0  0  0
 40 39  1  6  0  0  0
 40 48  1  0  0  0  0
 40 52  1  0  0  0  0
 42 41  1  1  0  0  0
 42 40  1  0  0  0  0
 43 44  1  1  0  0  0
 43 42  1  0  0  0  0
 45 46  1  0  0  0  0
 46 43  1  0  0  0  0
 47 46  2  0  0  0  0
 48 49  1  0  0  0  0
 50 49  1  0  0  0  0
 51 50  1  0  0  0  0
 53 52  1  0  0  0  0
 53 54  1  0  0  0  0
 55 54  1  0  0  0  0
M  END
>  <MODEL>
5

>  <REMARK>
 VINA RESULT:      -1.9      2.213      4.374
  Name = 
  29 active torsions:
  status: ('A' for Active; 'I' for Inactive)
    1  A    between atoms: C_1  and  C_30
    2  A    between atoms: O_2  and  C_28
    3  A    between atoms: O_2  and  C_44
    4  A    between atoms: C_6  and  C_8
    5  A    between atoms: C_6  and  O_20
    6  A    between atoms: C_6  and  C_38
    7  A    between atoms: C_6  and  C_46
    8  A    between atoms: C_7  and  C_8
    9  A    between atoms: C_7  and  C_23
   10  A    between atoms: C_7  and  C_43
   11  A    between atoms: C_10  and  C_32
   12  A    between atoms: C_11  and  C_29
   13  A    between atoms: C_11  and  C_38
   14  A    between atoms: C_12  and  O_14
   15  A    between atoms: O_14  and  C_46
   16  A    between atoms: C_16  and  C_17
   17  A    between atoms: C_16  and  C_26
   18  A    between atoms: C_17  and  C_23
   19  A    between atoms: C_17  and  C_37
   20  A    between atoms: O_20  and  C_30
   21  A    between atoms: C_26  and  C_45
   22  A    between atoms: C_28  and  C_33
   23  A    between atoms: C_32  and  O_39
   24  A    between atoms: C_33  and  C_49
   25  A    between atoms: C_33  and  C_52
   26  A    between atoms: C_34  and  O_39
   27  A    between atoms: C_34  and  C_52
   28  A    between atoms: C_35  and  C_43
   29  A    between atoms: C_45  and  C_49
                            x       y       z     vdW  Elec       q    Type
                         _______ _______ _______ _____ _____    ______ ____

>  <TORSDO>
F 29

$$$$
=
 OpenBabel11062409013D

 55 55  0  0  1  0  0  0  0  0999 V2000
  160.4080  209.5810  154.9060 C   0  0  2  0  0  3  0  0  0  0  0  0
  162.3020  209.4280  156.3780 O   0  0  0  0  0  0  0  0  0  0  0  0
  161.1170  209.8220  156.2090 C   0  0  0  0  0  0  0  0  0  0  0  0
  160.4490  210.5090  157.2590 N   0  0  0  0  0  1  0  0  0  0  0  0
  160.3340  208.0810  154.5640 C   0  0  2  0  0  3  0  0  0  0  0  0
  159.7640  207.2590  155.7180 C   0  0  0  0  0  1  0  0  0  0  0  0
  162.2610  208.4030  153.1860 O   0  0  0  0  0  1  0  0  0  0  0  0
  161.6610  207.4920  154.0590 C   0  0  2  0  0  3  0  0  0  0  0  0
  160.1770  205.6620  153.5410 O   0  0  0  0  0  1  0  0  0  0  0  0
  161.4860  206.1240  153.3880 C   0  0  1  0  0  3  0  0  0  0  0  0
  161.8060  206.2260  151.9060 C   0  0  0  0  0  2  0  0  0  0  0  0
  160.6460  205.7270  151.0460 C   0  0  1  0  0  3  0  0  0  0  0  0
  160.1520  205.4160  148.7170 O   0  0  0  0  0  1  0  0  0  0  0  0
  160.6690  206.3330  149.6360 C   0  0  2  0  0  3  0  0  0  0  0  0
  162.0710  206.7700  149.2100 C   0  0  0  0  0  2  0  0  0  0  0  0
  162.4170  206.2120  147.9470 O   0  0  0  0  0  0  0  0  0  0  0  0
  161.6910  206.4810  146.7820 C   0  0  0  0  0  0  0  0  0  0  0  0
  160.7910  207.3640  146.7730 O   0  0  0  0  0  0  0  0  0  0  0  0
  161.9930  205.7360  145.5550 C   0  0  0  0  0  0  0  0  0  0  0  0
  161.3470  205.9710  144.4980 O   0  0  0  0  0  0  0  0  0  0  0  0
  163.0040  204.7340  145.5550 N   0  0  0  0  0  1  0  0  0  0  0  0
  160.6490  204.2030  150.9930 C   0  0  0  0  0  2  0  0  0  0  0  0
  161.6680  203.7370  150.1200 O   0  0  0  0  0  0  0  0  0  0  0  0
  161.3220  201.4150  149.5770 C   0  0  0  0  0  3  0  0  0  0  0  0
  161.0710  202.0470  146.8630 C   0  0  0  0  0  0  0  0  0  0  0  0
  161.3090  203.0570  147.7980 C   0  0  0  0  0  3  0  0  0  0  0  0
  161.0840  200.4040  148.6420 C   0  0  0  0  0  3  0  0  0  0  0  0
  161.4350  202.7470  149.1640 C   0  0  0  0  0  0  0  0  0  0  0  0
  160.9500  202.3530  145.5500 F   0  0  0  0  0  0  0  0  0  0  0  0
  160.9570  200.7200  147.2860 C   0  0  0  0  0  3  0  0  0  0  0  0
  162.1080  211.1770  154.1680 O   0  0  0  0  0  1  0  0  0  0  0  0
  161.0490  210.3690  153.7470 C   0  0  2  0  0  3  0  0  0  0  0  0
  160.0850  211.1140  152.8090 C   0  0  2  0  0  3  0  0  0  0  0  0
  161.1690  212.5230  151.1540 O   0  0  0  0  0  1  0  0  0  0  0  0
  160.5480  211.2860  151.3540 C   0  0  1  0  0  3  0  0  0  0  0  0
  162.7870  210.1950  151.5320 O   0  0  0  0  0  1  0  0  0  0  0  0
  161.5090  210.1980  150.9950 C   0  0  0  0  0  0  0  0  0  0  0  0
  161.1760  209.2970  150.1780 O   0  0  0  0  0  0  0  0  0  0  0  0
  159.6870  212.4680  153.4080 C   0  0  0  0  0  2  0  0  0  0  0  0
  158.1780  212.6020  153.6510 C   0  0  2  0  0  0  0  0  0  0  0  0
  159.2270  213.8550  155.4920 O   0  0  0  0  0  1  0  0  0  0  0  0
  158.0240  213.3070  155.0320 C   0  0  2  0  0  3  0  0  0  0  0  0
  157.3830  212.4200  156.1110 C   0  0  1  0  0  3  0  0  0  0  0  0
  158.2960  212.1230  157.1250 O   0  0  0  0  0  1  0  0  0  0  0  0
  156.2480  214.4370  157.2590 C   0  0  0  0  0  1  0  0  0  0  0  0
  156.1610  213.0630  156.6940 C   0  0  0  0  0  0  0  0  0  0  0  0
  155.0890  212.4760  156.6950 O   0  0  0  0  0  0  0  0  0  0  0  0
  157.6300  211.1540  153.6850 C   0  0  0  0  0  2  0  0  0  0  0  0
  156.3020  211.0800  154.1140 O   0  0  0  0  0  0  0  0  0  0  0  0
  156.2200  209.8610  154.7860 C   0  0  0  0  0  2  0  0  0  0  0  0
  154.7800  209.6060  155.1880 C   0  0  0  0  0  1  0  0  0  0  0  0
  157.6500  213.3680  152.5720 O   0  0  0  0  0  0  0  0  0  0  0  0
  158.6670  213.8300  151.7220 C   0  0  0  0  0  2  0  0  0  0  0  0
  158.1930  213.7780  150.2820 C   0  0  0  0  0  2  0  0  0  0  0  0
  159.2540  214.0580  149.4210 O   0  0  0  0  0  1  0  0  0  0  0  0
  1  3  1  1  0  0  0
  3  2  2  0  0  0  0
  3  4  1  0  0  0  0
  5  1  1  0  0  0  0
  5  6  1  1  0  0  0
  8  7  1  6  0  0  0
  8  5  1  0  0  0  0
 10  9  1  6  0  0  0
 10  8  1  0  0  0  0
 11 10  1  0  0  0  0
 12 22  1  6  0  0  0
 12 11  1  0  0  0  0
 14 13  1  6  0  0  0
 14 12  1  0  0  0  0
 15 14  1  0  0  0  0
 16 15  1  0  0  0  0
 17 16  1  0  0  0  0
 18 17  2  0  0  0  0
 19 17  1  0  0  0  0
 20 19  2  0  0  0  0
 21 19  1  0  0  0  0
 23 22  1  0  0  0  0
 25 30  2  0  0  0  0
 25 26  1  0  0  0  0
 26 28  2  0  0  0  0
 27 24  2  0  0  0  0
 28 24  1  0  0  0  0
 28 23  1  0  0  0  0
 29 25  1  0  0  0  0
 30 27  1  0  0  0  0
 32 31  1  1  0  0  0
 32  1  1  0  0  0  0
 33 39  1  1  0  0  0
 33 32  1  0  0  0  0
 35 34  1  1  0  0  0
 35 33  1  0  0  0  0
 37 35  1  0  0  0  0
 37 36  1  0  0  0  0
 38 37  2  0  0  0  0
 40 39  1  6  0  0  0
 40 48  1  0  0  0  0
 40 42  1  0  0  0  0
 42 41  1  1  0  0  0
 42 43  1  0  0  0  0
 43 46  1  0  0  0  0
 43 44  1  1  0  0  0
 46 47  2  0  0  0  0
 46 45  1  0  0  0  0
 48 49  1  0  0  0  0
 49 50  1  0  0  0  0
 50 51  1  0  0  0  0
 52 40  1  0  0  0  0
 53 52  1  0  0  0  0
 54 53  1  0  0  0  0
 55 54  1  0  0  0  0
M  END
>  <MODEL>
6

>  <REMARK>
 VINA RESULT:      -1.3      2.557      4.789
  Name = 
  29 active torsions:
  status: ('A' for Active; 'I' for Inactive)
    1  A    between atoms: C_1  and  C_30
    2  A    between atoms: O_2  and  C_28
    3  A    between atoms: O_2  and  C_44
    4  A    between atoms: C_6  and  C_8
    5  A    between atoms: C_6  and  O_20
    6  A    between atoms: C_6  and  C_38
    7  A    between atoms: C_6  and  C_46
    8  A    between atoms: C_7  and  C_8
    9  A    between atoms: C_7  and  C_23
   10  A    between atoms: C_7  and  C_43
   11  A    between atoms: C_10  and  C_32
   12  A    between atoms: C_11  and  C_29
   13  A    between atoms: C_11  and  C_38
   14  A    between atoms: C_12  and  O_14
   15  A    between atoms: O_14  and  C_46
   16  A    between atoms: C_16  and  C_17
   17  A    between atoms: C_16  and  C_26
   18  A    between atoms: C_17  and  C_23
   19  A    between atoms: C_17  and  C_37
   20  A    between atoms: O_20  and  C_30
   21  A    between atoms: C_26  and  C_45
   22  A    between atoms: C_28  and  C_33
   23  A    between atoms: C_32  and  O_39
   24  A    between atoms: C_33  and  C_49
   25  A    between atoms: C_33  and  C_52
   26  A    between atoms: C_34  and  O_39
   27  A    between atoms: C_34  and  C_52
   28  A    between atoms: C_35  and  C_43
   29  A    between atoms: C_45  and  C_49
                            x       y       z     vdW  Elec       q    Type
                         _______ _______ _______ _____ _____    ______ ____

>  <TORSDO>
F 29

$$$$
=
 OpenBabel11062409013D

 55 55  0  0  1  0  0  0  0  0999 V2000
  161.3380  208.6190  151.7110 C   0  0  2  0  0  3  0  0  0  0  0  0
  160.3720  206.5350  152.4190 O   0  0  0  0  0  0  0  0  0  0  0  0
  161.3990  207.1510  152.0270 C   0  0  0  0  0  0  0  0  0  0  0  0
  162.6250  206.4470  151.8740 N   0  0  0  0  0  1  0  0  0  0  0  0
  162.6090  209.1010  150.9870 C   0  0  2  0  0  3  0  0  0  0  0  0
  163.1070  210.4360  151.5360 C   0  0  0  0  0  1  0  0  0  0  0  0
  161.8950  210.3550  149.0810 O   0  0  0  0  0  1  0  0  0  0  0  0
  162.4760  209.1410  149.4560 C   0  0  2  0  0  3  0  0  0  0  0  0
  160.5320  208.4020  148.2350 O   0  0  0  0  0  1  0  0  0  0  0  0
  161.6770  207.9570  148.8980 C   0  0  1  0  0  3  0  0  0  0  0  0
  162.5330  207.1610  147.9270 C   0  0  0  0  0  2  0  0  0  0  0  0
  162.3460  205.6560  148.1170 C   0  0  1  0  0  3  0  0  0  0  0  0
  160.1190  206.1380  147.3590 O   0  0  0  0  0  1  0  0  0  0  0  0
  160.8650  205.2560  148.1460 C   0  0  2  0  0  3  0  0  0  0  0  0
  160.2990  205.2120  149.5660 C   0  0  0  0  0  2  0  0  0  0  0  0
  159.9600  203.8810  149.9370 O   0  0  0  0  0  0  0  0  0  0  0  0
  160.8880  202.9960  150.4970 C   0  0  0  0  0  0  0  0  0  0  0  0
  161.7610  203.4060  151.3100 O   0  0  0  0  0  0  0  0  0  0  0  0
  160.8330  201.5730  150.1440 C   0  0  0  0  0  0  0  0  0  0  0  0
  160.1000  200.7870  150.8020 O   0  0  0  0  0  0  0  0  0  0  0  0
  161.6200  201.0710  149.0700 N   0  0  0  0  0  1  0  0  0  0  0  0
  163.1040  204.8930  147.0360 C   0  0  0  0  0  2  0  0  0  0  0  0
  162.3860  204.9200  145.8110 O   0  0  0  0  0  0  0  0  0  0  0  0
  161.6110  202.6480  146.0070 C   0  0  0  0  0  3  0  0  0  0  0  0
  159.4980  203.1760  144.2520 C   0  0  0  0  0  0  0  0  0  0  0  0
  160.4050  204.1870  144.5800 C   0  0  0  0  0  3  0  0  0  0  0  0
  160.7030  201.6360  145.6800 C   0  0  0  0  0  3  0  0  0  0  0  0
  161.4680  203.9280  145.4630 C   0  0  0  0  0  0  0  0  0  0  0  0
  158.4750  203.4320  143.4030 F   0  0  0  0  0  0  0  0  0  0  0  0
  159.6460  201.9010  144.8040 C   0  0  0  0  0  3  0  0  0  0  0  0
  161.3070  208.7630  154.1520 O   0  0  0  0  0  1  0  0  0  0  0  0
  161.0770  209.4700  152.9690 C   0  0  2  0  0  3  0  0  0  0  0  0
  159.7540  210.2510  153.0060 C   0  0  2  0  0  3  0  0  0  0  0  0
  161.1950  212.1980  153.1940 O   0  0  0  0  0  1  0  0  0  0  0  0
  159.8690  211.7840  153.0360 C   0  0  1  0  0  3  0  0  0  0  0  0
  160.1860  212.9750  150.8640 O   0  0  0  0  0  0  0  0  0  0  0  0
  159.3300  212.3590  151.7640 C   0  0  0  0  0  0  0  0  0  0  0  0
  158.0940  212.3160  151.5190 O   0  0  0  0  0  1  0  0  0  0  0  0
  158.8660  209.7580  154.1540 C   0  0  0  0  0  2  0  0  0  0  0  0
  159.2780  210.3190  155.5210 C   0  0  2  0  0  0  0  0  0  0  0  0
  158.1130  211.7360  157.1630 O   0  0  0  0  0  1  0  0  0  0  0  0
  158.3290  211.5240  155.7970 C   0  0  2  0  0  3  0  0  0  0  0  0
  156.9930  211.4440  155.0420 C   0  0  1  0  0  3  0  0  0  0  0  0
  156.0780  210.6380  155.7230 O   0  0  0  0  0  1  0  0  0  0  0  0
  155.9930  213.6320  155.9830 C   0  0  0  0  0  1  0  0  0  0  0  0
  156.4080  212.8060  154.8160 C   0  0  0  0  0  0  0  0  0  0  0  0
  156.2830  213.2510  153.6850 O   0  0  0  0  0  0  0  0  0  0  0  0
  160.7480  210.7760  155.3590 C   0  0  0  0  0  2  0  0  0  0  0  0
  161.0740  211.8710  156.1640 O   0  0  0  0  0  0  0  0  0  0  0  0
  162.0060  211.3720  157.0720 C   0  0  0  0  0  2  0  0  0  0  0  0
  163.2410  210.9100  156.3220 C   0  0  0  0  0  1  0  0  0  0  0  0
  159.1280  209.2630  156.4650 O   0  0  0  0  0  0  0  0  0  0  0  0
  160.3590  208.9040  157.0370 C   0  0  0  0  0  2  0  0  0  0  0  0
  160.4000  207.4030  157.2600 C   0  0  0  0  0  2  0  0  0  0  0  0
  159.4660  206.7750  156.4360 O   0  0  0  0  0  1  0  0  0  0  0  0
  1  3  1  1  0  0  0
  1 32  1  0  0  0  0
  3  2  2  0  0  0  0
  4  3  1  0  0  0  0
  5  6  1  1  0  0  0
  5  1  1  0  0  0  0
  8  7  1  1  0  0  0
  8  5  1  0  0  0  0
 10  9  1  6  0  0  0
 10  8  1  0  0  0  0
 11 12  1  0  0  0  0
 11 10  1  0  0  0  0
 12 22  1  6  0  0  0
 12 14  1  0  0  0  0
 14 13  1  6  0  0  0
 14 15  1  0  0  0  0
 15 16  1  0  0  0  0
 16 17  1  0  0  0  0
 17 18  2  0  0  0  0
 19 17  1  0  0  0  0
 19 20  2  0  0  0  0
 21 19  1  0  0  0  0
 23 22  1  0  0  0  0
 25 26  2  0  0  0  0
 25 30  1  0  0  0  0
 26 28  1  0  0  0  0
 27 24  1  0  0  0  0
 28 23  1  0  0  0  0
 28 24  2  0  0  0  0
 29 25  1  0  0  0  0
 30 27  2  0  0  0  0
 32 33  1  0  0  0  0
 32 31  1  1  0  0  0
 33 35  1  0  0  0  0
 33 39  1  1  0  0  0
 35 34  1  6  0  0  0
 36 37  2  0  0  0  0
 37 35  1  0  0  0  0
 38 37  1  0  0  0  0
 40 39  1  6  0  0  0
 40 42  1  0  0  0  0
 40 52  1  0  0  0  0
 42 41  1  1  0  0  0
 43 44  1  1  0  0  0
 43 42  1  0  0  0  0
 46 43  1  0  0  0  0
 46 45  1  0  0  0  0
 47 46  2  0  0  0  0
 48 40  1  0  0  0  0
 48 49  1  0  0  0  0
 49 50  1  0  0  0  0
 51 50  1  0  0  0  0
 52 53  1  0  0  0  0
 53 54  1  0  0  0  0
 55 54  1  0  0  0  0
M  END
>  <MODEL>
7

>  <REMARK>
 VINA RESULT:      -1.1      2.164      4.201
  Name = 
  29 active torsions:
  status: ('A' for Active; 'I' for Inactive)
    1  A    between atoms: C_1  and  C_30
    2  A    between atoms: O_2  and  C_28
    3  A    between atoms: O_2  and  C_44
    4  A    between atoms: C_6  and  C_8
    5  A    between atoms: C_6  and  O_20
    6  A    between atoms: C_6  and  C_38
    7  A    between atoms: C_6  and  C_46
    8  A    between atoms: C_7  and  C_8
    9  A    between atoms: C_7  and  C_23
   10  A    between atoms: C_7  and  C_43
   11  A    between atoms: C_10  and  C_32
   12  A    between atoms: C_11  and  C_29
   13  A    between atoms: C_11  and  C_38
   14  A    between atoms: C_12  and  O_14
   15  A    between atoms: O_14  and  C_46
   16  A    between atoms: C_16  and  C_17
   17  A    between atoms: C_16  and  C_26
   18  A    between atoms: C_17  and  C_23
   19  A    between atoms: C_17  and  C_37
   20  A    between atoms: O_20  and  C_30
   21  A    between atoms: C_26  and  C_45
   22  A    between atoms: C_28  and  C_33
   23  A    between atoms: C_32  and  O_39
   24  A    between atoms: C_33  and  C_49
   25  A    between atoms: C_33  and  C_52
   26  A    between atoms: C_34  and  O_39
   27  A    between atoms: C_34  and  C_52
   28  A    between atoms: C_35  and  C_43
   29  A    between atoms: C_45  and  C_49
                            x       y       z     vdW  Elec       q    Type
                         _______ _______ _______ _____ _____    ______ ____

>  <TORSDO>
F 29

$$$$
=
 OpenBabel11062409013D

 55 55  0  0  1  0  0  0  0  0999 V2000
  161.6950  207.7250  152.5320 C   0  0  2  0  0  3  0  0  0  0  0  0
  162.3650  209.9940  152.1080 O   0  0  0  0  0  0  0  0  0  0  0  0
  162.3070  208.8080  151.6880 C   0  0  0  0  0  0  0  0  0  0  0  0
  162.8350  208.4880  150.4080 N   0  0  0  0  0  1  0  0  0  0  0  0
  161.2700  206.5110  151.6860 C   0  0  2  0  0  3  0  0  0  0  0  0
  160.2770  206.8970  150.5920 C   0  0  0  0  0  1  0  0  0  0  0  0
  161.2340  205.4390  153.8220 O   0  0  0  0  0  1  0  0  0  0  0  0
  160.7550  205.3230  152.5150 C   0  0  2  0  0  3  0  0  0  0  0  0
  160.8400  202.9290  152.7960 O   0  0  0  0  0  1  0  0  0  0  0  0
  161.1370  203.9660  151.9100 C   0  0  1  0  0  3  0  0  0  0  0  0
  160.3780  203.7420  150.6120 C   0  0  0  0  0  2  0  0  0  0  0  0
  161.2320  203.0040  149.5830 C   0  0  1  0  0  3  0  0  0  0  0  0
  159.3390  201.5270  149.5870 O   0  0  0  0  0  1  0  0  0  0  0  0
  160.4290  201.9430  148.8180 C   0  0  2  0  0  3  0  0  0  0  0  0
  161.2820  200.7380  148.4190 C   0  0  0  0  0  2  0  0  0  0  0  0
  161.0400  200.3680  147.0660 O   0  0  0  0  0  0  0  0  0  0  0  0
  160.9510  201.3070  146.0340 C   0  0  0  0  0  0  0  0  0  0  0  0
  161.7850  202.2500  145.9460 O   0  0  0  0  0  0  0  0  0  0  0  0
  159.8840  201.1850  145.0350 C   0  0  0  0  0  0  0  0  0  0  0  0
  159.2210  202.2000  144.6910 O   0  0  0  0  0  0  0  0  0  0  0  0
  159.5800  199.9170  144.4630 N   0  0  0  0  0  1  0  0  0  0  0  0
  161.8830  203.9990  148.6290 C   0  0  0  0  0  2  0  0  0  0  0  0
  160.8930  204.7580  147.9510 O   0  0  0  0  0  0  0  0  0  0  0  0
  159.9060  205.1890  145.7950 C   0  0  0  0  0  3  0  0  0  0  0  0
  162.4030  205.8960  144.7500 C   0  0  0  0  0  0  0  0  0  0  0  0
  162.2890  205.5040  146.0860 C   0  0  0  0  0  3  0  0  0  0  0  0
  160.0200  205.5810  144.4580 C   0  0  0  0  0  3  0  0  0  0  0  0
  161.0360  205.1490  146.6180 C   0  0  0  0  0  0  0  0  0  0  0  0
  163.6120  206.2380  144.2450 F   0  0  0  0  0  0  0  0  0  0  0  0
  161.2680  205.9360  143.9370 C   0  0  0  0  0  3  0  0  0  0  0  0
  159.6540  209.0700  152.6260 O   0  0  0  0  0  1  0  0  0  0  0  0
  160.5070  208.2460  153.3640 C   0  0  2  0  0  3  0  0  0  0  0  0
  160.8440  208.8420  154.7410 C   0  0  2  0  0  3  0  0  0  0  0  0
  161.6540  208.5030  157.0060 O   0  0  0  0  0  1  0  0  0  0  0  0
  161.3390  207.8530  155.8090 C   0  0  1  0  0  3  0  0  0  0  0  0
  159.4020  206.4580  155.0740 O   0  0  0  0  0  0  0  0  0  0  0  0
  160.2850  206.8260  156.0780 C   0  0  0  0  0  0  0  0  0  0  0  0
  160.1710  206.3150  157.2250 O   0  0  0  0  0  1  0  0  0  0  0  0
  159.6660  209.6630  155.2780 C   0  0  0  0  0  2  0  0  0  0  0  0
  160.0930  210.9960  155.9060 C   0  0  2  0  0  0  0  0  0  0  0  0
  157.6510  211.2190  156.1220 O   0  0  0  0  0  1  0  0  0  0  0  0
  158.8750  211.4890  156.7430 C   0  0  2  0  0  3  0  0  0  0  0  0
  158.9630  212.9680  157.1510 C   0  0  1  0  0  3  0  0  0  0  0  0
  160.2640  213.4540  157.0010 O   0  0  0  0  0  1  0  0  0  0  0  0
  156.6920  214.1830  156.9530 C   0  0  0  0  0  1  0  0  0  0  0  0
  158.0070  213.8120  156.3630 C   0  0  0  0  0  0  0  0  0  0  0  0
  158.3030  214.2140  155.2480 O   0  0  0  0  0  0  0  0  0  0  0  0
  160.3880  211.9420  154.7150 C   0  0  0  0  0  2  0  0  0  0  0  0
  159.3260  212.0320  153.8110 O   0  0  0  0  0  0  0  0  0  0  0  0
  159.9320  212.3170  152.5880 C   0  0  0  0  0  2  0  0  0  0  0  0
  160.0430  213.8200  152.4200 C   0  0  0  0  0  1  0  0  0  0  0  0
  161.2450  210.7310  156.6990 O   0  0  0  0  0  0  0  0  0  0  0  0
  162.2480  211.6910  156.4890 C   0  0  0  0  0  2  0  0  0  0  0  0
  163.5970  211.1130  156.8750 C   0  0  0  0  0  2  0  0  0  0  0  0
  164.5000  212.1440  157.1330 O   0  0  0  0  0  1  0  0  0  0  0  0
  1  3  1  6  0  0  0
  1 32  1  0  0  0  0
  3  2  2  0  0  0  0
  4  3  1  0  0  0  0
  5  6  1  6  0  0  0
  5  8  1  0  0  0  0
  5  1  1  0  0  0  0
  8  7  1  1  0  0  0
 10  8  1  0  0  0  0
 10  9  1  1  0  0  0
 11 10  1  0  0  0  0
 12 22  1  6  0  0  0
 12 11  1  0  0  0  0
 14 12  1  0  0  0  0
 14 13  1  1  0  0  0
 15 14  1  0  0  0  0
 16 15  1  0  0  0  0
 17 16  1  0  0  0  0
 18 17  2  0  0  0  0
 19 17  1  0  0  0  0
 20 19  2  0  0  0  0
 21 19  1  0  0  0  0
 23 22  1  0  0  0  0
 24 28  1  0  0  0  0
 25 26  1  0  0  0  0
 26 28  2  0  0  0  0
 27 24  2  0  0  0  0
 28 23  1  0  0  0  0
 29 25  1  0  0  0  0
 30 27  1  0  0  0  0
 30 25  2  0  0  0  0
 32 31  1  6  0  0  0
 32 33  1  0  0  0  0
 33 39  1  1  0  0  0
 33 35  1  0  0  0  0
 35 37  1  0  0  0  0
 35 34  1  1  0  0  0
 36 37  2  0  0  0  0
 37 38  1  0  0  0  0
 39 40  1  0  0  0  0
 40 48  1  6  0  0  0
 40 52  1  0  0  0  0
 40 42  1  0  0  0  0
 42 41  1  6  0  0  0
 42 43  1  0  0  0  0
 43 44  1  6  0  0  0
 46 45  1  0  0  0  0
 46 43  1  0  0  0  0
 47 46  2  0  0  0  0
 49 48  1  0  0  0  0
 50 49  1  0  0  0  0
 51 50  1  0  0  0  0
 53 52  1  0  0  0  0
 53 54  1  0  0  0  0
 54 55  1  0  0  0  0
M  END
>  <MODEL>
8

>  <REMARK>
 VINA RESULT:      -0.5      1.749      2.303
  Name = 
  29 active torsions:
  status: ('A' for Active; 'I' for Inactive)
    1  A    between atoms: C_1  and  C_30
    2  A    between atoms: O_2  and  C_28
    3  A    between atoms: O_2  and  C_44
    4  A    between atoms: C_6  and  C_8
    5  A    between atoms: C_6  and  O_20
    6  A    between atoms: C_6  and  C_38
    7  A    between atoms: C_6  and  C_46
    8  A    between atoms: C_7  and  C_8
    9  A    between atoms: C_7  and  C_23
   10  A    between atoms: C_7  and  C_43
   11  A    between atoms: C_10  and  C_32
   12  A    between atoms: C_11  and  C_29
   13  A    between atoms: C_11  and  C_38
   14  A    between atoms: C_12  and  O_14
   15  A    between atoms: O_14  and  C_46
   16  A    between atoms: C_16  and  C_17
   17  A    between atoms: C_16  and  C_26
   18  A    between atoms: C_17  and  C_23
   19  A    between atoms: C_17  and  C_37
   20  A    between atoms: O_20  and  C_30
   21  A    between atoms: C_26  and  C_45
   22  A    between atoms: C_28  and  C_33
   23  A    between atoms: C_32  and  O_39
   24  A    between atoms: C_33  and  C_49
   25  A    between atoms: C_33  and  C_52
   26  A    between atoms: C_34  and  O_39
   27  A    between atoms: C_34  and  C_52
   28  A    between atoms: C_35  and  C_43
   29  A    between atoms: C_45  and  C_49
                            x       y       z     vdW  Elec       q    Type
                         _______ _______ _______ _____ _____    ______ ____

>  <TORSDO>
F 29

$$$$
=
 OpenBabel11062409013D

 55 55  0  0  1  0  0  0  0  0999 V2000
  161.5130  206.1700  150.4810 C   0  0  2  0  0  3  0  0  0  0  0  0
  160.4290  207.2770  148.6430 O   0  0  0  0  0  0  0  0  0  0  0  0
  161.2440  207.3580  149.6010 C   0  0  0  0  0  0  0  0  0  0  0  0
  161.9070  208.5890  149.8580 N   0  0  0  0  0  1  0  0  0  0  0  0
  162.2670  206.5670  151.7640 C   0  0  2  0  0  3  0  0  0  0  0  0
  163.4430  205.6350  152.0470 C   0  0  0  0  0  1  0  0  0  0  0  0
  160.1790  206.0000  152.7820 O   0  0  0  0  0  1  0  0  0  0  0  0
  161.3610  206.7130  152.9980 C   0  0  2  0  0  3  0  0  0  0  0  0
  160.1440  208.7200  152.4420 O   0  0  0  0  0  1  0  0  0  0  0  0
  161.0610  208.1780  153.3440 C   0  0  1  0  0  3  0  0  0  0  0  0
  160.4920  208.2750  154.7490 C   0  0  0  0  0  2  0  0  0  0  0  0
  161.0880  209.4540  155.5160 C   0  0  1  0  0  3  0  0  0  0  0  0
  162.9770  210.8730  155.0920 O   0  0  0  0  0  1  0  0  0  0  0  0
  161.7360  210.4850  154.5820 C   0  0  2  0  0  3  0  0  0  0  0  0
  160.8500  211.7120  154.3610 C   0  0  0  0  0  2  0  0  0  0  0  0
  160.1140  211.5970  153.1490 O   0  0  0  0  0  0  0  0  0  0  0  0
  159.6960  212.7110  152.4140 C   0  0  0  0  0  0  0  0  0  0  0  0
  160.1480  212.9250  151.2550 O   0  0  0  0  0  0  0  0  0  0  0  0
  158.7100  213.6310  152.9920 C   0  0  0  0  0  0  0  0  0  0  0  0
  158.8720  214.0760  154.1600 O   0  0  0  0  0  0  0  0  0  0  0  0
  157.5600  214.0110  152.2450 N   0  0  0  0  0  1  0  0  0  0  0  0
  160.0240  210.0980  156.3980 C   0  0  0  0  0  2  0  0  0  0  0  0
  158.7460  210.0070  155.7840 O   0  0  0  0  0  0  0  0  0  0  0  0
  157.8420  211.9170  156.9410 C   0  0  0  0  0  3  0  0  0  0  0  0
  155.9220  212.2720  154.9370 C   0  0  0  0  0  0  0  0  0  0  0  0
  156.8430  211.2250  154.8470 C   0  0  0  0  0  3  0  0  0  0  0  0
  156.9210  212.9650  157.0310 C   0  0  0  0  0  3  0  0  0  0  0  0
  157.8110  211.0420  155.8500 C   0  0  0  0  0  0  0  0  0  0  0  0
  154.9930  212.4430  153.9670 F   0  0  0  0  0  0  0  0  0  0  0  0
  155.9630  213.1430  156.0290 C   0  0  0  0  0  3  0  0  0  0  0  0
  163.0230  205.5480  148.6600 O   0  0  0  0  0  1  0  0  0  0  0  0
  162.2710  205.0580  149.7310 C   0  0  2  0  0  3  0  0  0  0  0  0
  161.4570  203.8110  149.3480 C   0  0  2  0  0  3  0  0  0  0  0  0
  162.5200  202.3660  150.9860 O   0  0  0  0  0  1  0  0  0  0  0  0
  161.2880  202.7440  150.4420 C   0  0  1  0  0  3  0  0  0  0  0  0
  159.2330  203.9250  151.2290 O   0  0  0  0  0  0  0  0  0  0  0  0
  160.4180  203.2740  151.5380 C   0  0  0  0  0  0  0  0  0  0  0  0
  160.7700  203.1620  152.7430 O   0  0  0  0  0  1  0  0  0  0  0  0
  162.0070  203.1780  148.0650 C   0  0  0  0  0  2  0  0  0  0  0  0
  160.9530  202.3850  147.2810 C   0  0  2  0  0  0  0  0  0  0  0  0
  160.4040  202.4220  144.8820 O   0  0  0  0  0  1  0  0  0  0  0  0
  160.6440  203.2220  146.0040 C   0  0  2  0  0  3  0  0  0  0  0  0
  161.7060  204.2890  145.6930 C   0  0  1  0  0  3  0  0  0  0  0  0
  162.7590  203.7500  144.9510 O   0  0  0  0  0  1  0  0  0  0  0  0
  160.0940  206.3080  145.6420 C   0  0  0  0  0  1  0  0  0  0  0  0
  161.1120  205.4580  144.9650 C   0  0  0  0  0  0  0  0  0  0  0  0
  161.4660  205.7290  143.8280 O   0  0  0  0  0  0  0  0  0  0  0  0
  159.7220  202.2910  148.2150 C   0  0  0  0  0  2  0  0  0  0  0  0
  158.8380  201.2700  147.8550 O   0  0  0  0  0  0  0  0  0  0  0  0
  158.1330  200.9900  149.0250 C   0  0  0  0  0  2  0  0  0  0  0  0
  159.1070  200.5690  150.1090 C   0  0  0  0  0  1  0  0  0  0  0  0
  161.5240  201.1130  146.9890 O   0  0  0  0  0  0  0  0  0  0  0  0
  161.0070  200.5760  145.7990 C   0  0  0  0  0  2  0  0  0  0  0  0
  160.9190  199.0650  145.9160 C   0  0  0  0  0  2  0  0  0  0  0  0
  162.1060  198.4840  145.4720 O   0  0  0  0  0  1  0  0  0  0  0  0
  1  3  1  6  0  0  0
  1  5  1  0  0  0  0
  2  3  2  0  0  0  0
  3  4  1  0  0  0  0
  5  6  1  1  0  0  0
  5  8  1  0  0  0  0
  8  7  1  6  0  0  0
  8 10  1  0  0  0  0
 10  9  1  6  0  0  0
 10 11  1  0  0  0  0
 12 11  1  6  0  0  0
 12 22  1  0  0  0  0
 14 13  1  1  0  0  0
 14 12  1  0  0  0  0
 15 14  1  0  0  0  0
 16 15  1  0  0  0  0
 17 19  1  0  0  0  0
 17 16  1  0  0  0  0
 18 17  2  0  0  0  0
 19 20  2  0  0  0  0
 21 19  1  0  0  0  0
 23 28  1  0  0  0  0
 23 22  1  0  0  0  0
 24 27  1  0  0  0  0
 25 30  1  0  0  0  0
 26 25  2  0  0  0  0
 26 28  1  0  0  0  0
 28 24  2  0  0  0  0
 29 25  1  0  0  0  0
 30 27  2  0  0  0  0
 32 31  1  6  0  0  0
 32  1  1  0  0  0  0
 33 39  1  6  0  0  0
 33 32  1  0  0  0  0
 33 35  1  0  0  0  0
 35 34  1  1  0  0  0
 35 37  1  0  0  0  0
 36 37  2  0  0  0  0
 37 38  1  0  0  0  0
 40 39  1  1  0  0  0
 40 48  1  0  0  0  0
 42 41  1  6  0  0  0
 42 40  1  0  0  0  0
 43 44  1  6  0  0  0
 43 42  1  0  0  0  0
 46 45  1  0  0  0  0
 46 43  1  0  0  0  0
 47 46  2  0  0  0  0
 49 48  1  0  0  0  0
 49 50  1  0  0  0  0
 50 51  1  0  0  0  0
 52 40  1  0  0  0  0
 53 54  1  0  0  0  0
 53 52  1  0  0  0  0
 55 54  1  0  0  0  0
M  END
>  <MODEL>
9

>  <REMARK>
 VINA RESULT:      -0.5      2.988     11.480
  Name = 
  29 active torsions:
  status: ('A' for Active; 'I' for Inactive)
    1  A    between atoms: C_1  and  C_30
    2  A    between atoms: O_2  and  C_28
    3  A    between atoms: O_2  and  C_44
    4  A    between atoms: C_6  and  C_8
    5  A    between atoms: C_6  and  O_20
    6  A    between atoms: C_6  and  C_38
    7  A    between atoms: C_6  and  C_46
    8  A    between atoms: C_7  and  C_8
    9  A    between atoms: C_7  and  C_23
   10  A    between atoms: C_7  and  C_43
   11  A    between atoms: C_10  and  C_32
   12  A    between atoms: C_11  and  C_29
   13  A    between atoms: C_11  and  C_38
   14  A    between atoms: C_12  and  O_14
   15  A    between atoms: O_14  and  C_46
   16  A    between atoms: C_16  and  C_17
   17  A    between atoms: C_16  and  C_26
   18  A    between atoms: C_17  and  C_23
   19  A    between atoms: C_17  and  C_37
   20  A    between atoms: O_20  and  C_30
   21  A    between atoms: C_26  and  C_45
   22  A    between atoms: C_28  and  C_33
   23  A    between atoms: C_32  and  O_39
   24  A    between atoms: C_33  and  C_49
   25  A    between atoms: C_33  and  C_52
   26  A    between atoms: C_34  and  O_39
   27  A    between atoms: C_34  and  C_52
   28  A    between atoms: C_35  and  C_43
   29  A    between atoms: C_45  and  C_49
                            x       y       z     vdW  Elec       q    Type
                         _______ _______ _______ _____ _____    ______ ____

>  <TORSDO>
F 29

$$$$
