=
 OpenBabel11062407503D

 34 38  0  0  1  0  0  0  0  0999 V2000
  159.7270  213.1420  151.2640 C   0  0  2  0  0  3  0  0  0  0  0  0
  161.1930  212.4710  149.2940 C   0  0  0  0  0  0  0  0  0  0  0  0
  160.9540  210.8340  151.1340 C   0  0  0  0  0  0  0  0  0  0  0  0
  162.9560  207.6760  150.3240 C   0  0  0  0  0  1  0  0  0  0  0  0
  160.8380  213.6980  148.7120 O   0  0  0  0  0  1  0  0  0  0  0  0
  162.4850  210.3720  149.2450 C   0  0  0  0  0  3  0  0  0  0  0  0
  160.5640  212.0810  150.4810 C   0  0  0  0  0  0  0  0  0  0  0  0
  161.7960  208.4930  150.8790 C   0  0  1  0  0  0  0  0  0  0  0  0
  160.4290  210.4620  152.3930 N   0  0  0  0  0  0  0  0  0  0  0  0
  159.3540  212.6700  152.7340 C   0  0  0  0  0  2  0  0  0  0  0  0
  162.2030  211.6630  148.7250 C   0  0  0  0  0  3  0  0  0  0  0  0
  162.0110  208.5350  152.4020 C   0  0  0  0  0  2  0  0  0  0  0  0
  160.7530  209.1190  153.0290 C   0  0  1  0  0  3  0  0  0  0  0  0
  161.8630  209.9270  150.3920 C   0  0  0  0  0  0  0  0  0  0  0  0
  159.2110  211.1400  152.8530 C   0  0  0  0  0  2  0  0  0  0  0  0
  162.1190  209.6760  156.6200 C   0  0  0  0  0  0  0  0  0  0  0  0
  161.5820  208.3940  157.2580 C   0  0  0  0  0  2  0  0  0  0  0  0
  160.8320  209.1360  154.5310 C   0  0  2  0  0  3  0  0  0  0  0  0
  160.5440  207.5820  156.5110 C   0  0  0  0  0  2  0  0  0  0  0  0
  161.8080  210.1280  155.2410 C   0  0  0  0  0  2  0  0  0  0  0  0
  160.8310  207.6700  155.0200 C   0  0  0  0  0  2  0  0  0  0  0  0
  163.1270  210.2840  157.2060 N   0  0  0  0  0  2  0  0  0  0  0  0
  157.9330  214.2040  151.5670 C   0  0  0  0  0  1  0  0  0  0  0  0
  158.6260  213.5780  150.5360 O   0  0  0  0  0  0  0  0  0  0  0  0
  160.4340  207.7770  150.5410 C   0  0  0  0  0  2  0  0  0  0  0  0
  160.7020  206.6050  149.6680 C   0  0  0  0  0  2  0  0  0  0  0  0
  160.7100  205.4520  150.4910 O   0  0  0  0  0  0  0  0  0  0  0  0
  160.3570  201.7610  150.1430 C   0  0  0  0  0  3  0  0  0  0  0  0
  161.0110  204.2430  149.8970 C   0  0  0  0  0  0  0  0  0  0  0  0
  161.1740  202.9290  150.6730 C   0  0  0  0  0  2  0  0  0  0  0  0
  161.1290  201.8700  147.7230 C   0  0  0  0  0  3  0  0  0  0  0  0
  161.4980  203.1950  147.5970 C   0  0  0  0  0  3  0  0  0  0  0  0
  161.1650  204.3190  148.5030 C   0  0  0  0  0  3  0  0  0  0  0  0
  160.3310  201.2980  148.8270 C   0  0  0  0  0  3  0  0  0  0  0  0
  1 24  1  6  0  0  0
  1 10  1  0  0  0  0
  2  7  1  0  0  0  0
  3  9  1  0  0  0  0
  5  2  1  0  0  0  0
  6 14  2  0  0  0  0
  7  3  2  0  0  0  0
  7  1  1  0  0  0  0
  8  4  1  6  0  0  0
  8 12  1  0  0  0  0
  9 15  1  0  0  0  0
  9 13  1  0  0  0  0
 10 15  1  0  0  0  0
 11  6  1  0  0  0  0
 11  2  2  0  0  0  0
 13 12  1  6  0  0  0
 13 18  1  0  0  0  0
 14  8  1  0  0  0  0
 14  3  1  0  0  0  0
 16 22  2  0  0  0  0
 16 17  1  0  0  0  0
 18 21  1  6  0  0  0
 18 20  1  0  0  0  0
 19 17  1  0  0  0  0
 20 16  1  0  0  0  0
 21 19  1  0  0  0  0
 24 23  1  0  0  0  0
 25  8  1  0  0  0  0
 26 27  1  0  0  0  0
 26 25  1  0  0  0  0
 28 30  1  0  0  0  0
 29 27  1  0  0  0  0
 29 30  1  0  0  0  0
 31 34  1  0  0  0  0
 32 31  2  0  0  0  0
 32 33  1  0  0  0  0
 33 29  2  0  0  0  0
 34 28  2  0  0  0  0
M  END
>  <MODEL>
1

>  <REMARK>
 VINA RESULT:      -6.8      0.000      0.000
  Name = 
  6 active torsions:
  status: ('A' for Active; 'I' for Inactive)
    1  A    between atoms: C_1  and  O_19
    2  A    between atoms: O_3  and  C_13
    3  A    between atoms: O_3  and  C_17
    4  A    between atoms: C_12  and  C_28
    5  A    between atoms: C_17  and  C_29
    6  A    between atoms: C_18  and  C_29
                            x       y       z     vdW  Elec       q    Type
                         _______ _______ _______ _____ _____    ______ ____

>  <TORSDO>
F 6

$$$$
=
 OpenBabel11062407503D

 34 38  0  0  1  0  0  0  0  0999 V2000
  161.5130  212.2870  148.7410 C   0  0  2  0  0  3  0  0  0  0  0  0
  159.5270  213.6090  149.6280 C   0  0  0  0  0  0  0  0  0  0  0  0
  160.3020  211.6910  150.9840 C   0  0  0  0  0  0  0  0  0  0  0  0
  158.1500  211.3770  154.1310 C   0  0  0  0  0  1  0  0  0  0  0  0
  159.6920  214.4530  148.5170 O   0  0  0  0  0  1  0  0  0  0  0  0
  158.2780  212.9510  151.6490 C   0  0  0  0  0  3  0  0  0  0  0  0
  160.4810  212.6150  149.8670 C   0  0  0  0  0  0  0  0  0  0  0  0
  159.4220  211.3220  153.2960 C   0  0  1  0  0  0  0  0  0  0  0  0
  161.1790  210.6010  151.1900 N   0  0  0  0  0  0  0  0  0  0  0  0
  162.3070  210.9370  149.0080 C   0  0  0  0  0  2  0  0  0  0  0  0
  158.3930  213.7240  150.4630 C   0  0  0  0  0  3  0  0  0  0  0  0
  159.6710  209.8290  153.0190 C   0  0  0  0  0  2  0  0  0  0  0  0
  161.0590  209.6980  152.4080 C   0  0  1  0  0  3  0  0  0  0  0  0
  159.2140  211.9830  151.9480 C   0  0  0  0  0  0  0  0  0  0  0  0
  162.4790  210.6310  150.5090 C   0  0  0  0  0  2  0  0  0  0  0  0
  161.1610  206.1580  150.8190 C   0  0  0  0  0  0  0  0  0  0  0  0
  161.2550  205.3430  152.1090 C   0  0  0  0  0  2  0  0  0  0  0  0
  161.4310  208.2610  152.1650 C   0  0  2  0  0  3  0  0  0  0  0  0
  161.5820  206.0570  153.4050 C   0  0  0  0  0  2  0  0  0  0  0  0
  161.2240  207.6390  150.7470 C   0  0  0  0  0  2  0  0  0  0  0  0
  160.9450  207.4370  153.3800 C   0  0  0  0  0  2  0  0  0  0  0  0
  160.7260  205.5530  149.7340 N   0  0  0  0  0  2  0  0  0  0  0  0
  163.2170  212.7340  147.5860 C   0  0  0  0  0  1  0  0  0  0  0  0
  162.3470  213.3650  148.4690 O   0  0  0  0  0  0  0  0  0  0  0  0
  160.6220  211.9310  154.1160 C   0  0  0  0  0  2  0  0  0  0  0  0
  160.0920  212.6000  155.3320 C   0  0  0  0  0  2  0  0  0  0  0  0
  160.9080  212.2100  156.4230 O   0  0  0  0  0  0  0  0  0  0  0  0
  159.3000  208.8530  156.5240 C   0  0  0  0  0  3  0  0  0  0  0  0
  160.8470  210.8920  156.8290 C   0  0  0  0  0  0  0  0  0  0  0  0
  159.5460  210.1810  157.2230 C   0  0  0  0  0  2  0  0  0  0  0  0
  161.5250  207.7540  157.0770 C   0  0  0  0  0  3  0  0  0  0  0  0
  162.3490  208.8470  157.2610 C   0  0  0  0  0  3  0  0  0  0  0  0
  162.0970  210.2500  156.8590 C   0  0  0  0  0  3  0  0  0  0  0  0
  160.1860  207.7780  156.4510 C   0  0  0  0  0  3  0  0  0  0  0  0
  1 24  1  1  0  0  0
  1 10  1  0  0  0  0
  1  7  1  0  0  0  0
  2  7  2  0  0  0  0
  2 11  1  0  0  0  0
  3  9  1  0  0  0  0
  3 14  2  0  0  0  0
  5  2  1  0  0  0  0
  6 14  1  0  0  0  0
  7  3  1  0  0  0  0
  8 25  1  0  0  0  0
  8  4  1  1  0  0  0
  9 13  1  0  0  0  0
 10 15  1  0  0  0  0
 11  6  2  0  0  0  0
 12  8  1  0  0  0  0
 13 12  1  6  0  0  0
 14  8  1  0  0  0  0
 15  9  1  0  0  0  0
 16 17  1  0  0  0  0
 17 19  1  0  0  0  0
 18 20  1  6  0  0  0
 18 13  1  0  0  0  0
 18 21  1  0  0  0  0
 20 16  1  0  0  0  0
 21 19  1  0  0  0  0
 22 16  2  0  0  0  0
 23 24  1  0  0  0  0
 25 26  1  0  0  0  0
 26 27  1  0  0  0  0
 27 29  1  0  0  0  0
 28 30  1  0  0  0  0
 29 33  2  0  0  0  0
 29 30  1  0  0  0  0
 31 32  2  0  0  0  0
 33 32  1  0  0  0  0
 34 28  2  0  0  0  0
 34 31  1  0  0  0  0
M  END
>  <MODEL>
2

>  <REMARK>
 VINA RESULT:      -6.1      2.769      6.425
  Name = 
  6 active torsions:
  status: ('A' for Active; 'I' for Inactive)
    1  A    between atoms: C_1  and  O_19
    2  A    between atoms: O_3  and  C_13
    3  A    between atoms: O_3  and  C_17
    4  A    between atoms: C_12  and  C_28
    5  A    between atoms: C_17  and  C_29
    6  A    between atoms: C_18  and  C_29
                            x       y       z     vdW  Elec       q    Type
                         _______ _______ _______ _____ _____    ______ ____

>  <TORSDO>
F 6

$$$$
=
 OpenBabel11062407503D

 34 38  0  0  1  0  0  0  0  0999 V2000
  160.0440  213.0610  150.6400 C   0  0  2  0  0  3  0  0  0  0  0  0
  161.4690  211.9620  148.8390 C   0  0  0  0  0  0  0  0  0  0  0  0
  161.1350  210.7000  150.9420 C   0  0  0  0  0  0  0  0  0  0  0  0
  162.9500  207.3390  150.7360 C   0  0  0  0  0  1  0  0  0  0  0  0
  161.1860  213.0820  148.0410 O   0  0  0  0  0  1  0  0  0  0  0  0
  162.6370  209.8180  149.1830 C   0  0  0  0  0  3  0  0  0  0  0  0
  160.8180  211.8290  150.0700 C   0  0  0  0  0  0  0  0  0  0  0  0
  161.8390  208.3070  151.1220 C   0  0  1  0  0  0  0  0  0  0  0  0
  160.5890  210.5930  152.2410 N   0  0  0  0  0  0  0  0  0  0  0  0
  159.6440  212.8840  152.1670 C   0  0  0  0  0  2  0  0  0  0  0  0
  162.4300  211.0080  148.4360 C   0  0  0  0  0  3  0  0  0  0  0  0
  162.0560  208.6120  152.6140 C   0  0  0  0  0  2  0  0  0  0  0  0
  160.8340  209.3710  153.1120 C   0  0  1  0  0  3  0  0  0  0  0  0
  161.9900  209.6240  150.3850 C   0  0  0  0  0  0  0  0  0  0  0  0
  159.4120  211.4110  152.5580 C   0  0  0  0  0  2  0  0  0  0  0  0
  159.9030  210.6750  156.6480 C   0  0  0  0  0  0  0  0  0  0  0  0
  161.2990  211.1080  157.0950 C   0  0  0  0  0  2  0  0  0  0  0  0
  160.9140  209.6550  154.5870 C   0  0  2  0  0  3  0  0  0  0  0  0
  162.5000  210.6520  156.2920 C   0  0  0  0  0  2  0  0  0  0  0  0
  159.6050  209.9490  155.3880 C   0  0  0  0  0  2  0  0  0  0  0  0
  162.1160  210.5970  154.8220 C   0  0  0  0  0  2  0  0  0  0  0  0
  158.8640  211.2020  157.2600 N   0  0  0  0  0  2  0  0  0  0  0  0
  158.3480  214.3070  150.7040 C   0  0  0  0  0  1  0  0  0  0  0  0
  158.9710  213.4200  149.8330 O   0  0  0  0  0  0  0  0  0  0  0  0
  160.4380  207.6220  150.9030 C   0  0  0  0  0  2  0  0  0  0  0  0
  160.6440  206.2160  150.4680 C   0  0  0  0  0  2  0  0  0  0  0  0
  160.1140  206.0910  149.1600 O   0  0  0  0  0  0  0  0  0  0  0  0
  161.2880  203.1440  147.2100 C   0  0  0  0  0  3  0  0  0  0  0  0
  160.9090  205.4930  148.2030 C   0  0  0  0  0  0  0  0  0  0  0  0
  161.5370  204.1020  148.3650 C   0  0  0  0  0  2  0  0  0  0  0  0
  162.0950  204.6530  145.3290 C   0  0  0  0  0  3  0  0  0  0  0  0
  161.9110  205.9100  145.8690 C   0  0  0  0  0  3  0  0  0  0  0  0
  161.1020  206.2790  147.0540 C   0  0  0  0  0  3  0  0  0  0  0  0
  161.5280  203.3950  145.8590 C   0  0  0  0  0  3  0  0  0  0  0  0
  1 24  1  6  0  0  0
  1 10  1  0  0  0  0
  2  7  1  0  0  0  0
  3  9  1  0  0  0  0
  5  2  1  0  0  0  0
  6 14  2  0  0  0  0
  7  1  1  0  0  0  0
  7  3  2  0  0  0  0
  8  4  1  6  0  0  0
  8 12  1  0  0  0  0
  9 15  1  0  0  0  0
  9 13  1  0  0  0  0
 10 15  1  0  0  0  0
 11  2  2  0  0  0  0
 11  6  1  0  0  0  0
 13 12  1  6  0  0  0
 13 18  1  0  0  0  0
 14  3  1  0  0  0  0
 14  8  1  0  0  0  0
 16 17  1  0  0  0  0
 16 22  2  0  0  0  0
 18 21  1  6  0  0  0
 18 20  1  0  0  0  0
 19 17  1  0  0  0  0
 20 16  1  0  0  0  0
 21 19  1  0  0  0  0
 24 23  1  0  0  0  0
 25  8  1  0  0  0  0
 26 25  1  0  0  0  0
 27 26  1  0  0  0  0
 28 30  1  0  0  0  0
 29 30  1  0  0  0  0
 29 27  1  0  0  0  0
 31 34  1  0  0  0  0
 31 32  2  0  0  0  0
 32 33  1  0  0  0  0
 33 29  2  0  0  0  0
 34 28  2  0  0  0  0
M  END
>  <MODEL>
3

>  <REMARK>
 VINA RESULT:      -5.9      1.516      2.022
  Name = 
  6 active torsions:
  status: ('A' for Active; 'I' for Inactive)
    1  A    between atoms: C_1  and  O_19
    2  A    between atoms: O_3  and  C_13
    3  A    between atoms: O_3  and  C_17
    4  A    between atoms: C_12  and  C_28
    5  A    between atoms: C_17  and  C_29
    6  A    between atoms: C_18  and  C_29
                            x       y       z     vdW  Elec       q    Type
                         _______ _______ _______ _____ _____    ______ ____

>  <TORSDO>
F 6

$$$$
=
 OpenBabel11062407503D

 34 38  0  0  1  0  0  0  0  0999 V2000
  159.8470  213.1380  147.9490 C   0  0  2  0  0  3  0  0  0  0  0  0
  157.4840  213.9450  148.4440 C   0  0  0  0  0  0  0  0  0  0  0  0
  158.7540  212.9500  150.3200 C   0  0  0  0  0  0  0  0  0  0  0  0
  156.6210  212.9990  153.4950 C   0  0  0  0  0  1  0  0  0  0  0  0
  157.4380  214.3820  147.1100 O   0  0  0  0  0  1  0  0  0  0  0  0
  156.3900  213.6170  150.6290 C   0  0  0  0  0  3  0  0  0  0  0  0
  158.6930  213.4590  148.9510 C   0  0  0  0  0  0  0  0  0  0  0  0
  157.8940  213.0940  152.6640 C   0  0  1  0  0  0  0  0  0  0  0  0
  159.9230  212.3420  150.8320 N   0  0  0  0  0  0  0  0  0  0  0  0
  161.0200  212.2930  148.6090 C   0  0  0  0  0  2  0  0  0  0  0  0
  156.3230  213.9480  149.2490 C   0  0  0  0  0  3  0  0  0  0  0  0
  158.6340  211.7640  152.8860 C   0  0  0  0  0  2  0  0  0  0  0  0
  160.0250  211.9040  152.2850 C   0  0  1  0  0  3  0  0  0  0  0  0
  157.5690  213.1670  151.1850 C   0  0  0  0  0  0  0  0  0  0  0  0
  161.1830  212.5720  150.1160 C   0  0  0  0  0  2  0  0  0  0  0  0
  162.0430  208.6620  151.5870 C   0  0  0  0  0  0  0  0  0  0  0  0
  161.5970  207.8610  152.8100 C   0  0  0  0  0  2  0  0  0  0  0  0
  160.8610  210.6750  152.5150 C   0  0  2  0  0  3  0  0  0  0  0  0
  160.8870  208.5800  153.9390 C   0  0  0  0  0  2  0  0  0  0  0  0
  161.7080  210.0870  151.3410 C   0  0  0  0  0  2  0  0  0  0  0  0
  160.0210  209.6830  153.3500 C   0  0  0  0  0  2  0  0  0  0  0  0
  162.5180  208.0020  150.5530 N   0  0  0  0  0  2  0  0  0  0  0  0
  160.8870  213.6620  146.1930 C   0  0  0  0  0  1  0  0  0  0  0  0
  160.2990  214.2770  147.2940 O   0  0  0  0  0  0  0  0  0  0  0  0
  158.7720  214.2980  153.1740 C   0  0  0  0  0  2  0  0  0  0  0  0
  158.5870  214.4500  154.6410 C   0  0  0  0  0  2  0  0  0  0  0  0
  159.8010  214.0710  155.2650 O   0  0  0  0  0  0  0  0  0  0  0  0
  158.0730  211.2190  156.9240 C   0  0  0  0  0  3  0  0  0  0  0  0
  159.7730  212.9760  156.1060 C   0  0  0  0  0  0  0  0  0  0  0  0
  158.5960  212.6430  157.0330 C   0  0  0  0  0  2  0  0  0  0  0  0
  160.2860  210.0120  157.2550 C   0  0  0  0  0  3  0  0  0  0  0  0
  161.1980  210.9600  156.8360 C   0  0  0  0  0  3  0  0  0  0  0  0
  160.9330  212.1860  156.0470 C   0  0  0  0  0  3  0  0  0  0  0  0
  158.8280  210.0500  157.0130 C   0  0  0  0  0  3  0  0  0  0  0  0
  1 24  1  1  0  0  0
  1 10  1  0  0  0  0
  1  7  1  0  0  0  0
  2  7  2  0  0  0  0
  2 11  1  0  0  0  0
  3  9  1  0  0  0  0
  3 14  2  0  0  0  0
  5  2  1  0  0  0  0
  6 14  1  0  0  0  0
  7  3  1  0  0  0  0
  8 12  1  0  0  0  0
  8 25  1  0  0  0  0
  8  4  1  1  0  0  0
  9 13  1  0  0  0  0
 10 15  1  0  0  0  0
 11  6  2  0  0  0  0
 13 18  1  0  0  0  0
 13 12  1  6  0  0  0
 14  8  1  0  0  0  0
 15  9  1  0  0  0  0
 16 17  1  0  0  0  0
 17 19  1  0  0  0  0
 18 20  1  6  0  0  0
 18 21  1  0  0  0  0
 20 16  1  0  0  0  0
 21 19  1  0  0  0  0
 22 16  2  0  0  0  0
 23 24  1  0  0  0  0
 25 26  1  0  0  0  0
 26 27  1  0  0  0  0
 27 29  1  0  0  0  0
 28 34  2  0  0  0  0
 28 30  1  0  0  0  0
 29 30  1  0  0  0  0
 32 31  2  0  0  0  0
 33 29  2  0  0  0  0
 33 32  1  0  0  0  0
 34 31  1  0  0  0  0
M  END
>  <MODEL>
4

>  <REMARK>
 VINA RESULT:      -3.9      3.874      7.195
  Name = 
  6 active torsions:
  status: ('A' for Active; 'I' for Inactive)
    1  A    between atoms: C_1  and  O_19
    2  A    between atoms: O_3  and  C_13
    3  A    between atoms: O_3  and  C_17
    4  A    between atoms: C_12  and  C_28
    5  A    between atoms: C_17  and  C_29
    6  A    between atoms: C_18  and  C_29
                            x       y       z     vdW  Elec       q    Type
                         _______ _______ _______ _____ _____    ______ ____

>  <TORSDO>
F 6

$$$$
