=
 OpenBabel11052422423D

 31 34  0  0  1  0  0  0  0  0999 V2000
  162.3200  211.0580  149.7690 C   0  0  1  0  0  3  0  0  0  0  0  0
  161.7830  208.1990  152.3150 C   0  0  2  0  0  3  0  0  0  0  0  0
  160.8970  208.6390  153.4610 C   0  0  0  0  0  0  0  0  0  0  0  0
  159.4010  210.2340  154.5160 C   0  0  0  0  0  3  0  0  0  0  0  0
  161.6110  209.0180  151.0320 C   0  0  1  0  0  3  0  0  0  0  0  0
  162.0120  210.2680  148.5170 C   0  0  0  0  0  3  0  0  0  0  0  0
  160.1690  209.8370  153.4190 C   0  0  0  0  0  3  0  0  0  0  0  0
  160.9810  206.1430  150.8970 C   0  0  2  0  0  3  0  0  0  0  0  0
  161.2510  211.8850  150.0590 F   0  0  0  0  0  0  0  0  0  0  0  0
  161.6690  206.5860  154.6550 C   0  0  0  0  0  2  0  0  0  0  0  0
  159.3640  209.4440  155.6670 C   0  0  0  0  0  3  0  0  0  0  0  0
  160.7790  207.1070  149.8010 N   0  0  0  0  0  2  0  0  0  0  0  0
  161.8070  206.6550  152.1000 C   0  0  2  0  0  3  0  0  0  0  0  0
  162.6130  210.1660  150.9800 C   0  0  0  0  0  2  0  0  0  0  0  0
  160.0220  207.2950  157.1990 Cl  0  0  0  0  0  0  0  0  0  0  0  0
  161.8030  208.1440  149.8010 C   0  0  1  0  0  3  0  0  0  0  0  0
  161.7290  208.9540  148.5360 C   0  0  0  0  0  3  0  0  0  0  0  0
  161.4590  205.8240  153.3500 C   0  0  0  0  0  2  0  0  0  0  0  0
  160.8630  207.8480  154.6240 C   0  0  0  0  0  0  0  0  0  0  0  0
  160.0950  208.2540  155.7290 C   0  0  0  0  0  0  0  0  0  0  0  0
  161.5930  204.8570  150.3560 C   0  0  0  0  0  2  0  0  0  0  0  0
  160.1320  203.1430  149.7750 C   0  0  0  0  0  1  0  0  0  0  0  0
  160.7920  204.3340  149.2540 N   0  0  0  0  0  0  0  0  0  0  0  0
  161.3930  202.6300  147.7370 O   0  0  0  0  0  1  0  0  0  0  0  0
  161.7050  203.9190  148.1820 C   0  0  1  0  0  3  0  0  0  0  0  0
  160.6590  205.7570  146.9660 C   0  0  0  0  0  2  0  0  0  0  0  0
  161.6510  204.8670  147.0110 C   0  0  0  0  0  0  0  0  0  0  0  0
  162.7090  204.8810  145.9370 C   0  0  0  0  0  0  0  0  0  0  0  0
  162.6840  206.0960  145.2770 F   0  0  0  0  0  0  0  0  0  0  0  0
  163.9710  204.6970  146.4790 F   0  0  0  0  0  0  0  0  0  0  0  0
  162.4650  203.8680  145.0280 F   0  0  0  0  0  0  0  0  0  0  0  0
  1  9  1  1  0  0  0
  1 14  1  0  0  0  0
  2  3  1  1  0  0  0
  3 19  1  0  0  0  0
  4 11  2  0  0  0  0
  5 14  1  1  0  0  0
  5  2  1  0  0  0  0
  6 17  2  0  0  0  0
  6  1  1  0  0  0  0
  7  3  2  0  0  0  0
  7  4  1  0  0  0  0
  8 21  1  6  0  0  0
  8 13  1  0  0  0  0
 11 20  1  0  0  0  0
 12  8  1  0  0  0  0
 13  2  1  0  0  0  0
 13 18  1  1  0  0  0
 16 17  1  6  0  0  0
 16 12  1  0  0  0  0
 16  5  1  0  0  0  0
 18 10  1  0  0  0  0
 19 10  1  0  0  0  0
 19 20  2  0  0  0  0
 20 15  1  0  0  0  0
 23 22  1  0  0  0  0
 23 21  1  0  0  0  0
 25 24  1  6  0  0  0
 25 23  1  0  0  0  0
 26 27  2  0  0  0  0
 27 25  1  0  0  0  0
 28 30  1  0  0  0  0
 28 27  1  0  0  0  0
 29 28  1  0  0  0  0
 31 28  1  0  0  0  0
M  END
>  <MODEL>
1

>  <REMARK>
 VINA RESULT:      -8.7      0.000      0.000
  Name = 
  5 active torsions:
  status: ('A' for Active; 'I' for Inactive)
    1  A    between atoms: C_1  and  C_19
    2  A    between atoms: N_9  and  C_22
    3  A    between atoms: N_9  and  C_23
    4  A    between atoms: C_15  and  C_23
    5  A    between atoms: C_19  and  C_22
                            x       y       z     vdW  Elec       q    Type
                         _______ _______ _______ _____ _____    ______ ____

>  <TORSDO>
F 5

$$$$
=
 OpenBabel11052422423D

 31 34  0  0  1  0  0  0  0  0999 V2000
  162.2430  210.9330  149.2400 C   0  0  1  0  0  3  0  0  0  0  0  0
  161.6130  208.9020  152.4690 C   0  0  2  0  0  3  0  0  0  0  0  0
  160.6060  209.5900  153.3660 C   0  0  0  0  0  0  0  0  0  0  0  0
  158.9460  211.3110  153.7920 C   0  0  0  0  0  3  0  0  0  0  0  0
  161.5190  209.3010  150.9920 C   0  0  1  0  0  3  0  0  0  0  0  0
  162.0880  209.7940  148.2570 C   0  0  0  0  0  3  0  0  0  0  0  0
  159.8290  210.6700  152.9200 C   0  0  0  0  0  3  0  0  0  0  0  0
  161.0410  206.4720  151.6640 C   0  0  2  0  0  3  0  0  0  0  0  0
  161.1150  211.7300  149.1940 F   0  0  0  0  0  0  0  0  0  0  0  0
  161.3620  208.0310  155.1640 C   0  0  0  0  0  2  0  0  0  0  0  0
  158.8420  210.8870  155.1190 C   0  0  0  0  0  3  0  0  0  0  0  0
  160.8940  207.0610  150.3210 N   0  0  0  0  0  2  0  0  0  0  0  0
  161.7290  207.3680  152.7190 C   0  0  2  0  0  3  0  0  0  0  0  0
  162.4670  210.4530  150.6780 C   0  0  0  0  0  2  0  0  0  0  0  0
  159.4590  209.3270  157.2590 Cl  0  0  0  0  0  0  0  0  0  0  0  0
  161.8630  208.1230  150.0910 C   0  0  1  0  0  3  0  0  0  0  0  0
  161.8670  208.5260  148.6410 C   0  0  0  0  0  3  0  0  0  0  0  0
  161.3080  206.9120  154.1300 C   0  0  0  0  0  2  0  0  0  0  0  0
  160.5040  209.1700  154.7050 C   0  0  0  0  0  0  0  0  0  0  0  0
  159.6190  209.8220  155.5820 C   0  0  0  0  0  0  0  0  0  0  0  0
  161.7600  205.1320  151.5720 C   0  0  0  0  0  2  0  0  0  0  0  0
  160.3810  203.4710  152.4400 C   0  0  0  0  0  1  0  0  0  0  0  0
  160.8270  204.0770  151.1900 N   0  0  0  0  0  0  0  0  0  0  0  0
  161.4280  201.8020  151.0170 O   0  0  0  0  0  1  0  0  0  0  0  0
  161.5680  203.0630  150.4290 C   0  0  1  0  0  3  0  0  0  0  0  0
  161.2780  204.0600  148.2220 C   0  0  0  0  0  2  0  0  0  0  0  0
  161.0980  202.9910  148.9990 C   0  0  0  0  0  0  0  0  0  0  0  0
  160.4980  201.7390  148.4110 C   0  0  0  0  0  0  0  0  0  0  0  0
  160.3270  201.9020  147.0490 F   0  0  0  0  0  0  0  0  0  0  0  0
  161.3200  200.6450  148.6270 F   0  0  0  0  0  0  0  0  0  0  0  0
  159.2690  201.4930  148.9950 F   0  0  0  0  0  0  0  0  0  0  0  0
  1  9  1  1  0  0  0
  1 14  1  0  0  0  0
  2 13  1  0  0  0  0
  2  3  1  1  0  0  0
  3 19  1  0  0  0  0
  4 11  2  0  0  0  0
  5 14  1  1  0  0  0
  5  2  1  0  0  0  0
  6 17  2  0  0  0  0
  6  1  1  0  0  0  0
  7  3  2  0  0  0  0
  7  4  1  0  0  0  0
  8 21  1  6  0  0  0
  8 13  1  0  0  0  0
 11 20  1  0  0  0  0
 12  8  1  0  0  0  0
 13 18  1  1  0  0  0
 16 17  1  6  0  0  0
 16 12  1  0  0  0  0
 16  5  1  0  0  0  0
 18 10  1  0  0  0  0
 19 10  1  0  0  0  0
 19 20  2  0  0  0  0
 20 15  1  0  0  0  0
 23 21  1  0  0  0  0
 23 22  1  0  0  0  0
 25 24  1  1  0  0  0
 25 23  1  0  0  0  0
 26 27  2  0  0  0  0
 27 25  1  0  0  0  0
 28 30  1  0  0  0  0
 28 31  1  0  0  0  0
 28 27  1  0  0  0  0
 29 28  1  0  0  0  0
M  END
>  <MODEL>
2

>  <REMARK>
 VINA RESULT:      -7.9      1.946      2.367
  Name = 
  5 active torsions:
  status: ('A' for Active; 'I' for Inactive)
    1  A    between atoms: C_1  and  C_19
    2  A    between atoms: N_9  and  C_22
    3  A    between atoms: N_9  and  C_23
    4  A    between atoms: C_15  and  C_23
    5  A    between atoms: C_19  and  C_22
                            x       y       z     vdW  Elec       q    Type
                         _______ _______ _______ _____ _____    ______ ____

>  <TORSDO>
F 5

$$$$
=
 OpenBabel11052422423D

 31 34  0  0  1  0  0  0  0  0999 V2000
  161.1260  207.9090  156.8440 C   0  0  1  0  0  3  0  0  0  0  0  0
  161.4680  209.0400  153.1630 C   0  0  2  0  0  3  0  0  0  0  0  0
  161.4040  207.8620  152.2150 C   0  0  0  0  0  0  0  0  0  0  0  0
  160.9980  205.5140  151.7470 C   0  0  0  0  0  3  0  0  0  0  0  0
  160.8110  208.7930  154.5240 C   0  0  1  0  0  3  0  0  0  0  0  0
  160.0730  208.9120  157.2610 C   0  0  0  0  0  3  0  0  0  0  0  0
  160.9970  206.5890  152.6390 C   0  0  0  0  0  3  0  0  0  0  0  0
  159.6830  210.9350  152.8460 C   0  0  2  0  0  3  0  0  0  0  0  0
  160.5370  206.6680  156.6940 F   0  0  0  0  0  0  0  0  0  0  0  0
  162.2870  209.4090  150.4640 C   0  0  0  0  0  2  0  0  0  0  0  0
  161.4170  205.7010  150.4280 C   0  0  0  0  0  3  0  0  0  0  0  0
  159.1240  210.4850  154.1330 N   0  0  0  0  0  2  0  0  0  0  0  0
  161.0910  210.3990  152.4980 C   0  0  2  0  0  3  0  0  0  0  0  0
  161.8330  208.2960  155.5400 C   0  0  0  0  0  2  0  0  0  0  0  0
  162.3630  207.1460  148.3270 Cl  0  0  0  0  0  0  0  0  0  0  0  0
  160.1710  210.0670  155.0560 C   0  0  1  0  0  3  0  0  0  0  0  0
  159.6030  209.8620  156.4340 C   0  0  0  0  0  3  0  0  0  0  0  0
  161.2940  210.4490  150.9720 C   0  0  0  0  0  2  0  0  0  0  0  0
  161.8330  208.0450  150.8870 C   0  0  0  0  0  0  0  0  0  0  0  0
  161.8390  206.9600  149.9930 C   0  0  0  0  0  0  0  0  0  0  0  0
  159.6750  212.4580  152.7770 C   0  0  0  0  0  2  0  0  0  0  0  0
  158.7600  213.4580  150.8860 C   0  0  0  0  0  1  0  0  0  0  0  0
  158.4210  212.9370  152.2060 N   0  0  0  0  0  0  0  0  0  0  0  0
  156.6620  214.4530  152.6240 O   0  0  0  0  0  1  0  0  0  0  0  0
  157.9400  214.0540  153.0290 C   0  0  1  0  0  3  0  0  0  0  0  0
  158.9110  214.0690  155.2660 C   0  0  0  0  0  2  0  0  0  0  0  0
  157.8970  213.6860  154.4900 C   0  0  0  0  0  0  0  0  0  0  0  0
  156.7240  212.9640  155.1050 C   0  0  0  0  0  0  0  0  0  0  0  0
  157.1090  212.3880  156.3010 F   0  0  0  0  0  0  0  0  0  0  0  0
  155.6760  213.8360  155.3490 F   0  0  0  0  0  0  0  0  0  0  0  0
  156.2860  211.9730  154.2460 F   0  0  0  0  0  0  0  0  0  0  0  0
  1  9  1  6  0  0  0
  1  6  1  0  0  0  0
  2  3  1  6  0  0  0
  2  5  1  0  0  0  0
  3  7  1  0  0  0  0
  4  7  2  0  0  0  0
  5 16  1  0  0  0  0
  5 14  1  1  0  0  0
  8 21  1  1  0  0  0
  8 12  1  0  0  0  0
 10 19  1  0  0  0  0
 10 18  1  0  0  0  0
 11  4  1  0  0  0  0
 12 16  1  0  0  0  0
 13 18  1  6  0  0  0
 13  8  1  0  0  0  0
 13  2  1  0  0  0  0
 14  1  1  0  0  0  0
 15 20  1  0  0  0  0
 16 17  1  1  0  0  0
 17  6  2  0  0  0  0
 19  3  2  0  0  0  0
 20 11  2  0  0  0  0
 20 19  1  0  0  0  0
 22 23  1  0  0  0  0
 23 21  1  0  0  0  0
 23 25  1  0  0  0  0
 25 24  1  6  0  0  0
 25 27  1  0  0  0  0
 27 28  1  0  0  0  0
 27 26  2  0  0  0  0
 28 30  1  0  0  0  0
 28 29  1  0  0  0  0
 31 28  1  0  0  0  0
M  END
>  <MODEL>
3

>  <REMARK>
 VINA RESULT:      -6.4      5.404      8.785
  Name = 
  5 active torsions:
  status: ('A' for Active; 'I' for Inactive)
    1  A    between atoms: C_1  and  C_19
    2  A    between atoms: N_9  and  C_22
    3  A    between atoms: N_9  and  C_23
    4  A    between atoms: C_15  and  C_23
    5  A    between atoms: C_19  and  C_22
                            x       y       z     vdW  Elec       q    Type
                         _______ _______ _______ _____ _____    ______ ____

>  <TORSDO>
F 5

$$$$
=
 OpenBabel11052422423D

 31 34  0  0  1  0  0  0  0  0999 V2000
  161.9560  210.2690  148.7160 C   0  0  1  0  0  3  0  0  0  0  0  0
  161.0440  206.6400  149.6870 C   0  0  2  0  0  3  0  0  0  0  0  0
  161.6150  205.6440  148.6990 C   0  0  0  0  0  0  0  0  0  0  0  0
  163.0350  205.0780  146.8120 C   0  0  0  0  0  3  0  0  0  0  0  0
  161.7760  207.9850  149.7220 C   0  0  1  0  0  3  0  0  0  0  0  0
  162.4470  210.7190  150.0740 C   0  0  0  0  0  3  0  0  0  0  0  0
  162.5680  206.0140  147.7390 C   0  0  0  0  0  3  0  0  0  0  0  0
  161.7620  206.3880  152.1970 C   0  0  2  0  0  3  0  0  0  0  0  0
  163.0420  210.0650  147.8860 F   0  0  0  0  0  0  0  0  0  0  0  0
  160.0810  203.9640  149.7290 C   0  0  0  0  0  2  0  0  0  0  0  0
  162.5430  203.7710  146.8300 C   0  0  0  0  0  3  0  0  0  0  0  0
  162.4960  207.6510  152.0080 N   0  0  0  0  0  2  0  0  0  0  0  0
  160.7450  206.0280  151.0890 C   0  0  2  0  0  3  0  0  0  0  0  0
  161.1180  208.9880  148.7800 C   0  0  0  0  0  2  0  0  0  0  0  0
  160.9910  201.7380  147.7530 Cl  0  0  0  0  0  0  0  0  0  0  0  0
  161.7780  208.5640  151.1300 C   0  0  1  0  0  3  0  0  0  0  0  0
  162.4110  209.9290  151.1600 C   0  0  0  0  0  3  0  0  0  0  0  0
  160.5030  204.5070  151.0910 C   0  0  0  0  0  2  0  0  0  0  0  0
  161.1170  204.3280  148.7100 C   0  0  0  0  0  0  0  0  0  0  0  0
  161.5830  203.3910  147.7720 C   0  0  0  0  0  0  0  0  0  0  0  0
  161.0740  206.3810  153.5560 C   0  0  0  0  0  2  0  0  0  0  0  0
  161.8330  207.0470  155.6520 C   0  0  0  0  0  1  0  0  0  0  0  0
  161.4660  207.5510  154.3340 N   0  0  0  0  0  0  0  0  0  0  0  0
  159.6930  208.2270  155.7370 O   0  0  0  0  0  1  0  0  0  0  0  0
  160.2890  208.4160  154.4850 C   0  0  1  0  0  3  0  0  0  0  0  0
  161.8200  210.2860  154.8070 C   0  0  0  0  0  2  0  0  0  0  0  0
  160.6470  209.8710  154.3290 C   0  0  0  0  0  0  0  0  0  0  0  0
  159.7570  210.8450  153.5980 C   0  0  0  0  0  0  0  0  0  0  0  0
  160.4510  212.0160  153.3570 F   0  0  0  0  0  0  0  0  0  0  0  0
  159.3340  210.3220  152.3880 F   0  0  0  0  0  0  0  0  0  0  0  0
  158.6460  211.1300  154.3700 F   0  0  0  0  0  0  0  0  0  0  0  0
  1  9  1  6  0  0  0
  1 14  1  0  0  0  0
  1  6  1  0  0  0  0
  2  3  1  6  0  0  0
  2  5  1  0  0  0  0
  2 13  1  0  0  0  0
  3 19  1  0  0  0  0
  4 11  2  0  0  0  0
  4  7  1  0  0  0  0
  5 14  1  6  0  0  0
  5 16  1  0  0  0  0
  6 17  2  0  0  0  0
  7  3  2  0  0  0  0
  8 21  1  1  0  0  0
 10 18  1  0  0  0  0
 11 20  1  0  0  0  0
 12  8  1  0  0  0  0
 13 18  1  6  0  0  0
 13  8  1  0  0  0  0
 15 20  1  0  0  0  0
 16 17  1  6  0  0  0
 16 12  1  0  0  0  0
 19 10  1  0  0  0  0
 20 19  2  0  0  0  0
 21 23  1  0  0  0  0
 23 25  1  0  0  0  0
 23 22  1  0  0  0  0
 25 24  1  1  0  0  0
 27 25  1  0  0  0  0
 27 26  2  0  0  0  0
 28 27  1  0  0  0  0
 28 31  1  0  0  0  0
 29 28  1  0  0  0  0
 30 28  1  0  0  0  0
M  END
>  <MODEL>
4

>  <REMARK>
 VINA RESULT:      -5.8      3.525      7.048
  Name = 
  5 active torsions:
  status: ('A' for Active; 'I' for Inactive)
    1  A    between atoms: C_1  and  C_19
    2  A    between atoms: N_9  and  C_22
    3  A    between atoms: N_9  and  C_23
    4  A    between atoms: C_15  and  C_23
    5  A    between atoms: C_19  and  C_22
                            x       y       z     vdW  Elec       q    Type
                         _______ _______ _______ _____ _____    ______ ____

>  <TORSDO>
F 5

$$$$
=
 OpenBabel11052422423D

 31 34  0  0  1  0  0  0  0  0999 V2000
  161.5830  206.2520  154.4660 C   0  0  1  0  0  3  0  0  0  0  0  0
  162.1150  207.4520  150.8300 C   0  0  2  0  0  3  0  0  0  0  0  0
  161.6260  206.4240  149.8320 C   0  0  0  0  0  0  0  0  0  0  0  0
  160.4510  204.3710  149.2780 C   0  0  0  0  0  3  0  0  0  0  0  0
  161.4740  207.3420  152.2160 C   0  0  1  0  0  3  0  0  0  0  0  0
  160.9360  207.5130  154.9970 C   0  0  0  0  0  3  0  0  0  0  0  0
  160.8430  205.3270  150.2200 C   0  0  0  0  0  3  0  0  0  0  0  0
  161.0390  209.8410  150.7180 C   0  0  2  0  0  3  0  0  0  0  0  0
  160.6130  205.2830  154.2940 F   0  0  0  0  0  0  0  0  0  0  0  0
  162.8900  207.7110  148.1060 C   0  0  0  0  0  2  0  0  0  0  0  0
  160.8510  204.4990  147.9460 C   0  0  0  0  0  3  0  0  0  0  0  0
  160.4200  209.5120  152.0150 N   0  0  0  0  0  2  0  0  0  0  0  0
  162.1760  208.9000  150.2570 C   0  0  2  0  0  3  0  0  0  0  0  0
  162.3200  206.4730  153.1410 C   0  0  0  0  0  2  0  0  0  0  0  0
  162.1250  205.6940  145.8620 Cl  0  0  0  0  0  0  0  0  0  0  0  0
  161.3110  208.7170  152.8490 C   0  0  1  0  0  3  0  0  0  0  0  0
  160.7690  208.6160  154.2490 C   0  0  0  0  0  3  0  0  0  0  0  0
  162.3180  208.9820  148.7250 C   0  0  0  0  0  2  0  0  0  0  0  0
  162.0320  206.5450  148.4910 C   0  0  0  0  0  0  0  0  0  0  0  0
  161.6430  205.5790  147.5470 C   0  0  0  0  0  0  0  0  0  0  0  0
  161.5280  211.2840  150.7240 C   0  0  0  0  0  2  0  0  0  0  0  0
  161.5620  212.5050  148.7440 C   0  0  0  0  0  1  0  0  0  0  0  0
  160.6990  212.1080  149.8500 N   0  0  0  0  0  0  0  0  0  0  0  0
  160.4460  214.4530  149.7830 O   0  0  0  0  0  1  0  0  0  0  0  0
  160.3170  213.3170  150.5900 C   0  0  1  0  0  3  0  0  0  0  0  0
  157.9120  213.5510  150.2540 C   0  0  0  0  0  2  0  0  0  0  0  0
  158.8980  213.2330  151.0930 C   0  0  0  0  0  0  0  0  0  0  0  0
  158.5640  212.7440  152.4790 C   0  0  0  0  0  0  0  0  0  0  0  0
  159.6810  212.8390  153.2880 F   0  0  0  0  0  0  0  0  0  0  0  0
  157.5440  213.4950  153.0390 F   0  0  0  0  0  0  0  0  0  0  0  0
  158.1600  211.4220  152.4220 F   0  0  0  0  0  0  0  0  0  0  0  0
  1  9  1  6  0  0  0
  1  6  1  0  0  0  0
  2  3  1  6  0  0  0
  2  5  1  0  0  0  0
  3  7  1  0  0  0  0
  4  7  2  0  0  0  0
  5 16  1  0  0  0  0
  5 14  1  1  0  0  0
  8 21  1  1  0  0  0
  8 12  1  0  0  0  0
 10 19  1  0  0  0  0
 10 18  1  0  0  0  0
 11  4  1  0  0  0  0
 12 16  1  0  0  0  0
 13 18  1  6  0  0  0
 13  8  1  0  0  0  0
 13  2  1  0  0  0  0
 14  1  1  0  0  0  0
 15 20  1  0  0  0  0
 16 17  1  1  0  0  0
 17  6  2  0  0  0  0
 19  3  2  0  0  0  0
 20 11  2  0  0  0  0
 20 19  1  0  0  0  0
 22 23  1  0  0  0  0
 23 25  1  0  0  0  0
 23 21  1  0  0  0  0
 25 24  1  6  0  0  0
 25 27  1  0  0  0  0
 26 27  2  0  0  0  0
 27 28  1  0  0  0  0
 28 30  1  0  0  0  0
 28 29  1  0  0  0  0
 31 28  1  0  0  0  0
M  END
>  <MODEL>
5

>  <REMARK>
 VINA RESULT:      -5.7      4.494      7.890
  Name = 
  5 active torsions:
  status: ('A' for Active; 'I' for Inactive)
    1  A    between atoms: C_1  and  C_19
    2  A    between atoms: N_9  and  C_22
    3  A    between atoms: N_9  and  C_23
    4  A    between atoms: C_15  and  C_23
    5  A    between atoms: C_19  and  C_22
                            x       y       z     vdW  Elec       q    Type
                         _______ _______ _______ _____ _____    ______ ____

>  <TORSDO>
F 5

$$$$
