=
 OpenBabel11052423223D

 27 31  0  0  0  0  0  0  0  0999 V2000
  161.5470  209.0120  152.4590 C   0  0  0  0  0  3  0  0  0  0  0  0
  161.1950  206.4860  152.4240 C   0  0  0  0  0  0  0  0  0  0  0  0
  161.3860  207.1650  149.9660 C   0  0  0  0  0  3  0  0  0  0  0  0
  161.1070  205.2540  153.0530 C   0  0  0  0  0  3  0  0  0  0  0  0
  161.9610  210.4680  149.0260 C   0  0  0  0  0  0  0  0  0  0  0  0
  161.2340  207.7620  153.0940 N   0  0  0  0  0  0  0  0  0  0  0  0
  161.1720  204.8700  150.9150 N   0  0  0  0  0  0  0  0  0  0  0  0
  161.6880  209.2860  151.1620 C   0  0  0  0  0  0  0  0  0  0  0  0
  161.2440  206.2150  151.0720 C   0  0  0  0  0  0  0  0  0  0  0  0
  161.7370  209.1520  148.8440 N   0  0  0  0  0  0  0  0  0  0  0  0
  161.0930  204.2980  152.1060 N   0  0  0  0  0  0  0  0  0  0  0  0
  162.0000  210.8580  150.6520 S   0  0  0  0  0  0  0  0  0  0  0  0
  161.5800  208.4780  150.0160 C   0  0  0  0  0  0  0  0  0  0  0  0
  160.8010  202.7480  149.7210 C   0  0  0  0  0  3  0  0  0  0  0  0
  161.1750  202.5600  147.3370 C   0  0  0  0  0  3  0  0  0  0  0  0
  161.5540  203.9020  147.2930 C   0  0  0  0  0  3  0  0  0  0  0  0
  161.5570  204.6660  148.4630 C   0  0  0  0  0  3  0  0  0  0  0  0
  161.1830  204.1000  149.6930 C   0  0  0  0  0  0  0  0  0  0  0  0
  160.7970  201.9820  148.5520 C   0  0  0  0  0  3  0  0  0  0  0  0
  160.5520  207.9510  157.2610 C   0  0  0  0  0  3  0  0  0  0  0  0
  160.9820  207.8320  154.5120 C   0  0  0  0  0  0  0  0  0  0  0  0
  161.6630  208.7550  155.3230 C   0  0  0  0  0  3  0  0  0  0  0  0
  161.4340  208.7950  156.6620 N   0  0  0  0  0  0  0  0  0  0  0  0
  159.8580  207.0110  156.5000 C   0  0  0  0  0  3  0  0  0  0  0  0
  160.0780  206.9510  155.1240 C   0  0  0  0  0  3  0  0  0  0  0  0
  161.0140  211.9010  147.4150 O   0  0  0  0  0  1  0  0  0  0  0  0
  162.2230  211.4220  147.9150 C   0  0  0  0  0  2  0  0  0  0  0  0
  1  6  1  0  0  0  0
  2  4  1  0  0  0  0
  2  6  1  0  0  0  0
  3 13  2  0  0  0  0
  3  9  1  0  0  0  0
  5 12  1  0  0  0  0
  6 21  1  0  0  0  0
  7  9  1  0  0  0  0
  7 11  1  0  0  0  0
  8  1  2  0  0  0  0
  9  2  2  0  0  0  0
 10  5  2  0  0  0  0
 10 13  1  0  0  0  0
 11  4  2  0  0  0  0
 12  8  1  0  0  0  0
 13  8  1  0  0  0  0
 15 19  1  0  0  0  0
 16 15  2  0  0  0  0
 16 17  1  0  0  0  0
 17 18  2  0  0  0  0
 18 14  1  0  0  0  0
 18  7  1  0  0  0  0
 19 14  2  0  0  0  0
 21 25  2  0  0  0  0
 21 22  1  0  0  0  0
 22 23  2  0  0  0  0
 23 20  1  0  0  0  0
 24 20  2  0  0  0  0
 25 24  1  0  0  0  0
 26 27  1  0  0  0  0
 27  5  1  0  0  0  0
M  END
>  <MODEL>
1

>  <REMARK>
 VINA RESULT:      -9.1      0.000      0.000
  Name = 
  3 active torsions:
  status: ('A' for Active; 'I' for Inactive)
    1  A    between atoms: C_9  and  N_15
    2  A    between atoms: C_13  and  C_22
    3  A    between atoms: C_14  and  N_17
                            x       y       z     vdW  Elec       q    Type
                         _______ _______ _______ _____ _____    ______ ____

>  <TORSDO>
F 3

$$$$
=
 OpenBabel11052423223D

 27 31  0  0  0  0  0  0  0  0999 V2000
  161.4710  210.2820  151.6900 C   0  0  0  0  0  3  0  0  0  0  0  0
  161.5430  208.7520  149.6500 C   0  0  0  0  0  0  0  0  0  0  0  0
  161.3250  207.1790  151.6530 C   0  0  0  0  0  3  0  0  0  0  0  0
  161.5210  208.5370  148.2810 C   0  0  0  0  0  3  0  0  0  0  0  0
  161.0770  208.3930  154.9080 C   0  0  0  0  0  0  0  0  0  0  0  0
  161.6720  210.0380  150.2880 N   0  0  0  0  0  0  0  0  0  0  0  0
  161.3260  206.5920  149.2310 N   0  0  0  0  0  0  0  0  0  0  0  0
  161.3070  209.4060  152.6810 C   0  0  0  0  0  0  0  0  0  0  0  0
  161.4080  207.5070  150.2280 C   0  0  0  0  0  0  0  0  0  0  0  0
  161.1470  207.4600  153.9390 N   0  0  0  0  0  0  0  0  0  0  0  0
  161.3910  207.2150  148.0650 N   0  0  0  0  0  0  0  0  0  0  0  0
  161.1480  209.9380  154.2700 S   0  0  0  0  0  0  0  0  0  0  0  0
  161.2780  208.0000  152.6960 C   0  0  0  0  0  0  0  0  0  0  0  0
  161.3560  204.3630  148.1830 C   0  0  0  0  0  3  0  0  0  0  0  0
  160.9180  202.3600  149.4670 C   0  0  0  0  0  3  0  0  0  0  0  0
  160.7420  203.1350  150.6140 C   0  0  0  0  0  3  0  0  0  0  0  0
  160.8730  204.5250  150.5440 C   0  0  0  0  0  3  0  0  0  0  0  0
  161.1790  205.1580  149.3280 C   0  0  0  0  0  0  0  0  0  0  0  0
  161.2260  202.9730  148.2500 C   0  0  0  0  0  3  0  0  0  0  0  0
  162.5500  213.4380  147.9360 C   0  0  0  0  0  3  0  0  0  0  0  0
  161.9890  211.2010  149.4960 C   0  0  0  0  0  0  0  0  0  0  0  0
  161.1910  212.3550  149.5530 C   0  0  0  0  0  3  0  0  0  0  0  0
  161.4880  213.4360  148.7840 N   0  0  0  0  0  0  0  0  0  0  0  0
  163.3670  212.3130  147.8360 C   0  0  0  0  0  3  0  0  0  0  0  0
  163.0820  211.1920  148.6150 C   0  0  0  0  0  3  0  0  0  0  0  0
  159.9460  207.0420  156.4700 O   0  0  0  0  0  1  0  0  0  0  0  0
  160.8740  208.0750  156.3460 C   0  0  0  0  0  2  0  0  0  0  0  0
  1  8  2  0  0  0  0
  2  9  2  0  0  0  0
  2  6  1  0  0  0  0
  3 13  2  0  0  0  0
  4  2  1  0  0  0  0
  5 27  1  0  0  0  0
  6  1  1  0  0  0  0
  7 18  1  0  0  0  0
  7  9  1  0  0  0  0
  8 13  1  0  0  0  0
  8 12  1  0  0  0  0
  9  3  1  0  0  0  0
 10  5  2  0  0  0  0
 11  4  2  0  0  0  0
 11  7  1  0  0  0  0
 12  5  1  0  0  0  0
 13 10  1  0  0  0  0
 14 19  2  0  0  0  0
 14 18  1  0  0  0  0
 15 16  2  0  0  0  0
 17 16  1  0  0  0  0
 18 17  2  0  0  0  0
 19 15  1  0  0  0  0
 20 23  1  0  0  0  0
 21 22  1  0  0  0  0
 21  6  1  0  0  0  0
 23 22  2  0  0  0  0
 24 20  2  0  0  0  0
 24 25  1  0  0  0  0
 25 21  2  0  0  0  0
 27 26  1  0  0  0  0
M  END
>  <MODEL>
2

>  <REMARK>
 VINA RESULT:      -8.5      2.580      5.727
  Name = 
  3 active torsions:
  status: ('A' for Active; 'I' for Inactive)
    1  A    between atoms: C_9  and  N_15
    2  A    between atoms: C_13  and  C_22
    3  A    between atoms: C_14  and  N_17
                            x       y       z     vdW  Elec       q    Type
                         _______ _______ _______ _____ _____    ______ ____

>  <TORSDO>
F 3

$$$$
=
 OpenBabel11052423223D

 27 31  0  0  0  0  0  0  0  0999 V2000
  161.4420  207.1520  150.0380 C   0  0  0  0  0  3  0  0  0  0  0  0
  161.0560  206.9110  152.5480 C   0  0  0  0  0  0  0  0  0  0  0  0
  161.6310  209.3770  152.1980 C   0  0  0  0  0  3  0  0  0  0  0  0
  160.6430  206.1920  153.6590 C   0  0  0  0  0  3  0  0  0  0  0  0
  162.2530  210.6730  149.0250 C   0  0  0  0  0  0  0  0  0  0  0  0
  161.2320  206.3690  151.2240 N   0  0  0  0  0  0  0  0  0  0  0  0
  160.9600  208.2410  154.3120 N   0  0  0  0  0  0  0  0  0  0  0  0
  161.6840  208.4580  149.9240 C   0  0  0  0  0  0  0  0  0  0  0  0
  161.2410  208.2060  152.9850 C   0  0  0  0  0  0  0  0  0  0  0  0
  162.1270  210.6950  150.3670 N   0  0  0  0  0  0  0  0  0  0  0  0
  160.5990  207.0320  154.7100 N   0  0  0  0  0  0  0  0  0  0  0  0
  161.9580  209.1440  148.4120 S   0  0  0  0  0  0  0  0  0  0  0  0
  161.8140  209.4760  150.8860 C   0  0  0  0  0  0  0  0  0  0  0  0
  159.8700  210.1740  155.3800 C   0  0  0  0  0  3  0  0  0  0  0  0
  161.0440  211.5580  156.9810 C   0  0  0  0  0  3  0  0  0  0  0  0
  162.1810  210.7620  156.8330 C   0  0  0  0  0  3  0  0  0  0  0  0
  162.1610  209.6730  155.9580 C   0  0  0  0  0  3  0  0  0  0  0  0
  161.0070  209.3650  155.2180 C   0  0  0  0  0  0  0  0  0  0  0  0
  159.8870  211.2640  156.2550 C   0  0  0  0  0  3  0  0  0  0  0  0
  161.0920  202.1850  150.6370 C   0  0  0  0  0  3  0  0  0  0  0  0
  161.1640  204.9420  151.0210 C   0  0  0  0  0  0  0  0  0  0  0  0
  161.5210  204.0490  152.0440 C   0  0  0  0  0  3  0  0  0  0  0  0
  161.4750  202.7060  151.8330 N   0  0  0  0  0  0  0  0  0  0  0  0
  160.7370  203.0320  149.5870 C   0  0  0  0  0  3  0  0  0  0  0  0
  160.7780  204.4120  149.7800 C   0  0  0  0  0  3  0  0  0  0  0  0
  161.3980  212.2210  147.4700 O   0  0  0  0  0  1  0  0  0  0  0  0
  162.5330  211.8800  148.2040 C   0  0  0  0  0  2  0  0  0  0  0  0
  1  6  1  0  0  0  0
  2  9  2  0  0  0  0
  2  4  1  0  0  0  0
  3  9  1  0  0  0  0
  4 11  2  0  0  0  0
  5 10  2  0  0  0  0
  6  2  1  0  0  0  0
  7 11  1  0  0  0  0
  7 18  1  0  0  0  0
  8  1  2  0  0  0  0
  8 13  1  0  0  0  0
  9  7  1  0  0  0  0
 10 13  1  0  0  0  0
 12  5  1  0  0  0  0
 12  8  1  0  0  0  0
 13  3  2  0  0  0  0
 14 19  1  0  0  0  0
 16 15  1  0  0  0  0
 17 16  2  0  0  0  0
 18 14  2  0  0  0  0
 18 17  1  0  0  0  0
 19 15  2  0  0  0  0
 20 23  1  0  0  0  0
 21  6  1  0  0  0  0
 21 22  1  0  0  0  0
 23 22  2  0  0  0  0
 24 25  1  0  0  0  0
 24 20  2  0  0  0  0
 25 21  2  0  0  0  0
 26 27  1  0  0  0  0
 27  5  1  0  0  0  0
M  END
>  <MODEL>
3

>  <REMARK>
 VINA RESULT:      -8.4      1.594      6.286
  Name = 
  3 active torsions:
  status: ('A' for Active; 'I' for Inactive)
    1  A    between atoms: C_9  and  N_15
    2  A    between atoms: C_13  and  C_22
    3  A    between atoms: C_14  and  N_17
                            x       y       z     vdW  Elec       q    Type
                         _______ _______ _______ _____ _____    ______ ____

>  <TORSDO>
F 3

$$$$
=
 OpenBabel11052423223D

 27 31  0  0  0  0  0  0  0  0999 V2000
  161.2520  207.3760  152.8740 C   0  0  0  0  0  3  0  0  0  0  0  0
  161.6080  208.1160  150.4590 C   0  0  0  0  0  0  0  0  0  0  0  0
  161.4020  210.2860  151.7960 C   0  0  0  0  0  3  0  0  0  0  0  0
  161.9140  207.8570  149.1320 C   0  0  0  0  0  3  0  0  0  0  0  0
  160.9670  210.2650  155.2510 C   0  0  0  0  0  0  0  0  0  0  0  0
  161.3480  207.1160  151.4640 N   0  0  0  0  0  0  0  0  0  0  0  0
  161.9060  210.0170  149.3700 N   0  0  0  0  0  0  0  0  0  0  0  0
  161.2060  208.5450  153.5130 C   0  0  0  0  0  0  0  0  0  0  0  0
  161.6180  209.4900  150.5860 C   0  0  0  0  0  0  0  0  0  0  0  0
  161.1000  210.8080  154.0250 N   0  0  0  0  0  0  0  0  0  0  0  0
  162.0860  209.0330  148.5020 N   0  0  0  0  0  0  0  0  0  0  0  0
  161.0310  208.5950  155.1860 S   0  0  0  0  0  0  0  0  0  0  0  0
  161.2310  209.8710  153.0460 C   0  0  0  0  0  0  0  0  0  0  0  0
  163.1450  211.8270  148.2480 C   0  0  0  0  0  3  0  0  0  0  0  0
  162.3080  214.0970  148.2190 C   0  0  0  0  0  3  0  0  0  0  0  0
  161.1930  213.6940  148.9550 C   0  0  0  0  0  3  0  0  0  0  0  0
  161.0550  212.3570  149.3370 C   0  0  0  0  0  3  0  0  0  0  0  0
  162.0290  211.4060  148.9920 C   0  0  0  0  0  0  0  0  0  0  0  0
  163.2850  213.1630  147.8640 C   0  0  0  0  0  3  0  0  0  0  0  0
  160.8670  203.0760  150.3200 C   0  0  0  0  0  3  0  0  0  0  0  0
  161.2040  205.7340  151.0770 C   0  0  0  0  0  0  0  0  0  0  0  0
  160.8320  205.3850  149.7690 C   0  0  0  0  0  3  0  0  0  0  0  0
  160.6760  204.0790  149.4230 N   0  0  0  0  0  0  0  0  0  0  0  0
  161.2290  203.3720  151.6340 C   0  0  0  0  0  3  0  0  0  0  0  0
  161.3930  204.7040  152.0120 C   0  0  0  0  0  3  0  0  0  0  0  0
  160.4550  212.3610  156.1940 O   0  0  0  0  0  1  0  0  0  0  0  0
  160.8650  211.0650  156.5000 C   0  0  0  0  0  2  0  0  0  0  0  0
  1  8  2  0  0  0  0
  2  9  2  0  0  0  0
  2  6  1  0  0  0  0
  3 13  2  0  0  0  0
  4  2  1  0  0  0  0
  5 27  1  0  0  0  0
  6  1  1  0  0  0  0
  7  9  1  0  0  0  0
  8 12  1  0  0  0  0
  9  3  1  0  0  0  0
 10  5  2  0  0  0  0
 11  4  2  0  0  0  0
 11  7  1  0  0  0  0
 12  5  1  0  0  0  0
 13  8  1  0  0  0  0
 13 10  1  0  0  0  0
 14 18  1  0  0  0  0
 15 16  2  0  0  0  0
 16 17  1  0  0  0  0
 18 17  2  0  0  0  0
 18  7  1  0  0  0  0
 19 15  1  0  0  0  0
 19 14  2  0  0  0  0
 20 24  1  0  0  0  0
 21  6  1  0  0  0  0
 21 25  1  0  0  0  0
 22 21  2  0  0  0  0
 23 22  1  0  0  0  0
 23 20  2  0  0  0  0
 24 25  2  0  0  0  0
 26 27  1  0  0  0  0
M  END
>  <MODEL>
4

>  <REMARK>
 VINA RESULT:      -8.2      2.705      6.735
  Name = 
  3 active torsions:
  status: ('A' for Active; 'I' for Inactive)
    1  A    between atoms: C_9  and  N_15
    2  A    between atoms: C_13  and  C_22
    3  A    between atoms: C_14  and  N_17
                            x       y       z     vdW  Elec       q    Type
                         _______ _______ _______ _____ _____    ______ ____

>  <TORSDO>
F 3

$$$$
=
 OpenBabel11052423223D

 27 31  0  0  0  0  0  0  0  0999 V2000
  161.5880  209.1000  152.4870 C   0  0  0  0  0  3  0  0  0  0  0  0
  161.1780  206.5830  152.4760 C   0  0  0  0  0  0  0  0  0  0  0  0
  161.4350  207.2250  150.0140 C   0  0  0  0  0  3  0  0  0  0  0  0
  161.0480  205.3620  153.1180 C   0  0  0  0  0  3  0  0  0  0  0  0
  162.1070  210.5020  149.0450 C   0  0  0  0  0  0  0  0  0  0  0  0
  161.2320  207.8660  153.1300 N   0  0  0  0  0  0  0  0  0  0  0  0
  161.1480  204.9480  150.9870 N   0  0  0  0  0  0  0  0  0  0  0  0
  161.7620  209.3530  151.1890 C   0  0  0  0  0  0  0  0  0  0  0  0
  161.2490  206.2930  151.1290 C   0  0  0  0  0  0  0  0  0  0  0  0
  161.8560  209.1890  148.8740 N   0  0  0  0  0  0  0  0  0  0  0  0
  161.0310  204.3940  152.1830 N   0  0  0  0  0  0  0  0  0  0  0  0
  162.1220  210.9120  150.6660 S   0  0  0  0  0  0  0  0  0  0  0  0
  161.6600  208.5330  150.0510 C   0  0  0  0  0  0  0  0  0  0  0  0
  161.4280  204.7890  148.5450 C   0  0  0  0  0  3  0  0  0  0  0  0
  161.2270  202.6720  147.3880 C   0  0  0  0  0  3  0  0  0  0  0  0
  160.9700  202.0350  148.6030 C   0  0  0  0  0  3  0  0  0  0  0  0
  160.9410  202.7750  149.7880 C   0  0  0  0  0  3  0  0  0  0  0  0
  161.1670  204.1620  149.7750 C   0  0  0  0  0  0  0  0  0  0  0  0
  161.4580  204.0500  147.3590 C   0  0  0  0  0  3  0  0  0  0  0  0
  160.3590  208.1200  157.2580 C   0  0  0  0  0  3  0  0  0  0  0  0
  160.9530  207.9610  154.5420 C   0  0  0  0  0  0  0  0  0  0  0  0
  160.7360  206.8090  155.3150 C   0  0  0  0  0  3  0  0  0  0  0  0
  160.4500  206.9130  156.6400 N   0  0  0  0  0  0  0  0  0  0  0  0
  160.5570  209.2940  156.5310 C   0  0  0  0  0  3  0  0  0  0  0  0
  160.8510  209.2120  155.1700 C   0  0  0  0  0  3  0  0  0  0  0  0
  161.9820  212.7170  148.2570 O   0  0  0  0  0  1  0  0  0  0  0  0
  162.4150  211.4340  147.9280 C   0  0  0  0  0  2  0  0  0  0  0  0
  1  6  1  0  0  0  0
  2  4  1  0  0  0  0
  2  6  1  0  0  0  0
  3 13  2  0  0  0  0
  3  9  1  0  0  0  0
  5 12  1  0  0  0  0
  6 21  1  0  0  0  0
  7  9  1  0  0  0  0
  7 11  1  0  0  0  0
  8  1  2  0  0  0  0
  9  2  2  0  0  0  0
 10  5  2  0  0  0  0
 10 13  1  0  0  0  0
 11  4  2  0  0  0  0
 12  8  1  0  0  0  0
 13  8  1  0  0  0  0
 14 18  1  0  0  0  0
 15 16  2  0  0  0  0
 16 17  1  0  0  0  0
 18 17  2  0  0  0  0
 18  7  1  0  0  0  0
 19 15  1  0  0  0  0
 19 14  2  0  0  0  0
 21 25  2  0  0  0  0
 21 22  1  0  0  0  0
 22 23  2  0  0  0  0
 23 20  1  0  0  0  0
 24 20  2  0  0  0  0
 25 24  1  0  0  0  0
 27 26  1  0  0  0  0
 27  5  1  0  0  0  0
M  END
>  <MODEL>
5

>  <REMARK>
 VINA RESULT:      -8.2      0.638      1.313
  Name = 
  3 active torsions:
  status: ('A' for Active; 'I' for Inactive)
    1  A    between atoms: C_9  and  N_15
    2  A    between atoms: C_13  and  C_22
    3  A    between atoms: C_14  and  N_17
                            x       y       z     vdW  Elec       q    Type
                         _______ _______ _______ _____ _____    ______ ____

>  <TORSDO>
F 3

$$$$
=
 OpenBabel11052423223D

 27 31  0  0  0  0  0  0  0  0999 V2000
  161.9560  208.6960  148.2760 C   0  0  0  0  0  3  0  0  0  0  0  0
  161.6120  209.8930  150.5010 C   0  0  0  0  0  0  0  0  0  0  0  0
  161.0780  207.4390  150.9780 C   0  0  0  0  0  3  0  0  0  0  0  0
  161.7120  211.0080  151.3190 C   0  0  0  0  0  3  0  0  0  0  0  0
  161.3510  205.0000  148.5070 C   0  0  0  0  0  0  0  0  0  0  0  0
  161.8430  209.8810  149.0780 N   0  0  0  0  0  0  0  0  0  0  0  0
  161.1520  209.3370  152.5910 N   0  0  0  0  0  0  0  0  0  0  0  0
  161.7130  207.4270  148.6080 C   0  0  0  0  0  0  0  0  0  0  0  0
  161.2650  208.8470  151.3310 C   0  0  0  0  0  0  0  0  0  0  0  0
  161.0850  205.4940  149.7320 N   0  0  0  0  0  0  0  0  0  0  0  0
  161.4240  210.6320  152.5790 N   0  0  0  0  0  0  0  0  0  0  0  0
  161.8620  206.2030  147.4630 S   0  0  0  0  0  0  0  0  0  0  0  0
  161.2770  206.8400  149.8090 C   0  0  0  0  0  0  0  0  0  0  0  0
  160.4250  209.3670  154.9450 C   0  0  0  0  0  3  0  0  0  0  0  0
  160.1140  207.3180  156.1950 C   0  0  0  0  0  3  0  0  0  0  0  0
  160.4890  206.5780  155.0720 C   0  0  0  0  0  3  0  0  0  0  0  0
  160.8320  207.2340  153.8860 C   0  0  0  0  0  3  0  0  0  0  0  0
  160.8070  208.6360  153.8070 C   0  0  0  0  0  0  0  0  0  0  0  0
  160.0810  208.7130  156.1310 C   0  0  0  0  0  3  0  0  0  0  0  0
  162.3310  213.5050  146.9590 C   0  0  0  0  0  3  0  0  0  0  0  0
  162.0140  211.1270  148.3720 C   0  0  0  0  0  0  0  0  0  0  0  0
  160.9290  211.7580  147.7450 C   0  0  0  0  0  3  0  0  0  0  0  0
  161.1080  212.9210  147.0620 N   0  0  0  0  0  0  0  0  0  0  0  0
  163.4430  212.9120  147.5570 C   0  0  0  0  0  3  0  0  0  0  0  0
  163.2820  211.7190  148.2610 C   0  0  0  0  0  3  0  0  0  0  0  0
  160.7820  202.8420  149.2580 O   0  0  0  0  0  1  0  0  0  0  0  0
  161.2780  203.5540  148.1670 C   0  0  0  0  0  2  0  0  0  0  0  0
  1  8  2  0  0  0  0
  1  6  1  0  0  0  0
  2  4  1  0  0  0  0
  2  9  2  0  0  0  0
  3  9  1  0  0  0  0
  4 11  2  0  0  0  0
  5 10  2  0  0  0  0
  6  2  1  0  0  0  0
  7 18  1  0  0  0  0
  8 13  1  0  0  0  0
  9  7  1  0  0  0  0
 10 13  1  0  0  0  0
 11  7  1  0  0  0  0
 12  5  1  0  0  0  0
 12  8  1  0  0  0  0
 13  3  2  0  0  0  0
 14 19  1  0  0  0  0
 16 15  1  0  0  0  0
 17 16  2  0  0  0  0
 18 17  1  0  0  0  0
 18 14  2  0  0  0  0
 19 15  2  0  0  0  0
 20 23  2  0  0  0  0
 20 24  1  0  0  0  0
 21  6  1  0  0  0  0
 22 21  2  0  0  0  0
 23 22  1  0  0  0  0
 24 25  2  0  0  0  0
 25 21  1  0  0  0  0
 27  5  1  0  0  0  0
 27 26  1  0  0  0  0
M  END
>  <MODEL>
6

>  <REMARK>
 VINA RESULT:      -7.8      2.582      7.185
  Name = 
  3 active torsions:
  status: ('A' for Active; 'I' for Inactive)
    1  A    between atoms: C_9  and  N_15
    2  A    between atoms: C_13  and  C_22
    3  A    between atoms: C_14  and  N_17
                            x       y       z     vdW  Elec       q    Type
                         _______ _______ _______ _____ _____    ______ ____

>  <TORSDO>
F 3

$$$$
=
 OpenBabel11052423223D

 27 31  0  0  0  0  0  0  0  0999 V2000
  161.0750  210.8930  151.6050 C   0  0  0  0  0  3  0  0  0  0  0  0
  161.4730  209.0210  149.9180 C   0  0  0  0  0  0  0  0  0  0  0  0
  161.0330  207.8320  152.1380 C   0  0  0  0  0  3  0  0  0  0  0  0
  161.6460  208.5570  148.6240 C   0  0  0  0  0  3  0  0  0  0  0  0
  160.3030  209.6070  155.0440 C   0  0  0  0  0  0  0  0  0  0  0  0
  161.4730  210.4070  150.3130 N   0  0  0  0  0  0  0  0  0  0  0  0
  161.3840  206.8110  149.8920 N   0  0  0  0  0  0  0  0  0  0  0  0
  160.8050  210.2050  152.7150 C   0  0  0  0  0  0  0  0  0  0  0  0
  161.3000  207.8970  150.7000 C   0  0  0  0  0  0  0  0  0  0  0  0
  160.5350  208.5170  154.2870 N   0  0  0  0  0  0  0  0  0  0  0  0
  161.5890  207.2120  148.6470 N   0  0  0  0  0  0  0  0  0  0  0  0
  160.4120  211.0100  154.1400 S   0  0  0  0  0  0  0  0  0  0  0  0
  160.8180  208.8270  152.9920 C   0  0  0  0  0  0  0  0  0  0  0  0
  161.3600  205.0240  151.5870 C   0  0  0  0  0  3  0  0  0  0  0  0
  161.0430  202.7050  150.9690 C   0  0  0  0  0  3  0  0  0  0  0  0
  160.9500  203.0770  149.6270 C   0  0  0  0  0  3  0  0  0  0  0  0
  161.0620  204.4230  149.2660 C   0  0  0  0  0  3  0  0  0  0  0  0
  161.2710  205.4140  150.2400 C   0  0  0  0  0  0  0  0  0  0  0  0
  161.2480  203.6790  151.9500 C   0  0  0  0  0  3  0  0  0  0  0  0
  162.5570  213.3620  147.4920 C   0  0  0  0  0  3  0  0  0  0  0  0
  161.8590  211.4210  149.3610 C   0  0  0  0  0  0  0  0  0  0  0  0
  161.0320  212.5260  149.1070 C   0  0  0  0  0  3  0  0  0  0  0  0
  161.3960  213.4630  148.1910 N   0  0  0  0  0  0  0  0  0  0  0  0
  163.4080  212.2780  147.7020 C   0  0  0  0  0  3  0  0  0  0  0  0
  163.0550  211.3050  148.6360 C   0  0  0  0  0  3  0  0  0  0  0  0
  159.0920  210.6290  156.7860 O   0  0  0  0  0  1  0  0  0  0  0  0
  159.9160  209.5480  156.4790 C   0  0  0  0  0  2  0  0  0  0  0  0
  1  8  2  0  0  0  0
  2  6  1  0  0  0  0
  2  9  2  0  0  0  0
  3 13  2  0  0  0  0
  4 11  2  0  0  0  0
  4  2  1  0  0  0  0
  5 27  1  0  0  0  0
  6  1  1  0  0  0  0
  7 18  1  0  0  0  0
  7  9  1  0  0  0  0
  8 13  1  0  0  0  0
  8 12  1  0  0  0  0
  9  3  1  0  0  0  0
 10  5  2  0  0  0  0
 11  7  1  0  0  0  0
 12  5  1  0  0  0  0
 13 10  1  0  0  0  0
 14 19  1  0  0  0  0
 15 19  2  0  0  0  0
 16 15  1  0  0  0  0
 17 16  2  0  0  0  0
 17 18  1  0  0  0  0
 18 14  2  0  0  0  0
 20 24  2  0  0  0  0
 20 23  1  0  0  0  0
 21  6  1  0  0  0  0
 22 21  1  0  0  0  0
 23 22  2  0  0  0  0
 24 25  1  0  0  0  0
 25 21  2  0  0  0  0
 27 26  1  0  0  0  0
M  END
>  <MODEL>
7

>  <REMARK>
 VINA RESULT:      -7.7      2.620      5.841
  Name = 
  3 active torsions:
  status: ('A' for Active; 'I' for Inactive)
    1  A    between atoms: C_9  and  N_15
    2  A    between atoms: C_13  and  C_22
    3  A    between atoms: C_14  and  N_17
                            x       y       z     vdW  Elec       q    Type
                         _______ _______ _______ _____ _____    ______ ____

>  <TORSDO>
F 3

$$$$
=
 OpenBabel11052423223D

 27 31  0  0  0  0  0  0  0  0999 V2000
  161.3670  206.2630  149.3270 C   0  0  0  0  0  3  0  0  0  0  0  0
  161.0830  205.5410  151.7570 C   0  0  0  0  0  0  0  0  0  0  0  0
  161.5670  208.0490  151.8610 C   0  0  0  0  0  3  0  0  0  0  0  0
  160.7350  204.6120  152.7240 C   0  0  0  0  0  3  0  0  0  0  0  0
  162.0290  209.9390  148.9730 C   0  0  0  0  0  0  0  0  0  0  0  0
  161.2260  205.2640  150.3490 N   0  0  0  0  0  0  0  0  0  0  0  0
  161.0110  206.5120  153.7420 N   0  0  0  0  0  0  0  0  0  0  0  0
  161.5640  207.5760  149.4540 C   0  0  0  0  0  0  0  0  0  0  0  0
  161.2430  206.7370  152.4250 C   0  0  0  0  0  0  0  0  0  0  0  0
  161.9530  209.7040  150.2970 N   0  0  0  0  0  0  0  0  0  0  0  0
  160.7030  205.2360  153.9160 N   0  0  0  0  0  0  0  0  0  0  0  0
  161.7600  208.5430  148.0910 S   0  0  0  0  0  0  0  0  0  0  0  0
  161.6970  208.3990  150.5860 C   0  0  0  0  0  0  0  0  0  0  0  0
  161.6140  208.7220  154.6470 C   0  0  0  0  0  3  0  0  0  0  0  0
  161.1570  209.3090  156.9500 C   0  0  0  0  0  3  0  0  0  0  0  0
  160.5980  208.0480  157.1590 C   0  0  0  0  0  3  0  0  0  0  0  0
  160.5470  207.1240  156.1110 C   0  0  0  0  0  3  0  0  0  0  0  0
  161.0570  207.4470  154.8420 C   0  0  0  0  0  0  0  0  0  0  0  0
  161.6650  209.6480  155.6930 C   0  0  0  0  0  3  0  0  0  0  0  0
  161.0870  201.2770  148.9540 C   0  0  0  0  0  3  0  0  0  0  0  0
  161.1960  203.8990  149.8830 C   0  0  0  0  0  0  0  0  0  0  0  0
  161.3130  203.5990  148.5170 C   0  0  0  0  0  3  0  0  0  0  0  0
  161.2590  202.3100  148.0880 N   0  0  0  0  0  0  0  0  0  0  0  0
  160.9560  201.5240  150.3200 C   0  0  0  0  0  3  0  0  0  0  0  0
  161.0080  202.8380  150.7830 C   0  0  0  0  0  3  0  0  0  0  0  0
  161.7280  212.2590  149.2450 O   0  0  0  0  0  1  0  0  0  0  0  0
  162.2410  211.2890  148.3850 C   0  0  0  0  0  2  0  0  0  0  0  0
  1  8  2  0  0  0  0
  1  6  1  0  0  0  0
  2  9  2  0  0  0  0
  2  4  1  0  0  0  0
  3  9  1  0  0  0  0
  4 11  2  0  0  0  0
  5 10  2  0  0  0  0
  6  2  1  0  0  0  0
  7 11  1  0  0  0  0
  7 18  1  0  0  0  0
  8 13  1  0  0  0  0
  9  7  1  0  0  0  0
 10 13  1  0  0  0  0
 12  5  1  0  0  0  0
 12  8  1  0  0  0  0
 13  3  2  0  0  0  0
 14 18  2  0  0  0  0
 14 19  1  0  0  0  0
 15 16  1  0  0  0  0
 17 16  2  0  0  0  0
 18 17  1  0  0  0  0
 19 15  2  0  0  0  0
 20 24  1  0  0  0  0
 21  6  1  0  0  0  0
 21 25  1  0  0  0  0
 22 21  2  0  0  0  0
 23 22  1  0  0  0  0
 23 20  2  0  0  0  0
 24 25  2  0  0  0  0
 27  5  1  0  0  0  0
 27 26  1  0  0  0  0
M  END
>  <MODEL>
8

>  <REMARK>
 VINA RESULT:      -7.5      1.428      6.246
  Name = 
  3 active torsions:
  status: ('A' for Active; 'I' for Inactive)
    1  A    between atoms: C_9  and  N_15
    2  A    between atoms: C_13  and  C_22
    3  A    between atoms: C_14  and  N_17
                            x       y       z     vdW  Elec       q    Type
                         _______ _______ _______ _____ _____    ______ ____

>  <TORSDO>
F 3

$$$$
=
 OpenBabel11052423223D

 27 31  0  0  0  0  0  0  0  0999 V2000
  161.1730  206.8340  151.0980 C   0  0  0  0  0  3  0  0  0  0  0  0
  161.3930  209.3760  151.1060 C   0  0  0  0  0  0  0  0  0  0  0  0
  161.8570  208.6750  148.6910 C   0  0  0  0  0  3  0  0  0  0  0  0
  161.2570  210.6130  151.7140 C   0  0  0  0  0  3  0  0  0  0  0  0
  161.7060  205.3410  147.6980 C   0  0  0  0  0  0  0  0  0  0  0  0
  161.2530  208.1020  151.7680 N   0  0  0  0  0  0  0  0  0  0  0  0
  161.7100  210.9830  149.6210 N   0  0  0  0  0  0  0  0  0  0  0  0
  161.3760  206.5470  149.8120 C   0  0  0  0  0  0  0  0  0  0  0  0
  161.6690  209.6360  149.7790 C   0  0  0  0  0  0  0  0  0  0  0  0
  161.9010  206.6660  147.5530 N   0  0  0  0  0  0  0  0  0  0  0  0
  161.4590  211.5640  150.7830 N   0  0  0  0  0  0  0  0  0  0  0  0
  161.2810  204.9570  149.2690 S   0  0  0  0  0  0  0  0  0  0  0  0
  161.7240  207.3540  148.7140 C   0  0  0  0  0  0  0  0  0  0  0  0
  160.9020  212.0530  147.5540 C   0  0  0  0  0  3  0  0  0  0  0  0
  162.4070  213.2400  146.0770 C   0  0  0  0  0  3  0  0  0  0  0  0
  163.4720  212.9450  146.9290 C   0  0  0  0  0  3  0  0  0  0  0  0
  163.2520  212.2030  148.0930 C   0  0  0  0  0  3  0  0  0  0  0  0
  161.9650  211.7450  148.4200 C   0  0  0  0  0  0  0  0  0  0  0  0
  161.1200  212.7950  146.3900 C   0  0  0  0  0  3  0  0  0  0  0  0
  160.9970  207.9670  155.9840 C   0  0  0  0  0  3  0  0  0  0  0  0
  161.1460  208.0530  153.2050 C   0  0  0  0  0  0  0  0  0  0  0  0
  161.4320  209.1810  153.9910 C   0  0  0  0  0  3  0  0  0  0  0  0
  161.3490  209.1150  155.3470 N   0  0  0  0  0  0  0  0  0  0  0  0
  160.7120  206.8170  155.2490 C   0  0  0  0  0  3  0  0  0  0  0  0
  160.7910  206.8610  153.8570 C   0  0  0  0  0  3  0  0  0  0  0  0
  162.9210  204.6170  145.8140 O   0  0  0  0  0  1  0  0  0  0  0  0
  161.7790  204.3690  146.5740 C   0  0  0  0  0  2  0  0  0  0  0  0
  1  6  1  0  0  0  0
  2  4  1  0  0  0  0
  2  6  1  0  0  0  0
  3 13  2  0  0  0  0
  3  9  1  0  0  0  0
  5 12  1  0  0  0  0
  6 21  1  0  0  0  0
  7  9  1  0  0  0  0
  7 11  1  0  0  0  0
  8  1  2  0  0  0  0
  9  2  2  0  0  0  0
 10  5  2  0  0  0  0
 10 13  1  0  0  0  0
 11  4  2  0  0  0  0
 12  8  1  0  0  0  0
 13  8  1  0  0  0  0
 14 18  1  0  0  0  0
 15 19  1  0  0  0  0
 15 16  2  0  0  0  0
 16 17  1  0  0  0  0
 17 18  2  0  0  0  0
 18  7  1  0  0  0  0
 19 14  2  0  0  0  0
 21 25  2  0  0  0  0
 21 22  1  0  0  0  0
 22 23  2  0  0  0  0
 23 20  1  0  0  0  0
 24 20  2  0  0  0  0
 25 24  1  0  0  0  0
 26 27  1  0  0  0  0
 27  5  1  0  0  0  0
M  END
>  <MODEL>
9

>  <REMARK>
 VINA RESULT:      -7.2      2.600      5.792
  Name = 
  3 active torsions:
  status: ('A' for Active; 'I' for Inactive)
    1  A    between atoms: C_9  and  N_15
    2  A    between atoms: C_13  and  C_22
    3  A    between atoms: C_14  and  N_17
                            x       y       z     vdW  Elec       q    Type
                         _______ _______ _______ _____ _____    ______ ____

>  <TORSDO>
F 3

$$$$
