=
 OpenBabel11052423023D

 28 32  0  0  1  0  0  0  0  0999 V2000
  161.5280  203.4180  148.5430 C   0  0  2  0  0  3  0  0  0  0  0  0
  161.9950  208.6510  148.9970 C   0  0  0  0  0  3  0  0  0  0  0  0
  161.1290  204.3670  153.3040 F   0  0  0  0  0  0  0  0  0  0  0  0
  161.3740  209.0420  151.3150 C   0  0  0  0  0  0  0  0  0  0  0  0
  161.5790  206.7550  150.4930 C   0  0  0  0  0  0  0  0  0  0  0  0
  161.7790  210.9140  149.8330 C   0  0  0  0  0  0  0  0  0  0  0  0
  161.6520  208.1410  150.2590 C   0  0  0  0  0  0  0  0  0  0  0  0
  160.9790  207.1820  152.8120 C   0  0  0  0  0  3  0  0  0  0  0  0
  161.4380  210.4210  151.0960 C   0  0  0  0  0  3  0  0  0  0  0  0
  161.1560  203.9580  150.9950 C   0  0  0  0  0  0  0  0  0  0  0  0
  161.9490  205.7590  149.4280 C   0  0  0  0  0  2  0  0  0  0  0  0
  161.0420  208.5580  152.5820 C   0  0  0  0  0  3  0  0  0  0  0  0
  160.9470  201.5800  150.3470 C   0  0  0  0  0  3  0  0  0  0  0  0
  161.1650  204.8220  152.0230 C   0  0  0  0  0  0  0  0  0  0  0  0
  161.1750  202.5070  151.2760 C   0  0  0  0  0  3  0  0  0  0  0  0
  161.8420  212.2850  149.6190 O   0  0  0  0  0  1  0  0  0  0  0  0
  162.0570  210.0310  148.7870 C   0  0  0  0  0  3  0  0  0  0  0  0
  161.2410  206.2780  151.7770 C   0  0  0  0  0  0  0  0  0  0  0  0
  160.4100  201.9870  148.6830 S   0  0  0  0  0  0  0  0  0  0  0  0
  161.1080  204.4830  149.5660 C   0  0  1  0  0  3  0  0  0  0  0  0
  161.5050  203.9370  147.1350 C   0  0  0  0  0  0  0  0  0  0  0  0
  160.5740  203.4590  146.1980 C   0  0  0  0  0  3  0  0  0  0  0  0
  161.4960  204.9420  144.5170 C   0  0  0  0  0  0  0  0  0  0  0  0
  162.4290  204.9150  146.7540 C   0  0  0  0  0  3  0  0  0  0  0  0
  159.6420  203.4820  143.9760 O   0  0  0  0  0  1  0  0  0  0  0  0
  160.5690  203.9610  144.8930 C   0  0  0  0  0  0  0  0  0  0  0  0
  161.4990  205.4470  143.2240 O   0  0  0  0  0  1  0  0  0  0  0  0
  162.4250  205.4160  145.4490 C   0  0  0  0  0  3  0  0  0  0  0  0
  1 21  1  6  0  0  0
  1 19  1  0  0  0  0
  1 20  1  0  0  0  0
  2  7  1  0  0  0  0
  4 12  1  0  0  0  0
  5 18  2  0  0  0  0
  6  9  2  0  0  0  0
  7  5  1  0  0  0  0
  7  4  2  0  0  0  0
  9  4  1  0  0  0  0
 10 15  1  0  0  0  0
 10 14  2  0  0  0  0
 11  5  1  0  0  0  0
 12  8  2  0  0  0  0
 13 15  2  0  0  0  0
 14  3  1  0  0  0  0
 16  6  1  0  0  0  0
 17  2  2  0  0  0  0
 17  6  1  0  0  0  0
 18 14  1  0  0  0  0
 18  8  1  0  0  0  0
 19 13  1  0  0  0  0
 20 11  1  1  0  0  0
 20 10  1  0  0  0  0
 22 21  2  0  0  0  0
 23 26  2  0  0  0  0
 23 28  1  0  0  0  0
 24 21  1  0  0  0  0
 25 26  1  0  0  0  0
 26 22  1  0  0  0  0
 27 23  1  0  0  0  0
 28 24  2  0  0  0  0
M  END
>  <MODEL>
1

>  <REMARK>
 VINA RESULT:     -10.6      0.000      0.000
  Name = 
  1 active torsions:
  status: ('A' for Active; 'I' for Inactive)
    1  A    between atoms: C_1  and  C_2
                            x       y       z     vdW  Elec       q    Type
                         _______ _______ _______ _____ _____    ______ ____

>  <TORSDO>
F 1

$$$$
=
 OpenBabel11052423023D

 28 32  0  0  1  0  0  0  0  0999 V2000
  161.5270  204.0410  149.5090 C   0  0  2  0  0  3  0  0  0  0  0  0
  162.0330  209.2590  148.9380 C   0  0  0  0  0  3  0  0  0  0  0  0
  161.1970  205.8950  154.0010 F   0  0  0  0  0  0  0  0  0  0  0  0
  161.4450  210.0960  151.1440 C   0  0  0  0  0  0  0  0  0  0  0  0
  161.6250  207.6910  150.7770 C   0  0  0  0  0  0  0  0  0  0  0  0
  161.8430  211.6430  149.3230 C   0  0  0  0  0  0  0  0  0  0  0  0
  161.7030  209.0050  150.2790 C   0  0  0  0  0  0  0  0  0  0  0  0
  161.0580  208.5640  152.9760 C   0  0  0  0  0  3  0  0  0  0  0  0
  161.5160  211.4060  150.6610 C   0  0  0  0  0  3  0  0  0  0  0  0
  161.1910  205.0470  151.8160 C   0  0  0  0  0  0  0  0  0  0  0  0
  161.9740  206.5050  149.9200 C   0  0  0  0  0  2  0  0  0  0  0  0
  161.1270  209.8680  152.4840 C   0  0  0  0  0  3  0  0  0  0  0  0
  160.9580  202.5920  151.6410 C   0  0  0  0  0  3  0  0  0  0  0  0
  161.2180  206.0950  152.6570 C   0  0  0  0  0  0  0  0  0  0  0  0
  161.2040  203.6790  152.3710 C   0  0  0  0  0  3  0  0  0  0  0  0
  161.9110  212.9450  148.8470 O   0  0  0  0  0  1  0  0  0  0  0  0
  162.1010  210.5710  148.4640 C   0  0  0  0  0  3  0  0  0  0  0  0
  161.3010  207.4750  152.1320 C   0  0  0  0  0  0  0  0  0  0  0  0
  160.4010  202.6740  149.9360 S   0  0  0  0  0  0  0  0  0  0  0  0
  161.1270  205.2870  150.3130 C   0  0  1  0  0  3  0  0  0  0  0  0
  161.4880  204.2780  148.0280 C   0  0  0  0  0  0  0  0  0  0  0  0
  161.0990  203.2640  147.1370 C   0  0  0  0  0  3  0  0  0  0  0  0
  161.4260  204.7710  145.2680 C   0  0  0  0  0  0  0  0  0  0  0  0
  161.8470  205.5350  147.5300 C   0  0  0  0  0  3  0  0  0  0  0  0
  160.6790  202.5000  144.8910 O   0  0  0  0  0  1  0  0  0  0  0  0
  161.0670  203.5110  145.7620 C   0  0  0  0  0  0  0  0  0  0  0  0
  161.3970  205.0260  143.9040 O   0  0  0  0  0  1  0  0  0  0  0  0
  161.8160  205.7810  146.1540 C   0  0  0  0  0  3  0  0  0  0  0  0
  1 21  1  6  0  0  0
  1 19  1  0  0  0  0
  1 20  1  0  0  0  0
  2  7  1  0  0  0  0
  4 12  1  0  0  0  0
  5 18  2  0  0  0  0
  6  9  2  0  0  0  0
  7  5  1  0  0  0  0
  7  4  2  0  0  0  0
  9  4  1  0  0  0  0
 10 15  1  0  0  0  0
 10 14  2  0  0  0  0
 11  5  1  0  0  0  0
 12  8  2  0  0  0  0
 13 15  2  0  0  0  0
 14  3  1  0  0  0  0
 16  6  1  0  0  0  0
 17  2  2  0  0  0  0
 17  6  1  0  0  0  0
 18 14  1  0  0  0  0
 18  8  1  0  0  0  0
 19 13  1  0  0  0  0
 20 11  1  1  0  0  0
 20 10  1  0  0  0  0
 22 21  2  0  0  0  0
 23 26  2  0  0  0  0
 23 28  1  0  0  0  0
 24 21  1  0  0  0  0
 25 26  1  0  0  0  0
 26 22  1  0  0  0  0
 27 23  1  0  0  0  0
 28 24  2  0  0  0  0
M  END
>  <MODEL>
2

>  <REMARK>
 VINA RESULT:     -10.2      0.984      1.180
  Name = 
  1 active torsions:
  status: ('A' for Active; 'I' for Inactive)
    1  A    between atoms: C_1  and  C_2
                            x       y       z     vdW  Elec       q    Type
                         _______ _______ _______ _____ _____    ______ ____

>  <TORSDO>
F 1

$$$$
=
 OpenBabel11052423023D

 28 32  0  0  1  0  0  0  0  0999 V2000
  160.9400  206.7090  151.7460 C   0  0  2  0  0  3  0  0  0  0  0  0
  160.9120  206.1940  146.4980 C   0  0  0  0  0  3  0  0  0  0  0  0
  160.7460  201.9170  150.8940 F   0  0  0  0  0  0  0  0  0  0  0  0
  161.2310  203.8030  146.1950 C   0  0  0  0  0  0  0  0  0  0  0  0
  160.9280  204.7020  148.4420 C   0  0  0  0  0  0  0  0  0  0  0  0
  161.2200  205.2800  144.2760 C   0  0  0  0  0  0  0  0  0  0  0  0
  161.0220  204.9100  147.0530 C   0  0  0  0  0  0  0  0  0  0  0  0
  161.2310  202.3120  148.1010 C   0  0  0  0  0  3  0  0  0  0  0  0
  161.3290  203.9940  144.8140 C   0  0  0  0  0  3  0  0  0  0  0  0
  161.0080  204.2160  151.2730 C   0  0  0  0  0  0  0  0  0  0  0  0
  160.6220  205.8340  149.3850 C   0  0  0  0  0  2  0  0  0  0  0  0
  161.3320  202.5140  146.7240 C   0  0  0  0  0  3  0  0  0  0  0  0
  161.0810  204.8880  153.6520 C   0  0  0  0  0  3  0  0  0  0  0  0
  160.9360  203.1780  150.4230 C   0  0  0  0  0  0  0  0  0  0  0  0
  160.8130  203.9770  152.7170 C   0  0  0  0  0  3  0  0  0  0  0  0
  161.3190  205.4670  142.9040 O   0  0  0  0  0  1  0  0  0  0  0  0
  161.0110  206.3770  145.1160 C   0  0  0  0  0  3  0  0  0  0  0  0
  161.0340  203.3960  148.9640 C   0  0  0  0  0  0  0  0  0  0  0  0
  161.8860  206.4490  153.2810 S   0  0  0  0  0  0  0  0  0  0  0  0
  161.3090  205.6100  150.7390 C   0  0  1  0  0  3  0  0  0  0  0  0
  161.2130  208.0860  151.2160 C   0  0  0  0  0  0  0  0  0  0  0  0
  160.8260  209.2320  151.9300 C   0  0  0  0  0  3  0  0  0  0  0  0
  161.7490  210.6380  150.1870 C   0  0  0  0  0  0  0  0  0  0  0  0
  161.8650  208.2260  149.9860 C   0  0  0  0  0  3  0  0  0  0  0  0
  160.7090  211.6300  152.1350 O   0  0  0  0  0  1  0  0  0  0  0  0
  161.0940  210.5040  151.4170 C   0  0  0  0  0  0  0  0  0  0  0  0
  162.0210  211.8980  149.6690 O   0  0  0  0  0  1  0  0  0  0  0  0
  162.1320  209.4980  149.4730 C   0  0  0  0  0  3  0  0  0  0  0  0
  1 21  1  6  0  0  0
  1 19  1  0  0  0  0
  2  7  1  0  0  0  0
  4 12  2  0  0  0  0
  4  7  1  0  0  0  0
  5 18  1  0  0  0  0
  5 11  1  0  0  0  0
  6  9  2  0  0  0  0
  6 17  1  0  0  0  0
  7  5  2  0  0  0  0
  8 18  2  0  0  0  0
  9  4  1  0  0  0  0
 10 15  1  0  0  0  0
 12  8  1  0  0  0  0
 14  3  1  0  0  0  0
 14 10  2  0  0  0  0
 15 13  2  0  0  0  0
 16  6  1  0  0  0  0
 17  2  2  0  0  0  0
 18 14  1  0  0  0  0
 19 13  1  0  0  0  0
 20 11  1  6  0  0  0
 20 10  1  0  0  0  0
 20  1  1  0  0  0  0
 21 22  1  0  0  0  0
 23 26  1  0  0  0  0
 24 21  2  0  0  0  0
 26 22  2  0  0  0  0
 26 25  1  0  0  0  0
 27 23  1  0  0  0  0
 28 24  1  0  0  0  0
 28 23  2  0  0  0  0
M  END
>  <MODEL>
3

>  <REMARK>
 VINA RESULT:     -10.1      1.787      6.351
  Name = 
  1 active torsions:
  status: ('A' for Active; 'I' for Inactive)
    1  A    between atoms: C_1  and  C_2
                            x       y       z     vdW  Elec       q    Type
                         _______ _______ _______ _____ _____    ______ ____

>  <TORSDO>
F 1

$$$$
=
 OpenBabel11052423023D

 28 32  0  0  1  0  0  0  0  0999 V2000
  160.9850  209.7140  152.4320 C   0  0  2  0  0  3  0  0  0  0  0  0
  160.9220  206.6030  148.1740 C   0  0  0  0  0  3  0  0  0  0  0  0
  161.0250  205.1500  154.1340 F   0  0  0  0  0  0  0  0  0  0  0  0
  161.3590  204.4040  149.1140 C   0  0  0  0  0  0  0  0  0  0  0  0
  161.0370  206.3080  150.6040 C   0  0  0  0  0  0  0  0  0  0  0  0
  161.2500  204.6990  146.7130 C   0  0  0  0  0  0  0  0  0  0  0  0
  161.1040  205.7840  149.2990 C   0  0  0  0  0  0  0  0  0  0  0  0
  161.4570  204.0900  151.5110 C   0  0  0  0  0  3  0  0  0  0  0  0
  161.4310  203.8710  147.8240 C   0  0  0  0  0  3  0  0  0  0  0  0
  161.1750  207.3300  153.2860 C   0  0  0  0  0  0  0  0  0  0  0  0
  160.6840  207.7490  150.8540 C   0  0  0  0  0  2  0  0  0  0  0  0
  161.5320  203.5680  150.2190 C   0  0  0  0  0  3  0  0  0  0  0  0
  161.2410  209.1200  154.9920 C   0  0  0  0  0  3  0  0  0  0  0  0
  161.1450  206.0030  153.0830 C   0  0  0  0  0  0  0  0  0  0  0  0
  161.0080  207.8510  154.6580 C   0  0  0  0  0  3  0  0  0  0  0  0
  161.3230  204.1670  145.4330 O   0  0  0  0  0  1  0  0  0  0  0  0
  160.9950  206.0620  146.8880 C   0  0  0  0  0  3  0  0  0  0  0  0
  161.2150  205.4530  151.7120 C   0  0  0  0  0  0  0  0  0  0  0  0
  161.9610  210.3060  153.8520 S   0  0  0  0  0  0  0  0  0  0  0  0
  161.3980  208.2700  152.1080 C   0  0  1  0  0  3  0  0  0  0  0  0
  161.1810  210.6400  151.2680 C   0  0  0  0  0  0  0  0  0  0  0  0
  160.5000  211.8650  151.1890 C   0  0  0  0  0  3  0  0  0  0  0  0
  161.5840  212.3390  149.0740 C   0  0  0  0  0  0  0  0  0  0  0  0
  162.0590  210.2700  150.2440 C   0  0  0  0  0  3  0  0  0  0  0  0
  160.0230  213.9240  150.0300 O   0  0  0  0  0  1  0  0  0  0  0  0
  160.7010  212.7130  150.0960 C   0  0  0  0  0  0  0  0  0  0  0  0
  161.7910  213.1740  147.9840 O   0  0  0  0  0  1  0  0  0  0  0  0
  162.2600  211.1170  149.1500 C   0  0  0  0  0  3  0  0  0  0  0  0
  1 21  1  6  0  0  0
  1 19  1  0  0  0  0
  2  7  1  0  0  0  0
  4  7  2  0  0  0  0
  4 12  1  0  0  0  0
  5 11  1  0  0  0  0
  5 18  2  0  0  0  0
  6 17  1  0  0  0  0
  6  9  2  0  0  0  0
  7  5  1  0  0  0  0
  8 18  1  0  0  0  0
  9  4  1  0  0  0  0
 10 15  1  0  0  0  0
 12  8  2  0  0  0  0
 14 10  2  0  0  0  0
 14  3  1  0  0  0  0
 15 13  2  0  0  0  0
 16  6  1  0  0  0  0
 17  2  2  0  0  0  0
 18 14  1  0  0  0  0
 19 13  1  0  0  0  0
 20 11  1  6  0  0  0
 20  1  1  0  0  0  0
 20 10  1  0  0  0  0
 22 21  1  0  0  0  0
 23 28  2  0  0  0  0
 23 26  1  0  0  0  0
 24 21  2  0  0  0  0
 25 26  1  0  0  0  0
 26 22  2  0  0  0  0
 27 23  1  0  0  0  0
 28 24  1  0  0  0  0
M  END
>  <MODEL>
4

>  <REMARK>
 VINA RESULT:     -10.1      2.335      6.714
  Name = 
  1 active torsions:
  status: ('A' for Active; 'I' for Inactive)
    1  A    between atoms: C_1  and  C_2
                            x       y       z     vdW  Elec       q    Type
                         _______ _______ _______ _____ _____    ______ ____

>  <TORSDO>
F 1

$$$$
=
 OpenBabel11052423023D

 28 32  0  0  1  0  0  0  0  0999 V2000
  161.5260  209.2000  152.4450 C   0  0  2  0  0  3  0  0  0  0  0  0
  161.2040  204.0400  151.4090 C   0  0  0  0  0  3  0  0  0  0  0  0
  162.1960  208.7780  147.6390 F   0  0  0  0  0  0  0  0  0  0  0  0
  161.1360  203.9870  148.9790 C   0  0  0  0  0  0  0  0  0  0  0  0
  161.5080  206.1070  150.1280 C   0  0  0  0  0  0  0  0  0  0  0  0
  160.8300  201.9470  150.2470 C   0  0  0  0  0  0  0  0  0  0  0  0
  161.2840  204.7180  150.1830 C   0  0  0  0  0  0  0  0  0  0  0  0
  161.4540  206.0150  147.6970 C   0  0  0  0  0  3  0  0  0  0  0  0
  160.9090  202.6080  149.0190 C   0  0  0  0  0  3  0  0  0  0  0  0
  161.7040  208.9660  149.9230 C   0  0  0  0  0  0  0  0  0  0  0  0
  161.7570  206.9110  151.3740 C   0  0  0  0  0  2  0  0  0  0  0  0
  161.2230  204.6390  147.7470 C   0  0  0  0  0  3  0  0  0  0  0  0
  161.7410  211.2700  150.8210 C   0  0  0  0  0  3  0  0  0  0  0  0
  161.8280  208.2120  148.8190 C   0  0  0  0  0  0  0  0  0  0  0  0
  162.0380  210.4030  149.8540 C   0  0  0  0  0  3  0  0  0  0  0  0
  160.6040  200.5780  150.2830 O   0  0  0  0  0  1  0  0  0  0  0  0
  160.9780  202.6610  151.4400 C   0  0  0  0  0  3  0  0  0  0  0  0
  161.5920  206.7530  148.8770 C   0  0  0  0  0  0  0  0  0  0  0  0
  160.7380  210.8300  152.2430 S   0  0  0  0  0  0  0  0  0  0  0  0
  161.2060  208.3350  151.2170 C   0  0  1  0  0  3  0  0  0  0  0  0
  161.0580  208.5720  153.7250 C   0  0  0  0  0  0  0  0  0  0  0  0
  160.7860  209.3510  154.8620 C   0  0  0  0  0  3  0  0  0  0  0  0
  160.1810  207.3530  156.0930 C   0  0  0  0  0  0  0  0  0  0  0  0
  160.8920  207.1850  153.7820 C   0  0  0  0  0  3  0  0  0  0  0  0
  160.0800  209.5240  157.1600 O   0  0  0  0  0  1  0  0  0  0  0  0
  160.3480  208.7430  156.0420 C   0  0  0  0  0  0  0  0  0  0  0  0
  159.7460  206.7400  157.2600 O   0  0  0  0  0  1  0  0  0  0  0  0
  160.4550  206.5770  154.9620 C   0  0  0  0  0  3  0  0  0  0  0  0
  1 21  1  1  0  0  0
  2 17  1  0  0  0  0
  3 14  1  0  0  0  0
  4  9  2  0  0  0  0
  4  7  1  0  0  0  0
  5  7  1  0  0  0  0
  5 11  1  0  0  0  0
  6 16  1  0  0  0  0
  6 17  2  0  0  0  0
  7  2  2  0  0  0  0
  8 12  2  0  0  0  0
  8 18  1  0  0  0  0
  9  6  1  0  0  0  0
 10 20  1  0  0  0  0
 12  4  1  0  0  0  0
 13 19  1  0  0  0  0
 14 18  1  0  0  0  0
 14 10  2  0  0  0  0
 15 10  1  0  0  0  0
 15 13  2  0  0  0  0
 18  5  2  0  0  0  0
 19  1  1  0  0  0  0
 20 11  1  1  0  0  0
 20  1  1  0  0  0  0
 21 24  2  0  0  0  0
 21 22  1  0  0  0  0
 22 26  2  0  0  0  0
 23 27  1  0  0  0  0
 24 28  1  0  0  0  0
 26 23  1  0  0  0  0
 26 25  1  0  0  0  0
 28 23  2  0  0  0  0
M  END
>  <MODEL>
5

>  <REMARK>
 VINA RESULT:     -10.0      3.800      8.340
  Name = 
  1 active torsions:
  status: ('A' for Active; 'I' for Inactive)
    1  A    between atoms: C_1  and  C_2
                            x       y       z     vdW  Elec       q    Type
                         _______ _______ _______ _____ _____    ______ ____

>  <TORSDO>
F 1

$$$$
=
 OpenBabel11052423023D

 28 32  0  0  1  0  0  0  0  0999 V2000
  161.1920  205.0300  148.1600 C   0  0  2  0  0  3  0  0  0  0  0  0
  160.6860  206.5230  153.1920 C   0  0  0  0  0  3  0  0  0  0  0  0
  162.0220  209.8290  148.1990 F   0  0  0  0  0  0  0  0  0  0  0  0
  161.5160  208.8080  153.1570 C   0  0  0  0  0  0  0  0  0  0  0  0
  161.2710  207.5830  151.0610 C   0  0  0  0  0  0  0  0  0  0  0  0
  160.9430  207.7560  155.2610 C   0  0  0  0  0  0  0  0  0  0  0  0
  161.1550  207.6270  152.4640 C   0  0  0  0  0  0  0  0  0  0  0  0
  162.0810  209.8770  151.0600 C   0  0  0  0  0  3  0  0  0  0  0  0
  161.4100  208.8640  154.5490 C   0  0  0  0  0  3  0  0  0  0  0  0
  161.7840  207.4970  148.2350 C   0  0  0  0  0  0  0  0  0  0  0  0
  160.8190  206.3830  150.2740 C   0  0  0  0  0  2  0  0  0  0  0  0
  161.9740  209.9230  152.4510 C   0  0  0  0  0  3  0  0  0  0  0  0
  161.9690  206.3870  146.0330 C   0  0  0  0  0  3  0  0  0  0  0  0
  161.8590  208.6690  148.8880 C   0  0  0  0  0  0  0  0  0  0  0  0
  161.8150  207.4940  146.7590 C   0  0  0  0  0  3  0  0  0  0  0  0
  160.8390  207.8160  156.6440 O   0  0  0  0  0  1  0  0  0  0  0  0
  160.5820  206.5880  154.5840 C   0  0  0  0  0  3  0  0  0  0  0  0
  161.7360  208.7150  150.3610 C   0  0  0  0  0  0  0  0  0  0  0  0
  162.3410  204.7910  146.7670 S   0  0  0  0  0  0  0  0  0  0  0  0
  161.6890  206.1980  149.0240 C   0  0  1  0  0  3  0  0  0  0  0  0
  161.0740  203.7520  148.9370 C   0  0  0  0  0  0  0  0  0  0  0  0
  161.0230  203.7550  150.3410 C   0  0  0  0  0  3  0  0  0  0  0  0
  160.8490  201.3380  150.3470 C   0  0  0  0  0  0  0  0  0  0  0  0
  161.0160  202.5370  148.2470 C   0  0  0  0  0  3  0  0  0  0  0  0
  160.8570  202.5690  152.4320 O   0  0  0  0  0  1  0  0  0  0  0  0
  160.9090  202.5520  151.0430 C   0  0  0  0  0  0  0  0  0  0  0  0
  160.7370  200.1380  151.0350 O   0  0  0  0  0  1  0  0  0  0  0  0
  160.9040  201.3340  148.9490 C   0  0  0  0  0  3  0  0  0  0  0  0
  1 21  1  1  0  0  0
  1 20  1  0  0  0  0
  2 17  1  0  0  0  0
  3 14  1  0  0  0  0
  4  9  2  0  0  0  0
  5  7  1  0  0  0  0
  6 16  1  0  0  0  0
  7  4  1  0  0  0  0
  7  2  2  0  0  0  0
  8 12  2  0  0  0  0
  9  6  1  0  0  0  0
 10 14  2  0  0  0  0
 10 20  1  0  0  0  0
 11  5  1  0  0  0  0
 12  4  1  0  0  0  0
 13 15  2  0  0  0  0
 13 19  1  0  0  0  0
 14 18  1  0  0  0  0
 15 10  1  0  0  0  0
 17  6  2  0  0  0  0
 18  8  1  0  0  0  0
 18  5  2  0  0  0  0
 19  1  1  0  0  0  0
 20 11  1  1  0  0  0
 21 22  1  0  0  0  0
 22 26  2  0  0  0  0
 23 27  1  0  0  0  0
 23 26  1  0  0  0  0
 24 21  2  0  0  0  0
 24 28  1  0  0  0  0
 26 25  1  0  0  0  0
 28 23  2  0  0  0  0
M  END
>  <MODEL>
6

>  <REMARK>
 VINA RESULT:      -8.5      3.471      5.198
  Name = 
  1 active torsions:
  status: ('A' for Active; 'I' for Inactive)
    1  A    between atoms: C_1  and  C_2
                            x       y       z     vdW  Elec       q    Type
                         _______ _______ _______ _____ _____    ______ ____

>  <TORSDO>
F 1

$$$$
