=
 OpenBabel11062409153D

 37 38  0  0  1  0  0  0  0  0999 V2000
  160.1140  209.4150  153.7210 C   0  0  1  0  0  3  0  0  0  0  0  0
  163.1210  210.4740  151.3220 C   0  0  0  0  0  2  0  0  0  0  0  0
  160.7710  209.4870  152.4130 N   0  0  0  0  0  0  0  0  0  0  0  0
  160.8870  209.1030  151.0730 C   0  0  1  0  0  3  0  0  0  0  0  0
  161.9440  209.8930  151.5090 C   0  0  0  0  0  0  0  0  0  0  0  0
  161.2410  207.6220  151.0330 C   0  0  0  0  0  2  0  0  0  0  0  0
  160.2420  206.8010  150.2220 C   0  0  0  0  0  2  0  0  0  0  0  0
  161.6610  206.8920  148.1680 C   0  0  0  0  0  3  0  0  0  0  0  0
  160.9370  206.1280  149.0920 C   0  0  0  0  0  0  0  0  0  0  0  0
  160.8700  204.7320  148.9490 C   0  0  0  0  0  3  0  0  0  0  0  0
  161.4540  202.7280  147.7360 O   0  0  0  0  0  1  0  0  0  0  0  0
  162.2350  204.8800  146.9520 C   0  0  0  0  0  3  0  0  0  0  0  0
  161.5180  204.1100  147.8780 C   0  0  0  0  0  0  0  0  0  0  0  0
  162.3090  206.2680  147.0990 C   0  0  0  0  0  3  0  0  0  0  0  0
  161.0700  208.8310  154.7910 C   0  0  2  0  0  3  0  0  0  0  0  0
  161.4120  206.5860  153.9110 C   0  0  0  0  0  0  0  0  0  0  0  0
  160.8590  205.4500  153.5770 C   0  0  0  0  0  3  0  0  0  0  0  0
  161.9510  207.7220  154.2590 C   0  0  0  0  0  3  0  0  0  0  0  0
  160.6130  203.3950  152.2450 C   0  0  0  0  0  1  0  0  0  0  0  0
  161.5290  204.5520  152.5930 C   0  0  0  0  0  2  0  0  0  0  0  0
  160.3300  208.4530  156.0130 N   0  0  0  0  0  0  0  0  0  0  0  0
  159.4830  207.2660  155.8270 C   0  0  0  0  0  1  0  0  0  0  0  0
  162.2880  209.4010  157.2610 C   0  0  0  0  0  1  0  0  0  0  0  0
  161.2290  208.3000  157.1670 C   0  0  0  0  0  2  0  0  0  0  0  0
  159.4890  210.7880  154.1240 C   0  0  2  0  0  0  0  0  0  0  0  0
  160.1840  212.2570  156.1120 C   0  0  0  0  0  1  0  0  0  0  0  0
  160.5420  211.7390  154.7300 C   0  0  0  0  0  2  0  0  0  0  0  0
  158.4520  210.5550  155.2360 C   0  0  0  0  0  2  0  0  0  0  0  0
  156.8030  212.0410  156.3140 C   0  0  0  0  0  1  0  0  0  0  0  0
  157.1300  211.2900  155.0370 C   0  0  2  0  0  3  0  0  0  0  0  0
  155.2410  210.4470  155.8620 C   0  0  0  0  0  1  0  0  0  0  0  0
  156.1260  210.3520  154.7870 O   0  0  0  0  0  0  0  0  0  0  0  0
  158.7950  211.4380  152.9040 C   0  0  0  0  0  2  0  0  0  0  0  0
  159.4710  212.7180  152.4150 C   0  0  0  0  0  2  0  0  0  0  0  0
  158.4580  213.6230  151.7420 C   0  0  0  0  0  2  0  0  0  0  0  0
  159.0190  214.1710  150.4420 C   0  0  0  0  0  2  0  0  0  0  0  0
  160.2330  213.3680  150.0180 C   0  0  0  0  0  1  0  0  0  0  0  0
  1 25  1  0  0  0  0
  1 15  1  1  0  0  0
  2  5  2  0  0  0  0
  3  1  1  0  0  0  0
  4  6  1  1  0  0  0
  4  5  1  0  0  0  0
  4  3  1  0  0  0  0
  5  3  1  0  0  0  0
  7  6  1  0  0  0  0
  8  9  1  0  0  0  0
  9  7  1  0  0  0  0
 10  9  2  0  0  0  0
 11 13  1  0  0  0  0
 12 14  1  0  0  0  0
 12 13  2  0  0  0  0
 13 10  1  0  0  0  0
 14  8  2  0  0  0  0
 15 18  1  6  0  0  0
 15 21  1  0  0  0  0
 16 18  2  0  0  0  0
 17 16  2  0  0  0  0
 19 20  1  0  0  0  0
 20 17  1  0  0  0  0
 21 24  1  0  0  0  0
 22 21  1  0  0  0  0
 24 23  1  0  0  0  0
 25 33  1  6  0  0  0
 25 27  1  0  0  0  0
 25 28  1  0  0  0  0
 27 26  1  0  0  0  0
 30 28  1  0  0  0  0
 30 29  1  1  0  0  0
 32 30  1  0  0  0  0
 32 31  1  0  0  0  0
 34 33  1  0  0  0  0
 35 34  1  0  0  0  0
 36 35  1  0  0  0  0
 37 36  1  0  0  0  0
M  END
>  <MODEL>
1

>  <REMARK>
 VINA RESULT:      -4.0      0.000      0.000
  Name = 
  18 active torsions:
  status: ('A' for Active; 'I' for Inactive)
    1  A    between atoms: N_1  and  C_23
    2  A    between atoms: N_1  and  C_36
    3  A    between atoms: C_3  and  C_32
    4  A    between atoms: C_6  and  C_31
    5  A    between atoms: C_9  and  C_13
    6  A    between atoms: C_9  and  C_32
    7  A    between atoms: N_10  and  C_29
    8  A    between atoms: C_13  and  C_20
    9  A    between atoms: C_14  and  C_37
   10  A    between atoms: C_16  and  C_20
   11  A    between atoms: C_16  and  C_24
   12  A    between atoms: C_20  and  C_25
   13  A    between atoms: C_20  and  C_29
   14  A    between atoms: C_24  and  O_28
   15  A    between atoms: C_26  and  C_34
   16  A    between atoms: C_29  and  C_36
   17  A    between atoms: C_31  and  C_37
   18  A    between atoms: C_33  and  C_36
                            x       y       z     vdW  Elec       q    Type
                         _______ _______ _______ _____ _____    ______ ____

>  <TORSDO>
F 18

$$$$
=
 OpenBabel11062409153D

 37 38  0  0  1  0  0  0  0  0999 V2000
  162.0530  208.4770  152.3910 C   0  0  1  0  0  3  0  0  0  0  0  0
  160.4790  205.2130  154.0590 C   0  0  0  0  0  2  0  0  0  0  0  0
  162.0270  207.0360  152.6580 N   0  0  0  0  0  0  0  0  0  0  0  0
  162.4560  205.7300  152.3990 C   0  0  1  0  0  3  0  0  0  0  0  0
  161.3990  205.7910  153.3000 C   0  0  0  0  0  0  0  0  0  0  0  0
  162.0060  205.3540  150.9940 C   0  0  0  0  0  2  0  0  0  0  0  0
  160.7210  204.5300  150.9890 C   0  0  0  0  0  2  0  0  0  0  0  0
  160.8820  202.0670  150.6030 C   0  0  0  0  0  3  0  0  0  0  0  0
  160.8680  203.3640  150.0760 C   0  0  0  0  0  0  0  0  0  0  0  0
  160.9920  203.5600  148.6910 C   0  0  0  0  0  3  0  0  0  0  0  0
  161.2610  202.6520  146.4700 O   0  0  0  0  0  1  0  0  0  0  0  0
  161.1600  201.1630  148.3750 C   0  0  0  0  0  3  0  0  0  0  0  0
  161.1400  202.4600  147.8420 C   0  0  0  0  0  0  0  0  0  0  0  0
  161.0280  200.9680  149.7530 C   0  0  0  0  0  3  0  0  0  0  0  0
  161.6560  208.7760  150.9230 C   0  0  2  0  0  3  0  0  0  0  0  0
  161.5210  207.4020  148.9160 C   0  0  0  0  0  0  0  0  0  0  0  0
  160.7870  207.0160  147.9070 C   0  0  0  0  0  3  0  0  0  0  0  0
  162.2380  207.7880  149.9360 C   0  0  0  0  0  3  0  0  0  0  0  0
  160.3710  206.1540  145.6390 C   0  0  0  0  0  1  0  0  0  0  0  0
  161.4330  206.5020  146.6650 C   0  0  0  0  0  2  0  0  0  0  0  0
  161.9380  210.1850  150.5750 N   0  0  0  0  0  0  0  0  0  0  0  0
  163.1940  210.6790  151.1570 C   0  0  0  0  0  1  0  0  0  0  0  0
  161.9490  211.8820  148.7290 C   0  0  0  0  0  1  0  0  0  0  0  0
  161.8940  210.4040  149.1220 C   0  0  0  0  0  2  0  0  0  0  0  0
  161.2120  209.2700  153.4400 C   0  0  2  0  0  0  0  0  0  0  0  0
  162.9050  210.4900  154.9360 C   0  0  0  0  0  1  0  0  0  0  0  0
  161.8830  210.6060  153.8180 C   0  0  0  0  0  2  0  0  0  0  0  0
  161.1450  208.4550  154.7430 C   0  0  0  0  0  2  0  0  0  0  0  0
  160.1940  209.5350  156.7470 C   0  0  0  0  0  1  0  0  0  0  0  0
  159.8680  208.6560  155.5540 C   0  0  2  0  0  3  0  0  0  0  0  0
  160.1880  207.1270  157.1410 C   0  0  0  0  0  1  0  0  0  0  0  0
  159.4240  207.4130  156.0080 O   0  0  0  0  0  0  0  0  0  0  0  0
  159.7780  209.5040  152.9080 C   0  0  0  0  0  2  0  0  0  0  0  0
  159.4420  210.9730  152.6560 C   0  0  0  0  0  2  0  0  0  0  0  0
  158.1430  211.3410  153.3460 C   0  0  0  0  0  2  0  0  0  0  0  0
  158.4160  211.8580  154.7460 C   0  0  0  0  0  2  0  0  0  0  0  0
  159.1610  213.1760  154.6810 C   0  0  0  0  0  1  0  0  0  0  0  0
  1 15  1  6  0  0  0
  1  3  1  0  0  0  0
  1 25  1  0  0  0  0
  3  5  1  0  0  0  0
  4  6  1  6  0  0  0
  4  3  1  0  0  0  0
  4  5  1  0  0  0  0
  5  2  2  0  0  0  0
  7  6  1  0  0  0  0
  9  8  1  0  0  0  0
  9  7  1  0  0  0  0
 10  9  2  0  0  0  0
 11 13  1  0  0  0  0
 12 14  1  0  0  0  0
 13 12  2  0  0  0  0
 13 10  1  0  0  0  0
 14  8  2  0  0  0  0
 15 18  1  6  0  0  0
 16 18  2  0  0  0  0
 17 16  2  0  0  0  0
 19 20  1  0  0  0  0
 20 17  1  0  0  0  0
 21 15  1  0  0  0  0
 21 22  1  0  0  0  0
 23 24  1  0  0  0  0
 24 21  1  0  0  0  0
 25 33  1  6  0  0  0
 25 27  1  0  0  0  0
 25 28  1  0  0  0  0
 27 26  1  0  0  0  0
 28 30  1  0  0  0  0
 30 32  1  0  0  0  0
 30 29  1  1  0  0  0
 32 31  1  0  0  0  0
 34 33  1  0  0  0  0
 34 35  1  0  0  0  0
 35 36  1  0  0  0  0
 37 36  1  0  0  0  0
M  END
>  <MODEL>
2

>  <REMARK>
 VINA RESULT:      -3.9      1.985      4.664
  Name = 
  18 active torsions:
  status: ('A' for Active; 'I' for Inactive)
    1  A    between atoms: N_1  and  C_23
    2  A    between atoms: N_1  and  C_36
    3  A    between atoms: C_3  and  C_32
    4  A    between atoms: C_6  and  C_31
    5  A    between atoms: C_9  and  C_13
    6  A    between atoms: C_9  and  C_32
    7  A    between atoms: N_10  and  C_29
    8  A    between atoms: C_13  and  C_20
    9  A    between atoms: C_14  and  C_37
   10  A    between atoms: C_16  and  C_20
   11  A    between atoms: C_16  and  C_24
   12  A    between atoms: C_20  and  C_25
   13  A    between atoms: C_20  and  C_29
   14  A    between atoms: C_24  and  O_28
   15  A    between atoms: C_26  and  C_34
   16  A    between atoms: C_29  and  C_36
   17  A    between atoms: C_31  and  C_37
   18  A    between atoms: C_33  and  C_36
                            x       y       z     vdW  Elec       q    Type
                         _______ _______ _______ _____ _____    ______ ____

>  <TORSDO>
F 18

$$$$
=
 OpenBabel11062409153D

 37 38  0  0  1  0  0  0  0  0999 V2000
  160.4110  209.0160  153.4370 C   0  0  1  0  0  3  0  0  0  0  0  0
  161.1230  207.5440  149.7980 C   0  0  0  0  0  2  0  0  0  0  0  0
  161.1790  208.9420  152.1920 N   0  0  0  0  0  0  0  0  0  0  0  0
  162.1410  209.4440  151.3090 C   0  0  1  0  0  3  0  0  0  0  0  0
  161.4290  208.3710  150.7880 C   0  0  0  0  0  0  0  0  0  0  0  0
  161.6470  210.7850  150.7820 C   0  0  0  0  0  2  0  0  0  0  0  0
  162.2280  211.1280  149.4130 C   0  0  0  0  0  2  0  0  0  0  0  0
  161.2900  213.4440  149.4020 C   0  0  0  0  0  3  0  0  0  0  0  0
  161.4170  212.2000  148.7720 C   0  0  0  0  0  0  0  0  0  0  0  0
  160.7840  211.9680  147.5410 C   0  0  0  0  0  3  0  0  0  0  0  0
  159.3900  212.7490  145.7300 O   0  0  0  0  0  1  0  0  0  0  0  0
  159.8850  214.2180  147.5880 C   0  0  0  0  0  3  0  0  0  0  0  0
  160.0170  212.9760  146.9510 C   0  0  0  0  0  0  0  0  0  0  0  0
  160.5240  214.4520  148.8110 C   0  0  0  0  0  3  0  0  0  0  0  0
  161.1740  208.3340  154.6010 C   0  0  2  0  0  3  0  0  0  0  0  0
  161.3170  206.2160  153.4060 C   0  0  0  0  0  0  0  0  0  0  0  0
  160.7020  205.3500  152.6460 C   0  0  0  0  0  3  0  0  0  0  0  0
  161.9150  207.0850  154.1750 C   0  0  0  0  0  3  0  0  0  0  0  0
  160.9270  203.0150  151.8990 C   0  0  0  0  0  1  0  0  0  0  0  0
  161.4880  204.4200  151.7840 C   0  0  0  0  0  2  0  0  0  0  0  0
  160.2860  208.1190  155.7620 N   0  0  0  0  0  0  0  0  0  0  0  0
  159.2650  207.0890  155.5210 C   0  0  0  0  0  1  0  0  0  0  0  0
  162.1530  208.8710  157.2570 C   0  0  0  0  0  1  0  0  0  0  0  0
  161.0510  207.8430  156.9870 C   0  0  0  0  0  2  0  0  0  0  0  0
  159.9690  210.4800  153.7530 C   0  0  2  0  0  0  0  0  0  0  0  0
  161.3310  211.6090  155.6130 C   0  0  0  0  0  1  0  0  0  0  0  0
  161.1720  211.3720  154.1210 C   0  0  0  0  0  2  0  0  0  0  0  0
  159.0640  210.4690  154.9960 C   0  0  0  0  0  2  0  0  0  0  0  0
  157.9190  212.5170  155.7590 C   0  0  0  0  0  1  0  0  0  0  0  0
  157.7910  211.3000  154.8620 C   0  0  2  0  0  3  0  0  0  0  0  0
  155.7010  211.4410  155.6170 C   0  0  0  0  0  1  0  0  0  0  0  0
  156.7050  210.5310  155.2850 O   0  0  0  0  0  0  0  0  0  0  0  0
  159.1900  211.0720  152.5550 C   0  0  0  0  0  2  0  0  0  0  0  0
  159.4850  212.5480  152.2900 C   0  0  0  0  0  2  0  0  0  0  0  0
  158.2170  213.2740  151.8900 C   0  0  0  0  0  2  0  0  0  0  0  0
  157.8260  212.9120  150.4690 C   0  0  0  0  0  2  0  0  0  0  0  0
  156.8620  213.9420  149.9140 C   0  0  0  0  0  1  0  0  0  0  0  0
  1 25  1  0  0  0  0
  1 15  1  1  0  0  0
  2  5  2  0  0  0  0
  3  1  1  0  0  0  0
  4  6  1  6  0  0  0
  4  3  1  0  0  0  0
  5  4  1  0  0  0  0
  5  3  1  0  0  0  0
  7  6  1  0  0  0  0
  9  8  2  0  0  0  0
  9  7  1  0  0  0  0
 10  9  1  0  0  0  0
 11 13  1  0  0  0  0
 12 14  2  0  0  0  0
 13 10  2  0  0  0  0
 13 12  1  0  0  0  0
 14  8  1  0  0  0  0
 15 18  1  6  0  0  0
 15 21  1  0  0  0  0
 16 18  2  0  0  0  0
 17 16  2  0  0  0  0
 20 19  1  0  0  0  0
 20 17  1  0  0  0  0
 21 24  1  0  0  0  0
 22 21  1  0  0  0  0
 24 23  1  0  0  0  0
 25 33  1  6  0  0  0
 25 27  1  0  0  0  0
 25 28  1  0  0  0  0
 27 26  1  0  0  0  0
 30 28  1  0  0  0  0
 30 32  1  0  0  0  0
 30 29  1  1  0  0  0
 32 31  1  0  0  0  0
 34 33  1  0  0  0  0
 35 34  1  0  0  0  0
 36 35  1  0  0  0  0
 37 36  1  0  0  0  0
M  END
>  <MODEL>
3

>  <REMARK>
 VINA RESULT:      -3.9      2.257      3.939
  Name = 
  18 active torsions:
  status: ('A' for Active; 'I' for Inactive)
    1  A    between atoms: N_1  and  C_23
    2  A    between atoms: N_1  and  C_36
    3  A    between atoms: C_3  and  C_32
    4  A    between atoms: C_6  and  C_31
    5  A    between atoms: C_9  and  C_13
    6  A    between atoms: C_9  and  C_32
    7  A    between atoms: N_10  and  C_29
    8  A    between atoms: C_13  and  C_20
    9  A    between atoms: C_14  and  C_37
   10  A    between atoms: C_16  and  C_20
   11  A    between atoms: C_16  and  C_24
   12  A    between atoms: C_20  and  C_25
   13  A    between atoms: C_20  and  C_29
   14  A    between atoms: C_24  and  O_28
   15  A    between atoms: C_26  and  C_34
   16  A    between atoms: C_29  and  C_36
   17  A    between atoms: C_31  and  C_37
   18  A    between atoms: C_33  and  C_36
                            x       y       z     vdW  Elec       q    Type
                         _______ _______ _______ _____ _____    ______ ____

>  <TORSDO>
F 18

$$$$
=
 OpenBabel11062409153D

 37 38  0  0  1  0  0  0  0  0999 V2000
  161.1300  208.0970  151.4620 C   0  0  1  0  0  3  0  0  0  0  0  0
  162.2820  210.6240  154.3250 C   0  0  0  0  0  2  0  0  0  0  0  0
  160.8610  209.0850  152.5090 N   0  0  0  0  0  0  0  0  0  0  0  0
  160.0080  209.9750  153.1700 C   0  0  1  0  0  3  0  0  0  0  0  0
  161.3260  210.0610  153.6000 C   0  0  0  0  0  0  0  0  0  0  0  0
  159.6360  211.0860  152.1970 C   0  0  0  0  0  2  0  0  0  0  0  0
  159.4020  212.4240  152.8940 C   0  0  0  0  0  2  0  0  0  0  0  0
  159.2810  212.6490  155.3790 C   0  0  0  0  0  3  0  0  0  0  0  0
  158.6960  212.2080  154.1860 C   0  0  0  0  0  0  0  0  0  0  0  0
  157.4470  211.5650  154.2120 C   0  0  0  0  0  3  0  0  0  0  0  0
  155.5580  210.7230  155.4580 O   0  0  0  0  0  1  0  0  0  0  0  0
  157.3890  211.7940  156.6240 C   0  0  0  0  0  3  0  0  0  0  0  0
  156.7960  211.3580  155.4310 C   0  0  0  0  0  0  0  0  0  0  0  0
  158.6280  212.4420  156.5970 C   0  0  0  0  0  3  0  0  0  0  0  0
  162.0950  208.6700  150.3930 C   0  0  2  0  0  3  0  0  0  0  0  0
  162.0980  210.9360  149.4990 C   0  0  0  0  0  0  0  0  0  0  0  0
  161.8900  211.6970  148.4580 C   0  0  0  0  0  3  0  0  0  0  0  0
  162.3130  210.1610  150.5270 C   0  0  0  0  0  3  0  0  0  0  0  0
  162.5940  213.9910  147.9100 C   0  0  0  0  0  1  0  0  0  0  0  0
  161.5710  213.1420  148.6400 C   0  0  0  0  0  2  0  0  0  0  0  0
  161.6830  208.2600  149.0340 N   0  0  0  0  0  0  0  0  0  0  0  0
  162.8100  207.8110  148.2040 C   0  0  0  0  0  1  0  0  0  0  0  0
  160.5710  206.3600  147.8320 C   0  0  0  0  0  1  0  0  0  0  0  0
  160.6080  207.2570  149.0720 C   0  0  0  0  0  2  0  0  0  0  0  0
  161.6020  206.7360  152.0650 C   0  0  2  0  0  0  0  0  0  0  0  0
  163.7640  205.3800  152.3380 C   0  0  0  0  0  1  0  0  0  0  0  0
  162.9220  206.2560  151.4270 C   0  0  0  0  0  2  0  0  0  0  0  0
  160.5610  205.6550  151.7280 C   0  0  0  0  0  2  0  0  0  0  0  0
  160.4040  203.8490  150.0540 C   0  0  0  0  0  1  0  0  0  0  0  0
  161.1510  204.3190  151.2890 C   0  0  2  0  0  3  0  0  0  0  0  0
  161.2540  202.1430  151.7520 C   0  0  0  0  0  1  0  0  0  0  0  0
  160.9720  203.3890  152.3150 O   0  0  0  0  0  0  0  0  0  0  0  0
  161.7420  206.8530  153.6010 C   0  0  0  0  0  2  0  0  0  0  0  0
  160.4720  206.4910  154.3690 C   0  0  0  0  0  2  0  0  0  0  0  0
  160.5860  206.9350  155.8140 C   0  0  0  0  0  2  0  0  0  0  0  0
  159.5700  208.0220  156.1160 C   0  0  0  0  0  2  0  0  0  0  0  0
  160.1910  209.0870  156.9970 C   0  0  0  0  0  1  0  0  0  0  0  0
  1 15  1  6  0  0  0
  1 25  1  0  0  0  0
  1  3  1  0  0  0  0
  3  4  1  0  0  0  0
  3  5  1  0  0  0  0
  4  6  1  6  0  0  0
  4  5  1  0  0  0  0
  5  2  2  0  0  0  0
  6  7  1  0  0  0  0
  7  9  1  0  0  0  0
  8 14  1  0  0  0  0
  9 10  1  0  0  0  0
  9  8  2  0  0  0  0
 10 13  2  0  0  0  0
 13 11  1  0  0  0  0
 13 12  1  0  0  0  0
 14 12  2  0  0  0  0
 15 18  1  6  0  0  0
 16 18  2  0  0  0  0
 17 20  1  0  0  0  0
 17 16  2  0  0  0  0
 19 20  1  0  0  0  0
 21 24  1  0  0  0  0
 21 15  1  0  0  0  0
 22 21  1  0  0  0  0
 23 24  1  0  0  0  0
 25 27  1  6  0  0  0
 25 33  1  0  0  0  0
 27 26  1  0  0  0  0
 28 25  1  0  0  0  0
 30 29  1  6  0  0  0
 30 28  1  0  0  0  0
 30 32  1  0  0  0  0
 31 32  1  0  0  0  0
 33 34  1  0  0  0  0
 34 35  1  0  0  0  0
 35 36  1  0  0  0  0
 36 37  1  0  0  0  0
M  END
>  <MODEL>
4

>  <REMARK>
 VINA RESULT:      -3.8      1.768      8.130
  Name = 
  18 active torsions:
  status: ('A' for Active; 'I' for Inactive)
    1  A    between atoms: N_1  and  C_23
    2  A    between atoms: N_1  and  C_36
    3  A    between atoms: C_3  and  C_32
    4  A    between atoms: C_6  and  C_31
    5  A    between atoms: C_9  and  C_13
    6  A    between atoms: C_9  and  C_32
    7  A    between atoms: N_10  and  C_29
    8  A    between atoms: C_13  and  C_20
    9  A    between atoms: C_14  and  C_37
   10  A    between atoms: C_16  and  C_20
   11  A    between atoms: C_16  and  C_24
   12  A    between atoms: C_20  and  C_25
   13  A    between atoms: C_20  and  C_29
   14  A    between atoms: C_24  and  O_28
   15  A    between atoms: C_26  and  C_34
   16  A    between atoms: C_29  and  C_36
   17  A    between atoms: C_31  and  C_37
   18  A    between atoms: C_33  and  C_36
                            x       y       z     vdW  Elec       q    Type
                         _______ _______ _______ _____ _____    ______ ____

>  <TORSDO>
F 18

$$$$
=
 OpenBabel11062409153D

 37 38  0  0  1  0  0  0  0  0999 V2000
  160.1560  208.9110  153.2050 C   0  0  1  0  0  3  0  0  0  0  0  0
  161.1690  205.0600  153.4480 C   0  0  0  0  0  2  0  0  0  0  0  0
  160.8820  207.7260  152.7420 N   0  0  0  0  0  0  0  0  0  0  0  0
  161.6390  207.0440  151.7830 C   0  0  1  0  0  3  0  0  0  0  0  0
  161.2500  206.2380  152.8460 C   0  0  0  0  0  0  0  0  0  0  0  0
  160.7700  206.8440  150.5490 C   0  0  0  0  0  2  0  0  0  0  0  0
  161.5910  206.6340  149.2800 C   0  0  0  0  0  2  0  0  0  0  0  0
  160.9930  204.2390  149.6600 C   0  0  0  0  0  3  0  0  0  0  0  0
  161.4070  205.2450  148.7790 C   0  0  0  0  0  0  0  0  0  0  0  0
  161.6470  204.9410  147.4290 C   0  0  0  0  0  3  0  0  0  0  0  0
  161.7180  203.3290  145.6330 O   0  0  0  0  0  1  0  0  0  0  0  0
  161.0740  202.6260  147.8570 C   0  0  0  0  0  3  0  0  0  0  0  0
  161.4820  203.6310  146.9700 C   0  0  0  0  0  0  0  0  0  0  0  0
  160.8270  202.9300  149.2000 C   0  0  0  0  0  3  0  0  0  0  0  0
  159.9810  208.8890  154.7450 C   0  0  2  0  0  3  0  0  0  0  0  0
  158.4560  210.5940  155.5820 C   0  0  0  0  0  0  0  0  0  0  0  0
  157.2150  210.9240  155.8190 C   0  0  0  0  0  3  0  0  0  0  0  0
  159.6910  210.2540  155.3290 C   0  0  0  0  0  3  0  0  0  0  0  0
  155.8390  212.9080  156.3000 C   0  0  0  0  0  1  0  0  0  0  0  0
  156.8990  211.9670  156.8380 C   0  0  0  0  0  2  0  0  0  0  0  0
  161.1170  208.2040  155.3970 N   0  0  0  0  0  0  0  0  0  0  0  0
  161.9200  209.1000  156.2410 C   0  0  0  0  0  1  0  0  0  0  0  0
  159.1600  206.8230  156.1400 C   0  0  0  0  0  1  0  0  0  0  0  0
  160.6790  207.0120  156.1390 C   0  0  0  0  0  2  0  0  0  0  0  0
  160.8040  210.2260  152.6690 C   0  0  2  0  0  0  0  0  0  0  0  0
  163.0280  210.6690  153.8720 C   0  0  0  0  0  1  0  0  0  0  0  0
  161.5470  210.9920  153.7830 C   0  0  0  0  0  2  0  0  0  0  0  0
  159.6890  211.1700  152.1880 C   0  0  0  0  0  2  0  0  0  0  0  0
  158.5120  213.0830  153.2090 C   0  0  0  0  0  1  0  0  0  0  0  0
  159.8410  212.6180  152.6440 C   0  0  2  0  0  3  0  0  0  0  0  0
  159.0210  213.4470  150.7460 C   0  0  0  0  0  1  0  0  0  0  0  0
  160.1700  213.4050  151.5380 O   0  0  0  0  0  0  0  0  0  0  0  0
  161.7530  209.9110  151.4890 C   0  0  0  0  0  2  0  0  0  0  0  0
  161.9110  211.0610  150.4950 C   0  0  0  0  0  2  0  0  0  0  0  0
  162.0830  210.5210  149.0890 C   0  0  0  0  0  2  0  0  0  0  0  0
  161.8330  211.6160  148.0680 C   0  0  0  0  0  2  0  0  0  0  0  0
  163.0850  212.4500  147.8800 C   0  0  0  0  0  1  0  0  0  0  0  0
  1 15  1  1  0  0  0
  3  5  1  0  0  0  0
  3  1  1  0  0  0  0
  4  6  1  6  0  0  0
  4  3  1  0  0  0  0
  4  5  1  0  0  0  0
  5  2  2  0  0  0  0
  7  6  1  0  0  0  0
  9  7  1  0  0  0  0
  9  8  2  0  0  0  0
 10  9  1  0  0  0  0
 11 13  1  0  0  0  0
 12 14  2  0  0  0  0
 13 10  2  0  0  0  0
 13 12  1  0  0  0  0
 14  8  1  0  0  0  0
 15 18  1  1  0  0  0
 15 21  1  0  0  0  0
 16 17  2  0  0  0  0
 17 20  1  0  0  0  0
 18 16  2  0  0  0  0
 19 20  1  0  0  0  0
 21 24  1  0  0  0  0
 21 22  1  0  0  0  0
 24 23  1  0  0  0  0
 25 33  1  6  0  0  0
 25  1  1  0  0  0  0
 25 27  1  0  0  0  0
 27 26  1  0  0  0  0
 28 30  1  0  0  0  0
 28 25  1  0  0  0  0
 30 29  1  6  0  0  0
 31 32  1  0  0  0  0
 32 30  1  0  0  0  0
 34 33  1  0  0  0  0
 35 34  1  0  0  0  0
 36 35  1  0  0  0  0
 37 36  1  0  0  0  0
M  END
>  <MODEL>
5

>  <REMARK>
 VINA RESULT:      -3.8      1.754      4.326
  Name = 
  18 active torsions:
  status: ('A' for Active; 'I' for Inactive)
    1  A    between atoms: N_1  and  C_23
    2  A    between atoms: N_1  and  C_36
    3  A    between atoms: C_3  and  C_32
    4  A    between atoms: C_6  and  C_31
    5  A    between atoms: C_9  and  C_13
    6  A    between atoms: C_9  and  C_32
    7  A    between atoms: N_10  and  C_29
    8  A    between atoms: C_13  and  C_20
    9  A    between atoms: C_14  and  C_37
   10  A    between atoms: C_16  and  C_20
   11  A    between atoms: C_16  and  C_24
   12  A    between atoms: C_20  and  C_25
   13  A    between atoms: C_20  and  C_29
   14  A    between atoms: C_24  and  O_28
   15  A    between atoms: C_26  and  C_34
   16  A    between atoms: C_29  and  C_36
   17  A    between atoms: C_31  and  C_37
   18  A    between atoms: C_33  and  C_36
                            x       y       z     vdW  Elec       q    Type
                         _______ _______ _______ _____ _____    ______ ____

>  <TORSDO>
F 18

$$$$
=
 OpenBabel11062409153D

 37 38  0  0  1  0  0  0  0  0999 V2000
  159.6450  209.5850  154.6530 C   0  0  1  0  0  3  0  0  0  0  0  0
  160.3160  206.6040  157.2170 C   0  0  0  0  0  2  0  0  0  0  0  0
  160.3420  208.3690  155.0790 N   0  0  0  0  0  0  0  0  0  0  0  0
  161.1830  207.2810  154.8250 C   0  0  1  0  0  3  0  0  0  0  0  0
  160.5760  207.2230  156.0740 C   0  0  0  0  0  0  0  0  0  0  0  0
  160.5000  206.3830  153.8020 C   0  0  0  0  0  2  0  0  0  0  0  0
  161.1980  205.0350  153.6440 C   0  0  0  0  0  2  0  0  0  0  0  0
  160.9560  205.4980  151.2010 C   0  0  0  0  0  3  0  0  0  0  0  0
  161.0820  204.5640  152.2370 C   0  0  0  0  0  0  0  0  0  0  0  0
  161.0980  203.1900  151.9460 C   0  0  0  0  0  3  0  0  0  0  0  0
  160.9970  201.3970  150.3330 O   0  0  0  0  0  1  0  0  0  0  0  0
  160.8460  203.6950  149.5890 C   0  0  0  0  0  3  0  0  0  0  0  0
  160.9790  202.7570  150.6230 C   0  0  0  0  0  0  0  0  0  0  0  0
  160.8370  205.0630  149.8780 C   0  0  0  0  0  3  0  0  0  0  0  0
  159.4330  210.5520  155.8450 C   0  0  2  0  0  3  0  0  0  0  0  0
  157.0320  210.8910  155.6170 C   0  0  0  0  0  0  0  0  0  0  0  0
  155.8550  210.3310  155.5380 C   0  0  0  0  0  3  0  0  0  0  0  0
  158.2160  211.4360  155.6850 C   0  0  0  0  0  3  0  0  0  0  0  0
  154.1220  210.6400  157.2590 C   0  0  0  0  0  1  0  0  0  0  0  0
  154.6330  211.1020  155.9080 C   0  0  0  0  0  2  0  0  0  0  0  0
  160.6690  211.3070  156.1400 N   0  0  0  0  0  0  0  0  0  0  0  0
  160.4280  212.7400  156.3600 C   0  0  0  0  0  1  0  0  0  0  0  0
  162.8880  210.4400  156.9230 C   0  0  0  0  0  1  0  0  0  0  0  0
  161.4180  210.7080  157.2550 C   0  0  0  0  0  2  0  0  0  0  0  0
  160.3480  210.2490  153.4270 C   0  0  2  0  0  0  0  0  0  0  0  0
  162.9070  210.4460  153.5140 C   0  0  0  0  0  1  0  0  0  0  0  0
  161.5720  211.0860  153.8550 C   0  0  0  0  0  2  0  0  0  0  0  0
  159.3740  211.2430  152.7720 C   0  0  0  0  0  2  0  0  0  0  0  0
  158.9610  213.6340  153.2190 C   0  0  0  0  0  1  0  0  0  0  0  0
  159.9310  212.6520  152.5900 C   0  0  2  0  0  3  0  0  0  0  0  0
  159.1720  213.9920  150.9810 C   0  0  0  0  0  1  0  0  0  0  0  0
  160.0340  212.9210  151.2230 O   0  0  0  0  0  0  0  0  0  0  0  0
  160.7520  209.1700  152.3940 C   0  0  0  0  0  2  0  0  0  0  0  0
  161.2800  209.7380  151.0770 C   0  0  0  0  0  2  0  0  0  0  0  0
  162.1260  208.7050  150.3600 C   0  0  0  0  0  2  0  0  0  0  0  0
  161.9560  208.8340  148.8570 C   0  0  0  0  0  2  0  0  0  0  0  0
  162.4700  207.5870  148.1660 C   0  0  0  0  0  1  0  0  0  0  0  0
  1  3  1  0  0  0  0
  1 15  1  1  0  0  0
  3  5  1  0  0  0  0
  4  6  1  6  0  0  0
  4  3  1  0  0  0  0
  4  5  1  0  0  0  0
  5  2  2  0  0  0  0
  7  6  1  0  0  0  0
  8  9  1  0  0  0  0
  9  7  1  0  0  0  0
 10  9  2  0  0  0  0
 11 13  1  0  0  0  0
 12 14  1  0  0  0  0
 12 13  2  0  0  0  0
 13 10  1  0  0  0  0
 14  8  2  0  0  0  0
 15 18  1  6  0  0  0
 15 21  1  0  0  0  0
 16 18  2  0  0  0  0
 17 16  2  0  0  0  0
 17 20  1  0  0  0  0
 20 19  1  0  0  0  0
 21 22  1  0  0  0  0
 21 24  1  0  0  0  0
 23 24  1  0  0  0  0
 25 33  1  6  0  0  0
 25 27  1  0  0  0  0
 25  1  1  0  0  0  0
 26 27  1  0  0  0  0
 28 25  1  0  0  0  0
 30 28  1  0  0  0  0
 30 29  1  1  0  0  0
 31 32  1  0  0  0  0
 32 30  1  0  0  0  0
 34 33  1  0  0  0  0
 35 34  1  0  0  0  0
 36 35  1  0  0  0  0
 37 36  1  0  0  0  0
M  END
>  <MODEL>
6

>  <REMARK>
 VINA RESULT:      -3.7      1.702      4.946
  Name = 
  18 active torsions:
  status: ('A' for Active; 'I' for Inactive)
    1  A    between atoms: N_1  and  C_23
    2  A    between atoms: N_1  and  C_36
    3  A    between atoms: C_3  and  C_32
    4  A    between atoms: C_6  and  C_31
    5  A    between atoms: C_9  and  C_13
    6  A    between atoms: C_9  and  C_32
    7  A    between atoms: N_10  and  C_29
    8  A    between atoms: C_13  and  C_20
    9  A    between atoms: C_14  and  C_37
   10  A    between atoms: C_16  and  C_20
   11  A    between atoms: C_16  and  C_24
   12  A    between atoms: C_20  and  C_25
   13  A    between atoms: C_20  and  C_29
   14  A    between atoms: C_24  and  O_28
   15  A    between atoms: C_26  and  C_34
   16  A    between atoms: C_29  and  C_36
   17  A    between atoms: C_31  and  C_37
   18  A    between atoms: C_33  and  C_36
                            x       y       z     vdW  Elec       q    Type
                         _______ _______ _______ _____ _____    ______ ____

>  <TORSDO>
F 18

$$$$
=
 OpenBabel11062409153D

 37 38  0  0  1  0  0  0  0  0999 V2000
  160.9900  208.1300  151.4860 C   0  0  1  0  0  3  0  0  0  0  0  0
  161.9250  210.6220  154.4570 C   0  0  0  0  0  2  0  0  0  0  0  0
  160.6590  209.1690  152.4640 N   0  0  0  0  0  0  0  0  0  0  0  0
  159.8030  210.1520  152.9710 C   0  0  1  0  0  3  0  0  0  0  0  0
  161.0430  210.1290  153.6000 C   0  0  0  0  0  0  0  0  0  0  0  0
  159.6930  211.2640  151.9360 C   0  0  0  0  0  2  0  0  0  0  0  0
  159.5580  212.6460  152.5700 C   0  0  0  0  0  2  0  0  0  0  0  0
  157.3630  213.6970  153.1350 C   0  0  0  0  0  3  0  0  0  0  0  0
  158.2710  213.2700  152.1580 C   0  0  0  0  0  0  0  0  0  0  0  0
  157.9640  213.4310  150.7970 C   0  0  0  0  0  3  0  0  0  0  0  0
  156.4450  214.1710  149.0730 O   0  0  0  0  0  1  0  0  0  0  0  0
  155.8400  214.4280  151.4020 C   0  0  0  0  0  3  0  0  0  0  0  0
  156.7490  214.0080  150.4210 C   0  0  0  0  0  0  0  0  0  0  0  0
  156.1490  214.2760  152.7570 C   0  0  0  0  0  3  0  0  0  0  0  0
  161.9830  208.6640  150.4240 C   0  0  2  0  0  3  0  0  0  0  0  0
  162.0560  210.9190  149.5050 C   0  0  0  0  0  0  0  0  0  0  0  0
  161.8790  211.6740  148.4540 C   0  0  0  0  0  3  0  0  0  0  0  0
  162.2400  210.1500  150.5440 C   0  0  0  0  0  3  0  0  0  0  0  0
  161.8590  213.8530  147.3100 C   0  0  0  0  0  1  0  0  0  0  0  0
  161.5970  213.1290  148.6170 C   0  0  0  0  0  2  0  0  0  0  0  0
  161.5780  208.2490  149.0640 N   0  0  0  0  0  0  0  0  0  0  0  0
  162.7050  207.7690  148.2510 C   0  0  0  0  0  1  0  0  0  0  0  0
  160.4610  206.3380  147.8850 C   0  0  0  0  0  1  0  0  0  0  0  0
  160.4810  207.2700  149.0990 C   0  0  0  0  0  2  0  0  0  0  0  0
  161.4670  206.8160  152.1830 C   0  0  2  0  0  0  0  0  0  0  0  0
  163.6150  205.4680  152.5810 C   0  0  0  0  0  1  0  0  0  0  0  0
  162.8150  206.3260  151.6170 C   0  0  0  0  0  2  0  0  0  0  0  0
  160.4570  205.6970  151.8790 C   0  0  0  0  0  2  0  0  0  0  0  0
  160.4190  204.0070  150.0820 C   0  0  0  0  0  1  0  0  0  0  0  0
  161.0820  204.3930  151.3910 C   0  0  2  0  0  3  0  0  0  0  0  0
  161.1820  202.1930  151.7200 C   0  0  0  0  0  1  0  0  0  0  0  0
  160.8400  203.3960  152.3380 O   0  0  0  0  0  0  0  0  0  0  0  0
  161.5550  207.0260  153.7130 C   0  0  0  0  0  2  0  0  0  0  0  0
  160.4690  206.2960  154.5030 C   0  0  0  0  0  2  0  0  0  0  0  0
  159.7160  207.2710  155.3870 C   0  0  0  0  0  2  0  0  0  0  0  0
  160.1070  207.0780  156.8410 C   0  0  0  0  0  2  0  0  0  0  0  0
  161.2440  208.0110  157.2040 C   0  0  0  0  0  1  0  0  0  0  0  0
  1 15  1  6  0  0  0
  1 25  1  0  0  0  0
  1  3  1  0  0  0  0
  3  4  1  0  0  0  0
  3  5  1  0  0  0  0
  4  6  1  6  0  0  0
  4  5  1  0  0  0  0
  5  2  2  0  0  0  0
  6  7  1  0  0  0  0
  9  7  1  0  0  0  0
  9  8  2  0  0  0  0
 10  9  1  0  0  0  0
 11 13  1  0  0  0  0
 12 14  2  0  0  0  0
 13 10  2  0  0  0  0
 13 12  1  0  0  0  0
 14  8  1  0  0  0  0
 15 18  1  6  0  0  0
 16 18  2  0  0  0  0
 17 20  1  0  0  0  0
 17 16  2  0  0  0  0
 19 20  1  0  0  0  0
 21 24  1  0  0  0  0
 21 15  1  0  0  0  0
 22 21  1  0  0  0  0
 23 24  1  0  0  0  0
 25 27  1  6  0  0  0
 25 33  1  0  0  0  0
 27 26  1  0  0  0  0
 28 25  1  0  0  0  0
 30 29  1  6  0  0  0
 30 28  1  0  0  0  0
 30 32  1  0  0  0  0
 31 32  1  0  0  0  0
 33 34  1  0  0  0  0
 34 35  1  0  0  0  0
 35 36  1  0  0  0  0
 36 37  1  0  0  0  0
M  END
>  <MODEL>
7

>  <REMARK>
 VINA RESULT:      -3.6      2.310      8.098
  Name = 
  18 active torsions:
  status: ('A' for Active; 'I' for Inactive)
    1  A    between atoms: N_1  and  C_23
    2  A    between atoms: N_1  and  C_36
    3  A    between atoms: C_3  and  C_32
    4  A    between atoms: C_6  and  C_31
    5  A    between atoms: C_9  and  C_13
    6  A    between atoms: C_9  and  C_32
    7  A    between atoms: N_10  and  C_29
    8  A    between atoms: C_13  and  C_20
    9  A    between atoms: C_14  and  C_37
   10  A    between atoms: C_16  and  C_20
   11  A    between atoms: C_16  and  C_24
   12  A    between atoms: C_20  and  C_25
   13  A    between atoms: C_20  and  C_29
   14  A    between atoms: C_24  and  O_28
   15  A    between atoms: C_26  and  C_34
   16  A    between atoms: C_29  and  C_36
   17  A    between atoms: C_31  and  C_37
   18  A    between atoms: C_33  and  C_36
                            x       y       z     vdW  Elec       q    Type
                         _______ _______ _______ _____ _____    ______ ____

>  <TORSDO>
F 18

$$$$
=
 OpenBabel11062409153D

 37 38  0  0  1  0  0  0  0  0999 V2000
  160.5920  209.5180  151.8220 C   0  0  1  0  0  3  0  0  0  0  0  0
  160.1330  207.2550  155.0750 C   0  0  0  0  0  2  0  0  0  0  0  0
  160.9580  208.3920  152.6840 N   0  0  0  0  0  0  0  0  0  0  0  0
  161.6450  207.1970  152.9200 C   0  0  1  0  0  3  0  0  0  0  0  0
  160.7570  207.5270  153.9370 C   0  0  0  0  0  0  0  0  0  0  0  0
  161.0880  206.1360  151.9790 C   0  0  0  0  0  2  0  0  0  0  0  0
  161.2040  204.7250  152.5490 C   0  0  0  0  0  2  0  0  0  0  0  0
  161.1590  202.3580  151.7530 C   0  0  0  0  0  3  0  0  0  0  0  0
  161.0920  203.7240  151.4530 C   0  0  0  0  0  0  0  0  0  0  0  0
  160.9180  204.1440  150.1250 C   0  0  0  0  0  3  0  0  0  0  0  0
  160.6480  203.6110  147.7850 O   0  0  0  0  0  1  0  0  0  0  0  0
  160.8980  201.8300  149.4050 C   0  0  0  0  0  3  0  0  0  0  0  0
  160.8220  203.1970  149.1020 C   0  0  0  0  0  0  0  0  0  0  0  0
  161.0620  201.4120  150.7290 C   0  0  0  0  0  3  0  0  0  0  0  0
  160.3750  210.8070  152.6540 C   0  0  2  0  0  3  0  0  0  0  0  0
  161.6960  210.6620  154.6950 C   0  0  0  0  0  0  0  0  0  0  0  0
  162.8850  210.7320  155.2310 C   0  0  0  0  0  3  0  0  0  0  0  0
  160.5150  210.5840  154.1430 C   0  0  0  0  0  3  0  0  0  0  0  0
  161.6940  211.4570  157.2600 C   0  0  0  0  0  1  0  0  0  0  0  0
  163.0350  211.0490  156.6810 C   0  0  0  0  0  2  0  0  0  0  0  0
  159.1090  211.4710  152.2790 N   0  0  0  0  0  0  0  0  0  0  0  0
  158.0970  211.4200  153.3450 C   0  0  0  0  0  1  0  0  0  0  0  0
  158.2720  213.3390  150.8290 C   0  0  0  0  0  1  0  0  0  0  0  0
  159.3350  212.8490  151.8160 C   0  0  0  0  0  2  0  0  0  0  0  0
  161.6080  209.6950  150.6490 C   0  0  2  0  0  0  0  0  0  0  0  0
  163.6390  210.5960  151.9350 C   0  0  0  0  0  1  0  0  0  0  0  0
  163.0610  209.4580  151.1110 C   0  0  0  0  0  2  0  0  0  0  0  0
  161.5580  211.1540  150.1640 C   0  0  0  0  0  2  0  0  0  0  0  0
  162.9160  211.9380  148.2590 C   0  0  0  0  0  1  0  0  0  0  0  0
  161.5860  211.3210  148.6480 C   0  0  2  0  0  3  0  0  0  0  0  0
  160.8910  212.6490  147.0010 C   0  0  0  0  0  1  0  0  0  0  0  0
  160.5530  212.1820  148.2720 O   0  0  0  0  0  0  0  0  0  0  0  0
  161.2410  208.7530  149.4780 C   0  0  0  0  0  2  0  0  0  0  0  0
  162.4180  207.9360  148.9470 C   0  0  0  0  0  2  0  0  0  0  0  0
  161.9270  206.6310  148.3520 C   0  0  0  0  0  2  0  0  0  0  0  0
  161.9360  206.7030  146.8360 C   0  0  0  0  0  2  0  0  0  0  0  0
  162.6750  205.5120  146.2610 C   0  0  0  0  0  1  0  0  0  0  0  0
  1 15  1  1  0  0  0
  1  3  1  0  0  0  0
  3  4  1  0  0  0  0
  3  5  1  0  0  0  0
  4  6  1  6  0  0  0
  4  5  1  0  0  0  0
  5  2  2  0  0  0  0
  6  7  1  0  0  0  0
  9  8  1  0  0  0  0
  9  7  1  0  0  0  0
 10  9  2  0  0  0  0
 11 13  1  0  0  0  0
 12 14  1  0  0  0  0
 13 12  2  0  0  0  0
 13 10  1  0  0  0  0
 14  8  2  0  0  0  0
 15 18  1  1  0  0  0
 16 17  2  0  0  0  0
 17 20  1  0  0  0  0
 18 16  2  0  0  0  0
 20 19  1  0  0  0  0
 21 15  1  0  0  0  0
 21 22  1  0  0  0  0
 23 24  1  0  0  0  0
 24 21  1  0  0  0  0
 25 33  1  6  0  0  0
 25 27  1  0  0  0  0
 25  1  1  0  0  0  0
 27 26  1  0  0  0  0
 28 25  1  0  0  0  0
 30 29  1  1  0  0  0
 30 28  1  0  0  0  0
 31 32  1  0  0  0  0
 32 30  1  0  0  0  0
 34 33  1  0  0  0  0
 35 34  1  0  0  0  0
 36 35  1  0  0  0  0
 37 36  1  0  0  0  0
M  END
>  <MODEL>
8

>  <REMARK>
 VINA RESULT:      -3.6      2.135      6.002
  Name = 
  18 active torsions:
  status: ('A' for Active; 'I' for Inactive)
    1  A    between atoms: N_1  and  C_23
    2  A    between atoms: N_1  and  C_36
    3  A    between atoms: C_3  and  C_32
    4  A    between atoms: C_6  and  C_31
    5  A    between atoms: C_9  and  C_13
    6  A    between atoms: C_9  and  C_32
    7  A    between atoms: N_10  and  C_29
    8  A    between atoms: C_13  and  C_20
    9  A    between atoms: C_14  and  C_37
   10  A    between atoms: C_16  and  C_20
   11  A    between atoms: C_16  and  C_24
   12  A    between atoms: C_20  and  C_25
   13  A    between atoms: C_20  and  C_29
   14  A    between atoms: C_24  and  O_28
   15  A    between atoms: C_26  and  C_34
   16  A    between atoms: C_29  and  C_36
   17  A    between atoms: C_31  and  C_37
   18  A    between atoms: C_33  and  C_36
                            x       y       z     vdW  Elec       q    Type
                         _______ _______ _______ _____ _____    ______ ____

>  <TORSDO>
F 18

$$$$
=
 OpenBabel11062409153D

 37 38  0  0  1  0  0  0  0  0999 V2000
  160.8480  208.2160  151.6920 C   0  0  1  0  0  3  0  0  0  0  0  0
  163.4570  207.5800  148.7430 C   0  0  0  0  0  2  0  0  0  0  0  0
  161.1880  207.8840  150.3070 N   0  0  0  0  0  0  0  0  0  0  0  0
  160.8470  207.4020  149.0390 C   0  0  1  0  0  3  0  0  0  0  0  0
  162.2090  207.6320  149.1880 C   0  0  0  0  0  0  0  0  0  0  0  0
  160.4840  205.9290  149.1740 C   0  0  0  0  0  2  0  0  0  0  0  0
  161.5800  205.0040  148.6520 C   0  0  0  0  0  2  0  0  0  0  0  0
  161.2160  205.5980  146.2530 C   0  0  0  0  0  3  0  0  0  0  0  0
  161.2880  204.6130  147.2450 C   0  0  0  0  0  0  0  0  0  0  0  0
  161.0850  203.2640  146.9120 C   0  0  0  0  0  3  0  0  0  0  0  0
  160.6030  201.5720  145.2580 O   0  0  0  0  0  1  0  0  0  0  0  0
  160.7230  203.8980  144.6010 C   0  0  0  0  0  3  0  0  0  0  0  0
  160.8020  202.9080  145.5910 C   0  0  0  0  0  0  0  0  0  0  0  0
  160.9330  205.2410  144.9320 C   0  0  0  0  0  3  0  0  0  0  0  0
  161.5770  207.2760  152.6840 C   0  0  2  0  0  3  0  0  0  0  0  0
  161.7690  204.9490  151.9880 C   0  0  0  0  0  0  0  0  0  0  0  0
  161.2260  203.7610  151.9950 C   0  0  0  0  0  3  0  0  0  0  0  0
  162.3050  206.1390  152.0000 C   0  0  0  0  0  3  0  0  0  0  0  0
  160.3350  202.0500  150.4660 C   0  0  0  0  0  1  0  0  0  0  0  0
  161.5840  202.7690  150.9410 C   0  0  0  0  0  2  0  0  0  0  0  0
  160.6640  206.8240  153.7550 N   0  0  0  0  0  0  0  0  0  0  0  0
  161.0770  205.5500  154.3620 C   0  0  0  0  0  1  0  0  0  0  0  0
  159.9450  207.3210  156.1050 C   0  0  0  0  0  1  0  0  0  0  0  0
  160.4620  207.8670  154.7720 C   0  0  0  0  0  2  0  0  0  0  0  0
  161.0710  209.7330  151.9900 C   0  0  2  0  0  0  0  0  0  0  0  0
  162.3310  210.5370  154.0780 C   0  0  0  0  0  1  0  0  0  0  0  0
  162.4350  209.9870  152.6660 C   0  0  0  0  0  2  0  0  0  0  0  0
  160.0120  210.2030  153.0020 C   0  0  0  0  0  2  0  0  0  0  0  0
  159.7480  212.6490  152.8150 C   0  0  0  0  0  1  0  0  0  0  0  0
  159.0990  211.3150  152.4950 C   0  0  2  0  0  3  0  0  0  0  0  0
  158.1600  211.4470  154.5100 C   0  0  0  0  0  1  0  0  0  0  0  0
  157.8750  211.2300  153.1610 O   0  0  0  0  0  0  0  0  0  0  0  0
  160.9390  210.5580  150.6880 C   0  0  0  0  0  2  0  0  0  0  0  0
  162.2640  211.1110  150.1660 C   0  0  0  0  0  2  0  0  0  0  0  0
  162.2020  211.2950  148.6630 C   0  0  0  0  0  2  0  0  0  0  0  0
  161.5500  212.6220  148.3190 C   0  0  0  0  0  2  0  0  0  0  0  0
  161.0210  212.5900  146.8990 C   0  0  0  0  0  1  0  0  0  0  0  0
  1 25  1  0  0  0  0
  1 15  1  1  0  0  0
  2  5  2  0  0  0  0
  3  1  1  0  0  0  0
  4  6  1  1  0  0  0
  4  5  1  0  0  0  0
  4  3  1  0  0  0  0
  5  3  1  0  0  0  0
  7  6  1  0  0  0  0
  8  9  1  0  0  0  0
  9  7  1  0  0  0  0
 10  9  2  0  0  0  0
 11 13  1  0  0  0  0
 12 14  1  0  0  0  0
 12 13  2  0  0  0  0
 13 10  1  0  0  0  0
 14  8  2  0  0  0  0
 15 18  1  6  0  0  0
 15 21  1  0  0  0  0
 16 17  2  0  0  0  0
 16 18  2  0  0  0  0
 19 20  1  0  0  0  0
 20 17  1  0  0  0  0
 21 22  1  0  0  0  0
 21 24  1  0  0  0  0
 24 23  1  0  0  0  0
 25 33  1  6  0  0  0
 25 27  1  0  0  0  0
 25 28  1  0  0  0  0
 27 26  1  0  0  0  0
 30 29  1  1  0  0  0
 30 28  1  0  0  0  0
 30 32  1  0  0  0  0
 32 31  1  0  0  0  0
 34 33  1  0  0  0  0
 35 34  1  0  0  0  0
 36 35  1  0  0  0  0
 37 36  1  0  0  0  0
M  END
>  <MODEL>
9

>  <REMARK>
 VINA RESULT:      -3.5      1.820      3.065
  Name = 
  18 active torsions:
  status: ('A' for Active; 'I' for Inactive)
    1  A    between atoms: N_1  and  C_23
    2  A    between atoms: N_1  and  C_36
    3  A    between atoms: C_3  and  C_32
    4  A    between atoms: C_6  and  C_31
    5  A    between atoms: C_9  and  C_13
    6  A    between atoms: C_9  and  C_32
    7  A    between atoms: N_10  and  C_29
    8  A    between atoms: C_13  and  C_20
    9  A    between atoms: C_14  and  C_37
   10  A    between atoms: C_16  and  C_20
   11  A    between atoms: C_16  and  C_24
   12  A    between atoms: C_20  and  C_25
   13  A    between atoms: C_20  and  C_29
   14  A    between atoms: C_24  and  O_28
   15  A    between atoms: C_26  and  C_34
   16  A    between atoms: C_29  and  C_36
   17  A    between atoms: C_31  and  C_37
   18  A    between atoms: C_33  and  C_36
                            x       y       z     vdW  Elec       q    Type
                         _______ _______ _______ _____ _____    ______ ____

>  <TORSDO>
F 18

$$$$
