=
 OpenBabel11062410223D

 43 49  0  0  1  0  0  0  0  0999 V2000
  160.8260  202.4940  149.0160 C   0  0  0  0  0  0  0  0  0  0  0  0
  162.4100  207.2570  148.8180 C   0  0  1  0  0  3  0  0  0  0  0  0
  161.3980  204.7120  148.2130 C   0  0  0  0  0  0  0  0  0  0  0  0
  160.6580  202.9980  150.3080 C   0  0  0  0  0  3  0  0  0  0  0  0
  160.6100  201.0490  148.7510 C   0  0  0  0  0  1  0  0  0  0  0  0
  161.2530  205.2190  149.5290 C   0  0  0  0  0  0  0  0  0  0  0  0
  161.1960  203.3490  147.9740 C   0  0  0  0  0  3  0  0  0  0  0  0
  160.8620  204.3570  150.5610 C   0  0  0  0  0  3  0  0  0  0  0  0
  161.8050  207.2000  151.1260 C   0  0  1  0  0  3  0  0  0  0  0  0
  161.3720  206.7030  149.7520 C   0  0  1  0  0  3  0  0  0  0  0  0
  161.9320  207.0870  147.3850 C   0  0  0  0  0  2  0  0  0  0  0  0
  162.7030  208.6480  149.3360 C   0  0  2  0  0  3  0  0  0  0  0  0
  162.6680  208.4360  150.8500 C   0  0  0  0  0  2  0  0  0  0  0  0
  161.8600  205.5850  147.0610 C   0  0  0  0  0  2  0  0  0  0  0  0
  161.6250  209.6490  148.9090 C   0  0  0  0  0  2  0  0  0  0  0  0
  161.9190  211.0520  149.4240 C   0  0  0  0  0  2  0  0  0  0  0  0
  162.7100  213.8740  146.9240 C   0  0  0  0  0  2  0  0  0  0  0  0
  160.0970  212.5720  146.4560 C   0  0  0  0  0  2  0  0  0  0  0  0
  160.9020  213.1340  145.2810 C   0  0  0  0  0  2  0  0  0  0  0  0
  162.9330  212.7110  147.8840 C   0  0  0  0  0  2  0  0  0  0  0  0
  161.6210  212.1020  148.3650 C   0  0  0  0  0  3  0  0  0  0  0  0
  162.4010  213.3340  145.5350 C   0  0  0  0  0  2  0  0  0  0  0  0
  160.8330  211.4790  147.2160 C   0  0  0  0  0  2  0  0  0  0  0  0
  160.5910  207.6440  151.9320 C   0  0  0  0  0  2  0  0  0  0  0  0
  160.9900  208.5250  153.1040 C   0  0  1  0  0  3  0  0  0  0  0  0
  162.2210  210.6090  155.2970 C   0  0  0  0  0  1  0  0  0  0  0  0
  160.7160  210.8870  155.3380 C   0  0  2  0  0  0  0  0  0  0  0  0
  159.9590  209.5550  153.3770 C   0  0  2  0  0  3  0  0  0  0  0  0
  160.9250  207.7400  154.3790 C   0  0  0  0  0  2  0  0  0  0  0  0
  160.2220  210.8670  152.6450 C   0  0  0  0  0  2  0  0  0  0  0  0
  159.9420  209.7170  154.8370 N   0  0  1  0  0  0  0  0  0  0  0  0
  160.4550  212.1450  154.4730 C   0  0  0  0  0  2  0  0  0  0  0  0
  160.4270  208.5680  155.4110 O   0  0  0  0  0  0  0  0  0  0  0  0
  159.6200  211.9010  153.3680 O   0  0  0  0  0  0  0  0  0  0  0  0
  160.2740  211.1640  156.7830 C   0  0  0  0  0  2  0  0  0  0  0  0
  159.6240  212.5330  157.0010 C   0  0  1  0  0  3  0  0  0  0  0  0
  160.4500  213.5190  156.4930 F   0  0  0  0  0  0  0  0  0  0  0  0
  158.2870  212.6120  156.3400 C   0  0  0  0  0  0  0  0  0  0  0  0
  156.4630  211.3590  155.2000 C   0  0  0  0  0  2  0  0  0  0  0  0
  156.6430  213.8050  155.0700 C   0  0  0  0  0  3  0  0  0  0  0  0
  155.9130  212.7100  154.8390 C   0  0  0  0  0  3  0  0  0  0  0  0
  157.9120  213.7040  155.7360 N   0  0  0  0  0  0  0  0  0  0  0  0
  157.3420  211.4460  156.4500 C   0  0  0  0  0  2  0  0  0  0  0  0
  1  4  1  0  0  0  0
  2 11  1  6  0  0  0
  2 12  1  0  0  0  0
  2 10  1  0  0  0  0
  3  6  2  0  0  0  0
  4  8  2  0  0  0  0
  5  1  1  0  0  0  0
  6  8  1  0  0  0  0
  7  3  1  0  0  0  0
  7  1  2  0  0  0  0
  9 24  1  1  0  0  0
 10  6  1  1  0  0  0
 10  9  1  0  0  0  0
 12 15  1  1  0  0  0
 12 13  1  0  0  0  0
 13  9  1  0  0  0  0
 14 11  1  0  0  0  0
 14  3  1  0  0  0  0
 15 16  1  0  0  0  0
 17 20  1  0  0  0  0
 18 23  1  0  0  0  0
 19 22  1  0  0  0  0
 19 18  1  0  0  0  0
 20 21  1  0  0  0  0
 21 16  1  0  0  0  0
 22 17  1  0  0  0  0
 23 21  1  0  0  0  0
 25 24  1  6  0  0  0
 25 28  1  0  0  0  0
 25 29  1  0  0  0  0
 27 26  1  6  0  0  0
 27 35  1  0  0  0  0
 28 30  1  6  0  0  0
 28 31  1  0  0  0  0
 29 33  1  0  0  0  0
 30 34  1  0  0  0  0
 31 27  1  0  0  0  0
 31 33  1  1  0  0  0
 32 27  1  0  0  0  0
 34 32  1  0  0  0  0
 35 36  1  0  0  0  0
 36 37  1  6  0  0  0
 38 43  1  0  0  0  0
 38 36  1  0  0  0  0
 39 43  1  0  0  0  0
 40 42  1  0  0  0  0
 41 40  2  0  0  0  0
 41 39  1  0  0  0  0
 42 38  2  0  0  0  0
M  END
>  <MODEL>
1

>  <REMARK>
 VINA RESULT:      -9.0      0.000      0.000
  Name = 
  8 active torsions:
  status: ('A' for Active; 'I' for Inactive)
    1  A    between atoms: C_1  and  C_28
    2  A    between atoms: C_1  and  C_34
    3  A    between atoms: C_2  and  C_13
    4  A    between atoms: C_4  and  C_22
    5  A    between atoms: C_11  and  C_14
    6  A    between atoms: C_13  and  C_27
    7  A    between atoms: C_14  and  C_22
    8  A    between atoms: C_28  and  C_35
                            x       y       z     vdW  Elec       q    Type
                         _______ _______ _______ _____ _____    ______ ____

>  <TORSDO>
F 8

$$$$
=
 OpenBabel11062410223D

 43 49  0  0  1  0  0  0  0  0999 V2000
  162.1110  210.7840  149.1890 C   0  0  0  0  0  0  0  0  0  0  0  0
  160.7570  206.0200  150.0280 C   0  0  1  0  0  3  0  0  0  0  0  0
  161.7990  208.3890  148.9470 C   0  0  0  0  0  0  0  0  0  0  0  0
  162.0060  210.6640  150.5770 C   0  0  0  0  0  3  0  0  0  0  0  0
  162.3370  212.1180  148.5760 C   0  0  0  0  0  1  0  0  0  0  0  0
  161.6660  208.2710  150.3540 C   0  0  0  0  0  0  0  0  0  0  0  0
  162.0070  209.6500  148.3780 C   0  0  0  0  0  3  0  0  0  0  0  0
  161.7930  209.4110  151.1560 C   0  0  0  0  0  3  0  0  0  0  0  0
  160.8360  206.7520  152.2980 C   0  0  1  0  0  3  0  0  0  0  0  0
  161.5460  206.8980  150.9580 C   0  0  1  0  0  3  0  0  0  0  0  0
  161.5340  205.8400  148.7340 C   0  0  0  0  0  2  0  0  0  0  0  0
  160.3990  204.8000  150.8470 C   0  0  2  0  0  3  0  0  0  0  0  0
  160.0930  205.4140  152.2130 C   0  0  0  0  0  2  0  0  0  0  0  0
  161.6290  207.2000  148.0200 C   0  0  0  0  0  2  0  0  0  0  0  0
  161.5750  203.8230  150.9490 C   0  0  0  0  0  2  0  0  0  0  0  0
  161.1680  202.4040  150.5710 C   0  0  0  0  0  2  0  0  0  0  0  0
  161.7050  200.2100  147.4510 C   0  0  0  0  0  2  0  0  0  0  0  0
  161.3560  203.0810  146.8370 C   0  0  0  0  0  2  0  0  0  0  0  0
  160.8730  202.0160  145.8490 C   0  0  0  0  0  2  0  0  0  0  0  0
  161.2560  200.6220  148.8480 C   0  0  0  0  0  2  0  0  0  0  0  0
  161.5030  202.1030  149.1180 C   0  0  0  0  0  3  0  0  0  0  0  0
  160.6470  200.6170  146.4360 C   0  0  0  0  0  2  0  0  0  0  0  0
  160.6750  202.9910  148.1940 C   0  0  0  0  0  2  0  0  0  0  0  0
  161.8550  206.6540  153.4260 C   0  0  0  0  0  2  0  0  0  0  0  0
  161.4670  207.5300  154.6060 C   0  0  1  0  0  3  0  0  0  0  0  0
  161.1530  209.4080  157.2600 C   0  0  0  0  0  1  0  0  0  0  0  0
  160.3960  210.1820  156.1760 C   0  0  2  0  0  0  0  0  0  0  0  0
  161.0430  208.8790  154.1570 C   0  0  2  0  0  3  0  0  0  0  0  0
  160.1870  207.0380  155.2100 C   0  0  0  0  0  2  0  0  0  0  0  0
  162.1920  209.8830  154.1300 C   0  0  0  0  0  2  0  0  0  0  0  0
  159.9660  209.2770  155.0740 N   0  0  1  0  0  0  0  0  0  0  0  0
  161.3430  211.2920  155.6560 C   0  0  0  0  0  2  0  0  0  0  0  0
  159.4020  208.1450  155.6050 O   0  0  0  0  0  0  0  0  0  0  0  0
  161.6560  211.1650  154.2900 O   0  0  0  0  0  0  0  0  0  0  0  0
  159.1390  210.8290  156.7760 C   0  0  0  0  0  2  0  0  0  0  0  0
  157.9470  210.9190  155.8190 C   0  0  1  0  0  3  0  0  0  0  0  0
  156.7870  211.1010  156.5490 F   0  0  0  0  0  0  0  0  0  0  0  0
  158.1110  212.0460  154.8530 C   0  0  0  0  0  0  0  0  0  0  0  0
  159.1110  212.8020  152.7020 C   0  0  0  0  0  2  0  0  0  0  0  0
  158.2430  214.3870  154.3640 C   0  0  0  0  0  3  0  0  0  0  0  0
  158.7000  214.1840  153.1260 C   0  0  0  0  0  3  0  0  0  0  0  0
  158.0660  213.2820  155.2640 N   0  0  0  0  0  0  0  0  0  0  0  0
  158.2420  211.7430  153.3850 C   0  0  0  0  0  2  0  0  0  0  0  0
  1  4  1  0  0  0  0
  2 11  1  6  0  0  0
  2 12  1  0  0  0  0
  2 10  1  0  0  0  0
  3  6  2  0  0  0  0
  4  8  2  0  0  0  0
  5  1  1  0  0  0  0
  6  8  1  0  0  0  0
  7  3  1  0  0  0  0
  7  1  2  0  0  0  0
  9 24  1  1  0  0  0
 10  6  1  6  0  0  0
 10  9  1  0  0  0  0
 12 15  1  1  0  0  0
 12 13  1  0  0  0  0
 13  9  1  0  0  0  0
 14 11  1  0  0  0  0
 14  3  1  0  0  0  0
 16 15  1  0  0  0  0
 17 20  1  0  0  0  0
 18 23  1  0  0  0  0
 19 22  1  0  0  0  0
 19 18  1  0  0  0  0
 20 21  1  0  0  0  0
 21 16  1  0  0  0  0
 22 17  1  0  0  0  0
 23 21  1  0  0  0  0
 25 24  1  6  0  0  0
 25 29  1  0  0  0  0
 27 35  1  0  0  0  0
 27 26  1  1  0  0  0
 28 30  1  1  0  0  0
 28 25  1  0  0  0  0
 28 31  1  0  0  0  0
 29 33  1  0  0  0  0
 30 34  1  0  0  0  0
 31 33  1  1  0  0  0
 31 27  1  0  0  0  0
 32 27  1  0  0  0  0
 34 32  1  0  0  0  0
 36 37  1  1  0  0  0
 36 35  1  0  0  0  0
 38 42  2  0  0  0  0
 38 36  1  0  0  0  0
 39 41  1  0  0  0  0
 39 43  1  0  0  0  0
 40 42  1  0  0  0  0
 41 40  2  0  0  0  0
 43 38  1  0  0  0  0
M  END
>  <MODEL>
2

>  <REMARK>
 VINA RESULT:      -8.6      1.684      5.950
  Name = 
  8 active torsions:
  status: ('A' for Active; 'I' for Inactive)
    1  A    between atoms: C_1  and  C_28
    2  A    between atoms: C_1  and  C_34
    3  A    between atoms: C_2  and  C_13
    4  A    between atoms: C_4  and  C_22
    5  A    between atoms: C_11  and  C_14
    6  A    between atoms: C_13  and  C_27
    7  A    between atoms: C_14  and  C_22
    8  A    between atoms: C_28  and  C_35
                            x       y       z     vdW  Elec       q    Type
                         _______ _______ _______ _____ _____    ______ ____

>  <TORSDO>
F 8

$$$$
=
 OpenBabel11062410223D

 43 49  0  0  1  0  0  0  0  0999 V2000
  161.1620  204.5600  149.4890 C   0  0  0  0  0  0  0  0  0  0  0  0
  160.6560  207.7300  153.3530 C   0  0  1  0  0  3  0  0  0  0  0  0
  161.2360  205.5290  151.7130 C   0  0  0  0  0  0  0  0  0  0  0  0
  161.1510  205.8380  148.9250 C   0  0  0  0  0  3  0  0  0  0  0  0
  161.1320  203.3630  148.6110 C   0  0  0  0  0  1  0  0  0  0  0  0
  161.1980  206.8270  151.1420 C   0  0  0  0  0  0  0  0  0  0  0  0
  161.2030  204.4080  150.8780 C   0  0  0  0  0  3  0  0  0  0  0  0
  161.1780  206.9660  149.7490 C   0  0  0  0  0  3  0  0  0  0  0  0
  160.7330  209.3470  151.5990 C   0  0  1  0  0  3  0  0  0  0  0  0
  161.3380  208.0220  152.0460 C   0  0  1  0  0  3  0  0  0  0  0  0
  161.3820  206.5920  154.0500 C   0  0  0  0  0  2  0  0  0  0  0  0
  160.5470  209.0690  154.0480 C   0  0  2  0  0  3  0  0  0  0  0  0
  160.2170  210.0040  152.8840 C   0  0  0  0  0  2  0  0  0  0  0  0
  161.2150  205.3110  153.2140 C   0  0  0  0  0  2  0  0  0  0  0  0
  161.8720  209.4740  154.7030 C   0  0  0  0  0  2  0  0  0  0  0  0
  161.6680  210.5210  155.7910 C   0  0  0  0  0  2  0  0  0  0  0  0
  157.9000  211.0050  156.4230 C   0  0  0  0  0  2  0  0  0  0  0  0
  159.2440  213.4160  155.3660 C   0  0  0  0  0  2  0  0  0  0  0  0
  158.0520  213.5510  156.3170 C   0  0  0  0  0  2  0  0  0  0  0  0
  159.3220  210.4870  156.5960 C   0  0  0  0  0  2  0  0  0  0  0  0
  160.3070  211.1880  155.6670 C   0  0  0  0  0  3  0  0  0  0  0  0
  157.7420  212.3190  157.1750 C   0  0  0  0  0  2  0  0  0  0  0  0
  160.4210  212.6760  155.9830 C   0  0  0  0  0  2  0  0  0  0  0  0
  161.8120  210.2460  151.0110 C   0  0  0  0  0  2  0  0  0  0  0  0
  161.3710  210.8590  149.6920 C   0  0  1  0  0  3  0  0  0  0  0  0
  159.9280  212.0900  147.0320 C   0  0  0  0  0  1  0  0  0  0  0  0
  160.9350  213.1720  147.4320 C   0  0  2  0  0  0  0  0  0  0  0  0
  161.6610  212.3130  149.6520 C   0  0  2  0  0  3  0  0  0  0  0  0
  162.2580  210.3810  148.5830 C   0  0  0  0  0  2  0  0  0  0  0  0
  160.4920  213.1660  150.1340 C   0  0  0  0  0  2  0  0  0  0  0  0
  162.0340  212.6020  148.2610 N   0  0  1  0  0  0  0  0  0  0  0  0
  160.1560  214.2640  148.2070 C   0  0  0  0  0  2  0  0  0  0  0  0
  162.4900  211.4440  147.6810 O   0  0  0  0  0  0  0  0  0  0  0  0
  160.5910  214.4260  149.5350 O   0  0  0  0  0  0  0  0  0  0  0  0
  161.5630  213.7940  146.1750 C   0  0  0  0  0  2  0  0  0  0  0  0
  160.7920  213.5330  144.8790 C   0  0  1  0  0  3  0  0  0  0  0  0
  159.7670  214.4530  144.7620 F   0  0  0  0  0  0  0  0  0  0  0  0
  161.6860  213.6260  143.6860 C   0  0  0  0  0  0  0  0  0  0  0  0
  163.8520  214.4520  142.7820 C   0  0  0  0  0  2  0  0  0  0  0  0
  162.0150  213.7400  141.3170 C   0  0  0  0  0  3  0  0  0  0  0  0
  163.2990  214.0900  141.4320 C   0  0  0  0  0  3  0  0  0  0  0  0
  161.1850  213.6270  142.4830 N   0  0  0  0  0  0  0  0  0  0  0  0
  163.1780  213.6320  143.8840 C   0  0  0  0  0  2  0  0  0  0  0  0
  1  7  1  0  0  0  0
  2 12  1  0  0  0  0
  2 11  1  1  0  0  0
  3 14  1  0  0  0  0
  4  1  2  0  0  0  0
  4  8  1  0  0  0  0
  5  1  1  0  0  0  0
  6  3  1  0  0  0  0
  7  3  2  0  0  0  0
  8  6  2  0  0  0  0
  9 24  1  1  0  0  0
  9 10  1  0  0  0  0
  9 13  1  0  0  0  0
 10  6  1  6  0  0  0
 10  2  1  0  0  0  0
 12 15  1  6  0  0  0
 13 12  1  0  0  0  0
 14 11  1  0  0  0  0
 15 16  1  0  0  0  0
 17 20  1  0  0  0  0
 17 22  1  0  0  0  0
 18 23  1  0  0  0  0
 18 19  1  0  0  0  0
 19 22  1  0  0  0  0
 21 16  1  0  0  0  0
 21 23  1  0  0  0  0
 21 20  1  0  0  0  0
 25 24  1  1  0  0  0
 27 26  1  6  0  0  0
 27 32  1  0  0  0  0
 27 31  1  0  0  0  0
 28 25  1  0  0  0  0
 28 30  1  6  0  0  0
 29 25  1  0  0  0  0
 31 33  1  6  0  0  0
 31 28  1  0  0  0  0
 32 34  1  0  0  0  0
 33 29  1  0  0  0  0
 34 30  1  0  0  0  0
 35 27  1  0  0  0  0
 36 37  1  6  0  0  0
 36 35  1  0  0  0  0
 38 43  1  0  0  0  0
 38 36  1  0  0  0  0
 39 43  1  0  0  0  0
 40 41  2  0  0  0  0
 40 42  1  0  0  0  0
 41 39  1  0  0  0  0
 42 38  2  0  0  0  0
M  END
>  <MODEL>
3

>  <REMARK>
 VINA RESULT:      -8.3      3.523      8.476
  Name = 
  8 active torsions:
  status: ('A' for Active; 'I' for Inactive)
    1  A    between atoms: C_1  and  C_28
    2  A    between atoms: C_1  and  C_34
    3  A    between atoms: C_2  and  C_13
    4  A    between atoms: C_4  and  C_22
    5  A    between atoms: C_11  and  C_14
    6  A    between atoms: C_13  and  C_27
    7  A    between atoms: C_14  and  C_22
    8  A    between atoms: C_28  and  C_35
                            x       y       z     vdW  Elec       q    Type
                         _______ _______ _______ _____ _____    ______ ____

>  <TORSDO>
F 8

$$$$
=
 OpenBabel11062410223D

 43 49  0  0  1  0  0  0  0  0999 V2000
  161.5840  205.2970  147.6050 C   0  0  0  0  0  0  0  0  0  0  0  0
  160.7160  206.9790  152.2580 C   0  0  1  0  0  3  0  0  0  0  0  0
  161.3980  205.4300  150.0210 C   0  0  0  0  0  0  0  0  0  0  0  0
  161.7220  206.6850  147.5320 C   0  0  0  0  0  3  0  0  0  0  0  0
  161.6110  204.4840  146.3620 C   0  0  0  0  0  1  0  0  0  0  0  0
  161.5120  206.8410  149.9460 C   0  0  0  0  0  0  0  0  0  0  0  0
  161.4210  204.6730  148.8450 C   0  0  0  0  0  3  0  0  0  0  0  0
  161.6950  207.4520  148.6990 C   0  0  0  0  0  3  0  0  0  0  0  0
  161.1270  209.0840  151.2110 C   0  0  1  0  0  3  0  0  0  0  0  0
  161.5890  207.6320  151.2240 C   0  0  1  0  0  3  0  0  0  0  0  0
  161.2740  205.6030  152.5840 C   0  0  0  0  0  2  0  0  0  0  0  0
  160.5850  208.0010  153.3650 C   0  0  2  0  0  3  0  0  0  0  0  0
  160.4730  209.3070  152.5780 C   0  0  0  0  0  2  0  0  0  0  0  0
  161.1550  204.7120  151.3350 C   0  0  0  0  0  2  0  0  0  0  0  0
  161.8250  208.0210  154.2650 C   0  0  0  0  0  2  0  0  0  0  0  0
  161.4670  207.7870  155.7280 C   0  0  0  0  0  2  0  0  0  0  0  0
  161.8530  211.4610  156.8180 C   0  0  0  0  0  2  0  0  0  0  0  0
  159.0880  210.4390  157.0480 C   0  0  0  0  0  2  0  0  0  0  0  0
  159.3420  211.9140  156.7230 C   0  0  0  0  0  2  0  0  0  0  0  0
  162.0940  210.1650  156.0550 C   0  0  0  0  0  2  0  0  0  0  0  0
  161.0760  209.0870  156.4130 C   0  0  0  0  0  3  0  0  0  0  0  0
  160.7280  212.2410  156.1530 C   0  0  0  0  0  2  0  0  0  0  0  0
  159.6610  209.4900  156.0080 C   0  0  0  0  0  2  0  0  0  0  0  0
  162.3260  210.0170  151.1040 C   0  0  0  0  0  2  0  0  0  0  0  0
  161.9270  211.3800  150.5630 C   0  0  1  0  0  3  0  0  0  0  0  0
  161.5670  214.4520  149.5140 C   0  0  0  0  0  1  0  0  0  0  0  0
  161.0240  213.6080  148.3570 C   0  0  2  0  0  0  0  0  0  0  0  0
  161.7160  211.3350  149.0950 C   0  0  2  0  0  3  0  0  0  0  0  0
  160.5410  211.7250  151.0180 C   0  0  0  0  0  2  0  0  0  0  0  0
  162.9730  211.6850  148.3050 C   0  0  0  0  0  2  0  0  0  0  0  0
  160.6060  212.2590  148.8290 N   0  0  1  0  0  0  0  0  0  0  0  0
  162.1460  213.5080  147.2930 C   0  0  0  0  0  2  0  0  0  0  0  0
  159.8580  212.3860  149.9730 O   0  0  0  0  0  0  0  0  0  0  0  0
  162.5810  212.1910  147.0610 O   0  0  0  0  0  0  0  0  0  0  0  0
  159.7980  214.2950  147.7370 C   0  0  0  0  0  2  0  0  0  0  0  0
  158.7660  213.3400  147.1330 C   0  0  1  0  0  3  0  0  0  0  0  0
  157.4960  213.7470  147.4980 F   0  0  0  0  0  0  0  0  0  0  0  0
  158.8690  213.2990  145.6440 C   0  0  0  0  0  0  0  0  0  0  0  0
  160.1970  212.5420  143.6790 C   0  0  0  0  0  2  0  0  0  0  0  0
  158.4390  214.2450  143.4860 C   0  0  0  0  0  3  0  0  0  0  0  0
  159.2850  213.4180  142.8670 C   0  0  0  0  0  3  0  0  0  0  0  0
  158.3370  214.2420  144.9180 N   0  0  0  0  0  0  0  0  0  0  0  0
  159.5200  212.1140  144.9830 C   0  0  0  0  0  2  0  0  0  0  0  0
  1  7  1  0  0  0  0
  2 11  1  1  0  0  0
  2 12  1  0  0  0  0
  3 14  1  0  0  0  0
  4  1  2  0  0  0  0
  4  8  1  0  0  0  0
  5  1  1  0  0  0  0
  6  3  1  0  0  0  0
  7  3  2  0  0  0  0
  8  6  2  0  0  0  0
  9 24  1  1  0  0  0
  9 10  1  0  0  0  0
  9 13  1  0  0  0  0
 10  6  1  6  0  0  0
 10  2  1  0  0  0  0
 12 15  1  1  0  0  0
 13 12  1  0  0  0  0
 14 11  1  0  0  0  0
 15 16  1  0  0  0  0
 16 21  1  0  0  0  0
 19 18  1  0  0  0  0
 20 21  1  0  0  0  0
 20 17  1  0  0  0  0
 22 19  1  0  0  0  0
 22 17  1  0  0  0  0
 23 21  1  0  0  0  0
 23 18  1  0  0  0  0
 25 29  1  0  0  0  0
 25 24  1  1  0  0  0
 27 31  1  0  0  0  0
 27 26  1  1  0  0  0
 28 30  1  6  0  0  0
 28 25  1  0  0  0  0
 31 28  1  0  0  0  0
 31 33  1  1  0  0  0
 32 27  1  0  0  0  0
 33 29  1  0  0  0  0
 34 32  1  0  0  0  0
 34 30  1  0  0  0  0
 35 27  1  0  0  0  0
 36 37  1  6  0  0  0
 36 35  1  0  0  0  0
 38 36  1  0  0  0  0
 39 43  1  0  0  0  0
 40 42  1  0  0  0  0
 41 40  2  0  0  0  0
 41 39  1  0  0  0  0
 42 38  2  0  0  0  0
 43 38  1  0  0  0  0
M  END
>  <MODEL>
4

>  <REMARK>
 VINA RESULT:      -7.0      3.044      7.553
  Name = 
  8 active torsions:
  status: ('A' for Active; 'I' for Inactive)
    1  A    between atoms: C_1  and  C_28
    2  A    between atoms: C_1  and  C_34
    3  A    between atoms: C_2  and  C_13
    4  A    between atoms: C_4  and  C_22
    5  A    between atoms: C_11  and  C_14
    6  A    between atoms: C_13  and  C_27
    7  A    between atoms: C_14  and  C_22
    8  A    between atoms: C_28  and  C_35
                            x       y       z     vdW  Elec       q    Type
                         _______ _______ _______ _____ _____    ______ ____

>  <TORSDO>
F 8

$$$$
=
 OpenBabel11062410223D

 43 49  0  0  1  0  0  0  0  0999 V2000
  161.2850  204.7700  149.1440 C   0  0  0  0  0  0  0  0  0  0  0  0
  160.6900  208.0140  152.9340 C   0  0  1  0  0  3  0  0  0  0  0  0
  161.2180  205.7500  151.3640 C   0  0  0  0  0  0  0  0  0  0  0  0
  161.4630  206.0370  148.5830 C   0  0  0  0  0  3  0  0  0  0  0  0
  161.2290  203.5730  148.2670 C   0  0  0  0  0  1  0  0  0  0  0  0
  161.3710  207.0390  150.7930 C   0  0  0  0  0  0  0  0  0  0  0  0
  161.1620  204.6290  150.5290 C   0  0  0  0  0  3  0  0  0  0  0  0
  161.5140  207.1650  149.4060 C   0  0  0  0  0  3  0  0  0  0  0  0
  161.1150  209.5970  151.2000 C   0  0  1  0  0  3  0  0  0  0  0  0
  161.5330  208.2230  151.7070 C   0  0  1  0  0  3  0  0  0  0  0  0
  161.2200  206.8160  153.7040 C   0  0  0  0  0  2  0  0  0  0  0  0
  160.6430  209.3630  153.6140 C   0  0  2  0  0  3  0  0  0  0  0  0
  160.5340  210.3150  152.4220 C   0  0  0  0  0  2  0  0  0  0  0  0
  161.0150  205.5500  152.8540 C   0  0  0  0  0  2  0  0  0  0  0  0
  161.9240  209.6420  154.4070 C   0  0  0  0  0  2  0  0  0  0  0  0
  161.7140  210.7210  155.4620 C   0  0  0  0  0  2  0  0  0  0  0  0
  157.8960  210.7910  155.9710 C   0  0  0  0  0  2  0  0  0  0  0  0
  159.0720  213.4530  155.4510 C   0  0  0  0  0  2  0  0  0  0  0  0
  157.8370  213.3150  156.3460 C   0  0  0  0  0  2  0  0  0  0  0  0
  159.3500  210.3580  156.1210 C   0  0  0  0  0  2  0  0  0  0  0  0
  160.3070  211.2950  155.3910 C   0  0  0  0  0  3  0  0  0  0  0  0
  157.6000  211.9230  156.9430 C   0  0  0  0  0  2  0  0  0  0  0  0
  160.2830  212.7010  155.9830 C   0  0  0  0  0  2  0  0  0  0  0  0
  162.3350  210.3780  150.7310 C   0  0  0  0  0  2  0  0  0  0  0  0
  161.9390  211.5950  149.9110 C   0  0  1  0  0  3  0  0  0  0  0  0
  161.4930  214.4510  148.3900 C   0  0  0  0  0  1  0  0  0  0  0  0
  161.4930  213.4300  147.2500 C   0  0  2  0  0  0  0  0  0  0  0  0
  162.2320  211.3910  148.4710 C   0  0  2  0  0  3  0  0  0  0  0  0
  160.4460  211.7150  149.8620 C   0  0  0  0  0  2  0  0  0  0  0  0
  163.6120  211.9010  148.0690 C   0  0  0  0  0  2  0  0  0  0  0  0
  161.1470  212.0700  147.7490 N   0  0  1  0  0  0  0  0  0  0  0  0
  162.9040  213.4520  146.6100 C   0  0  0  0  0  2  0  0  0  0  0  0
  160.0550  212.1500  148.5760 O   0  0  0  0  0  0  0  0  0  0  0  0
  163.5810  212.2220  146.7080 O   0  0  0  0  0  0  0  0  0  0  0  0
  160.4510  213.8250  146.1920 C   0  0  0  0  0  2  0  0  0  0  0  0
  159.9330  212.6650  145.3390 C   0  0  1  0  0  3  0  0  0  0  0  0
  158.5570  212.5920  145.4520 F   0  0  0  0  0  0  0  0  0  0  0  0
  160.3070  212.8370  143.9030 C   0  0  0  0  0  0  0  0  0  0  0  0
  159.5030  212.9260  141.5490 C   0  0  0  0  0  2  0  0  0  0  0  0
  161.8750  212.6220  142.1050 C   0  0  0  0  0  3  0  0  0  0  0  0
  160.9550  212.8690  141.1690 C   0  0  0  0  0  3  0  0  0  0  0  0
  161.4920  212.4920  143.4830 N   0  0  0  0  0  0  0  0  0  0  0  0
  159.3320  213.4900  142.9620 C   0  0  0  0  0  2  0  0  0  0  0  0
  1  7  1  0  0  0  0
  2 12  1  0  0  0  0
  2 11  1  1  0  0  0
  3 14  1  0  0  0  0
  4  1  2  0  0  0  0
  4  8  1  0  0  0  0
  5  1  1  0  0  0  0
  6  3  1  0  0  0  0
  7  3  2  0  0  0  0
  8  6  2  0  0  0  0
  9 24  1  1  0  0  0
  9 10  1  0  0  0  0
  9 13  1  0  0  0  0
 10  6  1  6  0  0  0
 10  2  1  0  0  0  0
 12 15  1  6  0  0  0
 13 12  1  0  0  0  0
 14 11  1  0  0  0  0
 15 16  1  0  0  0  0
 17 20  1  0  0  0  0
 17 22  1  0  0  0  0
 18 23  1  0  0  0  0
 18 19  1  0  0  0  0
 19 22  1  0  0  0  0
 21 16  1  0  0  0  0
 21 23  1  0  0  0  0
 21 20  1  0  0  0  0
 25 24  1  1  0  0  0
 27 31  1  0  0  0  0
 27 26  1  1  0  0  0
 28 30  1  6  0  0  0
 28 25  1  0  0  0  0
 29 25  1  0  0  0  0
 31 28  1  0  0  0  0
 31 33  1  1  0  0  0
 32 34  1  0  0  0  0
 32 27  1  0  0  0  0
 33 29  1  0  0  0  0
 34 30  1  0  0  0  0
 35 27  1  0  0  0  0
 36 37  1  6  0  0  0
 36 35  1  0  0  0  0
 38 36  1  0  0  0  0
 39 43  1  0  0  0  0
 40 42  1  0  0  0  0
 41 39  1  0  0  0  0
 41 40  2  0  0  0  0
 42 38  2  0  0  0  0
 43 38  1  0  0  0  0
M  END
>  <MODEL>
5

>  <REMARK>
 VINA RESULT:      -6.8      3.430      8.335
  Name = 
  8 active torsions:
  status: ('A' for Active; 'I' for Inactive)
    1  A    between atoms: C_1  and  C_28
    2  A    between atoms: C_1  and  C_34
    3  A    between atoms: C_2  and  C_13
    4  A    between atoms: C_4  and  C_22
    5  A    between atoms: C_11  and  C_14
    6  A    between atoms: C_13  and  C_27
    7  A    between atoms: C_14  and  C_22
    8  A    between atoms: C_28  and  C_35
                            x       y       z     vdW  Elec       q    Type
                         _______ _______ _______ _____ _____    ______ ____

>  <TORSDO>
F 8

$$$$
