=
 OpenBabel11052422083D

 25 27  0  0  1  0  0  0  0  0999 V2000
  161.4290  207.7460  150.8200 N   0  0  0  0  0  0  0  0  0  0  0  0
  160.7950  206.7840  149.9020 C   0  0  0  0  0  0  0  0  0  0  0  0
  162.1120  209.1390  149.0320 C   0  0  0  0  0  3  0  0  0  0  0  0
  161.7720  208.1150  148.0930 N   0  0  0  0  0  0  0  0  0  0  0  0
  160.9750  205.9130  147.5050 C   0  0  1  0  0  3  0  0  0  0  0  0
  160.9190  206.1710  146.0380 C   0  0  0  0  0  1  0  0  0  0  0  0
  161.0330  205.3490  150.3070 C   0  0  0  0  0  3  0  0  0  0  0  0
  161.9570  208.9470  150.3060 N   0  0  0  0  0  0  0  0  0  0  0  0
  160.8750  204.6600  147.9590 C   0  0  0  0  0  3  0  0  0  0  0  0
  160.9990  204.3600  149.4040 C   0  0  0  0  0  0  0  0  0  0  0  0
  161.2110  207.0060  148.4670 C   0  0  0  0  0  0  0  0  0  0  0  0
  161.2350  207.6400  152.2450 C   0  0  0  0  0  0  0  0  0  0  0  0
  160.8410  207.3970  155.0180 C   0  0  0  0  0  3  0  0  0  0  0  0
  160.6850  208.7080  152.9840 C   0  0  0  0  0  0  0  0  0  0  0  0
  160.4900  208.5790  154.3630 C   0  0  0  0  0  3  0  0  0  0  0  0
  161.3900  206.3370  154.2970 C   0  0  0  0  0  3  0  0  0  0  0  0
  160.3460  209.9050  152.3640 O   0  0  0  0  0  1  0  0  0  0  0  0
  161.5850  206.4570  152.9180 C   0  0  0  0  0  3  0  0  0  0  0  0
  161.1260  202.9440  149.8530 C   0  0  0  0  0  2  0  0  0  0  0  0
  160.4300  202.0300  148.8990 C   0  0  0  0  0  0  0  0  0  0  0  0
  159.2940  201.6500  149.1410 O   0  0  0  0  0  0  0  0  0  0  0  0
  161.1420  201.5690  147.6620 C   0  0  2  0  0  3  0  0  0  0  0  0
  160.3450  201.7730  146.5340 O   0  0  0  0  0  1  0  0  0  0  0  0
  161.5360  199.4950  146.5060 O   0  0  0  0  0  1  0  0  0  0  0  0
  161.5710  200.1090  147.7600 C   0  0  0  0  0  2  0  0  0  0  0  0
  1 12  1  0  0  0  0
  2  7  2  0  0  0  0
  2  1  1  0  0  0  0
  3  8  2  0  0  0  0
  4 11  2  0  0  0  0
  4  3  1  0  0  0  0
  5  6  1  6  0  0  0
  5  9  1  0  0  0  0
  5 11  1  0  0  0  0
  8  1  1  0  0  0  0
  9 10  2  0  0  0  0
 10 19  1  0  0  0  0
 10  7  1  0  0  0  0
 11  2  1  0  0  0  0
 12 18  2  0  0  0  0
 12 14  1  0  0  0  0
 14 15  2  0  0  0  0
 15 13  1  0  0  0  0
 16 13  2  0  0  0  0
 17 14  1  0  0  0  0
 18 16  1  0  0  0  0
 20 21  2  0  0  0  0
 20 19  1  0  0  0  0
 22 23  1  6  0  0  0
 22 25  1  0  0  0  0
 22 20  1  0  0  0  0
 24 25  1  0  0  0  0
M  END
>  <MODEL>
1

>  <REMARK>
 VINA RESULT:      -8.7      0.000      0.000
  Name = 
  5 active torsions:
  status: ('A' for Active; 'I' for Inactive)
    1  A    between atoms: N_1  and  C_5
    2  A    between atoms: C_2  and  C_15
    3  A    between atoms: C_2  and  C_21
    4  A    between atoms: C_6  and  C_15
    5  A    between atoms: C_6  and  C_23
                            x       y       z     vdW  Elec       q    Type
                         _______ _______ _______ _____ _____    ______ ____

>  <TORSDO>
F 5

$$$$
=
 OpenBabel11052422083D

 25 27  0  0  1  0  0  0  0  0999 V2000
  161.2890  206.2350  148.2130 N   0  0  0  0  0  0  0  0  0  0  0  0
  161.6110  205.1920  149.2010 C   0  0  2  0  0  3  0  0  0  0  0  0
  161.1270  207.8990  149.8880 C   0  0  0  0  0  3  0  0  0  0  0  0
  161.1500  206.8920  150.9030 N   0  0  0  0  0  0  0  0  0  0  0  0
  161.2260  204.5990  151.6590 C   0  0  0  0  0  0  0  0  0  0  0  0
  161.3970  204.9320  153.1010 C   0  0  0  0  0  1  0  0  0  0  0  0
  160.9210  203.8800  148.9080 C   0  0  0  0  0  3  0  0  0  0  0  0
  161.1800  207.5760  148.6330 N   0  0  0  0  0  0  0  0  0  0  0  0
  160.9140  203.3500  151.3030 C   0  0  0  0  0  3  0  0  0  0  0  0
  160.6640  203.0000  149.8850 C   0  0  0  0  0  0  0  0  0  0  0  0
  161.3230  205.6380  150.6150 C   0  0  0  0  0  0  0  0  0  0  0  0
  161.4030  205.9700  146.8000 C   0  0  0  0  0  0  0  0  0  0  0  0
  161.5880  205.4380  144.0460 C   0  0  0  0  0  3  0  0  0  0  0  0
  162.5620  205.3700  146.2650 C   0  0  0  0  0  0  0  0  0  0  0  0
  162.6460  205.1060  144.8940 C   0  0  0  0  0  3  0  0  0  0  0  0
  160.4390  206.0360  144.5640 C   0  0  0  0  0  3  0  0  0  0  0  0
  163.6400  205.0480  147.0810 O   0  0  0  0  0  1  0  0  0  0  0  0
  160.3470  206.2990  145.9340 C   0  0  0  0  0  3  0  0  0  0  0  0
  160.0850  201.6690  149.5470 C   0  0  0  0  0  2  0  0  0  0  0  0
  161.0000  200.9180  148.6350 C   0  0  0  0  0  0  0  0  0  0  0  0
  162.0460  200.4580  149.0690 O   0  0  0  0  0  0  0  0  0  0  0  0
  160.6370  200.7560  147.1900 C   0  0  2  0  0  3  0  0  0  0  0  0
  161.3350  199.6870  146.6260 O   0  0  0  0  0  1  0  0  0  0  0  0
  160.4070  201.9000  145.0850 O   0  0  0  0  0  1  0  0  0  0  0  0
  160.8760  202.0340  146.3940 C   0  0  0  0  0  2  0  0  0  0  0  0
  1  8  1  0  0  0  0
  1  2  1  0  0  0  0
  2  7  1  6  0  0  0
  2 11  1  0  0  0  0
  3  4  1  0  0  0  0
  5  6  1  0  0  0  0
  7 10  2  0  0  0  0
  8  3  2  0  0  0  0
  9  5  2  0  0  0  0
 10  9  1  0  0  0  0
 11  4  2  0  0  0  0
 11  5  1  0  0  0  0
 12  1  1  0  0  0  0
 13 16  2  0  0  0  0
 13 15  1  0  0  0  0
 14 12  1  0  0  0  0
 14 17  1  0  0  0  0
 15 14  2  0  0  0  0
 16 18  1  0  0  0  0
 18 12  2  0  0  0  0
 19 10  1  0  0  0  0
 20 21  2  0  0  0  0
 20 19  1  0  0  0  0
 22 23  1  6  0  0  0
 22 20  1  0  0  0  0
 24 25  1  0  0  0  0
 25 22  1  0  0  0  0
M  END
>  <MODEL>
2

>  <REMARK>
 VINA RESULT:      -8.4      2.388      5.270
  Name = 
  5 active torsions:
  status: ('A' for Active; 'I' for Inactive)
    1  A    between atoms: N_1  and  C_5
    2  A    between atoms: C_2  and  C_15
    3  A    between atoms: C_2  and  C_21
    4  A    between atoms: C_6  and  C_15
    5  A    between atoms: C_6  and  C_23
                            x       y       z     vdW  Elec       q    Type
                         _______ _______ _______ _____ _____    ______ ____

>  <TORSDO>
F 5

$$$$
=
 OpenBabel11052422083D

 25 27  0  0  1  0  0  0  0  0999 V2000
  161.8500  206.7300  148.2730 N   0  0  0  0  0  0  0  0  0  0  0  0
  162.0240  206.1840  149.6290 C   0  0  2  0  0  3  0  0  0  0  0  0
  161.7920  208.9550  149.0780 C   0  0  0  0  0  3  0  0  0  0  0  0
  161.6720  208.4750  150.4200 N   0  0  0  0  0  0  0  0  0  0  0  0
  161.4840  206.7220  152.0700 C   0  0  0  0  0  0  0  0  0  0  0  0
  161.6310  207.6220  153.2480 C   0  0  0  0  0  1  0  0  0  0  0  0
  161.2170  204.9290  149.8590 C   0  0  0  0  0  3  0  0  0  0  0  0
  161.8620  208.1260  148.0820 N   0  0  0  0  0  0  0  0  0  0  0  0
  161.0600  205.4670  152.2470 C   0  0  0  0  0  3  0  0  0  0  0  0
  160.8330  204.5680  151.0910 C   0  0  0  0  0  0  0  0  0  0  0  0
  161.7270  207.2090  150.6980 C   0  0  0  0  0  0  0  0  0  0  0  0
  161.9930  205.8830  147.1150 C   0  0  0  0  0  0  0  0  0  0  0  0
  162.3090  204.2450  144.8510 C   0  0  0  0  0  3  0  0  0  0  0  0
  160.9670  205.7900  146.1510 C   0  0  0  0  0  0  0  0  0  0  0  0
  161.1320  204.9750  145.0270 C   0  0  0  0  0  3  0  0  0  0  0  0
  163.3280  204.3270  145.8000 C   0  0  0  0  0  3  0  0  0  0  0  0
  159.7750  206.4870  146.3090 O   0  0  0  0  0  1  0  0  0  0  0  0
  163.1720  205.1410  146.9240 C   0  0  0  0  0  3  0  0  0  0  0  0
  160.1350  203.2680  151.2970 C   0  0  0  0  0  2  0  0  0  0  0  0
  160.7800  202.1950  150.4810 C   0  0  0  0  0  0  0  0  0  0  0  0
  161.7660  201.6150  150.9110 O   0  0  0  0  0  0  0  0  0  0  0  0
  160.2230  201.8550  149.1310 C   0  0  2  0  0  3  0  0  0  0  0  0
  158.9740  201.2460  149.2560 O   0  0  0  0  0  1  0  0  0  0  0  0
  161.0290  201.2110  146.9570 O   0  0  0  0  0  1  0  0  0  0  0  0
  161.1730  200.9750  148.3260 C   0  0  0  0  0  2  0  0  0  0  0  0
  1  2  1  0  0  0  0
  2  7  1  1  0  0  0
  2 11  1  0  0  0  0
  3  4  1  0  0  0  0
  4 11  2  0  0  0  0
  5  9  2  0  0  0  0
  5  6  1  0  0  0  0
  7 10  2  0  0  0  0
  8  1  1  0  0  0  0
  8  3  2  0  0  0  0
 10 19  1  0  0  0  0
 10  9  1  0  0  0  0
 11  5  1  0  0  0  0
 12  1  1  0  0  0  0
 13 15  2  0  0  0  0
 13 16  1  0  0  0  0
 14 17  1  0  0  0  0
 14 12  2  0  0  0  0
 15 14  1  0  0  0  0
 16 18  2  0  0  0  0
 18 12  1  0  0  0  0
 20 21  2  0  0  0  0
 20 19  1  0  0  0  0
 22 23  1  1  0  0  0
 22 20  1  0  0  0  0
 24 25  1  0  0  0  0
 25 22  1  0  0  0  0
M  END
>  <MODEL>
3

>  <REMARK>
 VINA RESULT:      -8.2      1.810      5.010
  Name = 
  5 active torsions:
  status: ('A' for Active; 'I' for Inactive)
    1  A    between atoms: N_1  and  C_5
    2  A    between atoms: C_2  and  C_15
    3  A    between atoms: C_2  and  C_21
    4  A    between atoms: C_6  and  C_15
    5  A    between atoms: C_6  and  C_23
                            x       y       z     vdW  Elec       q    Type
                         _______ _______ _______ _____ _____    ______ ____

>  <TORSDO>
F 5

$$$$
=
 OpenBabel11052422083D

 25 27  0  0  1  0  0  0  0  0999 V2000
  161.2440  205.5180  149.3260 N   0  0  0  0  0  0  0  0  0  0  0  0
  161.8640  206.3440  150.3770 C   0  0  2  0  0  3  0  0  0  0  0  0
  161.1990  207.3290  147.8030 C   0  0  0  0  0  3  0  0  0  0  0  0
  161.5280  208.2360  148.8580 N   0  0  0  0  0  0  0  0  0  0  0  0
  162.0120  208.7720  151.1620 C   0  0  0  0  0  0  0  0  0  0  0  0
  162.4070  210.1850  150.8980 C   0  0  0  0  0  1  0  0  0  0  0  0
  161.2920  206.0680  151.7470 C   0  0  0  0  0  3  0  0  0  0  0  0
  161.0570  206.0610  148.0390 N   0  0  0  0  0  0  0  0  0  0  0  0
  161.7900  208.3740  152.4190 C   0  0  0  0  0  3  0  0  0  0  0  0
  161.3260  206.9970  152.7110 C   0  0  0  0  0  0  0  0  0  0  0  0
  161.7910  207.8180  150.0590 C   0  0  0  0  0  0  0  0  0  0  0  0
  161.1260  204.0900  149.4880 C   0  0  0  0  0  0  0  0  0  0  0  0
  160.9210  201.3070  149.8340 C   0  0  0  0  0  3  0  0  0  0  0  0
  161.2050  203.2240  148.3770 C   0  0  0  0  0  0  0  0  0  0  0  0
  161.1040  201.8410  148.5570 C   0  0  0  0  0  3  0  0  0  0  0  0
  160.8380  202.1550  150.9380 C   0  0  0  0  0  3  0  0  0  0  0  0
  161.3650  203.7270  147.0910 O   0  0  0  0  0  1  0  0  0  0  0  0
  160.9400  203.5380  150.7660 C   0  0  0  0  0  3  0  0  0  0  0  0
  160.8560  206.6560  154.0840 C   0  0  0  0  0  2  0  0  0  0  0  0
  160.7090  207.8930  154.9080 C   0  0  0  0  0  0  0  0  0  0  0  0
  159.8690  208.7280  154.6050 O   0  0  0  0  0  0  0  0  0  0  0  0
  161.6090  208.1090  156.0870 C   0  0  2  0  0  3  0  0  0  0  0  0
  160.9910  207.6730  157.2610 O   0  0  0  0  0  1  0  0  0  0  0  0
  162.9570  209.7210  157.2610 O   0  0  0  0  0  1  0  0  0  0  0  0
  162.0420  209.5650  156.2170 C   0  0  0  0  0  2  0  0  0  0  0  0
  1 12  1  0  0  0  0
  1  2  1  0  0  0  0
  2  7  1  1  0  0  0
  3  8  2  0  0  0  0
  3  4  1  0  0  0  0
  4 11  2  0  0  0  0
  5  9  2  0  0  0  0
  6  5  1  0  0  0  0
  7 10  2  0  0  0  0
  8  1  1  0  0  0  0
  9 10  1  0  0  0  0
 10 19  1  0  0  0  0
 11  2  1  0  0  0  0
 11  5  1  0  0  0  0
 12 18  1  0  0  0  0
 13 16  1  0  0  0  0
 14 15  1  0  0  0  0
 14 12  2  0  0  0  0
 15 13  2  0  0  0  0
 17 14  1  0  0  0  0
 18 16  2  0  0  0  0
 19 20  1  0  0  0  0
 20 22  1  0  0  0  0
 21 20  2  0  0  0  0
 22 25  1  0  0  0  0
 22 23  1  1  0  0  0
 25 24  1  0  0  0  0
M  END
>  <MODEL>
4

>  <REMARK>
 VINA RESULT:      -8.0      2.162      7.233
  Name = 
  5 active torsions:
  status: ('A' for Active; 'I' for Inactive)
    1  A    between atoms: N_1  and  C_5
    2  A    between atoms: C_2  and  C_15
    3  A    between atoms: C_2  and  C_21
    4  A    between atoms: C_6  and  C_15
    5  A    between atoms: C_6  and  C_23
                            x       y       z     vdW  Elec       q    Type
                         _______ _______ _______ _____ _____    ______ ____

>  <TORSDO>
F 5

$$$$
=
 OpenBabel11052422083D

 25 27  0  0  1  0  0  0  0  0999 V2000
  161.2340  205.7630  151.6270 N   0  0  0  0  0  0  0  0  0  0  0  0
  161.6270  205.0460  150.4020 C   0  0  0  0  0  0  0  0  0  0  0  0
  160.7600  203.7420  152.7650 C   0  0  0  0  0  3  0  0  0  0  0  0
  160.8520  203.0180  151.5350 N   0  0  0  0  0  0  0  0  0  0  0  0
  161.1750  202.8650  149.1470 C   0  0  1  0  0  3  0  0  0  0  0  0
  161.2160  201.3760  149.1060 C   0  0  0  0  0  1  0  0  0  0  0  0
  161.1310  205.7240  149.1470 C   0  0  0  0  0  3  0  0  0  0  0  0
  160.9300  205.0290  152.7910 N   0  0  0  0  0  0  0  0  0  0  0  0
  161.0480  203.5530  148.0080 C   0  0  0  0  0  3  0  0  0  0  0  0
  160.9300  205.0300  148.0180 C   0  0  0  0  0  0  0  0  0  0  0  0
  161.2010  203.5980  150.4270 C   0  0  0  0  0  0  0  0  0  0  0  0
  161.4660  207.1800  151.7570 C   0  0  0  0  0  0  0  0  0  0  0  0
  161.9550  209.9390  151.9950 C   0  0  0  0  0  3  0  0  0  0  0  0
  161.0900  207.8740  152.9260 C   0  0  0  0  0  0  0  0  0  0  0  0
  161.3380  209.2460  153.0380 C   0  0  0  0  0  3  0  0  0  0  0  0
  162.3260  209.2630  150.8320 C   0  0  0  0  0  3  0  0  0  0  0  0
  160.4550  207.2160  153.9730 O   0  0  0  0  0  1  0  0  0  0  0  0
  162.0840  207.8920  150.7150 C   0  0  0  0  0  3  0  0  0  0  0  0
  160.5480  205.7460  146.7690 C   0  0  0  0  0  2  0  0  0  0  0  0
  161.6360  205.6360  145.7510 C   0  0  0  0  0  0  0  0  0  0  0  0
  162.7250  206.1470  145.9690 O   0  0  0  0  0  0  0  0  0  0  0  0
  161.3740  204.9190  144.4610 C   0  0  2  0  0  3  0  0  0  0  0  0
  161.2760  205.8280  143.4060 O   0  0  0  0  0  1  0  0  0  0  0  0
  160.4590  202.7340  144.8840 O   0  0  0  0  0  1  0  0  0  0  0  0
  160.1270  204.0450  144.5360 C   0  0  0  0  0  2  0  0  0  0  0  0
  1 12  1  0  0  0  0
  1  8  1  0  0  0  0
  2 11  1  0  0  0  0
  2  1  1  0  0  0  0
  3  8  2  0  0  0  0
  4  3  1  0  0  0  0
  5  6  1  1  0  0  0
  5 11  1  0  0  0  0
  7  2  2  0  0  0  0
  9 10  2  0  0  0  0
  9  5  1  0  0  0  0
 10  7  1  0  0  0  0
 11  4  2  0  0  0  0
 12 14  1  0  0  0  0
 13 15  1  0  0  0  0
 14 15  2  0  0  0  0
 14 17  1  0  0  0  0
 16 13  2  0  0  0  0
 18 16  1  0  0  0  0
 18 12  2  0  0  0  0
 19 10  1  0  0  0  0
 20 21  2  0  0  0  0
 20 19  1  0  0  0  0
 22 23  1  6  0  0  0
 22 25  1  0  0  0  0
 22 20  1  0  0  0  0
 25 24  1  0  0  0  0
M  END
>  <MODEL>
5

>  <REMARK>
 VINA RESULT:      -8.0      2.403      4.071
  Name = 
  5 active torsions:
  status: ('A' for Active; 'I' for Inactive)
    1  A    between atoms: N_1  and  C_5
    2  A    between atoms: C_2  and  C_15
    3  A    between atoms: C_2  and  C_21
    4  A    between atoms: C_6  and  C_15
    5  A    between atoms: C_6  and  C_23
                            x       y       z     vdW  Elec       q    Type
                         _______ _______ _______ _____ _____    ______ ____

>  <TORSDO>
F 5

$$$$
=
 OpenBabel11052422083D

 25 27  0  0  1  0  0  0  0  0999 V2000
  161.3520  205.9010  148.5630 N   0  0  0  0  0  0  0  0  0  0  0  0
  161.0110  207.1760  149.2150 C   0  0  2  0  0  3  0  0  0  0  0  0
  161.3510  204.7410  150.6270 C   0  0  0  0  0  3  0  0  0  0  0  0
  161.3060  205.9840  151.3340 N   0  0  0  0  0  0  0  0  0  0  0  0
  161.2710  208.3950  151.4480 C   0  0  0  0  0  0  0  0  0  0  0  0
  161.0010  208.4630  152.9120 C   0  0  0  0  0  1  0  0  0  0  0  0
  161.7660  208.3480  148.6330 C   0  0  0  0  0  3  0  0  0  0  0  0
  161.3850  204.7190  149.3300 N   0  0  0  0  0  0  0  0  0  0  0  0
  161.6510  209.4980  150.7960 C   0  0  0  0  0  3  0  0  0  0  0  0
  161.9970  209.4510  149.3560 C   0  0  0  0  0  0  0  0  0  0  0  0
  161.1970  207.1180  150.7130 C   0  0  0  0  0  0  0  0  0  0  0  0
  161.3330  205.7810  147.1260 C   0  0  0  0  0  0  0  0  0  0  0  0
  161.2570  205.5320  144.3270 C   0  0  0  0  0  3  0  0  0  0  0  0
  162.4370  205.2520  146.4260 C   0  0  0  0  0  0  0  0  0  0  0  0
  162.3910  205.1290  145.0340 C   0  0  0  0  0  3  0  0  0  0  0  0
  160.1610  206.0600  145.0090 C   0  0  0  0  0  3  0  0  0  0  0  0
  163.5890  204.8620  147.1000 O   0  0  0  0  0  1  0  0  0  0  0  0
  160.1980  206.1830  146.4010 C   0  0  0  0  0  3  0  0  0  0  0  0
  162.6450  210.6320  148.7170 C   0  0  0  0  0  2  0  0  0  0  0  0
  161.6520  211.7320  148.5260 C   0  0  0  0  0  0  0  0  0  0  0  0
  161.2460  212.3580  149.4930 O   0  0  0  0  0  0  0  0  0  0  0  0
  161.1460  212.0420  147.1490 C   0  0  2  0  0  3  0  0  0  0  0  0
  162.0570  212.8470  146.4620 O   0  0  0  0  0  1  0  0  0  0  0  0
  159.0570  212.4100  146.0120 O   0  0  0  0  0  1  0  0  0  0  0  0
  159.7690  212.6950  147.1800 C   0  0  0  0  0  2  0  0  0  0  0  0
  1  2  1  0  0  0  0
  1  8  1  0  0  0  0
  2  7  1  6  0  0  0
  2 11  1  0  0  0  0
  3  4  1  0  0  0  0
  5  6  1  0  0  0  0
  7 10  2  0  0  0  0
  8  3  2  0  0  0  0
  9  5  2  0  0  0  0
 10  9  1  0  0  0  0
 11  4  2  0  0  0  0
 11  5  1  0  0  0  0
 12  1  1  0  0  0  0
 13 16  2  0  0  0  0
 13 15  1  0  0  0  0
 14 17  1  0  0  0  0
 14 12  1  0  0  0  0
 15 14  2  0  0  0  0
 16 18  1  0  0  0  0
 18 12  2  0  0  0  0
 19 10  1  0  0  0  0
 20 19  1  0  0  0  0
 20 21  2  0  0  0  0
 22 23  1  1  0  0  0
 22 25  1  0  0  0  0
 22 20  1  0  0  0  0
 24 25  1  0  0  0  0
M  END
>  <MODEL>
6

>  <REMARK>
 VINA RESULT:      -7.8      2.941      7.921
  Name = 
  5 active torsions:
  status: ('A' for Active; 'I' for Inactive)
    1  A    between atoms: N_1  and  C_5
    2  A    between atoms: C_2  and  C_15
    3  A    between atoms: C_2  and  C_21
    4  A    between atoms: C_6  and  C_15
    5  A    between atoms: C_6  and  C_23
                            x       y       z     vdW  Elec       q    Type
                         _______ _______ _______ _____ _____    ______ ____

>  <TORSDO>
F 5

$$$$
=
 OpenBabel11052422083D

 25 27  0  0  1  0  0  0  0  0999 V2000
  161.0630  207.8970  152.3920 N   0  0  0  0  0  0  0  0  0  0  0  0
  161.5620  206.7750  151.5790 C   0  0  0  0  0  0  0  0  0  0  0  0
  160.8320  206.5260  154.3070 C   0  0  0  0  0  3  0  0  0  0  0  0
  161.0330  205.3580  153.5050 N   0  0  0  0  0  0  0  0  0  0  0  0
  161.4080  204.2290  151.4040 C   0  0  1  0  0  3  0  0  0  0  0  0
  161.6380  202.8850  152.0060 C   0  0  0  0  0  1  0  0  0  0  0  0
  161.0020  206.7790  150.1770 C   0  0  0  0  0  3  0  0  0  0  0  0
  160.8370  207.7070  153.7700 N   0  0  0  0  0  0  0  0  0  0  0  0
  161.2110  204.3370  150.0870 C   0  0  0  0  0  3  0  0  0  0  0  0
  160.9070  205.6470  149.4660 C   0  0  0  0  0  0  0  0  0  0  0  0
  161.3220  205.4400  152.2430 C   0  0  0  0  0  0  0  0  0  0  0  0
  161.1110  209.2480  151.8900 C   0  0  0  0  0  0  0  0  0  0  0  0
  161.2450  211.8790  150.9070 C   0  0  0  0  0  3  0  0  0  0  0  0
  160.3820  210.2820  152.5140 C   0  0  0  0  0  0  0  0  0  0  0  0
  160.4560  211.5890  152.0210 C   0  0  0  0  0  3  0  0  0  0  0  0
  161.9670  210.8630  150.2800 C   0  0  0  0  0  3  0  0  0  0  0  0
  159.5700  210.0200  153.6110 O   0  0  0  0  0  1  0  0  0  0  0  0
  161.9010  209.5560  150.7690 C   0  0  0  0  0  3  0  0  0  0  0  0
  160.4560  205.7010  148.0460 C   0  0  0  0  0  2  0  0  0  0  0  0
  161.6320  205.7750  147.1270 C   0  0  0  0  0  0  0  0  0  0  0  0
  162.1600  206.8540  146.9030 O   0  0  0  0  0  0  0  0  0  0  0  0
  162.1390  204.5260  146.4720 C   0  0  2  0  0  3  0  0  0  0  0  0
  163.4520  204.7020  146.0310 O   0  0  0  0  0  1  0  0  0  0  0  0
  161.1870  205.0560  144.3260 O   0  0  0  0  0  1  0  0  0  0  0  0
  161.2410  204.0790  145.3230 C   0  0  0  0  0  2  0  0  0  0  0  0
  1  8  1  0  0  0  0
  2 11  1  0  0  0  0
  2  1  1  0  0  0  0
  4  3  1  0  0  0  0
  5  6  1  1  0  0  0
  5 11  1  0  0  0  0
  7  2  2  0  0  0  0
  8  3  2  0  0  0  0
  9  5  1  0  0  0  0
 10  9  2  0  0  0  0
 10  7  1  0  0  0  0
 11  4  2  0  0  0  0
 12  1  1  0  0  0  0
 12 14  1  0  0  0  0
 13 15  1  0  0  0  0
 14 17  1  0  0  0  0
 15 14  2  0  0  0  0
 16 18  1  0  0  0  0
 16 13  2  0  0  0  0
 18 12  2  0  0  0  0
 19 10  1  0  0  0  0
 20 19  1  0  0  0  0
 21 20  2  0  0  0  0
 22 23  1  6  0  0  0
 22 20  1  0  0  0  0
 24 25  1  0  0  0  0
 25 22  1  0  0  0  0
M  END
>  <MODEL>
7

>  <REMARK>
 VINA RESULT:      -7.6      2.661      4.257
  Name = 
  5 active torsions:
  status: ('A' for Active; 'I' for Inactive)
    1  A    between atoms: N_1  and  C_5
    2  A    between atoms: C_2  and  C_15
    3  A    between atoms: C_2  and  C_21
    4  A    between atoms: C_6  and  C_15
    5  A    between atoms: C_6  and  C_23
                            x       y       z     vdW  Elec       q    Type
                         _______ _______ _______ _____ _____    ______ ____

>  <TORSDO>
F 5

$$$$
=
 OpenBabel11052422083D

 25 27  0  0  1  0  0  0  0  0999 V2000
  161.2540  204.1750  149.6890 N   0  0  0  0  0  0  0  0  0  0  0  0
  160.8420  205.5500  150.0190 C   0  0  2  0  0  3  0  0  0  0  0  0
  161.3340  203.5530  151.9710 C   0  0  0  0  0  3  0  0  0  0  0  0
  161.2180  204.9260  152.3570 N   0  0  0  0  0  0  0  0  0  0  0  0
  161.0420  207.2870  151.8850 C   0  0  0  0  0  0  0  0  0  0  0  0
  160.7770  207.6930  153.2940 C   0  0  0  0  0  1  0  0  0  0  0  0
  161.5230  206.5840  149.1550 C   0  0  0  0  0  3  0  0  0  0  0  0
  161.3610  203.2180  150.7180 N   0  0  0  0  0  0  0  0  0  0  0  0
  161.3520  208.2180  150.9770 C   0  0  0  0  0  3  0  0  0  0  0  0
  161.6930  207.8420  149.5850 C   0  0  0  0  0  0  0  0  0  0  0  0
  161.0400  205.8680  151.4820 C   0  0  0  0  0  0  0  0  0  0  0  0
  161.2340  203.7090  148.3240 C   0  0  0  0  0  0  0  0  0  0  0  0
  161.1750  202.8340  145.6530 C   0  0  0  0  0  3  0  0  0  0  0  0
  160.8310  202.3940  148.0120 C   0  0  0  0  0  0  0  0  0  0  0  0
  160.8020  201.9660  146.6800 C   0  0  0  0  0  3  0  0  0  0  0  0
  161.5790  204.1360  145.9510 C   0  0  0  0  0  3  0  0  0  0  0  0
  160.4750  201.4990  149.0150 O   0  0  0  0  0  1  0  0  0  0  0  0
  161.6070  204.5710  147.2790 C   0  0  0  0  0  3  0  0  0  0  0  0
  162.2660  208.8660  148.6660 C   0  0  0  0  0  2  0  0  0  0  0  0
  162.0840  210.2360  149.2330 C   0  0  0  0  0  0  0  0  0  0  0  0
  162.0230  210.3890  150.4440 O   0  0  0  0  0  0  0  0  0  0  0  0
  161.9560  211.4100  148.3090 C   0  0  2  0  0  3  0  0  0  0  0  0
  163.2150  211.8340  147.8790 O   0  0  0  0  0  1  0  0  0  0  0  0
  161.7830  213.7870  148.6360 O   0  0  0  0  0  1  0  0  0  0  0  0
  161.1910  212.5620  148.9500 C   0  0  0  0  0  2  0  0  0  0  0  0
  1  2  1  0  0  0  0
  1  8  1  0  0  0  0
  2  7  1  6  0  0  0
  2 11  1  0  0  0  0
  3  4  1  0  0  0  0
  5  6  1  0  0  0  0
  7 10  2  0  0  0  0
  8  3  2  0  0  0  0
  9  5  2  0  0  0  0
 10  9  1  0  0  0  0
 11  5  1  0  0  0  0
 11  4  2  0  0  0  0
 12  1  1  0  0  0  0
 13 16  2  0  0  0  0
 13 15  1  0  0  0  0
 14 12  1  0  0  0  0
 14 17  1  0  0  0  0
 15 14  2  0  0  0  0
 16 18  1  0  0  0  0
 18 12  2  0  0  0  0
 19 20  1  0  0  0  0
 19 10  1  0  0  0  0
 20 21  2  0  0  0  0
 22 23  1  1  0  0  0
 22 25  1  0  0  0  0
 22 20  1  0  0  0  0
 24 25  1  0  0  0  0
M  END
>  <MODEL>
8

>  <REMARK>
 VINA RESULT:      -7.6      2.556      7.769
  Name = 
  5 active torsions:
  status: ('A' for Active; 'I' for Inactive)
    1  A    between atoms: N_1  and  C_5
    2  A    between atoms: C_2  and  C_15
    3  A    between atoms: C_2  and  C_21
    4  A    between atoms: C_6  and  C_15
    5  A    between atoms: C_6  and  C_23
                            x       y       z     vdW  Elec       q    Type
                         _______ _______ _______ _____ _____    ______ ____

>  <TORSDO>
F 5

$$$$
=
 OpenBabel11052422083D

 25 27  0  0  1  0  0  0  0  0999 V2000
  161.3330  205.7810  149.7630 N   0  0  0  0  0  0  0  0  0  0  0  0
  161.8330  206.6210  150.8640 C   0  0  2  0  0  3  0  0  0  0  0  0
  161.4970  207.5610  148.2110 C   0  0  0  0  0  3  0  0  0  0  0  0
  161.7080  208.4860  149.2820 N   0  0  0  0  0  0  0  0  0  0  0  0
  161.9180  209.0630  151.6170 C   0  0  0  0  0  0  0  0  0  0  0  0
  162.3610  210.4660  151.3760 C   0  0  0  0  0  1  0  0  0  0  0  0
  161.0960  206.3790  152.1600 C   0  0  0  0  0  3  0  0  0  0  0  0
  161.3100  206.3000  148.4520 N   0  0  0  0  0  0  0  0  0  0  0  0
  161.5400  208.6930  152.8440 C   0  0  0  0  0  3  0  0  0  0  0  0
  161.0250  207.3280  153.1040 C   0  0  0  0  0  0  0  0  0  0  0  0
  161.8190  208.0890  150.5130 C   0  0  0  0  0  0  0  0  0  0  0  0
  161.1770  204.3580  149.9350 C   0  0  0  0  0  0  0  0  0  0  0  0
  160.9010  201.5840  150.3000 C   0  0  0  0  0  3  0  0  0  0  0  0
  161.1300  203.4920  148.8220 C   0  0  0  0  0  0  0  0  0  0  0  0
  160.9940  202.1130  149.0120 C   0  0  0  0  0  3  0  0  0  0  0  0
  160.9420  202.4320  151.4070 C   0  0  0  0  0  3  0  0  0  0  0  0
  161.1990  203.9910  147.5270 O   0  0  0  0  0  1  0  0  0  0  0  0
  161.0800  203.8100  151.2260 C   0  0  0  0  0  3  0  0  0  0  0  0
  160.3880  207.0190  154.4160 C   0  0  0  0  0  2  0  0  0  0  0  0
  160.7900  208.0290  155.4410 C   0  0  0  0  0  0  0  0  0  0  0  0
  161.9380  208.0450  155.8590 O   0  0  0  0  0  0  0  0  0  0  0  0
  159.7730  208.9990  155.9630 C   0  0  2  0  0  3  0  0  0  0  0  0
  159.4720  209.9610  154.9960 O   0  0  0  0  0  1  0  0  0  0  0  0
  160.8160  210.9040  157.0010 O   0  0  0  0  0  1  0  0  0  0  0  0
  160.2290  209.6630  157.2580 C   0  0  0  0  0  2  0  0  0  0  0  0
  1 12  1  0  0  0  0
  1  2  1  0  0  0  0
  2  7  1  1  0  0  0
  3  8  2  0  0  0  0
  3  4  1  0  0  0  0
  4 11  2  0  0  0  0
  5  9  2  0  0  0  0
  6  5  1  0  0  0  0
  7 10  2  0  0  0  0
  8  1  1  0  0  0  0
  9 10  1  0  0  0  0
 10 19  1  0  0  0  0
 11  2  1  0  0  0  0
 11  5  1  0  0  0  0
 12 18  1  0  0  0  0
 13 16  1  0  0  0  0
 14 15  1  0  0  0  0
 14 12  2  0  0  0  0
 15 13  2  0  0  0  0
 17 14  1  0  0  0  0
 18 16  2  0  0  0  0
 19 20  1  0  0  0  0
 20 21  2  0  0  0  0
 20 22  1  0  0  0  0
 22 23  1  6  0  0  0
 22 25  1  0  0  0  0
 24 25  1  0  0  0  0
M  END
>  <MODEL>
9

>  <REMARK>
 VINA RESULT:      -7.6      2.067      7.357
  Name = 
  5 active torsions:
  status: ('A' for Active; 'I' for Inactive)
    1  A    between atoms: N_1  and  C_5
    2  A    between atoms: C_2  and  C_15
    3  A    between atoms: C_2  and  C_21
    4  A    between atoms: C_6  and  C_15
    5  A    between atoms: C_6  and  C_23
                            x       y       z     vdW  Elec       q    Type
                         _______ _______ _______ _____ _____    ______ ____

>  <TORSDO>
F 5

$$$$
