=
 OpenBabel11052423133D

 27 33  0  0  1  0  0  0  0  0999 V2000
  162.1160  204.4090  148.1250 C   0  0  0  0  0  2  0  0  0  0  0  0
  161.8410  206.7190  149.1020 C   0  0  0  0  0  0  0  0  0  0  0  0
  160.7700  205.2390  150.8130 N   0  0  0  0  0  2  0  0  0  0  0  0
  161.8450  210.1570  151.9450 C   0  0  0  0  0  3  0  0  0  0  0  0
  160.9190  209.6510  154.4600 Cl  0  0  0  0  0  0  0  0  0  0  0  0
  162.2120  208.0210  148.9760 N   0  0  0  0  0  0  0  0  0  0  0  0
  161.1240  207.8520  152.3630 C   0  0  0  0  0  0  0  0  0  0  0  0
  160.6450  202.7970  151.2680 C   0  0  1  0  0  3  0  0  0  0  0  0
  160.5770  206.8010  153.2720 C   0  0  0  0  0  1  0  0  0  0  0  0
  160.4540  201.4100  150.6440 C   0  0  0  0  0  2  0  0  0  0  0  0
  161.4780  207.5670  151.0360 C   0  0  0  0  0  0  0  0  0  0  0  0
  161.8140  205.8280  147.9740 N   0  0  0  0  0  0  0  0  0  0  0  0
  161.3190  209.1780  152.8160 C   0  0  0  0  0  0  0  0  0  0  0  0
  161.9850  208.5250  150.2030 C   0  0  0  0  0  0  0  0  0  0  0  0
  160.9640  203.6960  148.7920 C   0  0  1  0  0  3  0  0  0  0  0  0
  161.3940  206.4130  150.3530 N   0  0  0  0  0  0  0  0  0  0  0  0
  162.1180  203.1840  151.0990 C   0  0  0  0  0  2  0  0  0  0  0  0
  162.1830  209.8380  150.6190 C   0  0  0  0  0  3  0  0  0  0  0  0
  159.9540  201.4670  149.2090 C   0  0  0  0  0  2  0  0  0  0  0  0
  160.9610  202.2310  148.3740 C   0  0  0  0  0  2  0  0  0  0  0  0
  161.0590  203.9090  150.3050 C   0  0  1  0  0  0  0  0  0  0  0  0
  161.0840  205.5110  143.7800 C   0  0  0  0  0  2  0  0  0  0  0  0
  161.7210  206.4080  146.6330 C   0  0  2  0  0  3  0  0  0  0  0  0
  160.3340  206.2200  146.0460 C   0  0  0  0  0  2  0  0  0  0  0  0
  160.4100  205.0650  145.0610 C   0  0  2  0  0  3  0  0  0  0  0  0
  161.8810  204.7610  144.8290 C   0  0  2  0  0  3  0  0  0  0  0  0
  162.6850  205.7350  145.6750 C   0  0  0  0  0  2  0  0  0  0  0  0
  2 16  1  0  0  0  0
  4 13  1  0  0  0  0
  6  2  2  0  0  0  0
  6 14  1  0  0  0  0
  7 13  2  0  0  0  0
  7  9  1  0  0  0  0
  8 10  1  6  0  0  0
 11  7  1  0  0  0  0
 12  1  1  0  0  0  0
 12  2  1  0  0  0  0
 13  5  1  0  0  0  0
 14 18  1  0  0  0  0
 14 11  2  0  0  0  0
 15  1  1  6  0  0  0
 15 21  1  0  0  0  0
 16  3  1  0  0  0  0
 16 11  1  0  0  0  0
 17  8  1  0  0  0  0
 18  4  2  0  0  0  0
 19 10  1  0  0  0  0
 20 15  1  0  0  0  0
 20 19  1  0  0  0  0
 21  3  1  0  0  0  0
 21 17  1  1  0  0  0
 21  8  1  0  0  0  0
 23 27  1  6  0  0  0
 23 12  1  0  0  0  0
 24 23  1  0  0  0  0
 25 22  1  6  0  0  0
 25 24  1  0  0  0  0
 26 22  1  6  0  0  0
 26 25  1  0  0  0  0
 26 27  1  0  0  0  0
M  END
>  <MODEL>
1

>  <REMARK>
 VINA RESULT:     -10.0      0.000      0.000
  Name = 
  1 active torsions:
  status: ('A' for Active; 'I' for Inactive)
    1  A    between atoms: C_9  and  N_15
                            x       y       z     vdW  Elec       q    Type
                         _______ _______ _______ _____ _____    ______ ____

>  <TORSDO>
F 1

$$$$
=
 OpenBabel11052423133D

 27 33  0  0  1  0  0  0  0  0999 V2000
  162.0820  207.2250  153.1670 C   0  0  0  0  0  2  0  0  0  0  0  0
  161.8510  208.6860  151.1230 C   0  0  0  0  0  0  0  0  0  0  0  0
  160.4560  209.8650  152.8340 N   0  0  0  0  0  2  0  0  0  0  0  0
  161.7320  212.2470  148.4390 C   0  0  0  0  0  3  0  0  0  0  0  0
  160.4450  214.4500  149.4030 Cl  0  0  0  0  0  0  0  0  0  0  0  0
  162.3310  208.9170  149.8720 N   0  0  0  0  0  0  0  0  0  0  0  0
  160.7930  212.0220  150.6910 C   0  0  0  0  0  0  0  0  0  0  0  0
  160.0910  209.7090  155.2890 C   0  0  1  0  0  3  0  0  0  0  0  0
  160.0530  212.5870  151.8590 C   0  0  0  0  0  1  0  0  0  0  0  0
  159.8810  208.7550  156.4710 C   0  0  0  0  0  2  0  0  0  0  0  0
  161.2990  210.7130  150.7030 C   0  0  0  0  0  0  0  0  0  0  0  0
  161.9080  207.3830  151.7280 N   0  0  0  0  0  0  0  0  0  0  0  0
  161.0240  212.7960  149.5300 C   0  0  0  0  0  0  0  0  0  0  0  0
  161.9810  210.1940  149.6390 C   0  0  0  0  0  0  0  0  0  0  0  0
  160.8010  207.5700  153.8900 C   0  0  1  0  0  3  0  0  0  0  0  0
  161.2210  209.7710  151.6570 N   0  0  0  0  0  0  0  0  0  0  0  0
  161.5980  209.8030  155.0270 C   0  0  0  0  0  2  0  0  0  0  0  0
  162.2190  210.9300  148.4820 C   0  0  0  0  0  3  0  0  0  0  0  0
  159.5820  207.3280  156.0390 C   0  0  0  0  0  2  0  0  0  0  0  0
  160.7460  206.8180  155.2140 C   0  0  0  0  0  2  0  0  0  0  0  0
  160.7100  209.0910  154.0360 C   0  0  1  0  0  0  0  0  0  0  0  0
  160.8310  203.4230  150.5510 C   0  0  0  0  0  2  0  0  0  0  0  0
  162.0380  206.2170  150.8510 C   0  0  2  0  0  3  0  0  0  0  0  0
  160.7190  205.8830  150.1800 C   0  0  0  0  0  2  0  0  0  0  0  0
  160.1140  204.7050  150.9250 C   0  0  2  0  0  3  0  0  0  0  0  0
  161.1920  204.1410  151.8370 C   0  0  2  0  0  3  0  0  0  0  0  0
  162.4430  204.9830  151.6360 C   0  0  0  0  0  2  0  0  0  0  0  0
  2 16  1  0  0  0  0
  2 12  1  0  0  0  0
  3 21  1  0  0  0  0
  4 18  2  0  0  0  0
  4 13  1  0  0  0  0
  5 13  1  0  0  0  0
  6  2  2  0  0  0  0
  7 11  1  0  0  0  0
  7  9  1  0  0  0  0
  8 17  1  1  0  0  0
  8 10  1  0  0  0  0
 11 16  1  0  0  0  0
 12  1  1  0  0  0  0
 13  7  2  0  0  0  0
 14  6  1  0  0  0  0
 14 11  2  0  0  0  0
 15  1  1  1  0  0  0
 15 21  1  0  0  0  0
 15 20  1  0  0  0  0
 16  3  1  0  0  0  0
 18 14  1  0  0  0  0
 19 10  1  0  0  0  0
 20 19  1  0  0  0  0
 21 17  1  1  0  0  0
 21  8  1  0  0  0  0
 22 25  1  0  0  0  0
 23 24  1  1  0  0  0
 23 27  1  0  0  0  0
 23 12  1  0  0  0  0
 25 24  1  6  0  0  0
 25 26  1  0  0  0  0
 26 22  1  6  0  0  0
 27 26  1  0  0  0  0
M  END
>  <MODEL>
2

>  <REMARK>
 VINA RESULT:      -7.2      3.184      5.811
  Name = 
  1 active torsions:
  status: ('A' for Active; 'I' for Inactive)
    1  A    between atoms: C_9  and  N_15
                            x       y       z     vdW  Elec       q    Type
                         _______ _______ _______ _____ _____    ______ ____

>  <TORSDO>
F 1

$$$$
