=
 OpenBabel11062409353D

 34 39  0  0  1  0  0  0  0  0999 V2000
  159.7660  213.3080  143.3760 C   0  0  1  0  0  3  0  0  0  0  0  0
  160.8690  214.3060  143.1840 C   0  0  1  0  0  3  0  0  0  0  0  0
  160.4510  213.5360  146.1830 C   0  0  2  0  0  0  0  0  0  0  0  0
  159.2670  214.3880  145.5980 C   0  0  0  0  0  2  0  0  0  0  0  0
  158.6310  213.8950  144.2630 C   0  0  0  0  0  2  0  0  0  0  0  0
  161.5360  213.2680  145.2920 O   0  0  0  0  0  0  0  0  0  0  0  0
  161.7680  214.3730  144.4440 C   0  0  0  0  0  2  0  0  0  0  0  0
  159.8900  212.1930  146.6040 C   0  0  0  0  0  1  0  0  0  0  0  0
  161.6210  213.8890  142.0730 O   0  0  0  0  0  0  0  0  0  0  0  0
  159.4260  212.9450  141.9630 C   0  0  0  0  0  2  0  0  0  0  0  0
  160.8340  212.9830  141.3140 C   0  0  1  0  0  0  0  0  0  0  0  0
  159.4640  214.3100  139.5630 C   0  0  0  0  0  2  0  0  0  0  0  0
  161.8880  211.4620  138.5550 C   0  0  0  0  0  2  0  0  0  0  0  0
  164.2770  212.2000  138.5330 C   0  0  0  0  0  3  0  0  0  0  0  0
  159.3320  211.4180  138.9190 C   0  0  0  0  0  2  0  0  0  0  0  0
  156.9780  214.4410  139.6740 C   0  0  0  0  0  2  0  0  0  0  0  0
  155.6070  212.3710  139.3200 C   0  0  0  0  0  3  0  0  0  0  0  0
  164.1090  214.4530  138.2810 N   0  0  0  0  0  0  0  0  0  0  0  0
  155.6740  213.6990  139.5360 C   0  0  0  0  0  3  0  0  0  0  0  0
  158.0760  212.3050  138.8530 C   0  0  2  0  0  3  0  0  0  0  0  0
  158.1870  213.5140  139.8050 C   0  0  1  0  0  3  0  0  0  0  0  0
  156.8390  211.5050  139.2720 C   0  0  0  0  0  2  0  0  0  0  0  0
  162.9970  212.4410  138.3210 C   0  0  0  0  0  0  0  0  0  0  0  0
  164.9460  213.4890  138.4700 C   0  0  0  0  0  3  0  0  0  0  0  0
  161.9350  214.3670  139.4330 C   0  0  0  0  0  2  0  0  0  0  0  0
  162.7570  213.9050  138.2120 C   0  0  1  0  0  3  0  0  0  0  0  0
  160.5930  212.2690  138.7690 C   0  0  1  0  0  3  0  0  0  0  0  0
  160.7200  213.4520  139.7910 C   0  0  1  0  0  0  0  0  0  0  0  0
  160.6690  210.5780  141.5450 O   0  0  0  0  0  1  0  0  0  0  0  0
  162.8080  211.3780  141.4610 O   0  0  0  0  0  0  0  0  0  0  0  0
  161.4400  211.5860  141.4300 C   0  0  0  0  0  0  0  0  0  0  0  0
  161.0420  214.1900  147.4250 C   0  0  0  0  0  0  0  0  0  0  0  0
  160.2410  214.3160  148.5590 O   0  0  0  0  0  1  0  0  0  0  0  0
  162.3010  214.1660  147.5650 O   0  0  0  0  0  0  0  0  0  0  0  0
  1 10  1  6  0  0  0
  1  5  1  0  0  0  0
  2  1  1  0  0  0  0
  2  7  1  1  0  0  0
  3  8  1  1  0  0  0
  3 32  1  0  0  0  0
  4  3  1  0  0  0  0
  5  4  1  0  0  0  0
  6  3  1  0  0  0  0
  7  6  1  0  0  0  0
  9  2  1  0  0  0  0
 11 31  1  1  0  0  0
 11 10  1  0  0  0  0
 11  9  1  0  0  0  0
 12 28  1  0  0  0  0
 16 21  1  0  0  0  0
 17 19  2  0  0  0  0
 18 24  2  0  0  0  0
 19 16  1  0  0  0  0
 20 15  1  1  0  0  0
 20 22  1  0  0  0  0
 20 21  1  0  0  0  0
 21 12  1  6  0  0  0
 22 17  1  0  0  0  0
 23 14  2  0  0  0  0
 23 13  1  0  0  0  0
 24 14  1  0  0  0  0
 26 18  1  0  0  0  0
 26 23  1  0  0  0  0
 26 25  1  1  0  0  0
 27 13  1  1  0  0  0
 27 15  1  0  0  0  0
 27 28  1  0  0  0  0
 28 25  1  6  0  0  0
 28 11  1  0  0  0  0
 31 30  2  0  0  0  0
 31 29  1  0  0  0  0
 32 34  2  0  0  0  0
 32 33  1  0  0  0  0
M  END
>  <MODEL>
1

>  <REMARK>
 VINA RESULT:      -4.5      0.000      0.000
  Name = 
  3 active torsions:
  status: ('A' for Active; 'I' for Inactive)
    1  A    between atoms: C_7  and  C_11
    2  A    between atoms: C_18  and  C_33
    3  A    between atoms: C_33  and  C_34
                            x       y       z     vdW  Elec       q    Type
                         _______ _______ _______ _____ _____    ______ ____

>  <TORSDO>
F 3

$$$$
=
 OpenBabel11062409353D

 34 39  0  0  1  0  0  0  0  0999 V2000
  159.9110  212.6880  142.0910 C   0  0  1  0  0  3  0  0  0  0  0  0
  161.2470  213.3550  141.9660 C   0  0  1  0  0  3  0  0  0  0  0  0
  160.3960  212.9180  144.9400 C   0  0  2  0  0  0  0  0  0  0  0  0
  159.5280  214.0030  144.2070 C   0  0  0  0  0  2  0  0  0  0  0  0
  158.8980  213.6020  142.8390 C   0  0  0  0  0  2  0  0  0  0  0  0
  161.4430  212.3230  144.1700 O   0  0  0  0  0  0  0  0  0  0  0  0
  162.0250  213.2730  143.3040 C   0  0  0  0  0  2  0  0  0  0  0  0
  159.4710  211.7940  145.3610 C   0  0  0  0  0  1  0  0  0  0  0  0
  161.9540  212.6870  140.9520 O   0  0  0  0  0  0  0  0  0  0  0  0
  159.6070  212.3310  140.6690 C   0  0  0  0  0  2  0  0  0  0  0  0
  161.0240  211.9640  140.1590 C   0  0  1  0  0  0  0  0  0  0  0  0
  159.8000  212.7050  138.0020 C   0  0  0  0  0  2  0  0  0  0  0  0
  163.2130  210.8760  137.9090 C   0  0  0  0  0  2  0  0  0  0  0  0
  165.1320  212.4050  138.3890 C   0  0  0  0  0  3  0  0  0  0  0  0
  160.8190  209.9430  137.6470 C   0  0  0  0  0  2  0  0  0  0  0  0
  157.4770  211.9580  137.4950 C   0  0  0  0  0  2  0  0  0  0  0  0
  157.0240  209.5340  137.0350 C   0  0  0  0  0  3  0  0  0  0  0  0
  164.2910  214.4520  137.8730 N   0  0  0  0  0  0  0  0  0  0  0  0
  156.5820  210.8030  137.1230 C   0  0  0  0  0  3  0  0  0  0  0  0
  159.4030  210.3320  137.1880 C   0  0  2  0  0  3  0  0  0  0  0  0
  158.8480  211.5150  138.0080 C   0  0  1  0  0  3  0  0  0  0  0  0
  158.4420  209.1550  137.3760 C   0  0  0  0  0  2  0  0  0  0  0  0
  163.9490  212.1790  137.8500 C   0  0  0  0  0  0  0  0  0  0  0  0
  165.3220  213.8450  138.3570 C   0  0  0  0  0  3  0  0  0  0  0  0
  162.0510  213.6230  138.4680 C   0  0  0  0  0  2  0  0  0  0  0  0
  163.2700  213.4640  137.5360 C   0  0  1  0  0  3  0  0  0  0  0  0
  161.7150  211.1800  137.7190 C   0  0  1  0  0  3  0  0  0  0  0  0
  161.1640  212.3450  138.6140 C   0  0  1  0  0  0  0  0  0  0  0  0
  162.4090  210.0330  140.6230 O   0  0  0  0  0  1  0  0  0  0  0  0
  160.1940  209.5600  140.3170 O   0  0  0  0  0  0  0  0  0  0  0  0
  161.2340  210.4690  140.3930 C   0  0  0  0  0  0  0  0  0  0  0  0
  161.0310  213.4790  146.2050 C   0  0  0  0  0  0  0  0  0  0  0  0
  162.3980  213.2950  146.4040 O   0  0  0  0  0  0  0  0  0  0  0  0
  160.4550  214.4530  146.7760 O   0  0  0  0  0  1  0  0  0  0  0  0
  1 10  1  6  0  0  0
  1  5  1  0  0  0  0
  2  1  1  0  0  0  0
  2  7  1  1  0  0  0
  3  8  1  1  0  0  0
  3 32  1  0  0  0  0
  4  3  1  0  0  0  0
  5  4  1  0  0  0  0
  6  3  1  0  0  0  0
  7  6  1  0  0  0  0
  9  2  1  0  0  0  0
 11 31  1  1  0  0  0
 11 10  1  0  0  0  0
 11  9  1  0  0  0  0
 12 21  1  0  0  0  0
 17 19  2  0  0  0  0
 17 22  1  0  0  0  0
 18 24  2  0  0  0  0
 19 16  1  0  0  0  0
 20 22  1  1  0  0  0
 20 15  1  0  0  0  0
 20 21  1  0  0  0  0
 21 16  1  6  0  0  0
 23 13  1  0  0  0  0
 23 14  2  0  0  0  0
 24 14  1  0  0  0  0
 25 28  1  0  0  0  0
 26 23  1  0  0  0  0
 26 18  1  0  0  0  0
 26 25  1  1  0  0  0
 27 15  1  1  0  0  0
 27 13  1  0  0  0  0
 27 28  1  0  0  0  0
 28 12  1  6  0  0  0
 28 11  1  0  0  0  0
 30 31  2  0  0  0  0
 31 29  1  0  0  0  0
 32 33  2  0  0  0  0
 32 34  1  0  0  0  0
M  END
>  <MODEL>
2

>  <REMARK>
 VINA RESULT:      -3.2      1.577      2.124
  Name = 
  3 active torsions:
  status: ('A' for Active; 'I' for Inactive)
    1  A    between atoms: C_7  and  C_11
    2  A    between atoms: C_18  and  C_33
    3  A    between atoms: C_33  and  C_34
                            x       y       z     vdW  Elec       q    Type
                         _______ _______ _______ _____ _____    ______ ____

>  <TORSDO>
F 3

$$$$
