=
 OpenBabel11062408523D

 55 60  0  0  1  0  0  0  0  0999 V2000
  163.0720  205.6380  147.5760 C   0  0  0  0  0  3  0  0  0  0  0  0
  161.8150  205.6240  145.0760 C   0  0  0  0  0  0  0  0  0  0  0  0
  161.4590  206.5780  146.0340 C   0  0  0  0  0  3  0  0  0  0  0  0
  163.4230  204.6780  146.6210 C   0  0  0  0  0  3  0  0  0  0  0  0
  162.0840  206.5850  147.2850 C   0  0  0  0  0  0  0  0  0  0  0  0
  162.7920  204.6690  145.3720 C   0  0  0  0  0  3  0  0  0  0  0  0
  161.7200  207.6190  148.2910 C   0  0  0  0  0  2  0  0  0  0  0  0
  162.7730  207.6720  149.3850 C   0  0  0  0  0  2  0  0  0  0  0  0
  161.0910  210.7400  153.4320 S   0  0  0  0  0  0  0  0  0  0  0  0
  162.0110  209.8500  155.8470 C   0  0  0  0  0  1  0  0  0  0  0  0
  160.9350  208.1220  153.2910 C   0  0  0  0  0  0  0  0  0  0  0  0
  160.3870  208.4040  154.6400 C   0  0  0  0  0  2  0  0  0  0  0  0
  160.7630  209.8400  154.9850 C   0  0  2  0  0  3  0  0  0  0  0  0
  161.3260  209.1780  152.5980 C   0  0  0  0  0  0  0  0  0  0  0  0
  161.6000  206.6580  151.4080 N   0  0  0  0  0  0  0  0  0  0  0  0
  161.0990  206.7180  152.7910 C   0  0  0  0  0  2  0  0  0  0  0  0
  161.9820  209.0480  151.2810 C   0  0  0  0  0  0  0  0  0  0  0  0
  162.1170  207.8250  150.7280 C   0  0  0  0  0  0  0  0  0  0  0  0
  160.0710  201.4840  150.0580 C   0  0  0  0  0  0  0  0  0  0  0  0
  161.7950  204.2280  151.7750 C   0  0  0  0  0  2  0  0  0  0  0  0
  158.9750  201.2840  149.0660 C   0  0  0  0  0  1  0  0  0  0  0  0
  160.7840  202.7270  150.1300 N   0  0  0  0  0  0  0  0  0  0  0  0
  160.4440  205.1350  149.8520 C   0  0  0  0  0  2  0  0  0  0  0  0
  160.5500  203.7850  149.1470 C   0  0  0  0  0  2  0  0  0  0  0  0
  160.3560  200.5430  150.8450 O   0  0  0  0  0  0  0  0  0  0  0  0
  161.8990  202.8830  151.0620 C   0  0  0  0  0  2  0  0  0  0  0  0
  161.6630  205.3540  150.7490 C   0  0  0  0  0  3  0  0  0  0  0  0
  162.4780  210.2830  150.5820 C   0  0  0  0  0  2  0  0  0  0  0  0
  161.7730  211.0820  148.3590 N   0  0  0  0  0  1  0  0  0  0  0  0
  161.3660  210.9270  149.7500 C   0  0  2  0  0  3  0  0  0  0  0  0
  160.8860  212.1360  150.3030 O   0  0  0  0  0  0  0  0  0  0  0  0
  160.7750  213.0960  149.2820 C   0  0  0  0  0  1  0  0  0  0  0  0
  161.1350  205.6160  143.7500 C   0  0  0  0  0  2  0  0  0  0  0  0
  162.0810  205.6990  142.7240 O   0  0  0  0  0  0  0  0  0  0  0  0
  161.5060  206.5390  141.7650 C   0  0  0  0  0  2  0  0  0  0  0  0
  162.2600  206.4350  140.4500 C   0  0  0  0  0  2  0  0  0  0  0  0
  161.7590  207.4770  139.4670 C   0  0  0  0  0  2  0  0  0  0  0  0
  162.2220  208.8530  139.9190 C   0  0  0  0  0  2  0  0  0  0  0  0
  159.8790  212.3540  138.6520 C   0  0  2  0  0  0  0  0  0  0  0  0
  161.3600  213.0480  141.4650 C   0  0  0  0  0  2  0  0  0  0  0  0
  162.0770  211.4160  139.5800 C   0  0  2  0  0  0  0  0  0  0  0  0
  162.2210  209.8350  137.7440 O   0  0  0  0  0  1  0  0  0  0  0  0
  160.7720  210.7230  141.5720 F   0  0  0  0  0  0  0  0  0  0  0  0
  161.7220  211.6080  141.0850 C   0  0  2  0  0  3  0  0  0  0  0  0
  161.7030  209.9970  139.0350 C   0  0  1  0  0  0  0  0  0  0  0  0
  159.5190  210.9540  138.1390 C   0  0  0  0  0  2  0  0  0  0  0  0
  159.2370  212.6460  139.9990 C   0  0  0  0  0  0  0  0  0  0  0  0
  159.3550  213.3630  137.6490 C   0  0  0  0  0  1  0  0  0  0  0  0
  159.9410  213.4920  141.0560 C   0  0  1  0  0  3  0  0  0  0  0  0
  160.1770  209.8440  138.9640 C   0  0  0  0  0  2  0  0  0  0  0  0
  163.4550  211.6050  139.4530 O   0  0  0  0  0  1  0  0  0  0  0  0
  158.0960  212.2540  140.2040 O   0  0  0  0  0  0  0  0  0  0  0  0
  161.4040  212.4850  138.6930 C   0  0  0  0  0  2  0  0  0  0  0  0
  159.0860  213.7720  142.2910 C   0  0  0  0  0  2  0  0  0  0  0  0
  159.2110  212.7400  143.2250 O   0  0  0  0  0  1  0  0  0  0  0  0
  2  6  2  0  0  0  0
  2  3  1  0  0  0  0
  3  5  2  0  0  0  0
  4  1  2  0  0  0  0
  5  1  1  0  0  0  0
  5  7  1  0  0  0  0
  6  4  1  0  0  0  0
  7  8  1  0  0  0  0
  8 18  1  0  0  0  0
  9 13  1  0  0  0  0
 11 12  1  0  0  0  0
 12 13  1  0  0  0  0
 13 10  1  1  0  0  0
 14 11  2  0  0  0  0
 14  9  1  0  0  0  0
 15 16  1  0  0  0  0
 16 11  1  0  0  0  0
 17 14  1  0  0  0  0
 18 17  2  0  0  0  0
 18 15  1  0  0  0  0
 19 22  1  0  0  0  0
 19 25  2  0  0  0  0
 21 19  1  0  0  0  0
 22 26  1  0  0  0  0
 23 27  1  0  0  0  0
 24 23  1  0  0  0  0
 24 22  1  0  0  0  0
 26 20  1  0  0  0  0
 27 15  1  0  0  0  0
 27 20  1  0  0  0  0
 28 17  1  0  0  0  0
 30 29  1  6  0  0  0
 30 31  1  0  0  0  0
 30 28  1  0  0  0  0
 32 31  1  0  0  0  0
 33  2  1  0  0  0  0
 34 33  1  0  0  0  0
 35 34  1  0  0  0  0
 36 35  1  0  0  0  0
 37 38  1  0  0  0  0
 37 36  1  0  0  0  0
 39 48  1  6  0  0  0
 39 53  1  0  0  0  0
 39 47  1  0  0  0  0
 41 51  1  6  0  0  0
 41 44  1  0  0  0  0
 44 40  1  0  0  0  0
 44 43  1  6  0  0  0
 45 42  1  6  0  0  0
 45 41  1  0  0  0  0
 45 38  1  0  0  0  0
 46 39  1  0  0  0  0
 46 50  1  0  0  0  0
 47 52  2  0  0  0  0
 47 49  1  0  0  0  0
 49 40  1  0  0  0  0
 49 54  1  1  0  0  0
 50 45  1  0  0  0  0
 53 41  1  0  0  0  0
 54 55  1  0  0  0  0
M  END
>  <MODEL>
1

>  <REMARK>
 VINA RESULT:      -6.0      0.000      0.000
  Name = 
  15 active torsions:
  status: ('A' for Active; 'I' for Inactive)
    1  A    between atoms: C_2  and  C_28
    2  A    between atoms: C_2  and  C_44
    3  A    between atoms: O_4  and  C_40
    4  A    between atoms: C_8  and  C_22
    5  A    between atoms: C_8  and  C_43
    6  A    between atoms: C_11  and  C_38
    7  A    between atoms: C_19  and  C_40
    8  A    between atoms: C_19  and  C_45
    9  A    between atoms: C_20  and  C_22
   10  A    between atoms: C_27  and  C_54
   11  A    between atoms: C_28  and  C_49
   12  A    between atoms: N_33  and  C_52
   13  A    between atoms: C_35  and  C_43
   14  A    between atoms: C_35  and  O_51
   15  A    between atoms: O_51  and  C_54
                            x       y       z     vdW  Elec       q    Type
                         _______ _______ _______ _____ _____    ______ ____

>  <TORSDO>
F 15

$$$$
=
 OpenBabel11062408523D

 55 60  0  0  1  0  0  0  0  0999 V2000
  162.5750  211.8440  148.6970 C   0  0  0  0  0  3  0  0  0  0  0  0
  160.7470  213.3970  147.2550 C   0  0  0  0  0  0  0  0  0  0  0  0
  160.3450  212.7490  148.4270 C   0  0  0  0  0  3  0  0  0  0  0  0
  162.9750  212.4840  147.5190 C   0  0  0  0  0  3  0  0  0  0  0  0
  161.2570  211.9710  149.1480 C   0  0  0  0  0  0  0  0  0  0  0  0
  162.0610  213.2590  146.7970 C   0  0  0  0  0  3  0  0  0  0  0  0
  160.8310  211.3060  150.4100 C   0  0  0  0  0  2  0  0  0  0  0  0
  161.9510  210.4250  150.9350 C   0  0  0  0  0  2  0  0  0  0  0  0
  160.3930  209.2370  155.9130 S   0  0  0  0  0  0  0  0  0  0  0  0
  161.6060  206.9770  156.8580 C   0  0  0  0  0  1  0  0  0  0  0  0
  160.4520  207.5940  153.8640 C   0  0  0  0  0  0  0  0  0  0  0  0
  160.0090  206.7110  154.9700 C   0  0  0  0  0  2  0  0  0  0  0  0
  160.2890  207.4510  156.2740 C   0  0  2  0  0  3  0  0  0  0  0  0
  160.6830  208.8530  154.1930 C   0  0  0  0  0  0  0  0  0  0  0  0
  161.0630  208.1080  151.5200 N   0  0  0  0  0  0  0  0  0  0  0  0
  160.6900  207.0600  152.4840 C   0  0  0  0  0  2  0  0  0  0  0  0
  161.2230  209.8270  153.2220 C   0  0  0  0  0  0  0  0  0  0  0  0
  161.4110  209.4480  151.9410 C   0  0  0  0  0  0  0  0  0  0  0  0
  162.3440  205.0100  147.0830 C   0  0  0  0  0  0  0  0  0  0  0  0
  162.6410  207.5510  149.7110 C   0  0  0  0  0  2  0  0  0  0  0  0
  161.4510  203.8770  146.7040 C   0  0  0  0  0  1  0  0  0  0  0  0
  161.8700  206.0760  147.9190 N   0  0  0  0  0  0  0  0  0  0  0  0
  160.3580  206.4910  149.7980 C   0  0  0  0  0  2  0  0  0  0  0  0
  160.4640  206.1520  148.3140 C   0  0  0  0  0  2  0  0  0  0  0  0
  163.5320  205.0130  146.6660 O   0  0  0  0  0  0  0  0  0  0  0  0
  162.7380  207.2110  148.2270 C   0  0  0  0  0  2  0  0  0  0  0  0
  161.1780  207.7450  150.1090 C   0  0  0  0  0  3  0  0  0  0  0  0
  161.5430  211.2230  153.6810 C   0  0  0  0  0  2  0  0  0  0  0  0
  160.0920  212.4770  155.2300 N   0  0  0  0  0  1  0  0  0  0  0  0
  160.2670  212.0520  153.8470 C   0  0  2  0  0  3  0  0  0  0  0  0
  159.1150  211.4080  153.3370 O   0  0  0  0  0  0  0  0  0  0  0  0
  158.0720  211.5280  154.2710 C   0  0  0  0  0  1  0  0  0  0  0  0
  159.7660  214.2140  146.4870 C   0  0  0  0  0  2  0  0  0  0  0  0
  158.8960  213.3790  145.7790 O   0  0  0  0  0  0  0  0  0  0  0  0
  159.2510  213.5380  144.4350 C   0  0  0  0  0  2  0  0  0  0  0  0
  159.8260  212.2450  143.8830 C   0  0  0  0  0  2  0  0  0  0  0  0
  161.1860  212.4930  143.2580 C   0  0  0  0  0  2  0  0  0  0  0  0
  161.0220  213.4030  142.0500 C   0  0  0  0  0  2  0  0  0  0  0  0
  161.6700  210.8470  138.5280 C   0  0  2  0  0  0  0  0  0  0  0  0
  158.6450  212.0410  138.4130 C   0  0  0  0  0  2  0  0  0  0  0  0
  160.7770  213.0460  139.4980 C   0  0  2  0  0  0  0  0  0  0  0  0
  162.9040  213.4740  140.5850 O   0  0  0  0  0  1  0  0  0  0  0  0
  159.1300  211.6660  140.7340 F   0  0  0  0  0  0  0  0  0  0  0  0
  159.3080  212.5630  139.6920 C   0  0  2  0  0  3  0  0  0  0  0  0
  161.6650  212.8470  140.7710 C   0  0  1  0  0  0  0  0  0  0  0  0
  162.5210  210.6580  139.7900 C   0  0  0  0  0  2  0  0  0  0  0  0
  160.3580  210.0810  138.6100 C   0  0  0  0  0  0  0  0  0  0  0  0
  162.4600  210.3090  137.3520 C   0  0  0  0  0  1  0  0  0  0  0  0
  159.0740  210.6220  137.9890 C   0  0  1  0  0  3  0  0  0  0  0  0
  161.9140  211.3520  141.0130 C   0  0  0  0  0  2  0  0  0  0  0  0
  160.7260  214.4060  139.1840 O   0  0  0  0  0  1  0  0  0  0  0  0
  160.3580  208.9690  139.1210 O   0  0  0  0  0  0  0  0  0  0  0  0
  161.4550  212.3460  138.3010 C   0  0  0  0  0  2  0  0  0  0  0  0
  157.8940  209.6550  138.0720 C   0  0  0  0  0  2  0  0  0  0  0  0
  156.7140  210.2760  137.6570 O   0  0  0  0  0  1  0  0  0  0  0  0
  1  5  1  0  0  0  0
  2  3  1  0  0  0  0
  3  5  2  0  0  0  0
  4  1  2  0  0  0  0
  5  7  1  0  0  0  0
  6  2  2  0  0  0  0
  6  4  1  0  0  0  0
  7  8  1  0  0  0  0
  8 18  1  0  0  0  0
  9 13  1  0  0  0  0
 11 14  2  0  0  0  0
 11 12  1  0  0  0  0
 12 13  1  0  0  0  0
 13 10  1  6  0  0  0
 14  9  1  0  0  0  0
 15 18  1  0  0  0  0
 15 16  1  0  0  0  0
 16 11  1  0  0  0  0
 17 28  1  0  0  0  0
 17 14  1  0  0  0  0
 18 17  2  0  0  0  0
 19 22  1  0  0  0  0
 20 27  1  0  0  0  0
 21 19  1  0  0  0  0
 22 26  1  0  0  0  0
 22 24  1  0  0  0  0
 23 27  1  0  0  0  0
 24 23  1  0  0  0  0
 25 19  2  0  0  0  0
 26 20  1  0  0  0  0
 27 15  1  0  0  0  0
 28 30  1  0  0  0  0
 30 29  1  1  0  0  0
 31 30  1  0  0  0  0
 31 32  1  0  0  0  0
 33  2  1  0  0  0  0
 34 33  1  0  0  0  0
 35 34  1  0  0  0  0
 36 35  1  0  0  0  0
 37 36  1  0  0  0  0
 38 37  1  0  0  0  0
 39 48  1  6  0  0  0
 39 47  1  0  0  0  0
 39 46  1  0  0  0  0
 40 44  1  0  0  0  0
 41 51  1  6  0  0  0
 41 44  1  0  0  0  0
 41 45  1  0  0  0  0
 44 43  1  1  0  0  0
 45 42  1  6  0  0  0
 45 50  1  0  0  0  0
 45 38  1  0  0  0  0
 46 50  1  0  0  0  0
 47 52  2  0  0  0  0
 49 54  1  1  0  0  0
 49 40  1  0  0  0  0
 49 47  1  0  0  0  0
 53 39  1  0  0  0  0
 53 41  1  0  0  0  0
 55 54  1  0  0  0  0
M  END
>  <MODEL>
2

>  <REMARK>
 VINA RESULT:      -6.0      2.515      4.844
  Name = 
  15 active torsions:
  status: ('A' for Active; 'I' for Inactive)
    1  A    between atoms: C_2  and  C_28
    2  A    between atoms: C_2  and  C_44
    3  A    between atoms: O_4  and  C_40
    4  A    between atoms: C_8  and  C_22
    5  A    between atoms: C_8  and  C_43
    6  A    between atoms: C_11  and  C_38
    7  A    between atoms: C_19  and  C_40
    8  A    between atoms: C_19  and  C_45
    9  A    between atoms: C_20  and  C_22
   10  A    between atoms: C_27  and  C_54
   11  A    between atoms: C_28  and  C_49
   12  A    between atoms: N_33  and  C_52
   13  A    between atoms: C_35  and  C_43
   14  A    between atoms: C_35  and  O_51
   15  A    between atoms: O_51  and  C_54
                            x       y       z     vdW  Elec       q    Type
                         _______ _______ _______ _____ _____    ______ ____

>  <TORSDO>
F 15

$$$$
=
 OpenBabel11062408523D

 55 60  0  0  1  0  0  0  0  0999 V2000
  162.8290  212.1160  148.3590 C   0  0  0  0  0  3  0  0  0  0  0  0
  160.9780  213.3210  146.6400 C   0  0  0  0  0  0  0  0  0  0  0  0
  160.6180  212.1860  147.3730 C   0  0  0  0  0  3  0  0  0  0  0  0
  163.1930  213.2460  147.6190 C   0  0  0  0  0  3  0  0  0  0  0  0
  161.5430  211.5810  148.2310 C   0  0  0  0  0  0  0  0  0  0  0  0
  162.2690  213.8470  146.7570 C   0  0  0  0  0  3  0  0  0  0  0  0
  161.1450  210.3900  149.0300 C   0  0  0  0  0  2  0  0  0  0  0  0
  162.3670  209.7790  149.6930 C   0  0  0  0  0  2  0  0  0  0  0  0
  161.9290  204.4480  149.5970 S   0  0  0  0  0  0  0  0  0  0  0  0
  159.4410  203.6070  150.3540 C   0  0  0  0  0  1  0  0  0  0  0  0
  161.2560  206.0320  151.5810 C   0  0  0  0  0  0  0  0  0  0  0  0
  160.8550  204.6960  152.0860 C   0  0  0  0  0  2  0  0  0  0  0  0
  160.8520  203.7480  150.8920 C   0  0  2  0  0  3  0  0  0  0  0  0
  161.7860  206.0510  150.3700 C   0  0  0  0  0  0  0  0  0  0  0  0
  161.5280  208.4890  151.7250 N   0  0  0  0  0  0  0  0  0  0  0  0
  160.9990  207.2780  152.3740 C   0  0  0  0  0  2  0  0  0  0  0  0
  162.1430  207.3160  149.6950 C   0  0  0  0  0  0  0  0  0  0  0  0
  162.0010  208.4820  150.3580 C   0  0  0  0  0  0  0  0  0  0  0  0
  160.0020  212.0900  155.6790 C   0  0  0  0  0  0  0  0  0  0  0  0
  160.0590  210.3240  152.4640 C   0  0  0  0  0  2  0  0  0  0  0  0
  160.6270  211.9950  157.0300 C   0  0  0  0  0  1  0  0  0  0  0  0
  160.6310  211.5000  154.5320 N   0  0  0  0  0  0  0  0  0  0  0  0
  161.9940  209.5710  153.8900 C   0  0  0  0  0  2  0  0  0  0  0  0
  161.9650  210.9070  154.6280 C   0  0  0  0  0  2  0  0  0  0  0  0
  158.9000  212.6880  155.5600 O   0  0  0  0  0  0  0  0  0  0  0  0
  160.0390  211.6590  153.2050 C   0  0  0  0  0  2  0  0  0  0  0  0
  161.4760  209.7500  152.4620 C   0  0  0  0  0  3  0  0  0  0  0  0
  162.6660  207.2740  148.2860 C   0  0  0  0  0  2  0  0  0  0  0  0
  162.6810  205.5560  146.5180 N   0  0  0  0  0  1  0  0  0  0  0  0
  161.8330  206.3260  147.4200 C   0  0  2  0  0  3  0  0  0  0  0  0
  160.7810  206.9770  146.7350 O   0  0  0  0  0  0  0  0  0  0  0  0
  160.4220  206.2130  145.6120 C   0  0  0  0  0  1  0  0  0  0  0  0
  159.9920  213.9510  145.7190 C   0  0  0  0  0  2  0  0  0  0  0  0
  159.3530  212.9710  144.9540 O   0  0  0  0  0  0  0  0  0  0  0  0
  159.7700  213.2040  143.6400 C   0  0  0  0  0  2  0  0  0  0  0  0
  160.4120  211.9560  143.0580 C   0  0  0  0  0  2  0  0  0  0  0  0
  161.7710  212.2830  142.4690 C   0  0  0  0  0  2  0  0  0  0  0  0
  161.5870  212.8270  141.0610 C   0  0  0  0  0  2  0  0  0  0  0  0
  161.3950  209.6840  137.9890 C   0  0  2  0  0  0  0  0  0  0  0  0
  159.1810  211.9640  137.2930 C   0  0  0  0  0  2  0  0  0  0  0  0
  161.4350  212.1830  138.5570 C   0  0  2  0  0  0  0  0  0  0  0  0
  163.4420  211.8860  139.8910 O   0  0  0  0  0  1  0  0  0  0  0  0
  159.2600  211.8140  139.6870 F   0  0  0  0  0  0  0  0  0  0  0  0
  159.8900  212.3770  138.5880 C   0  0  2  0  0  3  0  0  0  0  0  0
  162.0430  211.8550  139.9620 C   0  0  1  0  0  0  0  0  0  0  0  0
  161.9750  209.3780  139.3760 C   0  0  0  0  0  2  0  0  0  0  0  0
  159.8810  209.5400  137.9630 C   0  0  0  0  0  0  0  0  0  0  0  0
  161.9820  208.6850  137.0110 C   0  0  0  0  0  1  0  0  0  0  0  0
  159.0050  210.4450  137.1020 C   0  0  1  0  0  3  0  0  0  0  0  0
  161.6140  210.4500  140.4080 C   0  0  0  0  0  2  0  0  0  0  0  0
  161.9920  213.3750  138.0860 O   0  0  0  0  0  1  0  0  0  0  0  0
  159.3660  208.6260  138.5920 O   0  0  0  0  0  0  0  0  0  0  0  0
  161.8540  211.0800  137.5620 C   0  0  0  0  0  2  0  0  0  0  0  0
  157.5240  210.0670  137.1200 C   0  0  0  0  0  2  0  0  0  0  0  0
  156.8550  210.7320  138.1500 O   0  0  0  0  0  1  0  0  0  0  0  0
  2  6  2  0  0  0  0
  2  3  1  0  0  0  0
  3  5  2  0  0  0  0
  4  1  2  0  0  0  0
  5  1  1  0  0  0  0
  5  7  1  0  0  0  0
  6  4  1  0  0  0  0
  7  8  1  0  0  0  0
  8 18  1  0  0  0  0
  9 14  1  0  0  0  0
  9 13  1  0  0  0  0
 11 12  1  0  0  0  0
 11 16  1  0  0  0  0
 13 10  1  6  0  0  0
 13 12  1  0  0  0  0
 14 11  2  0  0  0  0
 15 16  1  0  0  0  0
 15 27  1  0  0  0  0
 17 18  2  0  0  0  0
 17 14  1  0  0  0  0
 18 15  1  0  0  0  0
 19 21  1  0  0  0  0
 20 26  1  0  0  0  0
 22 24  1  0  0  0  0
 22 19  1  0  0  0  0
 23 24  1  0  0  0  0
 25 19  2  0  0  0  0
 26 22  1  0  0  0  0
 27 20  1  0  0  0  0
 27 23  1  0  0  0  0
 28 17  1  0  0  0  0
 30 29  1  6  0  0  0
 30 28  1  0  0  0  0
 31 30  1  0  0  0  0
 32 31  1  0  0  0  0
 33  2  1  0  0  0  0
 34 33  1  0  0  0  0
 35 34  1  0  0  0  0
 36 35  1  0  0  0  0
 37 36  1  0  0  0  0
 38 37  1  0  0  0  0
 39 48  1  6  0  0  0
 39 46  1  0  0  0  0
 40 44  1  0  0  0  0
 41 51  1  6  0  0  0
 41 44  1  0  0  0  0
 41 45  1  0  0  0  0
 44 43  1  1  0  0  0
 45 42  1  6  0  0  0
 45 50  1  0  0  0  0
 45 38  1  0  0  0  0
 46 50  1  0  0  0  0
 47 39  1  0  0  0  0
 47 52  2  0  0  0  0
 49 54  1  1  0  0  0
 49 40  1  0  0  0  0
 49 47  1  0  0  0  0
 53 39  1  0  0  0  0
 53 41  1  0  0  0  0
 54 55  1  0  0  0  0
M  END
>  <MODEL>
3

>  <REMARK>
 VINA RESULT:      -5.4      2.526      6.258
  Name = 
  15 active torsions:
  status: ('A' for Active; 'I' for Inactive)
    1  A    between atoms: C_2  and  C_28
    2  A    between atoms: C_2  and  C_44
    3  A    between atoms: O_4  and  C_40
    4  A    between atoms: C_8  and  C_22
    5  A    between atoms: C_8  and  C_43
    6  A    between atoms: C_11  and  C_38
    7  A    between atoms: C_19  and  C_40
    8  A    between atoms: C_19  and  C_45
    9  A    between atoms: C_20  and  C_22
   10  A    between atoms: C_27  and  C_54
   11  A    between atoms: C_28  and  C_49
   12  A    between atoms: N_33  and  C_52
   13  A    between atoms: C_35  and  C_43
   14  A    between atoms: C_35  and  O_51
   15  A    between atoms: O_51  and  C_54
                            x       y       z     vdW  Elec       q    Type
                         _______ _______ _______ _____ _____    ______ ____

>  <TORSDO>
F 15

$$$$
=
 OpenBabel11062408523D

 55 60  0  0  1  0  0  0  0  0999 V2000
  160.6390  207.8310  154.1190 C   0  0  0  0  0  3  0  0  0  0  0  0
  161.4350  205.7830  152.3880 C   0  0  0  0  0  0  0  0  0  0  0  0
  161.2310  207.0760  151.8960 C   0  0  0  0  0  3  0  0  0  0  0  0
  160.8340  206.5360  154.6100 C   0  0  0  0  0  3  0  0  0  0  0  0
  160.8310  208.1010  152.7610 C   0  0  0  0  0  0  0  0  0  0  0  0
  161.2290  205.5110  153.7430 C   0  0  0  0  0  3  0  0  0  0  0  0
  160.6420  209.4810  152.2370 C   0  0  0  0  0  2  0  0  0  0  0  0
  161.2620  210.4870  153.1920 C   0  0  0  0  0  2  0  0  0  0  0  0
  157.7780  212.0870  156.9220 S   0  0  0  0  0  0  0  0  0  0  0  0
  155.2840  212.5070  155.8870 C   0  0  0  0  0  1  0  0  0  0  0  0
  158.1980  213.2220  154.5910 C   0  0  0  0  0  0  0  0  0  0  0  0
  157.0980  214.0430  155.1550 C   0  0  0  0  0  2  0  0  0  0  0  0
  156.5180  213.2680  156.3330 C   0  0  2  0  0  3  0  0  0  0  0  0
  158.6170  212.2260  155.3520 C   0  0  0  0  0  0  0  0  0  0  0  0
  159.8620  212.5930  152.8700 N   0  0  0  0  0  0  0  0  0  0  0  0
  158.7350  213.4740  153.2140 C   0  0  0  0  0  2  0  0  0  0  0  0
  159.6360  211.2640  154.8850 C   0  0  0  0  0  0  0  0  0  0  0  0
  160.2170  211.4480  153.6810 C   0  0  0  0  0  0  0  0  0  0  0  0
  160.5900  213.1750  147.3880 C   0  0  0  0  0  0  0  0  0  0  0  0
  160.5010  211.6090  150.7030 C   0  0  0  0  0  2  0  0  0  0  0  0
  160.1880  214.4530  146.7320 C   0  0  0  0  0  1  0  0  0  0  0  0
  160.8250  213.1140  148.8020 N   0  0  0  0  0  0  0  0  0  0  0  0
  160.0280  214.0740  150.9070 C   0  0  0  0  0  2  0  0  0  0  0  0
  160.8080  214.3260  149.6200 C   0  0  0  0  0  2  0  0  0  0  0  0
  160.7100  212.1410  146.6800 O   0  0  0  0  0  0  0  0  0  0  0  0
  161.2830  211.8700  149.4180 C   0  0  0  0  0  2  0  0  0  0  0  0
  160.5730  212.8330  151.6160 C   0  0  0  0  0  3  0  0  0  0  0  0
  160.0100  210.1040  155.7660 C   0  0  0  0  0  2  0  0  0  0  0  0
  161.3010  211.9340  156.7970 N   0  0  0  0  0  1  0  0  0  0  0  0
  161.1350  210.4870  156.7300 C   0  0  2  0  0  3  0  0  0  0  0  0
  162.3530  209.8230  156.4550 O   0  0  0  0  0  0  0  0  0  0  0  0
  163.4230  210.6580  156.8200 C   0  0  0  0  0  1  0  0  0  0  0  0
  161.8480  204.6950  151.4580 C   0  0  0  0  0  2  0  0  0  0  0  0
  160.9050  203.6630  151.4770 O   0  0  0  0  0  0  0  0  0  0  0  0
  161.6280  202.5020  151.1800 C   0  0  0  0  0  2  0  0  0  0  0  0
  160.7180  201.4550  150.5610 C   0  0  0  0  0  2  0  0  0  0  0  0
  161.1060  201.2020  149.1160 C   0  0  0  0  0  2  0  0  0  0  0  0
  160.1300  201.9270  148.2020 C   0  0  0  0  0  2  0  0  0  0  0  0
  161.3530  204.7980  145.1020 C   0  0  2  0  0  0  0  0  0  0  0  0
  162.3210  205.9130  148.0010 C   0  0  0  0  0  2  0  0  0  0  0  0
  161.9570  203.4700  147.2100 C   0  0  2  0  0  0  0  0  0  0  0  0
  161.2420  201.4030  146.1580 O   0  0  0  0  0  1  0  0  0  0  0  0
  160.2240  204.8060  148.3740 F   0  0  0  0  0  0  0  0  0  0  0  0
  161.5850  204.5880  148.2290 C   0  0  2  0  0  3  0  0  0  0  0  0
  160.7790  202.4800  146.9250 C   0  0  1  0  0  0  0  0  0  0  0  0
  160.1920  203.8290  144.8460 C   0  0  0  0  0  2  0  0  0  0  0  0
  160.8920  206.0570  145.8210 C   0  0  0  0  0  0  0  0  0  0  0  0
  161.9220  205.2030  143.7570 C   0  0  0  0  0  1  0  0  0  0  0  0
  161.7780  206.7680  146.8390 C   0  0  1  0  0  3  0  0  0  0  0  0
  159.6700  203.1910  146.1370 C   0  0  0  0  0  2  0  0  0  0  0  0
  163.0300  202.7590  147.7500 O   0  0  0  0  0  1  0  0  0  0  0  0
  159.8140  206.5480  145.5150 O   0  0  0  0  0  0  0  0  0  0  0  0
  162.4500  204.0580  145.8710 C   0  0  0  0  0  2  0  0  0  0  0  0
  161.1880  208.0770  147.3610 C   0  0  0  0  0  2  0  0  0  0  0  0
  161.6440  208.3450  148.6550 O   0  0  0  0  0  1  0  0  0  0  0  0
  1  4  1  0  0  0  0
  2  6  1  0  0  0  0
  3  2  2  0  0  0  0
  3  5  1  0  0  0  0
  5  1  2  0  0  0  0
  6  4  2  0  0  0  0
  7  5  1  0  0  0  0
  7  8  1  0  0  0  0
  8 18  1  0  0  0  0
 11 12  1  0  0  0  0
 11 14  2  0  0  0  0
 12 13  1  0  0  0  0
 13 10  1  6  0  0  0
 13  9  1  0  0  0  0
 14  9  1  0  0  0  0
 15 16  1  0  0  0  0
 15 18  1  0  0  0  0
 16 11  1  0  0  0  0
 17 14  1  0  0  0  0
 17 28  1  0  0  0  0
 18 17  2  0  0  0  0
 19 22  1  0  0  0  0
 20 27  1  0  0  0  0
 21 19  1  0  0  0  0
 22 26  1  0  0  0  0
 22 24  1  0  0  0  0
 23 27  1  0  0  0  0
 24 23  1  0  0  0  0
 25 19  2  0  0  0  0
 26 20  1  0  0  0  0
 27 15  1  0  0  0  0
 28 30  1  0  0  0  0
 30 29  1  6  0  0  0
 31 30  1  0  0  0  0
 31 32  1  0  0  0  0
 33 34  1  0  0  0  0
 33  2  1  0  0  0  0
 35 34  1  0  0  0  0
 36 35  1  0  0  0  0
 37 36  1  0  0  0  0
 38 37  1  0  0  0  0
 39 48  1  6  0  0  0
 39 47  1  0  0  0  0
 39 53  1  0  0  0  0
 40 44  1  0  0  0  0
 41 51  1  1  0  0  0
 41 44  1  0  0  0  0
 44 43  1  6  0  0  0
 45 42  1  6  0  0  0
 45 41  1  0  0  0  0
 45 38  1  0  0  0  0
 46 39  1  0  0  0  0
 46 50  1  0  0  0  0
 47 49  1  0  0  0  0
 49 54  1  1  0  0  0
 49 40  1  0  0  0  0
 50 45  1  0  0  0  0
 52 47  2  0  0  0  0
 53 41  1  0  0  0  0
 54 55  1  0  0  0  0
M  END
>  <MODEL>
4

>  <REMARK>
 VINA RESULT:      -3.1      4.729      8.817
  Name = 
  15 active torsions:
  status: ('A' for Active; 'I' for Inactive)
    1  A    between atoms: C_2  and  C_28
    2  A    between atoms: C_2  and  C_44
    3  A    between atoms: O_4  and  C_40
    4  A    between atoms: C_8  and  C_22
    5  A    between atoms: C_8  and  C_43
    6  A    between atoms: C_11  and  C_38
    7  A    between atoms: C_19  and  C_40
    8  A    between atoms: C_19  and  C_45
    9  A    between atoms: C_20  and  C_22
   10  A    between atoms: C_27  and  C_54
   11  A    between atoms: C_28  and  C_49
   12  A    between atoms: N_33  and  C_52
   13  A    between atoms: C_35  and  C_43
   14  A    between atoms: C_35  and  O_51
   15  A    between atoms: O_51  and  C_54
                            x       y       z     vdW  Elec       q    Type
                         _______ _______ _______ _____ _____    ______ ____

>  <TORSDO>
F 15

$$$$
