=
 OpenBabel11052422463D

 31 32  0  0  1  0  0  0  0  0999 V2000
  160.6800  202.1490  149.7810 C   0  0  0  0  0  0  0  0  0  0  0  0
  160.2190  205.8990  149.5500 C   0  0  0  0  0  2  0  0  0  0  0  0
  160.7020  204.5600  150.0320 C   0  0  0  0  0  0  0  0  0  0  0  0
  161.4430  202.0190  150.9440 C   0  0  0  0  0  3  0  0  0  0  0  0
  161.2110  206.9100  151.5920 C   0  0  2  0  0  3  0  0  0  0  0  0
  160.3020  201.0460  149.0920 F   0  0  0  0  0  0  0  0  0  0  0  0
  161.9370  205.6230  151.9950 C   0  0  0  0  0  2  0  0  0  0  0  0
  161.0760  207.0530  150.0740 C   0  0  1  0  0  3  0  0  0  0  0  0
  160.3070  203.4170  149.3290 C   0  0  0  0  0  3  0  0  0  0  0  0
  161.4500  204.4270  151.2240 C   0  0  0  0  0  0  0  0  0  0  0  0
  161.8280  203.1550  151.6610 C   0  0  0  0  0  3  0  0  0  0  0  0
  162.3290  207.0360  149.4490 O   0  0  0  0  0  0  0  0  0  0  0  0
  162.0830  207.4340  148.1310 C   0  0  0  0  0  2  0  0  0  0  0  0
  162.4440  206.3120  147.1720 C   0  0  0  0  0  2  0  0  0  0  0  0
  161.2900  205.9900  146.2240 C   0  0  0  0  0  2  0  0  0  0  0  0
  161.6320  205.6500  143.8750 O   0  0  0  0  0  1  0  0  0  0  0  0
  163.0380  204.4200  145.3610 C   0  0  0  0  0  1  0  0  0  0  0  0
  161.6530  205.0030  145.1130 C   0  0  1  0  0  0  0  0  0  0  0  0
  160.6120  203.8860  145.1280 C   0  0  0  0  0  2  0  0  0  0  0  0
  161.1190  202.6290  145.8250 C   0  0  0  0  0  1  0  0  0  0  0  0
  161.7510  208.1620  152.2890 C   0  0  0  0  0  2  0  0  0  0  0  0
  160.6900  209.2280  152.5550 C   0  0  2  0  0  3  0  0  0  0  0  0
  161.1020  210.5500  151.9130 C   0  0  0  0  0  2  0  0  0  0  0  0
  161.9150  210.3220  150.7990 O   0  0  0  0  0  1  0  0  0  0  0  0
  160.4620  209.4020  154.0510 C   0  0  0  0  0  2  0  0  0  0  0  0
  160.2790  210.8710  154.4020 C   0  0  0  0  0  2  0  0  0  0  0  0
  158.1330  212.0060  152.9070 O   0  0  0  0  0  0  0  0  0  0  0  0
  158.9300  211.0870  154.8990 N   0  0  0  0  0  2  0  0  0  0  0  0
  157.9070  211.6780  154.1010 C   0  0  0  0  0  0  0  0  0  0  0  0
  156.7230  212.6010  155.9160 O   0  0  0  0  0  1  0  0  0  0  0  0
  156.5710  211.9350  154.7000 C   0  0  0  0  0  2  0  0  0  0  0  0
  1  4  1  0  0  0  0
  2  3  1  0  0  0  0
  2  8  1  0  0  0  0
  3 10  2  0  0  0  0
  4 11  2  0  0  0  0
  5  7  1  0  0  0  0
  5 21  1  6  0  0  0
  6  1  1  0  0  0  0
  8 12  1  6  0  0  0
  8  5  1  0  0  0  0
  9  1  2  0  0  0  0
  9  3  1  0  0  0  0
 10 11  1  0  0  0  0
 10  7  1  0  0  0  0
 13 12  1  0  0  0  0
 14 13  1  0  0  0  0
 15 14  1  0  0  0  0
 16 18  1  0  0  0  0
 18 19  1  0  0  0  0
 18 17  1  1  0  0  0
 18 15  1  0  0  0  0
 19 20  1  0  0  0  0
 21 22  1  0  0  0  0
 22 23  1  1  0  0  0
 22 25  1  0  0  0  0
 24 23  1  0  0  0  0
 25 26  1  0  0  0  0
 26 28  1  0  0  0  0
 27 29  2  0  0  0  0
 29 31  1  0  0  0  0
 29 28  1  0  0  0  0
 31 30  1  0  0  0  0
M  END
>  <MODEL>
1

>  <REMARK>
 VINA RESULT:      -7.2      0.000      0.000
  Name = 
  13 active torsions:
  status: ('A' for Active; 'I' for Inactive)
    1  A    between atoms: C_3  and  C_9
    2  A    between atoms: O_5  and  C_14
    3  A    between atoms: O_5  and  C_21
    4  A    between atoms: C_6  and  C_7
    5  A    between atoms: C_6  and  N_19
    6  A    between atoms: C_7  and  C_9
    7  A    between atoms: C_9  and  C_23
    8  A    between atoms: C_10  and  C_14
    9  A    between atoms: C_10  and  C_18
   10  A    between atoms: C_11  and  C_24
   11  A    between atoms: C_15  and  C_23
   12  A    between atoms: C_17  and  C_31
   13  A    between atoms: C_18  and  C_31
                            x       y       z     vdW  Elec       q    Type
                         _______ _______ _______ _____ _____    ______ ____

>  <TORSDO>
F 13

$$$$
=
 OpenBabel11052422463D

 31 32  0  0  1  0  0  0  0  0999 V2000
  161.5220  205.1640  144.3960 C   0  0  0  0  0  0  0  0  0  0  0  0
  160.2840  206.9340  147.5050 C   0  0  0  0  0  2  0  0  0  0  0  0
  160.9190  205.8910  146.6290 C   0  0  0  0  0  0  0  0  0  0  0  0
  161.9620  203.9420  144.9100 C   0  0  0  0  0  3  0  0  0  0  0  0
  160.4450  205.3340  149.4000 C   0  0  2  0  0  3  0  0  0  0  0  0
  161.6030  205.4080  143.0670 F   0  0  0  0  0  0  0  0  0  0  0  0
  161.3160  204.3460  148.6190 C   0  0  0  0  0  2  0  0  0  0  0  0
  160.6830  206.7850  148.9740 C   0  0  1  0  0  3  0  0  0  0  0  0
  160.9980  206.1350  145.2540 C   0  0  0  0  0  3  0  0  0  0  0  0
  161.3380  204.6440  147.1460 C   0  0  0  0  0  0  0  0  0  0  0  0
  161.8720  203.6850  146.2810 C   0  0  0  0  0  3  0  0  0  0  0  0
  162.0250  207.1490  149.1420 O   0  0  0  0  0  0  0  0  0  0  0  0
  161.9860  208.4130  149.7390 C   0  0  0  0  0  2  0  0  0  0  0  0
  162.0070  209.4940  148.6710 C   0  0  0  0  0  2  0  0  0  0  0  0
  162.2490  210.8760  149.2750 C   0  0  0  0  0  2  0  0  0  0  0  0
  160.9110  211.5310  147.3960 O   0  0  0  0  0  1  0  0  0  0  0  0
  160.9000  212.9860  149.2880 C   0  0  0  0  0  1  0  0  0  0  0  0
  161.7130  212.0300  148.4250 C   0  0  1  0  0  0  0  0  0  0  0  0
  162.9140  212.7640  147.8310 C   0  0  0  0  0  2  0  0  0  0  0  0
  162.6890  213.1630  146.3780 C   0  0  0  0  0  1  0  0  0  0  0  0
  160.4780  205.1160  150.9150 C   0  0  0  0  0  2  0  0  0  0  0  0
  161.8020  204.5550  151.4310 C   0  0  2  0  0  3  0  0  0  0  0  0
  161.5850  203.1700  152.0330 C   0  0  0  0  0  2  0  0  0  0  0  0
  160.9260  202.3360  151.1250 O   0  0  0  0  0  1  0  0  0  0  0  0
  162.4270  205.4970  152.4520 C   0  0  0  0  0  2  0  0  0  0  0  0
  161.4670  206.6220  152.8070 C   0  0  0  0  0  2  0  0  0  0  0  0
  161.0870  208.7420  154.6740 O   0  0  0  0  0  0  0  0  0  0  0  0
  161.0180  206.4620  154.1800 N   0  0  0  0  0  2  0  0  0  0  0  0
  160.8660  207.5670  155.0690 C   0  0  0  0  0  0  0  0  0  0  0  0
  160.0400  208.5110  157.0620 O   0  0  0  0  0  1  0  0  0  0  0  0
  160.4730  207.3200  156.4810 C   0  0  0  0  0  2  0  0  0  0  0  0
  1  4  2  0  0  0  0
  1  9  1  0  0  0  0
  2  8  1  0  0  0  0
  3 10  1  0  0  0  0
  3  2  1  0  0  0  0
  4 11  1  0  0  0  0
  5 21  1  1  0  0  0
  6  1  1  0  0  0  0
  7  5  1  0  0  0  0
  8 12  1  6  0  0  0
  8  5  1  0  0  0  0
  9  3  2  0  0  0  0
 10  7  1  0  0  0  0
 11 10  2  0  0  0  0
 12 13  1  0  0  0  0
 14 15  1  0  0  0  0
 14 13  1  0  0  0  0
 16 18  1  0  0  0  0
 18 15  1  0  0  0  0
 18 17  1  1  0  0  0
 19 18  1  0  0  0  0
 20 19  1  0  0  0  0
 22 21  1  1  0  0  0
 22 23  1  0  0  0  0
 22 25  1  0  0  0  0
 24 23  1  0  0  0  0
 25 26  1  0  0  0  0
 26 28  1  0  0  0  0
 27 29  2  0  0  0  0
 28 29  1  0  0  0  0
 29 31  1  0  0  0  0
 31 30  1  0  0  0  0
M  END
>  <MODEL>
2

>  <REMARK>
 VINA RESULT:      -6.6      3.162      5.818
  Name = 
  13 active torsions:
  status: ('A' for Active; 'I' for Inactive)
    1  A    between atoms: C_3  and  C_9
    2  A    between atoms: O_5  and  C_14
    3  A    between atoms: O_5  and  C_21
    4  A    between atoms: C_6  and  C_7
    5  A    between atoms: C_6  and  N_19
    6  A    between atoms: C_7  and  C_9
    7  A    between atoms: C_9  and  C_23
    8  A    between atoms: C_10  and  C_14
    9  A    between atoms: C_10  and  C_18
   10  A    between atoms: C_11  and  C_24
   11  A    between atoms: C_15  and  C_23
   12  A    between atoms: C_17  and  C_31
   13  A    between atoms: C_18  and  C_31
                            x       y       z     vdW  Elec       q    Type
                         _______ _______ _______ _____ _____    ______ ____

>  <TORSDO>
F 13

$$$$
=
 OpenBabel11052422463D

 31 32  0  0  1  0  0  0  0  0999 V2000
  160.4010  211.0130  153.6380 C   0  0  0  0  0  0  0  0  0  0  0  0
  162.3540  209.0080  151.0900 C   0  0  0  0  0  2  0  0  0  0  0  0
  161.4430  209.3280  152.2410 C   0  0  0  0  0  0  0  0  0  0  0  0
  159.8680  210.0120  154.4530 C   0  0  0  0  0  3  0  0  0  0  0  0
  162.2500  206.6190  151.7670 C   0  0  2  0  0  3  0  0  0  0  0  0
  160.1540  212.3150  153.9160 F   0  0  0  0  0  0  0  0  0  0  0  0
  161.1310  206.8550  152.7850 C   0  0  0  0  0  2  0  0  0  0  0  0
  162.1680  207.5780  150.5770 C   0  0  1  0  0  3  0  0  0  0  0  0
  161.1910  210.6710  152.5370 C   0  0  0  0  0  3  0  0  0  0  0  0
  160.9270  208.3150  153.0810 C   0  0  0  0  0  0  0  0  0  0  0  0
  160.1290  208.6680  154.1730 C   0  0  0  0  0  3  0  0  0  0  0  0
  160.9380  207.4660  149.9180 O   0  0  0  0  0  0  0  0  0  0  0  0
  161.2070  207.8020  148.5870 C   0  0  0  0  0  2  0  0  0  0  0  0
  161.7880  206.6050  147.8540 C   0  0  0  0  0  2  0  0  0  0  0  0
  161.0180  206.3040  146.5690 C   0  0  0  0  0  2  0  0  0  0  0  0
  162.8540  205.9790  145.0610 O   0  0  0  0  0  1  0  0  0  0  0  0
  162.1860  204.0990  146.3710 C   0  0  0  0  0  1  0  0  0  0  0  0
  161.7410  205.3470  145.6200 C   0  0  1  0  0  0  0  0  0  0  0  0
  160.7590  204.9610  144.5150 C   0  0  0  0  0  2  0  0  0  0  0  0
  160.1150  203.6020  144.7590 C   0  0  0  0  0  1  0  0  0  0  0  0
  162.4180  205.1500  151.3710 C   0  0  0  0  0  2  0  0  0  0  0  0
  161.0980  204.3980  151.2040 C   0  0  2  0  0  3  0  0  0  0  0  0
  161.0290  203.2350  152.1890 C   0  0  0  0  0  2  0  0  0  0  0  0
  162.0760  202.3360  151.9630 O   0  0  0  0  0  1  0  0  0  0  0  0
  160.9350  203.9050  149.7730 C   0  0  0  0  0  2  0  0  0  0  0  0
  160.1860  202.5810  149.7400 C   0  0  0  0  0  2  0  0  0  0  0  0
  161.6970  200.3640  148.7760 O   0  0  0  0  0  0  0  0  0  0  0  0
  160.1570  202.0730  148.3790 N   0  0  0  0  0  2  0  0  0  0  0  0
  160.9540  200.9690  147.9580 C   0  0  0  0  0  0  0  0  0  0  0  0
  161.6780  199.3860  146.3710 O   0  0  0  0  0  1  0  0  0  0  0  0
  160.9280  200.5500  146.5320 C   0  0  0  0  0  2  0  0  0  0  0  0
  1  6  1  0  0  0  0
  1  4  1  0  0  0  0
  2  3  1  0  0  0  0
  3  9  1  0  0  0  0
  3 10  2  0  0  0  0
  5 21  1  6  0  0  0
  5  7  1  0  0  0  0
  7 10  1  0  0  0  0
  8 12  1  1  0  0  0
  8  2  1  0  0  0  0
  8  5  1  0  0  0  0
  9  1  2  0  0  0  0
 10 11  1  0  0  0  0
 11  4  2  0  0  0  0
 13 12  1  0  0  0  0
 14 13  1  0  0  0  0
 15 14  1  0  0  0  0
 16 18  1  0  0  0  0
 18 17  1  1  0  0  0
 18 15  1  0  0  0  0
 19 20  1  0  0  0  0
 19 18  1  0  0  0  0
 22 25  1  6  0  0  0
 22 21  1  0  0  0  0
 22 23  1  0  0  0  0
 24 23  1  0  0  0  0
 26 25  1  0  0  0  0
 28 26  1  0  0  0  0
 29 28  1  0  0  0  0
 29 27  2  0  0  0  0
 30 31  1  0  0  0  0
 31 29  1  0  0  0  0
M  END
>  <MODEL>
3

>  <REMARK>
 VINA RESULT:      -6.4      3.834      7.538
  Name = 
  13 active torsions:
  status: ('A' for Active; 'I' for Inactive)
    1  A    between atoms: C_3  and  C_9
    2  A    between atoms: O_5  and  C_14
    3  A    between atoms: O_5  and  C_21
    4  A    between atoms: C_6  and  C_7
    5  A    between atoms: C_6  and  N_19
    6  A    between atoms: C_7  and  C_9
    7  A    between atoms: C_9  and  C_23
    8  A    between atoms: C_10  and  C_14
    9  A    between atoms: C_10  and  C_18
   10  A    between atoms: C_11  and  C_24
   11  A    between atoms: C_15  and  C_23
   12  A    between atoms: C_17  and  C_31
   13  A    between atoms: C_18  and  C_31
                            x       y       z     vdW  Elec       q    Type
                         _______ _______ _______ _____ _____    ______ ____

>  <TORSDO>
F 13

$$$$
=
 OpenBabel11052422463D

 31 32  0  0  1  0  0  0  0  0999 V2000
  161.4310  205.3910  152.9560 C   0  0  0  0  0  0  0  0  0  0  0  0
  163.0500  207.2050  150.0550 C   0  0  0  0  0  2  0  0  0  0  0  0
  162.0850  206.3520  150.8290 C   0  0  0  0  0  0  0  0  0  0  0  0
  160.4140  204.6730  152.3210 C   0  0  0  0  0  3  0  0  0  0  0  0
  161.9620  206.4130  147.9660 C   0  0  2  0  0  3  0  0  0  0  0  0
  161.6070  205.2780  154.2940 F   0  0  0  0  0  0  0  0  0  0  0  0
  160.8070  205.7360  148.7090 C   0  0  0  0  0  2  0  0  0  0  0  0
  162.4870  207.6480  148.7040 C   0  0  1  0  0  3  0  0  0  0  0  0
  162.2670  206.2250  152.2090 C   0  0  0  0  0  3  0  0  0  0  0  0
  161.0740  205.6050  150.1820 C   0  0  0  0  0  0  0  0  0  0  0  0
  160.2360  204.7830  150.9400 C   0  0  0  0  0  3  0  0  0  0  0  0
  161.4710  208.5920  148.8980 O   0  0  0  0  0  0  0  0  0  0  0  0
  162.1360  209.7780  149.2280 C   0  0  0  0  0  2  0  0  0  0  0  0
  161.4850  210.4200  150.4410 C   0  0  0  0  0  2  0  0  0  0  0  0
  162.1660  209.9890  151.7390 C   0  0  0  0  0  2  0  0  0  0  0  0
  162.2040  210.5790  154.0630 O   0  0  0  0  0  1  0  0  0  0  0  0
  160.4110  211.4590  152.7540 C   0  0  0  0  0  1  0  0  0  0  0  0
  161.3490  210.2830  152.9980 C   0  0  1  0  0  0  0  0  0  0  0  0
  160.5350  209.0330  153.3250 C   0  0  0  0  0  2  0  0  0  0  0  0
  160.7390  208.5660  154.7610 C   0  0  0  0  0  1  0  0  0  0  0  0
  161.6810  206.6500  146.4800 C   0  0  0  0  0  2  0  0  0  0  0  0
  162.2600  205.5740  145.5610 C   0  0  2  0  0  3  0  0  0  0  0  0
  161.2240  205.1620  144.5190 C   0  0  0  0  0  2  0  0  0  0  0  0
  159.9850  205.7470  144.7990 O   0  0  0  0  0  1  0  0  0  0  0  0
  162.7250  204.3690  146.3670 C   0  0  0  0  0  2  0  0  0  0  0  0
  161.7570  203.2060  146.2080 C   0  0  0  0  0  2  0  0  0  0  0  0
  161.3160  200.6030  147.2840 O   0  0  0  0  0  0  0  0  0  0  0  0
  161.1260  202.9210  147.4860 N   0  0  0  0  0  2  0  0  0  0  0  0
  160.9190  201.5910  147.9560 C   0  0  0  0  0  0  0  0  0  0  0  0
  161.1160  201.3470  150.2900 O   0  0  0  0  0  1  0  0  0  0  0  0
  160.2010  201.3740  149.2390 C   0  0  0  0  0  2  0  0  0  0  0  0
  1  6  1  0  0  0  0
  2  3  1  0  0  0  0
  3  9  1  0  0  0  0
  4  1  1  0  0  0  0
  5 21  1  6  0  0  0
  5  8  1  0  0  0  0
  5  7  1  0  0  0  0
  7 10  1  0  0  0  0
  8 12  1  1  0  0  0
  8  2  1  0  0  0  0
  9  1  2  0  0  0  0
 10  3  2  0  0  0  0
 10 11  1  0  0  0  0
 11  4  2  0  0  0  0
 12 13  1  0  0  0  0
 13 14  1  0  0  0  0
 14 15  1  0  0  0  0
 15 18  1  0  0  0  0
 18 17  1  6  0  0  0
 18 19  1  0  0  0  0
 18 16  1  0  0  0  0
 19 20  1  0  0  0  0
 22 23  1  6  0  0  0
 22 25  1  0  0  0  0
 22 21  1  0  0  0  0
 23 24  1  0  0  0  0
 26 25  1  0  0  0  0
 26 28  1  0  0  0  0
 27 29  2  0  0  0  0
 28 29  1  0  0  0  0
 29 31  1  0  0  0  0
 31 30  1  0  0  0  0
M  END
>  <MODEL>
4

>  <REMARK>
 VINA RESULT:      -6.4      3.164      8.069
  Name = 
  13 active torsions:
  status: ('A' for Active; 'I' for Inactive)
    1  A    between atoms: C_3  and  C_9
    2  A    between atoms: O_5  and  C_14
    3  A    between atoms: O_5  and  C_21
    4  A    between atoms: C_6  and  C_7
    5  A    between atoms: C_6  and  N_19
    6  A    between atoms: C_7  and  C_9
    7  A    between atoms: C_9  and  C_23
    8  A    between atoms: C_10  and  C_14
    9  A    between atoms: C_10  and  C_18
   10  A    between atoms: C_11  and  C_24
   11  A    between atoms: C_15  and  C_23
   12  A    between atoms: C_17  and  C_31
   13  A    between atoms: C_18  and  C_31
                            x       y       z     vdW  Elec       q    Type
                         _______ _______ _______ _____ _____    ______ ____

>  <TORSDO>
F 13

$$$$
=
 OpenBabel11052422463D

 31 32  0  0  1  0  0  0  0  0999 V2000
  159.8140  212.7070  151.8540 C   0  0  0  0  0  0  0  0  0  0  0  0
  162.3270  210.2390  150.4670 C   0  0  0  0  0  2  0  0  0  0  0  0
  161.1730  210.7910  151.2570 C   0  0  0  0  0  0  0  0  0  0  0  0
  159.1280  211.9310  152.7910 C   0  0  0  0  0  3  0  0  0  0  0  0
  162.1130  208.1320  151.7670 C   0  0  2  0  0  3  0  0  0  0  0  0
  159.4880  214.0100  151.6850 F   0  0  0  0  0  0  0  0  0  0  0  0
  160.7890  208.5490  152.4120 C   0  0  0  0  0  2  0  0  0  0  0  0
  162.2860  208.7130  150.3610 C   0  0  1  0  0  3  0  0  0  0  0  0
  160.8380  212.1380  151.0920 C   0  0  0  0  0  3  0  0  0  0  0  0
  160.4980  210.0130  152.2240 C   0  0  0  0  0  0  0  0  0  0  0  0
  159.4680  210.5880  152.9730 C   0  0  0  0  0  3  0  0  0  0  0  0
  161.2400  208.3230  149.5180 O   0  0  0  0  0  0  0  0  0  0  0  0
  161.7940  208.3070  148.2340 C   0  0  0  0  0  2  0  0  0  0  0  0
  162.3590  206.9300  147.9270 C   0  0  0  0  0  2  0  0  0  0  0  0
  161.3820  206.0910  147.1060 C   0  0  0  0  0  2  0  0  0  0  0  0
  163.4130  205.1070  146.2960 O   0  0  0  0  0  1  0  0  0  0  0  0
  161.7410  203.6140  147.1170 C   0  0  0  0  0  1  0  0  0  0  0  0
  162.0310  204.9130  146.3780 C   0  0  1  0  0  0  0  0  0  0  0  0
  161.4370  204.8520  144.9720 C   0  0  0  0  0  2  0  0  0  0  0  0
  160.3980  205.9410  144.7340 C   0  0  0  0  0  1  0  0  0  0  0  0
  162.3920  206.6290  151.8570 C   0  0  0  0  0  2  0  0  0  0  0  0
  161.1320  205.7650  151.8740 C   0  0  2  0  0  3  0  0  0  0  0  0
  161.1120  204.8910  153.1250 C   0  0  0  0  0  2  0  0  0  0  0  0
  161.2870  205.6700  154.2720 O   0  0  0  0  0  1  0  0  0  0  0  0
  161.0450  204.9110  150.6160 C   0  0  0  0  0  2  0  0  0  0  0  0
  160.3610  203.5840  150.9100 C   0  0  0  0  0  2  0  0  0  0  0  0
  159.3700  201.5820  149.1400 O   0  0  0  0  0  0  0  0  0  0  0  0
  161.1460  202.4980  150.3460 N   0  0  0  0  0  2  0  0  0  0  0  0
  160.5810  201.5170  149.4800 C   0  0  0  0  0  0  0  0  0  0  0  0
  161.3270  200.2900  147.6130 O   0  0  0  0  0  1  0  0  0  0  0  0
  161.4270  200.3930  149.0000 C   0  0  0  0  0  2  0  0  0  0  0  0
  1  4  1  0  0  0  0
  2  3  1  0  0  0  0
  3 10  2  0  0  0  0
  4 11  2  0  0  0  0
  5 21  1  6  0  0  0
  5  7  1  0  0  0  0
  6  1  1  0  0  0  0
  8 12  1  6  0  0  0
  8  2  1  0  0  0  0
  8  5  1  0  0  0  0
  9  3  1  0  0  0  0
  9  1  2  0  0  0  0
 10  7  1  0  0  0  0
 10 11  1  0  0  0  0
 13 12  1  0  0  0  0
 14 13  1  0  0  0  0
 15 14  1  0  0  0  0
 16 18  1  0  0  0  0
 18 15  1  0  0  0  0
 18 17  1  1  0  0  0
 19 18  1  0  0  0  0
 20 19  1  0  0  0  0
 21 22  1  0  0  0  0
 22 25  1  6  0  0  0
 22 23  1  0  0  0  0
 23 24  1  0  0  0  0
 25 26  1  0  0  0  0
 27 29  2  0  0  0  0
 28 26  1  0  0  0  0
 29 28  1  0  0  0  0
 30 31  1  0  0  0  0
 31 29  1  0  0  0  0
M  END
>  <MODEL>
5

>  <REMARK>
 VINA RESULT:      -6.3      3.807      7.316
  Name = 
  13 active torsions:
  status: ('A' for Active; 'I' for Inactive)
    1  A    between atoms: C_3  and  C_9
    2  A    between atoms: O_5  and  C_14
    3  A    between atoms: O_5  and  C_21
    4  A    between atoms: C_6  and  C_7
    5  A    between atoms: C_6  and  N_19
    6  A    between atoms: C_7  and  C_9
    7  A    between atoms: C_9  and  C_23
    8  A    between atoms: C_10  and  C_14
    9  A    between atoms: C_10  and  C_18
   10  A    between atoms: C_11  and  C_24
   11  A    between atoms: C_15  and  C_23
   12  A    between atoms: C_17  and  C_31
   13  A    between atoms: C_18  and  C_31
                            x       y       z     vdW  Elec       q    Type
                         _______ _______ _______ _____ _____    ______ ____

>  <TORSDO>
F 13

$$$$
=
 OpenBabel11052422463D

 31 32  0  0  1  0  0  0  0  0999 V2000
  161.3830  205.4990  152.8720 C   0  0  0  0  0  0  0  0  0  0  0  0
  163.0390  207.3860  150.0390 C   0  0  0  0  0  2  0  0  0  0  0  0
  162.0940  206.4740  150.7690 C   0  0  0  0  0  0  0  0  0  0  0  0
  160.4650  204.6960  152.1910 C   0  0  0  0  0  3  0  0  0  0  0  0
  162.1470  206.4800  147.9040 C   0  0  2  0  0  3  0  0  0  0  0  0
  161.4830  205.4210  154.2200 F   0  0  0  0  0  0  0  0  0  0  0  0
  161.0020  205.7280  148.5880 C   0  0  0  0  0  2  0  0  0  0  0  0
  162.5290  207.7630  148.6460 C   0  0  1  0  0  3  0  0  0  0  0  0
  162.1990  206.3840  152.1600 C   0  0  0  0  0  3  0  0  0  0  0  0
  161.1860  205.6410  150.0780 C   0  0  0  0  0  0  0  0  0  0  0  0
  160.3660  204.7700  150.7990 C   0  0  0  0  0  3  0  0  0  0  0  0
  161.4350  208.6290  148.7590 O   0  0  0  0  0  0  0  0  0  0  0  0
  161.9580  209.8050  149.3070 C   0  0  0  0  0  2  0  0  0  0  0  0
  161.9570  210.9110  148.2650 C   0  0  0  0  0  2  0  0  0  0  0  0
  161.6290  212.2680  148.8850 C   0  0  0  0  0  2  0  0  0  0  0  0
  160.0860  214.0780  148.5830 O   0  0  0  0  0  1  0  0  0  0  0  0
  162.0780  214.1260  147.2680 C   0  0  0  0  0  1  0  0  0  0  0  0
  160.9990  213.2630  147.9090 C   0  0  1  0  0  0  0  0  0  0  0  0
  160.2730  212.4590  146.8320 C   0  0  0  0  0  2  0  0  0  0  0  0
  158.8020  212.8390  146.7170 C   0  0  0  0  0  1  0  0  0  0  0  0
  161.9420  206.6700  146.3980 C   0  0  0  0  0  2  0  0  0  0  0  0
  162.2930  205.4390  145.5650 C   0  0  2  0  0  3  0  0  0  0  0  0
  161.1020  205.0340  144.6990 C   0  0  0  0  0  2  0  0  0  0  0  0
  160.0340  205.9160  144.8900 O   0  0  0  0  0  1  0  0  0  0  0  0
  162.7260  204.2860  146.4600 C   0  0  0  0  0  2  0  0  0  0  0  0
  161.7350  203.1350  146.3770 C   0  0  0  0  0  2  0  0  0  0  0  0
  161.2490  200.5340  147.4380 O   0  0  0  0  0  0  0  0  0  0  0  0
  161.2060  202.8530  147.7010 N   0  0  0  0  0  2  0  0  0  0  0  0
  160.9690  201.5250  148.1630 C   0  0  0  0  0  0  0  0  0  0  0  0
  158.9680  201.3260  149.3890 O   0  0  0  0  0  1  0  0  0  0  0  0
  160.3580  201.3150  149.5010 C   0  0  0  0  0  2  0  0  0  0  0  0
  1  6  1  0  0  0  0
  2  3  1  0  0  0  0
  3  9  1  0  0  0  0
  4  1  1  0  0  0  0
  5 21  1  6  0  0  0
  5  7  1  0  0  0  0
  5  8  1  0  0  0  0
  7 10  1  0  0  0  0
  8 12  1  1  0  0  0
  8  2  1  0  0  0  0
  9  1  2  0  0  0  0
 10  3  2  0  0  0  0
 10 11  1  0  0  0  0
 11  4  2  0  0  0  0
 12 13  1  0  0  0  0
 14 15  1  0  0  0  0
 14 13  1  0  0  0  0
 18 17  1  6  0  0  0
 18 16  1  0  0  0  0
 18 15  1  0  0  0  0
 19 18  1  0  0  0  0
 20 19  1  0  0  0  0
 22 23  1  1  0  0  0
 22 21  1  0  0  0  0
 22 25  1  0  0  0  0
 23 24  1  0  0  0  0
 26 25  1  0  0  0  0
 26 28  1  0  0  0  0
 27 29  2  0  0  0  0
 28 29  1  0  0  0  0
 29 31  1  0  0  0  0
 30 31  1  0  0  0  0
M  END
>  <MODEL>
6

>  <REMARK>
 VINA RESULT:      -6.0      3.915      7.877
  Name = 
  13 active torsions:
  status: ('A' for Active; 'I' for Inactive)
    1  A    between atoms: C_3  and  C_9
    2  A    between atoms: O_5  and  C_14
    3  A    between atoms: O_5  and  C_21
    4  A    between atoms: C_6  and  C_7
    5  A    between atoms: C_6  and  N_19
    6  A    between atoms: C_7  and  C_9
    7  A    between atoms: C_9  and  C_23
    8  A    between atoms: C_10  and  C_14
    9  A    between atoms: C_10  and  C_18
   10  A    between atoms: C_11  and  C_24
   11  A    between atoms: C_15  and  C_23
   12  A    between atoms: C_17  and  C_31
   13  A    between atoms: C_18  and  C_31
                            x       y       z     vdW  Elec       q    Type
                         _______ _______ _______ _____ _____    ______ ____

>  <TORSDO>
F 13

$$$$
=
 OpenBabel11052422463D

 31 32  0  0  1  0  0  0  0  0999 V2000
  160.4940  210.8500  155.5640 C   0  0  0  0  0  0  0  0  0  0  0  0
  162.5980  209.9440  152.5500 C   0  0  0  0  0  2  0  0  0  0  0  0
  161.5490  209.8520  153.6230 C   0  0  0  0  0  0  0  0  0  0  0  0
  159.7150  209.7030  155.7330 C   0  0  0  0  0  3  0  0  0  0  0  0
  162.0960  207.5830  151.9600 C   0  0  2  0  0  3  0  0  0  0  0  0
  160.3600  211.8910  156.4190 F   0  0  0  0  0  0  0  0  0  0  0  0
  160.8570  207.5200  152.8570 C   0  0  0  0  0  2  0  0  0  0  0  0
  162.3320  208.9830  151.3890 C   0  0  1  0  0  3  0  0  0  0  0  0
  161.4130  210.9220  154.5130 C   0  0  0  0  0  3  0  0  0  0  0  0
  160.7810  208.6810  153.8100 C   0  0  0  0  0  0  0  0  0  0  0  0
  159.8570  208.6230  154.8560 C   0  0  0  0  0  3  0  0  0  0  0  0
  161.2280  209.4240  150.6510 O   0  0  0  0  0  0  0  0  0  0  0  0
  161.5830  210.6950  150.1880 C   0  0  0  0  0  2  0  0  0  0  0  0
  161.9630  210.6270  148.7180 C   0  0  0  0  0  2  0  0  0  0  0  0
  162.6280  211.9200  148.2490 C   0  0  0  0  0  2  0  0  0  0  0  0
  160.5730  212.1360  147.0330 O   0  0  0  0  0  1  0  0  0  0  0  0
  161.2770  214.0280  148.3060 C   0  0  0  0  0  1  0  0  0  0  0  0
  161.7040  212.8420  147.4510 C   0  0  1  0  0  0  0  0  0  0  0  0
  162.4820  213.3360  146.2330 C   0  0  0  0  0  2  0  0  0  0  0  0
  161.6310  213.3550  144.9700 C   0  0  0  0  0  1  0  0  0  0  0  0
  162.1520  206.4670  150.9130 C   0  0  0  0  0  2  0  0  0  0  0  0
  161.0140  205.4540  151.0260 C   0  0  2  0  0  3  0  0  0  0  0  0
  161.4960  204.2020  151.7550 C   0  0  0  0  0  2  0  0  0  0  0  0
  160.9490  203.0540  151.1730 O   0  0  0  0  0  1  0  0  0  0  0  0
  160.4670  205.1010  149.6490 C   0  0  0  0  0  2  0  0  0  0  0  0
  160.6750  206.2490  148.6740 C   0  0  0  0  0  2  0  0  0  0  0  0
  160.1200  206.4360  145.8840 O   0  0  0  0  0  0  0  0  0  0  0  0
  161.5690  205.8270  147.6090 N   0  0  0  0  0  2  0  0  0  0  0  0
  161.2200  205.9310  146.2310 C   0  0  0  0  0  0  0  0  0  0  0  0
  162.3700  204.0490  145.4060 O   0  0  0  0  0  1  0  0  0  0  0  0
  162.1550  205.4110  145.1990 C   0  0  0  0  0  2  0  0  0  0  0  0
  1  4  1  0  0  0  0
  1  6  1  0  0  0  0
  2  3  1  0  0  0  0
  3 10  2  0  0  0  0
  3  9  1  0  0  0  0
  5 21  1  6  0  0  0
  5  7  1  0  0  0  0
  7 10  1  0  0  0  0
  8 12  1  1  0  0  0
  8  5  1  0  0  0  0
  8  2  1  0  0  0  0
  9  1  2  0  0  0  0
 10 11  1  0  0  0  0
 11  4  2  0  0  0  0
 13 12  1  0  0  0  0
 14 13  1  0  0  0  0
 15 14  1  0  0  0  0
 16 18  1  0  0  0  0
 18 15  1  0  0  0  0
 18 17  1  1  0  0  0
 19 18  1  0  0  0  0
 20 19  1  0  0  0  0
 21 22  1  0  0  0  0
 22 25  1  6  0  0  0
 22 23  1  0  0  0  0
 24 23  1  0  0  0  0
 26 25  1  0  0  0  0
 27 29  2  0  0  0  0
 28 26  1  0  0  0  0
 29 28  1  0  0  0  0
 31 30  1  0  0  0  0
 31 29  1  0  0  0  0
M  END
>  <MODEL>
7

>  <REMARK>
 VINA RESULT:      -5.7      4.019      8.015
  Name = 
  13 active torsions:
  status: ('A' for Active; 'I' for Inactive)
    1  A    between atoms: C_3  and  C_9
    2  A    between atoms: O_5  and  C_14
    3  A    between atoms: O_5  and  C_21
    4  A    between atoms: C_6  and  C_7
    5  A    between atoms: C_6  and  N_19
    6  A    between atoms: C_7  and  C_9
    7  A    between atoms: C_9  and  C_23
    8  A    between atoms: C_10  and  C_14
    9  A    between atoms: C_10  and  C_18
   10  A    between atoms: C_11  and  C_24
   11  A    between atoms: C_15  and  C_23
   12  A    between atoms: C_17  and  C_31
   13  A    between atoms: C_18  and  C_31
                            x       y       z     vdW  Elec       q    Type
                         _______ _______ _______ _____ _____    ______ ____

>  <TORSDO>
F 13

$$$$
=
 OpenBabel11052422463D

 31 32  0  0  1  0  0  0  0  0999 V2000
  161.5910  209.6890  155.9380 C   0  0  0  0  0  0  0  0  0  0  0  0
  160.7170  206.7310  153.7440 C   0  0  0  0  0  2  0  0  0  0  0  0
  161.1800  208.1000  154.1540 C   0  0  0  0  0  0  0  0  0  0  0  0
  161.8990  210.6710  154.9950 C   0  0  0  0  0  3  0  0  0  0  0  0
  160.7630  207.5020  151.3820 C   0  0  2  0  0  3  0  0  0  0  0  0
  161.6420  209.9780  157.2600 F   0  0  0  0  0  0  0  0  0  0  0  0
  161.4710  208.8160  151.7230 C   0  0  0  0  0  2  0  0  0  0  0  0
  161.1590  206.3630  152.3260 C   0  0  1  0  0  3  0  0  0  0  0  0
  161.2270  208.4060  155.5170 C   0  0  0  0  0  3  0  0  0  0  0  0
  161.4650  209.1020  153.1990 C   0  0  0  0  0  0  0  0  0  0  0  0
  161.8390  210.3780  153.6300 C   0  0  0  0  0  3  0  0  0  0  0  0
  162.5410  206.1410  152.3010 O   0  0  0  0  0  0  0  0  0  0  0  0
  162.6940  204.8680  151.7410 C   0  0  0  0  0  2  0  0  0  0  0  0
  161.4760  204.0140  152.0490 C   0  0  0  0  0  2  0  0  0  0  0  0
  161.5750  202.6380  151.3920 C   0  0  0  0  0  2  0  0  0  0  0  0
  159.5060  202.9300  150.2160 O   0  0  0  0  0  1  0  0  0  0  0  0
  161.5100  203.4060  149.0100 C   0  0  0  0  0  1  0  0  0  0  0  0
  160.8350  202.5300  150.0570 C   0  0  1  0  0  0  0  0  0  0  0  0
  160.8830  201.0680  149.6170 C   0  0  0  0  0  2  0  0  0  0  0  0
  161.2000  200.9190  148.1340 C   0  0  0  0  0  1  0  0  0  0  0  0
  160.8360  207.1330  149.8980 C   0  0  0  0  0  2  0  0  0  0  0  0
  162.0310  207.7430  149.1660 C   0  0  2  0  0  3  0  0  0  0  0  0
  161.5910  208.9730  148.3770 C   0  0  0  0  0  2  0  0  0  0  0  0
  162.3730  210.0810  148.7170 O   0  0  0  0  0  1  0  0  0  0  0  0
  162.6830  206.7170  148.2490 C   0  0  0  0  0  2  0  0  0  0  0  0
  162.0450  206.7440  146.8680 C   0  0  0  0  0  2  0  0  0  0  0  0
  160.3590  205.9540  144.7100 O   0  0  0  0  0  0  0  0  0  0  0  0
  161.8860  205.3840  146.3800 N   0  0  0  0  0  2  0  0  0  0  0  0
  161.0090  205.0550  145.3060 C   0  0  0  0  0  0  0  0  0  0  0  0
  159.6900  203.4950  144.1350 O   0  0  0  0  0  1  0  0  0  0  0  0
  160.8410  203.6330  144.9090 C   0  0  0  0  0  2  0  0  0  0  0  0
  1  6  1  0  0  0  0
  2  3  1  0  0  0  0
  3  9  2  0  0  0  0
  4  1  2  0  0  0  0
  5 21  1  6  0  0  0
  5  7  1  0  0  0  0
  5  8  1  0  0  0  0
  7 10  1  0  0  0  0
  8 12  1  1  0  0  0
  8  2  1  0  0  0  0
  9  1  1  0  0  0  0
 10 11  2  0  0  0  0
 10  3  1  0  0  0  0
 11  4  1  0  0  0  0
 13 14  1  0  0  0  0
 13 12  1  0  0  0  0
 15 14  1  0  0  0  0
 18 17  1  6  0  0  0
 18 16  1  0  0  0  0
 18 15  1  0  0  0  0
 19 18  1  0  0  0  0
 20 19  1  0  0  0  0
 22 25  1  6  0  0  0
 22 21  1  0  0  0  0
 23 24  1  0  0  0  0
 23 22  1  0  0  0  0
 26 25  1  0  0  0  0
 27 29  2  0  0  0  0
 28 26  1  0  0  0  0
 29 28  1  0  0  0  0
 30 31  1  0  0  0  0
 31 29  1  0  0  0  0
M  END
>  <MODEL>
8

>  <REMARK>
 VINA RESULT:      -5.7      3.951      7.432
  Name = 
  13 active torsions:
  status: ('A' for Active; 'I' for Inactive)
    1  A    between atoms: C_3  and  C_9
    2  A    between atoms: O_5  and  C_14
    3  A    between atoms: O_5  and  C_21
    4  A    between atoms: C_6  and  C_7
    5  A    between atoms: C_6  and  N_19
    6  A    between atoms: C_7  and  C_9
    7  A    between atoms: C_9  and  C_23
    8  A    between atoms: C_10  and  C_14
    9  A    between atoms: C_10  and  C_18
   10  A    between atoms: C_11  and  C_24
   11  A    between atoms: C_15  and  C_23
   12  A    between atoms: C_17  and  C_31
   13  A    between atoms: C_18  and  C_31
                            x       y       z     vdW  Elec       q    Type
                         _______ _______ _______ _____ _____    ______ ____

>  <TORSDO>
F 13

$$$$
=
 OpenBabel11052422463D

 31 32  0  0  1  0  0  0  0  0999 V2000
  161.3620  208.5810  155.9490 C   0  0  0  0  0  0  0  0  0  0  0  0
  162.3940  210.0170  152.6020 C   0  0  0  0  0  2  0  0  0  0  0  0
  161.7400  209.1210  153.6160 C   0  0  0  0  0  0  0  0  0  0  0  0
  160.6720  207.4270  155.5720 C   0  0  0  0  0  3  0  0  0  0  0  0
  161.7200  208.3950  150.8440 C   0  0  2  0  0  3  0  0  0  0  0  0
  161.5110  208.8840  157.2600 F   0  0  0  0  0  0  0  0  0  0  0  0
  160.8310  207.5870  151.7920 C   0  0  0  0  0  2  0  0  0  0  0  0
  161.7690  209.8800  151.2120 C   0  0  1  0  0  3  0  0  0  0  0  0
  161.8990  209.4240  154.9720 C   0  0  0  0  0  3  0  0  0  0  0  0
  161.0670  207.9390  153.2350 C   0  0  0  0  0  0  0  0  0  0  0  0
  160.5230  207.1090  154.2200 C   0  0  0  0  0  3  0  0  0  0  0  0
  160.4890  210.4460  151.2080 O   0  0  0  0  0  0  0  0  0  0  0  0
  160.6990  211.8210  151.3550 C   0  0  0  0  0  2  0  0  0  0  0  0
  159.6020  212.4270  152.2140 C   0  0  0  0  0  2  0  0  0  0  0  0
  158.8060  211.3510  152.9500 C   0  0  0  0  0  2  0  0  0  0  0  0
  157.1210  210.9540  154.6100 O   0  0  0  0  0  1  0  0  0  0  0  0
  159.1530  211.9620  155.3530 C   0  0  0  0  0  1  0  0  0  0  0  0
  158.1300  211.8440  154.2310 C   0  0  1  0  0  0  0  0  0  0  0  0
  157.5240  213.2150  153.9380 C   0  0  0  0  0  2  0  0  0  0  0  0
  156.0520  213.2930  154.3230 C   0  0  0  0  0  1  0  0  0  0  0  0
  161.4360  208.1300  149.3630 C   0  0  0  0  0  2  0  0  0  0  0  0
  161.8190  206.7250  148.9000 C   0  0  2  0  0  3  0  0  0  0  0  0
  162.3490  206.7700  147.4690 C   0  0  0  0  0  2  0  0  0  0  0  0
  161.6100  205.9180  146.6440 O   0  0  0  0  0  1  0  0  0  0  0  0
  160.6310  205.7790  149.0060 C   0  0  0  0  0  2  0  0  0  0  0  0
  161.0170  204.5070  149.7450 C   0  0  0  0  0  2  0  0  0  0  0  0
  159.9410  201.8670  149.7930 O   0  0  0  0  0  0  0  0  0  0  0  0
  161.3180  203.4590  148.7840 N   0  0  0  0  0  2  0  0  0  0  0  0
  160.7580  202.1510  148.8780 C   0  0  0  0  0  0  0  0  0  0  0  0
  160.6930  201.4410  146.6330 O   0  0  0  0  0  1  0  0  0  0  0  0
  161.1690  201.1090  147.9010 C   0  0  0  0  0  2  0  0  0  0  0  0
  1  6  1  0  0  0  0
  2  3  1  0  0  0  0
  3  9  1  0  0  0  0
  4  1  1  0  0  0  0
  5 21  1  6  0  0  0
  5  8  1  0  0  0  0
  5  7  1  0  0  0  0
  7 10  1  0  0  0  0
  8 12  1  1  0  0  0
  8  2  1  0  0  0  0
  9  1  2  0  0  0  0
 10  3  2  0  0  0  0
 10 11  1  0  0  0  0
 11  4  2  0  0  0  0
 12 13  1  0  0  0  0
 13 14  1  0  0  0  0
 14 15  1  0  0  0  0
 15 18  1  0  0  0  0
 18 16  1  0  0  0  0
 18 17  1  1  0  0  0
 19 18  1  0  0  0  0
 19 20  1  0  0  0  0
 22 23  1  6  0  0  0
 22 25  1  0  0  0  0
 22 21  1  0  0  0  0
 24 23  1  0  0  0  0
 25 26  1  0  0  0  0
 28 29  1  0  0  0  0
 28 26  1  0  0  0  0
 29 27  2  0  0  0  0
 30 31  1  0  0  0  0
 31 29  1  0  0  0  0
M  END
>  <MODEL>
9

>  <REMARK>
 VINA RESULT:      -5.4      3.415      8.939
  Name = 
  13 active torsions:
  status: ('A' for Active; 'I' for Inactive)
    1  A    between atoms: C_3  and  C_9
    2  A    between atoms: O_5  and  C_14
    3  A    between atoms: O_5  and  C_21
    4  A    between atoms: C_6  and  C_7
    5  A    between atoms: C_6  and  N_19
    6  A    between atoms: C_7  and  C_9
    7  A    between atoms: C_9  and  C_23
    8  A    between atoms: C_10  and  C_14
    9  A    between atoms: C_10  and  C_18
   10  A    between atoms: C_11  and  C_24
   11  A    between atoms: C_15  and  C_23
   12  A    between atoms: C_17  and  C_31
   13  A    between atoms: C_18  and  C_31
                            x       y       z     vdW  Elec       q    Type
                         _______ _______ _______ _____ _____    ______ ____

>  <TORSDO>
F 13

$$$$
