=
 OpenBabel11052422093D

 25 27  0  0  1  0  0  0  0  0999 V2000
  161.5730  206.6880  148.2280 C   0  0  0  0  0  0  0  0  0  0  0  0
  161.4080  205.8600  149.3620 C   0  0  0  0  0  0  0  0  0  0  0  0
  161.8980  208.5630  149.6430 C   0  0  0  0  0  3  0  0  0  0  0  0
  161.7670  207.7820  150.7430 N   0  0  0  0  0  0  0  0  0  0  0  0
  161.3230  205.6450  151.9080 C   0  0  2  0  0  3  0  0  0  0  0  0
  162.3360  206.0160  152.9760 C   0  0  0  0  0  1  0  0  0  0  0  0
  161.1260  204.3870  149.2090 C   0  0  0  0  0  2  0  0  0  0  0  0
  161.8050  208.0170  148.4070 N   0  0  0  0  0  0  0  0  0  0  0  0
  161.3760  204.1370  151.6850 C   0  0  0  0  0  2  0  0  0  0  0  0
  160.5410  203.7620  150.4700 C   0  0  2  0  0  3  0  0  0  0  0  0
  161.5480  206.4440  150.6420 C   0  0  0  0  0  0  0  0  0  0  0  0
  161.5070  206.1630  146.8420 C   0  0  0  0  0  0  0  0  0  0  0  0
  161.3160  205.1180  144.2390 C   0  0  0  0  0  3  0  0  0  0  0  0
  162.5420  205.3610  146.3180 C   0  0  0  0  0  0  0  0  0  0  0  0
  162.4410  204.8460  145.0210 C   0  0  0  0  0  3  0  0  0  0  0  0
  160.2840  205.9040  144.7540 C   0  0  0  0  0  3  0  0  0  0  0  0
  163.6790  205.0800  147.0670 O   0  0  0  0  0  1  0  0  0  0  0  0
  160.3770  206.4190  146.0480 C   0  0  0  0  0  3  0  0  0  0  0  0
  160.3250  202.2400  150.3580 C   0  0  0  0  0  2  0  0  0  0  0  0
  159.6610  201.7560  149.1320 N   0  0  0  0  0  0  0  0  0  0  0  0
  158.6470  200.9180  149.4650 O   0  0  0  0  0  1  0  0  0  0  0  0
  160.6150  201.0280  148.2890 C   0  0  2  0  0  3  0  0  0  0  0  0
  161.7550  200.6880  149.0230 O   0  0  0  0  0  1  0  0  0  0  0  0
  160.3730  201.4110  145.9280 O   0  0  0  0  0  1  0  0  0  0  0  0
  161.0260  201.8610  147.0770 C   0  0  0  0  0  2  0  0  0  0  0  0
  1  8  2  0  0  0  0
  1  2  1  0  0  0  0
  2 11  2  0  0  0  0
  3  4  2  0  0  0  0
  5  6  1  1  0  0  0
  7  2  1  0  0  0  0
  7 10  1  0  0  0  0
  8  3  1  0  0  0  0
  9  5  1  0  0  0  0
 10 19  1  6  0  0  0
 10  9  1  0  0  0  0
 11  4  1  0  0  0  0
 11  5  1  0  0  0  0
 12  1  1  0  0  0  0
 13 16  2  0  0  0  0
 13 15  1  0  0  0  0
 14 12  1  0  0  0  0
 14 17  1  0  0  0  0
 15 14  2  0  0  0  0
 16 18  1  0  0  0  0
 18 12  2  0  0  0  0
 20 21  1  0  0  0  0
 20 19  1  0  0  0  0
 22 23  1  1  0  0  0
 22 20  1  0  0  0  0
 24 25  1  0  0  0  0
 25 22  1  0  0  0  0
M  END
>  <MODEL>
1

>  <REMARK>
 VINA RESULT:      -8.1      0.000      0.000
  Name = 
  5 active torsions:
  status: ('A' for Active; 'I' for Inactive)
    1  A    between atoms: C_1  and  C_5
    2  A    between atoms: C_2  and  N_15
    3  A    between atoms: C_2  and  C_21
    4  A    between atoms: C_6  and  N_15
    5  A    between atoms: C_6  and  C_23
                            x       y       z     vdW  Elec       q    Type
                         _______ _______ _______ _____ _____    ______ ____

>  <TORSDO>
F 5

$$$$
=
 OpenBabel11052422093D

 25 27  0  0  1  0  0  0  0  0999 V2000
  161.4830  208.0380  150.9390 C   0  0  0  0  0  0  0  0  0  0  0  0
  161.3370  206.9580  150.0380 C   0  0  0  0  0  0  0  0  0  0  0  0
  162.1280  209.4480  149.1450 C   0  0  0  0  0  3  0  0  0  0  0  0
  161.9710  208.4320  148.2620 N   0  0  0  0  0  0  0  0  0  0  0  0
  161.4910  206.0870  147.6400 C   0  0  2  0  0  3  0  0  0  0  0  0
  160.8260  206.5610  146.3600 C   0  0  0  0  0  1  0  0  0  0  0  0
  160.9190  205.5940  150.5280 C   0  0  0  0  0  2  0  0  0  0  0  0
  161.8820  209.2480  150.4620 N   0  0  0  0  0  0  0  0  0  0  0  0
  160.7550  204.8500  148.1460 C   0  0  0  0  0  2  0  0  0  0  0  0
  161.2490  204.4840  149.5370 C   0  0  2  0  0  3  0  0  0  0  0  0
  161.5610  207.2000  148.6630 C   0  0  0  0  0  0  0  0  0  0  0  0
  161.2130  207.9060  152.3920 C   0  0  0  0  0  0  0  0  0  0  0  0
  160.6390  207.5980  155.1270 C   0  0  0  0  0  3  0  0  0  0  0  0
  160.6470  208.9690  153.1260 C   0  0  0  0  0  0  0  0  0  0  0  0
  160.3660  208.8100  154.4880 C   0  0  0  0  0  3  0  0  0  0  0  0
  161.1900  206.5390  154.4050 C   0  0  0  0  0  3  0  0  0  0  0  0
  160.3730  210.1900  152.5210 O   0  0  0  0  0  1  0  0  0  0  0  0
  161.4710  206.6910  153.0460 C   0  0  0  0  0  3  0  0  0  0  0  0
  160.7520  203.0950  149.9850 C   0  0  0  0  0  2  0  0  0  0  0  0
  160.1450  202.2430  148.9440 N   0  0  0  0  0  0  0  0  0  0  0  0
  159.5940  201.1450  149.5190 O   0  0  0  0  0  1  0  0  0  0  0  0
  161.1630  201.8100  147.9810 C   0  0  2  0  0  3  0  0  0  0  0  0
  160.6870  201.9470  146.6730 O   0  0  0  0  0  1  0  0  0  0  0  0
  161.5880  199.6510  147.0160 O   0  0  0  0  0  1  0  0  0  0  0  0
  161.5640  200.3570  148.2200 C   0  0  0  0  0  2  0  0  0  0  0  0
  1 12  1  0  0  0  0
  2  7  1  0  0  0  0
  2  1  2  0  0  0  0
  3  8  2  0  0  0  0
  4 11  2  0  0  0  0
  4  3  1  0  0  0  0
  5  6  1  6  0  0  0
  5  9  1  0  0  0  0
  5 11  1  0  0  0  0
  8  1  1  0  0  0  0
  9 10  1  0  0  0  0
 10 19  1  1  0  0  0
 10  7  1  0  0  0  0
 11  2  1  0  0  0  0
 12 18  2  0  0  0  0
 12 14  1  0  0  0  0
 14 15  2  0  0  0  0
 15 13  1  0  0  0  0
 16 13  2  0  0  0  0
 17 14  1  0  0  0  0
 18 16  1  0  0  0  0
 20 21  1  0  0  0  0
 20 19  1  0  0  0  0
 22 23  1  6  0  0  0
 22 25  1  0  0  0  0
 22 20  1  0  0  0  0
 24 25  1  0  0  0  0
M  END
>  <MODEL>
2

>  <REMARK>
 VINA RESULT:      -7.3      2.310      5.202
  Name = 
  5 active torsions:
  status: ('A' for Active; 'I' for Inactive)
    1  A    between atoms: C_1  and  C_5
    2  A    between atoms: C_2  and  N_15
    3  A    between atoms: C_2  and  C_21
    4  A    between atoms: C_6  and  N_15
    5  A    between atoms: C_6  and  C_23
                            x       y       z     vdW  Elec       q    Type
                         _______ _______ _______ _____ _____    ______ ____

>  <TORSDO>
F 5

$$$$
=
 OpenBabel11052422093D

 25 27  0  0  1  0  0  0  0  0999 V2000
  161.7770  206.5290  148.2800 C   0  0  0  0  0  0  0  0  0  0  0  0
  161.4630  205.7870  149.4420 C   0  0  0  0  0  0  0  0  0  0  0  0
  161.9280  208.5050  149.5810 C   0  0  0  0  0  3  0  0  0  0  0  0
  161.6530  207.8080  150.7110 N   0  0  0  0  0  0  0  0  0  0  0  0
  161.0520  205.7620  151.9650 C   0  0  2  0  0  3  0  0  0  0  0  0
  161.9220  206.2160  153.1240 C   0  0  0  0  0  1  0  0  0  0  0  0
  161.1960  204.3050  149.3640 C   0  0  0  0  0  2  0  0  0  0  0  0
  161.9910  207.8680  148.3870 N   0  0  0  0  0  0  0  0  0  0  0  0
  161.1250  204.2420  151.8640 C   0  0  0  0  0  2  0  0  0  0  0  0
  160.4500  203.7740  150.5830 C   0  0  2  0  0  3  0  0  0  0  0  0
  161.4420  206.4650  150.6830 C   0  0  0  0  0  0  0  0  0  0  0  0
  161.8850  205.9020  146.9400 C   0  0  0  0  0  0  0  0  0  0  0  0
  162.1530  204.7710  144.3800 C   0  0  0  0  0  3  0  0  0  0  0  0
  160.8420  206.0140  145.9980 C   0  0  0  0  0  0  0  0  0  0  0  0
  160.9800  205.4460  144.7260 C   0  0  0  0  0  3  0  0  0  0  0  0
  163.1940  204.6630  145.3030 C   0  0  0  0  0  3  0  0  0  0  0  0
  159.6580  206.6710  146.3150 O   0  0  0  0  0  1  0  0  0  0  0  0
  163.0620  205.2290  146.5730 C   0  0  0  0  0  3  0  0  0  0  0  0
  160.2430  202.2470  150.5580 C   0  0  0  0  0  2  0  0  0  0  0  0
  159.6760  201.6770  149.3210 N   0  0  0  0  0  0  0  0  0  0  0  0
  158.6100  200.8960  149.6260 O   0  0  0  0  0  1  0  0  0  0  0  0
  160.6770  200.8580  148.6300 C   0  0  2  0  0  3  0  0  0  0  0  0
  161.8810  200.8550  149.3420 O   0  0  0  0  0  1  0  0  0  0  0  0
  161.1620  200.3110  146.3410 O   0  0  0  0  0  1  0  0  0  0  0  0
  160.9310  201.3740  147.2160 C   0  0  0  0  0  2  0  0  0  0  0  0
  1  8  2  0  0  0  0
  1  2  1  0  0  0  0
  2 11  2  0  0  0  0
  3  4  2  0  0  0  0
  5  6  1  1  0  0  0
  7  2  1  0  0  0  0
  7 10  1  0  0  0  0
  8  3  1  0  0  0  0
  9  5  1  0  0  0  0
 10 19  1  6  0  0  0
 10  9  1  0  0  0  0
 11  4  1  0  0  0  0
 11  5  1  0  0  0  0
 12  1  1  0  0  0  0
 13 15  2  0  0  0  0
 13 16  1  0  0  0  0
 14 17  1  0  0  0  0
 14 12  2  0  0  0  0
 15 14  1  0  0  0  0
 16 18  2  0  0  0  0
 18 12  1  0  0  0  0
 20 21  1  0  0  0  0
 20 19  1  0  0  0  0
 22 20  1  0  0  0  0
 22 23  1  1  0  0  0
 24 25  1  0  0  0  0
 25 22  1  0  0  0  0
M  END
>  <MODEL>
3

>  <REMARK>
 VINA RESULT:      -7.2      1.004      1.398
  Name = 
  5 active torsions:
  status: ('A' for Active; 'I' for Inactive)
    1  A    between atoms: C_1  and  C_5
    2  A    between atoms: C_2  and  N_15
    3  A    between atoms: C_2  and  C_21
    4  A    between atoms: C_6  and  N_15
    5  A    between atoms: C_6  and  C_23
                            x       y       z     vdW  Elec       q    Type
                         _______ _______ _______ _____ _____    ______ ____

>  <TORSDO>
F 5

$$$$
=
 OpenBabel11052422093D

 25 27  0  0  1  0  0  0  0  0999 V2000
  161.0930  204.9780  149.9680 C   0  0  0  0  0  0  0  0  0  0  0  0
  161.2900  206.0720  150.8420 C   0  0  0  0  0  0  0  0  0  0  0  0
  160.8660  203.5290  151.8310 C   0  0  0  0  0  3  0  0  0  0  0  0
  161.0280  204.5670  152.6860 N   0  0  0  0  0  0  0  0  0  0  0  0
  161.4790  206.9360  153.2400 C   0  0  2  0  0  3  0  0  0  0  0  0
  160.5200  206.8450  154.4140 C   0  0  0  0  0  1  0  0  0  0  0  0
  161.5370  207.4580  150.3020 C   0  0  0  0  0  2  0  0  0  0  0  0
  160.8950  203.7390  150.4920 N   0  0  0  0  0  0  0  0  0  0  0  0
  161.3880  208.3350  152.6400 C   0  0  0  0  0  2  0  0  0  0  0  0
  162.1630  208.3910  151.3330 C   0  0  2  0  0  3  0  0  0  0  0  0
  161.2160  205.8360  152.2340 C   0  0  0  0  0  0  0  0  0  0  0  0
  161.0900  205.1290  148.4920 C   0  0  0  0  0  0  0  0  0  0  0  0
  160.9990  205.4170  145.6970 C   0  0  0  0  0  3  0  0  0  0  0  0
  161.4890  204.0690  147.6520 C   0  0  0  0  0  0  0  0  0  0  0  0
  161.4440  204.2200  146.2620 C   0  0  0  0  0  3  0  0  0  0  0  0
  160.5930  206.4680  146.5210 C   0  0  0  0  0  3  0  0  0  0  0  0
  161.9470  202.8680  148.1830 O   0  0  0  0  0  1  0  0  0  0  0  0
  160.6350  206.3230  147.9090 C   0  0  0  0  0  3  0  0  0  0  0  0
  162.3440  209.8350  150.8230 C   0  0  0  0  0  2  0  0  0  0  0  0
  161.7640  210.1460  149.5030 N   0  0  0  0  0  0  0  0  0  0  0  0
  162.4210  209.4510  148.5420 O   0  0  0  0  0  1  0  0  0  0  0  0
  161.8890  211.5790  149.2150 C   0  0  2  0  0  3  0  0  0  0  0  0
  160.9890  212.3130  149.9950 O   0  0  0  0  0  1  0  0  0  0  0  0
  162.6550  212.6540  147.2070 O   0  0  0  0  0  1  0  0  0  0  0  0
  161.6290  211.8700  147.7400 C   0  0  0  0  0  2  0  0  0  0  0  0
  1  8  2  0  0  0  0
  1  2  1  0  0  0  0
  2 11  2  0  0  0  0
  3  4  2  0  0  0  0
  5  6  1  1  0  0  0
  7  2  1  0  0  0  0
  7 10  1  0  0  0  0
  8  3  1  0  0  0  0
  9  5  1  0  0  0  0
 10 19  1  6  0  0  0
 10  9  1  0  0  0  0
 11  4  1  0  0  0  0
 11  5  1  0  0  0  0
 12  1  1  0  0  0  0
 13 15  2  0  0  0  0
 13 16  1  0  0  0  0
 14 17  1  0  0  0  0
 14 12  2  0  0  0  0
 15 14  1  0  0  0  0
 16 18  2  0  0  0  0
 18 12  1  0  0  0  0
 20 19  1  0  0  0  0
 21 20  1  0  0  0  0
 22 20  1  0  0  0  0
 22 23  1  1  0  0  0
 24 25  1  0  0  0  0
 25 22  1  0  0  0  0
M  END
>  <MODEL>
4

>  <REMARK>
 VINA RESULT:      -7.1      3.092      5.946
  Name = 
  5 active torsions:
  status: ('A' for Active; 'I' for Inactive)
    1  A    between atoms: C_1  and  C_5
    2  A    between atoms: C_2  and  N_15
    3  A    between atoms: C_2  and  C_21
    4  A    between atoms: C_6  and  N_15
    5  A    between atoms: C_6  and  C_23
                            x       y       z     vdW  Elec       q    Type
                         _______ _______ _______ _____ _____    ______ ____

>  <TORSDO>
F 5

$$$$
=
 OpenBabel11052422093D

 25 27  0  0  1  0  0  0  0  0999 V2000
  161.0250  204.8200  148.4370 C   0  0  0  0  0  0  0  0  0  0  0  0
  161.2600  205.9470  149.2570 C   0  0  0  0  0  0  0  0  0  0  0  0
  160.9030  206.2310  146.5340 C   0  0  0  0  0  3  0  0  0  0  0  0
  161.1510  207.3210  147.3000 N   0  0  0  0  0  0  0  0  0  0  0  0
  161.5390  208.4810  149.4510 C   0  0  2  0  0  3  0  0  0  0  0  0
  162.4990  209.4360  148.7640 C   0  0  0  0  0  1  0  0  0  0  0  0
  161.4410  205.7940  150.7470 C   0  0  0  0  0  2  0  0  0  0  0  0
  160.8460  205.0010  147.1000 N   0  0  0  0  0  0  0  0  0  0  0  0
  162.0370  208.2200  150.8690 C   0  0  0  0  0  2  0  0  0  0  0  0
  161.2290  207.0990  151.5050 C   0  0  2  0  0  3  0  0  0  0  0  0
  161.3550  207.2160  148.6410 C   0  0  0  0  0  0  0  0  0  0  0  0
  160.9690  203.4390  148.9760 C   0  0  0  0  0  0  0  0  0  0  0  0
  160.9390  200.8360  150.0360 C   0  0  0  0  0  3  0  0  0  0  0  0
  161.0860  202.3210  148.1240 C   0  0  0  0  0  0  0  0  0  0  0  0
  161.0680  201.0280  148.6590 C   0  0  0  0  0  3  0  0  0  0  0  0
  160.8320  201.9370  150.8860 C   0  0  0  0  0  3  0  0  0  0  0  0
  161.2060  202.4780  146.7480 O   0  0  0  0  0  1  0  0  0  0  0  0
  160.8510  203.2310  150.3590 C   0  0  0  0  0  3  0  0  0  0  0  0
  161.4930  206.9790  153.0200 C   0  0  0  0  0  2  0  0  0  0  0  0
  160.6670  207.8240  153.9030 N   0  0  0  0  0  0  0  0  0  0  0  0
  161.1500  209.0910  153.9030 O   0  0  0  0  0  1  0  0  0  0  0  0
  160.6970  207.3090  155.2760 C   0  0  2  0  0  3  0  0  0  0  0  0
  159.4050  207.2740  155.8120 O   0  0  0  0  0  1  0  0  0  0  0  0
  160.8490  208.7140  157.2200 O   0  0  0  0  0  1  0  0  0  0  0  0
  161.5880  208.1690  156.1680 C   0  0  0  0  0  2  0  0  0  0  0  0
  1 12  1  0  0  0  0
  1  2  1  0  0  0  0
  2  7  1  0  0  0  0
  3  8  1  0  0  0  0
  3  4  2  0  0  0  0
  4 11  1  0  0  0  0
  5  6  1  6  0  0  0
  5  9  1  0  0  0  0
  7 10  1  0  0  0  0
  8  1  2  0  0  0  0
  9 10  1  0  0  0  0
 10 19  1  1  0  0  0
 11  2  2  0  0  0  0
 11  5  1  0  0  0  0
 12 18  1  0  0  0  0
 13 16  1  0  0  0  0
 14 15  1  0  0  0  0
 14 12  2  0  0  0  0
 15 13  2  0  0  0  0
 17 14  1  0  0  0  0
 18 16  2  0  0  0  0
 19 20  1  0  0  0  0
 20 21  1  0  0  0  0
 20 22  1  0  0  0  0
 22 23  1  1  0  0  0
 22 25  1  0  0  0  0
 25 24  1  0  0  0  0
M  END
>  <MODEL>
5

>  <REMARK>
 VINA RESULT:      -7.0      3.700      6.334
  Name = 
  5 active torsions:
  status: ('A' for Active; 'I' for Inactive)
    1  A    between atoms: C_1  and  C_5
    2  A    between atoms: C_2  and  N_15
    3  A    between atoms: C_2  and  C_21
    4  A    between atoms: C_6  and  N_15
    5  A    between atoms: C_6  and  C_23
                            x       y       z     vdW  Elec       q    Type
                         _______ _______ _______ _____ _____    ______ ____

>  <TORSDO>
F 5

$$$$
=
 OpenBabel11052422093D

 25 27  0  0  1  0  0  0  0  0999 V2000
  161.3580  207.3590  151.7720 C   0  0  0  0  0  0  0  0  0  0  0  0
  161.2660  206.1670  151.0180 C   0  0  0  0  0  0  0  0  0  0  0  0
  161.1840  206.1040  153.7770 C   0  0  0  0  0  3  0  0  0  0  0  0
  161.1180  204.9480  153.0720 N   0  0  0  0  0  0  0  0  0  0  0  0
  161.0110  203.6240  150.9850 C   0  0  2  0  0  3  0  0  0  0  0  0
  161.8360  202.5280  151.6360 C   0  0  0  0  0  1  0  0  0  0  0  0
  161.2960  206.2030  149.5100 C   0  0  0  0  0  2  0  0  0  0  0  0
  161.3060  207.2880  153.1300 N   0  0  0  0  0  0  0  0  0  0  0  0
  161.3800  203.7030  149.5070 C   0  0  0  0  0  2  0  0  0  0  0  0
  160.7410  204.9320  148.8770 C   0  0  2  0  0  3  0  0  0  0  0  0
  161.1780  204.9400  151.7140 C   0  0  0  0  0  0  0  0  0  0  0  0
  161.5150  208.6920  151.1410 C   0  0  0  0  0  0  0  0  0  0  0  0
  161.8960  211.2110  149.9530 C   0  0  0  0  0  3  0  0  0  0  0  0
  161.0870  209.8640  151.7990 C   0  0  0  0  0  0  0  0  0  0  0  0
  161.2770  211.1140  151.2010 C   0  0  0  0  0  3  0  0  0  0  0  0
  162.3310  210.0580  149.2990 C   0  0  0  0  0  3  0  0  0  0  0  0
  160.4580  209.7990  153.0370 O   0  0  0  0  0  1  0  0  0  0  0  0
  162.1450  208.8070  149.8910 C   0  0  0  0  0  3  0  0  0  0  0  0
  160.8430  204.9170  147.3390 C   0  0  0  0  0  2  0  0  0  0  0  0
  161.9810  204.1780  146.7600 N   0  0  0  0  0  0  0  0  0  0  0  0
  162.9710  205.0470  146.4370 O   0  0  0  0  0  1  0  0  0  0  0  0
  161.5640  203.4680  145.5460 C   0  0  2  0  0  3  0  0  0  0  0  0
  160.7280  204.2780  144.7700 O   0  0  0  0  0  1  0  0  0  0  0  0
  159.9160  201.8480  144.8860 O   0  0  0  0  0  1  0  0  0  0  0  0
  160.8310  202.1730  145.8880 C   0  0  0  0  0  2  0  0  0  0  0  0
  1  8  1  0  0  0  0
  2 11  1  0  0  0  0
  2  1  2  0  0  0  0
  4  3  1  0  0  0  0
  5  6  1  1  0  0  0
  5 11  1  0  0  0  0
  7  2  1  0  0  0  0
  8  3  2  0  0  0  0
  9  5  1  0  0  0  0
 10 19  1  6  0  0  0
 10  9  1  0  0  0  0
 10  7  1  0  0  0  0
 11  4  2  0  0  0  0
 12  1  1  0  0  0  0
 12 14  1  0  0  0  0
 13 15  1  0  0  0  0
 14 17  1  0  0  0  0
 15 14  2  0  0  0  0
 16 18  1  0  0  0  0
 16 13  2  0  0  0  0
 18 12  2  0  0  0  0
 20 19  1  0  0  0  0
 21 20  1  0  0  0  0
 22 23  1  1  0  0  0
 22 25  1  0  0  0  0
 22 20  1  0  0  0  0
 24 25  1  0  0  0  0
M  END
>  <MODEL>
6

>  <REMARK>
 VINA RESULT:      -6.9      2.547      4.898
  Name = 
  5 active torsions:
  status: ('A' for Active; 'I' for Inactive)
    1  A    between atoms: C_1  and  C_5
    2  A    between atoms: C_2  and  N_15
    3  A    between atoms: C_2  and  C_21
    4  A    between atoms: C_6  and  N_15
    5  A    between atoms: C_6  and  C_23
                            x       y       z     vdW  Elec       q    Type
                         _______ _______ _______ _____ _____    ______ ____

>  <TORSDO>
F 5

$$$$
=
 OpenBabel11052422093D

 25 27  0  0  1  0  0  0  0  0999 V2000
  161.2280  205.9030  151.8420 C   0  0  0  0  0  0  0  0  0  0  0  0
  161.1750  205.1310  150.6590 C   0  0  0  0  0  0  0  0  0  0  0  0
  160.8250  203.9540  153.1320 C   0  0  0  0  0  3  0  0  0  0  0  0
  160.7950  203.1930  152.0110 N   0  0  0  0  0  0  0  0  0  0  0  0
  160.8540  202.8450  149.5620 C   0  0  2  0  0  3  0  0  0  0  0  0
  161.5810  201.5280  149.7660 C   0  0  0  0  0  1  0  0  0  0  0  0
  161.3520  205.7760  149.3070 C   0  0  0  0  0  2  0  0  0  0  0  0
  161.0420  205.2880  153.0420 N   0  0  0  0  0  0  0  0  0  0  0  0
  161.3670  203.4950  148.2810 C   0  0  0  0  0  2  0  0  0  0  0  0
  160.8270  204.9130  148.1660 C   0  0  2  0  0  3  0  0  0  0  0  0
  160.9870  203.7350  150.7790 C   0  0  0  0  0  0  0  0  0  0  0  0
  161.4810  207.3650  151.8300 C   0  0  0  0  0  0  0  0  0  0  0  0
  162.0470  210.1180  151.8040 C   0  0  0  0  0  3  0  0  0  0  0  0
  161.2060  208.1600  152.9620 C   0  0  0  0  0  0  0  0  0  0  0  0
  161.4870  209.5310  152.9410 C   0  0  0  0  0  3  0  0  0  0  0  0
  162.3310  209.3360  150.6840 C   0  0  0  0  0  3  0  0  0  0  0  0
  160.6400  207.6070  154.1040 O   0  0  0  0  0  1  0  0  0  0  0  0
  162.0540  207.9680  150.6990 C   0  0  0  0  0  3  0  0  0  0  0  0
  161.0760  205.5200  146.7720 C   0  0  0  0  0  2  0  0  0  0  0  0
  161.9010  204.7240  145.8430 N   0  0  0  0  0  0  0  0  0  0  0  0
  163.1260  205.2940  145.7190 O   0  0  0  0  0  1  0  0  0  0  0  0
  161.2720  204.6690  144.5200 C   0  0  2  0  0  3  0  0  0  0  0  0
  160.8310  205.9400  144.1360 O   0  0  0  0  0  1  0  0  0  0  0  0
  160.4550  202.4760  145.0640 O   0  0  0  0  0  1  0  0  0  0  0  0
  160.0890  203.7040  144.5110 C   0  0  0  0  0  2  0  0  0  0  0  0
  1  8  1  0  0  0  0
  2 11  1  0  0  0  0
  2  1  2  0  0  0  0
  4  3  1  0  0  0  0
  5  6  1  1  0  0  0
  5 11  1  0  0  0  0
  7  2  1  0  0  0  0
  8  3  2  0  0  0  0
  9  5  1  0  0  0  0
 10 19  1  6  0  0  0
 10  9  1  0  0  0  0
 10  7  1  0  0  0  0
 11  4  2  0  0  0  0
 12  1  1  0  0  0  0
 12 14  1  0  0  0  0
 13 15  1  0  0  0  0
 14 17  1  0  0  0  0
 15 14  2  0  0  0  0
 16 18  1  0  0  0  0
 16 13  2  0  0  0  0
 18 12  2  0  0  0  0
 20 19  1  0  0  0  0
 21 20  1  0  0  0  0
 22 23  1  1  0  0  0
 22 20  1  0  0  0  0
 25 22  1  0  0  0  0
 25 24  1  0  0  0  0
M  END
>  <MODEL>
7

>  <REMARK>
 VINA RESULT:      -6.9      2.641      5.526
  Name = 
  5 active torsions:
  status: ('A' for Active; 'I' for Inactive)
    1  A    between atoms: C_1  and  C_5
    2  A    between atoms: C_2  and  N_15
    3  A    between atoms: C_2  and  C_21
    4  A    between atoms: C_6  and  N_15
    5  A    between atoms: C_6  and  C_23
                            x       y       z     vdW  Elec       q    Type
                         _______ _______ _______ _____ _____    ______ ____

>  <TORSDO>
F 5

$$$$
=
 OpenBabel11052422093D

 25 27  0  0  1  0  0  0  0  0999 V2000
  161.2620  205.6150  149.3210 C   0  0  0  0  0  0  0  0  0  0  0  0
  161.3180  206.5840  150.3500 C   0  0  0  0  0  0  0  0  0  0  0  0
  161.5020  207.3270  147.6970 C   0  0  0  0  0  3  0  0  0  0  0  0
  161.5820  208.2680  148.6690 N   0  0  0  0  0  0  0  0  0  0  0  0
  161.5250  209.0420  151.0180 C   0  0  2  0  0  3  0  0  0  0  0  0
  162.5910  210.0770  150.7040 C   0  0  0  0  0  1  0  0  0  0  0  0
  161.2030  206.1800  151.7990 C   0  0  0  0  0  2  0  0  0  0  0  0
  161.3480  206.0210  148.0260 N   0  0  0  0  0  0  0  0  0  0  0  0
  161.7370  208.5370  152.4420 C   0  0  0  0  0  2  0  0  0  0  0  0
  160.8320  207.3440  152.7090 C   0  0  2  0  0  3  0  0  0  0  0  0
  161.5180  207.9350  149.9860 C   0  0  0  0  0  0  0  0  0  0  0  0
  161.1160  204.1660  149.5990 C   0  0  0  0  0  0  0  0  0  0  0  0
  160.9150  201.4200  150.1670 C   0  0  0  0  0  3  0  0  0  0  0  0
  161.2070  203.2140  148.5620 C   0  0  0  0  0  0  0  0  0  0  0  0
  161.1030  201.8490  148.8510 C   0  0  0  0  0  3  0  0  0  0  0  0
  160.8330  202.3540  151.2000 C   0  0  0  0  0  3  0  0  0  0  0  0
  161.3840  203.6100  147.2410 O   0  0  0  0  0  1  0  0  0  0  0  0
  160.9380  203.7180  150.9180 C   0  0  0  0  0  3  0  0  0  0  0  0
  160.7930  206.9660  154.2030 C   0  0  0  0  0  2  0  0  0  0  0  0
  161.2090  208.0100  155.1600 N   0  0  0  0  0  0  0  0  0  0  0  0
  161.9550  207.4530  156.1450 O   0  0  0  0  0  1  0  0  0  0  0  0
  160.0330  208.6480  155.7630 C   0  0  2  0  0  3  0  0  0  0  0  0
  159.6420  209.7600  155.0110 O   0  0  0  0  0  1  0  0  0  0  0  0
  160.9790  210.3150  157.2120 O   0  0  0  0  0  1  0  0  0  0  0  0
  160.3190  209.0860  157.1970 C   0  0  0  0  0  2  0  0  0  0  0  0
  1 12  1  0  0  0  0
  1  2  1  0  0  0  0
  2  7  1  0  0  0  0
  3  8  1  0  0  0  0
  3  4  2  0  0  0  0
  4 11  1  0  0  0  0
  5  6  1  6  0  0  0
  5  9  1  0  0  0  0
  7 10  1  0  0  0  0
  8  1  2  0  0  0  0
  9 10  1  0  0  0  0
 10 19  1  1  0  0  0
 11  2  2  0  0  0  0
 11  5  1  0  0  0  0
 12 18  1  0  0  0  0
 13 16  1  0  0  0  0
 14 15  1  0  0  0  0
 14 12  2  0  0  0  0
 15 13  2  0  0  0  0
 17 14  1  0  0  0  0
 18 16  2  0  0  0  0
 19 20  1  0  0  0  0
 20 22  1  0  0  0  0
 20 21  1  0  0  0  0
 22 23  1  6  0  0  0
 22 25  1  0  0  0  0
 25 24  1  0  0  0  0
M  END
>  <MODEL>
8

>  <REMARK>
 VINA RESULT:      -6.8      4.206      6.652
  Name = 
  5 active torsions:
  status: ('A' for Active; 'I' for Inactive)
    1  A    between atoms: C_1  and  C_5
    2  A    between atoms: C_2  and  N_15
    3  A    between atoms: C_2  and  C_21
    4  A    between atoms: C_6  and  N_15
    5  A    between atoms: C_6  and  C_23
                            x       y       z     vdW  Elec       q    Type
                         _______ _______ _______ _____ _____    ______ ____

>  <TORSDO>
F 5

$$$$
=
 OpenBabel11052422093D

 25 27  0  0  1  0  0  0  0  0999 V2000
  161.3630  203.2580  147.6260 C   0  0  0  0  0  0  0  0  0  0  0  0
  161.2030  203.8980  148.8760 C   0  0  0  0  0  0  0  0  0  0  0  0
  161.4650  201.1540  148.7160 C   0  0  0  0  0  3  0  0  0  0  0  0
  161.2880  201.7460  149.9220 N   0  0  0  0  0  0  0  0  0  0  0  0
  161.0270  203.6990  151.4190 C   0  0  2  0  0  3  0  0  0  0  0  0
  160.0780  202.9010  152.2950 C   0  0  0  0  0  1  0  0  0  0  0  0
  161.0740  205.3980  148.9660 C   0  0  0  0  0  2  0  0  0  0  0  0
  161.4970  201.9050  147.5880 N   0  0  0  0  0  0  0  0  0  0  0  0
  160.5740  205.1550  151.4040 C   0  0  0  0  0  2  0  0  0  0  0  0
  161.3630  205.9340  150.3630 C   0  0  2  0  0  3  0  0  0  0  0  0
  161.1320  203.0930  150.0360 C   0  0  0  0  0  0  0  0  0  0  0  0
  161.3870  204.0060  146.3450 C   0  0  0  0  0  0  0  0  0  0  0  0
  161.4330  205.3480  143.8760 C   0  0  0  0  0  3  0  0  0  0  0  0
  162.5270  204.7370  145.9520 C   0  0  0  0  0  0  0  0  0  0  0  0
  162.5420  205.4060  144.7230 C   0  0  0  0  0  3  0  0  0  0  0  0
  160.3050  204.6190  144.2530 C   0  0  0  0  0  3  0  0  0  0  0  0
  163.6430  204.8220  146.7770 O   0  0  0  0  0  1  0  0  0  0  0  0
  160.2840  203.9490  145.4780 C   0  0  0  0  0  3  0  0  0  0  0  0
  161.1540  207.4560  150.4910 C   0  0  0  0  0  2  0  0  0  0  0  0
  162.2040  208.2100  151.2020 N   0  0  0  0  0  0  0  0  0  0  0  0
  161.9080  208.2670  152.5250 O   0  0  0  0  0  1  0  0  0  0  0  0
  162.2930  209.5770  150.6810 C   0  0  2  0  0  3  0  0  0  0  0  0
  161.4040  210.4170  151.3590 O   0  0  0  0  0  1  0  0  0  0  0  0
  162.3110  210.8660  148.6530 O   0  0  0  0  0  1  0  0  0  0  0  0
  161.9830  209.6190  149.1870 C   0  0  0  0  0  2  0  0  0  0  0  0
  1  2  1  0  0  0  0
  2  7  1  0  0  0  0
  2 11  2  0  0  0  0
  3  4  2  0  0  0  0
  4 11  1  0  0  0  0
  5  6  1  1  0  0  0
  7 10  1  0  0  0  0
  8  1  2  0  0  0  0
  8  3  1  0  0  0  0
  9  5  1  0  0  0  0
 10 19  1  6  0  0  0
 10  9  1  0  0  0  0
 11  5  1  0  0  0  0
 12  1  1  0  0  0  0
 13 16  2  0  0  0  0
 13 15  1  0  0  0  0
 14 12  1  0  0  0  0
 14 17  1  0  0  0  0
 15 14  2  0  0  0  0
 16 18  1  0  0  0  0
 18 12  2  0  0  0  0
 19 20  1  0  0  0  0
 20 21  1  0  0  0  0
 22 20  1  0  0  0  0
 22 23  1  1  0  0  0
 24 25  1  0  0  0  0
 25 22  1  0  0  0  0
M  END
>  <MODEL>
9

>  <REMARK>
 VINA RESULT:      -6.6      2.590      5.306
  Name = 
  5 active torsions:
  status: ('A' for Active; 'I' for Inactive)
    1  A    between atoms: C_1  and  C_5
    2  A    between atoms: C_2  and  N_15
    3  A    between atoms: C_2  and  C_21
    4  A    between atoms: C_6  and  N_15
    5  A    between atoms: C_6  and  C_23
                            x       y       z     vdW  Elec       q    Type
                         _______ _______ _______ _____ _____    ______ ____

>  <TORSDO>
F 5

$$$$
