=
 OpenBabel11052422093D

 25 28  0  0  1  0  0  0  0  0999 V2000
  161.4290  205.5700  149.2260 C   0  0  0  0  0  0  0  0  0  0  0  0
  161.3910  206.5460  150.2440 C   0  0  0  0  0  0  0  0  0  0  0  0
  162.0110  207.3030  147.6410 C   0  0  0  0  0  3  0  0  0  0  0  0
  161.9700  208.2300  148.6330 N   0  0  0  0  0  0  0  0  0  0  0  0
  161.6270  208.8780  150.9170 C   0  0  0  0  0  0  0  0  0  0  0  0
  161.9640  210.5620  150.5530 Cl  0  0  0  0  0  0  0  0  0  0  0  0
  161.0630  206.2160  151.5670 C   0  0  0  0  0  3  0  0  0  0  0  0
  161.7450  205.9630  147.9200 C   0  0  0  0  0  3  0  0  0  0  0  0
  161.3050  208.5240  152.2300 C   0  0  0  0  0  3  0  0  0  0  0  0
  161.0290  207.1960  152.5660 C   0  0  0  0  0  0  0  0  0  0  0  0
  161.6700  207.8940  149.9170 C   0  0  0  0  0  0  0  0  0  0  0  0
  161.1780  204.1370  149.4980 C   0  0  0  0  0  0  0  0  0  0  0  0
  160.7170  201.4330  150.0960 C   0  0  0  0  0  3  0  0  0  0  0  0
  161.1550  203.1740  148.4660 C   0  0  0  0  0  0  0  0  0  0  0  0
  160.9220  201.8310  148.7730 C   0  0  0  0  0  3  0  0  0  0  0  0
  160.7390  202.3800  151.1200 C   0  0  0  0  0  3  0  0  0  0  0  0
  161.3630  203.6140  146.7760 Cl  0  0  0  0  0  0  0  0  0  0  0  0
  160.9690  203.7240  150.8220 C   0  0  0  0  0  3  0  0  0  0  0  0
  160.6750  206.8880  153.9220 N   0  0  0  0  0  2  0  0  0  0  0  0
  160.9530  207.6600  155.1000 C   0  0  0  0  0  0  0  0  0  0  0  0
  160.7670  207.1280  156.2270 O   0  0  0  0  0  0  0  0  0  0  0  0
  161.4680  209.0760  155.0290 C   0  0  2  0  0  3  0  0  0  0  0  0
  159.1610  209.5910  155.6440 O   0  0  0  0  0  1  0  0  0  0  0  0
  161.4110  209.7560  156.3850 C   0  0  0  0  0  2  0  0  0  0  0  0
  160.4050  210.1420  155.3250 C   0  0  1  0  0  3  0  0  0  0  0  0
  1 12  1  0  0  0  0
  1  2  1  0  0  0  0
  2  7  1  0  0  0  0
  3  8  1  0  0  0  0
  3  4  2  0  0  0  0
  4 11  1  0  0  0  0
  5  9  2  0  0  0  0
  6  5  1  0  0  0  0
  7 10  2  0  0  0  0
  8  1  2  0  0  0  0
  9 10  1  0  0  0  0
 10 19  1  0  0  0  0
 11  2  2  0  0  0  0
 11  5  1  0  0  0  0
 12 18  1  0  0  0  0
 13 16  1  0  0  0  0
 14 15  1  0  0  0  0
 14 12  2  0  0  0  0
 15 13  2  0  0  0  0
 17 14  1  0  0  0  0
 18 16  2  0  0  0  0
 19 20  1  0  0  0  0
 20 21  2  0  0  0  0
 22 20  1  1  0  0  0
 22 25  1  0  0  0  0
 22 24  1  0  0  0  0
 25 23  1  1  0  0  0
 25 24  1  0  0  0  0
M  END
>  <MODEL>
1

>  <REMARK>
 VINA RESULT:      -9.8      0.000      0.000
  Name = 
  3 active torsions:
  status: ('A' for Active; 'I' for Inactive)
    1  A    between atoms: C_1  and  C_5
    2  A    between atoms: C_2  and  C_15
    3  A    between atoms: N_6  and  C_23
                            x       y       z     vdW  Elec       q    Type
                         _______ _______ _______ _____ _____    ______ ____

>  <TORSDO>
F 3

$$$$
=
 OpenBabel11052422093D

 25 28  0  0  1  0  0  0  0  0999 V2000
  161.2330  204.0730  149.2760 C   0  0  0  0  0  0  0  0  0  0  0  0
  161.3740  205.0970  150.2360 C   0  0  0  0  0  0  0  0  0  0  0  0
  160.6980  202.5270  151.0590 C   0  0  0  0  0  3  0  0  0  0  0  0
  160.8380  203.5240  151.9710 N   0  0  0  0  0  0  0  0  0  0  0  0
  161.3140  205.7980  152.5710 C   0  0  0  0  0  0  0  0  0  0  0  0
  161.0700  205.4610  154.2780 Cl  0  0  0  0  0  0  0  0  0  0  0  0
  161.7330  206.4020  149.8730 C   0  0  0  0  0  3  0  0  0  0  0  0
  160.8900  202.7850  149.7020 C   0  0  0  0  0  3  0  0  0  0  0  0
  161.6660  207.0930  152.1850 C   0  0  0  0  0  3  0  0  0  0  0  0
  161.8710  207.4070  150.8380 C   0  0  0  0  0  0  0  0  0  0  0  0
  161.1680  204.7920  151.6030 C   0  0  0  0  0  0  0  0  0  0  0  0
  161.4030  204.3240  147.8270 C   0  0  0  0  0  0  0  0  0  0  0  0
  161.7210  204.8800  145.0940 C   0  0  0  0  0  3  0  0  0  0  0  0
  161.2470  203.2980  146.8700 C   0  0  0  0  0  0  0  0  0  0  0  0
  161.4100  203.5840  145.5110 C   0  0  0  0  0  3  0  0  0  0  0  0
  161.8760  205.8970  146.0360 C   0  0  0  0  0  3  0  0  0  0  0  0
  160.9000  201.6360  147.3300 Cl  0  0  0  0  0  0  0  0  0  0  0  0
  161.7170  205.6200  147.3950 C   0  0  0  0  0  3  0  0  0  0  0  0
  162.2590  208.7440  150.4940 N   0  0  0  0  0  2  0  0  0  0  0  0
  161.6220  209.9720  150.8810 C   0  0  0  0  0  0  0  0  0  0  0  0
  161.9650  211.0370  150.3030 O   0  0  0  0  0  0  0  0  0  0  0  0
  160.5540  210.0210  151.9450 C   0  0  2  0  0  3  0  0  0  0  0  0
  162.4810  210.4260  153.3890 O   0  0  0  0  0  1  0  0  0  0  0  0
  160.4690  211.3960  152.5830 C   0  0  0  0  0  2  0  0  0  0  0  0
  161.0940  210.2610  153.3620 C   0  0  1  0  0  3  0  0  0  0  0  0
  1  8  2  0  0  0  0
  1  2  1  0  0  0  0
  2 11  1  0  0  0  0
  3  4  2  0  0  0  0
  5  6  1  0  0  0  0
  7  2  2  0  0  0  0
  7 10  1  0  0  0  0
  8  3  1  0  0  0  0
  9  5  1  0  0  0  0
 10  9  2  0  0  0  0
 11  4  1  0  0  0  0
 11  5  2  0  0  0  0
 12  1  1  0  0  0  0
 13 15  2  0  0  0  0
 13 16  1  0  0  0  0
 14 17  1  0  0  0  0
 14 12  2  0  0  0  0
 15 14  1  0  0  0  0
 16 18  2  0  0  0  0
 18 12  1  0  0  0  0
 19 10  1  0  0  0  0
 19 20  1  0  0  0  0
 21 20  2  0  0  0  0
 22 20  1  6  0  0  0
 22 24  1  0  0  0  0
 22 25  1  0  0  0  0
 24 25  1  0  0  0  0
 25 23  1  6  0  0  0
M  END
>  <MODEL>
2

>  <REMARK>
 VINA RESULT:      -9.4      2.618      4.123
  Name = 
  3 active torsions:
  status: ('A' for Active; 'I' for Inactive)
    1  A    between atoms: C_1  and  C_5
    2  A    between atoms: C_2  and  C_15
    3  A    between atoms: N_6  and  C_23
                            x       y       z     vdW  Elec       q    Type
                         _______ _______ _______ _____ _____    ______ ____

>  <TORSDO>
F 3

$$$$
=
 OpenBabel11052422093D

 25 28  0  0  1  0  0  0  0  0999 V2000
  161.6380  206.7800  148.3110 C   0  0  0  0  0  0  0  0  0  0  0  0
  161.4370  206.0300  149.4890 C   0  0  0  0  0  0  0  0  0  0  0  0
  162.2530  208.6820  149.6740 C   0  0  0  0  0  3  0  0  0  0  0  0
  162.0540  207.9470  150.7980 N   0  0  0  0  0  0  0  0  0  0  0  0
  161.4500  205.9170  151.9250 C   0  0  0  0  0  0  0  0  0  0  0  0
  161.7070  206.6450  153.5020 Cl  0  0  0  0  0  0  0  0  0  0  0  0
  161.0060  204.6960  149.4470 C   0  0  0  0  0  3  0  0  0  0  0  0
  162.0510  208.1130  148.4170 C   0  0  0  0  0  3  0  0  0  0  0  0
  161.0270  204.5870  151.8590 C   0  0  0  0  0  3  0  0  0  0  0  0
  160.8090  203.9660  150.6250 C   0  0  0  0  0  0  0  0  0  0  0  0
  161.6550  206.6470  150.7440 C   0  0  0  0  0  0  0  0  0  0  0  0
  161.4580  206.1930  146.9640 C   0  0  0  0  0  0  0  0  0  0  0  0
  161.0360  205.1000  144.4120 C   0  0  0  0  0  3  0  0  0  0  0  0
  162.4250  205.3420  146.3860 C   0  0  0  0  0  0  0  0  0  0  0  0
  162.2070  204.8050  145.1140 C   0  0  0  0  0  3  0  0  0  0  0  0
  160.0770  205.9400  144.9790 C   0  0  0  0  0  3  0  0  0  0  0  0
  163.9400  204.9650  147.1950 Cl  0  0  0  0  0  0  0  0  0  0  0  0
  160.2880  206.4830  146.2480 C   0  0  0  0  0  3  0  0  0  0  0  0
  160.3480  202.6080  150.6100 N   0  0  0  0  0  2  0  0  0  0  0  0
  160.0820  201.7810  149.4670 C   0  0  0  0  0  0  0  0  0  0  0  0
  159.4690  200.6940  149.6380 O   0  0  0  0  0  0  0  0  0  0  0  0
  160.5040  202.1790  148.0750 C   0  0  2  0  0  3  0  0  0  0  0  0
  162.0110  200.2770  148.3480 O   0  0  0  0  0  1  0  0  0  0  0  0
  160.1850  201.0900  147.0650 C   0  0  0  0  0  2  0  0  0  0  0  0
  161.6210  201.3060  147.4870 C   0  0  1  0  0  3  0  0  0  0  0  0
  1  8  2  0  0  0  0
  1  2  1  0  0  0  0
  2 11  1  0  0  0  0
  3  4  2  0  0  0  0
  5  6  1  0  0  0  0
  7  2  2  0  0  0  0
  7 10  1  0  0  0  0
  8  3  1  0  0  0  0
  9  5  1  0  0  0  0
 10  9  2  0  0  0  0
 11  4  1  0  0  0  0
 11  5  2  0  0  0  0
 12  1  1  0  0  0  0
 13 16  2  0  0  0  0
 13 15  1  0  0  0  0
 14 12  1  0  0  0  0
 14 17  1  0  0  0  0
 15 14  2  0  0  0  0
 16 18  1  0  0  0  0
 18 12  2  0  0  0  0
 19 10  1  0  0  0  0
 20 21  2  0  0  0  0
 20 19  1  0  0  0  0
 22 20  1  1  0  0  0
 24 25  1  0  0  0  0
 24 22  1  0  0  0  0
 25 22  1  0  0  0  0
 25 23  1  1  0  0  0
M  END
>  <MODEL>
3

>  <REMARK>
 VINA RESULT:      -9.4      3.850      6.337
  Name = 
  3 active torsions:
  status: ('A' for Active; 'I' for Inactive)
    1  A    between atoms: C_1  and  C_5
    2  A    between atoms: C_2  and  C_15
    3  A    between atoms: N_6  and  C_23
                            x       y       z     vdW  Elec       q    Type
                         _______ _______ _______ _____ _____    ______ ____

>  <TORSDO>
F 3

$$$$
=
 OpenBabel11052422093D

 25 28  0  0  1  0  0  0  0  0999 V2000
  161.2370  208.0080  152.3330 C   0  0  0  0  0  0  0  0  0  0  0  0
  161.0480  206.9080  151.4700 C   0  0  0  0  0  0  0  0  0  0  0  0
  161.6290  206.4620  154.1530 C   0  0  0  0  0  3  0  0  0  0  0  0
  161.4430  205.4140  153.3100 N   0  0  0  0  0  0  0  0  0  0  0  0
  160.9620  204.4920  151.1480 C   0  0  0  0  0  0  0  0  0  0  0  0
  161.0860  202.8490  151.7550 Cl  0  0  0  0  0  0  0  0  0  0  0  0
  160.7320  207.0810  150.1150 C   0  0  0  0  0  3  0  0  0  0  0  0
  161.5320  207.7700  153.6810 C   0  0  0  0  0  3  0  0  0  0  0  0
  160.6550  204.6900  149.7990 C   0  0  0  0  0  3  0  0  0  0  0  0
  160.5450  205.9800  149.2720 C   0  0  0  0  0  0  0  0  0  0  0  0
  161.1570  205.5960  151.9920 C   0  0  0  0  0  0  0  0  0  0  0  0
  161.1670  209.4060  151.8530 C   0  0  0  0  0  0  0  0  0  0  0  0
  161.1020  212.0450  150.8970 C   0  0  0  0  0  3  0  0  0  0  0  0
  160.3890  210.3820  152.5120 C   0  0  0  0  0  0  0  0  0  0  0  0
  160.3600  211.6930  152.0270 C   0  0  0  0  0  3  0  0  0  0  0  0
  161.8730  211.0840  150.2420 C   0  0  0  0  0  3  0  0  0  0  0  0
  159.3980  209.9960  153.9130 Cl  0  0  0  0  0  0  0  0  0  0  0  0
  161.9050  209.7720  150.7190 C   0  0  0  0  0  3  0  0  0  0  0  0
  160.2000  206.1300  147.8880 N   0  0  0  0  0  2  0  0  0  0  0  0
  161.0740  206.0610  146.7510 C   0  0  0  0  0  0  0  0  0  0  0  0
  160.6390  206.4420  145.6320 O   0  0  0  0  0  0  0  0  0  0  0  0
  162.4930  205.5600  146.8590 C   0  0  2  0  0  3  0  0  0  0  0  0
  161.4020  203.4010  146.5210 O   0  0  0  0  0  1  0  0  0  0  0  0
  162.9560  204.9200  145.5620 C   0  0  0  0  0  2  0  0  0  0  0  0
  162.6270  204.0350  146.7440 C   0  0  1  0  0  3  0  0  0  0  0  0
  1  8  1  0  0  0  0
  2 11  1  0  0  0  0
  2  1  2  0  0  0  0
  4  3  1  0  0  0  0
  5  6  1  0  0  0  0
  5 11  1  0  0  0  0
  7  2  1  0  0  0  0
  8  3  2  0  0  0  0
  9  5  2  0  0  0  0
 10  9  1  0  0  0  0
 10  7  2  0  0  0  0
 11  4  2  0  0  0  0
 12  1  1  0  0  0  0
 12 14  1  0  0  0  0
 13 15  1  0  0  0  0
 14 17  1  0  0  0  0
 15 14  2  0  0  0  0
 16 18  1  0  0  0  0
 16 13  2  0  0  0  0
 18 12  2  0  0  0  0
 19 10  1  0  0  0  0
 20 19  1  0  0  0  0
 21 20  2  0  0  0  0
 22 20  1  6  0  0  0
 24 25  1  0  0  0  0
 24 22  1  0  0  0  0
 25 23  1  6  0  0  0
 25 22  1  0  0  0  0
M  END
>  <MODEL>
4

>  <REMARK>
 VINA RESULT:      -9.3      3.697      7.688
  Name = 
  3 active torsions:
  status: ('A' for Active; 'I' for Inactive)
    1  A    between atoms: C_1  and  C_5
    2  A    between atoms: C_2  and  C_15
    3  A    between atoms: N_6  and  C_23
                            x       y       z     vdW  Elec       q    Type
                         _______ _______ _______ _____ _____    ______ ____

>  <TORSDO>
F 3

$$$$
=
 OpenBabel11052422093D

 25 28  0  0  1  0  0  0  0  0999 V2000
  161.3920  205.9400  151.1780 C   0  0  0  0  0  0  0  0  0  0  0  0
  161.1970  207.0240  152.0610 C   0  0  0  0  0  0  0  0  0  0  0  0
  161.2060  204.4270  153.0580 C   0  0  0  0  0  3  0  0  0  0  0  0
  161.0210  205.4810  153.8940 N   0  0  0  0  0  0  0  0  0  0  0  0
  160.8260  207.8320  154.3310 C   0  0  0  0  0  0  0  0  0  0  0  0
  160.5930  207.5550  156.0490 Cl  0  0  0  0  0  0  0  0  0  0  0  0
  161.2060  208.3510  151.6090 C   0  0  0  0  0  3  0  0  0  0  0  0
  161.3920  204.6380  151.6920 C   0  0  0  0  0  3  0  0  0  0  0  0
  160.8310  209.1460  153.8570 C   0  0  0  0  0  3  0  0  0  0  0  0
  161.0130  209.4150  152.4970 C   0  0  0  0  0  0  0  0  0  0  0  0
  161.0110  206.7640  153.4400 C   0  0  0  0  0  0  0  0  0  0  0  0
  161.5640  206.1320  149.7210 C   0  0  0  0  0  0  0  0  0  0  0  0
  161.8990  206.5780  146.9700 C   0  0  0  0  0  3  0  0  0  0  0  0
  161.2060  205.1330  148.7900 C   0  0  0  0  0  0  0  0  0  0  0  0
  161.3790  205.3630  147.4220 C   0  0  0  0  0  3  0  0  0  0  0  0
  162.2540  207.5690  147.8850 C   0  0  0  0  0  3  0  0  0  0  0  0
  160.5870  203.5660  149.2930 Cl  0  0  0  0  0  0  0  0  0  0  0  0
  162.0870  207.3460  149.2540 C   0  0  0  0  0  3  0  0  0  0  0  0
  161.0390  210.7820  152.0630 N   0  0  0  0  0  2  0  0  0  0  0  0
  159.9550  211.7240  152.0560 C   0  0  0  0  0  0  0  0  0  0  0  0
  160.1020  212.8080  151.4320 O   0  0  0  0  0  0  0  0  0  0  0  0
  158.6500  211.4500  152.7610 C   0  0  2  0  0  3  0  0  0  0  0  0
  159.7960  212.5660  154.6060 O   0  0  0  0  0  1  0  0  0  0  0  0
  157.9400  212.7390  153.1360 C   0  0  0  0  0  2  0  0  0  0  0  0
  158.6150  211.9280  154.2190 C   0  0  1  0  0  3  0  0  0  0  0  0
  1  8  2  0  0  0  0
  1  2  1  0  0  0  0
  2 11  1  0  0  0  0
  3  4  2  0  0  0  0
  5  6  1  0  0  0  0
  7  2  2  0  0  0  0
  7 10  1  0  0  0  0
  8  3  1  0  0  0  0
  9  5  1  0  0  0  0
 10  9  2  0  0  0  0
 11  4  1  0  0  0  0
 11  5  2  0  0  0  0
 12  1  1  0  0  0  0
 13 15  2  0  0  0  0
 13 16  1  0  0  0  0
 14 17  1  0  0  0  0
 14 12  2  0  0  0  0
 15 14  1  0  0  0  0
 16 18  2  0  0  0  0
 18 12  1  0  0  0  0
 19 10  1  0  0  0  0
 20 19  1  0  0  0  0
 21 20  2  0  0  0  0
 22 20  1  6  0  0  0
 22 24  1  0  0  0  0
 22 25  1  0  0  0  0
 24 25  1  0  0  0  0
 25 23  1  6  0  0  0
M  END
>  <MODEL>
5

>  <REMARK>
 VINA RESULT:      -9.2      2.633      4.348
  Name = 
  3 active torsions:
  status: ('A' for Active; 'I' for Inactive)
    1  A    between atoms: C_1  and  C_5
    2  A    between atoms: C_2  and  C_15
    3  A    between atoms: N_6  and  C_23
                            x       y       z     vdW  Elec       q    Type
                         _______ _______ _______ _____ _____    ______ ____

>  <TORSDO>
F 3

$$$$
=
 OpenBabel11052422093D

 25 28  0  0  1  0  0  0  0  0999 V2000
  161.2290  204.1290  147.9460 C   0  0  0  0  0  0  0  0  0  0  0  0
  161.3390  204.9110  149.1160 C   0  0  0  0  0  0  0  0  0  0  0  0
  160.7860  202.1930  149.3280 C   0  0  0  0  0  3  0  0  0  0  0  0
  160.8960  202.9590  150.4440 N   0  0  0  0  0  0  0  0  0  0  0  0
  161.2820  205.0540  151.5500 C   0  0  0  0  0  0  0  0  0  0  0  0
  161.0760  204.3240  153.1340 Cl  0  0  0  0  0  0  0  0  0  0  0  0
  161.6370  206.2790  149.0610 C   0  0  0  0  0  3  0  0  0  0  0  0
  160.9480  202.7640  148.0660 C   0  0  0  0  0  3  0  0  0  0  0  0
  161.5720  206.4180  151.4700 C   0  0  0  0  0  3  0  0  0  0  0  0
  161.7450  207.0410  150.2300 C   0  0  0  0  0  0  0  0  0  0  0  0
  161.1660  204.2910  150.3770 C   0  0  0  0  0  0  0  0  0  0  0  0
  161.3690  204.7130  146.5930 C   0  0  0  0  0  0  0  0  0  0  0  0
  161.5520  205.8120  144.0160 C   0  0  0  0  0  3  0  0  0  0  0  0
  162.6220  204.8120  145.9500 C   0  0  0  0  0  0  0  0  0  0  0  0
  162.7040  205.3630  144.6680 C   0  0  0  0  0  3  0  0  0  0  0  0
  160.3120  205.7160  144.6470 C   0  0  0  0  0  3  0  0  0  0  0  0
  164.1140  204.3070  146.7300 Cl  0  0  0  0  0  0  0  0  0  0  0  0
  160.2210  205.1690  145.9290 C   0  0  0  0  0  3  0  0  0  0  0  0
  162.0700  208.4380  150.2020 N   0  0  0  0  0  2  0  0  0  0  0  0
  161.4970  209.4910  150.9910 C   0  0  0  0  0  0  0  0  0  0  0  0
  161.7420  210.6850  150.6740 O   0  0  0  0  0  0  0  0  0  0  0  0
  160.6050  209.2110  152.1760 C   0  0  2  0  0  3  0  0  0  0  0  0
  162.4340  210.2900  153.3830 O   0  0  0  0  0  1  0  0  0  0  0  0
  160.1330  210.4970  152.8310 C   0  0  0  0  0  2  0  0  0  0  0  0
  161.1920  209.6650  153.5190 C   0  0  1  0  0  3  0  0  0  0  0  0
  1  8  2  0  0  0  0
  1  2  1  0  0  0  0
  2 11  1  0  0  0  0
  3  4  2  0  0  0  0
  5  6  1  0  0  0  0
  7  2  2  0  0  0  0
  7 10  1  0  0  0  0
  8  3  1  0  0  0  0
  9  5  1  0  0  0  0
 10  9  2  0  0  0  0
 11  4  1  0  0  0  0
 11  5  2  0  0  0  0
 12  1  1  0  0  0  0
 13 16  2  0  0  0  0
 13 15  1  0  0  0  0
 14 12  1  0  0  0  0
 14 17  1  0  0  0  0
 15 14  2  0  0  0  0
 16 18  1  0  0  0  0
 18 12  2  0  0  0  0
 19 10  1  0  0  0  0
 19 20  1  0  0  0  0
 21 20  2  0  0  0  0
 22 20  1  6  0  0  0
 22 24  1  0  0  0  0
 22 25  1  0  0  0  0
 24 25  1  0  0  0  0
 25 23  1  6  0  0  0
M  END
>  <MODEL>
6

>  <REMARK>
 VINA RESULT:      -9.1      2.827      4.465
  Name = 
  3 active torsions:
  status: ('A' for Active; 'I' for Inactive)
    1  A    between atoms: C_1  and  C_5
    2  A    between atoms: C_2  and  C_15
    3  A    between atoms: N_6  and  C_23
                            x       y       z     vdW  Elec       q    Type
                         _______ _______ _______ _____ _____    ______ ____

>  <TORSDO>
F 3

$$$$
=
 OpenBabel11052422093D

 25 28  0  0  1  0  0  0  0  0999 V2000
  161.5000  206.5570  150.1500 C   0  0  0  0  0  0  0  0  0  0  0  0
  161.6470  207.9530  150.2970 C   0  0  0  0  0  0  0  0  0  0  0  0
  161.1480  206.3830  152.5380 C   0  0  0  0  0  3  0  0  0  0  0  0
  161.2920  207.7280  152.6620 N   0  0  0  0  0  0  0  0  0  0  0  0
  161.6910  209.9110  151.7500 C   0  0  0  0  0  0  0  0  0  0  0  0
  161.5650  210.6610  153.3330 Cl  0  0  0  0  0  0  0  0  0  0  0  0
  161.9210  208.7830  149.2010 C   0  0  0  0  0  3  0  0  0  0  0  0
  161.2470  205.7780  151.2850 C   0  0  0  0  0  3  0  0  0  0  0  0
  161.9560  210.7190  150.6420 C   0  0  0  0  0  3  0  0  0  0  0  0
  162.0650  210.1660  149.3620 C   0  0  0  0  0  0  0  0  0  0  0  0
  161.5380  208.5250  151.5870 C   0  0  0  0  0  0  0  0  0  0  0  0
  161.5730  205.8920  148.8300 C   0  0  0  0  0  0  0  0  0  0  0  0
  161.7120  204.7050  146.2900 C   0  0  0  0  0  3  0  0  0  0  0  0
  161.2640  204.5240  148.6660 C   0  0  0  0  0  0  0  0  0  0  0  0
  161.3390  203.9410  147.3980 C   0  0  0  0  0  3  0  0  0  0  0  0
  162.0170  206.0570  146.4460 C   0  0  0  0  0  3  0  0  0  0  0  0
  160.8320  203.4960  150.0250 Cl  0  0  0  0  0  0  0  0  0  0  0  0
  161.9470  206.6470  147.7090 C   0  0  0  0  0  3  0  0  0  0  0  0
  162.3670  211.0340  148.2610 N   0  0  0  0  0  2  0  0  0  0  0  0
  161.5460  212.0750  147.7110 C   0  0  0  0  0  0  0  0  0  0  0  0
  161.8740  212.5820  146.6060 O   0  0  0  0  0  0  0  0  0  0  0  0
  160.3040  212.5700  148.4100 C   0  0  2  0  0  3  0  0  0  0  0  0
  161.7810  214.4190  149.0110 O   0  0  0  0  0  1  0  0  0  0  0  0
  159.8090  213.8730  147.8060 C   0  0  0  0  0  2  0  0  0  0  0  0
  160.4930  213.8980  149.1550 C   0  0  1  0  0  3  0  0  0  0  0  0
  1  2  2  0  0  0  0
  1  8  1  0  0  0  0
  2 11  1  0  0  0  0
  3  4  1  0  0  0  0
  5  6  1  0  0  0  0
  7 10  2  0  0  0  0
  7  2  1  0  0  0  0
  8  3  2  0  0  0  0
  9  5  2  0  0  0  0
 10  9  1  0  0  0  0
 11  5  1  0  0  0  0
 11  4  2  0  0  0  0
 12  1  1  0  0  0  0
 13 16  2  0  0  0  0
 13 15  1  0  0  0  0
 14 12  1  0  0  0  0
 14 17  1  0  0  0  0
 15 14  2  0  0  0  0
 16 18  1  0  0  0  0
 18 12  2  0  0  0  0
 19 10  1  0  0  0  0
 20 19  1  0  0  0  0
 21 20  2  0  0  0  0
 22 20  1  6  0  0  0
 22 25  1  0  0  0  0
 24 22  1  0  0  0  0
 24 25  1  0  0  0  0
 25 23  1  6  0  0  0
M  END
>  <MODEL>
7

>  <REMARK>
 VINA RESULT:      -8.8      3.654      5.455
  Name = 
  3 active torsions:
  status: ('A' for Active; 'I' for Inactive)
    1  A    between atoms: C_1  and  C_5
    2  A    between atoms: C_2  and  C_15
    3  A    between atoms: N_6  and  C_23
                            x       y       z     vdW  Elec       q    Type
                         _______ _______ _______ _____ _____    ______ ____

>  <TORSDO>
F 3

$$$$
=
 OpenBabel11052422093D

 25 28  0  0  1  0  0  0  0  0999 V2000
  161.4340  205.9490  149.5200 C   0  0  0  0  0  0  0  0  0  0  0  0
  161.5690  207.1290  150.2800 C   0  0  0  0  0  0  0  0  0  0  0  0
  161.8120  207.2460  147.5120 C   0  0  0  0  0  3  0  0  0  0  0  0
  161.9390  208.3730  148.2590 N   0  0  0  0  0  0  0  0  0  0  0  0
  161.9530  209.5360  150.3570 C   0  0  0  0  0  0  0  0  0  0  0  0
  162.2690  211.0750  149.5710 Cl  0  0  0  0  0  0  0  0  0  0  0  0
  161.4340  207.1250  151.6760 C   0  0  0  0  0  3  0  0  0  0  0  0
  161.5610  206.0200  148.1280 C   0  0  0  0  0  3  0  0  0  0  0  0
  161.8210  209.5060  151.7480 C   0  0  0  0  0  3  0  0  0  0  0  0
  161.5690  208.3050  152.4170 C   0  0  0  0  0  0  0  0  0  0  0  0
  161.8250  208.3520  149.6150 C   0  0  0  0  0  0  0  0  0  0  0  0
  161.1940  204.6300  150.1480 C   0  0  0  0  0  0  0  0  0  0  0  0
  160.7610  202.1620  151.4130 C   0  0  0  0  0  3  0  0  0  0  0  0
  161.1050  203.4460  149.3840 C   0  0  0  0  0  0  0  0  0  0  0  0
  160.8860  202.2220  150.0230 C   0  0  0  0  0  3  0  0  0  0  0  0
  160.8490  203.3290  152.1720 C   0  0  0  0  0  3  0  0  0  0  0  0
  161.2100  203.4570  147.6290 Cl  0  0  0  0  0  0  0  0  0  0  0  0
  161.0650  204.5560  151.5420 C   0  0  0  0  0  3  0  0  0  0  0  0
  161.4140  208.3300  153.8430 N   0  0  0  0  0  2  0  0  0  0  0  0
  161.1920  209.4730  154.6830 C   0  0  0  0  0  0  0  0  0  0  0  0
  161.3060  209.3360  155.9300 O   0  0  0  0  0  0  0  0  0  0  0  0
  160.8390  210.8270  154.1190 C   0  0  2  0  0  3  0  0  0  0  0  0
  158.6670  210.3000  155.1040 O   0  0  0  0  0  1  0  0  0  0  0  0
  160.4930  211.8140  155.2210 C   0  0  0  0  0  2  0  0  0  0  0  0
  159.3830  211.2450  154.3650 C   0  0  1  0  0  3  0  0  0  0  0  0
  1 12  1  0  0  0  0
  1  2  1  0  0  0  0
  2  7  1  0  0  0  0
  3  8  1  0  0  0  0
  3  4  2  0  0  0  0
  4 11  1  0  0  0  0
  5  9  2  0  0  0  0
  6  5  1  0  0  0  0
  7 10  2  0  0  0  0
  8  1  2  0  0  0  0
  9 10  1  0  0  0  0
 10 19  1  0  0  0  0
 11  2  2  0  0  0  0
 11  5  1  0  0  0  0
 12 18  1  0  0  0  0
 13 16  1  0  0  0  0
 14 15  1  0  0  0  0
 14 12  2  0  0  0  0
 15 13  2  0  0  0  0
 17 14  1  0  0  0  0
 18 16  2  0  0  0  0
 19 20  1  0  0  0  0
 20 21  2  0  0  0  0
 22 25  1  0  0  0  0
 22 20  1  1  0  0  0
 22 24  1  0  0  0  0
 25 23  1  1  0  0  0
 25 24  1  0  0  0  0
M  END
>  <MODEL>
8

>  <REMARK>
 VINA RESULT:      -8.7      1.072      1.316
  Name = 
  3 active torsions:
  status: ('A' for Active; 'I' for Inactive)
    1  A    between atoms: C_1  and  C_5
    2  A    between atoms: C_2  and  C_15
    3  A    between atoms: N_6  and  C_23
                            x       y       z     vdW  Elec       q    Type
                         _______ _______ _______ _____ _____    ______ ____

>  <TORSDO>
F 3

$$$$
=
 OpenBabel11052422093D

 25 28  0  0  1  0  0  0  0  0999 V2000
  161.6570  206.9620  150.1660 C   0  0  0  0  0  0  0  0  0  0  0  0
  161.3770  208.2200  150.7400 C   0  0  0  0  0  0  0  0  0  0  0  0
  162.5700  208.0910  148.2300 C   0  0  0  0  0  3  0  0  0  0  0  0
  162.2940  209.2940  148.7970 N   0  0  0  0  0  0  0  0  0  0  0  0
  161.4300  210.6520  150.5760 C   0  0  0  0  0  0  0  0  0  0  0  0
  161.8260  212.1330  149.7180 Cl  0  0  0  0  0  0  0  0  0  0  0  0
  160.7580  208.3360  151.9920 C   0  0  0  0  0  3  0  0  0  0  0  0
  162.2590  206.9100  148.9030 C   0  0  0  0  0  3  0  0  0  0  0  0
  160.8190  210.7430  151.8290 C   0  0  0  0  0  3  0  0  0  0  0  0
  160.4860  209.5920  152.5480 C   0  0  0  0  0  0  0  0  0  0  0  0
  161.7110  209.3930  150.0220 C   0  0  0  0  0  0  0  0  0  0  0  0
  161.3630  205.6930  150.8690 C   0  0  0  0  0  0  0  0  0  0  0  0
  160.8390  203.3180  152.2710 C   0  0  0  0  0  3  0  0  0  0  0  0
  161.0600  204.5050  150.1680 C   0  0  0  0  0  0  0  0  0  0  0  0
  160.7970  203.3280  150.8750 C   0  0  0  0  0  3  0  0  0  0  0  0
  161.1380  204.4880  152.9680 C   0  0  0  0  0  3  0  0  0  0  0  0
  160.9490  204.4590  148.4140 Cl  0  0  0  0  0  0  0  0  0  0  0  0
  161.3990  205.6690  152.2700 C   0  0  0  0  0  3  0  0  0  0  0  0
  159.8340  209.7370  153.8170 N   0  0  0  0  0  2  0  0  0  0  0  0
  160.3760  209.4740  155.1200 C   0  0  0  0  0  0  0  0  0  0  0  0
  159.5910  209.4400  156.1040 O   0  0  0  0  0  0  0  0  0  0  0  0
  161.8480  209.2280  155.3410 C   0  0  2  0  0  3  0  0  0  0  0  0
  161.7670  211.5240  156.1670 O   0  0  0  0  0  1  0  0  0  0  0  0
  162.2040  209.2830  156.8170 C   0  0  0  0  0  2  0  0  0  0  0  0
  162.6020  210.4330  155.9190 C   0  0  1  0  0  3  0  0  0  0  0  0
  1  2  1  0  0  0  0
  1 12  1  0  0  0  0
  2  7  1  0  0  0  0
  3  4  2  0  0  0  0
  3  8  1  0  0  0  0
  4 11  1  0  0  0  0
  5  9  2  0  0  0  0
  6  5  1  0  0  0  0
  7 10  2  0  0  0  0
  8  1  2  0  0  0  0
  9 10  1  0  0  0  0
 10 19  1  0  0  0  0
 11  5  1  0  0  0  0
 11  2  2  0  0  0  0
 12 18  1  0  0  0  0
 13 16  1  0  0  0  0
 14 12  2  0  0  0  0
 14 15  1  0  0  0  0
 15 13  2  0  0  0  0
 17 14  1  0  0  0  0
 18 16  2  0  0  0  0
 19 20  1  0  0  0  0
 20 21  2  0  0  0  0
 22 20  1  1  0  0  0
 22 25  1  0  0  0  0
 22 24  1  0  0  0  0
 25 23  1  1  0  0  0
 25 24  1  0  0  0  0
M  END
>  <MODEL>
9

>  <REMARK>
 VINA RESULT:      -8.4      1.512      2.132
  Name = 
  3 active torsions:
  status: ('A' for Active; 'I' for Inactive)
    1  A    between atoms: C_1  and  C_5
    2  A    between atoms: C_2  and  C_15
    3  A    between atoms: N_6  and  C_23
                            x       y       z     vdW  Elec       q    Type
                         _______ _______ _______ _____ _____    ______ ____

>  <TORSDO>
F 3

$$$$
