=
 OpenBabel11062409433D

 34 37  0  0  1  0  0  0  0  0999 V2000
  160.1600  209.8430  153.7210 C   0  0  1  0  0  3  0  0  0  0  0  0
  160.2100  211.8670  155.9180 C   0  0  0  0  0  2  0  0  0  0  0  0
  161.3330  208.3430  155.5060 C   0  0  0  0  0  2  0  0  0  0  0  0
  161.9380  208.6730  156.8700 C   0  0  0  0  0  2  0  0  0  0  0  0
  161.1770  210.6990  155.8340 C   0  0  2  0  0  3  0  0  0  0  0  0
  160.4740  209.5410  155.1880 C   0  0  1  0  0  3  0  0  0  0  0  0
  161.6220  210.1400  157.1610 C   0  0  0  0  0  2  0  0  0  0  0  0
  159.8030  212.2760  154.4910 C   0  0  1  0  0  3  0  0  0  0  0  0
  158.9420  211.4470  152.3820 O   0  0  0  0  0  1  0  0  0  0  0  0
  159.2320  211.0760  153.6990 C   0  0  1  0  0  3  0  0  0  0  0  0
  158.7770  213.3980  154.5500 C   0  0  0  0  0  2  0  0  0  0  0  0
  157.3620  212.8440  154.6840 C   0  0  2  0  0  3  0  0  0  0  0  0
  156.5560  213.3580  153.6640 O   0  0  0  0  0  1  0  0  0  0  0  0
  156.7650  213.1810  156.0520 C   0  0  2  0  0  0  0  0  0  0  0  0
  157.5720  214.1170  156.7030 O   0  0  0  0  0  1  0  0  0  0  0  0
  156.6920  211.9290  156.9060 C   0  0  0  0  0  1  0  0  0  0  0  0
  155.4910  213.7020  155.9040 F   0  0  0  0  0  0  0  0  0  0  0  0
  161.4190  210.0860  152.8770 C   0  0  0  0  0  2  0  0  0  0  0  0
  161.5520  209.0730  151.7910 C   0  0  0  0  0  0  0  0  0  0  0  0
  162.2750  209.4010  150.6500 O   0  0  0  0  0  1  0  0  0  0  0  0
  160.9720  207.8770  151.9390 C   0  0  0  0  0  3  0  0  0  0  0  0
  161.1100  206.0550  148.6520 C   0  0  0  0  0  3  0  0  0  0  0  0
  160.9500  205.4140  151.3740 C   0  0  0  0  0  3  0  0  0  0  0  0
  161.0350  202.3530  148.4930 C   0  0  0  0  0  0  0  0  0  0  0  0
  161.0870  203.6960  148.0940 C   0  0  0  0  0  3  0  0  0  0  0  0
  161.0590  204.7170  149.0480 C   0  0  0  0  0  0  0  0  0  0  0  0
  160.9250  203.0560  150.8190 C   0  0  0  0  0  3  0  0  0  0  0  0
  160.9780  204.3940  150.4210 C   0  0  0  0  0  0  0  0  0  0  0  0
  160.9540  202.0420  149.8590 C   0  0  0  0  0  3  0  0  0  0  0  0
  161.0020  206.7600  150.9760 C   0  0  0  0  0  0  0  0  0  0  0  0
  161.0820  207.0700  149.6120 C   0  0  0  0  0  3  0  0  0  0  0  0
  161.0650  201.2750  147.4920 C   0  0  0  0  0  0  0  0  0  0  0  0
  160.6380  201.5150  146.1910 O   0  0  0  0  0  0  0  0  0  0  0  0
  161.4790  200.1270  147.8020 O   0  0  0  0  0  1  0  0  0  0  0  0
  1 18  1  6  0  0  0
  1  6  1  0  0  0  0
  3  4  1  0  0  0  0
  4  7  1  0  0  0  0
  5  2  1  1  0  0  0
  5  7  1  0  0  0  0
  6  3  1  6  0  0  0
  6  5  1  0  0  0  0
  8 11  1  1  0  0  0
  8  2  1  0  0  0  0
 10  9  1  6  0  0  0
 10  1  1  0  0  0  0
 10  8  1  0  0  0  0
 11 12  1  0  0  0  0
 12 13  1  6  0  0  0
 12 14  1  0  0  0  0
 14 15  1  0  0  0  0
 14 16  1  1  0  0  0
 17 14  1  0  0  0  0
 19 21  2  0  0  0  0
 19 18  1  0  0  0  0
 20 19  1  0  0  0  0
 22 26  2  0  0  0  0
 22 31  1  0  0  0  0
 24 29  1  0  0  0  0
 25 24  2  0  0  0  0
 25 26  1  0  0  0  0
 26 28  1  0  0  0  0
 28 27  1  0  0  0  0
 28 23  2  0  0  0  0
 29 27  2  0  0  0  0
 30 23  1  0  0  0  0
 30 21  1  0  0  0  0
 31 30  2  0  0  0  0
 32 34  1  0  0  0  0
 32 24  1  0  0  0  0
 33 32  2  0  0  0  0
M  END
>  <MODEL>
1

>  <REMARK>
 VINA RESULT:      -9.5      0.000      0.000
  Name = 
  7 active torsions:
  status: ('A' for Active; 'I' for Inactive)
    1  A    between atoms: C_1  and  C_9
    2  A    between atoms: C_2  and  C_23
    3  A    between atoms: C_2  and  C_32
    4  A    between atoms: C_3  and  C_23
    5  A    between atoms: C_7  and  C_11
    6  A    between atoms: C_8  and  C_9
    7  A    between atoms: C_18  and  C_30
                            x       y       z     vdW  Elec       q    Type
                         _______ _______ _______ _____ _____    ______ ____

>  <TORSDO>
F 7

$$$$
=
 OpenBabel11062409433D

 34 37  0  0  1  0  0  0  0  0999 V2000
  160.2670  209.6140  153.8300 C   0  0  1  0  0  3  0  0  0  0  0  0
  160.4230  211.8450  155.8110 C   0  0  0  0  0  2  0  0  0  0  0  0
  161.3730  208.2460  155.7600 C   0  0  0  0  0  2  0  0  0  0  0  0
  161.9980  208.6830  157.0840 C   0  0  0  0  0  2  0  0  0  0  0  0
  161.3320  210.6290  155.8470 C   0  0  2  0  0  3  0  0  0  0  0  0
  160.5720  209.4470  155.3200 C   0  0  1  0  0  3  0  0  0  0  0  0
  161.7540  210.1860  157.2240 C   0  0  0  0  0  2  0  0  0  0  0  0
  160.0310  212.1260  154.3490 C   0  0  1  0  0  3  0  0  0  0  0  0
  159.1230  211.1300  152.3350 O   0  0  0  0  0  1  0  0  0  0  0  0
  159.3990  210.8820  153.6820 C   0  0  1  0  0  3  0  0  0  0  0  0
  159.0610  213.2970  154.2930 C   0  0  0  0  0  2  0  0  0  0  0  0
  157.6200  212.8130  154.1610 C   0  0  2  0  0  3  0  0  0  0  0  0
  157.0010  213.4610  153.0880 O   0  0  0  0  0  1  0  0  0  0  0  0
  156.8360  213.0570  155.4520 C   0  0  2  0  0  0  0  0  0  0  0  0
  157.6300  213.7550  156.3640 O   0  0  0  0  0  1  0  0  0  0  0  0
  156.4390  211.7300  156.0730 C   0  0  0  0  0  1  0  0  0  0  0  0
  155.6930  213.7910  155.1870 F   0  0  0  0  0  0  0  0  0  0  0  0
  161.5340  209.7090  152.9680 C   0  0  0  0  0  2  0  0  0  0  0  0
  161.6510  208.5470  152.0410 C   0  0  0  0  0  0  0  0  0  0  0  0
  162.4390  208.6710  150.9020 O   0  0  0  0  0  1  0  0  0  0  0  0
  160.9950  207.4160  152.3250 C   0  0  0  0  0  3  0  0  0  0  0  0
  160.8250  203.7480  151.5070 C   0  0  0  0  0  3  0  0  0  0  0  0
  161.1700  206.1670  150.1360 C   0  0  0  0  0  3  0  0  0  0  0  0
  161.1650  202.5320  148.0230 C   0  0  0  0  0  0  0  0  0  0  0  0
  160.9930  202.5370  149.4150 C   0  0  0  0  0  3  0  0  0  0  0  0
  160.9950  203.7420  150.1210 C   0  0  0  0  0  0  0  0  0  0  0  0
  161.3390  204.9570  148.0430 C   0  0  0  0  0  3  0  0  0  0  0  0
  161.1680  204.9610  149.4290 C   0  0  0  0  0  0  0  0  0  0  0  0
  161.3360  203.7470  147.3450 C   0  0  0  0  0  3  0  0  0  0  0  0
  160.9980  206.1740  151.5290 C   0  0  0  0  0  0  0  0  0  0  0  0
  160.8280  204.9590  152.2060 C   0  0  0  0  0  3  0  0  0  0  0  0
  161.1630  201.2640  147.2760 C   0  0  0  0  0  0  0  0  0  0  0  0
  160.7750  201.2370  145.9420 O   0  0  0  0  0  0  0  0  0  0  0  0
  161.5160  200.1910  147.8360 O   0  0  0  0  0  1  0  0  0  0  0  0
  1 18  1  6  0  0  0
  1  6  1  0  0  0  0
  3  4  1  0  0  0  0
  4  7  1  0  0  0  0
  5  2  1  1  0  0  0
  5  7  1  0  0  0  0
  6  3  1  6  0  0  0
  6  5  1  0  0  0  0
  8 11  1  1  0  0  0
  8  2  1  0  0  0  0
 10  9  1  6  0  0  0
 10  1  1  0  0  0  0
 10  8  1  0  0  0  0
 12 13  1  6  0  0  0
 12 11  1  0  0  0  0
 12 14  1  0  0  0  0
 14 16  1  1  0  0  0
 14 15  1  0  0  0  0
 17 14  1  0  0  0  0
 19 21  2  0  0  0  0
 19 18  1  0  0  0  0
 20 19  1  0  0  0  0
 22 31  1  0  0  0  0
 23 30  1  0  0  0  0
 24 25  2  0  0  0  0
 25 26  1  0  0  0  0
 26 22  2  0  0  0  0
 27 28  1  0  0  0  0
 28 26  1  0  0  0  0
 28 23  2  0  0  0  0
 29 24  1  0  0  0  0
 29 27  2  0  0  0  0
 30 31  2  0  0  0  0
 30 21  1  0  0  0  0
 32 34  1  0  0  0  0
 32 24  1  0  0  0  0
 33 32  2  0  0  0  0
M  END
>  <MODEL>
2

>  <REMARK>
 VINA RESULT:      -9.3      0.604      1.336
  Name = 
  7 active torsions:
  status: ('A' for Active; 'I' for Inactive)
    1  A    between atoms: C_1  and  C_9
    2  A    between atoms: C_2  and  C_23
    3  A    between atoms: C_2  and  C_32
    4  A    between atoms: C_3  and  C_23
    5  A    between atoms: C_7  and  C_11
    6  A    between atoms: C_8  and  C_9
    7  A    between atoms: C_18  and  C_30
                            x       y       z     vdW  Elec       q    Type
                         _______ _______ _______ _____ _____    ______ ____

>  <TORSDO>
F 7

$$$$
=
 OpenBabel11062409433D

 34 37  0  0  1  0  0  0  0  0999 V2000
  161.9870  209.1540  153.9920 C   0  0  1  0  0  3  0  0  0  0  0  0
  160.6020  211.7560  153.5070 C   0  0  0  0  0  2  0  0  0  0  0  0
  162.3740  209.2420  151.4110 C   0  0  0  0  0  2  0  0  0  0  0  0
  161.7960  210.1530  150.3290 C   0  0  0  0  0  2  0  0  0  0  0  0
  160.7850  210.6940  152.4370 C   0  0  2  0  0  3  0  0  0  0  0  0
  162.0730  209.9680  152.6990 C   0  0  1  0  0  3  0  0  0  0  0  0
  160.9620  211.2210  151.0360 C   0  0  0  0  0  2  0  0  0  0  0  0
  160.5050  211.0650  154.8780 C   0  0  1  0  0  3  0  0  0  0  0  0
  161.5790  209.4700  156.3530 O   0  0  0  0  0  1  0  0  0  0  0  0
  161.7240  210.1500  155.1410 C   0  0  1  0  0  3  0  0  0  0  0  0
  160.3930  212.1130  155.9760 C   0  0  0  0  0  2  0  0  0  0  0  0
  158.9620  212.2160  156.4960 C   0  0  2  0  0  3  0  0  0  0  0  0
  158.2800  211.0240  156.2350 O   0  0  0  0  0  1  0  0  0  0  0  0
  158.2280  213.3970  155.8590 C   0  0  2  0  0  0  0  0  0  0  0  0
  157.5380  214.1120  156.8400 O   0  0  0  0  0  1  0  0  0  0  0  0
  157.2270  212.8920  154.8360 C   0  0  0  0  0  1  0  0  0  0  0  0
  159.1290  214.2390  155.2300 F   0  0  0  0  0  0  0  0  0  0  0  0
  160.9020  208.0690  153.9430 C   0  0  0  0  0  2  0  0  0  0  0  0
  161.2500  206.9920  152.9720 C   0  0  0  0  0  0  0  0  0  0  0  0
  162.3700  206.2060  153.2110 O   0  0  0  0  0  1  0  0  0  0  0  0
  160.4780  206.8100  151.8940 C   0  0  0  0  0  3  0  0  0  0  0  0
  161.2300  205.3320  148.5180 C   0  0  0  0  0  3  0  0  0  0  0  0
  160.4840  204.4250  151.0620 C   0  0  0  0  0  3  0  0  0  0  0  0
  161.0560  201.6770  147.9310 C   0  0  0  0  0  0  0  0  0  0  0  0
  161.2380  203.0490  147.7050 C   0  0  0  0  0  3  0  0  0  0  0  0
  161.0490  203.9660  148.7430 C   0  0  0  0  0  0  0  0  0  0  0  0
  160.4910  202.1420  150.2500 C   0  0  0  0  0  3  0  0  0  0  0  0
  160.6740  203.5080  150.0250 C   0  0  0  0  0  0  0  0  0  0  0  0
  160.6820  201.2320  149.2080 C   0  0  0  0  0  3  0  0  0  0  0  0
  160.6670  205.7990  150.8380 C   0  0  0  0  0  0  0  0  0  0  0  0
  161.0390  206.2430  149.5620 C   0  0  0  0  0  3  0  0  0  0  0  0
  161.2540  200.7090  146.8410 C   0  0  0  0  0  0  0  0  0  0  0  0
  160.8380  201.0110  145.5500 O   0  0  0  0  0  0  0  0  0  0  0  0
  161.8050  199.5980  147.0660 O   0  0  0  0  0  1  0  0  0  0  0  0
  1 18  1  6  0  0  0
  1 10  1  0  0  0  0
  2  8  1  0  0  0  0
  4  7  1  0  0  0  0
  4  3  1  0  0  0  0
  5  7  1  6  0  0  0
  5  6  1  0  0  0  0
  5  2  1  0  0  0  0
  6  3  1  6  0  0  0
  6  1  1  0  0  0  0
  8 10  1  0  0  0  0
  8 11  1  1  0  0  0
 10  9  1  1  0  0  0
 11 12  1  0  0  0  0
 12 13  1  6  0  0  0
 14 16  1  6  0  0  0
 14 12  1  0  0  0  0
 14 15  1  0  0  0  0
 17 14  1  0  0  0  0
 19 20  1  0  0  0  0
 19 18  1  0  0  0  0
 21 19  2  0  0  0  0
 22 26  2  0  0  0  0
 22 31  1  0  0  0  0
 24 29  1  0  0  0  0
 25 24  2  0  0  0  0
 25 26  1  0  0  0  0
 26 28  1  0  0  0  0
 28 27  1  0  0  0  0
 28 23  2  0  0  0  0
 29 27  2  0  0  0  0
 30 23  1  0  0  0  0
 30 21  1  0  0  0  0
 31 30  2  0  0  0  0
 32 34  1  0  0  0  0
 32 24  1  0  0  0  0
 33 32  2  0  0  0  0
M  END
>  <MODEL>
3

>  <REMARK>
 VINA RESULT:      -7.7      1.747      2.773
  Name = 
  7 active torsions:
  status: ('A' for Active; 'I' for Inactive)
    1  A    between atoms: C_1  and  C_9
    2  A    between atoms: C_2  and  C_23
    3  A    between atoms: C_2  and  C_32
    4  A    between atoms: C_3  and  C_23
    5  A    between atoms: C_7  and  C_11
    6  A    between atoms: C_8  and  C_9
    7  A    between atoms: C_18  and  C_30
                            x       y       z     vdW  Elec       q    Type
                         _______ _______ _______ _____ _____    ______ ____

>  <TORSDO>
F 7

$$$$
=
 OpenBabel11062409433D

 34 37  0  0  1  0  0  0  0  0999 V2000
  160.6370  207.9070  153.5750 C   0  0  1  0  0  3  0  0  0  0  0  0
  161.2380  210.8200  153.8490 C   0  0  0  0  0  2  0  0  0  0  0  0
  160.5420  208.0060  156.1830 C   0  0  0  0  0  2  0  0  0  0  0  0
  160.9470  209.0980  157.1720 C   0  0  0  0  0  2  0  0  0  0  0  0
  161.5020  209.8050  154.9470 C   0  0  2  0  0  3  0  0  0  0  0  0
  160.4650  208.7240  154.8580 C   0  0  1  0  0  3  0  0  0  0  0  0
  161.3420  210.3260  156.3520 C   0  0  0  0  0  2  0  0  0  0  0  0
  161.3750  210.1210  152.4850 C   0  0  1  0  0  3  0  0  0  0  0  0
  160.6560  208.2110  151.1770 O   0  0  0  0  0  1  0  0  0  0  0  0
  160.4590  208.8780  152.3890 C   0  0  1  0  0  3  0  0  0  0  0  0
  161.0440  211.1000  151.3680 C   0  0  0  0  0  2  0  0  0  0  0  0
  161.7760  210.7340  150.0800 C   0  0  2  0  0  3  0  0  0  0  0  0
  163.0760  210.3150  150.3800 O   0  0  0  0  0  1  0  0  0  0  0  0
  161.8090  211.9160  149.1100 C   0  0  2  0  0  0  0  0  0  0  0  0
  161.1510  213.0110  149.6730 O   0  0  0  0  0  1  0  0  0  0  0  0
  161.1070  211.5430  147.8170 C   0  0  0  0  0  1  0  0  0  0  0  0
  163.1180  212.2670  148.8270 F   0  0  0  0  0  0  0  0  0  0  0  0
  161.9920  207.1890  153.5020 C   0  0  0  0  0  2  0  0  0  0  0  0
  162.0520  206.2550  152.3400 C   0  0  0  0  0  0  0  0  0  0  0  0
  163.0220  206.4560  151.3650 O   0  0  0  0  0  1  0  0  0  0  0  0
  161.1720  205.2510  152.2630 C   0  0  0  0  0  3  0  0  0  0  0  0
  160.8240  201.8910  150.6080 C   0  0  0  0  0  3  0  0  0  0  0  0
  161.1810  204.5600  149.8330 C   0  0  0  0  0  3  0  0  0  0  0  0
  160.9280  201.5380  146.9200 C   0  0  0  0  0  0  0  0  0  0  0  0
  160.8330  201.2130  148.2810 C   0  0  0  0  0  3  0  0  0  0  0  0
  160.9170  202.2140  149.2530 C   0  0  0  0  0  0  0  0  0  0  0  0
  161.1910  203.8830  147.5070 C   0  0  0  0  0  3  0  0  0  0  0  0
  161.0970  203.5590  148.8620 C   0  0  0  0  0  0  0  0  0  0  0  0
  161.1060  202.8770  146.5410 C   0  0  0  0  0  3  0  0  0  0  0  0
  161.0870  204.2360  151.1960 C   0  0  0  0  0  0  0  0  0  0  0  0
  160.9090  202.8980  151.5740 C   0  0  0  0  0  3  0  0  0  0  0  0
  160.8400  200.4870  145.8940 C   0  0  0  0  0  0  0  0  0  0  0  0
  161.5680  199.3120  146.0300 O   0  0  0  0  0  1  0  0  0  0  0  0
  160.1020  200.6410  144.8840 O   0  0  0  0  0  0  0  0  0  0  0  0
  1 18  1  1  0  0  0
  1  6  1  0  0  0  0
  3  4  1  0  0  0  0
  5  2  1  6  0  0  0
  5  7  1  0  0  0  0
  6  5  1  0  0  0  0
  6  3  1  1  0  0  0
  7  4  1  0  0  0  0
  8 11  1  6  0  0  0
  8  2  1  0  0  0  0
 10  9  1  6  0  0  0
 10  8  1  0  0  0  0
 10  1  1  0  0  0  0
 12 13  1  1  0  0  0
 12 11  1  0  0  0  0
 14 16  1  6  0  0  0
 14 15  1  0  0  0  0
 14 12  1  0  0  0  0
 17 14  1  0  0  0  0
 19 18  1  0  0  0  0
 20 19  1  0  0  0  0
 21 19  2  0  0  0  0
 22 31  1  0  0  0  0
 23 30  1  0  0  0  0
 24 25  2  0  0  0  0
 25 26  1  0  0  0  0
 26 22  2  0  0  0  0
 27 28  1  0  0  0  0
 28 26  1  0  0  0  0
 28 23  2  0  0  0  0
 29 24  1  0  0  0  0
 29 27  2  0  0  0  0
 30 31  2  0  0  0  0
 30 21  1  0  0  0  0
 32 33  1  0  0  0  0
 32 24  1  0  0  0  0
 34 32  2  0  0  0  0
M  END
>  <MODEL>
4

>  <REMARK>
 VINA RESULT:      -7.4      3.255      4.466
  Name = 
  7 active torsions:
  status: ('A' for Active; 'I' for Inactive)
    1  A    between atoms: C_1  and  C_9
    2  A    between atoms: C_2  and  C_23
    3  A    between atoms: C_2  and  C_32
    4  A    between atoms: C_3  and  C_23
    5  A    between atoms: C_7  and  C_11
    6  A    between atoms: C_8  and  C_9
    7  A    between atoms: C_18  and  C_30
                            x       y       z     vdW  Elec       q    Type
                         _______ _______ _______ _____ _____    ______ ____

>  <TORSDO>
F 7

$$$$
=
 OpenBabel11062409433D

 34 37  0  0  1  0  0  0  0  0999 V2000
  160.5230  208.8800  152.5240 C   0  0  1  0  0  3  0  0  0  0  0  0
  160.5920  210.4870  155.0420 C   0  0  0  0  0  2  0  0  0  0  0  0
  160.7700  206.8720  154.1750 C   0  0  0  0  0  2  0  0  0  0  0  0
  161.0920  206.8190  155.6680 C   0  0  0  0  0  2  0  0  0  0  0  0
  161.1910  209.0970  154.9200 C   0  0  2  0  0  3  0  0  0  0  0  0
  160.3760  208.3090  153.9360 C   0  0  1  0  0  3  0  0  0  0  0  0
  161.1290  208.2620  156.1730 C   0  0  0  0  0  2  0  0  0  0  0  0
  160.6710  211.1820  153.6710 C   0  0  1  0  0  3  0  0  0  0  0  0
  160.1550  210.9410  151.3150 O   0  0  0  0  0  1  0  0  0  0  0  0
  160.0030  210.3320  152.5640 C   0  0  1  0  0  3  0  0  0  0  0  0
  160.0100  212.5510  153.7480 C   0  0  0  0  0  2  0  0  0  0  0  0
  159.1810  212.8330  152.4990 C   0  0  2  0  0  3  0  0  0  0  0  0
  159.7330  213.9130  151.8020 O   0  0  0  0  0  1  0  0  0  0  0  0
  157.7230  213.1240  152.8590 C   0  0  2  0  0  0  0  0  0  0  0  0
  156.9530  213.1940  151.6960 O   0  0  0  0  0  1  0  0  0  0  0  0
  157.6250  214.4530  153.5850 C   0  0  0  0  0  1  0  0  0  0  0  0
  157.2240  212.1250  153.6770 F   0  0  0  0  0  0  0  0  0  0  0  0
  161.9660  208.8250  152.0040 C   0  0  0  0  0  2  0  0  0  0  0  0
  162.1490  207.7230  151.0160 C   0  0  0  0  0  0  0  0  0  0  0  0
  163.4360  207.3820  150.6180 O   0  0  0  0  0  1  0  0  0  0  0  0
  161.0710  207.0900  150.5370 C   0  0  0  0  0  3  0  0  0  0  0  0
  161.2560  205.2880  147.2410 C   0  0  0  0  0  3  0  0  0  0  0  0
  160.8660  204.6440  149.9400 C   0  0  0  0  0  3  0  0  0  0  0  0
  160.8600  201.6090  147.0300 C   0  0  0  0  0  0  0  0  0  0  0  0
  161.0580  202.9450  146.6530 C   0  0  0  0  0  3  0  0  0  0  0  0
  161.0600  203.9570  147.6160 C   0  0  0  0  0  0  0  0  0  0  0  0
  160.6670  202.3020  149.3530 C   0  0  0  0  0  3  0  0  0  0  0  0
  160.8630  203.6320  148.9770 C   0  0  0  0  0  0  0  0  0  0  0  0
  160.6660  201.2960  148.3840 C   0  0  0  0  0  3  0  0  0  0  0  0
  161.0630  205.9820  149.5640 C   0  0  0  0  0  0  0  0  0  0  0  0
  161.2560  206.2940  148.2110 C   0  0  0  0  0  3  0  0  0  0  0  0
  160.8580  200.5410  146.0180 C   0  0  0  0  0  0  0  0  0  0  0  0
  160.0840  200.6630  144.8710 O   0  0  0  0  0  0  0  0  0  0  0  0
  161.5580  199.5060  146.1810 O   0  0  0  0  0  1  0  0  0  0  0  0
  1 18  1  1  0  0  0
  1 10  1  0  0  0  0
  1  6  1  0  0  0  0
  3  4  1  0  0  0  0
  4  7  1  0  0  0  0
  5  2  1  1  0  0  0
  5  7  1  0  0  0  0
  6  3  1  6  0  0  0
  6  5  1  0  0  0  0
  8 11  1  1  0  0  0
  8  2  1  0  0  0  0
 10  9  1  6  0  0  0
 10  8  1  0  0  0  0
 12 13  1  1  0  0  0
 12 14  1  0  0  0  0
 12 11  1  0  0  0  0
 14 16  1  1  0  0  0
 14 17  1  0  0  0  0
 15 14  1  0  0  0  0
 19 18  1  0  0  0  0
 20 19  1  0  0  0  0
 21 19  2  0  0  0  0
 22 26  2  0  0  0  0
 22 31  1  0  0  0  0
 24 29  1  0  0  0  0
 25 24  2  0  0  0  0
 25 26  1  0  0  0  0
 26 28  1  0  0  0  0
 28 27  1  0  0  0  0
 28 23  2  0  0  0  0
 29 27  2  0  0  0  0
 30 23  1  0  0  0  0
 30 21  1  0  0  0  0
 31 30  2  0  0  0  0
 32 34  1  0  0  0  0
 32 24  1  0  0  0  0
 33 32  2  0  0  0  0
M  END
>  <MODEL>
5

>  <REMARK>
 VINA RESULT:      -7.1      1.859      2.262
  Name = 
  7 active torsions:
  status: ('A' for Active; 'I' for Inactive)
    1  A    between atoms: C_1  and  C_9
    2  A    between atoms: C_2  and  C_23
    3  A    between atoms: C_2  and  C_32
    4  A    between atoms: C_3  and  C_23
    5  A    between atoms: C_7  and  C_11
    6  A    between atoms: C_8  and  C_9
    7  A    between atoms: C_18  and  C_30
                            x       y       z     vdW  Elec       q    Type
                         _______ _______ _______ _____ _____    ______ ____

>  <TORSDO>
F 7

$$$$
=
 OpenBabel11062409433D

 34 37  0  0  1  0  0  0  0  0999 V2000
  160.5910  205.0400  150.2860 C   0  0  1  0  0  3  0  0  0  0  0  0
  161.7680  204.1050  147.7040 C   0  0  0  0  0  2  0  0  0  0  0  0
  160.8540  207.3940  149.1870 C   0  0  0  0  0  2  0  0  0  0  0  0
  161.5840  207.8490  147.9240 C   0  0  0  0  0  2  0  0  0  0  0  0
  161.9720  205.5040  148.2580 C   0  0  2  0  0  3  0  0  0  0  0  0
  160.7450  205.8980  149.0280 C   0  0  1  0  0  3  0  0  0  0  0  0
  162.0970  206.5900  147.2210 C   0  0  0  0  0  2  0  0  0  0  0  0
  161.5920  203.1280  148.8800 C   0  0  1  0  0  3  0  0  0  0  0  0
  160.3590  202.7210  150.9260 O   0  0  0  0  0  1  0  0  0  0  0  0
  160.4510  203.5740  149.8230 C   0  0  1  0  0  3  0  0  0  0  0  0
  161.3130  201.7280  148.3490 C   0  0  0  0  0  2  0  0  0  0  0  0
  160.1450  201.7350  147.3680 C   0  0  2  0  0  3  0  0  0  0  0  0
  159.1020  200.9500  147.8710 O   0  0  0  0  0  1  0  0  0  0  0  0
  160.5770  201.2230  145.9930 C   0  0  2  0  0  0  0  0  0  0  0  0
  159.4670  201.1230  145.1530 O   0  0  0  0  0  1  0  0  0  0  0  0
  161.2060  199.8480  146.1280 C   0  0  0  0  0  1  0  0  0  0  0  0
  161.5000  202.0860  145.4290 F   0  0  0  0  0  0  0  0  0  0  0  0
  161.7630  205.2000  151.2640 C   0  0  0  0  0  2  0  0  0  0  0  0
  161.4100  206.1060  152.3950 C   0  0  0  0  0  0  0  0  0  0  0  0
  161.2110  205.5610  153.6580 O   0  0  0  0  0  1  0  0  0  0  0  0
  161.2930  207.4190  152.1670 C   0  0  0  0  0  3  0  0  0  0  0  0
  160.8490  209.1010  155.5010 C   0  0  0  0  0  3  0  0  0  0  0  0
  160.4500  209.7160  152.7970 C   0  0  0  0  0  3  0  0  0  0  0  0
  159.5340  212.5560  155.7590 C   0  0  0  0  0  0  0  0  0  0  0  0
  160.0400  211.3000  156.1220 C   0  0  0  0  0  3  0  0  0  0  0  0
  160.3460  210.3530  155.1410 C   0  0  0  0  0  0  0  0  0  0  0  0
  159.6400  211.9140  153.4160 C   0  0  0  0  0  3  0  0  0  0  0  0
  160.1450  210.6630  153.7780 C   0  0  0  0  0  0  0  0  0  0  0  0
  159.3370  212.8560  154.4030 C   0  0  0  0  0  3  0  0  0  0  0  0
  160.9570  208.4580  153.1590 C   0  0  0  0  0  0  0  0  0  0  0  0
  161.1520  208.1590  154.5140 C   0  0  0  0  0  3  0  0  0  0  0  0
  159.2110  213.5570  156.7890 C   0  0  0  0  0  0  0  0  0  0  0  0
  157.9100  213.6830  157.2610 O   0  0  0  0  0  1  0  0  0  0  0  0
  160.1110  214.3070  157.2550 O   0  0  0  0  0  0  0  0  0  0  0  0
  1 18  1  1  0  0  0
  2  5  1  0  0  0  0
  2  8  1  0  0  0  0
  4  3  1  0  0  0  0
  5  7  1  6  0  0  0
  5  6  1  0  0  0  0
  6  3  1  1  0  0  0
  6  1  1  0  0  0  0
  7  4  1  0  0  0  0
  8 11  1  6  0  0  0
  8 10  1  0  0  0  0
 10  1  1  0  0  0  0
 10  9  1  1  0  0  0
 12 13  1  1  0  0  0
 12 11  1  0  0  0  0
 14 16  1  1  0  0  0
 14 12  1  0  0  0  0
 15 14  1  0  0  0  0
 17 14  1  0  0  0  0
 18 19  1  0  0  0  0
 19 20  1  0  0  0  0
 21 19  2  0  0  0  0
 21 30  1  0  0  0  0
 23 30  2  0  0  0  0
 23 28  1  0  0  0  0
 24 25  1  0  0  0  0
 24 32  1  0  0  0  0
 26 22  1  0  0  0  0
 26 25  2  0  0  0  0
 27 28  2  0  0  0  0
 27 29  1  0  0  0  0
 28 26  1  0  0  0  0
 29 24  2  0  0  0  0
 30 31  1  0  0  0  0
 31 22  2  0  0  0  0
 32 34  2  0  0  0  0
 32 33  1  0  0  0  0
M  END
>  <MODEL>
6

>  <REMARK>
 VINA RESULT:      -6.6      3.467     10.990
  Name = 
  7 active torsions:
  status: ('A' for Active; 'I' for Inactive)
    1  A    between atoms: C_1  and  C_9
    2  A    between atoms: C_2  and  C_23
    3  A    between atoms: C_2  and  C_32
    4  A    between atoms: C_3  and  C_23
    5  A    between atoms: C_7  and  C_11
    6  A    between atoms: C_8  and  C_9
    7  A    between atoms: C_18  and  C_30
                            x       y       z     vdW  Elec       q    Type
                         _______ _______ _______ _____ _____    ______ ____

>  <TORSDO>
F 7

$$$$
