=
 OpenBabel11052422543D

 28 31  0  0  1  0  0  0  0  0999 V2000
  161.6470  204.3430  147.8370 C   0  0  0  0  0  0  0  0  0  0  0  0
  162.1990  205.5740  147.1450 C   0  0  2  0  0  3  0  0  0  0  0  0
  162.0040  206.8340  149.1680 C   0  0  1  0  0  3  0  0  0  0  0  0
  160.1930  200.9250  149.8110 O   0  0  0  0  0  1  0  0  0  0  0  0
  161.6630  206.8000  147.7460 N   0  0  0  0  0  2  0  0  0  0  0  0
  161.4350  209.5120  151.8270 C   0  0  0  0  0  1  0  0  0  0  0  0
  161.0490  205.7240  151.2510 C   0  0  0  0  0  0  0  0  0  0  0  0
  161.1400  207.0310  152.0180 C   0  0  2  0  0  3  0  0  0  0  0  0
  161.5040  208.1370  149.7720 C   0  0  0  0  0  2  0  0  0  0  0  0
  160.7790  203.2830  149.8620 C   0  0  0  0  0  0  0  0  0  0  0  0
  161.4020  205.6470  149.8860 C   0  0  0  0  0  0  0  0  0  0  0  0
  161.8420  208.1680  151.2530 C   0  0  1  0  0  3  0  0  0  0  0  0
  161.0870  201.9780  147.8430 C   0  0  0  0  0  3  0  0  0  0  0  0
  160.3920  203.3820  151.2030 C   0  0  0  0  0  3  0  0  0  0  0  0
  160.6810  202.0610  149.1770 C   0  0  0  0  0  0  0  0  0  0  0  0
  160.5180  204.5930  151.8860 C   0  0  0  0  0  3  0  0  0  0  0  0
  161.5730  203.1060  147.1790 C   0  0  0  0  0  3  0  0  0  0  0  0
  161.2790  204.4250  149.1960 C   0  0  0  0  0  0  0  0  0  0  0  0
  162.9290  205.7300  144.8870 O   0  0  0  0  0  0  0  0  0  0  0  0
  161.9480  205.5860  145.6630 C   0  0  0  0  0  0  0  0  0  0  0  0
  160.5940  205.4300  145.0980 C   0  0  0  0  0  0  0  0  0  0  0  0
  159.7200  206.3140  145.3040 O   0  0  0  0  0  0  0  0  0  0  0  0
  160.2580  204.2870  144.3170 N   0  0  0  0  0  1  0  0  0  0  0  0
  161.7620  206.8440  153.4070 C   0  0  0  0  0  2  0  0  0  0  0  0
  160.7280  206.9630  154.5160 C   0  0  0  0  0  2  0  0  0  0  0  0
  160.7950  208.3500  155.1190 C   0  0  0  0  0  2  0  0  0  0  0  0
  160.0390  208.3640  156.4320 C   0  0  0  0  0  2  0  0  0  0  0  0
  160.1340  207.0010  157.0820 C   0  0  0  0  0  1  0  0  0  0  0  0
  1 18  1  0  0  0  0
  2 20  1  6  0  0  0
  2  5  1  0  0  0  0
  2  1  1  0  0  0  0
  3  9  1  1  0  0  0
  3 11  1  0  0  0  0
  5  3  1  0  0  0  0
  7 16  1  0  0  0  0
  7  8  1  0  0  0  0
  8 24  1  1  0  0  0
  9 12  1  0  0  0  0
 10 14  1  0  0  0  0
 11  7  2  0  0  0  0
 12  6  1  1  0  0  0
 12  8  1  0  0  0  0
 13 15  2  0  0  0  0
 14 16  2  0  0  0  0
 15  4  1  0  0  0  0
 15 10  1  0  0  0  0
 17  1  2  0  0  0  0
 17 13  1  0  0  0  0
 18 10  2  0  0  0  0
 18 11  1  0  0  0  0
 19 20  2  0  0  0  0
 21 22  2  0  0  0  0
 21 20  1  0  0  0  0
 23 21  1  0  0  0  0
 24 25  1  0  0  0  0
 25 26  1  0  0  0  0
 26 27  1  0  0  0  0
 27 28  1  0  0  0  0
M  END
>  <MODEL>
1

>  <REMARK>
 VINA RESULT:      -9.9      0.000      0.000
  Name = 
  6 active torsions:
  status: ('A' for Active; 'I' for Inactive)
    1  A    between atoms: C_2  and  C_11
    2  A    between atoms: C_4  and  C_13
    3  A    between atoms: C_4  and  C_24
    4  A    between atoms: C_6  and  C_11
    5  A    between atoms: C_12  and  C_15
    6  A    between atoms: C_12  and  C_24
                            x       y       z     vdW  Elec       q    Type
                         _______ _______ _______ _____ _____    ______ ____

>  <TORSDO>
F 6

$$$$
=
 OpenBabel11052422543D

 28 31  0  0  1  0  0  0  0  0999 V2000
  161.0750  204.4120  149.6530 C   0  0  0  0  0  0  0  0  0  0  0  0
  160.6590  203.5330  150.8160 C   0  0  2  0  0  3  0  0  0  0  0  0
  160.7110  205.4140  152.2920 C   0  0  1  0  0  3  0  0  0  0  0  0
  162.1460  206.8950  146.4310 O   0  0  0  0  0  1  0  0  0  0  0  0
  161.1930  204.0490  152.0810 N   0  0  0  0  0  2  0  0  0  0  0  0
  161.1400  207.8070  155.2340 C   0  0  0  0  0  1  0  0  0  0  0  0
  161.3910  207.6970  151.3930 C   0  0  0  0  0  0  0  0  0  0  0  0
  161.2880  208.3000  152.7820 C   0  0  2  0  0  3  0  0  0  0  0  0
  161.2120  205.9200  153.6360 C   0  0  0  0  0  2  0  0  0  0  0  0
  161.6770  206.6230  148.8000 C   0  0  0  0  0  0  0  0  0  0  0  0
  161.1750  206.3180  151.1730 C   0  0  0  0  0  0  0  0  0  0  0  0
  160.7260  207.3450  153.8500 C   0  0  1  0  0  3  0  0  0  0  0  0
  161.5110  204.7380  147.2840 C   0  0  0  0  0  3  0  0  0  0  0  0
  161.9310  207.9780  149.0370 C   0  0  0  0  0  3  0  0  0  0  0  0
  161.7820  206.0910  147.5040 C   0  0  0  0  0  0  0  0  0  0  0  0
  161.7960  208.5050  150.3220 C   0  0  0  0  0  3  0  0  0  0  0  0
  161.1530  203.9060  148.3460 C   0  0  0  0  0  3  0  0  0  0  0  0
  161.3060  205.7850  149.8760 C   0  0  0  0  0  0  0  0  0  0  0  0
  161.8860  201.6000  151.4600 O   0  0  0  0  0  0  0  0  0  0  0  0
  161.0600  202.0950  150.6470 C   0  0  0  0  0  0  0  0  0  0  0  0
  160.5150  201.2530  149.5660 C   0  0  0  0  0  0  0  0  0  0  0  0
  159.2690  201.1710  149.3990 O   0  0  0  0  0  0  0  0  0  0  0  0
  161.3820  200.5270  148.7000 N   0  0  0  0  0  1  0  0  0  0  0  0
  160.5190  209.6270  152.7800 C   0  0  0  0  0  2  0  0  0  0  0  0
  161.3580  210.7740  153.3230 C   0  0  0  0  0  2  0  0  0  0  0  0
  160.6490  211.4030  154.5030 C   0  0  0  0  0  2  0  0  0  0  0  0
  159.1730  211.0710  154.4370 C   0  0  0  0  0  2  0  0  0  0  0  0
  158.6750  210.7090  155.8200 C   0  0  0  0  0  1  0  0  0  0  0  0
  1 18  1  0  0  0  0
  1  2  1  0  0  0  0
  2 20  1  6  0  0  0
  2  5  1  0  0  0  0
  3  9  1  1  0  0  0
  4 15  1  0  0  0  0
  5  3  1  0  0  0  0
  7  8  1  0  0  0  0
  8 24  1  6  0  0  0
  8 12  1  0  0  0  0
  9 12  1  0  0  0  0
 10 14  2  0  0  0  0
 10 18  1  0  0  0  0
 11  7  1  0  0  0  0
 11  3  1  0  0  0  0
 12  6  1  1  0  0  0
 13 15  2  0  0  0  0
 13 17  1  0  0  0  0
 14 16  1  0  0  0  0
 15 10  1  0  0  0  0
 16  7  2  0  0  0  0
 17  1  2  0  0  0  0
 18 11  2  0  0  0  0
 20 19  2  0  0  0  0
 21 20  1  0  0  0  0
 22 21  2  0  0  0  0
 23 21  1  0  0  0  0
 24 25  1  0  0  0  0
 25 26  1  0  0  0  0
 27 26  1  0  0  0  0
 27 28  1  0  0  0  0
M  END
>  <MODEL>
2

>  <REMARK>
 VINA RESULT:      -9.1      2.063      4.390
  Name = 
  6 active torsions:
  status: ('A' for Active; 'I' for Inactive)
    1  A    between atoms: C_2  and  C_11
    2  A    between atoms: C_4  and  C_13
    3  A    between atoms: C_4  and  C_24
    4  A    between atoms: C_6  and  C_11
    5  A    between atoms: C_12  and  C_15
    6  A    between atoms: C_12  and  C_24
                            x       y       z     vdW  Elec       q    Type
                         _______ _______ _______ _____ _____    ______ ____

>  <TORSDO>
F 6

$$$$
=
 OpenBabel11052422543D

 28 31  0  0  1  0  0  0  0  0999 V2000
  161.3460  208.2210  150.7130 C   0  0  0  0  0  0  0  0  0  0  0  0
  161.4900  208.9350  149.3830 C   0  0  2  0  0  3  0  0  0  0  0  0
  161.5190  206.8410  148.2300 C   0  0  1  0  0  3  0  0  0  0  0  0
  160.8590  206.2130  154.3770 O   0  0  0  0  0  1  0  0  0  0  0  0
  162.2240  208.1080  148.4200 N   0  0  0  0  0  2  0  0  0  0  0  0
  162.1940  203.9140  145.8760 C   0  0  0  0  0  1  0  0  0  0  0  0
  161.3700  204.6740  149.5590 C   0  0  0  0  0  0  0  0  0  0  0  0
  161.5260  203.8570  148.2900 C   0  0  2  0  0  3  0  0  0  0  0  0
  162.2470  206.0140  147.1820 C   0  0  0  0  0  2  0  0  0  0  0  0
  161.1540  206.1300  151.9660 C   0  0  0  0  0  0  0  0  0  0  0  0
  161.4260  206.0850  149.5370 C   0  0  0  0  0  0  0  0  0  0  0  0
  161.5250  204.6890  146.9950 C   0  0  1  0  0  3  0  0  0  0  0  0
  161.0070  208.2580  153.1190 C   0  0  0  0  0  3  0  0  0  0  0  0
  161.1430  204.7320  151.9810 C   0  0  0  0  0  3  0  0  0  0  0  0
  161.0090  206.8610  153.1570 C   0  0  0  0  0  0  0  0  0  0  0  0
  161.2580  204.0130  150.7900 C   0  0  0  0  0  3  0  0  0  0  0  0
  161.1670  208.9340  151.9090 C   0  0  0  0  0  3  0  0  0  0  0  0
  161.3060  206.8120  150.7370 C   0  0  0  0  0  0  0  0  0  0  0  0
  162.7940  210.5470  150.5480 O   0  0  0  0  0  0  0  0  0  0  0  0
  162.1490  210.2810  149.4990 C   0  0  0  0  0  0  0  0  0  0  0  0
  162.0640  211.2890  148.4250 C   0  0  0  0  0  0  0  0  0  0  0  0
  161.0270  211.3650  147.7140 O   0  0  0  0  0  0  0  0  0  0  0  0
  163.1440  212.1840  148.1800 N   0  0  0  0  0  1  0  0  0  0  0  0
  160.5030  202.7180  148.2060 C   0  0  0  0  0  2  0  0  0  0  0  0
  160.9170  201.5150  149.0390 C   0  0  0  0  0  2  0  0  0  0  0  0
  161.5700  200.4830  148.1460 C   0  0  0  0  0  2  0  0  0  0  0  0
  160.9800  200.5770  146.7540 C   0  0  0  0  0  2  0  0  0  0  0  0
  161.3400  199.3340  145.9690 C   0  0  0  0  0  1  0  0  0  0  0  0
  1 18  2  0  0  0  0
  1 17  1  0  0  0  0
  2 20  1  1  0  0  0
  2  1  1  0  0  0  0
  3  9  1  6  0  0  0
  3  5  1  0  0  0  0
  3 11  1  0  0  0  0
  5  2  1  0  0  0  0
  7 16  1  0  0  0  0
  8 24  1  6  0  0  0
  8  7  1  0  0  0  0
 10 14  1  0  0  0  0
 10 15  2  0  0  0  0
 11  7  2  0  0  0  0
 11 18  1  0  0  0  0
 12  6  1  6  0  0  0
 12  9  1  0  0  0  0
 12  8  1  0  0  0  0
 13 15  1  0  0  0  0
 15  4  1  0  0  0  0
 16 14  2  0  0  0  0
 17 13  2  0  0  0  0
 18 10  1  0  0  0  0
 20 19  2  0  0  0  0
 21 20  1  0  0  0  0
 22 21  2  0  0  0  0
 23 21  1  0  0  0  0
 24 25  1  0  0  0  0
 26 25  1  0  0  0  0
 27 26  1  0  0  0  0
 28 27  1  0  0  0  0
M  END
>  <MODEL>
3

>  <REMARK>
 VINA RESULT:      -9.0      2.807      6.637
  Name = 
  6 active torsions:
  status: ('A' for Active; 'I' for Inactive)
    1  A    between atoms: C_2  and  C_11
    2  A    between atoms: C_4  and  C_13
    3  A    between atoms: C_4  and  C_24
    4  A    between atoms: C_6  and  C_11
    5  A    between atoms: C_12  and  C_15
    6  A    between atoms: C_12  and  C_24
                            x       y       z     vdW  Elec       q    Type
                         _______ _______ _______ _____ _____    ______ ____

>  <TORSDO>
F 6

$$$$
=
 OpenBabel11052422543D

 28 31  0  0  1  0  0  0  0  0999 V2000
  161.6400  208.3470  151.9590 C   0  0  0  0  0  0  0  0  0  0  0  0
  161.4790  207.4720  153.1870 C   0  0  2  0  0  3  0  0  0  0  0  0
  161.2580  205.5300  151.8080 C   0  0  1  0  0  3  0  0  0  0  0  0
  162.1690  210.7340  148.5360 O   0  0  0  0  0  1  0  0  0  0  0  0
  160.6480  206.3000  152.8920 N   0  0  0  0  0  2  0  0  0  0  0  0
  160.2820  202.1950  150.2310 C   0  0  0  0  0  1  0  0  0  0  0  0
  161.3290  205.7750  149.2750 C   0  0  0  0  0  0  0  0  0  0  0  0
  161.0600  204.2920  149.1000 C   0  0  2  0  0  3  0  0  0  0  0  0
  160.4290  204.2820  151.5510 C   0  0  0  0  0  2  0  0  0  0  0  0
  161.7540  208.5540  149.5250 C   0  0  0  0  0  0  0  0  0  0  0  0
  161.3640  206.3710  150.5550 C   0  0  0  0  0  0  0  0  0  0  0  0
  161.0530  203.4890  150.4140 C   0  0  1  0  0  3  0  0  0  0  0  0
  162.0940  210.5010  150.9290 C   0  0  0  0  0  3  0  0  0  0  0  0
  161.6750  207.9600  148.2610 C   0  0  0  0  0  3  0  0  0  0  0  0
  162.0030  209.9290  149.6570 C   0  0  0  0  0  0  0  0  0  0  0  0
  161.4560  206.5870  148.1390 C   0  0  0  0  0  3  0  0  0  0  0  0
  161.9210  209.7170  152.0710 C   0  0  0  0  0  3  0  0  0  0  0  0
  161.5890  207.7550  150.6810 C   0  0  0  0  0  0  0  0  0  0  0  0
  160.2650  209.2660  154.1680 O   0  0  0  0  0  0  0  0  0  0  0  0
  160.9160  208.2060  154.3710 C   0  0  0  0  0  0  0  0  0  0  0  0
  161.1010  207.7220  155.7520 C   0  0  0  0  0  0  0  0  0  0  0  0
  162.1270  208.0540  156.4040 O   0  0  0  0  0  0  0  0  0  0  0  0
  160.1280  206.8800  156.3650 N   0  0  0  0  0  1  0  0  0  0  0  0
  162.0010  203.6500  148.0740 C   0  0  0  0  0  2  0  0  0  0  0  0
  161.2740  203.2590  146.7970 C   0  0  0  0  0  2  0  0  0  0  0  0
  161.8890  203.9900  145.6230 C   0  0  0  0  0  2  0  0  0  0  0  0
  160.7930  204.4330  144.6760 C   0  0  0  0  0  2  0  0  0  0  0  0
  160.4520  205.8830  144.9430 C   0  0  0  0  0  1  0  0  0  0  0  0
  1 17  1  0  0  0  0
  1  2  1  0  0  0  0
  2 20  1  1  0  0  0
  3  9  1  6  0  0  0
  3  5  1  0  0  0  0
  4 15  1  0  0  0  0
  5  2  1  0  0  0  0
  7 11  2  0  0  0  0
  8 24  1  6  0  0  0
  8  7  1  0  0  0  0
  8 12  1  0  0  0  0
 10 15  2  0  0  0  0
 10 18  1  0  0  0  0
 11 18  1  0  0  0  0
 11  3  1  0  0  0  0
 12  6  1  6  0  0  0
 12  9  1  0  0  0  0
 13 17  2  0  0  0  0
 14 10  1  0  0  0  0
 15 13  1  0  0  0  0
 16 14  2  0  0  0  0
 16  7  1  0  0  0  0
 18  1  2  0  0  0  0
 19 20  2  0  0  0  0
 20 21  1  0  0  0  0
 21 23  1  0  0  0  0
 21 22  2  0  0  0  0
 25 24  1  0  0  0  0
 26 25  1  0  0  0  0
 27 28  1  0  0  0  0
 27 26  1  0  0  0  0
M  END
>  <MODEL>
4

>  <REMARK>
 VINA RESULT:      -8.9      3.524      7.925
  Name = 
  6 active torsions:
  status: ('A' for Active; 'I' for Inactive)
    1  A    between atoms: C_2  and  C_11
    2  A    between atoms: C_4  and  C_13
    3  A    between atoms: C_4  and  C_24
    4  A    between atoms: C_6  and  C_11
    5  A    between atoms: C_12  and  C_15
    6  A    between atoms: C_12  and  C_24
                            x       y       z     vdW  Elec       q    Type
                         _______ _______ _______ _____ _____    ______ ____

>  <TORSDO>
F 6

$$$$
=
 OpenBabel11052422543D

 28 31  0  0  1  0  0  0  0  0999 V2000
  161.4660  205.1570  148.6660 C   0  0  0  0  0  0  0  0  0  0  0  0
  161.8620  205.8880  147.3990 C   0  0  2  0  0  3  0  0  0  0  0  0
  161.9960  207.9530  148.5980 C   0  0  1  0  0  3  0  0  0  0  0  0
  160.4520  203.1440  152.2180 O   0  0  0  0  0  1  0  0  0  0  0  0
  161.4130  207.2840  147.4350 N   0  0  0  0  0  2  0  0  0  0  0  0
  161.8430  211.5880  149.7490 C   0  0  0  0  0  1  0  0  0  0  0  0
  161.4440  207.9990  151.0830 C   0  0  0  0  0  0  0  0  0  0  0  0
  161.6390  209.5030  151.1230 C   0  0  2  0  0  3  0  0  0  0  0  0
  161.5810  209.4160  148.5950 C   0  0  0  0  0  2  0  0  0  0  0  0
  160.9870  205.2140  151.0630 C   0  0  0  0  0  0  0  0  0  0  0  0
  161.5540  207.2740  149.8760 C   0  0  0  0  0  0  0  0  0  0  0  0
  162.1730  210.1090  149.8120 C   0  0  1  0  0  3  0  0  0  0  0  0
  160.9670  203.1050  149.8690 C   0  0  0  0  0  3  0  0  0  0  0  0
  160.8380  205.9480  152.2450 C   0  0  0  0  0  3  0  0  0  0  0  0
  160.7980  203.8230  151.0560 C   0  0  0  0  0  0  0  0  0  0  0  0
  161.0560  207.3270  152.2500 C   0  0  0  0  0  3  0  0  0  0  0  0
  161.3040  203.7630  148.6850 C   0  0  0  0  0  3  0  0  0  0  0  0
  161.3390  205.8820  149.8680 C   0  0  0  0  0  0  0  0  0  0  0  0
  160.3680  205.7350  145.5550 O   0  0  0  0  0  0  0  0  0  0  0  0
  161.3560  205.2270  146.1480 C   0  0  0  0  0  0  0  0  0  0  0  0
  161.9830  204.0100  145.5980 C   0  0  0  0  0  0  0  0  0  0  0  0
  163.2120  204.0040  145.3220 O   0  0  0  0  0  0  0  0  0  0  0  0
  161.2140  202.8320  145.3760 N   0  0  0  0  0  1  0  0  0  0  0  0
  162.4980  209.9430  152.3150 C   0  0  0  0  0  2  0  0  0  0  0  0
  161.6500  210.3500  153.5100 C   0  0  0  0  0  2  0  0  0  0  0  0
  160.2470  210.6760  153.0450 C   0  0  0  0  0  2  0  0  0  0  0  0
  160.0790  212.1790  152.9660 C   0  0  0  0  0  2  0  0  0  0  0  0
  158.8720  212.5070  152.1130 C   0  0  0  0  0  1  0  0  0  0  0  0
  1 17  2  0  0  0  0
  1 18  1  0  0  0  0
  2 20  1  6  0  0  0
  2  5  1  0  0  0  0
  2  1  1  0  0  0  0
  3  9  1  1  0  0  0
  3 11  1  0  0  0  0
  5  3  1  0  0  0  0
  7  8  1  0  0  0  0
  7 16  1  0  0  0  0
  8 24  1  1  0  0  0
  9 12  1  0  0  0  0
 10 14  1  0  0  0  0
 11  7  2  0  0  0  0
 12  6  1  6  0  0  0
 12  8  1  0  0  0  0
 13 15  2  0  0  0  0
 14 16  2  0  0  0  0
 15 10  1  0  0  0  0
 15  4  1  0  0  0  0
 17 13  1  0  0  0  0
 18 11  1  0  0  0  0
 18 10  2  0  0  0  0
 19 20  2  0  0  0  0
 21 20  1  0  0  0  0
 22 21  2  0  0  0  0
 23 21  1  0  0  0  0
 24 25  1  0  0  0  0
 26 25  1  0  0  0  0
 27 26  1  0  0  0  0
 28 27  1  0  0  0  0
M  END
>  <MODEL>
5

>  <REMARK>
 VINA RESULT:      -8.5      1.804      2.911
  Name = 
  6 active torsions:
  status: ('A' for Active; 'I' for Inactive)
    1  A    between atoms: C_2  and  C_11
    2  A    between atoms: C_4  and  C_13
    3  A    between atoms: C_4  and  C_24
    4  A    between atoms: C_6  and  C_11
    5  A    between atoms: C_12  and  C_15
    6  A    between atoms: C_12  and  C_24
                            x       y       z     vdW  Elec       q    Type
                         _______ _______ _______ _____ _____    ______ ____

>  <TORSDO>
F 6

$$$$
=
 OpenBabel11052422543D

 28 31  0  0  1  0  0  0  0  0999 V2000
  161.7620  208.0020  152.7250 C   0  0  0  0  0  0  0  0  0  0  0  0
  161.7070  206.9660  153.8300 C   0  0  2  0  0  3  0  0  0  0  0  0
  161.3770  205.2270  152.2230 C   0  0  1  0  0  3  0  0  0  0  0  0
  161.9960  210.8380  149.6270 O   0  0  0  0  0  1  0  0  0  0  0  0
  160.8570  205.8340  153.4480 N   0  0  0  0  0  2  0  0  0  0  0  0
  160.2820  202.1230  150.2910 C   0  0  0  0  0  1  0  0  0  0  0  0
  161.2350  205.8140  149.7500 C   0  0  0  0  0  0  0  0  0  0  0  0
  160.9560  204.3650  149.3970 C   0  0  2  0  0  3  0  0  0  0  0  0
  160.5320  204.0140  151.8670 C   0  0  0  0  0  2  0  0  0  0  0  0
  161.6720  208.5380  150.3410 C   0  0  0  0  0  0  0  0  0  0  0  0
  161.3750  206.2310  151.0920 C   0  0  0  0  0  0  0  0  0  0  0  0
  161.0610  203.3910  150.5850 C   0  0  1  0  0  3  0  0  0  0  0  0
  162.1230  210.2820  151.9640 C   0  0  0  0  0  3  0  0  0  0  0  0
  161.4880  208.1210  149.0190 C   0  0  0  0  0  3  0  0  0  0  0  0
  161.9270  209.8870  150.6380 C   0  0  0  0  0  0  0  0  0  0  0  0
  161.2640  206.7740  148.7290 C   0  0  0  0  0  3  0  0  0  0  0  0
  162.0480  209.3480  152.9990 C   0  0  0  0  0  3  0  0  0  0  0  0
  161.6060  207.5890  151.3860 C   0  0  0  0  0  0  0  0  0  0  0  0
  162.0970  207.7210  156.0520 O   0  0  0  0  0  0  0  0  0  0  0  0
  161.2430  207.5250  155.1460 C   0  0  0  0  0  0  0  0  0  0  0  0
  159.8270  207.8510  155.4020 C   0  0  0  0  0  0  0  0  0  0  0  0
  159.0230  206.9410  155.7380 O   0  0  0  0  0  0  0  0  0  0  0  0
  159.3540  209.1880  155.2750 N   0  0  0  0  0  1  0  0  0  0  0  0
  161.8100  203.8810  148.2190 C   0  0  0  0  0  2  0  0  0  0  0  0
  161.3920  204.5280  146.9070 C   0  0  0  0  0  2  0  0  0  0  0  0
  161.4650  203.5040  145.7950 C   0  0  0  0  0  2  0  0  0  0  0  0
  160.9880  202.1630  146.3140 C   0  0  0  0  0  2  0  0  0  0  0  0
  160.1740  201.4690  145.2430 C   0  0  0  0  0  1  0  0  0  0  0  0
  1 17  1  0  0  0  0
  1  2  1  0  0  0  0
  2 20  1  1  0  0  0
  3  9  1  6  0  0  0
  3  5  1  0  0  0  0
  4 15  1  0  0  0  0
  5  2  1  0  0  0  0
  7 11  2  0  0  0  0
  8 24  1  6  0  0  0
  8  7  1  0  0  0  0
  8 12  1  0  0  0  0
 10 15  2  0  0  0  0
 10 18  1  0  0  0  0
 11 18  1  0  0  0  0
 11  3  1  0  0  0  0
 12  6  1  6  0  0  0
 12  9  1  0  0  0  0
 13 17  2  0  0  0  0
 14 10  1  0  0  0  0
 15 13  1  0  0  0  0
 16 14  2  0  0  0  0
 16  7  1  0  0  0  0
 18  1  2  0  0  0  0
 20 21  1  0  0  0  0
 20 19  2  0  0  0  0
 21 22  2  0  0  0  0
 23 21  1  0  0  0  0
 25 24  1  0  0  0  0
 26 27  1  0  0  0  0
 26 25  1  0  0  0  0
 28 27  1  0  0  0  0
M  END
>  <MODEL>
6

>  <REMARK>
 VINA RESULT:      -8.1      3.465      7.976
  Name = 
  6 active torsions:
  status: ('A' for Active; 'I' for Inactive)
    1  A    between atoms: C_2  and  C_11
    2  A    between atoms: C_4  and  C_13
    3  A    between atoms: C_4  and  C_24
    4  A    between atoms: C_6  and  C_11
    5  A    between atoms: C_12  and  C_15
    6  A    between atoms: C_12  and  C_24
                            x       y       z     vdW  Elec       q    Type
                         _______ _______ _______ _____ _____    ______ ____

>  <TORSDO>
F 6

$$$$
=
 OpenBabel11052422543D

 28 31  0  0  1  0  0  0  0  0999 V2000
  161.1630  204.3050  149.4020 C   0  0  0  0  0  0  0  0  0  0  0  0
  160.7650  203.5040  150.6270 C   0  0  2  0  0  3  0  0  0  0  0  0
  160.7990  205.4840  151.9670 C   0  0  1  0  0  3  0  0  0  0  0  0
  162.1830  206.5700  146.0080 O   0  0  0  0  0  1  0  0  0  0  0  0
  161.2980  204.1140  151.8490 N   0  0  0  0  0  2  0  0  0  0  0  0
  161.2100  208.0830  154.7310 C   0  0  0  0  0  1  0  0  0  0  0  0
  161.4430  207.7070  150.9060 C   0  0  0  0  0  0  0  0  0  0  0  0
  161.3390  208.4050  152.2500 C   0  0  2  0  0  3  0  0  0  0  0  0
  161.3000  206.0900  153.2690 C   0  0  0  0  0  2  0  0  0  0  0  0
  161.7310  206.4580  148.3920 C   0  0  0  0  0  0  0  0  0  0  0  0
  161.2450  206.3140  150.7840 C   0  0  0  0  0  0  0  0  0  0  0  0
  160.7960  207.5190  153.3850 C   0  0  1  0  0  3  0  0  0  0  0  0
  161.5820  204.4700  147.0140 C   0  0  0  0  0  3  0  0  0  0  0  0
  161.9670  207.8290  148.5330 C   0  0  0  0  0  3  0  0  0  0  0  0
  161.8360  205.8380  147.1370 C   0  0  0  0  0  0  0  0  0  0  0  0
  161.8320  208.4440  149.7790 C   0  0  0  0  0  3  0  0  0  0  0  0
  161.2420  203.7090  148.1340 C   0  0  0  0  0  3  0  0  0  0  0  0
  161.3760  205.6920  149.5270 C   0  0  0  0  0  0  0  0  0  0  0  0
  161.9910  201.6270  151.4210 O   0  0  0  0  0  0  0  0  0  0  0  0
  161.1850  202.0630  150.5560 C   0  0  0  0  0  0  0  0  0  0  0  0
  160.6790  201.1510  149.5130 C   0  0  0  0  0  0  0  0  0  0  0  0
  159.4400  200.9590  149.3910 O   0  0  0  0  0  0  0  0  0  0  0  0
  161.5770  200.4810  148.6330 N   0  0  0  0  0  1  0  0  0  0  0  0
  160.5520  209.7180  152.1600 C   0  0  0  0  0  2  0  0  0  0  0  0
  161.4640  210.9170  151.9470 C   0  0  0  0  0  2  0  0  0  0  0  0
  160.8220  211.8710  150.9630 C   0  0  0  0  0  2  0  0  0  0  0  0
  161.5800  211.8280  149.6530 C   0  0  0  0  0  2  0  0  0  0  0  0
  161.1960  213.0240  148.8090 C   0  0  0  0  0  1  0  0  0  0  0  0
  1 18  1  0  0  0  0
  1  2  1  0  0  0  0
  2 20  1  6  0  0  0
  2  5  1  0  0  0  0
  3  9  1  1  0  0  0
  4 15  1  0  0  0  0
  5  3  1  0  0  0  0
  7  8  1  0  0  0  0
  8 24  1  6  0  0  0
  8 12  1  0  0  0  0
  9 12  1  0  0  0  0
 10 14  2  0  0  0  0
 10 18  1  0  0  0  0
 11  7  1  0  0  0  0
 11  3  1  0  0  0  0
 12  6  1  1  0  0  0
 13 15  2  0  0  0  0
 13 17  1  0  0  0  0
 14 16  1  0  0  0  0
 15 10  1  0  0  0  0
 16  7  2  0  0  0  0
 17  1  2  0  0  0  0
 18 11  2  0  0  0  0
 20 19  2  0  0  0  0
 21 20  1  0  0  0  0
 22 21  2  0  0  0  0
 23 21  1  0  0  0  0
 25 24  1  0  0  0  0
 26 25  1  0  0  0  0
 27 26  1  0  0  0  0
 28 27  1  0  0  0  0
M  END
>  <MODEL>
7

>  <REMARK>
 VINA RESULT:      -7.7      2.098      4.950
  Name = 
  6 active torsions:
  status: ('A' for Active; 'I' for Inactive)
    1  A    between atoms: C_2  and  C_11
    2  A    between atoms: C_4  and  C_13
    3  A    between atoms: C_4  and  C_24
    4  A    between atoms: C_6  and  C_11
    5  A    between atoms: C_12  and  C_15
    6  A    between atoms: C_12  and  C_24
                            x       y       z     vdW  Elec       q    Type
                         _______ _______ _______ _____ _____    ______ ____

>  <TORSDO>
F 6

$$$$
=
 OpenBabel11052422543D

 28 31  0  0  1  0  0  0  0  0999 V2000
  161.2250  206.0870  150.5640 C   0  0  0  0  0  0  0  0  0  0  0  0
  160.7930  204.8620  151.3470 C   0  0  2  0  0  3  0  0  0  0  0  0
  160.5630  206.1770  153.3310 C   0  0  1  0  0  3  0  0  0  0  0  0
  162.3350  209.5200  148.4010 O   0  0  0  0  0  1  0  0  0  0  0  0
  161.1760  204.9790  152.7580 N   0  0  0  0  0  2  0  0  0  0  0  0
  160.5450  207.5340  156.8980 C   0  0  0  0  0  1  0  0  0  0  0  0
  161.1150  208.6620  153.2610 C   0  0  0  0  0  0  0  0  0  0  0  0
  160.8480  208.7870  154.7490 C   0  0  2  0  0  3  0  0  0  0  0  0
  160.9080  206.2590  154.8100 C   0  0  0  0  0  2  0  0  0  0  0  0
  161.7020  208.4840  150.5060 C   0  0  0  0  0  0  0  0  0  0  0  0
  161.0370  207.4150  152.6020 C   0  0  0  0  0  0  0  0  0  0  0  0
  160.2860  207.5120  155.4030 C   0  0  1  0  0  3  0  0  0  0  0  0
  161.8210  207.1710  148.4720 C   0  0  0  0  0  3  0  0  0  0  0  0
  161.8170  209.7060  151.1780 C   0  0  0  0  0  3  0  0  0  0  0  0
  161.9560  208.3970  149.1280 C   0  0  0  0  0  0  0  0  0  0  0  0
  161.5340  209.7900  152.5420 C   0  0  0  0  0  3  0  0  0  0  0  0
  161.4520  206.0270  149.1800 C   0  0  0  0  0  3  0  0  0  0  0  0
  161.3180  207.3280  151.2240 C   0  0  0  0  0  0  0  0  0  0  0  0
  162.3290  203.0470  151.3350 O   0  0  0  0  0  0  0  0  0  0  0  0
  161.3290  203.5770  150.7820 C   0  0  0  0  0  0  0  0  0  0  0  0
  160.7180  202.9230  149.6100 C   0  0  0  0  0  0  0  0  0  0  0  0
  159.7480  202.1340  149.7630 O   0  0  0  0  0  0  0  0  0  0  0  0
  161.2100  203.1740  148.2970 N   0  0  0  0  0  1  0  0  0  0  0  0
  159.9710  210.0010  155.0800 C   0  0  0  0  0  2  0  0  0  0  0  0
  160.7590  211.1040  155.7690 C   0  0  0  0  0  2  0  0  0  0  0  0
  160.0790  212.4350  155.5280 C   0  0  0  0  0  2  0  0  0  0  0  0
  159.4180  212.4230  154.1660 C   0  0  0  0  0  2  0  0  0  0  0  0
  158.1220  213.2020  154.2270 C   0  0  0  0  0  1  0  0  0  0  0  0
  1 18  1  0  0  0  0
  1  2  1  0  0  0  0
  2 20  1  6  0  0  0
  2  5  1  0  0  0  0
  3  9  1  1  0  0  0
  4 15  1  0  0  0  0
  5  3  1  0  0  0  0
  7  8  1  0  0  0  0
  8 24  1  6  0  0  0
  8 12  1  0  0  0  0
  9 12  1  0  0  0  0
 10 14  2  0  0  0  0
 10 18  1  0  0  0  0
 11  7  1  0  0  0  0
 11  3  1  0  0  0  0
 12  6  1  1  0  0  0
 13 15  2  0  0  0  0
 13 17  1  0  0  0  0
 14 16  1  0  0  0  0
 15 10  1  0  0  0  0
 16  7  2  0  0  0  0
 17  1  2  0  0  0  0
 18 11  2  0  0  0  0
 20 19  2  0  0  0  0
 21 22  2  0  0  0  0
 21 20  1  0  0  0  0
 23 21  1  0  0  0  0
 24 25  1  0  0  0  0
 26 25  1  0  0  0  0
 27 28  1  0  0  0  0
 27 26  1  0  0  0  0
M  END
>  <MODEL>
8

>  <REMARK>
 VINA RESULT:      -7.3      2.492      5.188
  Name = 
  6 active torsions:
  status: ('A' for Active; 'I' for Inactive)
    1  A    between atoms: C_2  and  C_11
    2  A    between atoms: C_4  and  C_13
    3  A    between atoms: C_4  and  C_24
    4  A    between atoms: C_6  and  C_11
    5  A    between atoms: C_12  and  C_15
    6  A    between atoms: C_12  and  C_24
                            x       y       z     vdW  Elec       q    Type
                         _______ _______ _______ _____ _____    ______ ____

>  <TORSDO>
F 6

$$$$
=
 OpenBabel11052422543D

 28 31  0  0  1  0  0  0  0  0999 V2000
  161.2730  203.3900  147.6090 C   0  0  0  0  0  0  0  0  0  0  0  0
  160.7500  202.3750  148.6070 C   0  0  2  0  0  3  0  0  0  0  0  0
  160.8240  204.0090  150.3510 C   0  0  1  0  0  3  0  0  0  0  0  0
  162.6420  206.2540  144.8500 O   0  0  0  0  0  1  0  0  0  0  0  0
  161.2430  202.6640  149.9580 N   0  0  0  0  0  2  0  0  0  0  0  0
  161.2240  205.9090  153.6370 C   0  0  0  0  0  1  0  0  0  0  0  0
  161.6700  206.3550  149.8380 C   0  0  0  0  0  0  0  0  0  0  0  0
  161.5270  206.7510  151.2960 C   0  0  2  0  0  3  0  0  0  0  0  0
  161.2790  204.2790  151.7770 C   0  0  0  0  0  2  0  0  0  0  0  0
  162.0360  205.6620  147.1270 C   0  0  0  0  0  0  0  0  0  0  0  0
  161.3940  205.0400  149.4030 C   0  0  0  0  0  0  0  0  0  0  0  0
  160.8590  205.6830  152.1820 C   0  0  1  0  0  3  0  0  0  0  0  0
  161.8490  204.0370  145.3390 C   0  0  0  0  0  3  0  0  0  0  0  0
  162.3480  206.9490  147.5780 C   0  0  0  0  0  3  0  0  0  0  0  0
  162.1800  205.3230  145.7720 C   0  0  0  0  0  0  0  0  0  0  0  0
  162.1740  207.2870  148.9210 C   0  0  0  0  0  3  0  0  0  0  0  0
  161.3930  203.0790  146.2460 C   0  0  0  0  0  3  0  0  0  0  0  0
  161.5640  204.6980  148.0470 C   0  0  0  0  0  0  0  0  0  0  0  0
  161.5810  200.2070  149.1230 O   0  0  0  0  0  0  0  0  0  0  0  0
  161.0830  200.9560  148.2410 C   0  0  0  0  0  0  0  0  0  0  0  0
  160.8400  200.4200  146.8880 C   0  0  0  0  0  0  0  0  0  0  0  0
  161.5810  199.5100  146.4290 O   0  0  0  0  0  0  0  0  0  0  0  0
  159.7710  200.9180  146.0890 N   0  0  0  0  0  1  0  0  0  0  0  0
  160.8310  208.1080  151.4610 C   0  0  0  0  0  2  0  0  0  0  0  0
  161.7690  209.1680  152.0160 C   0  0  0  0  0  2  0  0  0  0  0  0
  160.9680  210.1990  152.7820 C   0  0  0  0  0  2  0  0  0  0  0  0
  160.4560  209.5840  154.0680 C   0  0  0  0  0  2  0  0  0  0  0  0
  161.5810  209.5170  155.0780 C   0  0  0  0  0  1  0  0  0  0  0  0
  1 18  1  0  0  0  0
  1  2  1  0  0  0  0
  2 20  1  6  0  0  0
  2  5  1  0  0  0  0
  3  9  1  1  0  0  0
  4 15  1  0  0  0  0
  5  3  1  0  0  0  0
  7  8  1  0  0  0  0
  8 24  1  6  0  0  0
  8 12  1  0  0  0  0
  9 12  1  0  0  0  0
 10 14  2  0  0  0  0
 10 18  1  0  0  0  0
 11  7  1  0  0  0  0
 11  3  1  0  0  0  0
 12  6  1  1  0  0  0
 13 15  2  0  0  0  0
 13 17  1  0  0  0  0
 14 16  1  0  0  0  0
 15 10  1  0  0  0  0
 16  7  2  0  0  0  0
 17  1  2  0  0  0  0
 18 11  2  0  0  0  0
 20 19  2  0  0  0  0
 21 20  1  0  0  0  0
 22 21  2  0  0  0  0
 23 21  1  0  0  0  0
 24 25  1  0  0  0  0
 25 26  1  0  0  0  0
 26 27  1  0  0  0  0
 27 28  1  0  0  0  0
M  END
>  <MODEL>
9

>  <REMARK>
 VINA RESULT:      -7.1      1.754      4.124
  Name = 
  6 active torsions:
  status: ('A' for Active; 'I' for Inactive)
    1  A    between atoms: C_2  and  C_11
    2  A    between atoms: C_4  and  C_13
    3  A    between atoms: C_4  and  C_24
    4  A    between atoms: C_6  and  C_11
    5  A    between atoms: C_12  and  C_15
    6  A    between atoms: C_12  and  C_24
                            x       y       z     vdW  Elec       q    Type
                         _______ _______ _______ _____ _____    ______ ____

>  <TORSDO>
F 6

$$$$
