=
 OpenBabel11062409083D

 37 42  0  0  1  0  0  0  0  0999 V2000
  159.2700  210.4960  154.1990 C   0  0  1  0  0  0  0  0  0  0  0  0
  158.2830  212.2800  156.0040 C   0  0  1  0  0  0  0  0  0  0  0  0
  158.6680  214.4070  153.0440 C   0  0  2  0  0  3  0  0  0  0  0  0
  160.2500  209.6170  155.0510 C   0  0  2  0  0  0  0  0  0  0  0  0
  156.4000  213.6670  154.7780 C   0  0  0  0  0  2  0  0  0  0  0  0
  159.6610  213.4980  152.3230 C   0  0  2  0  0  3  0  0  0  0  0  0
  161.2580  208.9680  154.1230 C   0  0  0  0  0  0  0  0  0  0  0  0
  160.2780  211.1790  157.0860 C   0  0  0  0  0  2  0  0  0  0  0  0
  158.8360  214.4530  154.5670 C   0  0  0  0  0  2  0  0  0  0  0  0
  159.7410  213.9280  150.8430 C   0  0  2  0  0  3  0  0  0  0  0  0
  155.0810  213.2730  152.8460 O   0  0  0  0  0  1  0  0  0  0  0  0
  159.5320  208.6220  155.7260 O   0  0  0  0  0  1  0  0  0  0  0  0
  158.1030  211.0830  155.0240 C   0  0  0  0  0  2  0  0  0  0  0  0
  157.1970  213.9210  151.0120 C   0  0  0  0  0  2  0  0  0  0  0  0
  161.0870  210.4060  156.0680 C   0  0  0  0  0  2  0  0  0  0  0  0
  156.4000  213.2910  153.3050 C   0  0  1  0  0  3  0  0  0  0  0  0
  159.7440  212.4380  156.4320 C   0  0  0  0  0  2  0  0  0  0  0  0
  161.5930  209.6060  152.8020 C   0  0  0  0  0  2  0  0  0  0  0  0
  159.2610  212.1570  152.4210 O   0  0  0  0  0  0  0  0  0  0  0  0
  157.2210  214.3020  152.5060 C   0  0  1  0  0  3  0  0  0  0  0  0
  160.0510  211.5900  153.4290 C   0  0  2  0  0  3  0  0  0  0  0  0
  157.8150  213.6240  155.3640 C   0  0  2  0  0  3  0  0  0  0  0  0
  161.4180  211.1250  152.8700 C   0  0  0  0  0  2  0  0  0  0  0  0
  161.8130  207.9270  154.4400 O   0  0  0  0  0  0  0  0  0  0  0  0
  158.5620  209.5900  153.1840 C   0  0  0  0  0  1  0  0  0  0  0  0
  158.4140  214.4530  150.2550 C   0  0  0  0  0  2  0  0  0  0  0  0
  160.8530  211.8390  150.4900 O   0  0  0  0  0  0  0  0  0  0  0  0
  160.3900  212.8910  149.9680 C   0  0  0  0  0  0  0  0  0  0  0  0
  161.7800  213.5640  148.0000 C   0  0  0  0  0  3  0  0  0  0  0  0
  160.5530  213.1250  148.5200 C   0  0  0  0  0  0  0  0  0  0  0  0
  159.4830  212.8910  147.6430 C   0  0  0  0  0  3  0  0  0  0  0  0
  158.2950  212.7990  145.1860 Cl  0  0  0  0  0  0  0  0  0  0  0  0
  160.8620  213.5350  145.7600 C   0  0  0  0  0  3  0  0  0  0  0  0
  159.6380  213.0960  146.2690 C   0  0  0  0  0  0  0  0  0  0  0  0
  161.9340  213.7690  146.6260 C   0  0  0  0  0  3  0  0  0  0  0  0
  156.3040  211.4810  156.9790 C   0  0  0  0  0  1  0  0  0  0  0  0
  157.5640  212.0620  157.2140 O   0  0  0  0  0  0  0  0  0  0  0  0
  1 25  1  6  0  0  0
  1 13  1  0  0  0  0
  1  4  1  0  0  0  0
  2 17  1  0  0  0  0
  2 37  1  1  0  0  0
  3  9  1  1  0  0  0
  4 12  1  1  0  0  0
  4 15  1  0  0  0  0
  5 22  1  0  0  0  0
  6 19  1  6  0  0  0
  6  3  1  0  0  0  0
  7 24  2  0  0  0  0
  7  4  1  0  0  0  0
 10 28  1  6  0  0  0
 10  6  1  0  0  0  0
 13  2  1  0  0  0  0
 15  8  1  0  0  0  0
 16 11  1  6  0  0  0
 16  5  1  0  0  0  0
 17  8  1  0  0  0  0
 18 23  1  0  0  0  0
 18  7  1  0  0  0  0
 19 21  1  0  0  0  0
 20 14  1  6  0  0  0
 20  3  1  0  0  0  0
 20 16  1  0  0  0  0
 21 23  1  6  0  0  0
 21  1  1  0  0  0  0
 22  9  1  6  0  0  0
 22  2  1  0  0  0  0
 26 10  1  0  0  0  0
 26 14  1  0  0  0  0
 28 27  2  0  0  0  0
 29 30  1  0  0  0  0
 30 28  1  0  0  0  0
 31 30  2  0  0  0  0
 32 34  1  0  0  0  0
 33 34  2  0  0  0  0
 33 35  1  0  0  0  0
 34 31  1  0  0  0  0
 35 29  2  0  0  0  0
 36 37  1  0  0  0  0
M  END
>  <MODEL>
1

>  <REMARK>
 VINA RESULT:      -0.1      0.000      0.000
  Name = 
  3 active torsions:
  status: ('A' for Active; 'I' for Inactive)
    1  A    between atoms: C_3  and  O_32
    2  A    between atoms: C_6  and  C_31
    3  A    between atoms: C_14  and  C_31
                            x       y       z     vdW  Elec       q    Type
                         _______ _______ _______ _____ _____    ______ ____

>  <TORSDO>
F 3

$$$$
=
 OpenBabel11062409083D

 37 42  0  0  1  0  0  0  0  0999 V2000
  161.3900  210.8170  152.2340 C   0  0  1  0  0  0  0  0  0  0  0  0
  159.5440  211.6810  154.0380 C   0  0  1  0  0  0  0  0  0  0  0  0
  159.7570  208.1240  154.8920 C   0  0  2  0  0  3  0  0  0  0  0  0
  161.0300  211.6110  150.9300 C   0  0  2  0  0  0  0  0  0  0  0  0
  160.1900  210.6350  156.3750 C   0  0  0  0  0  2  0  0  0  0  0  0
  160.3620  207.6770  153.5630 C   0  0  2  0  0  3  0  0  0  0  0  0
  161.5820  210.8630  149.7320 C   0  0  0  0  0  0  0  0  0  0  0  0
  158.7460  212.4310  151.7650 C   0  0  0  0  0  2  0  0  0  0  0  0
  158.7300  209.2550  154.7760 C   0  0  0  0  0  2  0  0  0  0  0  0
  160.9390  206.2560  153.7350 C   0  0  2  0  0  3  0  0  0  0  0  0
  162.2000  209.7390  157.2610 O   0  0  0  0  0  1  0  0  0  0  0  0
  161.5960  212.8910  150.9810 O   0  0  0  0  0  1  0  0  0  0  0  0
  161.0120  211.5670  153.5300 C   0  0  0  0  0  2  0  0  0  0  0  0
  161.9540  207.2450  155.8540 C   0  0  0  0  0  2  0  0  0  0  0  0
  159.5220  211.7400  150.6650 C   0  0  0  0  0  2  0  0  0  0  0  0
  161.3320  209.6540  156.1700 C   0  0  1  0  0  3  0  0  0  0  0  0
  158.5400  211.4530  152.9050 C   0  0  0  0  0  2  0  0  0  0  0  0
  161.8120  209.3780  149.8060 C   0  0  0  0  0  2  0  0  0  0  0  0
  161.3690  208.5670  153.1580 O   0  0  0  0  0  0  0  0  0  0  0  0
  160.7860  208.2330  156.0420 C   0  0  1  0  0  3  0  0  0  0  0  0
  160.7890  209.3900  152.1850 C   0  0  2  0  0  3  0  0  0  0  0  0
  159.2440  210.6500  155.1700 C   0  0  2  0  0  3  0  0  0  0  0  0
  160.8380  208.7230  150.7890 C   0  0  0  0  0  2  0  0  0  0  0  0
  161.8380  211.4550  148.6950 O   0  0  0  0  0  0  0  0  0  0  0  0
  162.9180  210.7040  152.3260 C   0  0  0  0  0  1  0  0  0  0  0  0
  161.5270  205.9670  155.1320 C   0  0  0  0  0  2  0  0  0  0  0  0
  162.9830  206.4590  152.5080 O   0  0  0  0  0  0  0  0  0  0  0  0
  161.8740  205.8670  152.6230 C   0  0  0  0  0  0  0  0  0  0  0  0
  161.0270  203.5870  152.0330 C   0  0  0  0  0  3  0  0  0  0  0  0
  161.4770  204.8530  151.6270 C   0  0  0  0  0  0  0  0  0  0  0  0
  161.5280  205.1530  150.2570 C   0  0  0  0  0  3  0  0  0  0  0  0
  161.2060  204.5900  147.6050 Cl  0  0  0  0  0  0  0  0  0  0  0  0
  160.6940  202.9440  149.7230 C   0  0  0  0  0  3  0  0  0  0  0  0
  161.1380  204.2020  149.3100 C   0  0  0  0  0  0  0  0  0  0  0  0
  160.6380  202.6360  151.0860 C   0  0  0  0  0  3  0  0  0  0  0  0
  158.0120  213.0750  155.1400 C   0  0  0  0  0  1  0  0  0  0  0  0
  159.2700  212.9950  154.5160 O   0  0  0  0  0  0  0  0  0  0  0  0
  1 25  1  1  0  0  0
  1 13  1  0  0  0  0
  2 37  1  1  0  0  0
  2 22  1  0  0  0  0
  3  9  1  6  0  0  0
  3 20  1  0  0  0  0
  4 12  1  1  0  0  0
  4  1  1  0  0  0  0
  6 19  1  1  0  0  0
  6 10  1  0  0  0  0
  6  3  1  0  0  0  0
  7 18  1  0  0  0  0
  7  4  1  0  0  0  0
  8 17  1  0  0  0  0
 10 28  1  6  0  0  0
 10 26  1  0  0  0  0
 13  2  1  0  0  0  0
 15  4  1  0  0  0  0
 15  8  1  0  0  0  0
 16  5  1  0  0  0  0
 16 11  1  1  0  0  0
 17  2  1  0  0  0  0
 18 23  1  0  0  0  0
 20 14  1  6  0  0  0
 20 16  1  0  0  0  0
 21 23  1  6  0  0  0
 21  1  1  0  0  0  0
 21 19  1  0  0  0  0
 22  9  1  6  0  0  0
 22  5  1  0  0  0  0
 24  7  2  0  0  0  0
 26 14  1  0  0  0  0
 27 28  2  0  0  0  0
 30 29  1  0  0  0  0
 30 28  1  0  0  0  0
 31 30  2  0  0  0  0
 32 34  1  0  0  0  0
 33 35  1  0  0  0  0
 34 33  2  0  0  0  0
 34 31  1  0  0  0  0
 35 29  2  0  0  0  0
 37 36  1  0  0  0  0
M  END
>  <MODEL>
2

>  <REMARK>
 VINA RESULT:       0.5      3.402      6.844
  Name = 
  3 active torsions:
  status: ('A' for Active; 'I' for Inactive)
    1  A    between atoms: C_3  and  O_32
    2  A    between atoms: C_6  and  C_31
    3  A    between atoms: C_14  and  C_31
                            x       y       z     vdW  Elec       q    Type
                         _______ _______ _______ _____ _____    ______ ____

>  <TORSDO>
F 3

$$$$
=
 OpenBabel11062409083D

 37 42  0  0  1  0  0  0  0  0999 V2000
  160.2020  211.4700  153.9200 C   0  0  1  0  0  0  0  0  0  0  0  0
  158.7610  210.6270  156.0700 C   0  0  1  0  0  0  0  0  0  0  0  0
  159.8350  207.4290  154.6410 C   0  0  2  0  0  3  0  0  0  0  0  0
  159.3770  212.6900  153.3800 C   0  0  2  0  0  0  0  0  0  0  0  0
  160.1710  208.7390  157.2610 C   0  0  0  0  0  2  0  0  0  0  0  0
  160.1470  207.9730  153.2480 C   0  0  2  0  0  3  0  0  0  0  0  0
  159.7260  212.9110  151.9210 C   0  0  0  0  0  0  0  0  0  0  0  0
  157.2770  212.2030  154.7740 C   0  0  0  0  0  2  0  0  0  0  0  0
  158.6240  208.0760  155.3210 C   0  0  0  0  0  2  0  0  0  0  0  0
  160.9980  206.9340  152.4900 C   0  0  2  0  0  3  0  0  0  0  0  0
  162.4700  208.1570  157.2320 O   0  0  0  0  0  1  0  0  0  0  0  0
  159.6920  213.8400  154.1130 O   0  0  0  0  0  1  0  0  0  0  0  0
  160.0420  211.2500  155.4410 C   0  0  0  0  0  2  0  0  0  0  0  0
  162.3300  206.8770  154.6630 C   0  0  0  0  0  2  0  0  0  0  0  0
  157.8550  212.4830  153.4030 C   0  0  0  0  0  2  0  0  0  0  0  0
  161.3810  208.4180  156.3990 C   0  0  1  0  0  3  0  0  0  0  0  0
  157.5570  210.7570  155.1350 C   0  0  0  0  0  2  0  0  0  0  0  0
  160.2350  211.7700  151.0830 C   0  0  0  0  0  2  0  0  0  0  0  0
  160.8330  209.1940  153.3400 O   0  0  0  0  0  0  0  0  0  0  0  0
  161.0890  207.2040  155.5180 C   0  0  1  0  0  3  0  0  0  0  0  0
  159.8810  210.1930  153.1060 C   0  0  2  0  0  3  0  0  0  0  0  0
  158.9590  209.1160  156.4040 C   0  0  2  0  0  3  0  0  0  0  0  0
  159.6870  210.4330  151.5890 C   0  0  0  0  0  2  0  0  0  0  0  0
  159.5920  214.0120  151.4110 O   0  0  0  0  0  0  0  0  0  0  0  0
  161.6950  211.7890  153.7660 C   0  0  0  0  0  1  0  0  0  0  0  0
  161.9710  206.1300  153.3780 C   0  0  0  0  0  2  0  0  0  0  0  0
  162.2920  208.5990  151.3600 O   0  0  0  0  0  0  0  0  0  0  0  0
  161.6680  207.5050  151.2710 C   0  0  0  0  0  0  0  0  0  0  0  0
  161.7060  207.5620  148.7690 C   0  0  0  0  0  3  0  0  0  0  0  0
  161.5410  206.8380  149.9600 C   0  0  0  0  0  0  0  0  0  0  0  0
  161.2700  205.4640  149.8920 C   0  0  0  0  0  3  0  0  0  0  0  0
  160.8280  203.1080  148.5830 Cl  0  0  0  0  0  0  0  0  0  0  0  0
  161.3280  205.5530  147.4740 C   0  0  0  0  0  3  0  0  0  0  0  0
  161.1640  204.8240  148.6530 C   0  0  0  0  0  0  0  0  0  0  0  0
  161.5990  206.9230  147.5310 C   0  0  0  0  0  3  0  0  0  0  0  0
  158.8610  212.6470  157.2610 C   0  0  0  0  0  1  0  0  0  0  0  0
  158.3850  211.3230  157.2560 O   0  0  0  0  0  0  0  0  0  0  0  0
  1 25  1  6  0  0  0
  1 13  1  0  0  0  0
  2 22  1  0  0  0  0
  2 37  1  1  0  0  0
  3  9  1  1  0  0  0
  3 20  1  0  0  0  0
  4 15  1  0  0  0  0
  4  1  1  0  0  0  0
  4 12  1  1  0  0  0
  6 19  1  1  0  0  0
  6  3  1  0  0  0  0
  7  4  1  0  0  0  0
  8 17  1  0  0  0  0
 10 28  1  6  0  0  0
 10  6  1  0  0  0  0
 10 26  1  0  0  0  0
 13  2  1  0  0  0  0
 15  8  1  0  0  0  0
 16 11  1  1  0  0  0
 16  5  1  0  0  0  0
 17  2  1  0  0  0  0
 18 23  1  0  0  0  0
 18  7  1  0  0  0  0
 20 14  1  6  0  0  0
 20 16  1  0  0  0  0
 21 23  1  6  0  0  0
 21 19  1  0  0  0  0
 21  1  1  0  0  0  0
 22  9  1  6  0  0  0
 22  5  1  0  0  0  0
 24  7  2  0  0  0  0
 26 14  1  0  0  0  0
 28 27  2  0  0  0  0
 29 30  1  0  0  0  0
 30 28  1  0  0  0  0
 31 30  2  0  0  0  0
 32 34  1  0  0  0  0
 33 35  1  0  0  0  0
 33 34  2  0  0  0  0
 34 31  1  0  0  0  0
 35 29  2  0  0  0  0
 37 36  1  0  0  0  0
M  END
>  <MODEL>
3

>  <REMARK>
 VINA RESULT:       1.0      3.330      6.098
  Name = 
  3 active torsions:
  status: ('A' for Active; 'I' for Inactive)
    1  A    between atoms: C_3  and  O_32
    2  A    between atoms: C_6  and  C_31
    3  A    between atoms: C_14  and  C_31
                            x       y       z     vdW  Elec       q    Type
                         _______ _______ _______ _____ _____    ______ ____

>  <TORSDO>
F 3

$$$$
=
 OpenBabel11062409083D

 37 42  0  0  1  0  0  0  0  0999 V2000
  160.3180  209.8570  153.2700 C   0  0  1  0  0  0  0  0  0  0  0  0
  159.9510  210.6250  155.8560 C   0  0  1  0  0  0  0  0  0  0  0  0
  158.7570  213.5890  154.0620 C   0  0  2  0  0  3  0  0  0  0  0  0
  161.6760  209.0730  153.3090 C   0  0  2  0  0  0  0  0  0  0  0  0
  157.5570  211.7270  156.0080 C   0  0  0  0  0  2  0  0  0  0  0  0
  159.4680  213.2760  152.7470 C   0  0  2  0  0  3  0  0  0  0  0  0
  162.2780  209.0650  151.9170 C   0  0  0  0  0  0  0  0  0  0  0  0
  162.3460  209.8580  155.6590 C   0  0  0  0  0  2  0  0  0  0  0  0
  159.5440  213.2010  155.3190 C   0  0  0  0  0  2  0  0  0  0  0  0
  158.8570  214.1520  151.6330 C   0  0  2  0  0  3  0  0  0  0  0  0
  155.6140  211.6000  154.6530 O   0  0  0  0  0  1  0  0  0  0  0  0
  161.4530  207.7550  153.7270 O   0  0  0  0  0  1  0  0  0  0  0  0
  159.5400  209.7960  154.6020 C   0  0  0  0  0  2  0  0  0  0  0  0
  156.6490  213.3660  152.6370 C   0  0  0  0  0  2  0  0  0  0  0  0
  162.7480  209.7080  154.2080 C   0  0  0  0  0  2  0  0  0  0  0  0
  156.9860  211.8490  154.6040 C   0  0  1  0  0  3  0  0  0  0  0  0
  161.4200  211.0500  155.7890 C   0  0  0  0  0  2  0  0  0  0  0  0
  161.9340  210.1530  150.9360 C   0  0  0  0  0  2  0  0  0  0  0  0
  159.3340  211.9160  152.4270 O   0  0  0  0  0  0  0  0  0  0  0  0
  157.2480  213.2490  154.0520 C   0  0  1  0  0  3  0  0  0  0  0  0
  160.5450  211.3120  152.7890 C   0  0  2  0  0  3  0  0  0  0  0  0
  159.0780  211.9080  156.0100 C   0  0  2  0  0  3  0  0  0  0  0  0
  161.5970  211.4580  151.6640 C   0  0  0  0  0  2  0  0  0  0  0  0
  163.0510  208.1820  151.5810 O   0  0  0  0  0  0  0  0  0  0  0  0
  159.3800  209.1530  152.2820 C   0  0  0  0  0  1  0  0  0  0  0  0
  157.3480  214.4330  151.7940 C   0  0  0  0  0  2  0  0  0  0  0  0
  160.3840  213.2720  150.0160 O   0  0  0  0  0  0  0  0  0  0  0  0
  159.2110  213.6730  150.2530 C   0  0  0  0  0  0  0  0  0  0  0  0
  156.9920  214.3840  149.3420 C   0  0  0  0  0  3  0  0  0  0  0  0
  158.2230  213.7360  149.1580 C   0  0  0  0  0  0  0  0  0  0  0  0
  158.5140  213.1620  147.9120 C   0  0  0  0  0  3  0  0  0  0  0  0
  157.9650  212.5130  145.3170 Cl  0  0  0  0  0  0  0  0  0  0  0  0
  156.3640  213.8770  147.0590 C   0  0  0  0  0  3  0  0  0  0  0  0
  157.5880  213.2330  146.8670 C   0  0  0  0  0  0  0  0  0  0  0  0
  156.0650  214.4530  148.2980 C   0  0  0  0  0  3  0  0  0  0  0  0
  159.9130  208.4630  156.7680 C   0  0  0  0  0  1  0  0  0  0  0  0
  159.8460  209.8410  157.0420 O   0  0  0  0  0  0  0  0  0  0  0  0
  1 25  1  6  0  0  0
  1  4  1  0  0  0  0
  1 13  1  0  0  0  0
  2 22  1  0  0  0  0
  2 37  1  1  0  0  0
  3  9  1  1  0  0  0
  4 12  1  1  0  0  0
  4 15  1  0  0  0  0
  5 22  1  0  0  0  0
  6 19  1  6  0  0  0
  6  3  1  0  0  0  0
  7  4  1  0  0  0  0
  8 17  1  0  0  0  0
 10 28  1  6  0  0  0
 10 26  1  0  0  0  0
 10  6  1  0  0  0  0
 13  2  1  0  0  0  0
 15  8  1  0  0  0  0
 16 11  1  1  0  0  0
 16  5  1  0  0  0  0
 17  2  1  0  0  0  0
 18 23  1  0  0  0  0
 18  7  1  0  0  0  0
 19 21  1  0  0  0  0
 20 14  1  6  0  0  0
 20  3  1  0  0  0  0
 20 16  1  0  0  0  0
 21 23  1  6  0  0  0
 21  1  1  0  0  0  0
 22  9  1  6  0  0  0
 24  7  2  0  0  0  0
 26 14  1  0  0  0  0
 27 28  2  0  0  0  0
 30 29  1  0  0  0  0
 30 28  1  0  0  0  0
 31 30  2  0  0  0  0
 32 34  1  0  0  0  0
 33 35  1  0  0  0  0
 34 33  2  0  0  0  0
 34 31  1  0  0  0  0
 35 29  2  0  0  0  0
 36 37  1  0  0  0  0
M  END
>  <MODEL>
4

>  <REMARK>
 VINA RESULT:       1.5      1.600      2.556
  Name = 
  3 active torsions:
  status: ('A' for Active; 'I' for Inactive)
    1  A    between atoms: C_3  and  O_32
    2  A    between atoms: C_6  and  C_31
    3  A    between atoms: C_14  and  C_31
                            x       y       z     vdW  Elec       q    Type
                         _______ _______ _______ _____ _____    ______ ____

>  <TORSDO>
F 3

$$$$
=
 OpenBabel11062409083D

 37 42  0  0  1  0  0  0  0  0999 V2000
  161.5770  211.7840  150.4640 C   0  0  1  0  0  0  0  0  0  0  0  0
  159.6400  212.9040  152.0140 C   0  0  1  0  0  0  0  0  0  0  0  0
  159.6470  209.4610  153.2690 C   0  0  2  0  0  3  0  0  0  0  0  0
  161.3450  212.4360  149.0570 C   0  0  2  0  0  0  0  0  0  0  0  0
  160.0720  212.1090  154.4950 C   0  0  0  0  0  2  0  0  0  0  0  0
  160.3300  208.8480  152.0480 C   0  0  2  0  0  3  0  0  0  0  0  0
  161.9520  211.5410  147.9940 C   0  0  0  0  0  0  0  0  0  0  0  0
  159.0400  213.4170  149.6180 C   0  0  0  0  0  2  0  0  0  0  0  0
  158.6780  210.6040  152.9500 C   0  0  0  0  0  2  0  0  0  0  0  0
  160.8360  207.4380  152.4190 C   0  0  2  0  0  3  0  0  0  0  0  0
  161.9740  211.2550  155.6260 O   0  0  0  0  0  1  0  0  0  0  0  0
  161.9560  213.6960  149.0090 O   0  0  0  0  0  1  0  0  0  0  0  0
  161.1350  212.6870  151.6360 C   0  0  0  0  0  2  0  0  0  0  0  0
  161.7320  208.6280  154.4880 C   0  0  0  0  0  2  0  0  0  0  0  0
  159.8670  212.5830  148.6640 C   0  0  0  0  0  2  0  0  0  0  0  0
  161.1860  211.0750  154.4880 C   0  0  1  0  0  3  0  0  0  0  0  0
  158.7130  212.5820  150.8400 C   0  0  0  0  0  2  0  0  0  0  0  0
  162.1170  210.0680  148.2490 C   0  0  0  0  0  2  0  0  0  0  0  0
  161.3980  209.6540  151.6260 O   0  0  0  0  0  0  0  0  0  0  0  0
  160.5940  209.6660  154.4750 C   0  0  1  0  0  3  0  0  0  0  0  0
  160.9250  210.3810  150.5270 C   0  0  2  0  0  3  0  0  0  0  0  0
  159.2180  212.0170  153.2260 C   0  0  2  0  0  3  0  0  0  0  0  0
  161.0490  209.5580  149.2210 C   0  0  0  0  0  2  0  0  0  0  0  0
  162.3070  212.0050  146.9220 O   0  0  0  0  0  0  0  0  0  0  0  0
  163.0880  211.6340  150.6860 C   0  0  0  0  0  1  0  0  0  0  0  0
  161.3080  207.2900  153.8810 C   0  0  0  0  0  2  0  0  0  0  0  0
  162.9330  207.4940  151.2700 O   0  0  0  0  0  0  0  0  0  0  0  0
  161.8330  206.8970  151.4330 C   0  0  0  0  0  0  0  0  0  0  0  0
  161.1450  204.5020  151.2010 C   0  0  0  0  0  3  0  0  0  0  0  0
  161.5080  205.7190  150.6040 C   0  0  0  0  0  0  0  0  0  0  0  0
  161.5420  205.8110  149.2050 C   0  0  0  0  0  3  0  0  0  0  0  0
  161.2650  204.8310  146.6710 Cl  0  0  0  0  0  0  0  0  0  0  0  0
  160.8620  203.4950  149.0180 C   0  0  0  0  0  3  0  0  0  0  0  0
  161.2200  204.7020  148.4160 C   0  0  0  0  0  0  0  0  0  0  0  0
  160.8250  203.3940  150.4120 C   0  0  0  0  0  3  0  0  0  0  0  0
  158.1410  214.4430  152.9570 C   0  0  0  0  0  1  0  0  0  0  0  0
  159.3850  214.2720  152.3230 O   0  0  0  0  0  0  0  0  0  0  0  0
  1 21  1  0  0  0  0
  1 25  1  1  0  0  0
  1 13  1  0  0  0  0
  2 37  1  1  0  0  0
  2 22  1  0  0  0  0
  3  9  1  6  0  0  0
  3 20  1  0  0  0  0
  4 12  1  6  0  0  0
  4  1  1  0  0  0  0
  6 19  1  1  0  0  0
  6 10  1  0  0  0  0
  6  3  1  0  0  0  0
  7 18  1  0  0  0  0
  7  4  1  0  0  0  0
  8 17  1  0  0  0  0
 10 28  1  6  0  0  0
 10 26  1  0  0  0  0
 13  2  1  0  0  0  0
 15  4  1  0  0  0  0
 15  8  1  0  0  0  0
 16  5  1  0  0  0  0
 16 11  1  1  0  0  0
 17  2  1  0  0  0  0
 18 23  1  0  0  0  0
 20 16  1  0  0  0  0
 20 14  1  6  0  0  0
 21 23  1  6  0  0  0
 21 19  1  0  0  0  0
 22  9  1  6  0  0  0
 22  5  1  0  0  0  0
 24  7  2  0  0  0  0
 26 14  1  0  0  0  0
 27 28  2  0  0  0  0
 30 29  1  0  0  0  0
 30 28  1  0  0  0  0
 31 30  2  0  0  0  0
 32 34  1  0  0  0  0
 33 35  1  0  0  0  0
 34 33  2  0  0  0  0
 34 31  1  0  0  0  0
 35 29  2  0  0  0  0
 37 36  1  0  0  0  0
M  END
>  <MODEL>
5

>  <REMARK>
 VINA RESULT:       1.6      3.417      6.705
  Name = 
  3 active torsions:
  status: ('A' for Active; 'I' for Inactive)
    1  A    between atoms: C_3  and  O_32
    2  A    between atoms: C_6  and  C_31
    3  A    between atoms: C_14  and  C_31
                            x       y       z     vdW  Elec       q    Type
                         _______ _______ _______ _____ _____    ______ ____

>  <TORSDO>
F 3

$$$$
=
 OpenBabel11062409083D

 37 42  0  0  1  0  0  0  0  0999 V2000
  160.8310  207.0010  150.7060 C   0  0  1  0  0  0  0  0  0  0  0  0
  161.1100  207.3440  153.3920 C   0  0  1  0  0  0  0  0  0  0  0  0
  161.8980  210.7060  152.1650 C   0  0  2  0  0  3  0  0  0  0  0  0
  161.4310  205.5740  150.4530 C   0  0  2  0  0  0  0  0  0  0  0  0
  159.8900  209.5990  154.0190 C   0  0  0  0  0  2  0  0  0  0  0  0
  162.2180  210.2810  150.7330 C   0  0  2  0  0  3  0  0  0  0  0  0
  161.8470  205.4680  148.9990 C   0  0  0  0  0  0  0  0  0  0  0  0
  162.5320  205.3580  152.7610 C   0  0  0  0  0  2  0  0  0  0  0  0
  162.3340  209.7030  153.2390 C   0  0  0  0  0  2  0  0  0  0  0  0
  162.2240  211.5360  149.8350 C   0  0  2  0  0  3  0  0  0  0  0  0
  158.2200  210.9030  152.9520 O   0  0  0  0  0  1  0  0  0  0  0  0
  160.4680  204.5970  150.7340 O   0  0  0  0  0  1  0  0  0  0  0  0
  160.2300  207.1700  152.1180 C   0  0  0  0  0  2  0  0  0  0  0  0
  160.0350  212.0450  151.0400 C   0  0  0  0  0  2  0  0  0  0  0  0
  162.7020  205.2710  151.2600 C   0  0  0  0  0  2  0  0  0  0  0  0
  159.4570  210.2920  152.7380 C   0  0  1  0  0  3  0  0  0  0  0  0
  162.5300  206.8180  153.1680 C   0  0  0  0  0  2  0  0  0  0  0  0
  162.1990  206.7050  148.2180 C   0  0  0  0  0  2  0  0  0  0  0  0
  161.2720  209.3540  150.2710 O   0  0  0  0  0  0  0  0  0  0  0  0
  160.4950  211.3370  152.3290 C   0  0  1  0  0  3  0  0  0  0  0  0
  161.8770  208.0960  150.3790 C   0  0  2  0  0  3  0  0  0  0  0  0
  161.2050  208.8390  153.8260 C   0  0  2  0  0  3  0  0  0  0  0  0
  162.7550  207.7930  149.1410 C   0  0  0  0  0  2  0  0  0  0  0  0
  161.9090  204.3790  148.4490 O   0  0  0  0  0  0  0  0  0  0  0  0
  159.6200  207.1890  149.7830 C   0  0  0  0  0  1  0  0  0  0  0  0
  161.2060  212.6220  150.2430 C   0  0  0  0  0  2  0  0  0  0  0  0
  162.7030  210.1480  147.9460 O   0  0  0  0  0  0  0  0  0  0  0  0
  162.1580  211.2050  148.3690 C   0  0  0  0  0  0  0  0  0  0  0  0
  162.2560  213.2070  146.8710 C   0  0  0  0  0  3  0  0  0  0  0  0
  161.5270  212.1380  147.4150 C   0  0  0  0  0  0  0  0  0  0  0  0
  160.1920  211.9530  147.0270 C   0  0  0  0  0  3  0  0  0  0  0  0
  157.9280  212.5820  145.6360 Cl  0  0  0  0  0  0  0  0  0  0  0  0
  160.3260  213.8860  145.5770 C   0  0  0  0  0  3  0  0  0  0  0  0
  159.5940  212.8250  146.1120 C   0  0  0  0  0  0  0  0  0  0  0  0
  161.6580  214.0780  145.9570 C   0  0  0  0  0  3  0  0  0  0  0  0
  160.9280  207.1350  155.7220 C   0  0  0  0  0  1  0  0  0  0  0  0
  160.5960  206.5730  154.4750 O   0  0  0  0  0  0  0  0  0  0  0  0
  1 25  1  6  0  0  0
  1 13  1  0  0  0  0
  2 22  1  0  0  0  0
  2 37  1  1  0  0  0
  3 20  1  0  0  0  0
  3  9  1  1  0  0  0
  4  1  1  0  0  0  0
  4 12  1  1  0  0  0
  4 15  1  0  0  0  0
  6 19  1  6  0  0  0
  6  3  1  0  0  0  0
  7  4  1  0  0  0  0
  8 17  1  0  0  0  0
 10 28  1  6  0  0  0
 10 26  1  0  0  0  0
 10  6  1  0  0  0  0
 13  2  1  0  0  0  0
 15  8  1  0  0  0  0
 16 11  1  1  0  0  0
 16  5  1  0  0  0  0
 17  2  1  0  0  0  0
 18  7  1  0  0  0  0
 18 23  1  0  0  0  0
 19 21  1  0  0  0  0
 20 14  1  6  0  0  0
 20 16  1  0  0  0  0
 21 23  1  6  0  0  0
 21  1  1  0  0  0  0
 22  9  1  6  0  0  0
 22  5  1  0  0  0  0
 24  7  2  0  0  0  0
 26 14  1  0  0  0  0
 27 28  2  0  0  0  0
 29 30  1  0  0  0  0
 30 28  1  0  0  0  0
 31 30  2  0  0  0  0
 32 34  1  0  0  0  0
 33 35  1  0  0  0  0
 33 34  2  0  0  0  0
 34 31  1  0  0  0  0
 35 29  2  0  0  0  0
 37 36  1  0  0  0  0
M  END
>  <MODEL>
6

>  <REMARK>
 VINA RESULT:       2.0      3.008      4.913
  Name = 
  3 active torsions:
  status: ('A' for Active; 'I' for Inactive)
    1  A    between atoms: C_3  and  O_32
    2  A    between atoms: C_6  and  C_31
    3  A    between atoms: C_14  and  C_31
                            x       y       z     vdW  Elec       q    Type
                         _______ _______ _______ _____ _____    ______ ____

>  <TORSDO>
F 3

$$$$
=
 OpenBabel11062409083D

 37 42  0  0  1  0  0  0  0  0999 V2000
  160.0160  210.2430  153.5070 C   0  0  1  0  0  0  0  0  0  0  0  0
  160.1180  211.3720  155.9810 C   0  0  1  0  0  0  0  0  0  0  0  0
  158.4140  213.9980  154.0760 C   0  0  2  0  0  3  0  0  0  0  0  0
  161.4000  209.5180  153.3760 C   0  0  2  0  0  0  0  0  0  0  0  0
  157.7370  212.4060  156.4640 C   0  0  0  0  0  2  0  0  0  0  0  0
  158.8700  213.5180  152.7000 C   0  0  2  0  0  3  0  0  0  0  0  0
  161.7160  209.3240  151.9060 C   0  0  0  0  0  0  0  0  0  0  0  0
  162.4700  210.6630  155.4090 C   0  0  0  0  0  2  0  0  0  0  0  0
  159.4550  213.8260  155.1880 C   0  0  0  0  0  2  0  0  0  0  0  0
  157.9990  214.1990  151.6240 C   0  0  2  0  0  3  0  0  0  0  0  0
  155.5770  212.0180  155.5640 O   0  0  0  0  0  1  0  0  0  0  0  0
  161.3450  208.2700  154.0090 O   0  0  0  0  0  1  0  0  0  0  0  0
  159.5200  210.3550  154.9650 C   0  0  0  0  0  2  0  0  0  0  0  0
  156.0840  213.4990  153.1550 C   0  0  0  0  0  2  0  0  0  0  0  0
  162.5860  210.3140  153.9410 C   0  0  0  0  0  2  0  0  0  0  0  0
  156.8950  212.3010  155.2030 C   0  0  1  0  0  3  0  0  0  0  0  0
  161.5150  211.8310  155.5590 C   0  0  0  0  0  2  0  0  0  0  0  0
  161.1190  210.2430  150.8750 C   0  0  0  0  0  2  0  0  0  0  0  0
  158.7600  212.1220  152.6050 O   0  0  0  0  0  0  0  0  0  0  0  0
  156.9560  213.6120  154.4200 C   0  0  1  0  0  3  0  0  0  0  0  0
  160.0530  211.6180  152.7930 C   0  0  2  0  0  3  0  0  0  0  0  0
  159.2140  212.6350  156.1310 C   0  0  2  0  0  3  0  0  0  0  0  0
  160.8530  211.6290  151.4680 C   0  0  0  0  0  2  0  0  0  0  0  0
  162.4610  208.4260  151.5450 O   0  0  0  0  0  0  0  0  0  0  0  0
  158.9460  209.3710  152.8370 C   0  0  0  0  0  1  0  0  0  0  0  0
  156.5370  214.4520  152.0470 C   0  0  0  0  0  2  0  0  0  0  0  0
  157.1760  212.7720  149.8900 O   0  0  0  0  0  0  0  0  0  0  0  0
  158.1040  213.5330  150.2800 C   0  0  0  0  0  0  0  0  0  0  0  0
  160.4640  214.3070  149.9730 C   0  0  0  0  0  3  0  0  0  0  0  0
  159.3110  213.7040  149.4480 C   0  0  0  0  0  0  0  0  0  0  0  0
  159.3240  213.2450  148.1220 C   0  0  0  0  0  3  0  0  0  0  0  0
  160.4720  212.8130  145.6820 Cl  0  0  0  0  0  0  0  0  0  0  0  0
  161.6110  213.9940  147.8650 C   0  0  0  0  0  3  0  0  0  0  0  0
  160.4700  213.3910  147.3340 C   0  0  0  0  0  0  0  0  0  0  0  0
  161.6090  214.4530  149.1860 C   0  0  0  0  0  3  0  0  0  0  0  0
  160.0240  209.3900  157.2340 C   0  0  0  0  0  1  0  0  0  0  0  0
  160.2970  210.7700  157.2610 O   0  0  0  0  0  0  0  0  0  0  0  0
  1 25  1  6  0  0  0
  1 13  1  0  0  0  0
  2 22  1  0  0  0  0
  2 37  1  1  0  0  0
  3 20  1  0  0  0  0
  3  9  1  1  0  0  0
  4  1  1  0  0  0  0
  4 15  1  0  0  0  0
  4 12  1  1  0  0  0
  6 19  1  1  0  0  0
  6  3  1  0  0  0  0
  7  4  1  0  0  0  0
  8 17  1  0  0  0  0
 10 28  1  6  0  0  0
 10 26  1  0  0  0  0
 10  6  1  0  0  0  0
 13  2  1  0  0  0  0
 15  8  1  0  0  0  0
 16 11  1  1  0  0  0
 16  5  1  0  0  0  0
 17  2  1  0  0  0  0
 18 23  1  0  0  0  0
 18  7  1  0  0  0  0
 19 21  1  0  0  0  0
 20 14  1  6  0  0  0
 20 16  1  0  0  0  0
 21 23  1  6  0  0  0
 21  1  1  0  0  0  0
 22  9  1  6  0  0  0
 22  5  1  0  0  0  0
 24  7  2  0  0  0  0
 26 14  1  0  0  0  0
 27 28  2  0  0  0  0
 30 29  1  0  0  0  0
 30 28  1  0  0  0  0
 31 30  2  0  0  0  0
 32 34  1  0  0  0  0
 33 35  1  0  0  0  0
 34 33  2  0  0  0  0
 34 31  1  0  0  0  0
 35 29  2  0  0  0  0
 36 37  1  0  0  0  0
M  END
>  <MODEL>
7

>  <REMARK>
 VINA RESULT:       2.1      1.469      2.227
  Name = 
  3 active torsions:
  status: ('A' for Active; 'I' for Inactive)
    1  A    between atoms: C_3  and  O_32
    2  A    between atoms: C_6  and  C_31
    3  A    between atoms: C_14  and  C_31
                            x       y       z     vdW  Elec       q    Type
                         _______ _______ _______ _____ _____    ______ ____

>  <TORSDO>
F 3

$$$$
