=
 OpenBabel11052423083D

 27 31  0  0  1  0  0  0  0  0999 V2000
  160.4660  208.0680  152.8480 C   0  0  0  0  0  2  0  0  0  0  0  0
  160.7730  210.5240  152.5150 C   0  0  0  0  0  0  0  0  0  0  0  0
  162.1520  209.5830  150.7210 N   0  0  0  0  0  2  0  0  0  0  0  0
  160.0230  213.7990  150.1570 O   0  0  0  0  0  0  0  0  0  0  0  0
  160.2630  213.9920  147.8580 O   0  0  0  0  0  0  0  0  0  0  0  0
  160.2450  211.6010  153.0390 N   0  0  0  0  0  0  0  0  0  0  0  0
  161.2400  212.0730  149.0010 C   0  0  1  0  0  3  0  0  0  0  0  0
  161.7050  207.0140  148.0650 C   0  0  0  0  0  3  0  0  0  0  0  0
  162.5540  212.2230  148.4000 N   0  0  0  0  0  1  0  0  0  0  0  0
  161.4370  205.8740  148.8260 C   0  0  0  0  0  3  0  0  0  0  0  0
  161.3930  211.8730  150.5130 C   0  0  1  0  0  3  0  0  0  0  0  0
  160.9520  209.3570  153.3400 N   0  0  0  0  0  0  0  0  0  0  0  0
  160.4910  213.3690  148.9280 C   0  0  0  0  0  0  0  0  0  0  0  0
  160.4370  212.8590  151.0730 C   0  0  0  0  0  0  0  0  0  0  0  0
  161.6300  207.2210  152.3550 C   0  0  0  0  0  2  0  0  0  0  0  0
  161.0420  210.4730  151.0140 C   0  0  2  0  0  3  0  0  0  0  0  0
  161.9460  208.2360  148.6970 C   0  0  0  0  0  3  0  0  0  0  0  0
  159.9550  212.7480  152.2690 N   0  0  0  0  0  0  0  0  0  0  0  0
  161.4110  205.9550  150.2210 C   0  0  0  0  0  3  0  0  0  0  0  0
  161.6520  207.1750  150.8610 C   0  0  0  0  0  0  0  0  0  0  0  0
  161.9190  208.3230  150.0930 C   0  0  0  0  0  0  0  0  0  0  0  0
  162.6200  209.6300  157.2480 C   0  0  0  0  0  3  0  0  0  0  0  0
  161.5090  209.4570  154.6690 C   0  0  0  0  0  0  0  0  0  0  0  0
  162.3560  210.5240  155.0140 C   0  0  0  0  0  3  0  0  0  0  0  0
  162.9060  210.6110  156.2970 C   0  0  0  0  0  3  0  0  0  0  0  0
  161.7840  208.5610  156.9170 C   0  0  0  0  0  3  0  0  0  0  0  0
  161.2340  208.4740  155.6360 C   0  0  0  0  0  3  0  0  0  0  0  0
  1 12  1  0  0  0  0
  2  6  2  0  0  0  0
  2 12  1  0  0  0  0
  4 14  1  0  0  0  0
  5 13  2  0  0  0  0
  7  9  1  6  0  0  0
  7 11  1  0  0  0  0
  8 17  2  0  0  0  0
  8 10  1  0  0  0  0
 10 19  2  0  0  0  0
 11 16  1  0  0  0  0
 11 14  1  1  0  0  0
 12 23  1  0  0  0  0
 13  7  1  0  0  0  0
 13  4  1  0  0  0  0
 14 18  2  0  0  0  0
 15  1  1  0  0  0  0
 16  3  1  1  0  0  0
 16  2  1  0  0  0  0
 17 21  1  0  0  0  0
 18  6  1  0  0  0  0
 19 20  1  0  0  0  0
 20 15  1  0  0  0  0
 21  3  1  0  0  0  0
 21 20  2  0  0  0  0
 23 24  2  0  0  0  0
 23 27  1  0  0  0  0
 24 25  1  0  0  0  0
 25 22  2  0  0  0  0
 26 22  1  0  0  0  0
 27 26  2  0  0  0  0
M  END
>  <MODEL>
1

>  <REMARK>
 VINA RESULT:      -6.8      0.000      0.000
  Name = 
  1 active torsions:
  status: ('A' for Active; 'I' for Inactive)
    1  A    between atoms: C_9  and  N_15
                            x       y       z     vdW  Elec       q    Type
                         _______ _______ _______ _____ _____    ______ ____

>  <TORSDO>
F 1

$$$$
=
 OpenBabel11052423083D

 27 31  0  0  1  0  0  0  0  0999 V2000
  162.4590  206.5970  152.8920 C   0  0  0  0  0  2  0  0  0  0  0  0
  162.0470  207.6360  150.6590 C   0  0  0  0  0  0  0  0  0  0  0  0
  160.6400  208.9990  152.1320 N   0  0  0  0  0  2  0  0  0  0  0  0
  162.5850  210.9000  148.2280 O   0  0  0  0  0  0  0  0  0  0  0  0
  162.2530  213.1370  148.7430 O   0  0  0  0  0  0  0  0  0  0  0  0
  162.5530  207.4840  149.4610 N   0  0  0  0  0  0  0  0  0  0  0  0
  161.3920  211.4260  150.2530 C   0  0  1  0  0  3  0  0  0  0  0  0
  161.0870  210.7810  155.3690 C   0  0  0  0  0  3  0  0  0  0  0  0
  160.0530  211.9840  150.3240 N   0  0  0  0  0  1  0  0  0  0  0  0
  161.4260  209.7260  156.2190 C   0  0  0  0  0  3  0  0  0  0  0  0
  161.3030  209.9190  149.9920 C   0  0  1  0  0  3  0  0  0  0  0  0
  161.9440  206.4910  151.5280 N   0  0  0  0  0  0  0  0  0  0  0  0
  162.0890  211.9200  149.0200 C   0  0  0  0  0  0  0  0  0  0  0  0
  162.2410  209.7250  148.8590 C   0  0  0  0  0  0  0  0  0  0  0  0
  161.3110  206.7580  153.8770 C   0  0  0  0  0  2  0  0  0  0  0  0
  161.7260  209.0380  151.1660 C   0  0  2  0  0  3  0  0  0  0  0  0
  160.8220  210.5330  154.0190 C   0  0  0  0  0  3  0  0  0  0  0  0
  162.7700  208.5740  148.5930 N   0  0  0  0  0  0  0  0  0  0  0  0
  161.4990  208.4220  155.7220 C   0  0  0  0  0  3  0  0  0  0  0  0
  161.2360  208.1670  154.3720 C   0  0  0  0  0  0  0  0  0  0  0  0
  160.8970  209.2300  153.5150 C   0  0  0  0  0  0  0  0  0  0  0  0
  160.4690  202.7620  150.0960 C   0  0  0  0  0  3  0  0  0  0  0  0
  161.4330  205.2290  151.0470 C   0  0  0  0  0  0  0  0  0  0  0  0
  161.4080  204.0990  151.8820 C   0  0  0  0  0  3  0  0  0  0  0  0
  160.9270  202.8740  151.4110 C   0  0  0  0  0  3  0  0  0  0  0  0
  160.4940  203.8750  149.2530 C   0  0  0  0  0  3  0  0  0  0  0  0
  160.9740  205.1000  149.7240 C   0  0  0  0  0  3  0  0  0  0  0  0
  1 15  1  0  0  0  0
  2 12  1  0  0  0  0
  3 21  1  0  0  0  0
  4 14  1  0  0  0  0
  4 13  1  0  0  0  0
  5 13  2  0  0  0  0
  6  2  2  0  0  0  0
  7  9  1  6  0  0  0
  8 10  1  0  0  0  0
 11 14  1  6  0  0  0
 11  7  1  0  0  0  0
 11 16  1  0  0  0  0
 12  1  1  0  0  0  0
 13  7  1  0  0  0  0
 15 20  1  0  0  0  0
 16  2  1  6  0  0  0
 16  3  1  0  0  0  0
 17  8  2  0  0  0  0
 18 14  2  0  0  0  0
 18  6  1  0  0  0  0
 19 10  2  0  0  0  0
 20 19  1  0  0  0  0
 21 17  1  0  0  0  0
 21 20  2  0  0  0  0
 22 25  1  0  0  0  0
 23 12  1  0  0  0  0
 23 24  1  0  0  0  0
 25 24  2  0  0  0  0
 26 27  1  0  0  0  0
 26 22  2  0  0  0  0
 27 23  2  0  0  0  0
M  END
>  <MODEL>
2

>  <REMARK>
 VINA RESULT:      -6.2      1.972      5.500
  Name = 
  1 active torsions:
  status: ('A' for Active; 'I' for Inactive)
    1  A    between atoms: C_9  and  N_15
                            x       y       z     vdW  Elec       q    Type
                         _______ _______ _______ _____ _____    ______ ____

>  <TORSDO>
F 1

$$$$
=
 OpenBabel11052423083D

 27 31  0  0  1  0  0  0  0  0999 V2000
  162.6330  208.4870  149.7250 C   0  0  0  0  0  2  0  0  0  0  0  0
  161.9900  209.4900  151.9180 C   0  0  0  0  0  0  0  0  0  0  0  0
  160.4560  207.5860  151.7510 N   0  0  0  0  0  2  0  0  0  0  0  0
  161.9540  209.1000  156.0050 O   0  0  0  0  0  0  0  0  0  0  0  0
  161.3210  207.2560  157.2610 O   0  0  0  0  0  0  0  0  0  0  0  0
  162.4660  210.4490  152.6730 N   0  0  0  0  0  0  0  0  0  0  0  0
  160.7760  207.3240  154.8850 C   0  0  1  0  0  3  0  0  0  0  0  0
  160.7630  203.9610  150.9640 C   0  0  0  0  0  3  0  0  0  0  0  0
  159.3730  206.9940  155.0670 N   0  0  0  0  0  1  0  0  0  0  0  0
  161.2840  204.0040  149.6690 C   0  0  0  0  0  3  0  0  0  0  0  0
  160.8970  208.5250  153.9400 C   0  0  1  0  0  3  0  0  0  0  0  0
  162.0870  209.6090  150.4870 N   0  0  0  0  0  0  0  0  0  0  0  0
  161.3450  207.8680  156.1600 C   0  0  0  0  0  0  0  0  0  0  0  0
  161.8080  209.4330  154.6770 C   0  0  0  0  0  0  0  0  0  0  0  0
  161.5130  207.7250  149.0340 C   0  0  0  0  0  2  0  0  0  0  0  0
  161.4870  208.2040  152.5680 C   0  0  2  0  0  3  0  0  0  0  0  0
  160.4860  205.1490  151.6450 C   0  0  0  0  0  3  0  0  0  0  0  0
  162.4890  210.3580  154.0800 N   0  0  0  0  0  0  0  0  0  0  0  0
  161.5270  205.2340  149.0530 C   0  0  0  0  0  3  0  0  0  0  0  0
  161.2520  206.4280  149.7280 C   0  0  0  0  0  0  0  0  0  0  0  0
  160.7300  206.3840  151.0340 C   0  0  0  0  0  0  0  0  0  0  0  0
  161.1090  213.2550  148.5160 C   0  0  0  0  0  3  0  0  0  0  0  0
  161.7470  210.8400  149.8120 C   0  0  0  0  0  0  0  0  0  0  0  0
  162.3300  211.1650  148.5750 C   0  0  0  0  0  3  0  0  0  0  0  0
  162.0110  212.3650  147.9300 C   0  0  0  0  0  3  0  0  0  0  0  0
  160.5270  212.9480  149.7470 C   0  0  0  0  0  3  0  0  0  0  0  0
  160.8450  211.7490  150.3920 C   0  0  0  0  0  3  0  0  0  0  0  0
  1 12  1  0  0  0  0
  2 16  1  0  0  0  0
  2  6  2  0  0  0  0
  4 13  1  0  0  0  0
  6 18  1  0  0  0  0
  7  9  1  1  0  0  0
  7 13  1  0  0  0  0
  8 17  1  0  0  0  0
 10  8  2  0  0  0  0
 11 14  1  1  0  0  0
 11  7  1  0  0  0  0
 12  2  1  0  0  0  0
 13  5  2  0  0  0  0
 14  4  1  0  0  0  0
 15  1  1  0  0  0  0
 15 20  1  0  0  0  0
 16  3  1  6  0  0  0
 16 11  1  0  0  0  0
 18 14  2  0  0  0  0
 19 10  1  0  0  0  0
 19 20  2  0  0  0  0
 20 21  1  0  0  0  0
 21 17  2  0  0  0  0
 21  3  1  0  0  0  0
 22 26  1  0  0  0  0
 23 27  1  0  0  0  0
 23 12  1  0  0  0  0
 24 23  2  0  0  0  0
 25 22  2  0  0  0  0
 25 24  1  0  0  0  0
 26 27  2  0  0  0  0
M  END
>  <MODEL>
3

>  <REMARK>
 VINA RESULT:      -5.8      2.842      5.900
  Name = 
  1 active torsions:
  status: ('A' for Active; 'I' for Inactive)
    1  A    between atoms: C_9  and  N_15
                            x       y       z     vdW  Elec       q    Type
                         _______ _______ _______ _____ _____    ______ ____

>  <TORSDO>
F 1

$$$$
=
 OpenBabel11052423083D

 27 31  0  0  1  0  0  0  0  0999 V2000
  162.3420  207.2240  152.9830 C   0  0  0  0  0  2  0  0  0  0  0  0
  161.9810  208.1660  150.6990 C   0  0  0  0  0  0  0  0  0  0  0  0
  160.5030  209.5580  152.0720 N   0  0  0  0  0  2  0  0  0  0  0  0
  162.5340  211.3420  148.1580 O   0  0  0  0  0  0  0  0  0  0  0  0
  162.1460  213.5910  148.5730 O   0  0  0  0  0  0  0  0  0  0  0  0
  162.5270  207.9780  149.5240 N   0  0  0  0  0  0  0  0  0  0  0  0
  161.2690  211.9240  150.1220 C   0  0  1  0  0  3  0  0  0  0  0  0
  160.8150  211.4740  155.2480 C   0  0  0  0  0  3  0  0  0  0  0  0
  159.9180  212.4570  150.1300 N   0  0  0  0  0  1  0  0  0  0  0  0
  161.1460  210.4600  156.1500 C   0  0  0  0  0  3  0  0  0  0  0  0
  161.2160  210.4060  149.9190 C   0  0  1  0  0  3  0  0  0  0  0  0
  161.8710  207.0550  151.6090 N   0  0  0  0  0  0  0  0  0  0  0  0
  161.9950  212.3820  148.8930 C   0  0  0  0  0  0  0  0  0  0  0  0
  162.1920  210.1870  148.8240 C   0  0  0  0  0  0  0  0  0  0  0  0
  161.1600  207.4010  153.9260 C   0  0  0  0  0  2  0  0  0  0  0  0
  161.6180  209.5810  151.1400 C   0  0  2  0  0  3  0  0  0  0  0  0
  160.5980  211.1680  153.9020 C   0  0  0  0  0  3  0  0  0  0  0  0
  162.7510  209.0370  148.6200 N   0  0  0  0  0  0  0  0  0  0  0  0
  161.2590  209.1400  155.7070 C   0  0  0  0  0  3  0  0  0  0  0  0
  161.0440  208.8260  154.3610 C   0  0  0  0  0  0  0  0  0  0  0  0
  160.7120  209.8480  153.4530 C   0  0  0  0  0  0  0  0  0  0  0  0
  160.4470  203.2590  150.3060 C   0  0  0  0  0  3  0  0  0  0  0  0
  161.3990  205.7650  151.1630 C   0  0  0  0  0  0  0  0  0  0  0  0
  160.9710  205.5760  149.8380 C   0  0  0  0  0  3  0  0  0  0  0  0
  160.5000  204.3300  149.4110 C   0  0  0  0  0  3  0  0  0  0  0  0
  160.8630  203.4340  151.6280 C   0  0  0  0  0  3  0  0  0  0  0  0
  161.3350  204.6790  152.0530 C   0  0  0  0  0  3  0  0  0  0  0  0
  1 15  1  0  0  0  0
  2 12  1  0  0  0  0
  3 21  1  0  0  0  0
  4 14  1  0  0  0  0
  4 13  1  0  0  0  0
  5 13  2  0  0  0  0
  6  2  2  0  0  0  0
  7  9  1  6  0  0  0
  8 10  1  0  0  0  0
 11 14  1  6  0  0  0
 11  7  1  0  0  0  0
 11 16  1  0  0  0  0
 12  1  1  0  0  0  0
 13  7  1  0  0  0  0
 15 20  1  0  0  0  0
 16  2  1  6  0  0  0
 16  3  1  0  0  0  0
 17  8  2  0  0  0  0
 18 14  2  0  0  0  0
 18  6  1  0  0  0  0
 19 10  2  0  0  0  0
 20 19  1  0  0  0  0
 21 17  1  0  0  0  0
 21 20  2  0  0  0  0
 22 26  1  0  0  0  0
 23 12  1  0  0  0  0
 23 27  1  0  0  0  0
 24 23  2  0  0  0  0
 25 24  1  0  0  0  0
 25 22  2  0  0  0  0
 26 27  2  0  0  0  0
M  END
>  <MODEL>
4

>  <REMARK>
 VINA RESULT:      -5.7      1.803      5.282
  Name = 
  1 active torsions:
  status: ('A' for Active; 'I' for Inactive)
    1  A    between atoms: C_9  and  N_15
                            x       y       z     vdW  Elec       q    Type
                         _______ _______ _______ _____ _____    ______ ____

>  <TORSDO>
F 1

$$$$
=
 OpenBabel11052423083D

 27 31  0  0  1  0  0  0  0  0999 V2000
  162.0580  208.0130  153.0810 C   0  0  0  0  0  2  0  0  0  0  0  0
  161.7360  208.9830  150.8030 C   0  0  0  0  0  0  0  0  0  0  0  0
  160.1250  210.2580  152.1400 N   0  0  0  0  0  2  0  0  0  0  0  0
  162.2070  212.2400  148.3490 O   0  0  0  0  0  0  0  0  0  0  0  0
  161.6730  214.4530  148.7910 O   0  0  0  0  0  0  0  0  0  0  0  0
  162.3390  208.8510  149.6490 N   0  0  0  0  0  0  0  0  0  0  0  0
  160.8320  212.7060  150.2700 C   0  0  1  0  0  3  0  0  0  0  0  0
  160.1970  212.1190  155.3630 C   0  0  0  0  0  3  0  0  0  0  0  0
  159.4530  213.1610  150.2320 N   0  0  0  0  0  1  0  0  0  0  0  0
  160.5500  211.1060  156.2580 C   0  0  0  0  0  3  0  0  0  0  0  0
  160.8750  211.1920  150.0350 C   0  0  1  0  0  3  0  0  0  0  0  0
  161.6540  207.8480  151.6860 N   0  0  0  0  0  0  0  0  0  0  0  0
  161.5790  213.2310  149.0810 C   0  0  0  0  0  0  0  0  0  0  0  0
  161.9060  211.0530  148.9780 C   0  0  0  0  0  0  0  0  0  0  0  0
  160.8310  208.1020  153.9770 C   0  0  0  0  0  2  0  0  0  0  0  0
  161.2740  210.3650  151.2560 C   0  0  2  0  0  3  0  0  0  0  0  0
  160.0530  211.8310  154.0030 C   0  0  0  0  0  3  0  0  0  0  0  0
  162.5380  209.9410  148.7750 N   0  0  0  0  0  0  0  0  0  0  0  0
  160.7570  209.8050  155.7950 C   0  0  0  0  0  3  0  0  0  0  0  0
  160.6140  209.5080  154.4350 C   0  0  0  0  0  0  0  0  0  0  0  0
  160.2620  210.5290  153.5340 C   0  0  0  0  0  0  0  0  0  0  0  0
  160.5700  203.9970  150.2270 C   0  0  0  0  0  3  0  0  0  0  0  0
  161.2750  206.5430  151.1960 C   0  0  0  0  0  0  0  0  0  0  0  0
  161.3910  205.4070  152.0150 C   0  0  0  0  0  3  0  0  0  0  0  0
  161.0390  204.1420  151.5340 C   0  0  0  0  0  3  0  0  0  0  0  0
  160.4560  205.1160  149.4000 C   0  0  0  0  0  3  0  0  0  0  0  0
  160.8070  206.3800  149.8810 C   0  0  0  0  0  3  0  0  0  0  0  0
  1 15  1  0  0  0  0
  2 12  1  0  0  0  0
  3 21  1  0  0  0  0
  4 14  1  0  0  0  0
  4 13  1  0  0  0  0
  5 13  2  0  0  0  0
  6  2  2  0  0  0  0
  7  9  1  6  0  0  0
  8 10  1  0  0  0  0
 11 14  1  6  0  0  0
 11  7  1  0  0  0  0
 11 16  1  0  0  0  0
 12  1  1  0  0  0  0
 13  7  1  0  0  0  0
 15 20  1  0  0  0  0
 16  2  1  6  0  0  0
 16  3  1  0  0  0  0
 17  8  2  0  0  0  0
 18 14  2  0  0  0  0
 18  6  1  0  0  0  0
 19 10  2  0  0  0  0
 20 19  1  0  0  0  0
 21 17  1  0  0  0  0
 21 20  2  0  0  0  0
 22 25  1  0  0  0  0
 23 12  1  0  0  0  0
 23 24  1  0  0  0  0
 25 24  2  0  0  0  0
 26 27  1  0  0  0  0
 26 22  2  0  0  0  0
 27 23  2  0  0  0  0
M  END
>  <MODEL>
5

>  <REMARK>
 VINA RESULT:      -5.7      1.645      5.197
  Name = 
  1 active torsions:
  status: ('A' for Active; 'I' for Inactive)
    1  A    between atoms: C_9  and  N_15
                            x       y       z     vdW  Elec       q    Type
                         _______ _______ _______ _____ _____    ______ ____

>  <TORSDO>
F 1

$$$$
=
 OpenBabel11052423083D

 27 31  0  0  1  0  0  0  0  0999 V2000
  162.3070  207.2350  153.0300 C   0  0  0  0  0  2  0  0  0  0  0  0
  161.5820  208.7050  151.1460 C   0  0  0  0  0  0  0  0  0  0  0  0
  160.0600  209.3800  152.9440 N   0  0  0  0  0  2  0  0  0  0  0  0
  161.4000  212.5130  149.6240 O   0  0  0  0  0  0  0  0  0  0  0  0
  160.7250  214.4530  150.7010 O   0  0  0  0  0  0  0  0  0  0  0  0
  162.0290  208.9500  149.9400 N   0  0  0  0  0  0  0  0  0  0  0  0
  160.2660  212.2940  151.7370 C   0  0  1  0  0  3  0  0  0  0  0  0
  160.4020  210.3500  156.5210 C   0  0  0  0  0  3  0  0  0  0  0  0
  158.8590  212.5640  151.9730 N   0  0  0  0  0  1  0  0  0  0  0  0
  160.9690  209.1960  157.0660 C   0  0  0  0  0  3  0  0  0  0  0  0
  160.4190  210.9080  151.1000 C   0  0  1  0  0  3  0  0  0  0  0  0
  161.7310  207.3810  151.6940 N   0  0  0  0  0  0  0  0  0  0  0  0
  160.7890  213.1960  150.6600 C   0  0  0  0  0  0  0  0  0  0  0  0
  161.3020  211.1760  149.9390 C   0  0  0  0  0  0  0  0  0  0  0  0
  161.2140  206.9350  154.0450 C   0  0  0  0  0  2  0  0  0  0  0  0
  161.0600  209.8550  152.0020 C   0  0  2  0  0  3  0  0  0  0  0  0
  160.0990  210.4030  155.1580 C   0  0  0  0  0  3  0  0  0  0  0  0
  162.0010  210.2430  149.3770 N   0  0  0  0  0  0  0  0  0  0  0  0
  161.2320  208.0940  156.2500 C   0  0  0  0  0  3  0  0  0  0  0  0
  160.9310  208.1390  154.8850 C   0  0  0  0  0  0  0  0  0  0  0  0
  160.3620  209.3020  154.3360 C   0  0  0  0  0  0  0  0  0  0  0  0
  160.7600  203.9240  149.4050 C   0  0  0  0  0  3  0  0  0  0  0  0
  161.4130  206.2070  150.9150 C   0  0  0  0  0  0  0  0  0  0  0  0
  161.1670  206.3070  149.5340 C   0  0  0  0  0  3  0  0  0  0  0  0
  160.8450  205.1720  148.7840 C   0  0  0  0  0  3  0  0  0  0  0  0
  160.9960  203.8110  150.7770 C   0  0  0  0  0  3  0  0  0  0  0  0
  161.3190  204.9460  151.5270 C   0  0  0  0  0  3  0  0  0  0  0  0
  1 15  1  0  0  0  0
  2 12  1  0  0  0  0
  3 21  1  0  0  0  0
  4 14  1  0  0  0  0
  4 13  1  0  0  0  0
  6  2  2  0  0  0  0
  7  9  1  6  0  0  0
  8 10  1  0  0  0  0
 11 14  1  6  0  0  0
 11  7  1  0  0  0  0
 11 16  1  0  0  0  0
 12  1  1  0  0  0  0
 13  5  2  0  0  0  0
 13  7  1  0  0  0  0
 15 20  1  0  0  0  0
 16  2  1  6  0  0  0
 16  3  1  0  0  0  0
 17  8  2  0  0  0  0
 18 14  2  0  0  0  0
 18  6  1  0  0  0  0
 19 10  2  0  0  0  0
 20 19  1  0  0  0  0
 21 20  2  0  0  0  0
 21 17  1  0  0  0  0
 22 26  1  0  0  0  0
 23 27  1  0  0  0  0
 23 12  1  0  0  0  0
 24 23  2  0  0  0  0
 25 22  2  0  0  0  0
 25 24  1  0  0  0  0
 26 27  2  0  0  0  0
M  END
>  <MODEL>
6

>  <REMARK>
 VINA RESULT:      -5.2      1.502      5.349
  Name = 
  1 active torsions:
  status: ('A' for Active; 'I' for Inactive)
    1  A    between atoms: C_9  and  N_15
                            x       y       z     vdW  Elec       q    Type
                         _______ _______ _______ _____ _____    ______ ____

>  <TORSDO>
F 1

$$$$
=
 OpenBabel11052423083D

 27 31  0  0  1  0  0  0  0  0999 V2000
  162.8110  207.2320  148.6750 C   0  0  0  0  0  2  0  0  0  0  0  0
  161.8350  205.7600  150.4400 C   0  0  0  0  0  0  0  0  0  0  0  0
  160.5750  205.0840  148.4490 N   0  0  0  0  0  2  0  0  0  0  0  0
  161.4480  201.9510  151.9210 O   0  0  0  0  0  0  0  0  0  0  0  0
  160.9300  200.0110  150.7600 O   0  0  0  0  0  0  0  0  0  0  0  0
  162.1120  205.5140  151.6960 N   0  0  0  0  0  0  0  0  0  0  0  0
  160.6160  202.1700  149.6720 C   0  0  1  0  0  3  0  0  0  0  0  0
  161.4080  204.1170  144.9530 C   0  0  0  0  0  3  0  0  0  0  0  0
  159.2550  201.8990  149.2440 N   0  0  0  0  0  1  0  0  0  0  0  0
  162.0440  205.2720  144.4920 C   0  0  0  0  0  3  0  0  0  0  0  0
  160.6790  203.5550  150.3250 C   0  0  1  0  0  3  0  0  0  0  0  0
  162.0560  207.0840  149.9190 N   0  0  0  0  0  0  0  0  0  0  0  0
  160.9860  201.2680  150.8110 C   0  0  0  0  0  0  0  0  0  0  0  0
  161.3930  203.2880  151.5960 C   0  0  0  0  0  0  0  0  0  0  0  0
  161.8670  207.5310  147.5200 C   0  0  0  0  0  2  0  0  0  0  0  0
  161.4360  204.6100  149.5200 C   0  0  2  0  0  3  0  0  0  0  0  0
  160.9200  204.0630  146.2610 C   0  0  0  0  0  3  0  0  0  0  0  0
  162.0080  204.2210  152.2500 N   0  0  0  0  0  0  0  0  0  0  0  0
  162.1910  206.3740  145.3370 C   0  0  0  0  0  3  0  0  0  0  0  0
  161.7040  206.3280  146.6480 C   0  0  0  0  0  0  0  0  0  0  0  0
  161.0660  205.1640  147.1120 C   0  0  0  0  0  0  0  0  0  0  0  0
  160.8340  210.5370  152.0900 C   0  0  0  0  0  3  0  0  0  0  0  0
  161.6330  208.2570  150.6480 C   0  0  0  0  0  0  0  0  0  0  0  0
  162.0910  209.5350  150.2810 C   0  0  0  0  0  3  0  0  0  0  0  0
  161.6930  210.6680  150.9960 C   0  0  0  0  0  3  0  0  0  0  0  0
  160.3760  209.2740  152.4700 C   0  0  0  0  0  3  0  0  0  0  0  0
  160.7740  208.1410  151.7540 C   0  0  0  0  0  3  0  0  0  0  0  0
  1 12  1  0  0  0  0
  2  6  2  0  0  0  0
  5 13  2  0  0  0  0
  6 18  1  0  0  0  0
  7  9  1  1  0  0  0
  7 11  1  0  0  0  0
  7 13  1  0  0  0  0
  8 17  1  0  0  0  0
 10  8  2  0  0  0  0
 10 19  1  0  0  0  0
 11 14  1  1  0  0  0
 12  2  1  0  0  0  0
 12 23  1  0  0  0  0
 13  4  1  0  0  0  0
 14  4  1  0  0  0  0
 14 18  2  0  0  0  0
 15  1  1  0  0  0  0
 16  3  1  6  0  0  0
 16 11  1  0  0  0  0
 16  2  1  0  0  0  0
 17 21  2  0  0  0  0
 19 20  2  0  0  0  0
 20 21  1  0  0  0  0
 20 15  1  0  0  0  0
 21  3  1  0  0  0  0
 22 26  1  0  0  0  0
 23 27  1  0  0  0  0
 24 23  2  0  0  0  0
 24 25  1  0  0  0  0
 25 22  2  0  0  0  0
 27 26  2  0  0  0  0
M  END
>  <MODEL>
7

>  <REMARK>
 VINA RESULT:      -5.1      4.748      7.254
  Name = 
  1 active torsions:
  status: ('A' for Active; 'I' for Inactive)
    1  A    between atoms: C_9  and  N_15
                            x       y       z     vdW  Elec       q    Type
                         _______ _______ _______ _____ _____    ______ ____

>  <TORSDO>
F 1

$$$$
=
 OpenBabel11052423083D

 27 31  0  0  1  0  0  0  0  0999 V2000
  161.4950  210.2190  154.0890 C   0  0  0  0  0  2  0  0  0  0  0  0
  161.5740  210.2100  151.5930 C   0  0  0  0  0  0  0  0  0  0  0  0
  159.5720  211.5520  152.0430 N   0  0  0  0  0  2  0  0  0  0  0  0
  162.1970  212.3740  148.1610 O   0  0  0  0  0  0  0  0  0  0  0  0
  161.3270  214.4500  147.6010 O   0  0  0  0  0  0  0  0  0  0  0  0
  162.4270  209.7850  150.6960 N   0  0  0  0  0  0  0  0  0  0  0  0
  160.3880  213.2370  149.4960 C   0  0  1  0  0  3  0  0  0  0  0  0
  158.7180  214.4370  154.2350 C   0  0  0  0  0  3  0  0  0  0  0  0
  159.0080  213.3740  149.0620 N   0  0  0  0  0  1  0  0  0  0  0  0
  158.9790  213.9070  155.5000 C   0  0  0  0  0  3  0  0  0  0  0  0
  160.6550  211.7800  149.8890 C   0  0  1  0  0  3  0  0  0  0  0  0
  161.4300  209.4820  152.8270 N   0  0  0  0  0  0  0  0  0  0  0  0
  161.3130  213.4250  148.3310 C   0  0  0  0  0  0  0  0  0  0  0  0
  161.9030  211.4640  149.1510 C   0  0  0  0  0  0  0  0  0  0  0  0
  160.0990  210.3920  154.6690 C   0  0  0  0  0  2  0  0  0  0  0  0
  160.8680  211.5470  151.3830 C   0  0  2  0  0  3  0  0  0  0  0  0
  158.9110  213.6510  153.0950 C   0  0  0  0  0  3  0  0  0  0  0  0
  162.6870  210.4980  149.5070 N   0  0  0  0  0  0  0  0  0  0  0  0
  159.4310  212.5920  155.6290 C   0  0  0  0  0  3  0  0  0  0  0  0
  159.6270  211.7990  154.4930 C   0  0  0  0  0  0  0  0  0  0  0  0
  159.3660  212.3340  153.2180 C   0  0  0  0  0  0  0  0  0  0  0  0
  161.1460  205.2340  152.8610 C   0  0  0  0  0  3  0  0  0  0  0  0
  161.3220  208.0420  152.8390 C   0  0  0  0  0  0  0  0  0  0  0  0
  161.2610  207.3370  154.0540 C   0  0  0  0  0  3  0  0  0  0  0  0
  161.1710  205.9410  154.0640 C   0  0  0  0  0  3  0  0  0  0  0  0
  161.2120  205.9210  151.6470 C   0  0  0  0  0  3  0  0  0  0  0  0
  161.3010  207.3150  151.6370 C   0  0  0  0  0  3  0  0  0  0  0  0
  1 15  1  0  0  0  0
  2 12  1  0  0  0  0
  3 21  1  0  0  0  0
  4 13  1  0  0  0  0
  4 14  1  0  0  0  0
  5 13  2  0  0  0  0
  6  2  2  0  0  0  0
  7  9  1  6  0  0  0
  7 11  1  0  0  0  0
  8 10  1  0  0  0  0
 10 19  2  0  0  0  0
 11 14  1  6  0  0  0
 11 16  1  0  0  0  0
 12 23  1  0  0  0  0
 12  1  1  0  0  0  0
 13  7  1  0  0  0  0
 14 18  2  0  0  0  0
 16  2  1  6  0  0  0
 16  3  1  0  0  0  0
 17 21  1  0  0  0  0
 17  8  2  0  0  0  0
 18  6  1  0  0  0  0
 20 15  1  0  0  0  0
 20 19  1  0  0  0  0
 21 20  2  0  0  0  0
 22 25  1  0  0  0  0
 23 24  1  0  0  0  0
 24 25  2  0  0  0  0
 26 22  2  0  0  0  0
 27 26  1  0  0  0  0
 27 23  2  0  0  0  0
M  END
>  <MODEL>
8

>  <REMARK>
 VINA RESULT:      -5.0      2.102      5.007
  Name = 
  1 active torsions:
  status: ('A' for Active; 'I' for Inactive)
    1  A    between atoms: C_9  and  N_15
                            x       y       z     vdW  Elec       q    Type
                         _______ _______ _______ _____ _____    ______ ____

>  <TORSDO>
F 1

$$$$
=
 OpenBabel11052423083D

 27 31  0  0  1  0  0  0  0  0999 V2000
  160.8290  210.6890  141.5670 C   0  0  0  0  0  2  0  0  0  0  0  0
  159.4880  212.7790  141.3080 C   0  0  0  0  0  0  0  0  0  0  0  0
  159.7860  212.0660  138.9830 N   0  0  0  0  0  2  0  0  0  0  0  0
  155.8830  214.4530  140.2840 O   0  0  0  0  0  0  0  0  0  0  0  0
  154.5820  214.0160  138.4140 O   0  0  0  0  0  0  0  0  0  0  0  0
  158.8900  213.6020  142.1330 N   0  0  0  0  0  0  0  0  0  0  0  0
  156.8810  213.2060  138.4830 C   0  0  1  0  0  3  0  0  0  0  0  0
  159.3600  208.8970  137.0770 C   0  0  0  0  0  3  0  0  0  0  0  0
  157.2430  213.7420  137.1820 N   0  0  0  0  0  1  0  0  0  0  0  0
  160.2600  208.0570  137.7360 C   0  0  0  0  0  3  0  0  0  0  0  0
  157.9640  213.5730  139.5040 C   0  0  1  0  0  3  0  0  0  0  0  0
  160.7100  212.1380  141.7200 N   0  0  0  0  0  0  0  0  0  0  0  0
  155.6820  213.9280  139.0200 C   0  0  0  0  0  0  0  0  0  0  0  0
  157.1780  214.1370  140.6280 C   0  0  0  0  0  0  0  0  0  0  0  0
  161.7040  210.3560  140.3680 C   0  0  0  0  0  2  0  0  0  0  0  0
  158.8030  212.3970  140.0000 C   0  0  2  0  0  3  0  0  0  0  0  0
  159.2110  210.2230  137.4910 C   0  0  0  0  0  3  0  0  0  0  0  0
  157.6450  214.1930  141.8340 N   0  0  0  0  0  0  0  0  0  0  0  0
  161.0140  208.5410  138.8070 C   0  0  0  0  0  3  0  0  0  0  0  0
  160.8720  209.8680  139.2270 C   0  0  0  0  0  0  0  0  0  0  0  0
  159.9630  210.7130  138.5650 C   0  0  0  0  0  0  0  0  0  0  0  0
  163.8500  214.3060  143.6100 C   0  0  0  0  0  3  0  0  0  0  0  0
  161.7680  212.8830  142.3620 C   0  0  0  0  0  0  0  0  0  0  0  0
  162.5930  213.7440  141.6190 C   0  0  0  0  0  3  0  0  0  0  0  0
  163.6270  214.4530  142.2390 C   0  0  0  0  0  3  0  0  0  0  0  0
  163.0420  213.4490  144.3600 C   0  0  0  0  0  3  0  0  0  0  0  0
  162.0090  212.7410  143.7400 C   0  0  0  0  0  3  0  0  0  0  0  0
  1 12  1  0  0  0  0
  2 12  1  0  0  0  0
  2  6  2  0  0  0  0
  4 14  1  0  0  0  0
  5 13  2  0  0  0  0
  7  9  1  6  0  0  0
  7 13  1  0  0  0  0
  7 11  1  0  0  0  0
  8 17  2  0  0  0  0
  8 10  1  0  0  0  0
 10 19  2  0  0  0  0
 11 16  1  0  0  0  0
 11 14  1  1  0  0  0
 12 23  1  0  0  0  0
 13  4  1  0  0  0  0
 14 18  2  0  0  0  0
 15  1  1  0  0  0  0
 16  3  1  6  0  0  0
 16  2  1  0  0  0  0
 17 21  1  0  0  0  0
 18  6  1  0  0  0  0
 19 20  1  0  0  0  0
 20 15  1  0  0  0  0
 21  3  1  0  0  0  0
 21 20  2  0  0  0  0
 22 26  1  0  0  0  0
 23 27  1  0  0  0  0
 24 25  1  0  0  0  0
 24 23  2  0  0  0  0
 25 22  2  0  0  0  0
 27 26  2  0  0  0  0
M  END
>  <MODEL>
9

>  <REMARK>
 VINA RESULT:      -4.4      9.655     12.055
  Name = 
  1 active torsions:
  status: ('A' for Active; 'I' for Inactive)
    1  A    between atoms: C_9  and  N_15
                            x       y       z     vdW  Elec       q    Type
                         _______ _______ _______ _____ _____    ______ ____

>  <TORSDO>
F 1

$$$$
