=
 OpenBabel11052422293D

 31 35  0  0  1  0  0  0  0  0999 V2000
  162.0560  210.3110  149.2590 C   0  0  0  0  0  0  0  0  0  0  0  0
  161.2820  208.0350  152.2210 C   0  0  0  0  0  0  0  0  0  0  0  0
  161.1050  208.8670  153.3630 C   0  0  0  0  0  0  0  0  0  0  0  0
  160.8690  211.0290  154.4320 C   0  0  0  0  0  3  0  0  0  0  0  0
  161.4890  208.5510  150.8290 C   0  0  0  0  0  0  0  0  0  0  0  0
  161.9360  209.4340  148.2280 N   0  0  0  0  0  0  0  0  0  0  0  0
  161.0460  210.2640  153.2840 C   0  0  0  0  0  3  0  0  0  0  0  0
  161.4210  205.7640  151.2580 N   0  0  0  0  0  0  0  0  0  0  0  0
  162.4190  211.7270  148.9900 C   0  0  0  0  0  1  0  0  0  0  0  0
  160.9890  206.9030  154.7960 C   0  0  0  0  0  3  0  0  0  0  0  0
  160.5910  211.0500  156.7110 O   0  0  0  0  0  0  0  0  0  0  0  0
  161.0070  206.2340  149.9400 C   0  0  0  0  0  2  0  0  0  0  0  0
  161.2820  206.6300  152.4010 C   0  0  0  0  0  0  0  0  0  0  0  0
  161.8390  209.8840  150.5690 C   0  0  0  0  0  3  0  0  0  0  0  0
  160.7490  210.3780  155.6590 C   0  0  0  0  0  0  0  0  0  0  0  0
  161.3970  207.6630  149.7380 C   0  0  0  0  0  0  0  0  0  0  0  0
  161.6110  208.1320  148.4400 C   0  0  0  0  0  3  0  0  0  0  0  0
  161.1430  206.0830  153.6830 C   0  0  0  0  0  3  0  0  0  0  0  0
  160.9630  208.2870  154.6470 C   0  0  0  0  0  0  0  0  0  0  0  0
  160.7970  209.0510  155.7230 O   0  0  0  0  0  0  0  0  0  0  0  0
  161.7330  204.3450  151.4020 C   0  0  0  0  0  2  0  0  0  0  0  0
  159.7880  202.9680  151.7250 O   0  0  0  0  0  1  0  0  0  0  0  0
  160.6650  203.4650  150.7570 C   0  0  2  0  0  3  0  0  0  0  0  0
  161.3020  202.3220  149.9760 C   0  0  0  0  0  2  0  0  0  0  0  0
  160.8040  201.8360  146.2530 C   0  0  0  0  0  0  0  0  0  0  0  0
  161.5790  204.0980  146.6410 C   0  0  0  0  0  3  0  0  0  0  0  0
  160.4050  200.8620  145.4000 F   0  0  0  0  0  0  0  0  0  0  0  0
  160.8520  201.5830  147.6280 C   0  0  0  0  0  3  0  0  0  0  0  0
  161.6260  203.8450  148.0150 C   0  0  0  0  0  3  0  0  0  0  0  0
  161.2660  202.5870  148.5110 C   0  0  0  0  0  0  0  0  0  0  0  0
  161.1680  203.0920  145.7600 C   0  0  0  0  0  3  0  0  0  0  0  0
  1 14  1  0  0  0  0
  2 13  2  0  0  0  0
  2  3  1  0  0  0  0
  3 19  2  0  0  0  0
  4 15  1  0  0  0  0
  5  2  1  0  0  0  0
  6 17  1  0  0  0  0
  6  1  2  0  0  0  0
  7  3  1  0  0  0  0
  7  4  2  0  0  0  0
  8 21  1  0  0  0  0
  8 13  1  0  0  0  0
  9  1  1  0  0  0  0
 12  8  1  0  0  0  0
 13 18  1  0  0  0  0
 14  5  2  0  0  0  0
 15 20  1  0  0  0  0
 15 11  2  0  0  0  0
 16 12  1  0  0  0  0
 16  5  1  0  0  0  0
 17 16  2  0  0  0  0
 18 10  2  0  0  0  0
 19 10  1  0  0  0  0
 19 20  1  0  0  0  0
 23 21  1  0  0  0  0
 23 22  1  1  0  0  0
 24 23  1  0  0  0  0
 25 28  1  0  0  0  0
 26 29  2  0  0  0  0
 27 25  1  0  0  0  0
 28 30  2  0  0  0  0
 29 30  1  0  0  0  0
 30 24  1  0  0  0  0
 31 25  2  0  0  0  0
 31 26  1  0  0  0  0
M  END
>  <MODEL>
1

>  <REMARK>
 VINA RESULT:      -9.9      0.000      0.000
  Name = 
  4 active torsions:
  status: ('A' for Active; 'I' for Inactive)
    1  A    between atoms: C_3  and  C_9
    2  A    between atoms: C_3  and  C_22
    3  A    between atoms: C_9  and  C_23
    4  A    between atoms: N_15  and  C_23
                            x       y       z     vdW  Elec       q    Type
                         _______ _______ _______ _____ _____    ______ ____

>  <TORSDO>
F 4

$$$$
=
 OpenBabel11052422293D

 31 35  0  0  1  0  0  0  0  0999 V2000
  162.0480  210.3410  149.2450 C   0  0  0  0  0  0  0  0  0  0  0  0
  161.2560  208.1910  152.2960 C   0  0  0  0  0  0  0  0  0  0  0  0
  160.9690  209.0730  153.3760 C   0  0  0  0  0  0  0  0  0  0  0  0
  160.5490  211.2730  154.3020 C   0  0  0  0  0  3  0  0  0  0  0  0
  161.5050  208.6400  150.8870 C   0  0  0  0  0  0  0  0  0  0  0  0
  162.0350  209.4010  148.2630 N   0  0  0  0  0  0  0  0  0  0  0  0
  160.8310  210.4570  153.2110 C   0  0  0  0  0  3  0  0  0  0  0  0
  161.5810  205.8830  151.4770 N   0  0  0  0  0  0  0  0  0  0  0  0
  162.3400  211.7590  148.9110 C   0  0  0  0  0  1  0  0  0  0  0  0
  160.8950  207.1900  154.9150 C   0  0  0  0  0  3  0  0  0  0  0  0
  160.1500  211.4050  156.5580 O   0  0  0  0  0  0  0  0  0  0  0  0
  161.2100  206.2510  150.1140 C   0  0  0  0  0  2  0  0  0  0  0  0
  161.3300  206.8010  152.5580 C   0  0  0  0  0  0  0  0  0  0  0  0
  161.7880  209.9760  150.5660 C   0  0  0  0  0  3  0  0  0  0  0  0
  160.4030  210.6860  155.5580 C   0  0  0  0  0  0  0  0  0  0  0  0
  161.5230  207.6880  149.8470 C   0  0  0  0  0  0  0  0  0  0  0  0
  161.7780  208.0950  148.5360 C   0  0  0  0  0  3  0  0  0  0  0  0
  161.1570  206.3200  153.8620 C   0  0  0  0  0  3  0  0  0  0  0  0
  160.7940  208.5590  154.6830 C   0  0  0  0  0  0  0  0  0  0  0  0
  160.5270  209.3710  155.7030 O   0  0  0  0  0  0  0  0  0  0  0  0
  161.9690  204.4960  151.7200 C   0  0  0  0  0  2  0  0  0  0  0  0
  160.0600  203.3610  152.6440 O   0  0  0  0  0  1  0  0  0  0  0  0
  160.8080  203.5350  151.4760 C   0  0  2  0  0  3  0  0  0  0  0  0
  161.3130  202.1930  150.9610 C   0  0  0  0  0  2  0  0  0  0  0  0
  161.1880  203.2150  147.3170 C   0  0  0  0  0  0  0  0  0  0  0  0
  161.0160  200.8030  147.4490 C   0  0  0  0  0  3  0  0  0  0  0  0
  161.2350  204.3490  146.5780 F   0  0  0  0  0  0  0  0  0  0  0  0
  161.2650  203.2870  148.7120 C   0  0  0  0  0  3  0  0  0  0  0  0
  161.0930  200.8750  148.8430 C   0  0  0  0  0  3  0  0  0  0  0  0
  161.2150  202.1160  149.4770 C   0  0  0  0  0  0  0  0  0  0  0  0
  161.0630  201.9740  146.6860 C   0  0  0  0  0  3  0  0  0  0  0  0
  1 14  1  0  0  0  0
  2 13  2  0  0  0  0
  2  3  1  0  0  0  0
  3 19  2  0  0  0  0
  4 15  1  0  0  0  0
  5  2  1  0  0  0  0
  6 17  1  0  0  0  0
  6  1  2  0  0  0  0
  7  3  1  0  0  0  0
  7  4  2  0  0  0  0
  8 21  1  0  0  0  0
  8 13  1  0  0  0  0
  9  1  1  0  0  0  0
 12  8  1  0  0  0  0
 13 18  1  0  0  0  0
 14  5  2  0  0  0  0
 15 20  1  0  0  0  0
 15 11  2  0  0  0  0
 16 12  1  0  0  0  0
 16  5  1  0  0  0  0
 17 16  2  0  0  0  0
 18 10  2  0  0  0  0
 19 10  1  0  0  0  0
 19 20  1  0  0  0  0
 23 21  1  0  0  0  0
 23 22  1  1  0  0  0
 24 23  1  0  0  0  0
 25 28  1  0  0  0  0
 26 29  2  0  0  0  0
 27 25  1  0  0  0  0
 28 30  2  0  0  0  0
 29 30  1  0  0  0  0
 30 24  1  0  0  0  0
 31 25  2  0  0  0  0
 31 26  1  0  0  0  0
M  END
>  <MODEL>
2

>  <REMARK>
 VINA RESULT:      -9.9      0.879      1.284
  Name = 
  4 active torsions:
  status: ('A' for Active; 'I' for Inactive)
    1  A    between atoms: C_3  and  C_9
    2  A    between atoms: C_3  and  C_22
    3  A    between atoms: C_9  and  C_23
    4  A    between atoms: N_15  and  C_23
                            x       y       z     vdW  Elec       q    Type
                         _______ _______ _______ _____ _____    ______ ____

>  <TORSDO>
F 4

$$$$
=
 OpenBabel11052422293D

 31 35  0  0  1  0  0  0  0  0999 V2000
  160.0020  209.6910  154.6410 C   0  0  0  0  0  0  0  0  0  0  0  0
  161.5740  208.2100  151.4960 C   0  0  0  0  0  0  0  0  0  0  0  0
  161.7250  209.2680  150.5560 C   0  0  0  0  0  0  0  0  0  0  0  0
  161.6600  211.6070  149.9220 C   0  0  0  0  0  3  0  0  0  0  0  0
  161.0970  208.3980  152.9050 C   0  0  0  0  0  0  0  0  0  0  0  0
  160.1630  208.6620  155.5130 N   0  0  0  0  0  0  0  0  0  0  0  0
  161.4970  210.6120  150.8810 C   0  0  0  0  0  3  0  0  0  0  0  0
  161.7680  205.8040  152.0240 N   0  0  0  0  0  0  0  0  0  0  0  0
  159.3360  210.9430  155.0850 C   0  0  0  0  0  1  0  0  0  0  0  0
  162.4040  207.6750  148.8470 C   0  0  0  0  0  3  0  0  0  0  0  0
  162.2120  212.1240  147.7540 O   0  0  0  0  0  0  0  0  0  0  0  0
  161.9120  206.0680  153.4520 C   0  0  0  0  0  2  0  0  0  0  0  0
  161.8740  206.8890  151.0820 C   0  0  0  0  0  0  0  0  0  0  0  0
  160.4610  209.5740  153.3290 C   0  0  0  0  0  3  0  0  0  0  0  0
  162.0600  211.2410  148.6370 C   0  0  0  0  0  0  0  0  0  0  0  0
  161.2260  207.3420  153.8290 C   0  0  0  0  0  0  0  0  0  0  0  0
  160.7630  207.5020  155.1370 C   0  0  0  0  0  3  0  0  0  0  0  0
  162.2770  206.6380  149.7640 C   0  0  0  0  0  3  0  0  0  0  0  0
  162.1380  208.9860  149.2310 C   0  0  0  0  0  0  0  0  0  0  0  0
  162.2820  209.9640  148.3410 O   0  0  0  0  0  0  0  0  0  0  0  0
  161.7620  204.4090  151.5920 C   0  0  0  0  0  2  0  0  0  0  0  0
  159.4950  204.3420  150.7920 O   0  0  0  0  0  1  0  0  0  0  0  0
  160.8290  204.1910  150.4030 C   0  0  2  0  0  3  0  0  0  0  0  0
  161.0520  202.8170  149.7830 C   0  0  0  0  0  2  0  0  0  0  0  0
  160.7990  201.9070  146.1160 C   0  0  0  0  0  0  0  0  0  0  0  0
  161.6540  204.1660  146.2940 C   0  0  0  0  0  3  0  0  0  0  0  0
  160.4160  200.8550  145.3540 F   0  0  0  0  0  0  0  0  0  0  0  0
  160.7360  201.8200  147.5100 C   0  0  0  0  0  3  0  0  0  0  0  0
  161.5910  204.0790  147.6880 C   0  0  0  0  0  3  0  0  0  0  0  0
  161.1340  202.9050  148.2990 C   0  0  0  0  0  0  0  0  0  0  0  0
  161.2590  203.0790  145.5080 C   0  0  0  0  0  3  0  0  0  0  0  0
  1  9  1  0  0  0  0
  1  6  1  0  0  0  0
  2  5  1  0  0  0  0
  3  7  1  0  0  0  0
  3  2  2  0  0  0  0
  4  7  2  0  0  0  0
  5 14  1  0  0  0  0
  5 16  2  0  0  0  0
  8 12  1  0  0  0  0
 10 19  2  0  0  0  0
 10 18  1  0  0  0  0
 11 15  2  0  0  0  0
 12 16  1  0  0  0  0
 13  2  1  0  0  0  0
 13  8  1  0  0  0  0
 14  1  2  0  0  0  0
 15  4  1  0  0  0  0
 16 17  1  0  0  0  0
 17  6  2  0  0  0  0
 18 13  2  0  0  0  0
 19  3  1  0  0  0  0
 20 15  1  0  0  0  0
 20 19  1  0  0  0  0
 21  8  1  0  0  0  0
 23 22  1  1  0  0  0
 23 21  1  0  0  0  0
 24 23  1  0  0  0  0
 25 28  1  0  0  0  0
 26 29  2  0  0  0  0
 27 25  1  0  0  0  0
 28 30  2  0  0  0  0
 29 30  1  0  0  0  0
 30 24  1  0  0  0  0
 31 25  2  0  0  0  0
 31 26  1  0  0  0  0
M  END
>  <MODEL>
3

>  <REMARK>
 VINA RESULT:      -9.2      2.439      4.216
  Name = 
  4 active torsions:
  status: ('A' for Active; 'I' for Inactive)
    1  A    between atoms: C_3  and  C_9
    2  A    between atoms: C_3  and  C_22
    3  A    between atoms: C_9  and  C_23
    4  A    between atoms: N_15  and  C_23
                            x       y       z     vdW  Elec       q    Type
                         _______ _______ _______ _____ _____    ______ ____

>  <TORSDO>
F 4

$$$$
=
 OpenBabel11052422293D

 31 35  0  0  1  0  0  0  0  0999 V2000
  161.1130  202.1350  150.7100 C   0  0  0  0  0  0  0  0  0  0  0  0
  161.4470  205.6070  149.1650 C   0  0  0  0  0  0  0  0  0  0  0  0
  161.4650  205.4440  147.7510 C   0  0  0  0  0  0  0  0  0  0  0  0
  161.2340  204.1170  145.7360 C   0  0  0  0  0  3  0  0  0  0  0  0
  161.2130  204.4900  150.1370 C   0  0  0  0  0  0  0  0  0  0  0  0
  160.8450  202.4570  152.0020 N   0  0  0  0  0  0  0  0  0  0  0  0
  161.2030  204.2200  147.1230 C   0  0  0  0  0  3  0  0  0  0  0  0
  161.6280  207.0980  151.1270 N   0  0  0  0  0  0  0  0  0  0  0  0
  161.2040  200.7080  150.3050 C   0  0  0  0  0  1  0  0  0  0  0  0
  161.9870  207.8040  147.4700 C   0  0  0  0  0  3  0  0  0  0  0  0
  161.5590  205.1860  143.7310 O   0  0  0  0  0  0  0  0  0  0  0  0
  160.8260  206.2030  151.9550 C   0  0  0  0  0  2  0  0  0  0  0  0
  161.6790  206.8970  149.7010 C   0  0  0  0  0  0  0  0  0  0  0  0
  161.3040  203.1410  149.7630 C   0  0  0  0  0  3  0  0  0  0  0  0
  161.5240  205.2560  144.9860 C   0  0  0  0  0  0  0  0  0  0  0  0
  160.9570  204.7880  151.4910 C   0  0  0  0  0  0  0  0  0  0  0  0
  160.7610  203.7520  152.4060 C   0  0  0  0  0  3  0  0  0  0  0  0
  161.9530  207.9750  148.8490 C   0  0  0  0  0  3  0  0  0  0  0  0
  161.7410  206.5530  146.9140 C   0  0  0  0  0  0  0  0  0  0  0  0
  161.7620  206.4160  145.5900 O   0  0  0  0  0  0  0  0  0  0  0  0
  162.1510  208.3090  151.7520 C   0  0  0  0  0  2  0  0  0  0  0  0
  160.5000  210.0540  151.6370 O   0  0  0  0  0  1  0  0  0  0  0  0
  161.0560  209.0860  152.4780 C   0  0  2  0  0  3  0  0  0  0  0  0
  161.5990  209.7320  153.7480 C   0  0  0  0  0  2  0  0  0  0  0  0
  159.7170  207.3780  156.0410 C   0  0  0  0  0  0  0  0  0  0  0  0
  161.5920  208.3100  157.2590 C   0  0  0  0  0  3  0  0  0  0  0  0
  158.6320  206.5680  155.9980 F   0  0  0  0  0  0  0  0  0  0  0  0
  160.0820  208.1170  154.9120 C   0  0  0  0  0  3  0  0  0  0  0  0
  161.9570  209.0490  156.1300 C   0  0  0  0  0  3  0  0  0  0  0  0
  161.2020  208.9560  154.9560 C   0  0  0  0  0  0  0  0  0  0  0  0
  160.4710  207.4740  157.2140 C   0  0  0  0  0  3  0  0  0  0  0  0
  1  6  1  0  0  0  0
  2 13  1  0  0  0  0
  2  5  1  0  0  0  0
  3  2  2  0  0  0  0
  4  7  2  0  0  0  0
  5 16  2  0  0  0  0
  6 17  2  0  0  0  0
  7  3  1  0  0  0  0
  8 21  1  0  0  0  0
  8 12  1  0  0  0  0
  9  1  1  0  0  0  0
 10 18  1  0  0  0  0
 11 15  2  0  0  0  0
 13  8  1  0  0  0  0
 14  5  1  0  0  0  0
 14  1  2  0  0  0  0
 15 20  1  0  0  0  0
 15  4  1  0  0  0  0
 16 12  1  0  0  0  0
 16 17  1  0  0  0  0
 18 13  2  0  0  0  0
 19 10  2  0  0  0  0
 19  3  1  0  0  0  0
 20 19  1  0  0  0  0
 21 23  1  0  0  0  0
 23 22  1  6  0  0  0
 23 24  1  0  0  0  0
 24 30  1  0  0  0  0
 25 31  1  0  0  0  0
 27 25  1  0  0  0  0
 28 30  1  0  0  0  0
 28 25  2  0  0  0  0
 29 26  1  0  0  0  0
 30 29  2  0  0  0  0
 31 26  2  0  0  0  0
M  END
>  <MODEL>
4

>  <REMARK>
 VINA RESULT:      -8.9      3.385      8.501
  Name = 
  4 active torsions:
  status: ('A' for Active; 'I' for Inactive)
    1  A    between atoms: C_3  and  C_9
    2  A    between atoms: C_3  and  C_22
    3  A    between atoms: C_9  and  C_23
    4  A    between atoms: N_15  and  C_23
                            x       y       z     vdW  Elec       q    Type
                         _______ _______ _______ _____ _____    ______ ____

>  <TORSDO>
F 4

$$$$
=
 OpenBabel11052422293D

 31 35  0  0  1  0  0  0  0  0999 V2000
  160.8390  207.8930  154.3530 C   0  0  0  0  0  0  0  0  0  0  0  0
  161.4220  207.8730  150.5830 C   0  0  0  0  0  0  0  0  0  0  0  0
  161.2890  206.5270  150.1380 C   0  0  0  0  0  0  0  0  0  0  0  0
  160.7200  204.1960  150.4800 C   0  0  0  0  0  3  0  0  0  0  0  0
  161.1540  208.3250  151.9870 C   0  0  0  0  0  0  0  0  0  0  0  0
  160.7310  209.2280  154.5850 N   0  0  0  0  0  0  0  0  0  0  0  0
  160.8310  205.4940  150.9670 C   0  0  0  0  0  3  0  0  0  0  0  0
  161.9540  210.2300  150.0670 N   0  0  0  0  0  0  0  0  0  0  0  0
  160.7270  206.9320  155.4810 C   0  0  0  0  0  1  0  0  0  0  0  0
  162.0490  207.1680  147.9180 C   0  0  0  0  0  3  0  0  0  0  0  0
  160.9760  202.7790  148.6920 O   0  0  0  0  0  0  0  0  0  0  0  0
  161.1370  210.7180  151.1730 C   0  0  0  0  0  2  0  0  0  0  0  0
  161.8490  208.8530  149.6540 C   0  0  0  0  0  0  0  0  0  0  0  0
  161.0540  207.4240  153.0570 C   0  0  0  0  0  3  0  0  0  0  0  0
  161.0670  203.9450  149.1530 C   0  0  0  0  0  0  0  0  0  0  0  0
  161.0610  209.7030  152.2680 C   0  0  0  0  0  0  0  0  0  0  0  0
  160.8350  210.1330  153.5770 C   0  0  0  0  0  3  0  0  0  0  0  0
  162.1630  208.4890  148.3390 C   0  0  0  0  0  3  0  0  0  0  0  0
  161.6100  206.1870  148.8020 C   0  0  0  0  0  0  0  0  0  0  0  0
  161.4920  204.9340  148.3720 O   0  0  0  0  0  0  0  0  0  0  0  0
  162.6690  211.2200  149.2670 C   0  0  0  0  0  2  0  0  0  0  0  0
  162.3610  212.2600  147.1200 O   0  0  0  0  0  1  0  0  0  0  0  0
  161.7270  211.9750  148.3320 C   0  0  2  0  0  3  0  0  0  0  0  0
  161.2260  213.2570  148.9850 C   0  0  0  0  0  2  0  0  0  0  0  0
  157.6470  213.0490  147.7630 C   0  0  0  0  0  0  0  0  0  0  0  0
  157.6330  213.7570  150.0790 C   0  0  0  0  0  3  0  0  0  0  0  0
  156.9780  212.7310  146.6290 F   0  0  0  0  0  0  0  0  0  0  0  0
  159.0440  212.9970  147.7870 C   0  0  0  0  0  3  0  0  0  0  0  0
  159.0300  213.7040  150.1030 C   0  0  0  0  0  3  0  0  0  0  0  0
  159.7380  213.3270  148.9570 C   0  0  0  0  0  0  0  0  0  0  0  0
  156.9420  213.4290  148.9080 C   0  0  0  0  0  3  0  0  0  0  0  0
  1  6  1  0  0  0  0
  1  9  1  0  0  0  0
  2  5  1  0  0  0  0
  3  2  1  0  0  0  0
  3  7  1  0  0  0  0
  4  7  2  0  0  0  0
  5 16  2  0  0  0  0
  5 14  1  0  0  0  0
  8 12  1  0  0  0  0
 10 18  2  0  0  0  0
 10 19  1  0  0  0  0
 11 15  2  0  0  0  0
 12 16  1  0  0  0  0
 13  8  1  0  0  0  0
 13  2  2  0  0  0  0
 14  1  2  0  0  0  0
 15  4  1  0  0  0  0
 16 17  1  0  0  0  0
 17  6  2  0  0  0  0
 18 13  1  0  0  0  0
 19  3  2  0  0  0  0
 20 19  1  0  0  0  0
 20 15  1  0  0  0  0
 21  8  1  0  0  0  0
 23 22  1  6  0  0  0
 23 24  1  0  0  0  0
 23 21  1  0  0  0  0
 25 28  2  0  0  0  0
 25 31  1  0  0  0  0
 26 29  1  0  0  0  0
 27 25  1  0  0  0  0
 28 30  1  0  0  0  0
 30 24  1  0  0  0  0
 30 29  2  0  0  0  0
 31 26  2  0  0  0  0
M  END
>  <MODEL>
5

>  <REMARK>
 VINA RESULT:      -8.9      3.789      8.131
  Name = 
  4 active torsions:
  status: ('A' for Active; 'I' for Inactive)
    1  A    between atoms: C_3  and  C_9
    2  A    between atoms: C_3  and  C_22
    3  A    between atoms: C_9  and  C_23
    4  A    between atoms: N_15  and  C_23
                            x       y       z     vdW  Elec       q    Type
                         _______ _______ _______ _____ _____    ______ ____

>  <TORSDO>
F 4

$$$$
=
 OpenBabel11052422293D

 31 35  0  0  1  0  0  0  0  0999 V2000
  160.8640  207.8690  154.2980 C   0  0  0  0  0  0  0  0  0  0  0  0
  161.4280  207.7050  150.5280 C   0  0  0  0  0  0  0  0  0  0  0  0
  161.2750  206.3460  150.1330 C   0  0  0  0  0  0  0  0  0  0  0  0
  160.6760  204.0370  150.5610 C   0  0  0  0  0  3  0  0  0  0  0  0
  161.1730  208.2110  151.9160 C   0  0  0  0  0  0  0  0  0  0  0  0
  160.7760  209.2130  154.4820 N   0  0  0  0  0  0  0  0  0  0  0  0
  160.8080  205.3500  151.0010 C   0  0  0  0  0  3  0  0  0  0  0  0
  161.9890  210.0340  149.9250 N   0  0  0  0  0  0  0  0  0  0  0  0
  160.7450  206.9520  155.4600 C   0  0  0  0  0  1  0  0  0  0  0  0
  162.0330  206.8960  147.8870 C   0  0  0  0  0  3  0  0  0  0  0  0
  160.9050  202.5520  148.8250 O   0  0  0  0  0  0  0  0  0  0  0  0
  161.1840  210.5740  151.0150 C   0  0  0  0  0  2  0  0  0  0  0  0
  161.8630  208.6450  149.5630 C   0  0  0  0  0  0  0  0  0  0  0  0
  161.0670  207.3510  153.0190 C   0  0  0  0  0  3  0  0  0  0  0  0
  161.0140  203.7340  149.2430 C   0  0  0  0  0  0  0  0  0  0  0  0
  161.1000  209.6000  152.1470 C   0  0  0  0  0  0  0  0  0  0  0  0
  160.8860  210.0790  153.4410 C   0  0  0  0  0  3  0  0  0  0  0  0
  162.1670  208.2290  148.2600 C   0  0  0  0  0  3  0  0  0  0  0  0
  161.5850  205.9540  148.8080 C   0  0  0  0  0  0  0  0  0  0  0  0
  161.4480  204.6870  148.4250 O   0  0  0  0  0  0  0  0  0  0  0  0
  162.7140  210.9850  149.0860 C   0  0  0  0  0  2  0  0  0  0  0  0
  160.9330  211.4640  147.5420 O   0  0  0  0  0  1  0  0  0  0  0  0
  161.7800  212.0380  148.4940 C   0  0  2  0  0  3  0  0  0  0  0  0
  162.5740  213.1840  147.8780 C   0  0  0  0  0  2  0  0  0  0  0  0
  162.3500  213.4480  144.1070 C   0  0  0  0  0  0  0  0  0  0  0  0
  160.3680  214.4520  145.0710 C   0  0  0  0  0  3  0  0  0  0  0  0
  163.0800  213.1040  143.0190 F   0  0  0  0  0  0  0  0  0  0  0  0
  162.8260  213.1540  145.3890 C   0  0  0  0  0  3  0  0  0  0  0  0
  160.8430  214.1580  146.3530 C   0  0  0  0  0  3  0  0  0  0  0  0
  162.0740  213.5110  146.5140 C   0  0  0  0  0  0  0  0  0  0  0  0
  161.1230  214.0970  143.9480 C   0  0  0  0  0  3  0  0  0  0  0  0
  1  6  1  0  0  0  0
  1  9  1  0  0  0  0
  2  5  1  0  0  0  0
  3  2  1  0  0  0  0
  3  7  1  0  0  0  0
  4  7  2  0  0  0  0
  5 16  2  0  0  0  0
  5 14  1  0  0  0  0
  8 12  1  0  0  0  0
 10 18  2  0  0  0  0
 10 19  1  0  0  0  0
 11 15  2  0  0  0  0
 12 16  1  0  0  0  0
 13  8  1  0  0  0  0
 13  2  2  0  0  0  0
 14  1  2  0  0  0  0
 15  4  1  0  0  0  0
 16 17  1  0  0  0  0
 17  6  2  0  0  0  0
 18 13  1  0  0  0  0
 19  3  2  0  0  0  0
 20 19  1  0  0  0  0
 20 15  1  0  0  0  0
 21  8  1  0  0  0  0
 23 22  1  6  0  0  0
 23 21  1  0  0  0  0
 24 23  1  0  0  0  0
 25 28  1  0  0  0  0
 26 29  2  0  0  0  0
 27 25  1  0  0  0  0
 28 30  2  0  0  0  0
 29 30  1  0  0  0  0
 30 24  1  0  0  0  0
 31 25  2  0  0  0  0
 31 26  1  0  0  0  0
M  END
>  <MODEL>
6

>  <REMARK>
 VINA RESULT:      -8.8      3.742      8.109
  Name = 
  4 active torsions:
  status: ('A' for Active; 'I' for Inactive)
    1  A    between atoms: C_3  and  C_9
    2  A    between atoms: C_3  and  C_22
    3  A    between atoms: C_9  and  C_23
    4  A    between atoms: N_15  and  C_23
                            x       y       z     vdW  Elec       q    Type
                         _______ _______ _______ _____ _____    ______ ____

>  <TORSDO>
F 4

$$$$
=
 OpenBabel11052422293D

 31 35  0  0  1  0  0  0  0  0999 V2000
  161.2150  205.3830  149.0290 C   0  0  0  0  0  0  0  0  0  0  0  0
  161.3050  208.4650  151.2760 C   0  0  0  0  0  0  0  0  0  0  0  0
  161.0870  208.0250  152.6120 C   0  0  0  0  0  0  0  0  0  0  0  0
  160.8390  206.2970  154.2930 C   0  0  0  0  0  3  0  0  0  0  0  0
  161.4570  207.5450  150.1020 C   0  0  0  0  0  0  0  0  0  0  0  0
  161.6900  205.9020  147.8670 N   0  0  0  0  0  0  0  0  0  0  0  0
  161.0540  206.6710  152.9700 C   0  0  0  0  0  3  0  0  0  0  0  0
  161.6250  210.3290  149.6870 N   0  0  0  0  0  0  0  0  0  0  0  0
  160.8290  203.9490  149.0980 C   0  0  0  0  0  1  0  0  0  0  0  0
  160.9530  210.3340  153.3670 C   0  0  0  0  0  3  0  0  0  0  0  0
  160.4630  206.9780  156.4530 O   0  0  0  0  0  0  0  0  0  0  0  0
  162.3540  209.4830  148.7480 C   0  0  0  0  0  2  0  0  0  0  0  0
  161.3680  209.8570  151.0230 C   0  0  0  0  0  0  0  0  0  0  0  0
  161.0880  206.1920  150.1580 C   0  0  0  0  0  3  0  0  0  0  0  0
  160.6620  207.2930  155.2520 C   0  0  0  0  0  0  0  0  0  0  0  0
  161.9230  208.0560  148.8730 C   0  0  0  0  0  0  0  0  0  0  0  0
  162.0450  207.2100  147.7690 C   0  0  0  0  0  3  0  0  0  0  0  0
  161.1840  210.7720  152.0680 C   0  0  0  0  0  3  0  0  0  0  0  0
  160.9090  208.9720  153.6490 C   0  0  0  0  0  0  0  0  0  0  0  0
  160.7040  208.5760  154.9030 O   0  0  0  0  0  0  0  0  0  0  0  0
  161.4000  211.7210  149.3060 C   0  0  0  0  0  2  0  0  0  0  0  0
  163.4100  212.5050  148.2430 O   0  0  0  0  0  1  0  0  0  0  0  0
  162.1050  212.0680  147.9970 C   0  0  2  0  0  3  0  0  0  0  0  0
  161.3260  213.1260  147.2250 C   0  0  0  0  0  2  0  0  0  0  0  0
  160.6290  212.3100  143.5930 C   0  0  0  0  0  0  0  0  0  0  0  0
  162.8800  213.1860  143.7690 C   0  0  0  0  0  3  0  0  0  0  0  0
  159.6190  211.8160  142.8380 F   0  0  0  0  0  0  0  0  0  0  0  0
  160.4640  212.4530  144.9740 C   0  0  0  0  0  3  0  0  0  0  0  0
  162.7150  213.3290  145.1510 C   0  0  0  0  0  3  0  0  0  0  0  0
  161.5080  212.9600  145.7560 C   0  0  0  0  0  0  0  0  0  0  0  0
  161.8360  212.6760  142.9910 C   0  0  0  0  0  3  0  0  0  0  0  0
  1  9  1  0  0  0  0
  1 14  1  0  0  0  0
  2  3  1  0  0  0  0
  3  7  1  0  0  0  0
  3 19  2  0  0  0  0
  4 15  1  0  0  0  0
  5 14  2  0  0  0  0
  5  2  1  0  0  0  0
  6  1  2  0  0  0  0
  7  4  2  0  0  0  0
  8 13  1  0  0  0  0
 10 19  1  0  0  0  0
 12 16  1  0  0  0  0
 12  8  1  0  0  0  0
 13  2  2  0  0  0  0
 13 18  1  0  0  0  0
 15 11  2  0  0  0  0
 16  5  1  0  0  0  0
 17  6  1  0  0  0  0
 17 16  2  0  0  0  0
 18 10  2  0  0  0  0
 19 20  1  0  0  0  0
 20 15  1  0  0  0  0
 21  8  1  0  0  0  0
 23 22  1  1  0  0  0
 23 21  1  0  0  0  0
 24 23  1  0  0  0  0
 25 28  1  0  0  0  0
 26 29  2  0  0  0  0
 27 25  1  0  0  0  0
 28 30  2  0  0  0  0
 29 30  1  0  0  0  0
 30 24  1  0  0  0  0
 31 25  2  0  0  0  0
 31 26  1  0  0  0  0
M  END
>  <MODEL>
7

>  <REMARK>
 VINA RESULT:      -8.7      3.555      6.799
  Name = 
  4 active torsions:
  status: ('A' for Active; 'I' for Inactive)
    1  A    between atoms: C_3  and  C_9
    2  A    between atoms: C_3  and  C_22
    3  A    between atoms: C_9  and  C_23
    4  A    between atoms: N_15  and  C_23
                            x       y       z     vdW  Elec       q    Type
                         _______ _______ _______ _____ _____    ______ ____

>  <TORSDO>
F 4

$$$$
=
 OpenBabel11052422293D

 31 35  0  0  1  0  0  0  0  0999 V2000
  160.5160  207.0700  154.7500 C   0  0  0  0  0  0  0  0  0  0  0  0
  161.0030  209.6970  152.0270 C   0  0  0  0  0  0  0  0  0  0  0  0
  160.4490  210.9170  152.5080 C   0  0  0  0  0  0  0  0  0  0  0  0
  159.4710  212.2980  154.2430 C   0  0  0  0  0  3  0  0  0  0  0  0
  161.1160  208.4450  152.8440 C   0  0  0  0  0  0  0  0  0  0  0  0
  161.3050  206.0680  154.2800 N   0  0  0  0  0  0  0  0  0  0  0  0
  160.0050  211.0830  153.8260 C   0  0  0  0  0  3  0  0  0  0  0  0
  162.0680  208.4350  150.1890 N   0  0  0  0  0  0  0  0  0  0  0  0
  159.7680  206.8900  156.0210 C   0  0  0  0  0  1  0  0  0  0  0  0
  160.7850  211.9470  150.3290 C   0  0  0  0  0  3  0  0  0  0  0  0
  158.9120  214.4520  153.6810 O   0  0  0  0  0  0  0  0  0  0  0  0
  162.7060  207.5060  151.1170 C   0  0  0  0  0  2  0  0  0  0  0  0
  161.4670  209.6450  150.6900 C   0  0  0  0  0  0  0  0  0  0  0  0
  160.4070  208.2660  154.0410 C   0  0  0  0  0  3  0  0  0  0  0  0
  159.3920  213.3450  153.3260 C   0  0  0  0  0  0  0  0  0  0  0  0
  161.9070  207.3770  152.3740 C   0  0  0  0  0  0  0  0  0  0  0  0
  161.9980  206.1990  153.1180 C   0  0  0  0  0  3  0  0  0  0  0  0
  161.3450  210.7650  149.8570 C   0  0  0  0  0  3  0  0  0  0  0  0
  160.3420  212.0350  151.6450 C   0  0  0  0  0  0  0  0  0  0  0  0
  159.8240  213.1810  152.0800 O   0  0  0  0  0  0  0  0  0  0  0  0
  162.2800  208.2150  148.7610 C   0  0  0  0  0  2  0  0  0  0  0  0
  162.3670  206.5530  147.0250 O   0  0  0  0  0  1  0  0  0  0  0  0
  162.1310  206.7420  148.3900 C   0  0  2  0  0  3  0  0  0  0  0  0
  160.7490  206.2240  148.7680 C   0  0  0  0  0  2  0  0  0  0  0  0
  160.8440  203.1410  150.9670 C   0  0  0  0  0  0  0  0  0  0  0  0
  160.8970  202.4390  148.6490 C   0  0  0  0  0  3  0  0  0  0  0  0
  160.8390  202.8340  152.2860 F   0  0  0  0  0  0  0  0  0  0  0  0
  160.8020  204.4790  150.5620 C   0  0  0  0  0  3  0  0  0  0  0  0
  160.8540  203.7770  148.2440 C   0  0  0  0  0  3  0  0  0  0  0  0
  160.8090  204.7990  149.1990 C   0  0  0  0  0  0  0  0  0  0  0  0
  160.8920  202.1220  150.0120 C   0  0  0  0  0  3  0  0  0  0  0  0
  1  9  1  0  0  0  0
  2  3  1  0  0  0  0
  2  5  1  0  0  0  0
  3  7  1  0  0  0  0
  5 14  1  0  0  0  0
  6  1  1  0  0  0  0
  7  4  2  0  0  0  0
  8 13  1  0  0  0  0
  8 12  1  0  0  0  0
 10 19  1  0  0  0  0
 12 16  1  0  0  0  0
 13  2  2  0  0  0  0
 14  1  2  0  0  0  0
 15 11  2  0  0  0  0
 15  4  1  0  0  0  0
 16  5  2  0  0  0  0
 16 17  1  0  0  0  0
 17  6  2  0  0  0  0
 18 10  2  0  0  0  0
 18 13  1  0  0  0  0
 19 20  1  0  0  0  0
 19  3  2  0  0  0  0
 20 15  1  0  0  0  0
 21  8  1  0  0  0  0
 23 22  1  6  0  0  0
 23 21  1  0  0  0  0
 23 24  1  0  0  0  0
 24 30  1  0  0  0  0
 25 27  1  0  0  0  0
 26 31  1  0  0  0  0
 28 25  1  0  0  0  0
 29 26  2  0  0  0  0
 29 30  1  0  0  0  0
 30 28  2  0  0  0  0
 31 25  2  0  0  0  0
M  END
>  <MODEL>
8

>  <REMARK>
 VINA RESULT:      -8.6      2.567      4.637
  Name = 
  4 active torsions:
  status: ('A' for Active; 'I' for Inactive)
    1  A    between atoms: C_3  and  C_9
    2  A    between atoms: C_3  and  C_22
    3  A    between atoms: C_9  and  C_23
    4  A    between atoms: N_15  and  C_23
                            x       y       z     vdW  Elec       q    Type
                         _______ _______ _______ _____ _____    ______ ____

>  <TORSDO>
F 4

$$$$
=
 OpenBabel11052422293D

 31 35  0  0  1  0  0  0  0  0999 V2000
  161.2340  205.4010  149.0170 C   0  0  0  0  0  0  0  0  0  0  0  0
  161.3470  208.4670  151.2850 C   0  0  0  0  0  0  0  0  0  0  0  0
  161.1140  208.0210  152.6170 C   0  0  0  0  0  0  0  0  0  0  0  0
  160.8310  206.2850  154.2840 C   0  0  0  0  0  3  0  0  0  0  0  0
  161.4960  207.5530  150.1060 C   0  0  0  0  0  0  0  0  0  0  0  0
  161.7240  205.9230  147.8620 N   0  0  0  0  0  0  0  0  0  0  0  0
  161.0610  206.6650  152.9660 C   0  0  0  0  0  3  0  0  0  0  0  0
  161.7030  210.3380  149.7110 N   0  0  0  0  0  0  0  0  0  0  0  0
  160.8300  203.9720  149.0730 C   0  0  0  0  0  1  0  0  0  0  0  0
  161.0040  210.3260  153.3870 C   0  0  0  0  0  3  0  0  0  0  0  0
  160.4480  206.9560  156.4460 O   0  0  0  0  0  0  0  0  0  0  0  0
  162.4270  209.4880  148.7720 C   0  0  0  0  0  2  0  0  0  0  0  0
  161.4300  209.8600  151.0420 C   0  0  0  0  0  0  0  0  0  0  0  0
  161.1100  206.2050  150.1500 C   0  0  0  0  0  3  0  0  0  0  0  0
  160.6600  207.2770  155.2480 C   0  0  0  0  0  0  0  0  0  0  0  0
  161.9780  208.0670  148.8850 C   0  0  0  0  0  0  0  0  0  0  0  0
  162.0970  207.2260  147.7750 C   0  0  0  0  0  3  0  0  0  0  0  0
  161.2500  210.7700  152.0920 C   0  0  0  0  0  3  0  0  0  0  0  0
  160.9400  208.9630  153.6590 C   0  0  0  0  0  0  0  0  0  0  0  0
  160.7210  208.5610  154.9080 O   0  0  0  0  0  0  0  0  0  0  0  0
  161.4980  211.7350  149.3390 C   0  0  0  0  0  2  0  0  0  0  0  0
  163.5190  212.2280  148.1320 O   0  0  0  0  0  1  0  0  0  0  0  0
  162.1400  212.0580  147.9910 C   0  0  2  0  0  3  0  0  0  0  0  0
  161.5100  213.3020  147.3750 C   0  0  0  0  0  2  0  0  0  0  0  0
  157.7410  212.9550  147.4930 C   0  0  0  0  0  0  0  0  0  0  0  0
  158.4940  212.4390  145.2490 C   0  0  0  0  0  3  0  0  0  0  0  0
  156.7350  213.0930  148.3900 F   0  0  0  0  0  0  0  0  0  0  0  0
  159.0630  213.1860  147.8850 C   0  0  0  0  0  3  0  0  0  0  0  0
  159.8160  212.6700  145.6410 C   0  0  0  0  0  3  0  0  0  0  0  0
  160.1030  213.0410  146.9600 C   0  0  0  0  0  0  0  0  0  0  0  0
  157.4560  212.5820  146.1760 C   0  0  0  0  0  3  0  0  0  0  0  0
  1  9  1  0  0  0  0
  1 14  1  0  0  0  0
  2  3  1  0  0  0  0
  3  7  1  0  0  0  0
  3 19  2  0  0  0  0
  4 15  1  0  0  0  0
  5 14  2  0  0  0  0
  5  2  1  0  0  0  0
  6  1  2  0  0  0  0
  7  4  2  0  0  0  0
  8 13  1  0  0  0  0
 10 19  1  0  0  0  0
 12 16  1  0  0  0  0
 12  8  1  0  0  0  0
 13  2  2  0  0  0  0
 13 18  1  0  0  0  0
 15 11  2  0  0  0  0
 16  5  1  0  0  0  0
 17  6  1  0  0  0  0
 17 16  2  0  0  0  0
 18 10  2  0  0  0  0
 19 20  1  0  0  0  0
 20 15  1  0  0  0  0
 21  8  1  0  0  0  0
 23 22  1  1  0  0  0
 23 21  1  0  0  0  0
 24 23  1  0  0  0  0
 25 28  1  0  0  0  0
 25 27  1  0  0  0  0
 26 29  2  0  0  0  0
 26 31  1  0  0  0  0
 29 30  1  0  0  0  0
 30 24  1  0  0  0  0
 30 28  2  0  0  0  0
 31 25  2  0  0  0  0
M  END
>  <MODEL>
9

>  <REMARK>
 VINA RESULT:      -8.5      3.680      6.922
  Name = 
  4 active torsions:
  status: ('A' for Active; 'I' for Inactive)
    1  A    between atoms: C_3  and  C_9
    2  A    between atoms: C_3  and  C_22
    3  A    between atoms: C_9  and  C_23
    4  A    between atoms: N_15  and  C_23
                            x       y       z     vdW  Elec       q    Type
                         _______ _______ _______ _____ _____    ______ ____

>  <TORSDO>
F 4

$$$$
