=
 OpenBabel11052422593D

 28 32  0  0  1  0  0  0  0  0999 V2000
  158.9540  211.1800  154.1450 N   0  0  0  0  0  0  0  0  0  0  0  0
  161.8420  207.9430  152.4120 C   0  0  0  0  0  3  0  0  0  0  0  0
  162.4900  210.6420  157.0340 C   0  0  0  0  0  1  0  0  0  0  0  0
  160.9270  206.8990  154.4040 C   0  0  0  0  0  0  0  0  0  0  0  0
  161.5820  209.3500  154.5080 C   0  0  1  0  0  3  0  0  0  0  0  0
  161.2420  205.5960  152.3820 C   0  0  0  0  0  0  0  0  0  0  0  0
  161.4080  208.0510  153.7440 C   0  0  0  0  0  0  0  0  0  0  0  0
  161.0200  208.1780  156.5360 C   0  0  0  0  0  2  0  0  0  0  0  0
  160.8300  205.6860  153.7150 C   0  0  0  0  0  3  0  0  0  0  0  0
  160.7570  211.8610  155.7260 C   0  0  2  0  0  3  0  0  0  0  0  0
  161.3000  210.5800  153.6170 C   0  0  0  0  0  2  0  0  0  0  0  0
  160.4460  206.9620  155.8230 C   0  0  0  0  0  2  0  0  0  0  0  0
  158.5660  212.2020  156.3270 C   0  0  0  0  0  2  0  0  0  0  0  0
  161.0480  210.5850  156.5330 C   0  0  1  0  0  3  0  0  0  0  0  0
  159.8680  212.7350  156.3950 O   0  0  0  0  0  0  0  0  0  0  0  0
  161.1180  204.0730  151.5290 Cl  0  0  0  0  0  0  0  0  0  0  0  0
  161.7530  206.7230  151.7340 C   0  0  0  0  0  3  0  0  0  0  0  0
  160.7600  209.3750  155.7350 N   0  0  1  0  0  0  0  0  0  0  0  0
  158.1090  212.1240  154.8750 C   0  0  0  0  0  2  0  0  0  0  0  0
  160.3550  211.6140  154.2530 C   0  0  1  0  0  3  0  0  0  0  0  0
  158.5730  211.2930  152.7410 C   0  0  0  0  0  2  0  0  0  0  0  0
  159.4070  212.3420  152.0070 C   0  0  2  0  0  3  0  0  0  0  0  0
  160.4420  213.8030  149.7700 C   0  0  0  0  0  0  0  0  0  0  0  0
  158.5340  213.4000  151.3270 C   0  0  0  0  0  2  0  0  0  0  0  0
  160.3860  211.7220  151.0460 C   0  0  0  0  0  3  0  0  0  0  0  0
  160.8830  212.4200  150.0210 C   0  0  0  0  0  3  0  0  0  0  0  0
  160.9350  214.4490  148.8100 O   0  0  0  0  0  0  0  0  0  0  0  0
  159.4260  214.4530  150.6670 C   0  0  0  0  0  2  0  0  0  0  0  0
  1 20  1  0  0  0  0
  1 19  1  0  0  0  0
  2  7  1  0  0  0  0
  4 12  1  0  0  0  0
  5 11  1  6  0  0  0
  5 18  1  0  0  0  0
  6  9  2  0  0  0  0
  7  4  2  0  0  0  0
  7  5  1  0  0  0  0
  9  4  1  0  0  0  0
 10 15  1  1  0  0  0
 10 14  1  0  0  0  0
 12  8  1  0  0  0  0
 13 15  1  0  0  0  0
 14  3  1  6  0  0  0
 16  6  1  0  0  0  0
 17  6  1  0  0  0  0
 17  2  2  0  0  0  0
 18 14  1  0  0  0  0
 18  8  1  1  0  0  0
 19 13  1  0  0  0  0
 20 11  1  1  0  0  0
 20 10  1  0  0  0  0
 21  1  1  0  0  0  0
 22 21  1  6  0  0  0
 23 26  1  0  0  0  0
 23 28  1  0  0  0  0
 24 22  1  0  0  0  0
 25 22  1  0  0  0  0
 26 25  2  0  0  0  0
 27 23  2  0  0  0  0
 28 24  1  0  0  0  0
M  END
>  <MODEL>
1

>  <REMARK>
 VINA RESULT:      -5.8      0.000      0.000
  Name = 
  2 active torsions:
  status: ('A' for Active; 'I' for Inactive)
    1  A    between atoms: N_1  and  C_2
    2  A    between atoms: C_2  and  C_3
                            x       y       z     vdW  Elec       q    Type
                         _______ _______ _______ _____ _____    ______ ____

>  <TORSDO>
F 2

$$$$
=
 OpenBabel11052422593D

 28 32  0  0  1  0  0  0  0  0999 V2000
  158.5430  213.0060  151.6110 N   0  0  0  0  0  0  0  0  0  0  0  0
  160.5160  212.1670  155.7620 C   0  0  0  0  0  3  0  0  0  0  0  0
  155.5370  214.0610  154.9260 C   0  0  0  0  0  1  0  0  0  0  0  0
  158.7460  210.5120  155.6150 C   0  0  0  0  0  0  0  0  0  0  0  0
  158.2680  212.8750  154.8190 C   0  0  1  0  0  3  0  0  0  0  0  0
  160.9030  209.9090  156.5480 C   0  0  0  0  0  0  0  0  0  0  0  0
  159.2120  211.8230  155.3700 C   0  0  0  0  0  0  0  0  0  0  0  0
  156.4580  211.3020  155.0390 C   0  0  0  0  0  2  0  0  0  0  0  0
  159.5990  209.5600  156.1840 C   0  0  0  0  0  3  0  0  0  0  0  0
  156.7730  214.3160  152.7800 C   0  0  2  0  0  3  0  0  0  0  0  0
  159.0000  213.8680  153.8890 C   0  0  0  0  0  2  0  0  0  0  0  0
  157.3650  210.0910  155.2110 C   0  0  0  0  0  2  0  0  0  0  0  0
  156.2710  213.3130  150.7750 C   0  0  0  0  0  2  0  0  0  0  0  0
  156.1320  213.3020  153.7410 C   0  0  1  0  0  3  0  0  0  0  0  0
  156.0490  214.4530  151.5720 O   0  0  0  0  0  0  0  0  0  0  0  0
  161.9610  208.7110  157.2610 Cl  0  0  0  0  0  0  0  0  0  0  0  0
  161.3580  211.2130  156.3420 C   0  0  0  0  0  3  0  0  0  0  0  0
  157.1030  212.2660  154.1460 N   0  0  1  0  0  0  0  0  0  0  0  0
  157.7460  213.2150  150.4030 C   0  0  0  0  0  2  0  0  0  0  0  0
  158.2890  214.1110  152.5470 C   0  0  1  0  0  3  0  0  0  0  0  0
  159.9390  213.0980  151.2000 C   0  0  0  0  0  2  0  0  0  0  0  0
  160.7350  211.8580  151.6030 C   0  0  2  0  0  3  0  0  0  0  0  0
  161.4510  209.0850  151.6730 C   0  0  0  0  0  0  0  0  0  0  0  0
  161.4830  211.2410  150.4180 C   0  0  0  0  0  2  0  0  0  0  0  0
  159.8840  210.8420  152.3180 C   0  0  0  0  0  3  0  0  0  0  0  0
  160.2400  209.5550  152.3660 C   0  0  0  0  0  3  0  0  0  0  0  0
  161.7790  207.8720  151.7450 O   0  0  0  0  0  0  0  0  0  0  0  0
  162.3090  210.0470  150.8990 C   0  0  0  0  0  2  0  0  0  0  0  0
  1 20  1  0  0  0  0
  2 17  1  0  0  0  0
  4  9  2  0  0  0  0
  5 11  1  6  0  0  0
  5  7  1  0  0  0  0
  6 16  1  0  0  0  0
  7  4  1  0  0  0  0
  7  2  2  0  0  0  0
  8 12  1  0  0  0  0
  9  6  1  0  0  0  0
 10 15  1  6  0  0  0
 10 14  1  0  0  0  0
 12  4  1  0  0  0  0
 13 15  1  0  0  0  0
 14 18  1  0  0  0  0
 14  3  1  1  0  0  0
 17  6  2  0  0  0  0
 18  5  1  0  0  0  0
 18  8  1  1  0  0  0
 19 13  1  0  0  0  0
 19  1  1  0  0  0  0
 20 10  1  0  0  0  0
 20 11  1  1  0  0  0
 21  1  1  0  0  0  0
 22 21  1  6  0  0  0
 22 25  1  0  0  0  0
 23 27  2  0  0  0  0
 23 26  1  0  0  0  0
 24 28  1  0  0  0  0
 24 22  1  0  0  0  0
 25 26  2  0  0  0  0
 28 23  1  0  0  0  0
M  END
>  <MODEL>
2

>  <REMARK>
 VINA RESULT:      -4.8      2.983      5.171
  Name = 
  2 active torsions:
  status: ('A' for Active; 'I' for Inactive)
    1  A    between atoms: N_1  and  C_2
    2  A    between atoms: C_2  and  C_3
                            x       y       z     vdW  Elec       q    Type
                         _______ _______ _______ _____ _____    ______ ____

>  <TORSDO>
F 2

$$$$
=
 OpenBabel11052422593D

 28 32  0  0  1  0  0  0  0  0999 V2000
  159.1110  211.8940  154.4140 N   0  0  0  0  0  0  0  0  0  0  0  0
  162.4960  210.0950  151.7420 C   0  0  0  0  0  3  0  0  0  0  0  0
  161.6550  209.0350  156.9620 C   0  0  0  0  0  1  0  0  0  0  0  0
  161.0720  208.1910  152.2380 C   0  0  0  0  0  0  0  0  0  0  0  0
  161.5780  209.8460  154.0960 C   0  0  1  0  0  3  0  0  0  0  0  0
  162.0160  208.4610  150.0190 C   0  0  0  0  0  0  0  0  0  0  0  0
  161.6850  209.3940  152.6520 C   0  0  0  0  0  0  0  0  0  0  0  0
  160.4870  207.7630  154.6180 C   0  0  0  0  0  2  0  0  0  0  0  0
  161.2260  207.7430  150.9220 C   0  0  0  0  0  3  0  0  0  0  0  0
  160.3420  211.0800  156.4230 C   0  0  2  0  0  3  0  0  0  0  0  0
  161.5280  211.3850  154.2120 C   0  0  0  0  0  2  0  0  0  0  0  0
  160.1920  207.4090  153.1670 C   0  0  0  0  0  2  0  0  0  0  0  0
  158.0600  211.3230  156.5410 C   0  0  0  0  0  2  0  0  0  0  0  0
  160.4280  209.5590  156.2180 C   0  0  1  0  0  3  0  0  0  0  0  0
  159.2650  211.4560  157.2600 O   0  0  0  0  0  0  0  0  0  0  0  0
  162.2020  207.8910  148.3750 Cl  0  0  0  0  0  0  0  0  0  0  0  0
  162.6540  209.6330  150.4320 C   0  0  0  0  0  3  0  0  0  0  0  0
  160.4310  209.2160  154.7810 N   0  0  1  0  0  0  0  0  0  0  0  0
  158.0550  212.2740  155.3510 C   0  0  0  0  0  2  0  0  0  0  0  0
  160.4020  211.9100  155.1190 C   0  0  1  0  0  3  0  0  0  0  0  0
  159.1570  212.9440  153.4020 C   0  0  0  0  0  2  0  0  0  0  0  0
  157.9300  212.9110  152.4920 C   0  0  2  0  0  3  0  0  0  0  0  0
  155.9310  213.9350  150.7130 C   0  0  0  0  0  0  0  0  0  0  0  0
  158.2890  213.1850  151.0290 C   0  0  0  0  0  2  0  0  0  0  0  0
  156.8340  213.8220  152.9790 C   0  0  0  0  0  3  0  0  0  0  0  0
  155.8910  214.2730  152.1470 C   0  0  0  0  0  3  0  0  0  0  0  0
  155.0240  214.3560  149.9500 O   0  0  0  0  0  0  0  0  0  0  0  0
  157.0340  213.0740  150.1630 C   0  0  0  0  0  2  0  0  0  0  0  0
  1 20  1  0  0  0  0
  1 19  1  0  0  0  0
  2  7  1  0  0  0  0
  4  7  2  0  0  0  0
  4 12  1  0  0  0  0
  5 11  1  6  0  0  0
  5 18  1  0  0  0  0
  6 17  1  0  0  0  0
  6  9  2  0  0  0  0
  7  5  1  0  0  0  0
  9  4  1  0  0  0  0
 10 15  1  6  0  0  0
 12  8  1  0  0  0  0
 13 15  1  0  0  0  0
 14 10  1  0  0  0  0
 14  3  1  6  0  0  0
 16  6  1  0  0  0  0
 17  2  2  0  0  0  0
 18  8  1  1  0  0  0
 18 14  1  0  0  0  0
 19 13  1  0  0  0  0
 20 11  1  6  0  0  0
 20 10  1  0  0  0  0
 21  1  1  0  0  0  0
 22 25  1  0  0  0  0
 22 21  1  1  0  0  0
 23 26  1  0  0  0  0
 24 22  1  0  0  0  0
 26 25  2  0  0  0  0
 27 23  2  0  0  0  0
 28 23  1  0  0  0  0
 28 24  1  0  0  0  0
M  END
>  <MODEL>
3

>  <REMARK>
 VINA RESULT:      -4.7      2.153      2.861
  Name = 
  2 active torsions:
  status: ('A' for Active; 'I' for Inactive)
    1  A    between atoms: N_1  and  C_2
    2  A    between atoms: C_2  and  C_3
                            x       y       z     vdW  Elec       q    Type
                         _______ _______ _______ _____ _____    ______ ____

>  <TORSDO>
F 2

$$$$
=
 OpenBabel11052422593D

 28 32  0  0  1  0  0  0  0  0999 V2000
  161.2760  204.7840  151.2310 N   0  0  0  0  0  0  0  0  0  0  0  0
  159.8910  206.0990  146.9670 C   0  0  0  0  0  3  0  0  0  0  0  0
  161.4920  209.3670  150.9460 C   0  0  0  0  0  1  0  0  0  0  0  0
  162.2520  206.6630  147.0110 C   0  0  0  0  0  0  0  0  0  0  0  0
  160.8500  207.1400  149.0740 C   0  0  1  0  0  3  0  0  0  0  0  0
  161.2660  205.7070  145.0120 C   0  0  0  0  0  0  0  0  0  0  0  0
  161.0060  206.5830  147.6720 C   0  0  0  0  0  0  0  0  0  0  0  0
  163.0920  208.0080  148.9280 C   0  0  0  0  0  2  0  0  0  0  0  0
  162.3770  206.2090  145.6940 C   0  0  0  0  0  3  0  0  0  0  0  0
  161.0320  207.1490  151.9790 C   0  0  2  0  0  3  0  0  0  0  0  0
  159.8460  206.3150  149.9090 C   0  0  0  0  0  2  0  0  0  0  0  0
  163.4750  207.1660  147.7190 C   0  0  0  0  0  2  0  0  0  0  0  0
  162.5410  205.7930  153.0580 C   0  0  0  0  0  2  0  0  0  0  0  0
  161.9940  207.9300  151.0690 C   0  0  1  0  0  3  0  0  0  0  0  0
  161.6070  206.8330  153.2320 O   0  0  0  0  0  0  0  0  0  0  0  0
  161.4330  205.1420  143.3640 Cl  0  0  0  0  0  0  0  0  0  0  0  0
  160.0220  205.6580  145.6470 C   0  0  0  0  0  3  0  0  0  0  0  0
  162.1520  207.2580  149.7620 N   0  0  1  0  0  0  0  0  0  0  0  0
  161.8370  204.5370  152.5590 C   0  0  0  0  0  2  0  0  0  0  0  0
  160.3580  205.9290  151.3070 C   0  0  1  0  0  3  0  0  0  0  0  0
  160.4770  203.6090  150.9010 C   0  0  0  0  0  2  0  0  0  0  0  0
  161.1260  202.7690  149.8020 C   0  0  2  0  0  3  0  0  0  0  0  0
  161.2710  200.8460  147.6830 C   0  0  0  0  0  0  0  0  0  0  0  0
  160.6080  203.1390  148.4100 C   0  0  0  0  0  2  0  0  0  0  0  0
  161.0070  201.2910  150.0690 C   0  0  0  0  0  3  0  0  0  0  0  0
  161.1020  200.4010  149.0770 C   0  0  0  0  0  3  0  0  0  0  0  0
  161.3750  199.9910  146.7650 O   0  0  0  0  0  0  0  0  0  0  0  0
  161.3410  202.3110  147.3540 C   0  0  0  0  0  2  0  0  0  0  0  0
  1 20  1  0  0  0  0
  1 19  1  0  0  0  0
  2  7  1  0  0  0  0
  4  7  2  0  0  0  0
  4 12  1  0  0  0  0
  5 18  1  0  0  0  0
  5 11  1  1  0  0  0
  6 17  1  0  0  0  0
  6  9  2  0  0  0  0
  7  5  1  0  0  0  0
  9  4  1  0  0  0  0
 10 15  1  1  0  0  0
 12  8  1  0  0  0  0
 13 15  1  0  0  0  0
 14  3  1  6  0  0  0
 14 10  1  0  0  0  0
 16  6  1  0  0  0  0
 17  2  2  0  0  0  0
 18  8  1  6  0  0  0
 18 14  1  0  0  0  0
 19 13  1  0  0  0  0
 20 11  1  6  0  0  0
 20 10  1  0  0  0  0
 21  1  1  0  0  0  0
 22 25  1  0  0  0  0
 22 21  1  1  0  0  0
 23 26  1  0  0  0  0
 24 22  1  0  0  0  0
 26 25  2  0  0  0  0
 27 23  2  0  0  0  0
 28 23  1  0  0  0  0
 28 24  1  0  0  0  0
M  END
>  <MODEL>
4

>  <REMARK>
 VINA RESULT:      -4.7      5.505      8.661
  Name = 
  2 active torsions:
  status: ('A' for Active; 'I' for Inactive)
    1  A    between atoms: N_1  and  C_2
    2  A    between atoms: C_2  and  C_3
                            x       y       z     vdW  Elec       q    Type
                         _______ _______ _______ _____ _____    ______ ____

>  <TORSDO>
F 2

$$$$
=
 OpenBabel11052422593D

 28 32  0  0  1  0  0  0  0  0999 V2000
  160.9200  207.3150  150.7150 N   0  0  0  0  0  0  0  0  0  0  0  0
  161.3600  209.7770  154.6620 C   0  0  0  0  0  3  0  0  0  0  0  0
  162.9960  211.3030  149.7560 C   0  0  0  0  0  1  0  0  0  0  0  0
  159.7710  211.0610  153.3490 C   0  0  0  0  0  0  0  0  0  0  0  0
  161.7850  210.0550  152.1750 C   0  0  1  0  0  3  0  0  0  0  0  0
  159.4440  210.7970  155.7380 C   0  0  0  0  0  0  0  0  0  0  0  0
  160.9350  210.2630  153.4140 C   0  0  0  0  0  0  0  0  0  0  0  0
  160.3880  211.6310  151.0070 C   0  0  0  0  0  2  0  0  0  0  0  0
  159.0250  211.3070  154.5060 C   0  0  0  0  0  3  0  0  0  0  0  0
  162.5580  208.8550  149.6380 C   0  0  2  0  0  3  0  0  0  0  0  0
  162.4310  208.6520  152.1540 C   0  0  0  0  0  2  0  0  0  0  0  0
  159.2720  211.6000  152.0420 C   0  0  0  0  0  2  0  0  0  0  0  0
  160.9970  207.7980  148.3240 C   0  0  0  0  0  2  0  0  0  0  0  0
  161.9000  210.2400  149.7530 C   0  0  1  0  0  3  0  0  0  0  0  0
  162.3310  208.2490  148.3800 O   0  0  0  0  0  0  0  0  0  0  0  0
  158.5040  211.1110  157.1800 Cl  0  0  0  0  0  0  0  0  0  0  0  0
  160.6140  210.0370  155.8160 C   0  0  0  0  0  3  0  0  0  0  0  0
  161.0200  210.3130  150.9380 N   0  0  1  0  0  0  0  0  0  0  0  0
  160.7630  206.7290  149.3850 C   0  0  0  0  0  2  0  0  0  0  0  0
  162.2640  207.9030  150.8210 C   0  0  1  0  0  3  0  0  0  0  0  0
  160.8570  206.2050  151.6600 C   0  0  0  0  0  2  0  0  0  0  0  0
  161.2430  204.8790  151.0070 C   0  0  2  0  0  3  0  0  0  0  0  0
  161.0470  202.0940  150.3640 C   0  0  0  0  0  0  0  0  0  0  0  0
  160.2000  204.4110  149.9890 C   0  0  0  0  0  2  0  0  0  0  0  0
  161.5510  203.8110  152.0240 C   0  0  0  0  0  3  0  0  0  0  0  0
  161.4810  202.5150  151.7060 C   0  0  0  0  0  3  0  0  0  0  0  0
  161.0050  200.8690  150.0790 O   0  0  0  0  0  0  0  0  0  0  0  0
  160.6760  203.1170  149.3260 C   0  0  0  0  0  2  0  0  0  0  0  0
  1 20  1  0  0  0  0
  1 21  1  0  0  0  0
  2 17  1  0  0  0  0
  4  7  1  0  0  0  0
  4  9  2  0  0  0  0
  5 11  1  6  0  0  0
  5  7  1  0  0  0  0
  6 17  2  0  0  0  0
  6 16  1  0  0  0  0
  7  2  2  0  0  0  0
  8 12  1  0  0  0  0
  9  6  1  0  0  0  0
 10 15  1  6  0  0  0
 10 14  1  0  0  0  0
 10 20  1  0  0  0  0
 12  4  1  0  0  0  0
 13 15  1  0  0  0  0
 13 19  1  0  0  0  0
 14  3  1  1  0  0  0
 14 18  1  0  0  0  0
 18  8  1  1  0  0  0
 18  5  1  0  0  0  0
 19  1  1  0  0  0  0
 20 11  1  1  0  0  0
 22 21  1  1  0  0  0
 22 25  1  0  0  0  0
 23 26  1  0  0  0  0
 24 22  1  0  0  0  0
 26 25  2  0  0  0  0
 27 23  2  0  0  0  0
 28 24  1  0  0  0  0
 28 23  1  0  0  0  0
M  END
>  <MODEL>
5

>  <REMARK>
 VINA RESULT:      -3.9      4.086      7.560
  Name = 
  2 active torsions:
  status: ('A' for Active; 'I' for Inactive)
    1  A    between atoms: N_1  and  C_2
    2  A    between atoms: C_2  and  C_3
                            x       y       z     vdW  Elec       q    Type
                         _______ _______ _______ _____ _____    ______ ____

>  <TORSDO>
F 2

$$$$
=
 OpenBabel11052422593D

 28 32  0  0  1  0  0  0  0  0999 V2000
  157.4370  211.6000  137.9980 N   0  0  0  0  0  0  0  0  0  0  0  0
  161.4080  209.2090  137.4170 C   0  0  0  0  0  3  0  0  0  0  0  0
  160.9870  214.3590  138.9570 C   0  0  0  0  0  1  0  0  0  0  0  0
  161.3170  209.6120  139.8090 C   0  0  0  0  0  0  0  0  0  0  0  0
  160.6480  211.4890  138.2350 C   0  0  1  0  0  3  0  0  0  0  0  0
  162.0780  207.4690  138.9640 C   0  0  0  0  0  0  0  0  0  0  0  0
  161.0930  210.0600  138.4890 C   0  0  0  0  0  0  0  0  0  0  0  0
  160.9290  211.9450  140.5830 C   0  0  0  0  0  2  0  0  0  0  0  0
  161.7900  208.3160  140.0380 C   0  0  0  0  0  3  0  0  0  0  0  0
  158.7730  213.7040  138.0250 C   0  0  2  0  0  3  0  0  0  0  0  0
  159.7100  211.5860  137.0120 C   0  0  0  0  0  2  0  0  0  0  0  0
  160.9920  210.4790  140.9890 C   0  0  0  0  0  2  0  0  0  0  0  0
  156.7690  213.6470  139.1480 C   0  0  0  0  0  2  0  0  0  0  0  0
  159.7360  213.5200  139.2090 C   0  0  1  0  0  3  0  0  0  0  0  0
  157.6240  214.4530  138.3700 O   0  0  0  0  0  0  0  0  0  0  0  0
  162.6690  205.8500  139.2610 Cl  0  0  0  0  0  0  0  0  0  0  0  0
  161.8920  207.9180  137.6540 C   0  0  0  0  0  3  0  0  0  0  0  0
  160.0330  212.0910  139.4350 N   0  0  1  0  0  0  0  0  0  0  0  0
  156.2950  212.4510  138.3310 C   0  0  0  0  0  2  0  0  0  0  0  0
  158.4300  212.4000  137.2660 C   0  0  1  0  0  3  0  0  0  0  0  0
  156.9350  210.5850  137.0780 C   0  0  0  0  0  2  0  0  0  0  0  0
  155.7330  209.8380  137.6550 C   0  0  2  0  0  3  0  0  0  0  0  0
  153.6930  209.1840  139.5570 C   0  0  0  0  0  0  0  0  0  0  0  0
  154.5000  210.7380  137.7800 C   0  0  0  0  0  2  0  0  0  0  0  0
  156.0580  209.1510  138.9550 C   0  0  0  0  0  3  0  0  0  0  0  0
  155.0970  208.8270  139.8240 C   0  0  0  0  0  3  0  0  0  0  0  0
  152.8000  208.8540  140.3800 O   0  0  0  0  0  0  0  0  0  0  0  0
  153.3180  209.9180  138.3000 C   0  0  0  0  0  2  0  0  0  0  0  0
  1 19  1  0  0  0  0
  2 17  2  0  0  0  0
  2  7  1  0  0  0  0
  4  9  1  0  0  0  0
  4 12  1  0  0  0  0
  5 11  1  6  0  0  0
  5  7  1  0  0  0  0
  5 18  1  0  0  0  0
  6 16  1  0  0  0  0
  6  9  2  0  0  0  0
  7  4  2  0  0  0  0
  8 12  1  0  0  0  0
 10 15  1  1  0  0  0
 10 14  1  0  0  0  0
 14  3  1  6  0  0  0
 14 18  1  0  0  0  0
 15 13  1  0  0  0  0
 17  6  1  0  0  0  0
 18  8  1  1  0  0  0
 19 13  1  0  0  0  0
 20 11  1  1  0  0  0
 20  1  1  0  0  0  0
 20 10  1  0  0  0  0
 21  1  1  0  0  0  0
 22 21  1  1  0  0  0
 22 24  1  0  0  0  0
 22 25  1  0  0  0  0
 23 26  1  0  0  0  0
 23 27  2  0  0  0  0
 24 28  1  0  0  0  0
 25 26  2  0  0  0  0
 28 23  1  0  0  0  0
M  END
>  <MODEL>
6

>  <REMARK>
 VINA RESULT:      -3.7     13.373     15.512
  Name = 
  2 active torsions:
  status: ('A' for Active; 'I' for Inactive)
    1  A    between atoms: N_1  and  C_2
    2  A    between atoms: C_2  and  C_3
                            x       y       z     vdW  Elec       q    Type
                         _______ _______ _______ _____ _____    ______ ____

>  <TORSDO>
F 2

$$$$
=
 OpenBabel11052422593D

 28 32  0  0  1  0  0  0  0  0999 V2000
  157.0390  212.4200  156.2960 N   0  0  0  0  0  0  0  0  0  0  0  0
  159.0220  210.0690  152.7790 C   0  0  0  0  0  3  0  0  0  0  0  0
  155.0980  213.7420  152.3430 C   0  0  0  0  0  1  0  0  0  0  0  0
  159.7310  212.3630  152.4180 C   0  0  0  0  0  0  0  0  0  0  0  0
  157.3310  211.9300  153.1250 C   0  0  1  0  0  3  0  0  0  0  0  0
  161.2880  210.5360  152.0610 C   0  0  0  0  0  0  0  0  0  0  0  0
  158.7330  211.4430  152.8100 C   0  0  0  0  0  0  0  0  0  0  0  0
  157.9830  214.1330  152.4010 C   0  0  0  0  0  2  0  0  0  0  0  0
  161.0050  211.9050  152.0650 C   0  0  0  0  0  3  0  0  0  0  0  0
  155.2070  213.0870  154.7430 C   0  0  2  0  0  3  0  0  0  0  0  0
  156.6700  211.0890  154.2390 C   0  0  0  0  0  2  0  0  0  0  0  0
  159.4770  213.8410  152.4380 C   0  0  0  0  0  2  0  0  0  0  0  0
  155.7080  214.4530  156.5210 C   0  0  0  0  0  2  0  0  0  0  0  0
  155.9280  213.8530  153.6210 C   0  0  1  0  0  3  0  0  0  0  0  0
  154.6610  213.9480  155.7240 O   0  0  0  0  0  0  0  0  0  0  0  0
  162.8840  209.9740  151.6170 Cl  0  0  0  0  0  0  0  0  0  0  0  0
  160.2940  209.6190  152.4130 C   0  0  0  0  0  3  0  0  0  0  0  0
  157.3140  213.3700  153.4550 N   0  0  1  0  0  0  0  0  0  0  0  0
  156.3970  213.3130  157.2610 C   0  0  0  0  0  2  0  0  0  0  0  0
  156.0230  211.9250  155.3560 C   0  0  1  0  0  3  0  0  0  0  0  0
  157.5200  211.2730  157.0590 C   0  0  0  0  0  2  0  0  0  0  0  0
  159.0420  211.1480  157.0000 C   0  0  2  0  0  3  0  0  0  0  0  0
  161.6190  210.7840  155.8010 C   0  0  0  0  0  0  0  0  0  0  0  0
  159.6870  212.3040  156.2290 C   0  0  0  0  0  2  0  0  0  0  0  0
  159.4840  209.8080  156.4720 C   0  0  0  0  0  3  0  0  0  0  0  0
  160.6970  209.6430  155.9380 C   0  0  0  0  0  3  0  0  0  0  0  0
  162.7640  210.6040  155.3120 O   0  0  0  0  0  0  0  0  0  0  0  0
  161.2090  212.1550  156.2620 C   0  0  0  0  0  2  0  0  0  0  0  0
  1 21  1  0  0  0  0
  1 19  1  0  0  0  0
  2  7  1  0  0  0  0
  4 12  1  0  0  0  0
  4  7  2  0  0  0  0
  5 18  1  0  0  0  0
  5 11  1  1  0  0  0
  6  9  2  0  0  0  0
  6 17  1  0  0  0  0
  7  5  1  0  0  0  0
  8 12  1  0  0  0  0
  9  4  1  0  0  0  0
 10 20  1  0  0  0  0
 10 15  1  1  0  0  0
 13 19  1  0  0  0  0
 14  3  1  6  0  0  0
 14 10  1  0  0  0  0
 15 13  1  0  0  0  0
 16  6  1  0  0  0  0
 17  2  2  0  0  0  0
 18  8  1  6  0  0  0
 18 14  1  0  0  0  0
 20 11  1  6  0  0  0
 20  1  1  0  0  0  0
 22 21  1  6  0  0  0
 23 26  1  0  0  0  0
 23 28  1  0  0  0  0
 24 28  1  0  0  0  0
 24 22  1  0  0  0  0
 25 22  1  0  0  0  0
 26 25  2  0  0  0  0
 27 23  2  0  0  0  0
M  END
>  <MODEL>
7

>  <REMARK>
 VINA RESULT:      -3.6      3.035      5.760
  Name = 
  2 active torsions:
  status: ('A' for Active; 'I' for Inactive)
    1  A    between atoms: N_1  and  C_2
    2  A    between atoms: C_2  and  C_3
                            x       y       z     vdW  Elec       q    Type
                         _______ _______ _______ _____ _____    ______ ____

>  <TORSDO>
F 2

$$$$
=
 OpenBabel11052422593D

 28 32  0  0  1  0  0  0  0  0999 V2000
  160.8460  206.4590  149.9950 N   0  0  0  0  0  0  0  0  0  0  0  0
  162.0250  208.1880  154.1720 C   0  0  0  0  0  3  0  0  0  0  0  0
  163.1140  210.4110  149.3810 C   0  0  0  0  0  1  0  0  0  0  0  0
  160.3920  209.7740  153.3250 C   0  0  0  0  0  0  0  0  0  0  0  0
  162.1350  208.8530  151.7240 C   0  0  1  0  0  3  0  0  0  0  0  0
  160.3680  209.1330  155.6650 C   0  0  0  0  0  0  0  0  0  0  0  0
  161.4800  208.9040  153.0920 C   0  0  0  0  0  0  0  0  0  0  0  0
  160.7360  210.6900  151.0380 C   0  0  0  0  0  2  0  0  0  0  0  0
  159.8330  209.8690  154.6040 C   0  0  0  0  0  3  0  0  0  0  0  0
  162.4520  208.0510  148.9450 C   0  0  2  0  0  3  0  0  0  0  0  0
  162.6470  207.4350  151.3890 C   0  0  0  0  0  2  0  0  0  0  0  0
  159.7700  210.5560  152.2070 C   0  0  0  0  0  2  0  0  0  0  0  0
  160.6430  207.3320  147.7250 C   0  0  0  0  0  2  0  0  0  0  0  0
  161.9390  209.4350  149.3730 C   0  0  1  0  0  3  0  0  0  0  0  0
  162.0070  207.6800  147.6550 O   0  0  0  0  0  0  0  0  0  0  0  0
  159.6600  209.2590  157.2610 Cl  0  0  0  0  0  0  0  0  0  0  0  0
  161.4660  208.2980  155.4490 C   0  0  0  0  0  3  0  0  0  0  0  0
  161.2360  209.3640  150.6700 N   0  0  1  0  0  0  0  0  0  0  0  0
  160.4620  206.1160  148.6260 C   0  0  0  0  0  2  0  0  0  0  0  0
  162.2380  206.9330  149.9940 C   0  0  1  0  0  3  0  0  0  0  0  0
  160.8140  205.2120  150.7520 C   0  0  0  0  0  2  0  0  0  0  0  0
  160.5090  204.0110  149.8580 C   0  0  2  0  0  3  0  0  0  0  0  0
  161.0230  201.5790  148.4340 C   0  0  0  0  0  0  0  0  0  0  0  0
  160.5810  202.6880  150.6250 C   0  0  0  0  0  2  0  0  0  0  0  0
  161.3680  203.9890  148.6210 C   0  0  0  0  0  3  0  0  0  0  0  0
  161.5800  202.8540  147.9490 C   0  0  0  0  0  3  0  0  0  0  0  0
  161.2200  200.5240  147.7770 O   0  0  0  0  0  0  0  0  0  0  0  0
  160.2040  201.5350  149.6930 C   0  0  0  0  0  2  0  0  0  0  0  0
  1 21  1  0  0  0  0
  2 17  1  0  0  0  0
  4  9  2  0  0  0  0
  5 11  1  6  0  0  0
  5  7  1  0  0  0  0
  6 16  1  0  0  0  0
  7  4  1  0  0  0  0
  7  2  2  0  0  0  0
  8 12  1  0  0  0  0
  9  6  1  0  0  0  0
 10 15  1  6  0  0  0
 10 14  1  0  0  0  0
 10 20  1  0  0  0  0
 12  4  1  0  0  0  0
 13 19  1  0  0  0  0
 14  3  1  1  0  0  0
 14 18  1  0  0  0  0
 15 13  1  0  0  0  0
 17  6  2  0  0  0  0
 18  8  1  1  0  0  0
 18  5  1  0  0  0  0
 19  1  1  0  0  0  0
 20  1  1  0  0  0  0
 20 11  1  1  0  0  0
 22 24  1  0  0  0  0
 22 21  1  1  0  0  0
 23 28  1  0  0  0  0
 25 22  1  0  0  0  0
 26 23  1  0  0  0  0
 26 25  2  0  0  0  0
 27 23  2  0  0  0  0
 28 24  1  0  0  0  0
M  END
>  <MODEL>
8

>  <REMARK>
 VINA RESULT:      -3.4      4.517      7.837
  Name = 
  2 active torsions:
  status: ('A' for Active; 'I' for Inactive)
    1  A    between atoms: N_1  and  C_2
    2  A    between atoms: C_2  and  C_3
                            x       y       z     vdW  Elec       q    Type
                         _______ _______ _______ _____ _____    ______ ____

>  <TORSDO>
F 2

$$$$
=
 OpenBabel11052422593D

 28 32  0  0  1  0  0  0  0  0999 V2000
  158.7680  211.6400  152.8480 N   0  0  0  0  0  0  0  0  0  0  0  0
  162.0080  209.6900  150.1050 C   0  0  0  0  0  3  0  0  0  0  0  0
  162.3190  210.3170  155.4520 C   0  0  0  0  0  1  0  0  0  0  0  0
  161.1980  207.8410  151.4540 C   0  0  0  0  0  0  0  0  0  0  0  0
  161.5780  210.0870  152.5750 C   0  0  1  0  0  3  0  0  0  0  0  0
  161.6710  207.5130  149.0970 C   0  0  0  0  0  0  0  0  0  0  0  0
  161.5550  209.2020  151.3430 C   0  0  0  0  0  0  0  0  0  0  0  0
  161.1340  208.1410  153.9230 C   0  0  0  0  0  2  0  0  0  0  0  0
  161.2410  207.0110  150.3290 C   0  0  0  0  0  3  0  0  0  0  0  0
  160.4730  211.7890  154.6610 C   0  0  2  0  0  3  0  0  0  0  0  0
  161.1690  211.5390  152.2440 C   0  0  0  0  0  2  0  0  0  0  0  0
  160.7030  207.2710  152.7500 C   0  0  0  0  0  2  0  0  0  0  0  0
  158.2530  211.6400  155.2340 C   0  0  0  0  0  2  0  0  0  0  0  0
  160.8960  210.3290  154.8960 C   0  0  1  0  0  3  0  0  0  0  0  0
  159.4880  212.2230  155.5790 O   0  0  0  0  0  0  0  0  0  0  0  0
  161.7210  206.4660  147.6960 Cl  0  0  0  0  0  0  0  0  0  0  0  0
  162.0590  208.8500  148.9880 C   0  0  0  0  0  3  0  0  0  0  0  0
  160.7490  209.5290  153.6630 N   0  0  1  0  0  0  0  0  0  0  0  0
  157.8180  212.1170  153.8530 C   0  0  0  0  0  2  0  0  0  0  0  0
  160.1120  212.1260  153.1950 C   0  0  1  0  0  3  0  0  0  0  0  0
  158.3870  212.2780  151.5930 C   0  0  0  0  0  2  0  0  0  0  0  0
  159.6070  212.6570  150.7540 C   0  0  2  0  0  3  0  0  0  0  0  0
  161.0730  213.9290  148.6470 C   0  0  0  0  0  0  0  0  0  0  0  0
  159.9390  214.1480  150.8580 C   0  0  0  0  0  2  0  0  0  0  0  0
  159.4750  212.2120  149.3210 C   0  0  0  0  0  3  0  0  0  0  0  0
  160.1830  212.7940  148.3500 C   0  0  0  0  0  3  0  0  0  0  0  0
  161.7440  214.4530  147.7210 O   0  0  0  0  0  0  0  0  0  0  0  0
  161.2020  214.4500  150.0510 C   0  0  0  0  0  2  0  0  0  0  0  0
  1 20  1  0  0  0  0
  1 19  1  0  0  0  0
  2  7  1  0  0  0  0
  4 12  1  0  0  0  0
  5 11  1  6  0  0  0
  5 18  1  0  0  0  0
  6  9  2  0  0  0  0
  7  4  2  0  0  0  0
  7  5  1  0  0  0  0
  9  4  1  0  0  0  0
 10 14  1  0  0  0  0
 10 15  1  1  0  0  0
 12  8  1  0  0  0  0
 13 15  1  0  0  0  0
 14  3  1  6  0  0  0
 16  6  1  0  0  0  0
 17  6  1  0  0  0  0
 17  2  2  0  0  0  0
 18  8  1  1  0  0  0
 18 14  1  0  0  0  0
 19 13  1  0  0  0  0
 20 11  1  6  0  0  0
 20 10  1  0  0  0  0
 21  1  1  0  0  0  0
 22 24  1  0  0  0  0
 22 21  1  1  0  0  0
 23 28  1  0  0  0  0
 25 22  1  0  0  0  0
 26 23  1  0  0  0  0
 26 25  2  0  0  0  0
 27 23  2  0  0  0  0
 28 24  1  0  0  0  0
M  END
>  <MODEL>
9

>  <REMARK>
 VINA RESULT:      -3.2      1.772      2.308
  Name = 
  2 active torsions:
  status: ('A' for Active; 'I' for Inactive)
    1  A    between atoms: N_1  and  C_2
    2  A    between atoms: C_2  and  C_3
                            x       y       z     vdW  Elec       q    Type
                         _______ _______ _______ _____ _____    ______ ____

>  <TORSDO>
F 2

$$$$
