=
 OpenBabel11062408163D

 32 35  0  0  1  0  0  0  0  0999 V2000
  161.6560  210.8800  155.2830 O   0  0  0  0  0  0  0  0  0  0  0  0
  160.8950  210.0220  154.4660 C   0  0  1  0  0  3  0  0  0  0  0  0
  159.6750  210.4820  157.2610 O   0  0  0  0  0  0  0  0  0  0  0  0
  157.4370  212.6850  153.3420 C   0  0  0  0  0  3  0  0  0  0  0  0
  159.4330  209.8340  154.9210 C   0  0  1  0  0  3  0  0  0  0  0  0
  157.5180  213.0400  155.7340 C   0  0  0  0  0  3  0  0  0  0  0  0
  158.2720  211.8730  155.8840 C   0  0  0  0  0  0  0  0  0  0  0  0
  159.3600  209.4050  156.4090 C   0  0  1  0  0  3  0  0  0  0  0  0
  162.7130  210.1360  155.7080 N   0  0  0  0  0  0  0  0  0  0  0  0
  158.5630  211.3460  157.2610 C   0  0  0  0  0  2  0  0  0  0  0  0
  162.3330  209.4250  156.9270 C   0  0  0  0  0  2  0  0  0  0  0  0
  163.7550  211.0740  156.0840 C   0  0  0  0  0  1  0  0  0  0  0  0
  160.1240  208.1330  156.8120 C   0  0  0  0  0  2  0  0  0  0  0  0
  158.6170  211.1000  154.7550 C   0  0  0  0  0  0  0  0  0  0  0  0
  161.6360  208.1200  156.5530 C   0  0  0  0  0  2  0  0  0  0  0  0
  157.1130  213.4530  154.4640 C   0  0  0  0  0  3  0  0  0  0  0  0
  158.1790  211.5100  153.4900 C   0  0  0  0  0  3  0  0  0  0  0  0
  162.6070  210.3660  152.7730 O   0  0  0  0  0  1  0  0  0  0  0  0
  161.3050  209.9040  152.9710 C   0  0  1  0  0  0  0  0  0  0  0  0
  161.5260  206.7610  150.7690 C   0  0  0  0  0  3  0  0  0  0  0  0
  160.8710  206.0890  152.9910 C   0  0  0  0  0  3  0  0  0  0  0  0
  161.2290  208.4530  152.4990 C   0  0  0  0  0  0  0  0  0  0  0  0
  161.1800  205.7460  151.6690 C   0  0  0  0  0  0  0  0  0  0  0  0
  160.9000  207.4230  153.4000 C   0  0  0  0  0  3  0  0  0  0  0  0
  161.5580  208.0980  151.1710 C   0  0  0  0  0  0  0  0  0  0  0  0
  161.9300  209.0630  150.2430 O   0  0  0  0  0  1  0  0  0  0  0  0
  161.0620  203.9770  149.7880 C   0  0  0  0  0  1  0  0  0  0  0  0
  161.2020  203.3790  152.1050 N   0  0  0  0  0  2  0  0  0  0  0  0
  161.1510  204.3330  151.2340 C   0  0  0  0  0  0  0  0  0  0  0  0
  160.3550  210.7940  152.1440 C   0  0  0  0  0  2  0  0  0  0  0  0
  161.0680  211.8530  151.3070 C   0  0  0  0  0  2  0  0  0  0  0  0
  160.1130  212.9680  150.9330 C   0  0  0  0  0  1  0  0  0  0  0  0
  1  9  1  0  0  0  0
  2 19  1  6  0  0  0
  2  5  1  0  0  0  0
  2  1  1  0  0  0  0
  4 17  2  0  0  0  0
  4 16  1  0  0  0  0
  5 14  1  1  0  0  0
  5  8  1  0  0  0  0
  6  7  1  0  0  0  0
  7 10  1  0  0  0  0
  8 13  1  6  0  0  0
  8  3  1  0  0  0  0
  9 12  1  0  0  0  0
  9 11  1  0  0  0  0
 10  3  1  0  0  0  0
 14  7  2  0  0  0  0
 15 13  1  0  0  0  0
 15 11  1  0  0  0  0
 16  6  2  0  0  0  0
 17 14  1  0  0  0  0
 19 18  1  6  0  0  0
 20 25  2  0  0  0  0
 20 23  1  0  0  0  0
 21 24  1  0  0  0  0
 22 19  1  0  0  0  0
 22 24  2  0  0  0  0
 23 21  2  0  0  0  0
 25 22  1  0  0  0  0
 26 25  1  0  0  0  0
 27 29  1  0  0  0  0
 29 23  1  0  0  0  0
 29 28  2  0  0  0  0
 30 19  1  0  0  0  0
 31 30  1  0  0  0  0
 32 31  1  0  0  0  0
M  END
>  <MODEL>
1

>  <REMARK>
 VINA RESULT:      -6.6      0.000      0.000
  Name = 
  5 active torsions:
  status: ('A' for Active; 'I' for Inactive)
    1  A    between atoms: C_1  and  C_4
    2  A    between atoms: C_1  and  C_27
    3  A    between atoms: C_5  and  C_27
    4  A    between atoms: C_16  and  C_27
    5  A    between atoms: C_19  and  C_26
                            x       y       z     vdW  Elec       q    Type
                         _______ _______ _______ _____ _____    ______ ____

>  <TORSDO>
F 5

$$$$
=
 OpenBabel11062408163D

 32 35  0  0  1  0  0  0  0  0999 V2000
  160.2610  212.2870  155.3790 O   0  0  0  0  0  0  0  0  0  0  0  0
  160.1320  210.9410  154.9870 C   0  0  1  0  0  3  0  0  0  0  0  0
  157.9940  212.8010  153.7700 O   0  0  0  0  0  0  0  0  0  0  0  0
  161.6100  211.0960  150.7330 C   0  0  0  0  0  3  0  0  0  0  0  0
  159.2670  210.7200  153.7290 C   0  0  1  0  0  3  0  0  0  0  0  0
  160.0740  212.9660  150.7430 C   0  0  0  0  0  3  0  0  0  0  0  0
  159.4660  212.4620  151.8960 C   0  0  0  0  0  0  0  0  0  0  0  0
  157.8820  211.4010  153.8740 C   0  0  1  0  0  3  0  0  0  0  0  0
  159.7910  212.3430  156.6550 N   0  0  0  0  0  0  0  0  0  0  0  0
  158.2060  213.0980  152.4110 C   0  0  0  0  0  2  0  0  0  0  0  0
  158.3470  212.5650  156.6190 C   0  0  0  0  0  2  0  0  0  0  0  0
  160.3770  213.5250  157.2610 C   0  0  0  0  0  1  0  0  0  0  0  0
  157.0240  210.9960  155.0850 C   0  0  0  0  0  2  0  0  0  0  0  0
  159.9310  211.2650  152.4800 C   0  0  0  0  0  0  0  0  0  0  0  0
  157.6350  211.2240  156.4730 C   0  0  0  0  0  2  0  0  0  0  0  0
  161.1540  212.2910  150.1700 C   0  0  0  0  0  3  0  0  0  0  0  0
  160.9940  210.5830  151.8780 C   0  0  0  0  0  3  0  0  0  0  0  0
  161.2000  209.5910  156.7060 O   0  0  0  0  0  1  0  0  0  0  0  0
  161.2850  209.9690  155.3640 C   0  0  1  0  0  0  0  0  0  0  0  0
  160.3710  206.4740  154.0480 C   0  0  0  0  0  3  0  0  0  0  0  0
  161.8610  207.5190  152.4640 C   0  0  0  0  0  3  0  0  0  0  0  0
  161.2370  208.7080  154.5030 C   0  0  0  0  0  0  0  0  0  0  0  0
  161.0820  206.4190  152.8420 C   0  0  0  0  0  0  0  0  0  0  0  0
  161.9330  208.6480  153.2810 C   0  0  0  0  0  3  0  0  0  0  0  0
  160.4370  207.6020  154.8700 C   0  0  0  0  0  0  0  0  0  0  0  0
  159.6950  207.6130  156.0440 O   0  0  0  0  0  1  0  0  0  0  0  0
  161.0200  205.3450  150.4920 C   0  0  0  0  0  1  0  0  0  0  0  0
  160.9210  204.0430  152.5010 N   0  0  0  0  0  2  0  0  0  0  0  0
  161.0040  205.2220  151.9780 C   0  0  0  0  0  0  0  0  0  0  0  0
  162.6200  210.7120  155.1640 C   0  0  0  0  0  2  0  0  0  0  0  0
  163.3540  211.0320  156.4650 C   0  0  0  0  0  2  0  0  0  0  0  0
  164.7620  211.5110  156.1780 C   0  0  0  0  0  1  0  0  0  0  0  0
  1  9  1  0  0  0  0
  2 19  1  6  0  0  0
  2  1  1  0  0  0  0
  3  8  1  0  0  0  0
  4 17  1  0  0  0  0
  5 14  1  6  0  0  0
  5  8  1  0  0  0  0
  5  2  1  0  0  0  0
  6  7  2  0  0  0  0
  7 10  1  0  0  0  0
  7 14  1  0  0  0  0
  8 13  1  1  0  0  0
  9 12  1  0  0  0  0
 10  3  1  0  0  0  0
 11  9  1  0  0  0  0
 13 15  1  0  0  0  0
 15 11  1  0  0  0  0
 16  4  2  0  0  0  0
 16  6  1  0  0  0  0
 17 14  2  0  0  0  0
 19 18  1  1  0  0  0
 20 25  1  0  0  0  0
 21 23  1  0  0  0  0
 21 24  2  0  0  0  0
 22 25  2  0  0  0  0
 22 19  1  0  0  0  0
 23 20  2  0  0  0  0
 24 22  1  0  0  0  0
 25 26  1  0  0  0  0
 27 29  1  0  0  0  0
 29 28  2  0  0  0  0
 29 23  1  0  0  0  0
 30 19  1  0  0  0  0
 30 31  1  0  0  0  0
 32 31  1  0  0  0  0
M  END
>  <MODEL>
2

>  <REMARK>
 VINA RESULT:      -4.5      1.982      3.990
  Name = 
  5 active torsions:
  status: ('A' for Active; 'I' for Inactive)
    1  A    between atoms: C_1  and  C_4
    2  A    between atoms: C_1  and  C_27
    3  A    between atoms: C_5  and  C_27
    4  A    between atoms: C_16  and  C_27
    5  A    between atoms: C_19  and  C_26
                            x       y       z     vdW  Elec       q    Type
                         _______ _______ _______ _____ _____    ______ ____

>  <TORSDO>
F 5

$$$$
