=
 OpenBabel11052422083D

 25 29  0  0  1  0  0  0  0  0999 V2000
  161.6480  206.0140  148.5680 C   0  0  0  0  0  0  0  0  0  0  0  0
  161.7670  207.2550  149.1910 C   0  0  0  0  0  0  0  0  0  0  0  0
  160.7810  205.0260  150.5770 C   0  0  0  0  0  3  0  0  0  0  0  0
  162.0510  205.5650  147.2100 C   0  0  1  0  0  3  0  0  0  0  0  0
  161.0570  204.0850  144.9470 C   0  0  0  0  0  3  0  0  0  0  0  0
  160.8840  206.2400  151.1920 N   0  0  0  0  0  0  0  0  0  0  0  0
  161.6020  204.1280  147.2830 C   0  0  0  0  0  0  0  0  0  0  0  0
  161.3510  203.3800  146.0470 C   0  0  0  0  0  3  0  0  0  0  0  0
  161.4530  208.6120  151.2220 N   0  0  0  0  0  0  0  0  0  0  0  0
  160.8840  208.7880  152.5480 C   0  0  0  0  0  1  0  0  0  0  0  0
  162.3530  208.4400  148.4790 C   0  0  0  0  0  2  0  0  0  0  0  0
  160.9410  205.5680  144.9990 C   0  0  0  0  0  3  0  0  0  0  0  0
  161.1880  204.9200  149.2520 C   0  0  0  0  0  0  0  0  0  0  0  0
  161.1250  203.7630  148.4330 N   0  0  0  0  0  0  0  0  0  0  0  0
  162.1170  209.7500  150.5900 C   0  0  0  0  0  2  0  0  0  0  0  0
  161.3430  206.2620  146.0760 C   0  0  0  0  0  3  0  0  0  0  0  0
  161.8500  209.7490  149.0880 C   0  0  1  0  0  3  0  0  0  0  0  0
  161.3720  207.3470  150.5460 C   0  0  0  0  0  0  0  0  0  0  0  0
  162.5330  210.8750  148.4690 N   0  0  0  0  0  2  0  0  0  0  0  0
  160.7420  211.9230  147.2730 O   0  0  0  0  0  0  0  0  0  0  0  0
  161.7310  212.9340  147.2540 C   0  0  2  0  0  0  0  0  0  0  0  0
  162.6940  212.6820  146.2940 F   0  0  0  0  0  0  0  0  0  0  0  0
  161.6020  211.9970  148.3850 C   0  0  2  0  0  0  0  0  0  0  0  0
  161.1170  214.3170  147.3550 C   0  0  0  0  0  1  0  0  0  0  0  0
  160.9540  212.4100  149.5510 O   0  0  0  0  0  1  0  0  0  0  0  0
  1  2  2  0  0  0  0
  1 13  1  0  0  0  0
  2 18  1  0  0  0  0
  3  6  1  0  0  0  0
  4 16  1  6  0  0  0
  4  7  1  0  0  0  0
  4  1  1  0  0  0  0
  5 12  1  0  0  0  0
  5  8  2  0  0  0  0
  7 14  2  0  0  0  0
  8  7  1  0  0  0  0
  9 10  1  0  0  0  0
 11 17  1  0  0  0  0
 11  2  1  0  0  0  0
 12 16  2  0  0  0  0
 13  3  2  0  0  0  0
 14 13  1  0  0  0  0
 15  9  1  0  0  0  0
 17 19  1  6  0  0  0
 17 15  1  0  0  0  0
 18  6  2  0  0  0  0
 18  9  1  0  0  0  0
 20 23  1  0  0  0  0
 21 20  1  0  0  0  0
 21 24  1  1  0  0  0
 21 23  1  0  0  0  0
 22 21  1  0  0  0  0
 23 19  1  0  0  0  0
 23 25  1  1  0  0  0
M  END
>  <MODEL>
1

>  <REMARK>
 VINA RESULT:      -9.1      0.000      0.000
  Name = 
  2 active torsions:
  status: ('A' for Active; 'I' for Inactive)
    1  A    between atoms: N_6  and  C_15
    2  A    between atoms: N_6  and  C_23
                            x       y       z     vdW  Elec       q    Type
                         _______ _______ _______ _____ _____    ______ ____

>  <TORSDO>
F 2

$$$$
=
 OpenBabel11052422083D

 25 29  0  0  1  0  0  0  0  0999 V2000
  161.1300  206.1760  149.8860 C   0  0  0  0  0  0  0  0  0  0  0  0
  161.1600  207.4400  150.4750 C   0  0  0  0  0  0  0  0  0  0  0  0
  162.2810  206.9950  147.9440 C   0  0  0  0  0  3  0  0  0  0  0  0
  160.4950  204.9100  150.3320 C   0  0  1  0  0  3  0  0  0  0  0  0
  161.0510  202.0980  150.6210 C   0  0  0  0  0  3  0  0  0  0  0  0
  162.3230  208.2320  148.5180 N   0  0  0  0  0  0  0  0  0  0  0  0
  160.8980  204.0160  149.1880 C   0  0  0  0  0  0  0  0  0  0  0  0
  160.9160  202.5620  149.3710 C   0  0  0  0  0  3  0  0  0  0  0  0
  161.8520  209.7990  150.3280 N   0  0  0  0  0  0  0  0  0  0  0  0
  162.6360  210.8480  149.6990 C   0  0  0  0  0  1  0  0  0  0  0  0
  160.5070  207.7040  151.8010 C   0  0  0  0  0  2  0  0  0  0  0  0
  161.2250  203.0310  151.7660 C   0  0  0  0  0  3  0  0  0  0  0  0
  161.6590  205.9650  148.6400 C   0  0  0  0  0  0  0  0  0  0  0  0
  161.5450  204.6110  148.2320 N   0  0  0  0  0  0  0  0  0  0  0  0
  161.1330  210.1090  151.5620 C   0  0  0  0  0  2  0  0  0  0  0  0
  161.0300  204.3520  151.6260 C   0  0  0  0  0  3  0  0  0  0  0  0
  161.1490  208.9040  152.4980 C   0  0  1  0  0  3  0  0  0  0  0  0
  161.7750  208.4860  149.7500 C   0  0  0  0  0  0  0  0  0  0  0  0
  160.4140  209.2190  153.7140 N   0  0  0  0  0  2  0  0  0  0  0  0
  161.6670  207.5490  154.8870 O   0  0  0  0  0  0  0  0  0  0  0  0
  160.7320  207.9490  155.8690 C   0  0  2  0  0  0  0  0  0  0  0  0
  159.4930  207.3720  155.6540 F   0  0  0  0  0  0  0  0  0  0  0  0
  161.2520  208.8940  154.8640 C   0  0  2  0  0  0  0  0  0  0  0  0
  161.3380  207.9260  157.2600 C   0  0  0  0  0  1  0  0  0  0  0  0
  162.2680  209.7850  155.2190 O   0  0  0  0  0  1  0  0  0  0  0  0
  1  4  1  0  0  0  0
  1  2  1  0  0  0  0
  2 11  1  0  0  0  0
  3  6  2  0  0  0  0
  3 13  1  0  0  0  0
  4 16  1  1  0  0  0
  5 12  1  0  0  0  0
  6 18  1  0  0  0  0
  7  8  1  0  0  0  0
  7  4  1  0  0  0  0
  8  5  2  0  0  0  0
  9 15  1  0  0  0  0
 10  9  1  0  0  0  0
 11 17  1  0  0  0  0
 13  1  2  0  0  0  0
 14 13  1  0  0  0  0
 14  7  2  0  0  0  0
 15 17  1  0  0  0  0
 16 12  2  0  0  0  0
 17 19  1  1  0  0  0
 18  9  1  0  0  0  0
 18  2  2  0  0  0  0
 19 23  1  0  0  0  0
 20 21  1  0  0  0  0
 21 24  1  1  0  0  0
 22 21  1  0  0  0  0
 23 20  1  0  0  0  0
 23 25  1  1  0  0  0
 23 21  1  0  0  0  0
M  END
>  <MODEL>
2

>  <REMARK>
 VINA RESULT:      -8.8      3.758      5.673
  Name = 
  2 active torsions:
  status: ('A' for Active; 'I' for Inactive)
    1  A    between atoms: N_6  and  C_15
    2  A    between atoms: N_6  and  C_23
                            x       y       z     vdW  Elec       q    Type
                         _______ _______ _______ _____ _____    ______ ____

>  <TORSDO>
F 2

$$$$
=
 OpenBabel11052422083D

 25 29  0  0  1  0  0  0  0  0999 V2000
  161.0180  205.9120  150.5790 C   0  0  0  0  0  0  0  0  0  0  0  0
  160.9860  204.6810  149.9260 C   0  0  0  0  0  0  0  0  0  0  0  0
  161.1830  204.8340  152.7180 C   0  0  0  0  0  3  0  0  0  0  0  0
  160.8750  207.2950  150.0550 C   0  0  1  0  0  3  0  0  0  0  0  0
  162.0890  209.9010  150.2360 C   0  0  0  0  0  3  0  0  0  0  0  0
  161.1630  203.6250  152.0860 N   0  0  0  0  0  0  0  0  0  0  0  0
  161.0200  208.0620  151.3450 C   0  0  0  0  0  0  0  0  0  0  0  0
  161.4150  209.4730  151.3120 C   0  0  0  0  0  3  0  0  0  0  0  0
  161.0520  202.2240  150.0910 N   0  0  0  0  0  0  0  0  0  0  0  0
  161.3110  201.0170  150.8570 C   0  0  0  0  0  1  0  0  0  0  0  0
  160.8160  204.5850  148.4370 C   0  0  0  0  0  2  0  0  0  0  0  0
  162.4610  208.9610  149.1440 C   0  0  0  0  0  3  0  0  0  0  0  0
  161.0920  205.9860  151.9450 C   0  0  0  0  0  0  0  0  0  0  0  0
  161.1330  207.3260  152.4080 N   0  0  0  0  0  0  0  0  0  0  0  0
  160.7800  202.1000  148.6610 C   0  0  0  0  0  2  0  0  0  0  0  0
  161.9490  207.7210  149.0870 C   0  0  0  0  0  3  0  0  0  0  0  0
  161.3930  203.2740  147.9030 C   0  0  1  0  0  3  0  0  0  0  0  0
  161.0560  203.5150  150.7230 C   0  0  0  0  0  0  0  0  0  0  0  0
  161.0980  203.1470  146.4830 N   0  0  0  0  0  2  0  0  0  0  0  0
  160.7570  205.4180  145.8050 O   0  0  0  0  0  0  0  0  0  0  0  0
  160.9550  204.7740  144.5620 C   0  0  2  0  0  0  0  0  0  0  0  0
  159.8160  204.1090  144.1480 F   0  0  0  0  0  0  0  0  0  0  0  0
  161.6320  204.3150  145.7890 C   0  0  2  0  0  0  0  0  0  0  0  0
  161.7010  205.6630  143.5850 C   0  0  0  0  0  1  0  0  0  0  0  0
  162.9630  204.6710  146.0160 O   0  0  0  0  0  1  0  0  0  0  0  0
  1 13  1  0  0  0  0
  2  1  2  0  0  0  0
  2 18  1  0  0  0  0
  4 16  1  6  0  0  0
  4  1  1  0  0  0  0
  4  7  1  0  0  0  0
  5  8  2  0  0  0  0
  6  3  1  0  0  0  0
  7 14  2  0  0  0  0
  8  7  1  0  0  0  0
  9 18  1  0  0  0  0
  9 10  1  0  0  0  0
 11  2  1  0  0  0  0
 12  5  1  0  0  0  0
 13 14  1  0  0  0  0
 13  3  2  0  0  0  0
 15  9  1  0  0  0  0
 16 12  2  0  0  0  0
 17 19  1  6  0  0  0
 17 11  1  0  0  0  0
 17 15  1  0  0  0  0
 18  6  2  0  0  0  0
 21 24  1  6  0  0  0
 21 23  1  0  0  0  0
 21 20  1  0  0  0  0
 22 21  1  0  0  0  0
 23 20  1  0  0  0  0
 23 25  1  1  0  0  0
 23 19  1  0  0  0  0
M  END
>  <MODEL>
3

>  <REMARK>
 VINA RESULT:      -8.6      3.515      6.402
  Name = 
  2 active torsions:
  status: ('A' for Active; 'I' for Inactive)
    1  A    between atoms: N_6  and  C_15
    2  A    between atoms: N_6  and  C_23
                            x       y       z     vdW  Elec       q    Type
                         _______ _______ _______ _____ _____    ______ ____

>  <TORSDO>
F 2

$$$$
=
 OpenBabel11052422083D

 25 29  0  0  1  0  0  0  0  0999 V2000
  161.0350  205.7750  150.0780 C   0  0  0  0  0  0  0  0  0  0  0  0
  161.1120  206.9780  150.7800 C   0  0  0  0  0  0  0  0  0  0  0  0
  161.7800  206.8420  148.0600 C   0  0  0  0  0  3  0  0  0  0  0  0
  160.5470  204.4350  150.4950 C   0  0  1  0  0  3  0  0  0  0  0  0
  161.2720  201.6500  150.3900 C   0  0  0  0  0  3  0  0  0  0  0  0
  161.8680  208.0210  148.7420 N   0  0  0  0  0  0  0  0  0  0  0  0
  160.7790  203.6790  149.2110 C   0  0  0  0  0  0  0  0  0  0  0  0
  160.8950  202.2190  149.2380 C   0  0  0  0  0  3  0  0  0  0  0  0
  161.6580  209.3790  150.7580 N   0  0  0  0  0  0  0  0  0  0  0  0
  162.2690  210.5290  150.1140 C   0  0  0  0  0  1  0  0  0  0  0  0
  160.6960  207.0760  152.2190 C   0  0  0  0  0  2  0  0  0  0  0  0
  161.6070  202.4810  151.5780 C   0  0  0  0  0  3  0  0  0  0  0  0
  161.3390  205.7150  148.7430 C   0  0  0  0  0  0  0  0  0  0  0  0
  161.2160  204.4010  148.2250 N   0  0  0  0  0  0  0  0  0  0  0  0
  161.1590  209.5260  152.1240 C   0  0  0  0  0  2  0  0  0  0  0  0
  161.3310  203.7940  151.6110 C   0  0  0  0  0  3  0  0  0  0  0  0
  161.3980  208.2430  152.9140 C   0  0  1  0  0  3  0  0  0  0  0  0
  161.5390  208.1230  150.0700 C   0  0  0  0  0  0  0  0  0  0  0  0
  160.8800  208.3960  154.2650 N   0  0  0  0  0  2  0  0  0  0  0  0
  161.0440  209.8810  156.1360 O   0  0  0  0  0  0  0  0  0  0  0  0
  160.1430  210.5750  155.2970 C   0  0  2  0  0  0  0  0  0  0  0  0
  158.8670  210.0480  155.3780 F   0  0  0  0  0  0  0  0  0  0  0  0
  161.2190  209.7310  154.7470 C   0  0  2  0  0  0  0  0  0  0  0  0
  160.3400  212.0770  155.3850 C   0  0  0  0  0  1  0  0  0  0  0  0
  162.3910  210.3290  154.2760 O   0  0  0  0  0  1  0  0  0  0  0  0
  1  4  1  0  0  0  0
  1  2  1  0  0  0  0
  2 11  1  0  0  0  0
  3  6  2  0  0  0  0
  3 13  1  0  0  0  0
  4 16  1  1  0  0  0
  5 12  1  0  0  0  0
  6 18  1  0  0  0  0
  7  8  1  0  0  0  0
  7  4  1  0  0  0  0
  8  5  2  0  0  0  0
  9 15  1  0  0  0  0
 10  9  1  0  0  0  0
 11 17  1  0  0  0  0
 12 16  2  0  0  0  0
 13  1  2  0  0  0  0
 14 13  1  0  0  0  0
 14  7  2  0  0  0  0
 15 17  1  0  0  0  0
 17 19  1  1  0  0  0
 18  9  1  0  0  0  0
 18  2  2  0  0  0  0
 19 23  1  0  0  0  0
 21 22  1  0  0  0  0
 21 24  1  6  0  0  0
 21 20  1  0  0  0  0
 23 25  1  6  0  0  0
 23 21  1  0  0  0  0
 23 20  1  0  0  0  0
M  END
>  <MODEL>
4

>  <REMARK>
 VINA RESULT:      -8.4      3.524      5.225
  Name = 
  2 active torsions:
  status: ('A' for Active; 'I' for Inactive)
    1  A    between atoms: N_6  and  C_15
    2  A    between atoms: N_6  and  C_23
                            x       y       z     vdW  Elec       q    Type
                         _______ _______ _______ _____ _____    ______ ____

>  <TORSDO>
F 2

$$$$
=
 OpenBabel11052422083D

 25 29  0  0  1  0  0  0  0  0999 V2000
  161.4700  204.7730  148.5830 C   0  0  0  0  0  0  0  0  0  0  0  0
  161.5100  205.4920  149.7770 C   0  0  0  0  0  0  0  0  0  0  0  0
  160.9520  202.7440  149.7600 C   0  0  0  0  0  3  0  0  0  0  0  0
  161.7690  205.1850  147.1880 C   0  0  1  0  0  3  0  0  0  0  0  0
  160.7110  205.0000  144.5150 C   0  0  0  0  0  3  0  0  0  0  0  0
  160.9790  203.4440  150.9320 N   0  0  0  0  0  0  0  0  0  0  0  0
  161.5030  203.8800  146.4830 C   0  0  0  0  0  0  0  0  0  0  0  0
  161.2060  203.8750  145.0470 C   0  0  0  0  0  3  0  0  0  0  0  0
  161.2660  205.4910  152.2270 N   0  0  0  0  0  0  0  0  0  0  0  0
  160.8310  204.8420  153.4520 C   0  0  0  0  0  1  0  0  0  0  0  0
  161.8710  206.9500  149.8040 C   0  0  0  0  0  2  0  0  0  0  0  0
  160.4290  206.1880  145.3660 C   0  0  0  0  0  3  0  0  0  0  0  0
  161.2190  203.4260  148.5780 C   0  0  0  0  0  0  0  0  0  0  0  0
  161.2020  202.8890  147.2650 N   0  0  0  0  0  0  0  0  0  0  0  0
  161.7190  206.8790  152.2940 C   0  0  0  0  0  2  0  0  0  0  0  0
  160.8640  206.2560  146.6350 C   0  0  0  0  0  3  0  0  0  0  0  0
  161.2880  207.6350  151.0400 C   0  0  1  0  0  3  0  0  0  0  0  0
  161.2600  204.7860  150.9750 C   0  0  0  0  0  0  0  0  0  0  0  0
  161.7620  209.0090  151.1110 N   0  0  0  0  0  2  0  0  0  0  0  0
  161.2860  211.0710  152.2320 O   0  0  0  0  0  0  0  0  0  0  0  0
  161.9270  210.3310  153.2510 C   0  0  2  0  0  0  0  0  0  0  0  0
  163.3000  210.3290  153.0890 F   0  0  0  0  0  0  0  0  0  0  0  0
  161.0950  209.6760  152.2250 C   0  0  2  0  0  0  0  0  0  0  0  0
  161.3340  210.6310  154.6150 C   0  0  0  0  0  1  0  0  0  0  0  0
  159.7860  209.3020  152.5360 O   0  0  0  0  0  1  0  0  0  0  0  0
  1  2  1  0  0  0  0
  2 11  1  0  0  0  0
  2 18  2  0  0  0  0
  3  6  2  0  0  0  0
  4 16  1  6  0  0  0
  4  1  1  0  0  0  0
  5  8  2  0  0  0  0
  5 12  1  0  0  0  0
  6 18  1  0  0  0  0
  7  4  1  0  0  0  0
  7 14  2  0  0  0  0
  8  7  1  0  0  0  0
  9 15  1  0  0  0  0
  9 10  1  0  0  0  0
 11 17  1  0  0  0  0
 12 16  2  0  0  0  0
 13  1  2  0  0  0  0
 13  3  1  0  0  0  0
 14 13  1  0  0  0  0
 17 19  1  1  0  0  0
 17 15  1  0  0  0  0
 18  9  1  0  0  0  0
 19 23  1  0  0  0  0
 20 21  1  0  0  0  0
 21 24  1  1  0  0  0
 22 21  1  0  0  0  0
 23 20  1  0  0  0  0
 23 25  1  1  0  0  0
 23 21  1  0  0  0  0
M  END
>  <MODEL>
5

>  <REMARK>
 VINA RESULT:      -8.4      3.011      3.604
  Name = 
  2 active torsions:
  status: ('A' for Active; 'I' for Inactive)
    1  A    between atoms: N_6  and  C_15
    2  A    between atoms: N_6  and  C_23
                            x       y       z     vdW  Elec       q    Type
                         _______ _______ _______ _____ _____    ______ ____

>  <TORSDO>
F 2

$$$$
=
 OpenBabel11052422083D

 25 29  0  0  1  0  0  0  0  0999 V2000
  161.5680  206.2940  151.8260 C   0  0  0  0  0  0  0  0  0  0  0  0
  161.7270  207.6680  151.6450 C   0  0  0  0  0  0  0  0  0  0  0  0
  160.8510  206.6210  154.0940 C   0  0  0  0  0  3  0  0  0  0  0  0
  161.8740  205.1530  150.9250 C   0  0  1  0  0  3  0  0  0  0  0  0
  160.7250  202.7050  149.9340 C   0  0  0  0  0  3  0  0  0  0  0  0
  160.9940  207.9670  153.9220 N   0  0  0  0  0  0  0  0  0  0  0  0
  161.4360  204.0160  151.8130 C   0  0  0  0  0  0  0  0  0  0  0  0
  161.1000  202.7180  151.2200 C   0  0  0  0  0  3  0  0  0  0  0  0
  161.5550  209.9350  152.5930 N   0  0  0  0  0  0  0  0  0  0  0  0
  161.0830  210.8370  153.6280 C   0  0  0  0  0  1  0  0  0  0  0  0
  162.2570  208.2350  150.3600 C   0  0  0  0  0  2  0  0  0  0  0  0
  160.6080  203.9700  149.1600 C   0  0  0  0  0  3  0  0  0  0  0  0
  161.1610  205.7820  153.0290 C   0  0  0  0  0  0  0  0  0  0  0  0
  161.0440  204.3690  152.9990 N   0  0  0  0  0  0  0  0  0  0  0  0
  162.1690  210.5050  151.3950 C   0  0  0  0  0  2  0  0  0  0  0  0
  161.0850  205.1290  149.6420 C   0  0  0  0  0  3  0  0  0  0  0  0
  161.7950  209.6800  150.1670 C   0  0  1  0  0  3  0  0  0  0  0  0
  161.4310  208.5110  152.7410 C   0  0  0  0  0  0  0  0  0  0  0  0
  162.4270  210.2460  148.9850 N   0  0  0  0  0  2  0  0  0  0  0  0
  161.5990  211.8890  147.4520 O   0  0  0  0  0  0  0  0  0  0  0  0
  162.7300  212.5430  147.9900 C   0  0  2  0  0  0  0  0  0  0  0  0
  163.9020  212.0850  147.4150 F   0  0  0  0  0  0  0  0  0  0  0  0
  161.9250  211.6030  148.7920 C   0  0  2  0  0  0  0  0  0  0  0  0
  162.4980  214.0360  148.1300 C   0  0  0  0  0  1  0  0  0  0  0  0
  160.9880  212.1010  149.7000 O   0  0  0  0  0  1  0  0  0  0  0  0
  1 13  1  0  0  0  0
  2  1  2  0  0  0  0
  2 18  1  0  0  0  0
  4 16  1  6  0  0  0
  4  7  1  0  0  0  0
  4  1  1  0  0  0  0
  5  8  2  0  0  0  0
  6  3  1  0  0  0  0
  7 14  2  0  0  0  0
  8  7  1  0  0  0  0
  9 18  1  0  0  0  0
  9 10  1  0  0  0  0
 11  2  1  0  0  0  0
 12 16  2  0  0  0  0
 12  5  1  0  0  0  0
 13  3  2  0  0  0  0
 14 13  1  0  0  0  0
 15  9  1  0  0  0  0
 17 19  1  6  0  0  0
 17 11  1  0  0  0  0
 17 15  1  0  0  0  0
 18  6  2  0  0  0  0
 20 21  1  0  0  0  0
 20 23  1  0  0  0  0
 21 24  1  1  0  0  0
 21 23  1  0  0  0  0
 22 21  1  0  0  0  0
 23 19  1  0  0  0  0
 23 25  1  1  0  0  0
M  END
>  <MODEL>
6

>  <REMARK>
 VINA RESULT:      -8.3      2.263      3.045
  Name = 
  2 active torsions:
  status: ('A' for Active; 'I' for Inactive)
    1  A    between atoms: N_6  and  C_15
    2  A    between atoms: N_6  and  C_23
                            x       y       z     vdW  Elec       q    Type
                         _______ _______ _______ _____ _____    ______ ____

>  <TORSDO>
F 2

$$$$
=
 OpenBabel11052422083D

 25 29  0  0  1  0  0  0  0  0999 V2000
  161.1430  204.3290  147.8680 C   0  0  0  0  0  0  0  0  0  0  0  0
  161.1410  205.4310  148.7220 C   0  0  0  0  0  0  0  0  0  0  0  0
  162.0820  205.6390  146.0890 C   0  0  0  0  0  3  0  0  0  0  0  0
  160.6240  202.9500  148.0600 C   0  0  1  0  0  3  0  0  0  0  0  0
  161.3740  200.1950  147.6760 C   0  0  0  0  0  3  0  0  0  0  0  0
  162.0930  206.7210  146.9220 N   0  0  0  0  0  0  0  0  0  0  0  0
  160.9900  202.3620  146.7210 C   0  0  0  0  0  0  0  0  0  0  0  0
  161.1120  200.9090  146.5730 C   0  0  0  0  0  3  0  0  0  0  0  0
  161.6700  207.8120  149.0620 N   0  0  0  0  0  0  0  0  0  0  0  0
  162.3360  209.0310  148.6350 C   0  0  0  0  0  1  0  0  0  0  0  0
  160.5790  205.3480  150.1120 C   0  0  0  0  0  2  0  0  0  0  0  0
  161.5810  200.8660  148.9880 C   0  0  0  0  0  3  0  0  0  0  0  0
  161.5820  204.4360  146.5750 C   0  0  0  0  0  0  0  0  0  0  0  0
  161.5210  203.2000  145.8840 N   0  0  0  0  0  0  0  0  0  0  0  0
  161.0340  207.7880  150.3780 C   0  0  0  0  0  2  0  0  0  0  0  0
  161.2940  202.1670  149.1590 C   0  0  0  0  0  3  0  0  0  0  0  0
  161.2000  206.4130  151.0180 C   0  0  1  0  0  3  0  0  0  0  0  0
  161.6290  206.6550  148.2110 C   0  0  0  0  0  0  0  0  0  0  0  0
  160.5450  206.3960  152.3180 N   0  0  0  0  0  2  0  0  0  0  0  0
  161.9560  206.6700  154.2330 O   0  0  0  0  0  0  0  0  0  0  0  0
  160.8120  207.4080  154.6110 C   0  0  2  0  0  0  0  0  0  0  0  0
  159.7930  206.5780  155.0420 F   0  0  0  0  0  0  0  0  0  0  0  0
  161.2460  207.3190  153.2050 C   0  0  2  0  0  0  0  0  0  0  0  0
  161.1820  208.6290  155.4330 C   0  0  0  0  0  1  0  0  0  0  0  0
  161.9560  208.3780  152.6350 O   0  0  0  0  0  1  0  0  0  0  0  0
  1  4  1  0  0  0  0
  1  2  1  0  0  0  0
  2 11  1  0  0  0  0
  3 13  1  0  0  0  0
  3  6  2  0  0  0  0
  4 16  1  1  0  0  0
  5 12  1  0  0  0  0
  6 18  1  0  0  0  0
  7  4  1  0  0  0  0
  8  7  1  0  0  0  0
  8  5  2  0  0  0  0
  9 15  1  0  0  0  0
 10  9  1  0  0  0  0
 11 17  1  0  0  0  0
 12 16  2  0  0  0  0
 13  1  2  0  0  0  0
 14 13  1  0  0  0  0
 14  7  2  0  0  0  0
 15 17  1  0  0  0  0
 17 19  1  1  0  0  0
 18  2  2  0  0  0  0
 18  9  1  0  0  0  0
 19 23  1  0  0  0  0
 20 21  1  0  0  0  0
 21 22  1  0  0  0  0
 21 24  1  1  0  0  0
 23 25  1  6  0  0  0
 23 20  1  0  0  0  0
 23 21  1  0  0  0  0
M  END
>  <MODEL>
7

>  <REMARK>
 VINA RESULT:      -8.0      3.453      5.402
  Name = 
  2 active torsions:
  status: ('A' for Active; 'I' for Inactive)
    1  A    between atoms: N_6  and  C_15
    2  A    between atoms: N_6  and  C_23
                            x       y       z     vdW  Elec       q    Type
                         _______ _______ _______ _____ _____    ______ ____

>  <TORSDO>
F 2

$$$$
=
 OpenBabel11052422083D

 25 29  0  0  1  0  0  0  0  0999 V2000
  161.4560  204.9290  148.9400 C   0  0  0  0  0  0  0  0  0  0  0  0
  161.4870  205.6960  150.1040 C   0  0  0  0  0  0  0  0  0  0  0  0
  160.9550  202.9440  150.1960 C   0  0  0  0  0  3  0  0  0  0  0  0
  161.7540  205.2880  147.5300 C   0  0  1  0  0  3  0  0  0  0  0  0
  160.7030  204.9850  144.8650 C   0  0  0  0  0  3  0  0  0  0  0  0
  160.9740  203.6910  151.3390 N   0  0  0  0  0  0  0  0  0  0  0  0
  161.5020  203.9530  146.8770 C   0  0  0  0  0  0  0  0  0  0  0  0
  161.2080  203.8870  145.4430 C   0  0  0  0  0  3  0  0  0  0  0  0
  161.2380  205.7910  152.5520 N   0  0  0  0  0  0  0  0  0  0  0  0
  160.8060  205.1880  153.8010 C   0  0  0  0  0  1  0  0  0  0  0  0
  161.8340  207.1570  150.0730 C   0  0  0  0  0  2  0  0  0  0  0  0
  160.4080  206.2030  145.6670 C   0  0  0  0  0  3  0  0  0  0  0  0
  161.2180  203.5800  148.9880 C   0  0  0  0  0  0  0  0  0  0  0  0
  161.2090  202.9910  147.6980 N   0  0  0  0  0  0  0  0  0  0  0  0
  161.6770  207.1850  152.5640 C   0  0  0  0  0  2  0  0  0  0  0  0
  160.8400  206.3260  146.9320 C   0  0  0  0  0  3  0  0  0  0  0  0
  161.2420  207.8850  151.2800 C   0  0  1  0  0  3  0  0  0  0  0  0
  161.2410  205.0360  151.3290 C   0  0  0  0  0  0  0  0  0  0  0  0
  161.7010  209.2660  151.2960 N   0  0  0  0  0  2  0  0  0  0  0  0
  159.7150  210.0450  152.3840 O   0  0  0  0  0  0  0  0  0  0  0  0
  160.4560  211.2410  152.2470 C   0  0  2  0  0  0  0  0  0  0  0  0
  160.3730  211.7450  150.9620 F   0  0  0  0  0  0  0  0  0  0  0  0
  161.1180  209.9390  152.4520 C   0  0  2  0  0  0  0  0  0  0  0  0
  160.2440  212.1670  153.4300 C   0  0  0  0  0  1  0  0  0  0  0  0
  161.5790  209.5940  153.7240 O   0  0  0  0  0  1  0  0  0  0  0  0
  1 13  2  0  0  0  0
  1  2  1  0  0  0  0
  2 18  2  0  0  0  0
  3  6  2  0  0  0  0
  4 16  1  6  0  0  0
  4  1  1  0  0  0  0
  5  8  2  0  0  0  0
  5 12  1  0  0  0  0
  7  4  1  0  0  0  0
  7 14  2  0  0  0  0
  8  7  1  0  0  0  0
  9 15  1  0  0  0  0
  9 10  1  0  0  0  0
 11  2  1  0  0  0  0
 11 17  1  0  0  0  0
 12 16  2  0  0  0  0
 13  3  1  0  0  0  0
 14 13  1  0  0  0  0
 17 19  1  1  0  0  0
 17 15  1  0  0  0  0
 18  6  1  0  0  0  0
 18  9  1  0  0  0  0
 19 23  1  0  0  0  0
 20 23  1  0  0  0  0
 21 20  1  0  0  0  0
 21 23  1  0  0  0  0
 21 24  1  1  0  0  0
 22 21  1  0  0  0  0
 23 25  1  1  0  0  0
M  END
>  <MODEL>
8

>  <REMARK>
 VINA RESULT:      -8.0      2.782      3.259
  Name = 
  2 active torsions:
  status: ('A' for Active; 'I' for Inactive)
    1  A    between atoms: N_6  and  C_15
    2  A    between atoms: N_6  and  C_23
                            x       y       z     vdW  Elec       q    Type
                         _______ _______ _______ _____ _____    ______ ____

>  <TORSDO>
F 2

$$$$
=
 OpenBabel11052422083D

 25 29  0  0  1  0  0  0  0  0999 V2000
  161.4460  205.9590  150.6080 C   0  0  0  0  0  0  0  0  0  0  0  0
  161.3420  206.9280  151.6050 C   0  0  0  0  0  0  0  0  0  0  0  0
  161.0090  204.2070  152.1910 C   0  0  0  0  0  3  0  0  0  0  0  0
  161.8120  206.0740  149.1730 C   0  0  1  0  0  3  0  0  0  0  0  0
  160.9670  205.1950  146.5630 C   0  0  0  0  0  3  0  0  0  0  0  0
  160.8950  205.1510  153.1700 N   0  0  0  0  0  0  0  0  0  0  0  0
  161.7020  204.6250  148.7740 C   0  0  0  0  0  0  0  0  0  0  0  0
  161.5110  204.2700  147.3650 C   0  0  0  0  0  3  0  0  0  0  0  0
  160.9230  207.4540  153.9740 N   0  0  0  0  0  0  0  0  0  0  0  0
  160.4540  207.0590  155.2910 C   0  0  0  0  0  1  0  0  0  0  0  0
  161.5830  208.3820  151.3150 C   0  0  0  0  0  2  0  0  0  0  0  0
  160.5310  206.5120  147.1020 C   0  0  0  0  0  3  0  0  0  0  0  0
  161.3050  204.6270  150.9000 C   0  0  0  0  0  0  0  0  0  0  0  0
  161.4260  203.8110  149.7460 N   0  0  0  0  0  0  0  0  0  0  0  0
  161.2570  208.8580  153.7440 C   0  0  0  0  0  2  0  0  0  0  0  0
  160.8660  206.9030  148.3420 C   0  0  0  0  0  3  0  0  0  0  0  0
  160.8590  209.2690  152.3290 C   0  0  1  0  0  3  0  0  0  0  0  0
  161.0640  206.4880  152.9190 C   0  0  0  0  0  0  0  0  0  0  0  0
  161.2150  210.6630  152.1060 N   0  0  0  0  0  2  0  0  0  0  0  0
  158.9320  211.3080  152.4310 O   0  0  0  0  0  0  0  0  0  0  0  0
  159.5300  212.5380  152.0750 C   0  0  2  0  0  0  0  0  0  0  0  0
  159.7300  212.6290  150.7100 F   0  0  0  0  0  0  0  0  0  0  0  0
  160.2680  211.5070  152.8280 C   0  0  2  0  0  0  0  0  0  0  0  0
  158.9010  213.7010  152.8190 C   0  0  0  0  0  1  0  0  0  0  0  0
  160.4140  211.6370  154.2110 O   0  0  0  0  0  1  0  0  0  0  0  0
  1 13  2  0  0  0  0
  1  2  1  0  0  0  0
  2 18  2  0  0  0  0
  3  6  2  0  0  0  0
  4 16  1  6  0  0  0
  4  1  1  0  0  0  0
  5 12  1  0  0  0  0
  5  8  2  0  0  0  0
  7  4  1  0  0  0  0
  7 14  2  0  0  0  0
  8  7  1  0  0  0  0
  9 10  1  0  0  0  0
 11  2  1  0  0  0  0
 11 17  1  0  0  0  0
 12 16  2  0  0  0  0
 13  3  1  0  0  0  0
 14 13  1  0  0  0  0
 15  9  1  0  0  0  0
 17 19  1  6  0  0  0
 17 15  1  0  0  0  0
 18  6  1  0  0  0  0
 18  9  1  0  0  0  0
 19 23  1  0  0  0  0
 20 23  1  0  0  0  0
 21 20  1  0  0  0  0
 21 24  1  1  0  0  0
 21 23  1  0  0  0  0
 22 21  1  0  0  0  0
 23 25  1  1  0  0  0
M  END
>  <MODEL>
9

>  <REMARK>
 VINA RESULT:      -8.0      2.860      3.390
  Name = 
  2 active torsions:
  status: ('A' for Active; 'I' for Inactive)
    1  A    between atoms: N_6  and  C_15
    2  A    between atoms: N_6  and  C_23
                            x       y       z     vdW  Elec       q    Type
                         _______ _______ _______ _____ _____    ______ ____

>  <TORSDO>
F 2

$$$$
