=
 OpenBabel11062410443D

 32 36  0  0  1  0  0  0  0  0999 V2000
  161.5850  207.4850  150.9050 C   0  0  0  0  0  0  0  0  0  0  0  0
  160.9430  202.6640  150.8440 C   0  0  0  0  0  3  0  0  0  0  0  0
  160.6870  202.6700  152.2150 C   0  0  0  0  0  3  0  0  0  0  0  0
  161.3570  208.7480  153.0440 C   0  0  0  0  0  0  0  0  0  0  0  0
  161.1020  208.7240  154.4170 C   0  0  0  0  0  0  0  0  0  0  0  0
  161.5180  208.6050  148.7200 N   0  0  0  0  0  0  0  0  0  0  0  0
  161.7910  206.2480  148.8350 O   0  0  0  0  0  0  0  0  0  0  0  0
  160.5870  207.6680  156.4230 C   0  0  0  0  0  0  0  0  0  0  0  0
  161.2320  203.8590  150.1830 C   0  0  0  0  0  3  0  0  0  0  0  0
  161.5560  206.2630  150.2140 C   0  0  0  0  0  0  0  0  0  0  0  0
  161.2660  205.0720  150.8860 C   0  0  0  0  0  0  0  0  0  0  0  0
  161.0390  206.3060  152.9860 C   0  0  0  0  0  0  0  0  0  0  0  0
  160.7490  209.2970  156.7310 S   0  0  0  0  0  0  0  0  0  0  0  0
  162.1500  207.4250  148.1100 C   0  0  1  0  0  3  0  0  0  0  0  0
  161.1080  209.8420  155.1950 N   0  0  0  0  0  2  0  0  0  0  0  0
  160.7180  203.8710  152.9260 C   0  0  0  0  0  3  0  0  0  0  0  0
  161.0060  205.0860  152.2760 C   0  0  0  0  0  0  0  0  0  0  0  0
  160.7830  206.3140  154.3700 C   0  0  0  0  0  3  0  0  0  0  0  0
  161.9810  208.6970  150.1070 C   0  0  0  0  0  2  0  0  0  0  0  0
  161.6250  209.9740  152.4430 O   0  0  0  0  0  1  0  0  0  0  0  0
  160.3100  206.7680  157.2590 O   0  0  0  0  0  0  0  0  0  0  0  0
  161.3330  207.5300  152.3020 C   0  0  0  0  0  0  0  0  0  0  0  0
  160.8170  207.5110  155.0700 C   0  0  0  0  0  0  0  0  0  0  0  0
  161.9950  206.2050  145.9820 N   0  0  0  0  0  0  0  0  0  0  0  0
  161.7050  207.2470  146.6830 C   0  0  0  0  0  3  0  0  0  0  0  0
  162.7620  205.1010  146.5030 C   0  0  0  0  0  2  0  0  0  0  0  0
  162.6870  203.9330  145.5400 C   0  0  0  0  0  2  0  0  0  0  0  0
  161.3640  203.2520  145.6560 C   0  0  0  0  0  0  0  0  0  0  0  0
  161.0680  202.4100  146.8480 C   0  0  0  0  0  1  0  0  0  0  0  0
  160.5330  203.3630  144.7690 O   0  0  0  0  0  0  0  0  0  0  0  0
  162.0540  210.9570  149.0460 C   0  0  0  0  0  1  0  0  0  0  0  0
  162.0270  209.8030  148.0620 C   0  0  0  0  0  2  0  0  0  0  0  0
  1 22  1  0  0  0  0
  2  3  1  0  0  0  0
  3 16  2  0  0  0  0
  4  5  1  0  0  0  0
  5 23  2  0  0  0  0
  5 15  1  0  0  0  0
  6 19  1  0  0  0  0
  7 10  1  0  0  0  0
  8 13  1  0  0  0  0
  8 21  2  0  0  0  0
  9  2  2  0  0  0  0
  9 11  1  0  0  0  0
 10 11  1  0  0  0  0
 10  1  2  0  0  0  0
 11 17  2  0  0  0  0
 12 18  2  0  0  0  0
 14 25  1  6  0  0  0
 14  6  1  0  0  0  0
 14  7  1  0  0  0  0
 15 13  1  0  0  0  0
 17 16  1  0  0  0  0
 17 12  1  0  0  0  0
 18 23  1  0  0  0  0
 19  1  1  0  0  0  0
 20  4  1  0  0  0  0
 22 12  1  0  0  0  0
 22  4  2  0  0  0  0
 23  8  1  0  0  0  0
 24 26  1  0  0  0  0
 24 25  2  0  0  0  0
 27 28  1  0  0  0  0
 27 26  1  0  0  0  0
 28 29  1  0  0  0  0
 30 28  2  0  0  0  0
 32  6  1  0  0  0  0
 32 31  1  0  0  0  0
M  END
>  <MODEL>
1

>  <REMARK>
 VINA RESULT:      -8.7      0.000      0.000
  Name = 
  5 active torsions:
  status: ('A' for Active; 'I' for Inactive)
    1  A    between atoms: C_1  and  C_10
    2  A    between atoms: N_2  and  C_24
    3  A    between atoms: N_8  and  C_23
    4  A    between atoms: C_10  and  C_24
    5  A    between atoms: C_12  and  C_21
                            x       y       z     vdW  Elec       q    Type
                         _______ _______ _______ _____ _____    ______ ____

>  <TORSDO>
F 5

$$$$
=
 OpenBabel11062410443D

 32 36  0  0  1  0  0  0  0  0999 V2000
  161.4210  207.3550  149.8810 C   0  0  0  0  0  0  0  0  0  0  0  0
  160.9270  203.8970  153.2660 C   0  0  0  0  0  3  0  0  0  0  0  0
  160.8870  202.9170  152.2730 C   0  0  0  0  0  3  0  0  0  0  0  0
  161.4860  206.7370  147.4650 C   0  0  0  0  0  0  0  0  0  0  0  0
  161.4380  205.7360  146.4930 C   0  0  0  0  0  0  0  0  0  0  0  0
  162.1980  209.5420  150.6850 N   0  0  0  0  0  0  0  0  0  0  0  0
  161.3690  207.9380  152.2300 O   0  0  0  0  0  0  0  0  0  0  0  0
  161.2650  203.5300  145.7790 C   0  0  0  0  0  0  0  0  0  0  0  0
  161.0670  205.2400  152.9130 C   0  0  0  0  0  3  0  0  0  0  0  0
  161.3100  206.9650  151.2250 C   0  0  0  0  0  0  0  0  0  0  0  0
  161.1690  205.6170  151.5660 C   0  0  0  0  0  0  0  0  0  0  0  0
  161.2350  205.0050  149.1990 C   0  0  0  0  0  0  0  0  0  0  0  0
  161.4250  204.4920  144.4290 S   0  0  0  0  0  0  0  0  0  0  0  0
  161.4510  209.3330  151.9350 C   0  0  1  0  0  3  0  0  0  0  0  0
  161.5290  205.9890  145.1580 N   0  0  0  0  0  2  0  0  0  0  0  0
  160.9870  203.2790  150.9290 C   0  0  0  0  0  3  0  0  0  0  0  0
  161.1300  204.6290  150.5560 C   0  0  0  0  0  0  0  0  0  0  0  0
  161.1920  204.0180  148.1960 C   0  0  0  0  0  3  0  0  0  0  0  0
  161.4910  208.8340  149.6160 C   0  0  0  0  0  2  0  0  0  0  0  0
  161.6410  208.0560  147.0490 O   0  0  0  0  0  1  0  0  0  0  0  0
  161.1460  202.2760  145.8010 O   0  0  0  0  0  0  0  0  0  0  0  0
  161.3810  206.3850  148.8440 C   0  0  0  0  0  0  0  0  0  0  0  0
  161.2920  204.3860  146.8630 C   0  0  0  0  0  0  0  0  0  0  0  0
  161.4950  210.4150  154.1420 N   0  0  0  0  0  0  0  0  0  0  0  0
  162.1290  210.0140  153.0940 C   0  0  0  0  0  3  0  0  0  0  0  0
  160.0740  210.2380  154.3110 C   0  0  0  0  0  2  0  0  0  0  0  0
  159.7660  209.9840  155.7730 C   0  0  0  0  0  2  0  0  0  0  0  0
  160.4610  208.7490  156.2410 C   0  0  0  0  0  0  0  0  0  0  0  0
  160.0260  207.4180  155.7330 C   0  0  0  0  0  1  0  0  0  0  0  0
  161.3690  208.8220  157.0530 O   0  0  0  0  0  0  0  0  0  0  0  0
  162.0740  211.0980  148.8190 C   0  0  0  0  0  1  0  0  0  0  0  0
  162.1290  210.9530  150.3270 C   0  0  0  0  0  2  0  0  0  0  0  0
  1 10  1  0  0  0  0
  3  2  1  0  0  0  0
  4 22  1  0  0  0  0
  5 23  1  0  0  0  0
  5  4  2  0  0  0  0
  6 14  1  0  0  0  0
  8 21  2  0  0  0  0
  8 23  1  0  0  0  0
  9  2  2  0  0  0  0
 10 11  2  0  0  0  0
 10  7  1  0  0  0  0
 11  9  1  0  0  0  0
 12 17  2  0  0  0  0
 13 15  1  0  0  0  0
 13  8  1  0  0  0  0
 14  7  1  0  0  0  0
 14 25  1  1  0  0  0
 15  5  1  0  0  0  0
 16  3  2  0  0  0  0
 17 16  1  0  0  0  0
 17 11  1  0  0  0  0
 18 12  1  0  0  0  0
 19  1  1  0  0  0  0
 19  6  1  0  0  0  0
 20  4  1  0  0  0  0
 22 12  1  0  0  0  0
 22  1  2  0  0  0  0
 23 18  2  0  0  0  0
 24 26  1  0  0  0  0
 25 24  2  0  0  0  0
 26 27  1  0  0  0  0
 27 28  1  0  0  0  0
 28 30  2  0  0  0  0
 29 28  1  0  0  0  0
 31 32  1  0  0  0  0
 32  6  1  0  0  0  0
M  END
>  <MODEL>
2

>  <REMARK>
 VINA RESULT:      -8.7      2.715      7.384
  Name = 
  5 active torsions:
  status: ('A' for Active; 'I' for Inactive)
    1  A    between atoms: C_1  and  C_10
    2  A    between atoms: N_2  and  C_24
    3  A    between atoms: N_8  and  C_23
    4  A    between atoms: C_10  and  C_24
    5  A    between atoms: C_12  and  C_21
                            x       y       z     vdW  Elec       q    Type
                         _______ _______ _______ _____ _____    ______ ____

>  <TORSDO>
F 5

$$$$
=
 OpenBabel11062410443D

 32 36  0  0  1  0  0  0  0  0999 V2000
  161.4040  207.7450  152.9010 C   0  0  0  0  0  0  0  0  0  0  0  0
  162.1140  210.9400  149.3040 C   0  0  0  0  0  3  0  0  0  0  0  0
  162.0380  209.9130  148.3620 C   0  0  0  0  0  3  0  0  0  0  0  0
  161.1040  205.3230  152.3800 C   0  0  0  0  0  0  0  0  0  0  0  0
  161.0370  204.3150  151.4170 C   0  0  0  0  0  0  0  0  0  0  0  0
  160.7610  208.6960  155.0720 N   0  0  0  0  0  0  0  0  0  0  0  0
  161.6850  210.0980  153.3910 O   0  0  0  0  0  0  0  0  0  0  0  0
  161.0870  203.5080  149.2360 C   0  0  0  0  0  0  0  0  0  0  0  0
  161.9770  210.6510  150.6620 C   0  0  0  0  0  3  0  0  0  0  0  0
  161.6270  209.0570  152.4570 C   0  0  0  0  0  0  0  0  0  0  0  0
  161.7630  209.3340  151.0940 C   0  0  0  0  0  0  0  0  0  0  0  0
  161.4670  206.9620  150.5760 C   0  0  0  0  0  0  0  0  0  0  0  0
  160.8310  202.2140  150.2540 S   0  0  0  0  0  0  0  0  0  0  0  0
  161.6130  209.8640  154.7980 C   0  0  1  0  0  3  0  0  0  0  0  0
  160.8310  203.0040  151.7240 N   0  0  0  0  0  2  0  0  0  0  0  0
  161.8250  208.5980  148.7790 C   0  0  0  0  0  3  0  0  0  0  0  0
  161.6840  208.2890  150.1460 C   0  0  0  0  0  0  0  0  0  0  0  0
  161.3920  205.9240  149.6290 C   0  0  0  0  0  3  0  0  0  0  0  0
  161.3490  207.5410  154.3910 C   0  0  0  0  0  2  0  0  0  0  0  0
  160.9460  204.9720  153.7170 O   0  0  0  0  0  1  0  0  0  0  0  0
  161.1750  203.4720  147.9810 O   0  0  0  0  0  0  0  0  0  0  0  0
  161.3250  206.6730  151.9720 C   0  0  0  0  0  0  0  0  0  0  0  0
  161.1810  204.6200  150.0500 C   0  0  0  0  0  0  0  0  0  0  0  0
  159.9540  211.6560  155.0830 N   0  0  0  0  0  0  0  0  0  0  0  0
  161.0600  211.1050  155.4490 C   0  0  0  0  0  3  0  0  0  0  0  0
  159.1320  211.1290  154.0230 C   0  0  0  0  0  2  0  0  0  0  0  0
  158.0960  212.1620  153.6250 C   0  0  0  0  0  2  0  0  0  0  0  0
  158.7580  213.3430  152.9970 C   0  0  0  0  0  0  0  0  0  0  0  0
  159.5890  213.1620  151.7740 C   0  0  0  0  0  1  0  0  0  0  0  0
  158.6390  214.4530  153.4920 O   0  0  0  0  0  0  0  0  0  0  0  0
  160.0960  207.0910  156.7750 C   0  0  0  0  0  1  0  0  0  0  0  0
  160.8340  208.3860  156.4940 C   0  0  0  0  0  2  0  0  0  0  0  0
  1 19  1  0  0  0  0
  2  9  2  0  0  0  0
  3 16  2  0  0  0  0
  3  2  1  0  0  0  0
  4 20  1  0  0  0  0
  5 15  1  0  0  0  0
  5  4  2  0  0  0  0
  6 32  1  0  0  0  0
  7 14  1  0  0  0  0
  8 23  1  0  0  0  0
  8 13  1  0  0  0  0
  9 11  1  0  0  0  0
 10  1  1  0  0  0  0
 10  7  1  0  0  0  0
 11 10  2  0  0  0  0
 12 22  1  0  0  0  0
 13 15  1  0  0  0  0
 14  6  1  0  0  0  0
 14 25  1  1  0  0  0
 16 17  1  0  0  0  0
 17 12  2  0  0  0  0
 17 11  1  0  0  0  0
 18 23  2  0  0  0  0
 18 12  1  0  0  0  0
 19  6  1  0  0  0  0
 21  8  2  0  0  0  0
 22  4  1  0  0  0  0
 22  1  2  0  0  0  0
 23  5  1  0  0  0  0
 24 25  2  0  0  0  0
 26 24  1  0  0  0  0
 27 26  1  0  0  0  0
 28 30  2  0  0  0  0
 28 27  1  0  0  0  0
 29 28  1  0  0  0  0
 32 31  1  0  0  0  0
M  END
>  <MODEL>
3

>  <REMARK>
 VINA RESULT:      -8.6      3.035      7.918
  Name = 
  5 active torsions:
  status: ('A' for Active; 'I' for Inactive)
    1  A    between atoms: C_1  and  C_10
    2  A    between atoms: N_2  and  C_24
    3  A    between atoms: N_8  and  C_23
    4  A    between atoms: C_10  and  C_24
    5  A    between atoms: C_12  and  C_21
                            x       y       z     vdW  Elec       q    Type
                         _______ _______ _______ _____ _____    ______ ____

>  <TORSDO>
F 5

$$$$
=
 OpenBabel11062410443D

 32 36  0  0  1  0  0  0  0  0999 V2000
  161.1950  206.6750  151.4240 C   0  0  0  0  0  0  0  0  0  0  0  0
  162.1260  210.4180  148.4620 C   0  0  0  0  0  3  0  0  0  0  0  0
  162.1510  211.2880  149.5530 C   0  0  0  0  0  3  0  0  0  0  0  0
  160.9900  207.0480  153.8830 C   0  0  0  0  0  0  0  0  0  0  0  0
  161.0160  207.9420  154.9550 C   0  0  0  0  0  0  0  0  0  0  0  0
  161.5550  204.4380  150.4750 N   0  0  0  0  0  0  0  0  0  0  0  0
  161.4080  206.3250  149.0390 O   0  0  0  0  0  0  0  0  0  0  0  0
  161.2540  210.0510  155.9060 C   0  0  0  0  0  0  0  0  0  0  0  0
  161.8790  209.0590  148.6610 C   0  0  0  0  0  3  0  0  0  0  0  0
  161.4110  207.1920  150.1380 C   0  0  0  0  0  0  0  0  0  0  0  0
  161.6570  208.5560  149.9510 C   0  0  0  0  0  0  0  0  0  0  0  0
  161.4590  208.9270  152.3600 C   0  0  0  0  0  0  0  0  0  0  0  0
  160.9460  208.9690  157.1340 S   0  0  0  0  0  0  0  0  0  0  0  0
  161.1040  204.9360  149.1660 C   0  0  1  0  0  3  0  0  0  0  0  0
  160.8140  207.5620  156.2470 N   0  0  0  0  0  2  0  0  0  0  0  0
  161.9300  210.8000  150.8420 C   0  0  0  0  0  3  0  0  0  0  0  0
  161.6810  209.4310  151.0600 C   0  0  0  0  0  0  0  0  0  0  0  0
  161.4820  209.8040  153.4610 C   0  0  0  0  0  3  0  0  0  0  0  0
  160.8640  205.2100  151.5110 C   0  0  0  0  0  2  0  0  0  0  0  0
  160.7520  205.7030  154.1490 O   0  0  0  0  0  1  0  0  0  0  0  0
  161.4420  211.2900  156.0230 O   0  0  0  0  0  0  0  0  0  0  0  0
  161.2090  207.5310  152.5580 C   0  0  0  0  0  0  0  0  0  0  0  0
  161.2610  209.3110  154.7380 C   0  0  0  0  0  0  0  0  0  0  0  0
  162.0280  204.7450  146.8960 N   0  0  0  0  0  0  0  0  0  0  0  0
  161.7890  204.2050  148.0410 C   0  0  0  0  0  3  0  0  0  0  0  0
  161.6730  206.1070  146.5840 C   0  0  0  0  0  2  0  0  0  0  0  0
  160.4930  206.1190  145.6340 C   0  0  0  0  0  2  0  0  0  0  0  0
  160.7400  205.1900  144.4920 C   0  0  0  0  0  0  0  0  0  0  0  0
  160.0990  203.8460  144.4800 C   0  0  0  0  0  1  0  0  0  0  0  0
  161.4810  205.5180  143.5790 O   0  0  0  0  0  0  0  0  0  0  0  0
  160.9040  202.7620  152.1140 C   0  0  0  0  0  1  0  0  0  0  0  0
  161.0910  203.0660  150.6400 C   0  0  0  0  0  2  0  0  0  0  0  0
  1 19  1  0  0  0  0
  1 22  1  0  0  0  0
  2  9  2  0  0  0  0
  2  3  1  0  0  0  0
  3 16  2  0  0  0  0
  4 20  1  0  0  0  0
  4  5  1  0  0  0  0
  5 15  1  0  0  0  0
  6 32  1  0  0  0  0
  6 19  1  0  0  0  0
  7 14  1  0  0  0  0
  7 10  1  0  0  0  0
  8 21  2  0  0  0  0
  8 13  1  0  0  0  0
  9 11  1  0  0  0  0
 10  1  2  0  0  0  0
 11 10  1  0  0  0  0
 11 17  2  0  0  0  0
 12 22  1  0  0  0  0
 12 18  2  0  0  0  0
 14 25  1  6  0  0  0
 14  6  1  0  0  0  0
 15 13  1  0  0  0  0
 16 17  1  0  0  0  0
 17 12  1  0  0  0  0
 18 23  1  0  0  0  0
 22  4  2  0  0  0  0
 23  5  2  0  0  0  0
 23  8  1  0  0  0  0
 24 25  2  0  0  0  0
 26 24  1  0  0  0  0
 27 26  1  0  0  0  0
 28 27  1  0  0  0  0
 29 28  1  0  0  0  0
 30 28  2  0  0  0  0
 32 31  1  0  0  0  0
M  END
>  <MODEL>
4

>  <REMARK>
 VINA RESULT:      -8.3      1.768      4.257
  Name = 
  5 active torsions:
  status: ('A' for Active; 'I' for Inactive)
    1  A    between atoms: C_1  and  C_10
    2  A    between atoms: N_2  and  C_24
    3  A    between atoms: N_8  and  C_23
    4  A    between atoms: C_10  and  C_24
    5  A    between atoms: C_12  and  C_21
                            x       y       z     vdW  Elec       q    Type
                         _______ _______ _______ _____ _____    ______ ____

>  <TORSDO>
F 5

$$$$
=
 OpenBabel11062410443D

 32 36  0  0  1  0  0  0  0  0999 V2000
  161.4640  207.3130  149.8920 C   0  0  0  0  0  0  0  0  0  0  0  0
  160.8310  203.9560  153.3530 C   0  0  0  0  0  3  0  0  0  0  0  0
  160.7730  202.9530  152.3850 C   0  0  0  0  0  3  0  0  0  0  0  0
  161.5360  206.6350  147.4920 C   0  0  0  0  0  0  0  0  0  0  0  0
  161.4680  205.6120  146.5440 C   0  0  0  0  0  0  0  0  0  0  0  0
  162.2970  209.4950  150.6510 N   0  0  0  0  0  0  0  0  0  0  0  0
  161.4040  207.9550  152.2240 O   0  0  0  0  0  0  0  0  0  0  0  0
  161.2380  203.3940  145.8820 C   0  0  0  0  0  0  0  0  0  0  0  0
  161.0150  205.2850  152.9700 C   0  0  0  0  0  3  0  0  0  0  0  0
  161.3270  206.9600  151.2430 C   0  0  0  0  0  0  0  0  0  0  0  0
  161.1430  205.6250  151.6150 C   0  0  0  0  0  0  0  0  0  0  0  0
  161.2150  204.9540  149.2650 C   0  0  0  0  0  0  0  0  0  0  0  0
  161.4400  204.3180  144.5110 S   0  0  0  0  0  0  0  0  0  0  0  0
  161.5310  209.3400  151.8970 C   0  0  1  0  0  3  0  0  0  0  0  0
  161.5820  205.8290  145.2040 N   0  0  0  0  0  2  0  0  0  0  0  0
  160.8980  203.2790  151.0330 C   0  0  0  0  0  3  0  0  0  0  0  0
  161.0850  204.6150  150.6290 C   0  0  0  0  0  0  0  0  0  0  0  0
  161.1530  203.9440  148.2860 C   0  0  0  0  0  3  0  0  0  0  0  0
  161.5810  208.7820  149.5910 C   0  0  0  0  0  2  0  0  0  0  0  0
  161.7340  207.9370  147.0460 O   0  0  0  0  0  1  0  0  0  0  0  0
  161.0810  202.1460  145.9330 O   0  0  0  0  0  0  0  0  0  0  0  0
  161.4060  206.3200  148.8770 C   0  0  0  0  0  0  0  0  0  0  0  0
  161.2780  204.2760  146.9450 C   0  0  0  0  0  0  0  0  0  0  0  0
  161.5760  210.6440  153.9800 N   0  0  0  0  0  0  0  0  0  0  0  0
  162.2170  210.0290  153.0470 C   0  0  0  0  0  3  0  0  0  0  0  0
  160.1370  210.7200  154.0210 C   0  0  0  0  0  2  0  0  0  0  0  0
  159.7130  212.1460  154.3080 C   0  0  0  0  0  2  0  0  0  0  0  0
  158.9480  212.7010  153.1530 C   0  0  0  0  0  0  0  0  0  0  0  0
  159.6340  212.9230  151.8500 C   0  0  0  0  0  1  0  0  0  0  0  0
  157.7690  212.9930  153.2770 O   0  0  0  0  0  0  0  0  0  0  0  0
  161.9570  211.0130  148.7800 C   0  0  0  0  0  1  0  0  0  0  0  0
  162.2740  210.8990  150.2580 C   0  0  0  0  0  2  0  0  0  0  0  0
  1 10  1  0  0  0  0
  3  2  1  0  0  0  0
  4 22  1  0  0  0  0
  5 23  1  0  0  0  0
  5  4  2  0  0  0  0
  6 14  1  0  0  0  0
  8 21  2  0  0  0  0
  8 23  1  0  0  0  0
  9  2  2  0  0  0  0
 10 11  2  0  0  0  0
 10  7  1  0  0  0  0
 11  9  1  0  0  0  0
 12 17  2  0  0  0  0
 13 15  1  0  0  0  0
 13  8  1  0  0  0  0
 14  7  1  0  0  0  0
 14 25  1  1  0  0  0
 15  5  1  0  0  0  0
 16  3  2  0  0  0  0
 17 16  1  0  0  0  0
 17 11  1  0  0  0  0
 18 12  1  0  0  0  0
 19  1  1  0  0  0  0
 19  6  1  0  0  0  0
 20  4  1  0  0  0  0
 22 12  1  0  0  0  0
 22  1  2  0  0  0  0
 23 18  2  0  0  0  0
 24 26  1  0  0  0  0
 25 24  2  0  0  0  0
 26 27  1  0  0  0  0
 28 30  2  0  0  0  0
 28 27  1  0  0  0  0
 29 28  1  0  0  0  0
 31 32  1  0  0  0  0
 32  6  1  0  0  0  0
M  END
>  <MODEL>
5

>  <REMARK>
 VINA RESULT:      -8.2      3.072      7.447
  Name = 
  5 active torsions:
  status: ('A' for Active; 'I' for Inactive)
    1  A    between atoms: C_1  and  C_10
    2  A    between atoms: N_2  and  C_24
    3  A    between atoms: N_8  and  C_23
    4  A    between atoms: C_10  and  C_24
    5  A    between atoms: C_12  and  C_21
                            x       y       z     vdW  Elec       q    Type
                         _______ _______ _______ _____ _____    ______ ____

>  <TORSDO>
F 5

$$$$
=
 OpenBabel11062410443D

 32 36  0  0  1  0  0  0  0  0999 V2000
  161.4610  207.2770  149.8980 C   0  0  0  0  0  0  0  0  0  0  0  0
  160.8310  203.7030  153.1360 C   0  0  0  0  0  3  0  0  0  0  0  0
  160.7940  202.7620  152.1060 C   0  0  0  0  0  3  0  0  0  0  0  0
  161.5660  206.7510  147.4610 C   0  0  0  0  0  0  0  0  0  0  0  0
  161.5190  205.7880  146.4510 C   0  0  0  0  0  0  0  0  0  0  0  0
  162.2620  209.4160  150.8010 N   0  0  0  0  0  0  0  0  0  0  0  0
  161.3700  207.7710  152.2650 O   0  0  0  0  0  0  0  0  0  0  0  0
  161.3210  203.6150  145.6490 C   0  0  0  0  0  0  0  0  0  0  0  0
  161.0040  205.0560  152.8380 C   0  0  0  0  0  3  0  0  0  0  0  0
  161.3140  206.8390  151.2230 C   0  0  0  0  0  0  0  0  0  0  0  0
  161.1420  205.4810  151.5090 C   0  0  0  0  0  0  0  0  0  0  0  0
  161.2460  204.9590  149.1220 C   0  0  0  0  0  0  0  0  0  0  0  0
  161.5260  204.6240  144.3400 S   0  0  0  0  0  0  0  0  0  0  0  0
  161.4850  209.1750  152.0260 C   0  0  1  0  0  3  0  0  0  0  0  0
  161.6440  206.0900  145.1280 N   0  0  0  0  0  2  0  0  0  0  0  0
  160.9300  203.1730  150.7790 C   0  0  0  0  0  3  0  0  0  0  0  0
  161.1060  204.5340  150.4610 C   0  0  0  0  0  0  0  0  0  0  0  0
  161.2060  204.0120  148.0810 C   0  0  0  0  0  3  0  0  0  0  0  0
  161.5650  208.7630  149.6900 C   0  0  0  0  0  2  0  0  0  0  0  0
  161.7540  208.0810  147.0990 O   0  0  0  0  0  1  0  0  0  0  0  0
  161.1780  202.3640  145.6210 O   0  0  0  0  0  0  0  0  0  0  0  0
  161.4250  206.3490  148.8230 C   0  0  0  0  0  0  0  0  0  0  0  0
  161.3400  204.4290  146.7660 C   0  0  0  0  0  0  0  0  0  0  0  0
  161.5880  210.7030  153.9480 N   0  0  0  0  0  0  0  0  0  0  0  0
  162.1510  209.7980  153.2240 C   0  0  0  0  0  3  0  0  0  0  0  0
  160.2590  211.1980  153.6890 C   0  0  0  0  0  2  0  0  0  0  0  0
  159.7580  211.9620  154.8990 C   0  0  0  0  0  2  0  0  0  0  0  0
  158.9950  211.0530  155.8040 C   0  0  0  0  0  0  0  0  0  0  0  0
  159.7050  210.3210  156.8890 C   0  0  0  0  0  1  0  0  0  0  0  0
  157.7950  210.8900  155.6450 O   0  0  0  0  0  0  0  0  0  0  0  0
  162.0630  211.0420  149.0020 C   0  0  0  0  0  1  0  0  0  0  0  0
  162.2270  210.8410  150.4960 C   0  0  0  0  0  2  0  0  0  0  0  0
  1 10  1  0  0  0  0
  3  2  1  0  0  0  0
  4 22  1  0  0  0  0
  5 23  1  0  0  0  0
  5  4  2  0  0  0  0
  6 14  1  0  0  0  0
  8 23  1  0  0  0  0
  9  2  2  0  0  0  0
 10 11  2  0  0  0  0
 10  7  1  0  0  0  0
 11  9  1  0  0  0  0
 12 17  2  0  0  0  0
 13 15  1  0  0  0  0
 13  8  1  0  0  0  0
 14  7  1  0  0  0  0
 14 25  1  1  0  0  0
 15  5  1  0  0  0  0
 16  3  2  0  0  0  0
 17 16  1  0  0  0  0
 17 11  1  0  0  0  0
 18 12  1  0  0  0  0
 19  1  1  0  0  0  0
 19  6  1  0  0  0  0
 20  4  1  0  0  0  0
 21  8  2  0  0  0  0
 22 12  1  0  0  0  0
 22  1  2  0  0  0  0
 23 18  2  0  0  0  0
 25 24  2  0  0  0  0
 26 24  1  0  0  0  0
 26 27  1  0  0  0  0
 27 28  1  0  0  0  0
 28 29  1  0  0  0  0
 30 28  2  0  0  0  0
 31 32  1  0  0  0  0
 32  6  1  0  0  0  0
M  END
>  <MODEL>
6

>  <REMARK>
 VINA RESULT:      -8.2      2.993      7.609
  Name = 
  5 active torsions:
  status: ('A' for Active; 'I' for Inactive)
    1  A    between atoms: C_1  and  C_10
    2  A    between atoms: N_2  and  C_24
    3  A    between atoms: N_8  and  C_23
    4  A    between atoms: C_10  and  C_24
    5  A    between atoms: C_12  and  C_21
                            x       y       z     vdW  Elec       q    Type
                         _______ _______ _______ _____ _____    ______ ____

>  <TORSDO>
F 5

$$$$
=
 OpenBabel11062410443D

 32 36  0  0  1  0  0  0  0  0999 V2000
  161.1570  205.7100  148.2160 C   0  0  0  0  0  0  0  0  0  0  0  0
  160.7740  201.3580  150.3530 C   0  0  0  0  0  3  0  0  0  0  0  0
  160.8610  201.9560  151.6100 C   0  0  0  0  0  3  0  0  0  0  0  0
  161.3930  207.7680  149.6070 C   0  0  0  0  0  0  0  0  0  0  0  0
  161.4830  208.3390  150.8780 C   0  0  0  0  0  0  0  0  0  0  0  0
  160.5000  205.8080  145.8520 N   0  0  0  0  0  0  0  0  0  0  0  0
  160.9160  203.7070  146.8790 O   0  0  0  0  0  0  0  0  0  0  0  0
  161.5310  208.2580  153.2010 C   0  0  0  0  0  0  0  0  0  0  0  0
  160.8290  202.1450  149.2010 C   0  0  0  0  0  3  0  0  0  0  0  0
  161.0240  204.3150  148.1360 C   0  0  0  0  0  0  0  0  0  0  0  0
  160.9700  203.5370  149.2950 C   0  0  0  0  0  0  0  0  0  0  0  0
  161.1990  205.5510  150.6640 C   0  0  0  0  0  0  0  0  0  0  0  0
  161.6780  209.8520  152.7430 S   0  0  0  0  0  0  0  0  0  0  0  0
  161.0240  204.4470  145.6630 C   0  0  1  0  0  3  0  0  0  0  0  0
  161.6200  209.6780  151.0850 N   0  0  0  0  0  2  0  0  0  0  0  0
  161.0020  203.3410  151.7170 C   0  0  0  0  0  3  0  0  0  0  0  0
  161.0580  204.1500  150.5660 C   0  0  0  0  0  0  0  0  0  0  0  0
  161.2900  206.1560  151.9320 C   0  0  0  0  0  3  0  0  0  0  0  0
  161.2820  206.4480  146.9110 C   0  0  0  0  0  2  0  0  0  0  0  0
  161.4410  208.6090  148.4990 O   0  0  0  0  0  1  0  0  0  0  0  0
  161.5140  207.8110  154.3780 O   0  0  0  0  0  0  0  0  0  0  0  0
  161.2520  206.3540  149.4790 C   0  0  0  0  0  0  0  0  0  0  0  0
  161.4310  207.5320  152.0290 C   0  0  0  0  0  0  0  0  0  0  0  0
  160.0370  202.4400  144.6430 N   0  0  0  0  0  0  0  0  0  0  0  0
  160.2530  203.7090  144.6000 C   0  0  0  0  0  3  0  0  0  0  0  0
  160.5000  201.6040  145.7220 C   0  0  0  0  0  2  0  0  0  0  0  0
  160.2140  200.1510  145.3960 C   0  0  0  0  0  2  0  0  0  0  0  0
  161.2630  199.2720  145.9910 C   0  0  0  0  0  0  0  0  0  0  0  0
  161.6360  198.0010  145.3100 C   0  0  0  0  0  1  0  0  0  0  0  0
  161.8020  199.5780  147.0430 O   0  0  0  0  0  0  0  0  0  0  0  0
  161.7180  205.8220  143.7450 C   0  0  0  0  0  1  0  0  0  0  0  0
  160.7680  206.5850  144.6480 C   0  0  0  0  0  2  0  0  0  0  0  0
  1 22  1  0  0  0  0
  2  3  1  0  0  0  0
  3 16  2  0  0  0  0
  4  5  1  0  0  0  0
  5 15  1  0  0  0  0
  5 23  2  0  0  0  0
  6 19  1  0  0  0  0
  7 10  1  0  0  0  0
  8 21  2  0  0  0  0
  9 11  1  0  0  0  0
  9  2  2  0  0  0  0
 10  1  2  0  0  0  0
 10 11  1  0  0  0  0
 11 17  2  0  0  0  0
 12 18  2  0  0  0  0
 13  8  1  0  0  0  0
 14 25  1  6  0  0  0
 14  6  1  0  0  0  0
 14  7  1  0  0  0  0
 15 13  1  0  0  0  0
 17 12  1  0  0  0  0
 17 16  1  0  0  0  0
 18 23  1  0  0  0  0
 19  1  1  0  0  0  0
 20  4  1  0  0  0  0
 22  4  2  0  0  0  0
 22 12  1  0  0  0  0
 23  8  1  0  0  0  0
 24 26  1  0  0  0  0
 25 24  2  0  0  0  0
 27 26  1  0  0  0  0
 27 28  1  0  0  0  0
 28 30  2  0  0  0  0
 29 28  1  0  0  0  0
 31 32  1  0  0  0  0
 32  6  1  0  0  0  0
M  END
>  <MODEL>
7

>  <REMARK>
 VINA RESULT:      -7.6      2.292      3.717
  Name = 
  5 active torsions:
  status: ('A' for Active; 'I' for Inactive)
    1  A    between atoms: C_1  and  C_10
    2  A    between atoms: N_2  and  C_24
    3  A    between atoms: N_8  and  C_23
    4  A    between atoms: C_10  and  C_24
    5  A    between atoms: C_12  and  C_21
                            x       y       z     vdW  Elec       q    Type
                         _______ _______ _______ _____ _____    ______ ____

>  <TORSDO>
F 5

$$$$
=
 OpenBabel11062410443D

 32 36  0  0  1  0  0  0  0  0999 V2000
  160.9330  206.7980  152.5920 C   0  0  0  0  0  0  0  0  0  0  0  0
  161.9380  210.6300  149.7700 C   0  0  0  0  0  3  0  0  0  0  0  0
  162.0320  209.7970  148.6550 C   0  0  0  0  0  3  0  0  0  0  0  0
  160.8190  204.5120  151.6000 C   0  0  0  0  0  0  0  0  0  0  0  0
  160.9240  203.7020  150.4680 C   0  0  0  0  0  0  0  0  0  0  0  0
  159.9730  207.3090  154.7950 N   0  0  0  0  0  0  0  0  0  0  0  0
  161.0340  209.0240  153.5390 O   0  0  0  0  0  0  0  0  0  0  0  0
  161.2890  203.3210  148.2040 C   0  0  0  0  0  0  0  0  0  0  0  0
  161.6440  210.0870  151.0220 C   0  0  0  0  0  3  0  0  0  0  0  0
  161.1460  208.1760  152.4300 C   0  0  0  0  0  0  0  0  0  0  0  0
  161.4400  208.7080  151.1720 C   0  0  0  0  0  0  0  0  0  0  0  0
  161.3280  206.4700  150.1930 C   0  0  0  0  0  0  0  0  0  0  0  0
  160.9690  201.8530  148.9230 S   0  0  0  0  0  0  0  0  0  0  0  0
  160.7950  208.5270  154.8560 C   0  0  1  0  0  3  0  0  0  0  0  0
  160.7450  202.3520  150.4990 N   0  0  0  0  0  2  0  0  0  0  0  0
  161.8320  208.4220  148.7910 C   0  0  0  0  0  3  0  0  0  0  0  0
  161.5340  207.8580  150.0460 C   0  0  0  0  0  0  0  0  0  0  0  0
  161.4250  205.6270  149.0700 C   0  0  0  0  0  3  0  0  0  0  0  0
  160.6980  206.3170  153.9980 C   0  0  0  0  0  2  0  0  0  0  0  0
  160.5100  203.9120  152.8170 O   0  0  0  0  0  1  0  0  0  0  0  0
  161.5380  203.5250  146.9860 O   0  0  0  0  0  0  0  0  0  0  0  0
  161.0240  205.9190  151.4800 C   0  0  0  0  0  0  0  0  0  0  0  0
  161.2260  204.2620  149.2130 C   0  0  0  0  0  0  0  0  0  0  0  0
  160.6600  210.7410  155.9160 N   0  0  0  0  0  0  0  0  0  0  0  0
  160.1050  209.6100  155.6440 C   0  0  0  0  0  3  0  0  0  0  0  0
  161.9900  211.0840  155.4820 C   0  0  0  0  0  2  0  0  0  0  0  0
  162.8760  211.3090  156.6910 C   0  0  0  0  0  2  0  0  0  0  0  0
  164.3020  211.4360  156.2710 C   0  0  0  0  0  0  0  0  0  0  0  0
  165.3290  211.8660  157.2600 C   0  0  0  0  0  1  0  0  0  0  0  0
  164.6280  211.2090  155.1170 O   0  0  0  0  0  0  0  0  0  0  0  0
  161.1000  207.1270  156.9430 C   0  0  0  0  0  1  0  0  0  0  0  0
  159.8800  206.7380  156.1330 C   0  0  0  0  0  2  0  0  0  0  0  0
  1 19  1  0  0  0  0
  2  9  2  0  0  0  0
  3 16  2  0  0  0  0
  3  2  1  0  0  0  0
  4 20  1  0  0  0  0
  5 15  1  0  0  0  0
  5  4  2  0  0  0  0
  6 14  1  0  0  0  0
  6 32  1  0  0  0  0
  7 14  1  0  0  0  0
  8 13  1  0  0  0  0
  8 23  1  0  0  0  0
  9 11  1  0  0  0  0
 10  1  1  0  0  0  0
 10  7  1  0  0  0  0
 11 10  2  0  0  0  0
 12 22  1  0  0  0  0
 13 15  1  0  0  0  0
 14 25  1  1  0  0  0
 16 17  1  0  0  0  0
 17 12  2  0  0  0  0
 17 11  1  0  0  0  0
 18 23  2  0  0  0  0
 18 12  1  0  0  0  0
 19  6  1  0  0  0  0
 21  8  2  0  0  0  0
 22  4  1  0  0  0  0
 22  1  2  0  0  0  0
 23  5  1  0  0  0  0
 25 24  2  0  0  0  0
 26 24  1  0  0  0  0
 26 27  1  0  0  0  0
 28 27  1  0  0  0  0
 28 29  1  0  0  0  0
 30 28  2  0  0  0  0
 32 31  1  0  0  0  0
M  END
>  <MODEL>
8

>  <REMARK>
 VINA RESULT:      -7.1      3.130      8.341
  Name = 
  5 active torsions:
  status: ('A' for Active; 'I' for Inactive)
    1  A    between atoms: C_1  and  C_10
    2  A    between atoms: N_2  and  C_24
    3  A    between atoms: N_8  and  C_23
    4  A    between atoms: C_10  and  C_24
    5  A    between atoms: C_12  and  C_21
                            x       y       z     vdW  Elec       q    Type
                         _______ _______ _______ _____ _____    ______ ____

>  <TORSDO>
F 5

$$$$
=
 OpenBabel11062410443D

 32 36  0  0  1  0  0  0  0  0999 V2000
  161.2800  206.5330  151.0900 C   0  0  0  0  0  0  0  0  0  0  0  0
  162.1040  210.6190  148.5830 C   0  0  0  0  0  3  0  0  0  0  0  0
  161.9840  211.3730  149.7520 C   0  0  0  0  0  3  0  0  0  0  0  0
  160.8780  206.6370  153.5500 C   0  0  0  0  0  0  0  0  0  0  0  0
  160.7580  207.4160  154.7020 C   0  0  0  0  0  0  0  0  0  0  0  0
  161.8850  204.4390  149.9590 N   0  0  0  0  0  0  0  0  0  0  0  0
  161.6840  206.4470  148.7050 O   0  0  0  0  0  0  0  0  0  0  0  0
  160.7580  209.4280  155.8680 C   0  0  0  0  0  0  0  0  0  0  0  0
  161.9560  209.2320  148.6310 C   0  0  0  0  0  3  0  0  0  0  0  0
  161.5420  207.1950  149.8800 C   0  0  0  0  0  0  0  0  0  0  0  0
  161.6870  208.5840  149.8450 C   0  0  0  0  0  0  0  0  0  0  0  0
  161.2960  208.6920  152.2560 C   0  0  0  0  0  0  0  0  0  0  0  0
  160.4560  208.2060  156.9590 S   0  0  0  0  0  0  0  0  0  0  0  0
  161.4860  205.0330  148.6730 C   0  0  1  0  0  3  0  0  0  0  0  0
  160.5000  206.8910  155.9330 N   0  0  0  0  0  2  0  0  0  0  0  0
  161.7160  210.7400  150.9670 C   0  0  0  0  0  3  0  0  0  0  0  0
  161.5650  209.3410  151.0330 C   0  0  0  0  0  0  0  0  0  0  0  0
  161.1720  209.4500  153.4360 C   0  0  0  0  0  3  0  0  0  0  0  0
  161.0650  205.0470  151.0090 C   0  0  0  0  0  2  0  0  0  0  0  0
  160.7330  205.2580  153.6660 O   0  0  0  0  0  1  0  0  0  0  0  0
  160.8360  210.6590  156.1190 O   0  0  0  0  0  0  0  0  0  0  0  0
  161.1480  207.2670  152.2990 C   0  0  0  0  0  0  0  0  0  0  0  0
  160.9050  208.8140  154.6390 C   0  0  0  0  0  0  0  0  0  0  0  0
  161.8720  203.5490  146.7520 N   0  0  0  0  0  0  0  0  0  0  0  0
  162.3040  204.4740  147.5390 C   0  0  0  0  0  3  0  0  0  0  0  0
  160.5580  202.9690  146.8740 C   0  0  0  0  0  2  0  0  0  0  0  0
  160.4500  201.7630  145.9620 C   0  0  0  0  0  2  0  0  0  0  0  0
  160.9730  200.5460  146.6510 C   0  0  0  0  0  0  0  0  0  0  0  0
  161.2100  200.5720  148.1210 C   0  0  0  0  0  1  0  0  0  0  0  0
  161.2290  199.5380  146.0120 O   0  0  0  0  0  0  0  0  0  0  0  0
  161.2080  202.5740  151.3670 C   0  0  0  0  0  1  0  0  0  0  0  0
  161.5250  203.0260  149.9550 C   0  0  0  0  0  2  0  0  0  0  0  0
  1 22  1  0  0  0  0
  2  9  2  0  0  0  0
  2  3  1  0  0  0  0
  3 16  2  0  0  0  0
  4 20  1  0  0  0  0
  4  5  1  0  0  0  0
  5 15  1  0  0  0  0
  6 19  1  0  0  0  0
  7 10  1  0  0  0  0
  8 21  2  0  0  0  0
  8 13  1  0  0  0  0
  9 11  1  0  0  0  0
 10  1  2  0  0  0  0
 11 10  1  0  0  0  0
 11 17  2  0  0  0  0
 12 22  1  0  0  0  0
 12 18  2  0  0  0  0
 14 25  1  6  0  0  0
 14  7  1  0  0  0  0
 14  6  1  0  0  0  0
 15 13  1  0  0  0  0
 16 17  1  0  0  0  0
 17 12  1  0  0  0  0
 18 23  1  0  0  0  0
 19  1  1  0  0  0  0
 22  4  2  0  0  0  0
 23  5  2  0  0  0  0
 23  8  1  0  0  0  0
 24 26  1  0  0  0  0
 24 25  2  0  0  0  0
 27 28  1  0  0  0  0
 27 26  1  0  0  0  0
 28 29  1  0  0  0  0
 30 28  2  0  0  0  0
 32  6  1  0  0  0  0
 32 31  1  0  0  0  0
M  END
>  <MODEL>
9

>  <REMARK>
 VINA RESULT:      -7.0      1.946      4.283
  Name = 
  5 active torsions:
  status: ('A' for Active; 'I' for Inactive)
    1  A    between atoms: C_1  and  C_10
    2  A    between atoms: N_2  and  C_24
    3  A    between atoms: N_8  and  C_23
    4  A    between atoms: C_10  and  C_24
    5  A    between atoms: C_12  and  C_21
                            x       y       z     vdW  Elec       q    Type
                         _______ _______ _______ _____ _____    ______ ____

>  <TORSDO>
F 5

$$$$
