=
 OpenBabel11062408273D

 32 37  0  0  1  0  0  0  0  0999 V2000
  161.3040  205.1720  150.3610 C   0  0  0  0  0  0  0  0  0  0  0  0
  162.3370  207.2570  150.8840 N   0  0  0  0  0  0  0  0  0  0  0  0
  160.5390  203.9660  150.8560 C   0  0  0  0  0  2  0  0  0  0  0  0
  161.8500  206.0010  151.2580 C   0  0  0  0  0  0  0  0  0  0  0  0
  162.2480  208.0570  152.0440 C   0  0  0  0  0  0  0  0  0  0  0  0
  161.3660  211.0660  148.1860 C   0  0  0  0  0  3  0  0  0  0  0  0
  162.0520  207.7770  149.5980 C   0  0  0  0  0  0  0  0  0  0  0  0
  161.9290  211.3680  150.5600 C   0  0  0  0  0  3  0  0  0  0  0  0
  162.4980  209.9780  150.6290 C   0  0  0  0  0  0  0  0  0  0  0  0
  161.6180  205.9040  152.6570 N   0  0  0  0  0  0  0  0  0  0  0  0
  162.2160  209.3530  151.9360 N   0  0  0  0  0  0  0  0  0  0  0  0
  160.8320  204.8120  153.2270 C   0  0  0  0  0  2  0  0  0  0  0  0
  161.5610  206.8610  148.6040 N   0  0  0  0  0  0  0  0  0  0  0  0
  161.2420  205.6300  148.9270 C   0  0  0  0  0  0  0  0  0  0  0  0
  162.0540  209.1090  149.4470 C   0  0  0  0  0  0  0  0  0  0  0  0
  161.8010  207.2450  153.2420 C   0  0  2  0  0  3  0  0  0  0  0  0
  160.9050  203.5890  152.3030 C   0  0  0  0  0  2  0  0  0  0  0  0
  161.4470  211.8750  149.4200 C   0  0  0  0  0  3  0  0  0  0  0  0
  161.6360  209.7570  148.1940 C   0  0  0  0  0  2  0  0  0  0  0  0
  161.3760  204.3990  145.4110 C   0  0  0  0  0  0  0  0  0  0  0  0
  161.4970  204.8620  144.2450 O   0  0  0  0  0  0  0  0  0  0  0  0
  161.2540  203.3100  148.0550 C   0  0  0  0  0  2  0  0  0  0  0  0
  161.6830  202.9550  145.6460 C   0  0  0  0  0  2  0  0  0  0  0  0
  160.7190  204.7290  147.8450 C   0  0  2  0  0  3  0  0  0  0  0  0
  161.0050  205.2630  146.5020 N   0  0  0  0  0  0  0  0  0  0  0  0
  160.6150  206.6370  146.2050 C   0  0  0  0  0  1  0  0  0  0  0  0
  160.9220  202.4370  146.8590 C   0  0  1  0  0  3  0  0  0  0  0  0
  161.3830  200.5830  148.4060 C   0  0  0  0  0  2  0  0  0  0  0  0
  161.3150  201.0270  147.1520 C   0  0  0  0  0  3  0  0  0  0  0  0
  160.4700  207.7690  153.7740 C   0  0  0  0  0  2  0  0  0  0  0  0
  160.6110  208.1880  155.2250 C   0  0  0  0  0  2  0  0  0  0  0  0
  159.8090  207.2490  156.0990 C   0  0  0  0  0  1  0  0  0  0  0  0
  1  3  1  0  0  0  0
  1  4  2  0  0  0  0
  2  4  1  0  0  0  0
  2  5  1  0  0  0  0
  3 17  1  0  0  0  0
  4 10  1  0  0  0  0
  5 16  1  0  0  0  0
  6 19  1  0  0  0  0
  6 18  2  0  0  0  0
  7  2  1  0  0  0  0
  8  9  2  0  0  0  0
  9 11  1  0  0  0  0
 10 12  1  0  0  0  0
 10 16  1  0  0  0  0
 11  5  2  0  0  0  0
 13 14  2  0  0  0  0
 13  7  1  0  0  0  0
 14  1  1  0  0  0  0
 15  7  2  0  0  0  0
 15  9  1  0  0  0  0
 16 30  1  6  0  0  0
 17 12  1  0  0  0  0
 18  8  1  0  0  0  0
 19 15  1  0  0  0  0
 20 23  1  0  0  0  0
 20 25  1  0  0  0  0
 21 20  2  0  0  0  0
 23 27  1  0  0  0  0
 24 22  1  0  0  0  0
 24 14  1  1  0  0  0
 25 24  1  0  0  0  0
 26 25  1  0  0  0  0
 27 29  1  1  0  0  0
 27 22  1  0  0  0  0
 29 28  2  0  0  0  0
 30 31  1  0  0  0  0
 31 32  1  0  0  0  0
M  END
>  <MODEL>
1

>  <REMARK>
 VINA RESULT:      -8.1      0.000      0.000
  Name = 
  4 active torsions:
  status: ('A' for Active; 'I' for Inactive)
    1  A    between atoms: C_13  and  C_18
    2  A    between atoms: C_15  and  C_26
    3  A    between atoms: C_18  and  C_29
    4  A    between atoms: C_20  and  C_27
                            x       y       z     vdW  Elec       q    Type
                         _______ _______ _______ _____ _____    ______ ____

>  <TORSDO>
F 4

$$$$
=
 OpenBabel11062408273D

 32 37  0  0  1  0  0  0  0  0999 V2000
  161.3930  206.2610  150.6360 C   0  0  0  0  0  0  0  0  0  0  0  0
  162.2880  208.4710  150.6620 N   0  0  0  0  0  0  0  0  0  0  0  0
  160.7380  205.1380  151.4070 C   0  0  0  0  0  2  0  0  0  0  0  0
  161.9100  207.2920  151.3120 C   0  0  0  0  0  0  0  0  0  0  0  0
  162.1850  209.4880  151.6360 C   0  0  0  0  0  0  0  0  0  0  0  0
  160.9390  211.5600  147.2920 C   0  0  0  0  0  3  0  0  0  0  0  0
  161.9180  208.6910  149.3130 C   0  0  0  0  0  0  0  0  0  0  0  0
  161.5670  212.3880  149.5200 C   0  0  0  0  0  3  0  0  0  0  0  0
  162.2400  211.0820  149.8440 C   0  0  0  0  0  0  0  0  0  0  0  0
  161.7390  207.4760  152.7120 N   0  0  0  0  0  0  0  0  0  0  0  0
  162.0530  210.7280  151.2640 N   0  0  0  0  0  0  0  0  0  0  0  0
  161.0570  206.4790  153.5340 C   0  0  0  0  0  2  0  0  0  0  0  0
  161.4580  207.5570  148.5570 N   0  0  0  0  0  0  0  0  0  0  0  0
  161.2430  206.4030  149.1430 C   0  0  0  0  0  0  0  0  0  0  0  0
  161.8160  209.9590  148.8920 C   0  0  0  0  0  0  0  0  0  0  0  0
  161.8440  208.9190  152.9970 C   0  0  2  0  0  3  0  0  0  0  0  0
  161.1850  205.0970  152.8800 C   0  0  0  0  0  2  0  0  0  0  0  0
  161.0070  212.6130  148.3260 C   0  0  0  0  0  3  0  0  0  0  0  0
  161.3040  210.3030  147.5550 C   0  0  0  0  0  2  0  0  0  0  0  0
  161.5250  204.3010  146.0770 C   0  0  0  0  0  0  0  0  0  0  0  0
  161.7260  204.4440  144.8410 O   0  0  0  0  0  0  0  0  0  0  0  0
  161.2180  203.9370  148.9000 C   0  0  0  0  0  2  0  0  0  0  0  0
  161.7650  202.9620  146.6950 C   0  0  0  0  0  2  0  0  0  0  0  0
  160.7480  205.2640  148.2990 C   0  0  2  0  0  3  0  0  0  0  0  0
  161.1260  205.4260  146.8840 N   0  0  0  0  0  0  0  0  0  0  0  0
  160.8040  206.6840  146.2200 C   0  0  0  0  0  1  0  0  0  0  0  0
  160.9200  202.7910  147.9500 C   0  0  1  0  0  3  0  0  0  0  0  0
  160.9170  201.2860  149.8930 C   0  0  0  0  0  2  0  0  0  0  0  0
  161.2450  201.4980  148.6200 C   0  0  0  0  0  3  0  0  0  0  0  0
  160.4990  209.4560  153.4780 C   0  0  0  0  0  2  0  0  0  0  0  0
  160.6010  209.9160  154.9200 C   0  0  0  0  0  2  0  0  0  0  0  0
  161.8970  210.6720  155.1150 C   0  0  0  0  0  1  0  0  0  0  0  0
  1  4  2  0  0  0  0
  1  3  1  0  0  0  0
  2  4  1  0  0  0  0
  2  5  1  0  0  0  0
  3 17  1  0  0  0  0
  4 10  1  0  0  0  0
  5 16  1  0  0  0  0
  6 19  1  0  0  0  0
  6 18  2  0  0  0  0
  7  2  1  0  0  0  0
  8  9  2  0  0  0  0
  9 11  1  0  0  0  0
 10 16  1  0  0  0  0
 10 12  1  0  0  0  0
 11  5  2  0  0  0  0
 13 14  2  0  0  0  0
 13  7  1  0  0  0  0
 14  1  1  0  0  0  0
 15  7  2  0  0  0  0
 15  9  1  0  0  0  0
 16 30  1  6  0  0  0
 17 12  1  0  0  0  0
 18  8  1  0  0  0  0
 19 15  1  0  0  0  0
 20 23  1  0  0  0  0
 20 25  1  0  0  0  0
 21 20  2  0  0  0  0
 23 27  1  0  0  0  0
 24 22  1  0  0  0  0
 24 14  1  1  0  0  0
 25 24  1  0  0  0  0
 26 25  1  0  0  0  0
 27 29  1  1  0  0  0
 27 22  1  0  0  0  0
 29 28  2  0  0  0  0
 30 31  1  0  0  0  0
 31 32  1  0  0  0  0
M  END
>  <MODEL>
2

>  <REMARK>
 VINA RESULT:      -7.9      1.163      1.444
  Name = 
  4 active torsions:
  status: ('A' for Active; 'I' for Inactive)
    1  A    between atoms: C_13  and  C_18
    2  A    between atoms: C_15  and  C_26
    3  A    between atoms: C_18  and  C_29
    4  A    between atoms: C_20  and  C_27
                            x       y       z     vdW  Elec       q    Type
                         _______ _______ _______ _____ _____    ______ ____

>  <TORSDO>
F 4

$$$$
=
 OpenBabel11062408273D

 32 37  0  0  1  0  0  0  0  0999 V2000
  160.4270  211.9810  151.7820 C   0  0  0  0  0  0  0  0  0  0  0  0
  161.8000  210.6070  150.3990 N   0  0  0  0  0  0  0  0  0  0  0  0
  159.5940  213.2360  151.9120 C   0  0  0  0  0  2  0  0  0  0  0  0
  161.2130  211.8380  150.7100 C   0  0  0  0  0  0  0  0  0  0  0  0
  162.0020  210.6280  149.0020 C   0  0  0  0  0  0  0  0  0  0  0  0
  160.9420  205.9220  150.2050 C   0  0  0  0  0  3  0  0  0  0  0  0
  161.3910  209.4330  151.0750 C   0  0  0  0  0  0  0  0  0  0  0  0
  161.9040  207.0650  148.2520 C   0  0  0  0  0  3  0  0  0  0  0  0
  162.2840  208.2480  149.0990 C   0  0  1  0  0  3  0  0  0  0  0  0
  161.1910  212.7250  149.5980 N   0  0  0  0  0  0  0  0  0  0  0  0
  162.1280  209.5090  148.3500 N   0  0  0  0  0  0  0  0  0  0  0  0
  160.3640  213.9290  149.5990 C   0  0  0  0  0  2  0  0  0  0  0  0
  160.6320  209.5920  152.2860 N   0  0  0  0  0  0  0  0  0  0  0  0
  160.2050  210.7760  152.6580 C   0  0  0  0  0  0  0  0  0  0  0  0
  161.5480  208.2610  150.4430 C   0  0  0  0  0  0  0  0  0  0  0  0
  161.6420  211.9750  148.4110 C   0  0  2  0  0  3  0  0  0  0  0  0
  160.1260  214.3900  151.0430 C   0  0  0  0  0  2  0  0  0  0  0  0
  161.3230  205.9810  148.7790 C   0  0  0  0  0  3  0  0  0  0  0  0
  161.0310  206.9970  150.9930 C   0  0  0  0  0  3  0  0  0  0  0  0
  159.5030  212.4560  155.9100 C   0  0  0  0  0  0  0  0  0  0  0  0
  160.1360  212.9320  156.8910 O   0  0  0  0  0  0  0  0  0  0  0  0
  158.0490  211.5220  153.6280 C   0  0  0  0  0  2  0  0  0  0  0  0
  158.0920  212.8950  155.6840 C   0  0  0  0  0  2  0  0  0  0  0  0
  159.4030  210.8710  153.9240 C   0  0  2  0  0  3  0  0  0  0  0  0
  160.1520  211.5520  154.9950 N   0  0  0  0  0  0  0  0  0  0  0  0
  161.4920  211.0740  155.3170 C   0  0  0  0  0  1  0  0  0  0  0  0
  157.3160  211.8300  154.9210 C   0  0  1  0  0  3  0  0  0  0  0  0
  155.7590  213.4470  153.9210 C   0  0  0  0  0  2  0  0  0  0  0  0
  155.9420  212.3190  154.6050 C   0  0  0  0  0  3  0  0  0  0  0  0
  160.4930  211.8320  147.4170 C   0  0  0  0  0  2  0  0  0  0  0  0
  160.7810  212.6310  146.1600 C   0  0  0  0  0  2  0  0  0  0  0  0
  162.2030  213.1450  146.2070 C   0  0  0  0  0  1  0  0  0  0  0  0
  1  3  1  0  0  0  0
  1 14  1  0  0  0  0
  2  4  1  0  0  0  0
  2  7  1  0  0  0  0
  4  1  2  0  0  0  0
  5  2  1  0  0  0  0
  6 19  2  0  0  0  0
  7 13  1  0  0  0  0
  8 18  2  0  0  0  0
  9  8  1  6  0  0  0
  9 15  1  0  0  0  0
 10 12  1  0  0  0  0
 10  4  1  0  0  0  0
 11  5  2  0  0  0  0
 11  9  1  0  0  0  0
 12 17  1  0  0  0  0
 13 14  2  0  0  0  0
 15 19  1  0  0  0  0
 15  7  2  0  0  0  0
 16 30  1  6  0  0  0
 16  5  1  0  0  0  0
 16 10  1  0  0  0  0
 17  3  1  0  0  0  0
 18  6  1  0  0  0  0
 20 21  2  0  0  0  0
 22 24  1  0  0  0  0
 22 27  1  0  0  0  0
 23 20  1  0  0  0  0
 24 14  1  6  0  0  0
 24 25  1  0  0  0  0
 25 26  1  0  0  0  0
 25 20  1  0  0  0  0
 27 29  1  6  0  0  0
 27 23  1  0  0  0  0
 28 29  2  0  0  0  0
 31 32  1  0  0  0  0
 31 30  1  0  0  0  0
M  END
>  <MODEL>
3

>  <REMARK>
 VINA RESULT:      -7.1      4.145      9.071
  Name = 
  4 active torsions:
  status: ('A' for Active; 'I' for Inactive)
    1  A    between atoms: C_13  and  C_18
    2  A    between atoms: C_15  and  C_26
    3  A    between atoms: C_18  and  C_29
    4  A    between atoms: C_20  and  C_27
                            x       y       z     vdW  Elec       q    Type
                         _______ _______ _______ _____ _____    ______ ____

>  <TORSDO>
F 4

$$$$
=
 OpenBabel11062408273D

 32 37  0  0  1  0  0  0  0  0999 V2000
  161.1470  206.1950  151.2730 C   0  0  0  0  0  0  0  0  0  0  0  0
  160.4280  204.9810  149.3510 N   0  0  0  0  0  0  0  0  0  0  0  0
  161.5630  206.1590  152.7260 C   0  0  0  0  0  2  0  0  0  0  0  0
  160.5910  205.1050  150.7350 C   0  0  0  0  0  0  0  0  0  0  0  0
  160.4240  203.5920  149.0950 C   0  0  0  0  0  0  0  0  0  0  0  0
  162.6020  205.7450  145.1780 C   0  0  0  0  0  3  0  0  0  0  0  0
  161.0560  205.8980  148.4750 C   0  0  0  0  0  0  0  0  0  0  0  0
  161.6350  203.5360  145.6600 C   0  0  0  0  0  3  0  0  0  0  0  0
  160.8200  204.1100  146.7860 C   0  0  0  0  0  0  0  0  0  0  0  0
  160.5130  203.8530  151.4040 N   0  0  0  0  0  0  0  0  0  0  0  0
  160.7130  203.1540  147.9040 N   0  0  0  0  0  0  0  0  0  0  0  0
  160.9550  203.6990  152.7880 C   0  0  0  0  0  2  0  0  0  0  0  0
  161.5630  207.1190  149.0420 N   0  0  0  0  0  0  0  0  0  0  0  0
  161.5800  207.2970  150.3420 C   0  0  0  0  0  0  0  0  0  0  0  0
  161.3280  205.4860  147.2290 C   0  0  0  0  0  0  0  0  0  0  0  0
  160.4640  202.7930  150.3800 C   0  0  2  0  0  3  0  0  0  0  0  0
  160.8490  205.0460  153.5150 C   0  0  0  0  0  2  0  0  0  0  0  0
  162.4210  204.3050  144.8990 C   0  0  0  0  0  3  0  0  0  0  0  0
  162.1020  206.3060  146.2830 C   0  0  0  0  0  2  0  0  0  0  0  0
  161.5710  211.0240  150.4140 C   0  0  0  0  0  0  0  0  0  0  0  0
  161.4970  211.9910  149.6080 O   0  0  0  0  0  0  0  0  0  0  0  0
  161.5880  208.8490  152.2740 C   0  0  0  0  0  2  0  0  0  0  0  0
  161.2470  211.2610  151.8530 C   0  0  0  0  0  2  0  0  0  0  0  0
  162.1380  208.5880  150.8700 C   0  0  2  0  0  3  0  0  0  0  0  0
  161.9060  209.7060  149.9390 N   0  0  0  0  0  0  0  0  0  0  0  0
  162.3150  209.5470  148.5480 C   0  0  0  0  0  1  0  0  0  0  0  0
  161.9590  210.2460  152.7370 C   0  0  1  0  0  3  0  0  0  0  0  0
  161.1210  209.3840  154.8810 C   0  0  0  0  0  2  0  0  0  0  0  0
  161.5460  210.4210  154.1610 C   0  0  0  0  0  3  0  0  0  0  0  0
  161.7320  201.9460  150.4430 C   0  0  0  0  0  2  0  0  0  0  0  0
  161.4370  200.5220  150.0110 C   0  0  0  0  0  2  0  0  0  0  0  0
  161.6040  200.4070  148.5120 C   0  0  0  0  0  1  0  0  0  0  0  0
  1  3  1  0  0  0  0
  2  4  1  0  0  0  0
  3 17  1  0  0  0  0
  4  1  2  0  0  0  0
  4 10  1  0  0  0  0
  5  2  1  0  0  0  0
  5 16  1  0  0  0  0
  6 19  1  0  0  0  0
  7 13  1  0  0  0  0
  7  2  1  0  0  0  0
  8  9  2  0  0  0  0
  9 15  1  0  0  0  0
  9 11  1  0  0  0  0
 10 12  1  0  0  0  0
 11  5  2  0  0  0  0
 12 17  1  0  0  0  0
 13 14  2  0  0  0  0
 14  1  1  0  0  0  0
 15  7  2  0  0  0  0
 16 30  1  6  0  0  0
 16 10  1  0  0  0  0
 18  6  2  0  0  0  0
 18  8  1  0  0  0  0
 19 15  1  0  0  0  0
 20 23  1  0  0  0  0
 21 20  2  0  0  0  0
 22 27  1  0  0  0  0
 23 27  1  0  0  0  0
 24 14  1  6  0  0  0
 24 22  1  0  0  0  0
 25 20  1  0  0  0  0
 25 24  1  0  0  0  0
 26 25  1  0  0  0  0
 27 29  1  1  0  0  0
 29 28  2  0  0  0  0
 31 30  1  0  0  0  0
 32 31  1  0  0  0  0
M  END
>  <MODEL>
4

>  <REMARK>
 VINA RESULT:      -6.0      2.156      6.686
  Name = 
  4 active torsions:
  status: ('A' for Active; 'I' for Inactive)
    1  A    between atoms: C_13  and  C_18
    2  A    between atoms: C_15  and  C_26
    3  A    between atoms: C_18  and  C_29
    4  A    between atoms: C_20  and  C_27
                            x       y       z     vdW  Elec       q    Type
                         _______ _______ _______ _____ _____    ______ ____

>  <TORSDO>
F 4

$$$$
=
 OpenBabel11062408273D

 32 37  0  0  1  0  0  0  0  0999 V2000
  160.7550  210.9110  152.2930 C   0  0  0  0  0  0  0  0  0  0  0  0
  162.0890  208.9770  151.8890 N   0  0  0  0  0  0  0  0  0  0  0  0
  160.0830  212.1410  151.7270 C   0  0  0  0  0  2  0  0  0  0  0  0
  161.6360  210.2510  151.5340 C   0  0  0  0  0  0  0  0  0  0  0  0
  162.4550  208.3560  150.6750 C   0  0  0  0  0  0  0  0  0  0  0  0
  160.6550  204.7690  153.6100 C   0  0  0  0  0  3  0  0  0  0  0  0
  161.4530  208.2600  152.9310 C   0  0  0  0  0  0  0  0  0  0  0  0
  161.9820  204.8490  151.5410 C   0  0  0  0  0  3  0  0  0  0  0  0
  162.4110  206.2590  151.8410 C   0  0  1  0  0  3  0  0  0  0  0  0
  161.8610  210.5440  150.1610 N   0  0  0  0  0  0  0  0  0  0  0  0
  162.5100  207.0570  150.6040 N   0  0  0  0  0  0  0  0  0  0  0  0
  161.2040  211.6720  149.5040 C   0  0  0  0  0  2  0  0  0  0  0  0
  160.5840  208.9940  153.8100 N   0  0  0  0  0  0  0  0  0  0  0  0
  160.2740  210.2430  153.5550 C   0  0  0  0  0  0  0  0  0  0  0  0
  161.5290  206.9220  152.9050 C   0  0  0  0  0  0  0  0  0  0  0  0
  162.3470  209.3140  149.5080 C   0  0  2  0  0  3  0  0  0  0  0  0
  160.8600  212.7450  150.5440 C   0  0  0  0  0  2  0  0  0  0  0  0
  161.2060  204.1570  152.3830 C   0  0  0  0  0  3  0  0  0  0  0  0
  160.7900  206.0750  153.8560 C   0  0  0  0  0  3  0  0  0  0  0  0
  159.4890  213.1860  155.7050 C   0  0  0  0  0  0  0  0  0  0  0  0
  160.0680  213.9430  156.5300 O   0  0  0  0  0  0  0  0  0  0  0  0
  158.1920  211.5780  153.7230 C   0  0  0  0  0  2  0  0  0  0  0  0
  158.2280  213.6600  155.0560 C   0  0  0  0  0  2  0  0  0  0  0  0
  159.3480  210.9480  154.5040 C   0  0  2  0  0  3  0  0  0  0  0  0
  160.0670  211.9140  155.3550 N   0  0  0  0  0  0  0  0  0  0  0  0
  161.2390  211.4530  156.0900 C   0  0  0  0  0  1  0  0  0  0  0  0
  157.3700  212.4770  154.6270 C   0  0  1  0  0  3  0  0  0  0  0  0
  156.2060  214.0790  153.1700 C   0  0  0  0  0  2  0  0  0  0  0  0
  156.1660  212.9550  153.8860 C   0  0  0  0  0  3  0  0  0  0  0  0
  161.3150  208.8150  148.5010 C   0  0  0  0  0  2  0  0  0  0  0  0
  161.8560  207.6190  147.7410 C   0  0  0  0  0  2  0  0  0  0  0  0
  160.7810  206.5590  147.6410 C   0  0  0  0  0  1  0  0  0  0  0  0
  1 14  1  0  0  0  0
  2  7  1  0  0  0  0
  3  1  1  0  0  0  0
  4  2  1  0  0  0  0
  4  1  2  0  0  0  0
  5  2  1  0  0  0  0
  6 19  2  0  0  0  0
  7 13  1  0  0  0  0
  8 18  2  0  0  0  0
  9  8  1  6  0  0  0
  9 15  1  0  0  0  0
 10  4  1  0  0  0  0
 11  5  2  0  0  0  0
 11  9  1  0  0  0  0
 12 10  1  0  0  0  0
 12 17  1  0  0  0  0
 14 13  2  0  0  0  0
 15  7  2  0  0  0  0
 15 19  1  0  0  0  0
 16 30  1  6  0  0  0
 16 10  1  0  0  0  0
 16  5  1  0  0  0  0
 17  3  1  0  0  0  0
 18  6  1  0  0  0  0
 20 21  2  0  0  0  0
 22 24  1  0  0  0  0
 22 27  1  0  0  0  0
 23 20  1  0  0  0  0
 24 14  1  6  0  0  0
 24 25  1  0  0  0  0
 25 20  1  0  0  0  0
 25 26  1  0  0  0  0
 27 29  1  6  0  0  0
 27 23  1  0  0  0  0
 28 29  2  0  0  0  0
 31 30  1  0  0  0  0
 32 31  1  0  0  0  0
M  END
>  <MODEL>
5

>  <REMARK>
 VINA RESULT:      -5.9      4.061      8.901
  Name = 
  4 active torsions:
  status: ('A' for Active; 'I' for Inactive)
    1  A    between atoms: C_13  and  C_18
    2  A    between atoms: C_15  and  C_26
    3  A    between atoms: C_18  and  C_29
    4  A    between atoms: C_20  and  C_27
                            x       y       z     vdW  Elec       q    Type
                         _______ _______ _______ _____ _____    ______ ____

>  <TORSDO>
F 4

$$$$
=
 OpenBabel11062408273D

 32 37  0  0  1  0  0  0  0  0999 V2000
  161.6200  210.8820  149.5960 C   0  0  0  0  0  0  0  0  0  0  0  0
  161.6280  210.7020  151.9740 N   0  0  0  0  0  0  0  0  0  0  0  0
  161.7360  210.1830  148.2610 C   0  0  0  0  0  2  0  0  0  0  0  0
  161.9560  210.2140  150.7050 C   0  0  0  0  0  0  0  0  0  0  0  0
  161.5450  209.5640  152.8050 C   0  0  0  0  0  0  0  0  0  0  0  0
  158.1360  212.7790  154.4680 C   0  0  0  0  0  3  0  0  0  0  0  0
  160.7320  211.7900  152.1090 C   0  0  0  0  0  0  0  0  0  0  0  0
  159.2150  210.7490  155.3420 C   0  0  0  0  0  3  0  0  0  0  0  0
  160.3690  210.9240  154.3940 C   0  0  0  0  0  0  0  0  0  0  0  0
  162.2640  208.8260  150.7200 N   0  0  0  0  0  0  0  0  0  0  0  0
  160.8600  209.6190  153.9100 N   0  0  0  0  0  0  0  0  0  0  0  0
  162.3320  208.0460  149.4870 C   0  0  0  0  0  2  0  0  0  0  0  0
  160.4520  212.5710  150.9340 N   0  0  0  0  0  0  0  0  0  0  0  0
  160.8880  212.1890  149.7570 C   0  0  0  0  0  0  0  0  0  0  0  0
  160.0440  211.8950  153.2540 C   0  0  0  0  0  0  0  0  0  0  0  0
  161.9560  208.3080  152.0660 C   0  0  2  0  0  3  0  0  0  0  0  0
  162.6810  208.9690  148.3120 C   0  0  0  0  0  2  0  0  0  0  0  0
  158.2110  211.6320  155.3960 C   0  0  0  0  0  3  0  0  0  0  0  0
  158.9880  212.9020  153.4460 C   0  0  0  0  0  2  0  0  0  0  0  0
  161.4640  213.1370  146.1970 C   0  0  0  0  0  0  0  0  0  0  0  0
  162.4280  213.3430  145.4120 O   0  0  0  0  0  0  0  0  0  0  0  0
  159.2590  212.5250  147.9180 C   0  0  0  0  0  2  0  0  0  0  0  0
  160.1190  212.8320  145.6210 C   0  0  0  0  0  2  0  0  0  0  0  0
  160.5460  213.0410  148.5670 C   0  0  2  0  0  3  0  0  0  0  0  0
  161.6730  213.1380  147.6230 N   0  0  0  0  0  0  0  0  0  0  0  0
  162.9770  213.5430  148.1370 C   0  0  0  0  0  1  0  0  0  0  0  0
  159.0170  213.2270  146.5950 C   0  0  1  0  0  3  0  0  0  0  0  0
  156.7060  213.7140  145.9140 C   0  0  0  0  0  2  0  0  0  0  0  0
  157.6840  212.8220  146.0580 C   0  0  0  0  0  3  0  0  0  0  0  0
  160.7900  207.3260  151.9940 C   0  0  0  0  0  2  0  0  0  0  0  0
  161.2060  205.9730  152.5390 C   0  0  0  0  0  2  0  0  0  0  0  0
  161.2060  204.9570  151.4180 C   0  0  0  0  0  1  0  0  0  0  0  0
  1 14  1  0  0  0  0
  1  4  2  0  0  0  0
  2  7  1  0  0  0  0
  2  5  1  0  0  0  0
  3 17  1  0  0  0  0
  3  1  1  0  0  0  0
  4 10  1  0  0  0  0
  4  2  1  0  0  0  0
  5 11  2  0  0  0  0
  6 18  2  0  0  0  0
  7 15  2  0  0  0  0
  8 18  1  0  0  0  0
  9  8  2  0  0  0  0
 10 16  1  0  0  0  0
 11  9  1  0  0  0  0
 12 10  1  0  0  0  0
 13  7  1  0  0  0  0
 14 13  2  0  0  0  0
 15 19  1  0  0  0  0
 15  9  1  0  0  0  0
 16 30  1  6  0  0  0
 16  5  1  0  0  0  0
 17 12  1  0  0  0  0
 19  6  1  0  0  0  0
 20 25  1  0  0  0  0
 21 20  2  0  0  0  0
 22 24  1  0  0  0  0
 23 20  1  0  0  0  0
 23 27  1  0  0  0  0
 24 14  1  1  0  0  0
 25 26  1  0  0  0  0
 25 24  1  0  0  0  0
 27 29  1  6  0  0  0
 27 22  1  0  0  0  0
 28 29  2  0  0  0  0
 30 31  1  0  0  0  0
 32 31  1  0  0  0  0
M  END
>  <MODEL>
6

>  <REMARK>
 VINA RESULT:      -5.8      3.440      7.044
  Name = 
  4 active torsions:
  status: ('A' for Active; 'I' for Inactive)
    1  A    between atoms: C_13  and  C_18
    2  A    between atoms: C_15  and  C_26
    3  A    between atoms: C_18  and  C_29
    4  A    between atoms: C_20  and  C_27
                            x       y       z     vdW  Elec       q    Type
                         _______ _______ _______ _____ _____    ______ ____

>  <TORSDO>
F 4

$$$$
=
 OpenBabel11062408273D

 32 37  0  0  1  0  0  0  0  0999 V2000
  161.9560  209.2970  149.9940 C   0  0  0  0  0  0  0  0  0  0  0  0
  162.2010  208.0310  152.0000 N   0  0  0  0  0  0  0  0  0  0  0  0
  161.7080  209.2940  148.5030 C   0  0  0  0  0  2  0  0  0  0  0  0
  162.2220  208.1380  150.6060 C   0  0  0  0  0  0  0  0  0  0  0  0
  161.9030  206.6780  152.2700 C   0  0  0  0  0  0  0  0  0  0  0  0
  159.7620  209.3410  155.8810 C   0  0  0  0  0  3  0  0  0  0  0  0
  161.6700  209.0820  152.7860 C   0  0  0  0  0  0  0  0  0  0  0  0
  160.3250  206.9720  155.5390 C   0  0  0  0  0  3  0  0  0  0  0  0
  161.3590  207.3390  154.5100 C   0  0  1  0  0  3  0  0  0  0  0  0
  162.1270  206.8730  149.9630 N   0  0  0  0  0  0  0  0  0  0  0  0
  161.4010  206.3430  153.4220 N   0  0  0  0  0  0  0  0  0  0  0  0
  161.8230  206.7620  148.5380 C   0  0  0  0  0  2  0  0  0  0  0  0
  161.4800  210.3580  152.1510 N   0  0  0  0  0  0  0  0  0  0  0  0
  161.6450  210.4920  150.8570 C   0  0  0  0  0  0  0  0  0  0  0  0
  161.1840  208.7720  153.9970 C   0  0  0  0  0  0  0  0  0  0  0  0
  161.8520  205.8580  150.9970 C   0  0  2  0  0  3  0  0  0  0  0  0
  162.2730  208.0380  147.8150 C   0  0  0  0  0  2  0  0  0  0  0  0
  159.6240  207.9030  156.1950 C   0  0  0  0  0  3  0  0  0  0  0  0
  160.4840  209.7570  154.8370 C   0  0  0  0  0  3  0  0  0  0  0  0
  161.2420  212.6560  147.8480 C   0  0  0  0  0  0  0  0  0  0  0  0
  161.7690  212.8170  146.7140 O   0  0  0  0  0  0  0  0  0  0  0  0
  159.9310  212.2110  150.3530 C   0  0  0  0  0  2  0  0  0  0  0  0
  159.8610  213.1790  148.0790 C   0  0  0  0  0  2  0  0  0  0  0  0
  161.4150  211.8480  150.2530 C   0  0  2  0  0  3  0  0  0  0  0  0
  161.9410  211.9320  148.8790 N   0  0  0  0  0  0  0  0  0  0  0  0
  163.3230  211.5350  148.6390 C   0  0  0  0  0  1  0  0  0  0  0  0
  159.6390  213.4700  149.5570 C   0  0  1  0  0  3  0  0  0  0  0  0
  157.2250  213.3280  149.1170 C   0  0  0  0  0  2  0  0  0  0  0  0
  158.2260  213.8880  149.7950 C   0  0  0  0  0  3  0  0  0  0  0  0
  160.4570  205.2720  150.7950 C   0  0  0  0  0  2  0  0  0  0  0  0
  160.5200  203.7570  150.7770 C   0  0  0  0  0  2  0  0  0  0  0  0
  160.8310  203.2840  149.3740 C   0  0  0  0  0  1  0  0  0  0  0  0
  1  4  2  0  0  0  0
  1 14  1  0  0  0  0
  2  5  1  0  0  0  0
  2  7  1  0  0  0  0
  3  1  1  0  0  0  0
  4  2  1  0  0  0  0
  5 11  2  0  0  0  0
  6 18  1  0  0  0  0
  7 15  2  0  0  0  0
  8 18  2  0  0  0  0
  9  8  1  1  0  0  0
 10  4  1  0  0  0  0
 10 16  1  0  0  0  0
 11  9  1  0  0  0  0
 12 10  1  0  0  0  0
 13  7  1  0  0  0  0
 14 13  2  0  0  0  0
 15  9  1  0  0  0  0
 15 19  1  0  0  0  0
 16 30  1  6  0  0  0
 16  5  1  0  0  0  0
 17  3  1  0  0  0  0
 17 12  1  0  0  0  0
 19  6  2  0  0  0  0
 20 23  1  0  0  0  0
 20 25  1  0  0  0  0
 21 20  2  0  0  0  0
 23 27  1  0  0  0  0
 24 22  1  0  0  0  0
 24 14  1  6  0  0  0
 25 24  1  0  0  0  0
 26 25  1  0  0  0  0
 27 29  1  6  0  0  0
 27 22  1  0  0  0  0
 28 29  2  0  0  0  0
 31 30  1  0  0  0  0
 32 31  1  0  0  0  0
M  END
>  <MODEL>
7

>  <REMARK>
 VINA RESULT:      -5.6      2.404      7.043
  Name = 
  4 active torsions:
  status: ('A' for Active; 'I' for Inactive)
    1  A    between atoms: C_13  and  C_18
    2  A    between atoms: C_15  and  C_26
    3  A    between atoms: C_18  and  C_29
    4  A    between atoms: C_20  and  C_27
                            x       y       z     vdW  Elec       q    Type
                         _______ _______ _______ _____ _____    ______ ____

>  <TORSDO>
F 4

$$$$
=
 OpenBabel11062408273D

 32 37  0  0  1  0  0  0  0  0999 V2000
  161.5680  207.8430  150.4780 C   0  0  0  0  0  0  0  0  0  0  0  0
  162.1530  205.7350  149.5300 N   0  0  0  0  0  0  0  0  0  0  0  0
  161.2460  209.3030  150.2480 C   0  0  0  0  0  2  0  0  0  0  0  0
  162.0810  207.1300  149.4700 C   0  0  0  0  0  0  0  0  0  0  0  0
  162.1310  205.2970  148.1890 C   0  0  0  0  0  0  0  0  0  0  0  0
  159.7200  201.8500  150.8380 C   0  0  0  0  0  3  0  0  0  0  0  0
  161.4760  205.0310  150.5550 C   0  0  0  0  0  0  0  0  0  0  0  0
  160.7010  201.9710  148.5870 C   0  0  0  0  0  3  0  0  0  0  0  0
  161.5910  203.1080  149.0080 C   0  0  1  0  0  3  0  0  0  0  0  0
  162.1930  207.6210  148.1400 N   0  0  0  0  0  0  0  0  0  0  0  0
  161.7630  204.0800  147.9110 N   0  0  0  0  0  0  0  0  0  0  0  0
  161.8400  208.9990  147.8030 C   0  0  0  0  0  2  0  0  0  0  0  0
  161.0150  205.7860  151.6890 N   0  0  0  0  0  0  0  0  0  0  0  0
  161.0830  207.0960  151.6930 C   0  0  0  0  0  0  0  0  0  0  0  0
  161.1220  203.7610  150.3120 C   0  0  0  0  0  0  0  0  0  0  0  0
  162.1690  206.4650  147.2250 C   0  0  2  0  0  3  0  0  0  0  0  0
  162.0020  209.8890  149.0420 C   0  0  0  0  0  2  0  0  0  0  0  0
  159.8730  201.3710  149.4480 C   0  0  0  0  0  3  0  0  0  0  0  0
  160.2940  202.9840  151.2490 C   0  0  0  0  0  3  0  0  0  0  0  0
  161.5440  208.2240  155.2160 C   0  0  0  0  0  0  0  0  0  0  0  0
  161.9580  207.7660  156.3150 O   0  0  0  0  0  0  0  0  0  0  0  0
  160.7420  209.3340  152.7030 C   0  0  0  0  0  2  0  0  0  0  0  0
  161.4870  209.7060  155.0300 C   0  0  0  0  0  2  0  0  0  0  0  0
  160.5700  207.8260  152.9010 C   0  0  2  0  0  3  0  0  0  0  0  0
  161.1880  207.3310  154.1440 N   0  0  0  0  0  0  0  0  0  0  0  0
  161.1600  205.8970  154.4090 C   0  0  0  0  0  1  0  0  0  0  0  0
  160.4370  210.0750  153.9910 C   0  0  1  0  0  3  0  0  0  0  0  0
  159.7940  212.0690  152.7060 C   0  0  0  0  0  2  0  0  0  0  0  0
  160.4610  211.5450  153.7330 C   0  0  0  0  0  3  0  0  0  0  0  0
  160.9010  206.4970  146.3760 C   0  0  0  0  0  2  0  0  0  0  0  0
  161.2000  206.0260  144.9650 C   0  0  0  0  0  2  0  0  0  0  0  0
  160.6360  204.6350  144.7700 C   0  0  0  0  0  1  0  0  0  0  0  0
  1 14  1  0  0  0  0
  2  7  1  0  0  0  0
  3  1  1  0  0  0  0
  4  2  1  0  0  0  0
  4  1  2  0  0  0  0
  5  2  1  0  0  0  0
  6 19  2  0  0  0  0
  7 13  1  0  0  0  0
  8 18  2  0  0  0  0
  9  8  1  6  0  0  0
  9 15  1  0  0  0  0
 10  4  1  0  0  0  0
 11  5  2  0  0  0  0
 11  9  1  0  0  0  0
 12 10  1  0  0  0  0
 12 17  1  0  0  0  0
 13 14  2  0  0  0  0
 15  7  2  0  0  0  0
 15 19  1  0  0  0  0
 16 30  1  6  0  0  0
 16 10  1  0  0  0  0
 16  5  1  0  0  0  0
 17  3  1  0  0  0  0
 18  6  1  0  0  0  0
 20 21  2  0  0  0  0
 22 24  1  0  0  0  0
 22 27  1  0  0  0  0
 23 20  1  0  0  0  0
 24 14  1  6  0  0  0
 24 25  1  0  0  0  0
 25 26  1  0  0  0  0
 25 20  1  0  0  0  0
 27 29  1  6  0  0  0
 27 23  1  0  0  0  0
 28 29  2  0  0  0  0
 31 30  1  0  0  0  0
 32 31  1  0  0  0  0
M  END
>  <MODEL>
8

>  <REMARK>
 VINA RESULT:      -5.6      2.710      8.069
  Name = 
  4 active torsions:
  status: ('A' for Active; 'I' for Inactive)
    1  A    between atoms: C_13  and  C_18
    2  A    between atoms: C_15  and  C_26
    3  A    between atoms: C_18  and  C_29
    4  A    between atoms: C_20  and  C_27
                            x       y       z     vdW  Elec       q    Type
                         _______ _______ _______ _____ _____    ______ ____

>  <TORSDO>
F 4

$$$$
=
 OpenBabel11062408273D

 32 37  0  0  1  0  0  0  0  0999 V2000
  160.4680  211.7450  151.8590 C   0  0  0  0  0  0  0  0  0  0  0  0
  161.8370  210.4580  150.3920 N   0  0  0  0  0  0  0  0  0  0  0  0
  159.6040  212.9710  152.0550 C   0  0  0  0  0  2  0  0  0  0  0  0
  161.2270  211.6610  150.7610 C   0  0  0  0  0  0  0  0  0  0  0  0
  161.9990  210.5320  148.9910 C   0  0  0  0  0  0  0  0  0  0  0  0
  161.1000  205.7600  150.0580 C   0  0  0  0  0  3  0  0  0  0  0  0
  161.4790  209.2500  151.0370 C   0  0  0  0  0  0  0  0  0  0  0  0
  161.9760  206.9950  148.1210 C   0  0  0  0  0  3  0  0  0  0  0  0
  162.3480  208.1580  148.9980 C   0  0  1  0  0  3  0  0  0  0  0  0
  161.1500  212.5830  149.6820 N   0  0  0  0  0  0  0  0  0  0  0  0
  162.1370  209.4390  148.2980 N   0  0  0  0  0  0  0  0  0  0  0  0
  160.2910  213.7640  149.7470 C   0  0  0  0  0  2  0  0  0  0  0  0
  160.7500  209.3470  152.2730 N   0  0  0  0  0  0  0  0  0  0  0  0
  160.3010  210.5050  152.6970 C   0  0  0  0  0  0  0  0  0  0  0  0
  161.6500  208.1050  150.3610 C   0  0  0  0  0  0  0  0  0  0  0  0
  161.5870  211.8870  148.4580 C   0  0  2  0  0  3  0  0  0  0  0  0
  160.0820  214.1680  151.2120 C   0  0  0  0  0  2  0  0  0  0  0  0
  161.4390  205.8780  148.6250 C   0  0  0  0  0  3  0  0  0  0  0  0
  161.1820  206.8100  150.8800 C   0  0  0  0  0  3  0  0  0  0  0  0
  160.1860  210.0310  156.3930 C   0  0  0  0  0  0  0  0  0  0  0  0
  160.5950  209.2130  157.2610 O   0  0  0  0  0  0  0  0  0  0  0  0
  159.3790  211.9820  154.4600 C   0  0  0  0  0  2  0  0  0  0  0  0
  159.8150  211.4130  156.8260 C   0  0  0  0  0  2  0  0  0  0  0  0
  159.5330  210.5350  153.9870 C   0  0  2  0  0  3  0  0  0  0  0  0
  160.1350  209.6540  155.0040 N   0  0  0  0  0  0  0  0  0  0  0  0
  160.4080  208.2670  154.6460 C   0  0  0  0  0  1  0  0  0  0  0  0
  158.8040  212.0220  155.8640 C   0  0  1  0  0  3  0  0  0  0  0  0
  159.0350  214.4480  155.5420 C   0  0  0  0  0  2  0  0  0  0  0  0
  158.5200  213.4380  156.2420 C   0  0  0  0  0  3  0  0  0  0  0  0
  160.4150  211.7460  147.4910 C   0  0  0  0  0  2  0  0  0  0  0  0
  160.6140  212.6480  146.2870 C   0  0  0  0  0  2  0  0  0  0  0  0
  159.3780  212.6020  145.4150 C   0  0  0  0  0  1  0  0  0  0  0  0
  1  3  1  0  0  0  0
  1 14  1  0  0  0  0
  2  4  1  0  0  0  0
  2  7  1  0  0  0  0
  4  1  2  0  0  0  0
  5  2  1  0  0  0  0
  6 19  2  0  0  0  0
  7 13  1  0  0  0  0
  8 18  2  0  0  0  0
  9  8  1  6  0  0  0
  9 15  1  0  0  0  0
 10 12  1  0  0  0  0
 10  4  1  0  0  0  0
 11  5  2  0  0  0  0
 11  9  1  0  0  0  0
 12 17  1  0  0  0  0
 13 14  2  0  0  0  0
 15 19  1  0  0  0  0
 15  7  2  0  0  0  0
 16 30  1  6  0  0  0
 16  5  1  0  0  0  0
 16 10  1  0  0  0  0
 17  3  1  0  0  0  0
 18  6  1  0  0  0  0
 20 23  1  0  0  0  0
 20 21  2  0  0  0  0
 22 27  1  0  0  0  0
 24 14  1  6  0  0  0
 24 22  1  0  0  0  0
 24 25  1  0  0  0  0
 25 20  1  0  0  0  0
 26 25  1  0  0  0  0
 27 29  1  1  0  0  0
 27 23  1  0  0  0  0
 28 29  2  0  0  0  0
 31 30  1  0  0  0  0
 32 31  1  0  0  0  0
M  END
>  <MODEL>
9

>  <REMARK>
 VINA RESULT:      -5.6      3.709      8.941
  Name = 
  4 active torsions:
  status: ('A' for Active; 'I' for Inactive)
    1  A    between atoms: C_13  and  C_18
    2  A    between atoms: C_15  and  C_26
    3  A    between atoms: C_18  and  C_29
    4  A    between atoms: C_20  and  C_27
                            x       y       z     vdW  Elec       q    Type
                         _______ _______ _______ _____ _____    ______ ____

>  <TORSDO>
F 4

$$$$
