=
 OpenBabel11062408433D

 55 58  0  0  1  0  0  0  0  0999 V2000
  158.9660  212.1680  152.2600 C   0  0  1  0  0  3  0  0  0  0  0  0
  160.4350  211.9010  151.9620 C   0  0  0  0  0  2  0  0  0  0  0  0
  160.5780  210.7380  150.9940 C   0  0  0  0  0  2  0  0  0  0  0  0
  161.9340  210.7550  150.3000 C   0  0  0  0  0  2  0  0  0  0  0  0
  161.9740  209.8960  149.0390 C   0  0  0  0  0  2  0  0  0  0  0  0
  162.0350  208.4150  149.3790 C   0  0  0  0  0  2  0  0  0  0  0  0
  160.8950  207.6520  148.7200 C   0  0  1  0  0  3  0  0  0  0  0  0
  161.3780  206.6700  147.7500 N   0  0  0  0  0  0  0  0  0  0  0  0
  161.5750  205.3410  146.0090 C   0  0  0  0  0  0  0  0  0  0  0  0
  162.5930  206.0910  147.8080 C   0  0  0  0  0  3  0  0  0  0  0  0
  162.7540  205.2420  146.7280 C   0  0  0  0  0  3  0  0  0  0  0  0
  160.7350  206.2320  146.6510 C   0  0  0  0  0  3  0  0  0  0  0  0
  160.5810  203.5630  144.8090 O   0  0  0  0  0  1  0  0  0  0  0  0
  161.7400  205.0780  143.5490 O   0  0  0  0  0  0  0  0  0  0  0  0
  161.2720  204.6140  144.7700 C   0  0  0  0  0  0  0  0  0  0  0  0
  160.0310  206.9940  149.7920 C   0  0  0  0  0  2  0  0  0  0  0  0
  161.7540  204.5960  152.2190 C   0  0  0  0  0  3  0  0  0  0  0  0
  161.8660  203.4530  151.4260 C   0  0  0  0  0  3  0  0  0  0  0  0
  160.6850  205.7770  150.3810 C   0  0  0  0  0  0  0  0  0  0  0  0
  160.7840  204.6150  149.6030 C   0  0  0  0  0  3  0  0  0  0  0  0
  161.3760  203.4600  150.1200 C   0  0  0  0  0  3  0  0  0  0  0  0
  161.1590  205.7600  151.7160 C   0  0  0  0  0  0  0  0  0  0  0  0
  162.3140  207.7500  152.6820 C   0  0  0  0  0  1  0  0  0  0  0  0
  161.0380  206.9270  152.6530 C   0  0  2  0  0  3  0  0  0  0  0  0
  160.6200  206.4930  154.0490 C   0  0  0  0  0  2  0  0  0  0  0  0
  161.3110  207.2320  155.0090 O   0  0  0  0  0  0  0  0  0  0  0  0
  159.5850  207.2930  156.4910 O   0  0  0  0  0  1  0  0  0  0  0  0
  160.3350  208.0420  155.5870 C   0  0  0  0  0  2  0  0  0  0  0  0
  158.7670  212.4290  153.6210 O   0  0  0  0  0  0  0  0  0  0  0  0
  159.4600  211.4190  154.2930 C   0  0  0  0  0  2  0  0  0  0  0  0
  157.2060  210.9970  154.9280 O   0  0  0  0  0  1  0  0  0  0  0  0
  158.5310  210.7280  155.2720 C   0  0  0  0  0  2  0  0  0  0  0  0
  158.4450  213.3110  151.3820 C   0  0  0  0  0  2  0  0  0  0  0  0
  159.3410  213.6600  150.1930 C   0  0  0  0  0  2  0  0  0  0  0  0
  158.8920  212.9860  148.9010 C   0  0  0  0  0  2  0  0  0  0  0  0
  159.9950  212.5100  148.1870 O   0  0  0  0  0  0  0  0  0  0  0  0
  160.5940  213.6480  147.6400 C   0  0  0  0  0  2  0  0  0  0  0  0
  159.7810  214.1390  146.4560 C   0  0  0  0  0  2  0  0  0  0  0  0
  160.6250  214.4530  145.3860 O   0  0  0  0  0  0  0  0  0  0  0  0
  160.0510  213.8410  144.2680 C   0  0  0  0  0  2  0  0  0  0  0  0
  161.4560  212.5330  142.6710 C   0  0  2  0  0  3  0  0  0  0  0  0
  163.4010  214.0700  142.6060 O   0  0  0  0  0  1  0  0  0  0  0  0
  160.9930  213.9320  143.0730 C   0  0  2  0  0  3  0  0  0  0  0  0
  162.7930  213.0670  144.8060 C   0  0  0  0  0  1  0  0  0  0  0  0
  162.4090  213.4770  143.3930 C   0  0  1  0  0  0  0  0  0  0  0  0
  162.3550  211.3510  138.6300 C   0  0  1  0  0  3  0  0  0  0  0  0
  163.2080  212.2520  139.5420 C   0  0  0  0  0  2  0  0  0  0  0  0
  159.5420  212.5930  139.8910 C   0  0  0  0  0  1  0  0  0  0  0  0
  162.9660  211.9680  140.8950 O   0  0  0  0  0  0  0  0  0  0  0  0
  161.1570  210.7460  139.3790 C   0  0  0  0  0  2  0  0  0  0  0  0
  161.6900  212.4910  141.1660 C   0  0  1  0  0  3  0  0  0  0  0  0
  160.5920  211.6660  140.4730 C   0  0  1  0  0  3  0  0  0  0  0  0
  161.8770  212.1290  137.4130 C   0  0  0  0  0  2  0  0  0  0  0  0
  160.9710  214.4320  137.2580 C   0  0  0  0  0  1  0  0  0  0  0  0
  162.2030  213.6050  137.5640 C   0  0  0  0  0  2  0  0  0  0  0  0
  1 33  1  6  0  0  0
  1 29  1  0  0  0  0
  2  1  1  0  0  0  0
  3  2  1  0  0  0  0
  4  3  1  0  0  0  0
  5  6  1  0  0  0  0
  5  4  1  0  0  0  0
  7  6  1  1  0  0  0
  7 16  1  0  0  0  0
  8 10  1  0  0  0  0
  8  7  1  0  0  0  0
  9 12  2  0  0  0  0
  9 11  1  0  0  0  0
 11 10  2  0  0  0  0
 12  8  1  0  0  0  0
 14 15  2  0  0  0  0
 15 13  1  0  0  0  0
 15  9  1  0  0  0  0
 16 19  1  0  0  0  0
 18 17  2  0  0  0  0
 19 22  2  0  0  0  0
 20 21  2  0  0  0  0
 20 19  1  0  0  0  0
 21 18  1  0  0  0  0
 22 17  1  0  0  0  0
 22 24  1  0  0  0  0
 24 23  1  1  0  0  0
 24 25  1  0  0  0  0
 25 26  1  0  0  0  0
 26 28  1  0  0  0  0
 28 27  1  0  0  0  0
 29 30  1  0  0  0  0
 30 32  1  0  0  0  0
 31 32  1  0  0  0  0
 34 33  1  0  0  0  0
 35 34  1  0  0  0  0
 36 35  1  0  0  0  0
 37 36  1  0  0  0  0
 38 37  1  0  0  0  0
 39 38  1  0  0  0  0
 40 39  1  0  0  0  0
 41 51  1  6  0  0  0
 41 43  1  0  0  0  0
 41 45  1  0  0  0  0
 42 45  1  0  0  0  0
 43 45  1  0  0  0  0
 43 40  1  1  0  0  0
 45 44  1  1  0  0  0
 46 53  1  6  0  0  0
 46 50  1  0  0  0  0
 46 47  1  0  0  0  0
 47 49  1  0  0  0  0
 50 52  1  0  0  0  0
 51 49  1  1  0  0  0
 52 48  1  6  0  0  0
 52 51  1  0  0  0  0
 53 55  1  0  0  0  0
 54 55  1  0  0  0  0
M  END
>  <MODEL>
1

>  <REMARK>
 VINA RESULT:      -4.3      0.000      0.000
  Name = 
  29 active torsions:
  status: ('A' for Active; 'I' for Inactive)
    1  A    between atoms: C_1  and  C_46
    2  A    between atoms: C_2  and  C_44
    3  A    between atoms: C_2  and  C_49
    4  A    between atoms: C_3  and  C_25
    5  A    between atoms: C_5  and  O_40
    6  A    between atoms: C_5  and  C_45
    7  A    between atoms: C_8  and  O_20
    8  A    between atoms: C_8  and  C_22
    9  A    between atoms: C_12  and  C_42
   10  A    between atoms: N_13  and  C_52
   11  A    between atoms: C_16  and  C_36
   12  A    between atoms: O_20  and  C_42
   13  A    between atoms: C_22  and  O_43
   14  A    between atoms: C_25  and  C_38
   15  A    between atoms: C_26  and  C_45
   16  A    between atoms: C_27  and  C_31
   17  A    between atoms: C_27  and  C_49
   18  A    between atoms: C_27  and  O_54
   19  A    between atoms: C_28  and  C_33
   20  A    between atoms: C_28  and  C_44
   21  A    between atoms: C_31  and  C_35
   22  A    between atoms: C_32  and  C_47
   23  A    between atoms: C_33  and  C_52
   24  A    between atoms: C_35  and  C_51
   25  A    between atoms: C_36  and  C_52
   26  A    between atoms: C_37  and  O_40
   27  A    between atoms: C_41  and  C_55
   28  A    between atoms: O_43  and  C_51
   29  A    between atoms: O_54  and  C_55
                            x       y       z     vdW  Elec       q    Type
                         _______ _______ _______ _____ _____    ______ ____

>  <TORSDO>
F 29

$$$$
=
 OpenBabel11062408433D

 55 58  0  0  1  0  0  0  0  0999 V2000
  159.0160  211.6040  152.3650 C   0  0  1  0  0  3  0  0  0  0  0  0
  160.4470  211.0860  152.3550 C   0  0  0  0  0  2  0  0  0  0  0  0
  160.6020  209.9730  151.3310 C   0  0  0  0  0  2  0  0  0  0  0  0
  162.0510  209.8280  150.8820 C   0  0  0  0  0  2  0  0  0  0  0  0
  162.1880  209.2470  149.4770 C   0  0  0  0  0  2  0  0  0  0  0  0
  162.1300  207.7280  149.4970 C   0  0  0  0  0  2  0  0  0  0  0  0
  160.9840  207.2100  148.6410 C   0  0  1  0  0  3  0  0  0  0  0  0
  161.4590  206.5410  147.4310 N   0  0  0  0  0  0  0  0  0  0  0  0
  161.6470  205.7630  145.3820 C   0  0  0  0  0  0  0  0  0  0  0  0
  162.6670  205.9540  147.3220 C   0  0  0  0  0  3  0  0  0  0  0  0
  162.8220  205.4480  146.0430 C   0  0  0  0  0  3  0  0  0  0  0  0
  160.8160  206.4430  146.2520 C   0  0  0  0  0  3  0  0  0  0  0  0
  160.8260  204.3120  143.7070 O   0  0  0  0  0  1  0  0  0  0  0  0
  161.6130  206.3270  142.9680 O   0  0  0  0  0  0  0  0  0  0  0  0
  161.3400  205.4250  143.9880 C   0  0  0  0  0  0  0  0  0  0  0  0
  160.0980  206.2870  149.4740 C   0  0  0  0  0  2  0  0  0  0  0  0
  161.6000  203.8310  151.9890 C   0  0  0  0  0  3  0  0  0  0  0  0
  162.2440  204.7090  152.8620 C   0  0  0  0  0  3  0  0  0  0  0  0
  160.8280  205.7130  150.6540 C   0  0  0  0  0  0  0  0  0  0  0  0
  161.4990  206.5820  151.5270 C   0  0  0  0  0  3  0  0  0  0  0  0
  162.1980  206.0830  152.6280 C   0  0  0  0  0  3  0  0  0  0  0  0
  160.8980  204.3150  150.8780 C   0  0  0  0  0  0  0  0  0  0  0  0
  160.6490  201.8840  150.3730 C   0  0  0  0  0  1  0  0  0  0  0  0
  160.2740  203.2980  149.9650 C   0  0  2  0  0  3  0  0  0  0  0  0
  160.6070  203.5660  148.5060 C   0  0  0  0  0  2  0  0  0  0  0  0
  161.7200  202.8190  148.1220 O   0  0  0  0  0  0  0  0  0  0  0  0
  160.6820  201.3270  146.7530 O   0  0  0  0  0  1  0  0  0  0  0  0
  161.4650  202.4790  146.7950 C   0  0  0  0  0  2  0  0  0  0  0  0
  158.4960  211.6250  153.6660 O   0  0  0  0  0  0  0  0  0  0  0  0
  159.2300  212.6070  154.3370 C   0  0  0  0  0  2  0  0  0  0  0  0
  160.5330  212.5720  156.3280 O   0  0  0  0  0  1  0  0  0  0  0  0
  159.2640  212.2920  155.8200 C   0  0  0  0  0  2  0  0  0  0  0  0
  158.9460  212.9850  151.7050 C   0  0  0  0  0  2  0  0  0  0  0  0
  159.9510  213.2010  150.5740 C   0  0  0  0  0  2  0  0  0  0  0  0
  159.2930  213.2250  149.1990 C   0  0  0  0  0  2  0  0  0  0  0  0
  160.0880  212.5560  148.2640 O   0  0  0  0  0  0  0  0  0  0  0  0
  160.9700  213.5250  147.7760 C   0  0  0  0  0  2  0  0  0  0  0  0
  160.2800  214.3590  146.7120 C   0  0  0  0  0  2  0  0  0  0  0  0
  161.0570  214.4000  145.5490 O   0  0  0  0  0  0  0  0  0  0  0  0
  160.1440  214.3690  144.4900 C   0  0  0  0  0  2  0  0  0  0  0  0
  160.8480  212.5650  142.9140 C   0  0  2  0  0  3  0  0  0  0  0  0
  163.1030  213.4490  142.3850 O   0  0  0  0  0  1  0  0  0  0  0  0
  160.8630  214.0690  143.1800 C   0  0  2  0  0  3  0  0  0  0  0  0
  162.6140  212.8740  144.7610 C   0  0  0  0  0  1  0  0  0  0  0  0
  162.1310  213.2480  143.3690 C   0  0  1  0  0  0  0  0  0  0  0  0
  160.3880  210.8640  138.9850 C   0  0  1  0  0  3  0  0  0  0  0  0
  161.7100  211.1940  139.7020 C   0  0  0  0  0  2  0  0  0  0  0  0
  158.9020  213.5180  140.3240 C   0  0  0  0  0  1  0  0  0  0  0  0
  161.5460  211.1650  141.0960 O   0  0  0  0  0  0  0  0  0  0  0  0
  159.1730  211.0620  139.9040 C   0  0  0  0  0  2  0  0  0  0  0  0
  160.8080  212.3190  141.4100 C   0  0  1  0  0  3  0  0  0  0  0  0
  159.3540  212.1990  140.9220 C   0  0  1  0  0  3  0  0  0  0  0  0
  160.2420  211.7090  137.7290 C   0  0  0  0  0  2  0  0  0  0  0  0
  161.5960  213.7800  137.8950 C   0  0  0  0  0  1  0  0  0  0  0  0
  161.5660  212.3600  137.3680 C   0  0  0  0  0  2  0  0  0  0  0  0
  1 33  1  1  0  0  0
  1 29  1  0  0  0  0
  2  1  1  0  0  0  0
  3  2  1  0  0  0  0
  4  3  1  0  0  0  0
  5  6  1  0  0  0  0
  5  4  1  0  0  0  0
  7 16  1  1  0  0  0
  7  6  1  0  0  0  0
  8  7  1  0  0  0  0
  9 11  1  0  0  0  0
  9 12  2  0  0  0  0
 10  8  1  0  0  0  0
 11 10  2  0  0  0  0
 12  8  1  0  0  0  0
 13 15  1  0  0  0  0
 14 15  2  0  0  0  0
 15  9  1  0  0  0  0
 16 19  1  0  0  0  0
 17 18  1  0  0  0  0
 19 22  1  0  0  0  0
 19 20  2  0  0  0  0
 20 21  1  0  0  0  0
 21 18  2  0  0  0  0
 22 17  2  0  0  0  0
 24 23  1  1  0  0  0
 24 22  1  0  0  0  0
 25 24  1  0  0  0  0
 26 25  1  0  0  0  0
 27 28  1  0  0  0  0
 28 26  1  0  0  0  0
 29 30  1  0  0  0  0
 30 32  1  0  0  0  0
 32 31  1  0  0  0  0
 34 33  1  0  0  0  0
 35 34  1  0  0  0  0
 36 35  1  0  0  0  0
 37 36  1  0  0  0  0
 38 37  1  0  0  0  0
 39 38  1  0  0  0  0
 40 39  1  0  0  0  0
 41 51  1  6  0  0  0
 41 43  1  0  0  0  0
 41 45  1  0  0  0  0
 42 45  1  0  0  0  0
 43 45  1  0  0  0  0
 43 40  1  1  0  0  0
 45 44  1  1  0  0  0
 46 53  1  6  0  0  0
 46 47  1  0  0  0  0
 46 50  1  0  0  0  0
 47 49  1  0  0  0  0
 50 52  1  0  0  0  0
 51 49  1  1  0  0  0
 52 48  1  6  0  0  0
 52 51  1  0  0  0  0
 55 53  1  0  0  0  0
 55 54  1  0  0  0  0
M  END
>  <MODEL>
2

>  <REMARK>
 VINA RESULT:      -3.9      1.508      3.021
  Name = 
  29 active torsions:
  status: ('A' for Active; 'I' for Inactive)
    1  A    between atoms: C_1  and  C_46
    2  A    between atoms: C_2  and  C_44
    3  A    between atoms: C_2  and  C_49
    4  A    between atoms: C_3  and  C_25
    5  A    between atoms: C_5  and  O_40
    6  A    between atoms: C_5  and  C_45
    7  A    between atoms: C_8  and  O_20
    8  A    between atoms: C_8  and  C_22
    9  A    between atoms: C_12  and  C_42
   10  A    between atoms: N_13  and  C_52
   11  A    between atoms: C_16  and  C_36
   12  A    between atoms: O_20  and  C_42
   13  A    between atoms: C_22  and  O_43
   14  A    between atoms: C_25  and  C_38
   15  A    between atoms: C_26  and  C_45
   16  A    between atoms: C_27  and  C_31
   17  A    between atoms: C_27  and  C_49
   18  A    between atoms: C_27  and  O_54
   19  A    between atoms: C_28  and  C_33
   20  A    between atoms: C_28  and  C_44
   21  A    between atoms: C_31  and  C_35
   22  A    between atoms: C_32  and  C_47
   23  A    between atoms: C_33  and  C_52
   24  A    between atoms: C_35  and  C_51
   25  A    between atoms: C_36  and  C_52
   26  A    between atoms: C_37  and  O_40
   27  A    between atoms: C_41  and  C_55
   28  A    between atoms: O_43  and  C_51
   29  A    between atoms: O_54  and  C_55
                            x       y       z     vdW  Elec       q    Type
                         _______ _______ _______ _____ _____    ______ ____

>  <TORSDO>
F 29

$$$$
=
 OpenBabel11062408433D

 55 58  0  0  1  0  0  0  0  0999 V2000
  161.5810  205.5060  144.3700 C   0  0  1  0  0  3  0  0  0  0  0  0
  161.9810  205.4120  142.9050 C   0  0  0  0  0  2  0  0  0  0  0  0
  161.4240  206.5930  142.1260 C   0  0  0  0  0  2  0  0  0  0  0  0
  162.0570  206.6950  140.7430 C   0  0  0  0  0  2  0  0  0  0  0  0
  162.1260  208.1270  140.2190 C   0  0  0  0  0  2  0  0  0  0  0  0
  160.9460  208.4430  139.3130 C   0  0  0  0  0  2  0  0  0  0  0  0
  160.3350  209.7940  139.6570 C   0  0  1  0  0  3  0  0  0  0  0  0
  161.3540  210.8020  139.9460 N   0  0  0  0  0  0  0  0  0  0  0  0
  162.8660  212.3890  139.7690 C   0  0  0  0  0  0  0  0  0  0  0  0
  161.7210  211.1630  141.1910 C   0  0  0  0  0  3  0  0  0  0  0  0
  162.6770  212.1610  141.1210 C   0  0  0  0  0  3  0  0  0  0  0  0
  162.0380  211.5440  139.0550 C   0  0  0  0  0  3  0  0  0  0  0  0
  164.2800  214.2790  139.9160 O   0  0  0  0  0  1  0  0  0  0  0  0
  164.1520  213.2990  137.8540 O   0  0  0  0  0  0  0  0  0  0  0  0
  163.7960  213.3680  139.1940 C   0  0  0  0  0  0  0  0  0  0  0  0
  159.4150  210.2440  138.5250 C   0  0  0  0  0  2  0  0  0  0  0  0
  156.1770  212.0760  139.4020 C   0  0  0  0  0  3  0  0  0  0  0  0
  156.6780  213.2970  139.8550 C   0  0  0  0  0  3  0  0  0  0  0  0
  158.4400  211.2960  138.9710 C   0  0  0  0  0  0  0  0  0  0  0  0
  158.9320  212.5190  139.4500 C   0  0  0  0  0  3  0  0  0  0  0  0
  158.0550  213.5170  139.8840 C   0  0  0  0  0  3  0  0  0  0  0  0
  157.0420  211.0640  138.9670 C   0  0  0  0  0  0  0  0  0  0  0  0
  155.7920  209.8780  137.1630 C   0  0  0  0  0  1  0  0  0  0  0  0
  156.4190  209.7660  138.5410 C   0  0  2  0  0  3  0  0  0  0  0  0
  155.4250  209.2500  139.5690 C   0  0  0  0  0  2  0  0  0  0  0  0
  154.3320  208.6670  138.9280 O   0  0  0  0  0  0  0  0  0  0  0  0
  152.8960  208.3900  140.6720 O   0  0  0  0  0  1  0  0  0  0  0  0
  153.2240  209.1990  139.5860 C   0  0  0  0  0  2  0  0  0  0  0  0
  160.4900  204.6730  144.6500 O   0  0  0  0  0  0  0  0  0  0  0  0
  161.0360  203.4000  144.8260 C   0  0  0  0  0  2  0  0  0  0  0  0
  160.3770  201.1950  145.4330 O   0  0  0  0  0  1  0  0  0  0  0  0
  159.9290  202.3640  144.8180 C   0  0  0  0  0  2  0  0  0  0  0  0
  162.7800  205.1880  145.2690 C   0  0  0  0  0  2  0  0  0  0  0  0
  162.4160  204.8010  146.7030 C   0  0  0  0  0  2  0  0  0  0  0  0
  161.6280  205.8890  147.4240 C   0  0  0  0  0  2  0  0  0  0  0  0
  160.9250  205.3500  148.5050 O   0  0  0  0  0  0  0  0  0  0  0  0
  160.1220  206.3920  148.9740 C   0  0  0  0  0  2  0  0  0  0  0  0
  160.6150  206.8510  150.3350 C   0  0  0  0  0  2  0  0  0  0  0  0
  161.9740  207.1770  150.2720 O   0  0  0  0  0  0  0  0  0  0  0  0
  162.1230  208.3080  151.0810 C   0  0  0  0  0  2  0  0  0  0  0  0
  161.5320  208.9240  153.4260 C   0  0  2  0  0  3  0  0  0  0  0  0
  160.0240  207.0140  153.9000 O   0  0  0  0  0  1  0  0  0  0  0  0
  160.9960  208.3790  152.1040 C   0  0  2  0  0  3  0  0  0  0  0  0
  162.3960  206.5010  153.3320 C   0  0  0  0  0  1  0  0  0  0  0  0
  161.2030  207.4440  153.2860 C   0  0  1  0  0  0  0  0  0  0  0  0
  159.2820  211.5350  156.0070 C   0  0  1  0  0  3  0  0  0  0  0  0
  159.3020  209.9960  156.0380 C   0  0  0  0  0  2  0  0  0  0  0  0
  159.5480  211.5560  152.6940 C   0  0  0  0  0  1  0  0  0  0  0  0
  160.5080  209.5000  155.5170 O   0  0  0  0  0  0  0  0  0  0  0  0
  160.3120  212.1030  155.0180 C   0  0  0  0  0  2  0  0  0  0  0  0
  160.4320  209.7110  154.1310 C   0  0  1  0  0  3  0  0  0  0  0  0
  160.5380  211.2080  153.7890 C   0  0  1  0  0  3  0  0  0  0  0  0
  157.8890  212.0400  155.6630 C   0  0  0  0  0  2  0  0  0  0  0  0
  155.6240  212.5420  156.5410 C   0  0  0  0  0  1  0  0  0  0  0  0
  156.9690  211.9240  156.8660 C   0  0  0  0  0  2  0  0  0  0  0  0
  1  2  1  6  0  0  0
  1 29  1  0  0  0  0
  1 33  1  0  0  0  0
  3  2  1  0  0  0  0
  4  3  1  0  0  0  0
  5  4  1  0  0  0  0
  6  7  1  0  0  0  0
  6  5  1  0  0  0  0
  7 16  1  6  0  0  0
  7  8  1  0  0  0  0
  8 10  1  0  0  0  0
  9 11  1  0  0  0  0
 11 10  2  0  0  0  0
 12  9  2  0  0  0  0
 12  8  1  0  0  0  0
 14 15  2  0  0  0  0
 15  9  1  0  0  0  0
 15 13  1  0  0  0  0
 16 19  1  0  0  0  0
 17 18  1  0  0  0  0
 18 21  2  0  0  0  0
 19 20  2  0  0  0  0
 20 21  1  0  0  0  0
 22 19  1  0  0  0  0
 22 17  2  0  0  0  0
 24 23  1  6  0  0  0
 24 22  1  0  0  0  0
 24 25  1  0  0  0  0
 26 25  1  0  0  0  0
 26 28  1  0  0  0  0
 28 27  1  0  0  0  0
 29 30  1  0  0  0  0
 32 30  1  0  0  0  0
 32 31  1  0  0  0  0
 33 34  1  0  0  0  0
 34 35  1  0  0  0  0
 35 36  1  0  0  0  0
 36 37  1  0  0  0  0
 37 38  1  0  0  0  0
 39 38  1  0  0  0  0
 39 40  1  0  0  0  0
 41 51  1  1  0  0  0
 43 40  1  6  0  0  0
 43 45  1  0  0  0  0
 43 41  1  0  0  0  0
 45 44  1  6  0  0  0
 45 41  1  0  0  0  0
 45 42  1  0  0  0  0
 46 53  1  6  0  0  0
 46 47  1  0  0  0  0
 49 47  1  0  0  0  0
 50 46  1  0  0  0  0
 51 49  1  1  0  0  0
 52 48  1  6  0  0  0
 52 51  1  0  0  0  0
 52 50  1  0  0  0  0
 53 55  1  0  0  0  0
 54 55  1  0  0  0  0
M  END
>  <MODEL>
3

>  <REMARK>
 VINA RESULT:      -3.5      3.370     13.005
  Name = 
  29 active torsions:
  status: ('A' for Active; 'I' for Inactive)
    1  A    between atoms: C_1  and  C_46
    2  A    between atoms: C_2  and  C_44
    3  A    between atoms: C_2  and  C_49
    4  A    between atoms: C_3  and  C_25
    5  A    between atoms: C_5  and  O_40
    6  A    between atoms: C_5  and  C_45
    7  A    between atoms: C_8  and  O_20
    8  A    between atoms: C_8  and  C_22
    9  A    between atoms: C_12  and  C_42
   10  A    between atoms: N_13  and  C_52
   11  A    between atoms: C_16  and  C_36
   12  A    between atoms: O_20  and  C_42
   13  A    between atoms: C_22  and  O_43
   14  A    between atoms: C_25  and  C_38
   15  A    between atoms: C_26  and  C_45
   16  A    between atoms: C_27  and  C_31
   17  A    between atoms: C_27  and  C_49
   18  A    between atoms: C_27  and  O_54
   19  A    between atoms: C_28  and  C_33
   20  A    between atoms: C_28  and  C_44
   21  A    between atoms: C_31  and  C_35
   22  A    between atoms: C_32  and  C_47
   23  A    between atoms: C_33  and  C_52
   24  A    between atoms: C_35  and  C_51
   25  A    between atoms: C_36  and  C_52
   26  A    between atoms: C_37  and  O_40
   27  A    between atoms: C_41  and  C_55
   28  A    between atoms: O_43  and  C_51
   29  A    between atoms: O_54  and  C_55
                            x       y       z     vdW  Elec       q    Type
                         _______ _______ _______ _____ _____    ______ ____

>  <TORSDO>
F 29

$$$$
=
 OpenBabel11062408433D

 55 58  0  0  1  0  0  0  0  0999 V2000
  162.1160  205.9800  146.8090 C   0  0  1  0  0  3  0  0  0  0  0  0
  162.1740  204.7280  147.6730 C   0  0  0  0  0  2  0  0  0  0  0  0
  160.8470  204.5080  148.3800 C   0  0  0  0  0  2  0  0  0  0  0  0
  160.2690  205.8190  148.9000 C   0  0  0  0  0  2  0  0  0  0  0  0
  161.0680  206.4090  150.0590 C   0  0  0  0  0  2  0  0  0  0  0  0
  160.1840  206.6570  151.2720 C   0  0  0  0  0  2  0  0  0  0  0  0
  160.5610  205.7370  152.4240 C   0  0  1  0  0  3  0  0  0  0  0  0
  160.9820  204.4160  151.9590 N   0  0  0  0  0  0  0  0  0  0  0  0
  161.0640  202.4460  150.9850 C   0  0  0  0  0  0  0  0  0  0  0  0
  162.2080  203.8990  152.1760 C   0  0  0  0  0  3  0  0  0  0  0  0
  162.2970  202.6540  151.5780 C   0  0  0  0  0  3  0  0  0  0  0  0
  160.2630  203.5470  151.2250 C   0  0  0  0  0  3  0  0  0  0  0  0
  159.5650  200.7010  150.4420 O   0  0  0  0  0  1  0  0  0  0  0  0
  161.5280  200.7160  149.2710 O   0  0  0  0  0  0  0  0  0  0  0  0
  160.6760  201.2510  150.2270 C   0  0  0  0  0  0  0  0  0  0  0  0
  161.6430  206.3970  153.2740 C   0  0  0  0  0  2  0  0  0  0  0  0
  160.2020  209.2140  155.4190 C   0  0  0  0  0  3  0  0  0  0  0  0
  159.9570  208.5370  156.6140 C   0  0  0  0  0  3  0  0  0  0  0  0
  161.0670  207.1680  154.4270 C   0  0  0  0  0  0  0  0  0  0  0  0
  160.7940  206.4950  155.6260 C   0  0  0  0  0  3  0  0  0  0  0  0
  160.2470  207.1770  156.7160 C   0  0  0  0  0  3  0  0  0  0  0  0
  160.7470  208.5440  154.3160 C   0  0  0  0  0  0  0  0  0  0  0  0
  162.3220  209.9510  152.9870 C   0  0  0  0  0  1  0  0  0  0  0  0
  160.9340  209.3390  153.0550 C   0  0  2  0  0  3  0  0  0  0  0  0
  159.8490  210.3900  152.8810 C   0  0  0  0  0  2  0  0  0  0  0  0
  160.4240  211.6530  152.7420 O   0  0  0  0  0  0  0  0  0  0  0  0
  160.2200  213.1140  151.0090 O   0  0  0  0  0  1  0  0  0  0  0  0
  159.5210  212.3550  151.9450 C   0  0  0  0  0  2  0  0  0  0  0  0
  162.7550  207.0570  147.4370 O   0  0  0  0  0  0  0  0  0  0  0  0
  161.7680  208.0360  147.5800 C   0  0  0  0  0  2  0  0  0  0  0  0
  162.6930  208.5060  149.7210 O   0  0  0  0  0  1  0  0  0  0  0  0
  162.2470  209.1040  148.5430 C   0  0  0  0  0  2  0  0  0  0  0  0
  162.7080  205.6990  145.4250 C   0  0  0  0  0  2  0  0  0  0  0  0
  161.7190  205.1210  144.4140 C   0  0  0  0  0  2  0  0  0  0  0  0
  161.3050  206.1330  143.3510 C   0  0  0  0  0  2  0  0  0  0  0  0
  161.5800  205.6400  142.0720 O   0  0  0  0  0  0  0  0  0  0  0  0
  162.2850  206.6620  141.4300 C   0  0  0  0  0  2  0  0  0  0  0  0
  162.0110  206.6180  139.9380 C   0  0  0  0  0  2  0  0  0  0  0  0
  161.1610  207.6670  139.5710 O   0  0  0  0  0  0  0  0  0  0  0  0
  161.9790  208.7970  139.4860 C   0  0  0  0  0  2  0  0  0  0  0  0
  160.5290  210.6610  138.6790 C   0  0  2  0  0  3  0  0  0  0  0  0
  161.5280  212.4740  140.0430 O   0  0  0  0  0  1  0  0  0  0  0  0
  161.2050  210.0430  139.9000 C   0  0  2  0  0  3  0  0  0  0  0  0
  163.0130  211.2910  138.4270 C   0  0  0  0  0  1  0  0  0  0  0  0
  161.7590  211.3210  139.2880 C   0  0  1  0  0  0  0  0  0  0  0  0
  156.9620  213.0620  138.9100 C   0  0  1  0  0  3  0  0  0  0  0  0
  158.2520  213.2400  139.7310 C   0  0  0  0  0  2  0  0  0  0  0  0
  157.2880  209.7550  138.9560 C   0  0  0  0  0  1  0  0  0  0  0  0
  159.3610  212.7240  139.0410 O   0  0  0  0  0  0  0  0  0  0  0  0
  157.1170  211.9850  137.8240 C   0  0  0  0  0  2  0  0  0  0  0  0
  159.2260  211.3280  139.1050 C   0  0  1  0  0  3  0  0  0  0  0  0
  158.0590  210.8400  138.2290 C   0  0  1  0  0  3  0  0  0  0  0  0
  155.7940  212.7240  139.8240 C   0  0  0  0  0  2  0  0  0  0  0  0
  153.8120  211.2350  139.7800 C   0  0  0  0  0  1  0  0  0  0  0  0
  154.5920  212.2810  139.0100 C   0  0  0  0  0  2  0  0  0  0  0  0
  1 33  1  6  0  0  0
  1 29  1  0  0  0  0
  1  2  1  0  0  0  0
  2  3  1  0  0  0  0
  3  4  1  0  0  0  0
  4  5  1  0  0  0  0
  5  6  1  0  0  0  0
  7  6  1  6  0  0  0
  7 16  1  0  0  0  0
  8 10  1  0  0  0  0
  8  7  1  0  0  0  0
  9 12  2  0  0  0  0
  9 11  1  0  0  0  0
 11 10  2  0  0  0  0
 12  8  1  0  0  0  0
 14 15  2  0  0  0  0
 15 13  1  0  0  0  0
 15  9  1  0  0  0  0
 16 19  1  0  0  0  0
 17 18  1  0  0  0  0
 18 21  2  0  0  0  0
 19 20  2  0  0  0  0
 20 21  1  0  0  0  0
 22 19  1  0  0  0  0
 22 17  2  0  0  0  0
 24 23  1  1  0  0  0
 24 22  1  0  0  0  0
 25 24  1  0  0  0  0
 26 25  1  0  0  0  0
 27 28  1  0  0  0  0
 28 26  1  0  0  0  0
 29 30  1  0  0  0  0
 30 32  1  0  0  0  0
 32 31  1  0  0  0  0
 34 33  1  0  0  0  0
 35 34  1  0  0  0  0
 36 35  1  0  0  0  0
 37 36  1  0  0  0  0
 38 37  1  0  0  0  0
 39 38  1  0  0  0  0
 40 39  1  0  0  0  0
 41 51  1  1  0  0  0
 41 45  1  0  0  0  0
 41 43  1  0  0  0  0
 43 40  1  6  0  0  0
 45 44  1  6  0  0  0
 45 43  1  0  0  0  0
 45 42  1  0  0  0  0
 46 47  1  0  0  0  0
 46 53  1  1  0  0  0
 49 47  1  0  0  0  0
 50 52  1  0  0  0  0
 50 46  1  0  0  0  0
 51 49  1  6  0  0  0
 52 48  1  1  0  0  0
 52 51  1  0  0  0  0
 55 54  1  0  0  0  0
 55 53  1  0  0  0  0
M  END
>  <MODEL>
4

>  <REMARK>
 VINA RESULT:      -3.0      2.817      6.534
  Name = 
  29 active torsions:
  status: ('A' for Active; 'I' for Inactive)
    1  A    between atoms: C_1  and  C_46
    2  A    between atoms: C_2  and  C_44
    3  A    between atoms: C_2  and  C_49
    4  A    between atoms: C_3  and  C_25
    5  A    between atoms: C_5  and  O_40
    6  A    between atoms: C_5  and  C_45
    7  A    between atoms: C_8  and  O_20
    8  A    between atoms: C_8  and  C_22
    9  A    between atoms: C_12  and  C_42
   10  A    between atoms: N_13  and  C_52
   11  A    between atoms: C_16  and  C_36
   12  A    between atoms: O_20  and  C_42
   13  A    between atoms: C_22  and  O_43
   14  A    between atoms: C_25  and  C_38
   15  A    between atoms: C_26  and  C_45
   16  A    between atoms: C_27  and  C_31
   17  A    between atoms: C_27  and  C_49
   18  A    between atoms: C_27  and  O_54
   19  A    between atoms: C_28  and  C_33
   20  A    between atoms: C_28  and  C_44
   21  A    between atoms: C_31  and  C_35
   22  A    between atoms: C_32  and  C_47
   23  A    between atoms: C_33  and  C_52
   24  A    between atoms: C_35  and  C_51
   25  A    between atoms: C_36  and  C_52
   26  A    between atoms: C_37  and  O_40
   27  A    between atoms: C_41  and  C_55
   28  A    between atoms: O_43  and  C_51
   29  A    between atoms: O_54  and  C_55
                            x       y       z     vdW  Elec       q    Type
                         _______ _______ _______ _____ _____    ______ ____

>  <TORSDO>
F 29

$$$$
=
 OpenBabel11062408433D

 55 58  0  0  1  0  0  0  0  0999 V2000
  161.6200  205.6290  144.9040 C   0  0  1  0  0  3  0  0  0  0  0  0
  161.9580  205.3350  143.4490 C   0  0  0  0  0  2  0  0  0  0  0  0
  161.6340  206.5360  142.5750 C   0  0  0  0  0  2  0  0  0  0  0  0
  162.0540  206.3030  141.1290 C   0  0  0  0  0  2  0  0  0  0  0  0
  162.5580  207.5670  140.4390 C   0  0  0  0  0  2  0  0  0  0  0  0
  161.4400  208.2680  139.6830 C   0  0  0  0  0  2  0  0  0  0  0  0
  161.3350  209.7310  140.0890 C   0  0  1  0  0  3  0  0  0  0  0  0
  161.9860  210.6180  139.1260 N   0  0  0  0  0  0  0  0  0  0  0  0
  163.2380  212.1640  138.1880 C   0  0  0  0  0  0  0  0  0  0  0  0
  161.8390  210.5140  137.7910 C   0  0  0  0  0  3  0  0  0  0  0  0
  162.6120  211.4750  137.1640 C   0  0  0  0  0  3  0  0  0  0  0  0
  162.8450  211.6190  139.3960 C   0  0  0  0  0  3  0  0  0  0  0  0
  164.0490  214.0540  137.0230 O   0  0  0  0  0  0  0  0  0  0  0  0
  165.1760  213.5160  138.9380 O   0  0  0  0  0  1  0  0  0  0  0  0
  164.1650  213.2880  138.0150 C   0  0  0  0  0  0  0  0  0  0  0  0
  159.8680  210.1050  140.2860 C   0  0  0  0  0  2  0  0  0  0  0  0
  159.4940  213.9090  140.3250 C   0  0  0  0  0  3  0  0  0  0  0  0
  159.0670  214.1460  139.0180 C   0  0  0  0  0  3  0  0  0  0  0  0
  159.5840  211.5200  139.8720 C   0  0  0  0  0  0  0  0  0  0  0  0
  159.1760  211.7750  138.5550 C   0  0  0  0  0  3  0  0  0  0  0  0
  158.9130  213.0800  138.1310 C   0  0  0  0  0  3  0  0  0  0  0  0
  159.7650  212.6070  140.7640 C   0  0  0  0  0  0  0  0  0  0  0  0
  159.2730  213.0030  143.1780 C   0  0  0  0  0  1  0  0  0  0  0  0
  160.2650  212.4490  142.1720 C   0  0  2  0  0  3  0  0  0  0  0  0
  161.6470  213.0570  142.3540 C   0  0  0  0  0  2  0  0  0  0  0  0
  162.4250  212.2410  143.1760 O   0  0  0  0  0  0  0  0  0  0  0  0
  161.2450  213.0710  144.9360 O   0  0  0  0  0  1  0  0  0  0  0  0
  162.5140  212.9470  144.3740 C   0  0  0  0  0  2  0  0  0  0  0  0
  160.3930  205.0560  145.2620 O   0  0  0  0  0  0  0  0  0  0  0  0
  160.3130  203.8720  144.5240 C   0  0  0  0  0  2  0  0  0  0  0  0
  160.1760  201.5120  144.7940 O   0  0  0  0  0  1  0  0  0  0  0  0
  160.5720  202.6870  145.4330 C   0  0  0  0  0  2  0  0  0  0  0  0
  162.7540  205.1560  145.8190 C   0  0  0  0  0  2  0  0  0  0  0  0
  162.4150  205.1630  147.3090 C   0  0  0  0  0  2  0  0  0  0  0  0
  161.9170  206.5220  147.7920 C   0  0  0  0  0  2  0  0  0  0  0  0
  161.6260  206.4790  149.1590 O   0  0  0  0  0  0  0  0  0  0  0  0
  160.9380  207.6660  149.4230 C   0  0  0  0  0  2  0  0  0  0  0  0
  161.0660  208.0190  150.8940 C   0  0  0  0  0  2  0  0  0  0  0  0
  162.4060  208.2590  151.2190 O   0  0  0  0  0  0  0  0  0  0  0  0
  162.3730  209.0150  152.3950 C   0  0  0  0  0  2  0  0  0  0  0  0
  160.8950  210.1540  154.0530 C   0  0  2  0  0  3  0  0  0  0  0  0
  159.4260  208.2240  154.5680 O   0  0  0  0  0  1  0  0  0  0  0  0
  160.9380  209.1750  152.8810 C   0  0  2  0  0  3  0  0  0  0  0  0
  161.8590  207.9880  155.0570 C   0  0  0  0  0  1  0  0  0  0  0  0
  160.7260  208.6600  154.2970 C   0  0  1  0  0  0  0  0  0  0  0  0
  157.6680  212.9190  154.7470 C   0  0  1  0  0  3  0  0  0  0  0  0
  157.7430  211.4510  155.2050 C   0  0  0  0  0  2  0  0  0  0  0  0
  159.2700  212.2080  151.9230 C   0  0  0  0  0  1  0  0  0  0  0  0
  159.0780  211.0370  155.3450 O   0  0  0  0  0  0  0  0  0  0  0  0
  158.9870  213.3910  154.1150 C   0  0  0  0  0  2  0  0  0  0  0  0
  159.5690  210.9060  154.0360 C   0  0  1  0  0  3  0  0  0  0  0  0
  159.7380  212.2800  153.3640 C   0  0  1  0  0  3  0  0  0  0  0  0
  156.5170  213.1110  153.7700 C   0  0  0  0  0  2  0  0  0  0  0  0
  154.4420  214.4370  153.4790 C   0  0  0  0  0  1  0  0  0  0  0  0
  155.3110  213.7000  154.4790 C   0  0  0  0  0  2  0  0  0  0  0  0
  1  2  1  6  0  0  0
  1 29  1  0  0  0  0
  1 33  1  0  0  0  0
  3  2  1  0  0  0  0
  4  3  1  0  0  0  0
  5  4  1  0  0  0  0
  6  5  1  0  0  0  0
  7  6  1  6  0  0  0
  7 16  1  0  0  0  0
  8 12  1  0  0  0  0
  8  7  1  0  0  0  0
  9 12  2  0  0  0  0
 10  8  1  0  0  0  0
 11 10  2  0  0  0  0
 11  9  1  0  0  0  0
 13 15  2  0  0  0  0
 15  9  1  0  0  0  0
 15 14  1  0  0  0  0
 17 22  1  0  0  0  0
 18 17  2  0  0  0  0
 19 16  1  0  0  0  0
 19 22  2  0  0  0  0
 20 19  1  0  0  0  0
 21 20  2  0  0  0  0
 21 18  1  0  0  0  0
 22 24  1  0  0  0  0
 24 25  1  0  0  0  0
 24 23  1  1  0  0  0
 25 26  1  0  0  0  0
 26 28  1  0  0  0  0
 28 27  1  0  0  0  0
 30 29  1  0  0  0  0
 30 32  1  0  0  0  0
 31 32  1  0  0  0  0
 33 34  1  0  0  0  0
 34 35  1  0  0  0  0
 35 36  1  0  0  0  0
 36 37  1  0  0  0  0
 37 38  1  0  0  0  0
 38 39  1  0  0  0  0
 39 40  1  0  0  0  0
 41 51  1  6  0  0  0
 41 45  1  0  0  0  0
 43 40  1  1  0  0  0
 43 41  1  0  0  0  0
 43 45  1  0  0  0  0
 45 42  1  0  0  0  0
 45 44  1  1  0  0  0
 46 53  1  6  0  0  0
 46 47  1  0  0  0  0
 47 49  1  0  0  0  0
 50 46  1  0  0  0  0
 51 49  1  1  0  0  0
 52 48  1  6  0  0  0
 52 51  1  0  0  0  0
 52 50  1  0  0  0  0
 53 55  1  0  0  0  0
 54 55  1  0  0  0  0
M  END
>  <MODEL>
5

>  <REMARK>
 VINA RESULT:      -3.0      2.558     12.267
  Name = 
  29 active torsions:
  status: ('A' for Active; 'I' for Inactive)
    1  A    between atoms: C_1  and  C_46
    2  A    between atoms: C_2  and  C_44
    3  A    between atoms: C_2  and  C_49
    4  A    between atoms: C_3  and  C_25
    5  A    between atoms: C_5  and  O_40
    6  A    between atoms: C_5  and  C_45
    7  A    between atoms: C_8  and  O_20
    8  A    between atoms: C_8  and  C_22
    9  A    between atoms: C_12  and  C_42
   10  A    between atoms: N_13  and  C_52
   11  A    between atoms: C_16  and  C_36
   12  A    between atoms: O_20  and  C_42
   13  A    between atoms: C_22  and  O_43
   14  A    between atoms: C_25  and  C_38
   15  A    between atoms: C_26  and  C_45
   16  A    between atoms: C_27  and  C_31
   17  A    between atoms: C_27  and  C_49
   18  A    between atoms: C_27  and  O_54
   19  A    between atoms: C_28  and  C_33
   20  A    between atoms: C_28  and  C_44
   21  A    between atoms: C_31  and  C_35
   22  A    between atoms: C_32  and  C_47
   23  A    between atoms: C_33  and  C_52
   24  A    between atoms: C_35  and  C_51
   25  A    between atoms: C_36  and  C_52
   26  A    between atoms: C_37  and  O_40
   27  A    between atoms: C_41  and  C_55
   28  A    between atoms: O_43  and  C_51
   29  A    between atoms: O_54  and  C_55
                            x       y       z     vdW  Elec       q    Type
                         _______ _______ _______ _____ _____    ______ ____

>  <TORSDO>
F 29

$$$$
=
 OpenBabel11062408433D

 55 58  0  0  1  0  0  0  0  0999 V2000
  161.8290  205.4950  144.8900 C   0  0  1  0  0  3  0  0  0  0  0  0
  162.2160  205.3170  143.4290 C   0  0  0  0  0  2  0  0  0  0  0  0
  161.7430  206.5040  142.6050 C   0  0  0  0  0  2  0  0  0  0  0  0
  162.1090  206.3420  141.1340 C   0  0  0  0  0  2  0  0  0  0  0  0
  162.5680  207.6440  140.4840 C   0  0  0  0  0  2  0  0  0  0  0  0
  161.4150  208.3550  139.7920 C   0  0  0  0  0  2  0  0  0  0  0  0
  161.3870  209.8340  140.1510 C   0  0  1  0  0  3  0  0  0  0  0  0
  162.1270  210.6480  139.1890 N   0  0  0  0  0  0  0  0  0  0  0  0
  163.3920  212.1840  138.2530 C   0  0  0  0  0  0  0  0  0  0  0  0
  162.2500  210.3420  137.8830 C   0  0  0  0  0  3  0  0  0  0  0  0
  163.0390  211.2910  137.2570 C   0  0  0  0  0  3  0  0  0  0  0  0
  162.8250  211.7710  139.4430 C   0  0  0  0  0  3  0  0  0  0  0  0
  165.1960  213.5930  138.8440 O   0  0  0  0  0  1  0  0  0  0  0  0
  163.9660  214.2690  137.0400 O   0  0  0  0  0  0  0  0  0  0  0  0
  164.2300  213.3750  138.0680 C   0  0  0  0  0  0  0  0  0  0  0  0
  159.9400  210.3030  140.2790 C   0  0  0  0  0  2  0  0  0  0  0  0
  159.0690  213.9390  141.0750 C   0  0  0  0  0  3  0  0  0  0  0  0
  159.6430  214.0770  142.3390 C   0  0  0  0  0  3  0  0  0  0  0  0
  159.8330  211.6320  140.9700 C   0  0  0  0  0  0  0  0  0  0  0  0
  160.3850  211.7780  142.2510 C   0  0  0  0  0  3  0  0  0  0  0  0
  160.2960  212.9960  142.9300 C   0  0  0  0  0  3  0  0  0  0  0  0
  159.1470  212.7240  140.3830 C   0  0  0  0  0  0  0  0  0  0  0  0
  157.8940  213.9980  138.6410 C   0  0  0  0  0  1  0  0  0  0  0  0
  158.4610  212.6500  139.0480 C   0  0  2  0  0  3  0  0  0  0  0  0
  157.3990  211.5620  139.0160 C   0  0  0  0  0  2  0  0  0  0  0  0
  157.8410  210.4840  138.2490 O   0  0  0  0  0  0  0  0  0  0  0  0
  156.2940  209.0780  137.3490 O   0  0  0  0  0  1  0  0  0  0  0  0
  156.8670  210.3450  137.2610 C   0  0  0  0  0  2  0  0  0  0  0  0
  160.6550  204.7920  145.1900 O   0  0  0  0  0  0  0  0  0  0  0  0
  160.9620  203.4490  144.9560 C   0  0  0  0  0  2  0  0  0  0  0  0
  161.1120  201.4010  146.1580 O   0  0  0  0  0  1  0  0  0  0  0  0
  160.3960  202.5950  146.0730 C   0  0  0  0  0  2  0  0  0  0  0  0
  162.9870  205.0770  145.8010 C   0  0  0  0  0  2  0  0  0  0  0  0
  162.6810  205.1580  147.2970 C   0  0  0  0  0  2  0  0  0  0  0  0
  162.0930  206.5050  147.7050 C   0  0  0  0  0  2  0  0  0  0  0  0
  161.9010  206.5570  149.0880 O   0  0  0  0  0  0  0  0  0  0  0  0
  160.9510  207.5620  149.2880 C   0  0  0  0  0  2  0  0  0  0  0  0
  161.1520  208.1970  150.6520 C   0  0  0  0  0  2  0  0  0  0  0  0
  162.4270  208.7660  150.7370 O   0  0  0  0  0  0  0  0  0  0  0  0
  162.2970  209.8380  151.6260 C   0  0  0  0  0  2  0  0  0  0  0  0
  160.9400  210.7170  153.5270 C   0  0  2  0  0  3  0  0  0  0  0  0
  159.7950  208.6000  154.1230 O   0  0  0  0  0  1  0  0  0  0  0  0
  160.9350  209.7990  152.3070 C   0  0  2  0  0  3  0  0  0  0  0  0
  162.2830  208.6510  154.2710 C   0  0  0  0  0  1  0  0  0  0  0  0
  160.9840  209.2060  153.7070 C   0  0  1  0  0  0  0  0  0  0  0  0
  157.5640  213.1610  154.6100 C   0  0  1  0  0  3  0  0  0  0  0  0
  157.9540  211.8010  155.2170 C   0  0  0  0  0  2  0  0  0  0  0  0
  158.6050  212.2130  151.6000 C   0  0  0  0  0  1  0  0  0  0  0  0
  159.3330  211.5720  155.0900 O   0  0  0  0  0  0  0  0  0  0  0  0
  158.6300  213.6800  153.6320 C   0  0  0  0  0  2  0  0  0  0  0  0
  159.5440  211.2980  153.7280 C   0  0  1  0  0  3  0  0  0  0  0  0
  159.3580  212.5610  152.8700 C   0  0  1  0  0  3  0  0  0  0  0  0
  156.2140  213.0640  153.9160 C   0  0  0  0  0  2  0  0  0  0  0  0
  155.4920  214.4150  151.9660 C   0  0  0  0  0  1  0  0  0  0  0  0
  155.7510  214.4360  153.4590 C   0  0  0  0  0  2  0  0  0  0  0  0
  1  2  1  6  0  0  0
  1 29  1  0  0  0  0
  1 33  1  0  0  0  0
  3  2  1  0  0  0  0
  4  3  1  0  0  0  0
  5  4  1  0  0  0  0
  6  5  1  0  0  0  0
  7  6  1  6  0  0  0
  7 16  1  0  0  0  0
  8 12  1  0  0  0  0
  8  7  1  0  0  0  0
  9 12  2  0  0  0  0
 10  8  1  0  0  0  0
 11 10  2  0  0  0  0
 11  9  1  0  0  0  0
 14 15  2  0  0  0  0
 15  9  1  0  0  0  0
 15 13  1  0  0  0  0
 16 19  1  0  0  0  0
 17 18  1  0  0  0  0
 18 21  2  0  0  0  0
 19 20  2  0  0  0  0
 20 21  1  0  0  0  0
 22 19  1  0  0  0  0
 22 17  2  0  0  0  0
 24 23  1  1  0  0  0
 24 22  1  0  0  0  0
 25 24  1  0  0  0  0
 26 25  1  0  0  0  0
 28 27  1  0  0  0  0
 28 26  1  0  0  0  0
 30 29  1  0  0  0  0
 30 32  1  0  0  0  0
 32 31  1  0  0  0  0
 33 34  1  0  0  0  0
 34 35  1  0  0  0  0
 35 36  1  0  0  0  0
 36 37  1  0  0  0  0
 37 38  1  0  0  0  0
 38 39  1  0  0  0  0
 39 40  1  0  0  0  0
 41 45  1  0  0  0  0
 41 51  1  1  0  0  0
 43 40  1  6  0  0  0
 43 41  1  0  0  0  0
 43 45  1  0  0  0  0
 45 42  1  0  0  0  0
 45 44  1  1  0  0  0
 46 53  1  6  0  0  0
 46 47  1  0  0  0  0
 49 47  1  0  0  0  0
 50 46  1  0  0  0  0
 51 49  1  1  0  0  0
 52 48  1  6  0  0  0
 52 50  1  0  0  0  0
 52 51  1  0  0  0  0
 54 55  1  0  0  0  0
 55 53  1  0  0  0  0
M  END
>  <MODEL>
6

>  <REMARK>
 VINA RESULT:      -2.9      2.940     12.478
  Name = 
  29 active torsions:
  status: ('A' for Active; 'I' for Inactive)
    1  A    between atoms: C_1  and  C_46
    2  A    between atoms: C_2  and  C_44
    3  A    between atoms: C_2  and  C_49
    4  A    between atoms: C_3  and  C_25
    5  A    between atoms: C_5  and  O_40
    6  A    between atoms: C_5  and  C_45
    7  A    between atoms: C_8  and  O_20
    8  A    between atoms: C_8  and  C_22
    9  A    between atoms: C_12  and  C_42
   10  A    between atoms: N_13  and  C_52
   11  A    between atoms: C_16  and  C_36
   12  A    between atoms: O_20  and  C_42
   13  A    between atoms: C_22  and  O_43
   14  A    between atoms: C_25  and  C_38
   15  A    between atoms: C_26  and  C_45
   16  A    between atoms: C_27  and  C_31
   17  A    between atoms: C_27  and  C_49
   18  A    between atoms: C_27  and  O_54
   19  A    between atoms: C_28  and  C_33
   20  A    between atoms: C_28  and  C_44
   21  A    between atoms: C_31  and  C_35
   22  A    between atoms: C_32  and  C_47
   23  A    between atoms: C_33  and  C_52
   24  A    between atoms: C_35  and  C_51
   25  A    between atoms: C_36  and  C_52
   26  A    between atoms: C_37  and  O_40
   27  A    between atoms: C_41  and  C_55
   28  A    between atoms: O_43  and  C_51
   29  A    between atoms: O_54  and  C_55
                            x       y       z     vdW  Elec       q    Type
                         _______ _______ _______ _____ _____    ______ ____

>  <TORSDO>
F 29

$$$$
=
 OpenBabel11062408433D

 55 58  0  0  1  0  0  0  0  0999 V2000
  161.7150  212.8150  147.3060 C   0  0  1  0  0  3  0  0  0  0  0  0
  161.5820  213.1400  145.8250 C   0  0  0  0  0  2  0  0  0  0  0  0
  162.7150  212.5010  145.0370 C   0  0  0  0  0  2  0  0  0  0  0  0
  162.4840  212.6180  143.5350 C   0  0  0  0  0  2  0  0  0  0  0  0
  162.2620  214.0540  143.0720 C   0  0  0  0  0  2  0  0  0  0  0  0
  160.9000  214.2210  142.4160 C   0  0  0  0  0  2  0  0  0  0  0  0
  160.0850  212.9380  142.5090 C   0  0  1  0  0  3  0  0  0  0  0  0
  159.1060  212.9850  143.5940 N   0  0  0  0  0  0  0  0  0  0  0  0
  157.3640  213.4610  144.8500 C   0  0  0  0  0  0  0  0  0  0  0  0
  159.1380  212.1730  144.6690 C   0  0  0  0  0  3  0  0  0  0  0  0
  158.0550  212.4460  145.4870 C   0  0  0  0  0  3  0  0  0  0  0  0
  158.0240  213.7810  143.6770 C   0  0  0  0  0  3  0  0  0  0  0  0
  156.0020  214.3420  146.5690 O   0  0  0  0  0  1  0  0  0  0  0  0
  155.1100  214.4200  144.4650 O   0  0  0  0  0  0  0  0  0  0  0  0
  156.1350  214.0930  145.3430 C   0  0  0  0  0  0  0  0  0  0  0  0
  159.4130  212.6600  141.1670 C   0  0  0  0  0  2  0  0  0  0  0  0
  160.4730  210.2140  138.4270 C   0  0  0  0  0  3  0  0  0  0  0  0
  161.2980  209.3500  139.1490 C   0  0  0  0  0  3  0  0  0  0  0  0
  160.0480  211.5070  140.4440 C   0  0  0  0  0  0  0  0  0  0  0  0
  160.8970  210.6450  141.1520 C   0  0  0  0  0  3  0  0  0  0  0  0
  161.5140  209.5680  140.5100 C   0  0  0  0  0  3  0  0  0  0  0  0
  159.8500  211.2990  139.0560 C   0  0  0  0  0  0  0  0  0  0  0  0
  157.9710  211.4240  137.4180 C   0  0  0  0  0  1  0  0  0  0  0  0
  159.0170  212.2050  138.1930 C   0  0  2  0  0  3  0  0  0  0  0  0
  159.8750  213.0580  137.2730 C   0  0  0  0  0  2  0  0  0  0  0  0
  160.9170  213.6420  137.9940 O   0  0  0  0  0  0  0  0  0  0  0  0
  162.9000  213.0610  137.0400 O   0  0  0  0  0  1  0  0  0  0  0  0
  161.8570  213.9850  137.0240 C   0  0  0  0  0  2  0  0  0  0  0  0
  160.5400  213.1340  147.9990 O   0  0  0  0  0  0  0  0  0  0  0  0
  160.8850  213.0720  149.3520 C   0  0  0  0  0  2  0  0  0  0  0  0
  159.7350  213.8320  151.2920 O   0  0  0  0  0  1  0  0  0  0  0  0
  160.2890  214.2580  150.0840 C   0  0  0  0  0  2  0  0  0  0  0  0
  162.1030  211.3460  147.4950 C   0  0  0  0  0  2  0  0  0  0  0  0
  161.2480  210.5870  148.5100 C   0  0  0  0  0  2  0  0  0  0  0  0
  161.7980  209.1980  148.8200 C   0  0  0  0  0  2  0  0  0  0  0  0
  162.7250  208.8100  147.8500 O   0  0  0  0  0  0  0  0  0  0  0  0
  162.2000  207.6440  147.2880 C   0  0  0  0  0  2  0  0  0  0  0  0
  162.8300  206.4280  147.9430 C   0  0  0  0  0  2  0  0  0  0  0  0
  162.0780  206.0310  149.0530 O   0  0  0  0  0  0  0  0  0  0  0  0
  162.3750  206.9600  150.0550 C   0  0  0  0  0  2  0  0  0  0  0  0
  162.0020  206.8220  152.5190 C   0  0  2  0  0  3  0  0  0  0  0  0
  160.0910  205.2420  152.4770 O   0  0  0  0  0  1  0  0  0  0  0  0
  161.3210  206.9070  151.1550 C   0  0  2  0  0  3  0  0  0  0  0  0
  162.2580  204.4620  151.5220 C   0  0  0  0  0  1  0  0  0  0  0  0
  161.3250  205.5940  151.9240 C   0  0  1  0  0  0  0  0  0  0  0  0
  160.5100  208.8010  156.0400 C   0  0  1  0  0  3  0  0  0  0  0  0
  160.1810  207.3720  155.5730 C   0  0  0  0  0  2  0  0  0  0  0  0
  160.6400  209.8870  152.9020 C   0  0  0  0  0  1  0  0  0  0  0  0
  161.2200  206.8490  154.7870 O   0  0  0  0  0  0  0  0  0  0  0  0
  161.6020  209.4500  155.1750 C   0  0  0  0  0  2  0  0  0  0  0  0
  161.1390  207.5280  153.5590 C   0  0  1  0  0  3  0  0  0  0  0  0
  161.5680  208.9980  153.7070 C   0  0  1  0  0  3  0  0  0  0  0  0
  159.2550  209.6610  156.0380 C   0  0  0  0  0  2  0  0  0  0  0  0
  158.5850  211.9580  156.6900 C   0  0  0  0  0  1  0  0  0  0  0  0
  159.6190  211.1330  155.9510 C   0  0  0  0  0  2  0  0  0  0  0  0
  1  2  1  6  0  0  0
  1 33  1  0  0  0  0
  1 29  1  0  0  0  0
  3  2  1  0  0  0  0
  4  3  1  0  0  0  0
  5  4  1  0  0  0  0
  6  7  1  0  0  0  0
  6  5  1  0  0  0  0
  7 16  1  6  0  0  0
  7  8  1  0  0  0  0
  8 12  1  0  0  0  0
  8 10  1  0  0  0  0
  9 15  1  0  0  0  0
  9 11  1  0  0  0  0
 10 11  2  0  0  0  0
 12  9  2  0  0  0  0
 14 15  2  0  0  0  0
 15 13  1  0  0  0  0
 17 22  2  0  0  0  0
 17 18  1  0  0  0  0
 18 21  2  0  0  0  0
 19 20  2  0  0  0  0
 19 16  1  0  0  0  0
 21 20  1  0  0  0  0
 22 19  1  0  0  0  0
 24 23  1  6  0  0  0
 24 22  1  0  0  0  0
 25 26  1  0  0  0  0
 25 24  1  0  0  0  0
 28 27  1  0  0  0  0
 28 26  1  0  0  0  0
 29 30  1  0  0  0  0
 30 32  1  0  0  0  0
 32 31  1  0  0  0  0
 33 34  1  0  0  0  0
 34 35  1  0  0  0  0
 36 35  1  0  0  0  0
 37 36  1  0  0  0  0
 37 38  1  0  0  0  0
 38 39  1  0  0  0  0
 39 40  1  0  0  0  0
 41 51  1  1  0  0  0
 43 40  1  6  0  0  0
 43 45  1  0  0  0  0
 43 41  1  0  0  0  0
 45 44  1  6  0  0  0
 45 42  1  0  0  0  0
 45 41  1  0  0  0  0
 46 53  1  6  0  0  0
 47 46  1  0  0  0  0
 49 47  1  0  0  0  0
 50 46  1  0  0  0  0
 51 52  1  0  0  0  0
 51 49  1  1  0  0  0
 52 48  1  6  0  0  0
 52 50  1  0  0  0  0
 55 53  1  0  0  0  0
 55 54  1  0  0  0  0
M  END
>  <MODEL>
7

>  <REMARK>
 VINA RESULT:      -1.5      2.522     12.113
  Name = 
  29 active torsions:
  status: ('A' for Active; 'I' for Inactive)
    1  A    between atoms: C_1  and  C_46
    2  A    between atoms: C_2  and  C_44
    3  A    between atoms: C_2  and  C_49
    4  A    between atoms: C_3  and  C_25
    5  A    between atoms: C_5  and  O_40
    6  A    between atoms: C_5  and  C_45
    7  A    between atoms: C_8  and  O_20
    8  A    between atoms: C_8  and  C_22
    9  A    between atoms: C_12  and  C_42
   10  A    between atoms: N_13  and  C_52
   11  A    between atoms: C_16  and  C_36
   12  A    between atoms: O_20  and  C_42
   13  A    between atoms: C_22  and  O_43
   14  A    between atoms: C_25  and  C_38
   15  A    between atoms: C_26  and  C_45
   16  A    between atoms: C_27  and  C_31
   17  A    between atoms: C_27  and  C_49
   18  A    between atoms: C_27  and  O_54
   19  A    between atoms: C_28  and  C_33
   20  A    between atoms: C_28  and  C_44
   21  A    between atoms: C_31  and  C_35
   22  A    between atoms: C_32  and  C_47
   23  A    between atoms: C_33  and  C_52
   24  A    between atoms: C_35  and  C_51
   25  A    between atoms: C_36  and  C_52
   26  A    between atoms: C_37  and  O_40
   27  A    between atoms: C_41  and  C_55
   28  A    between atoms: O_43  and  C_51
   29  A    between atoms: O_54  and  C_55
                            x       y       z     vdW  Elec       q    Type
                         _______ _______ _______ _____ _____    ______ ____

>  <TORSDO>
F 29

$$$$
=
 OpenBabel11062408433D

 55 58  0  0  1  0  0  0  0  0999 V2000
  161.5200  212.2310  147.6190 C   0  0  1  0  0  3  0  0  0  0  0  0
  162.8400  212.1840  146.8630 C   0  0  0  0  0  2  0  0  0  0  0  0
  162.7030  212.8650  145.5110 C   0  0  0  0  0  2  0  0  0  0  0  0
  161.6500  213.9660  145.5470 C   0  0  0  0  0  2  0  0  0  0  0  0
  160.6180  213.8480  144.4290 C   0  0  0  0  0  2  0  0  0  0  0  0
  161.0530  212.8360  143.3790 C   0  0  0  0  0  2  0  0  0  0  0  0
  160.8950  213.3990  141.9740 C   0  0  1  0  0  3  0  0  0  0  0  0
  162.1850  213.6440  141.3300 N   0  0  0  0  0  0  0  0  0  0  0  0
  163.8450  213.7280  139.8910 C   0  0  0  0  0  0  0  0  0  0  0  0
  163.1770  214.3650  141.8860 C   0  0  0  0  0  3  0  0  0  0  0  0
  164.2440  214.4380  141.0090 C   0  0  0  0  0  3  0  0  0  0  0  0
  162.5670  213.2460  140.1020 C   0  0  0  0  0  3  0  0  0  0  0  0
  164.2530  213.9660  137.5740 O   0  0  0  0  0  0  0  0  0  0  0  0
  165.8570  212.8370  138.7480 O   0  0  0  0  0  1  0  0  0  0  0  0
  164.6510  213.5210  138.6820 C   0  0  0  0  0  0  0  0  0  0  0  0
  160.0270  212.4610  141.1400 C   0  0  0  0  0  2  0  0  0  0  0  0
  156.5830  213.1600  139.6360 C   0  0  0  0  0  3  0  0  0  0  0  0
  156.0700  214.0690  140.5620 C   0  0  0  0  0  3  0  0  0  0  0  0
  158.6510  213.0160  140.9090 C   0  0  0  0  0  0  0  0  0  0  0  0
  158.1140  213.9130  141.8440 C   0  0  0  0  0  3  0  0  0  0  0  0
  156.8330  214.4410  141.6680 C   0  0  0  0  0  3  0  0  0  0  0  0
  157.8640  212.6180  139.7990 C   0  0  0  0  0  0  0  0  0  0  0  0
  158.1600  212.1440  137.3670 C   0  0  0  0  0  1  0  0  0  0  0  0
  158.3180  211.6120  138.7810 C   0  0  2  0  0  3  0  0  0  0  0  0
  157.6200  210.2730  138.9570 C   0  0  0  0  0  2  0  0  0  0  0  0
  157.7450  209.5100  137.7950 O   0  0  0  0  0  0  0  0  0  0  0  0
  155.4950  209.1840  137.7030 O   0  0  0  0  0  1  0  0  0  0  0  0
  156.5830  209.7870  137.0770 C   0  0  0  0  0  2  0  0  0  0  0  0
  160.5220  212.8470  146.8530 O   0  0  0  0  0  0  0  0  0  0  0  0
  159.6840  213.4730  147.7800 C   0  0  0  0  0  2  0  0  0  0  0  0
  160.4650  213.7880  150.0050 O   0  0  0  0  0  1  0  0  0  0  0  0
  160.5120  214.3270  148.7200 C   0  0  0  0  0  2  0  0  0  0  0  0
  161.1080  210.8220  148.0580 C   0  0  0  0  0  2  0  0  0  0  0  0
  161.8650  210.2870  149.2740 C   0  0  0  0  0  2  0  0  0  0  0  0
  161.5530  208.8230  149.5630 C   0  0  0  0  0  2  0  0  0  0  0  0
  161.1460  208.6620  150.8900 O   0  0  0  0  0  0  0  0  0  0  0  0
  162.3250  208.4560  151.6110 C   0  0  0  0  0  2  0  0  0  0  0  0
  161.9960  207.9330  152.9980 C   0  0  0  0  0  2  0  0  0  0  0  0
  160.9080  208.6310  153.5320 O   0  0  0  0  0  0  0  0  0  0  0  0
  161.1480  208.6970  154.9080 C   0  0  0  0  0  2  0  0  0  0  0  0
  160.7000  211.1220  154.5210 C   0  0  2  0  0  3  0  0  0  0  0  0
  161.1840  211.9190  156.8180 O   0  0  0  0  0  1  0  0  0  0  0  0
  160.5240  209.9580  155.4950 C   0  0  2  0  0  3  0  0  0  0  0  0
  163.0300  210.8020  155.5690 C   0  0  0  0  0  1  0  0  0  0  0  0
  161.5440  211.0490  155.7860 C   0  0  1  0  0  0  0  0  0  0  0  0
  157.0560  213.3390  153.9340 C   0  0  1  0  0  3  0  0  0  0  0  0
  158.4940  213.8720  153.8060 C   0  0  0  0  0  2  0  0  0  0  0  0
  157.9300  211.3390  156.4400 C   0  0  0  0  0  1  0  0  0  0  0  0
  159.3860  212.8380  153.4820 O   0  0  0  0  0  0  0  0  0  0  0  0
  157.0250  211.8180  154.1520 C   0  0  0  0  0  2  0  0  0  0  0  0
  159.5160  212.0740  154.6530 C   0  0  1  0  0  3  0  0  0  0  0  0
  158.2260  211.2910  154.9530 C   0  0  1  0  0  3  0  0  0  0  0  0
  156.3260  214.0480  155.0650 C   0  0  0  0  0  2  0  0  0  0  0  0
  154.5390  214.1170  153.3470 C   0  0  0  0  0  1  0  0  0  0  0  0
  154.8260  214.0180  154.8320 C   0  0  0  0  0  2  0  0  0  0  0  0
  1  2  1  6  0  0  0
  1 33  1  0  0  0  0
  3  4  1  0  0  0  0
  3  2  1  0  0  0  0
  5  4  1  0  0  0  0
  6  5  1  0  0  0  0
  7 16  1  6  0  0  0
  7  6  1  0  0  0  0
  8 10  1  0  0  0  0
  8  7  1  0  0  0  0
  9 12  2  0  0  0  0
  9 11  1  0  0  0  0
 11 10  2  0  0  0  0
 12  8  1  0  0  0  0
 13 15  2  0  0  0  0
 15 14  1  0  0  0  0
 15  9  1  0  0  0  0
 17 22  2  0  0  0  0
 17 18  1  0  0  0  0
 18 21  2  0  0  0  0
 19 16  1  0  0  0  0
 19 20  2  0  0  0  0
 21 20  1  0  0  0  0
 22 19  1  0  0  0  0
 24 23  1  6  0  0  0
 24 25  1  0  0  0  0
 24 22  1  0  0  0  0
 26 25  1  0  0  0  0
 28 27  1  0  0  0  0
 28 26  1  0  0  0  0
 29  1  1  0  0  0  0
 29 30  1  0  0  0  0
 30 32  1  0  0  0  0
 32 31  1  0  0  0  0
 33 34  1  0  0  0  0
 34 35  1  0  0  0  0
 35 36  1  0  0  0  0
 36 37  1  0  0  0  0
 37 38  1  0  0  0  0
 38 39  1  0  0  0  0
 39 40  1  0  0  0  0
 41 51  1  1  0  0  0
 41 43  1  0  0  0  0
 41 45  1  0  0  0  0
 43 40  1  6  0  0  0
 43 45  1  0  0  0  0
 45 44  1  6  0  0  0
 45 42  1  0  0  0  0
 46 50  1  0  0  0  0
 46 53  1  1  0  0  0
 47 46  1  0  0  0  0
 49 47  1  0  0  0  0
 50 52  1  0  0  0  0
 51 49  1  6  0  0  0
 51 52  1  0  0  0  0
 52 48  1  1  0  0  0
 54 55  1  0  0  0  0
 55 53  1  0  0  0  0
M  END
>  <MODEL>
8

>  <REMARK>
 VINA RESULT:      -1.4      3.334     12.368
  Name = 
  29 active torsions:
  status: ('A' for Active; 'I' for Inactive)
    1  A    between atoms: C_1  and  C_46
    2  A    between atoms: C_2  and  C_44
    3  A    between atoms: C_2  and  C_49
    4  A    between atoms: C_3  and  C_25
    5  A    between atoms: C_5  and  O_40
    6  A    between atoms: C_5  and  C_45
    7  A    between atoms: C_8  and  O_20
    8  A    between atoms: C_8  and  C_22
    9  A    between atoms: C_12  and  C_42
   10  A    between atoms: N_13  and  C_52
   11  A    between atoms: C_16  and  C_36
   12  A    between atoms: O_20  and  C_42
   13  A    between atoms: C_22  and  O_43
   14  A    between atoms: C_25  and  C_38
   15  A    between atoms: C_26  and  C_45
   16  A    between atoms: C_27  and  C_31
   17  A    between atoms: C_27  and  C_49
   18  A    between atoms: C_27  and  O_54
   19  A    between atoms: C_28  and  C_33
   20  A    between atoms: C_28  and  C_44
   21  A    between atoms: C_31  and  C_35
   22  A    between atoms: C_32  and  C_47
   23  A    between atoms: C_33  and  C_52
   24  A    between atoms: C_35  and  C_51
   25  A    between atoms: C_36  and  C_52
   26  A    between atoms: C_37  and  O_40
   27  A    between atoms: C_41  and  C_55
   28  A    between atoms: O_43  and  C_51
   29  A    between atoms: O_54  and  C_55
                            x       y       z     vdW  Elec       q    Type
                         _______ _______ _______ _____ _____    ______ ____

>  <TORSDO>
F 29

$$$$
=
 OpenBabel11062408433D

 55 58  0  0  1  0  0  0  0  0999 V2000
  161.6080  205.6060  144.9610 C   0  0  1  0  0  3  0  0  0  0  0  0
  161.9300  205.3750  143.4920 C   0  0  0  0  0  2  0  0  0  0  0  0
  161.5630  206.5990  142.6680 C   0  0  0  0  0  2  0  0  0  0  0  0
  161.8640  206.3860  141.1890 C   0  0  0  0  0  2  0  0  0  0  0  0
  162.2910  207.6640  140.4740 C   0  0  0  0  0  2  0  0  0  0  0  0
  161.1110  208.3330  139.7840 C   0  0  0  0  0  2  0  0  0  0  0  0
  160.9800  209.7890  140.2080 C   0  0  1  0  0  3  0  0  0  0  0  0
  162.0830  210.6090  139.7100 N   0  0  0  0  0  0  0  0  0  0  0  0
  163.5180  212.2420  139.3750 C   0  0  0  0  0  0  0  0  0  0  0  0
  163.0120  210.1700  138.8390 C   0  0  0  0  0  3  0  0  0  0  0  0
  163.9340  211.1740  138.6000 C   0  0  0  0  0  3  0  0  0  0  0  0
  162.3740  211.8760  140.0610 C   0  0  0  0  0  3  0  0  0  0  0  0
  164.8990  213.9480  138.4970 O   0  0  0  0  0  0  0  0  0  0  0  0
  164.0330  214.3500  140.5750 O   0  0  0  0  0  1  0  0  0  0  0  0
  164.1840  213.5470  139.4520 C   0  0  0  0  0  0  0  0  0  0  0  0
  159.6300  210.3360  139.7510 C   0  0  0  0  0  2  0  0  0  0  0  0
  159.5160  214.1190  139.2090 C   0  0  0  0  0  3  0  0  0  0  0  0
  160.0430  214.2160  137.9200 C   0  0  0  0  0  3  0  0  0  0  0  0
  159.7520  211.6980  139.1300 C   0  0  0  0  0  0  0  0  0  0  0  0
  160.3020  211.8140  137.8450 C   0  0  0  0  0  3  0  0  0  0  0  0
  160.4410  213.0660  137.2410 C   0  0  0  0  0  3  0  0  0  0  0  0
  159.3730  212.8710  139.8300 C   0  0  0  0  0  0  0  0  0  0  0  0
  158.0700  214.1340  141.5430 C   0  0  0  0  0  1  0  0  0  0  0  0
  158.8400  212.8620  141.2350 C   0  0  2  0  0  3  0  0  0  0  0  0
  159.9390  212.6110  142.2550 C   0  0  0  0  0  2  0  0  0  0  0  0
  160.1730  213.7650  143.0030 O   0  0  0  0  0  0  0  0  0  0  0  0
  160.0330  212.6040  144.9550 O   0  0  0  0  0  1  0  0  0  0  0  0
  159.4270  213.5780  144.1650 C   0  0  0  0  0  2  0  0  0  0  0  0
  160.3540  205.0780  145.2920 O   0  0  0  0  0  0  0  0  0  0  0  0
  160.1500  204.0280  144.3940 C   0  0  0  0  0  2  0  0  0  0  0  0
  159.5370  201.7290  144.3340 O   0  0  0  0  0  1  0  0  0  0  0  0
  160.0910  202.7150  145.1510 C   0  0  0  0  0  2  0  0  0  0  0  0
  162.7170  205.0260  145.8460 C   0  0  0  0  0  2  0  0  0  0  0  0
  162.3850  204.9840  147.3370 C   0  0  0  0  0  2  0  0  0  0  0  0
  161.9790  206.3470  147.8880 C   0  0  0  0  0  2  0  0  0  0  0  0
  161.7050  206.2600  149.2560 O   0  0  0  0  0  0  0  0  0  0  0  0
  161.0550  207.4550  149.5750 C   0  0  0  0  0  2  0  0  0  0  0  0
  161.2570  207.7750  151.0450 C   0  0  0  0  0  2  0  0  0  0  0  0
  162.6040  208.0550  151.2990 O   0  0  0  0  0  0  0  0  0  0  0  0
  162.6420  209.4070  151.6530 C   0  0  0  0  0  2  0  0  0  0  0  0
  161.4340  211.5820  151.4420 C   0  0  2  0  0  3  0  0  0  0  0  0
  159.3640  210.9280  152.6380 O   0  0  0  0  0  1  0  0  0  0  0  0
  161.2920  210.0620  151.3870 C   0  0  2  0  0  3  0  0  0  0  0  0
  161.5090  210.8380  153.9050 C   0  0  0  0  0  1  0  0  0  0  0  0
  160.7570  210.8350  152.5830 C   0  0  1  0  0  0  0  0  0  0  0  0
  159.2420  214.2820  148.9040 C   0  0  1  0  0  3  0  0  0  0  0  0
  158.7800  213.6970  150.2500 C   0  0  0  0  0  2  0  0  0  0  0  0
  160.8190  211.4630  148.1240 C   0  0  0  0  0  1  0  0  0  0  0  0
  159.8790  213.3670  151.0580 O   0  0  0  0  0  0  0  0  0  0  0  0
  160.7030  213.9220  148.5940 C   0  0  0  0  0  2  0  0  0  0  0  0
  160.4400  212.2180  150.4770 C   0  0  1  0  0  3  0  0  0  0  0  0
  161.1240  212.5480  149.1390 C   0  0  1  0  0  3  0  0  0  0  0  0
  158.3330  213.8090  147.7800 C   0  0  0  0  0  2  0  0  0  0  0  0
  156.3850  213.0270  149.1000 C   0  0  0  0  0  1  0  0  0  0  0  0
  156.8780  214.0760  148.1240 C   0  0  0  0  0  2  0  0  0  0  0  0
  1  2  1  6  0  0  0
  1 29  1  0  0  0  0
  1 33  1  0  0  0  0
  3  2  1  0  0  0  0
  4  3  1  0  0  0  0
  5  4  1  0  0  0  0
  6  7  1  0  0  0  0
  6  5  1  0  0  0  0
  7 16  1  6  0  0  0
  8 12  1  0  0  0  0
  8  7  1  0  0  0  0
  9 15  1  0  0  0  0
  9 12  2  0  0  0  0
 10  8  1  0  0  0  0
 11 10  2  0  0  0  0
 11  9  1  0  0  0  0
 13 15  2  0  0  0  0
 15 14  1  0  0  0  0
 17 22  1  0  0  0  0
 18 17  2  0  0  0  0
 19 16  1  0  0  0  0
 19 22  2  0  0  0  0
 20 19  1  0  0  0  0
 21 20  2  0  0  0  0
 21 18  1  0  0  0  0
 22 24  1  0  0  0  0
 24 23  1  1  0  0  0
 24 25  1  0  0  0  0
 25 26  1  0  0  0  0
 26 28  1  0  0  0  0
 28 27  1  0  0  0  0
 30 32  1  0  0  0  0
 30 29  1  0  0  0  0
 31 32  1  0  0  0  0
 33 34  1  0  0  0  0
 34 35  1  0  0  0  0
 35 36  1  0  0  0  0
 36 37  1  0  0  0  0
 37 38  1  0  0  0  0
 38 39  1  0  0  0  0
 39 40  1  0  0  0  0
 41 51  1  6  0  0  0
 41 45  1  0  0  0  0
 43 41  1  0  0  0  0
 43 40  1  1  0  0  0
 43 45  1  0  0  0  0
 45 42  1  0  0  0  0
 45 44  1  1  0  0  0
 46 53  1  6  0  0  0
 46 47  1  0  0  0  0
 47 49  1  0  0  0  0
 50 46  1  0  0  0  0
 50 52  1  0  0  0  0
 51 49  1  1  0  0  0
 52 48  1  6  0  0  0
 52 51  1  0  0  0  0
 53 55  1  0  0  0  0
 55 54  1  0  0  0  0
M  END
>  <MODEL>
9

>  <REMARK>
 VINA RESULT:      -1.4      2.521     11.162
  Name = 
  29 active torsions:
  status: ('A' for Active; 'I' for Inactive)
    1  A    between atoms: C_1  and  C_46
    2  A    between atoms: C_2  and  C_44
    3  A    between atoms: C_2  and  C_49
    4  A    between atoms: C_3  and  C_25
    5  A    between atoms: C_5  and  O_40
    6  A    between atoms: C_5  and  C_45
    7  A    between atoms: C_8  and  O_20
    8  A    between atoms: C_8  and  C_22
    9  A    between atoms: C_12  and  C_42
   10  A    between atoms: N_13  and  C_52
   11  A    between atoms: C_16  and  C_36
   12  A    between atoms: O_20  and  C_42
   13  A    between atoms: C_22  and  O_43
   14  A    between atoms: C_25  and  C_38
   15  A    between atoms: C_26  and  C_45
   16  A    between atoms: C_27  and  C_31
   17  A    between atoms: C_27  and  C_49
   18  A    between atoms: C_27  and  O_54
   19  A    between atoms: C_28  and  C_33
   20  A    between atoms: C_28  and  C_44
   21  A    between atoms: C_31  and  C_35
   22  A    between atoms: C_32  and  C_47
   23  A    between atoms: C_33  and  C_52
   24  A    between atoms: C_35  and  C_51
   25  A    between atoms: C_36  and  C_52
   26  A    between atoms: C_37  and  O_40
   27  A    between atoms: C_41  and  C_55
   28  A    between atoms: O_43  and  C_51
   29  A    between atoms: O_54  and  C_55
                            x       y       z     vdW  Elec       q    Type
                         _______ _______ _______ _____ _____    ______ ____

>  <TORSDO>
F 29

$$$$
