=
 OpenBabel11052423123D

 27 31  0  0  1  0  0  0  0  0999 V2000
  160.2070  211.2120  152.2650 C   0  0  0  0  0  2  0  0  0  0  0  0
  161.3460  209.2290  151.2450 C   0  0  0  0  0  0  0  0  0  0  0  0
  161.0900  208.9150  153.7080 N   0  0  0  0  0  2  0  0  0  0  0  0
  161.4840  205.1080  150.6800 C   0  0  0  0  0  3  0  0  0  0  0  0
  161.3580  202.7620  151.5300 C   0  0  0  0  0  1  0  0  0  0  0  0
  161.5620  208.6630  150.0250 N   0  0  0  0  0  0  0  0  0  0  0  0
  161.0610  206.1140  153.2590 C   0  0  0  0  0  3  0  0  0  0  0  0
  160.7960  209.5890  156.4600 C   0  0  0  0  0  2  0  0  0  0  0  0
  161.1040  204.7330  153.0430 C   0  0  0  0  0  3  0  0  0  0  0  0
  159.6220  210.5410  156.6400 C   0  0  0  0  0  2  0  0  0  0  0  0
  161.2240  207.0020  152.1850 C   0  0  0  0  0  0  0  0  0  0  0  0
  161.1900  210.6570  151.3370 N   0  0  0  0  0  0  0  0  0  0  0  0
  161.3130  204.2310  151.7550 C   0  0  0  0  0  0  0  0  0  0  0  0
  161.4390  206.4880  150.8920 C   0  0  0  0  0  0  0  0  0  0  0  0
  160.8140  211.4070  153.6460 C   0  0  1  0  0  3  0  0  0  0  0  0
  161.2040  208.3910  152.3750 C   0  0  0  0  0  0  0  0  0  0  0  0
  161.9320  210.2050  155.6410 C   0  0  0  0  0  2  0  0  0  0  0  0
  161.6130  207.3420  149.8530 N   0  0  0  0  0  0  0  0  0  0  0  0
  158.9580  210.8850  155.3150 C   0  0  0  0  0  2  0  0  0  0  0  0
  159.7680  211.9650  154.6160 C   0  0  0  0  0  2  0  0  0  0  0  0
  161.6400  210.1990  154.1360 C   0  0  1  0  0  3  0  0  0  0  0  0
  162.0160  212.7400  147.7750 C   0  0  0  0  0  2  0  0  0  0  0  0
  161.7380  211.5070  150.2830 C   0  0  2  0  0  3  0  0  0  0  0  0
  160.8450  212.7260  150.0390 C   0  0  0  0  0  2  0  0  0  0  0  0
  161.3870  213.5830  148.8920 C   0  0  0  0  0  2  0  0  0  0  0  0
  161.4950  211.3740  147.7960 N   0  0  0  0  0  2  0  0  0  0  0  0
  161.9940  210.6960  148.9970 C   0  0  0  0  0  2  0  0  0  0  0  0
  2 12  1  0  0  0  0
  2 16  1  0  0  0  0
  3 21  1  0  0  0  0
  4 14  1  0  0  0  0
  4 13  2  0  0  0  0
  5 13  1  0  0  0  0
  6  2  2  0  0  0  0
  8 10  1  0  0  0  0
  9  7  2  0  0  0  0
 11 16  2  0  0  0  0
 11  7  1  0  0  0  0
 12  1  1  0  0  0  0
 13  9  1  0  0  0  0
 14 11  1  0  0  0  0
 15  1  1  6  0  0  0
 15 21  1  0  0  0  0
 15 20  1  0  0  0  0
 16  3  1  0  0  0  0
 17  8  1  0  0  0  0
 18  6  1  0  0  0  0
 18 14  2  0  0  0  0
 19 10  1  0  0  0  0
 20 19  1  0  0  0  0
 21 17  1  1  0  0  0
 22 26  1  0  0  0  0
 22 25  1  0  0  0  0
 23 27  1  6  0  0  0
 23 12  1  0  0  0  0
 24 23  1  0  0  0  0
 25 24  1  0  0  0  0
 26 27  1  0  0  0  0
M  END
>  <MODEL>
1

>  <REMARK>
 VINA RESULT:      -8.1      0.000      0.000
  Name = 
  1 active torsions:
  status: ('A' for Active; 'I' for Inactive)
    1  A    between atoms: C_9  and  N_15
                            x       y       z     vdW  Elec       q    Type
                         _______ _______ _______ _____ _____    ______ ____

>  <TORSDO>
F 1

$$$$
=
 OpenBabel11052423123D

 27 31  0  0  1  0  0  0  0  0999 V2000
  161.9520  209.0460  153.2790 C   0  0  0  0  0  2  0  0  0  0  0  0
  161.7080  209.5170  150.8330 C   0  0  0  0  0  0  0  0  0  0  0  0
  160.4830  211.2280  152.1730 N   0  0  0  0  0  2  0  0  0  0  0  0
  162.0930  212.1950  147.6690 C   0  0  0  0  0  3  0  0  0  0  0  0
  161.7900  214.4530  146.6460 C   0  0  0  0  0  1  0  0  0  0  0  0
  162.2720  209.1700  149.6420 N   0  0  0  0  0  0  0  0  0  0  0  0
  160.8820  213.0570  150.0420 C   0  0  0  0  0  3  0  0  0  0  0  0
  159.0790  212.3860  154.3660 C   0  0  0  0  0  2  0  0  0  0  0  0
  161.0290  213.9410  148.9690 C   0  0  0  0  0  3  0  0  0  0  0  0
  159.8850  212.2190  155.6470 C   0  0  0  0  0  2  0  0  0  0  0  0
  161.3440  211.7370  149.9390 C   0  0  0  0  0  0  0  0  0  0  0  0
  161.7230  208.5710  151.9160 N   0  0  0  0  0  0  0  0  0  0  0  0
  161.6350  213.5110  147.7850 C   0  0  0  0  0  0  0  0  0  0  0  0
  161.9500  211.3100  148.7410 C   0  0  0  0  0  0  0  0  0  0  0  0
  160.6420  209.4530  153.9390 C   0  0  1  0  0  3  0  0  0  0  0  0
  161.1940  210.8240  150.9930 C   0  0  0  0  0  0  0  0  0  0  0  0
  158.6170  211.0490  153.7840 C   0  0  0  0  0  2  0  0  0  0  0  0
  162.3840  210.0310  148.6300 N   0  0  0  0  0  0  0  0  0  0  0  0
  161.1850  211.4660  155.4080 C   0  0  0  0  0  2  0  0  0  0  0  0
  160.8980  209.9740  155.3570 C   0  0  0  0  0  2  0  0  0  0  0  0
  159.7360  210.3160  153.0360 C   0  0  1  0  0  3  0  0  0  0  0  0
  161.3770  204.3820  151.7100 C   0  0  0  0  0  2  0  0  0  0  0  0
  161.8640  207.1460  151.6230 C   0  0  2  0  0  3  0  0  0  0  0  0
  160.7100  206.6480  150.7500 C   0  0  0  0  0  2  0  0  0  0  0  0
  160.8250  205.1430  150.4960 C   0  0  0  0  0  2  0  0  0  0  0  0
  161.1610  205.1400  152.9410 N   0  0  0  0  0  2  0  0  0  0  0  0
  162.0180  206.3290  152.9210 C   0  0  0  0  0  2  0  0  0  0  0  0
  2 16  1  0  0  0  0
  2 12  1  0  0  0  0
  3 21  1  0  0  0  0
  4 13  2  0  0  0  0
  4 14  1  0  0  0  0
  5 13  1  0  0  0  0
  6  2  2  0  0  0  0
  8 10  1  0  0  0  0
  9  7  2  0  0  0  0
 11  7  1  0  0  0  0
 11 16  2  0  0  0  0
 12  1  1  0  0  0  0
 13  9  1  0  0  0  0
 14 11  1  0  0  0  0
 15  1  1  6  0  0  0
 15 20  1  0  0  0  0
 16  3  1  0  0  0  0
 17  8  1  0  0  0  0
 18 14  2  0  0  0  0
 18  6  1  0  0  0  0
 19 10  1  0  0  0  0
 20 19  1  0  0  0  0
 21 17  1  1  0  0  0
 21 15  1  0  0  0  0
 22 26  1  0  0  0  0
 23 24  1  1  0  0  0
 23 12  1  0  0  0  0
 23 27  1  0  0  0  0
 25 24  1  0  0  0  0
 25 22  1  0  0  0  0
 27 26  1  0  0  0  0
M  END
>  <MODEL>
2

>  <REMARK>
 VINA RESULT:      -7.5      1.329      5.933
  Name = 
  1 active torsions:
  status: ('A' for Active; 'I' for Inactive)
    1  A    between atoms: C_9  and  N_15
                            x       y       z     vdW  Elec       q    Type
                         _______ _______ _______ _____ _____    ______ ____

>  <TORSDO>
F 1

$$$$
=
 OpenBabel11052423123D

 27 31  0  0  1  0  0  0  0  0999 V2000
  161.0040  210.7820  154.2230 C   0  0  0  0  0  2  0  0  0  0  0  0
  161.1710  210.6430  151.7290 C   0  0  0  0  0  0  0  0  0  0  0  0
  159.4830  212.3560  152.3930 N   0  0  0  0  0  2  0  0  0  0  0  0
  161.7770  212.5750  148.0910 C   0  0  0  0  0  3  0  0  0  0  0  0
  161.3610  214.4530  146.4990 C   0  0  0  0  0  1  0  0  0  0  0  0
  161.9970  210.1490  150.7640 N   0  0  0  0  0  0  0  0  0  0  0  0
  160.0220  213.7060  149.9580 C   0  0  0  0  0  3  0  0  0  0  0  0
  157.5340  213.6960  153.9830 C   0  0  0  0  0  2  0  0  0  0  0  0
  160.2470  214.3400  148.7320 C   0  0  0  0  0  3  0  0  0  0  0  0
  158.0940  213.9680  155.3720 C   0  0  0  0  0  2  0  0  0  0  0  0
  160.6770  212.5030  150.2610 C   0  0  0  0  0  0  0  0  0  0  0  0
  161.1110  209.9810  153.0050 N   0  0  0  0  0  0  0  0  0  0  0  0
  161.1240  213.7760  147.8010 C   0  0  0  0  0  0  0  0  0  0  0  0
  161.5560  211.9390  149.3170 C   0  0  0  0  0  0  0  0  0  0  0  0
  159.5470  211.0790  154.5510 C   0  0  1  0  0  3  0  0  0  0  0  0
  160.4570  211.8360  151.4750 C   0  0  0  0  0  0  0  0  0  0  0  0
  157.3850  212.2010  153.6920 C   0  0  0  0  0  2  0  0  0  0  0  0
  162.1790  210.7690  149.5980 N   0  0  0  0  0  0  0  0  0  0  0  0
  159.5080  213.4320  155.5320 C   0  0  0  0  0  2  0  0  0  0  0  0
  159.4490  211.9400  155.8140 C   0  0  0  0  0  2  0  0  0  0  0  0
  158.7190  211.5370  153.3330 C   0  0  1  0  0  3  0  0  0  0  0  0
  161.3180  205.8230  153.6180 C   0  0  0  0  0  2  0  0  0  0  0  0
  161.5050  208.5780  153.1050 C   0  0  2  0  0  3  0  0  0  0  0  0
  160.8430  207.7410  152.0080 C   0  0  0  0  0  2  0  0  0  0  0  0
  161.2070  206.2610  152.1510 C   0  0  0  0  0  2  0  0  0  0  0  0
  160.5610  206.7200  154.4890 N   0  0  0  0  0  2  0  0  0  0  0  0
  161.2260  208.0260  154.5170 C   0  0  0  0  0  2  0  0  0  0  0  0
  2 12  1  0  0  0  0
  3 21  1  0  0  0  0
  4 14  1  0  0  0  0
  5 13  1  0  0  0  0
  6  2  2  0  0  0  0
  7 11  1  0  0  0  0
  8 10  1  0  0  0  0
  9  7  2  0  0  0  0
 10 19  1  0  0  0  0
 11 16  2  0  0  0  0
 12 23  1  0  0  0  0
 12  1  1  0  0  0  0
 13  4  2  0  0  0  0
 13  9  1  0  0  0  0
 14 18  2  0  0  0  0
 14 11  1  0  0  0  0
 15  1  1  6  0  0  0
 15 20  1  0  0  0  0
 16  2  1  0  0  0  0
 16  3  1  0  0  0  0
 17  8  1  0  0  0  0
 18  6  1  0  0  0  0
 19 20  1  0  0  0  0
 21 17  1  1  0  0  0
 21 15  1  0  0  0  0
 22 26  1  0  0  0  0
 23 24  1  6  0  0  0
 23 27  1  0  0  0  0
 24 25  1  0  0  0  0
 25 22  1  0  0  0  0
 26 27  1  0  0  0  0
M  END
>  <MODEL>
3

>  <REMARK>
 VINA RESULT:      -7.0      1.631      6.179
  Name = 
  1 active torsions:
  status: ('A' for Active; 'I' for Inactive)
    1  A    between atoms: C_9  and  N_15
                            x       y       z     vdW  Elec       q    Type
                         _______ _______ _______ _____ _____    ______ ____

>  <TORSDO>
F 1

$$$$
=
 OpenBabel11052423123D

 27 31  0  0  1  0  0  0  0  0999 V2000
  162.7120  208.8790  148.6330 C   0  0  0  0  0  2  0  0  0  0  0  0
  161.6620  209.5890  150.7920 C   0  0  0  0  0  0  0  0  0  0  0  0
  161.1780  207.1830  150.3390 N   0  0  0  0  0  2  0  0  0  0  0  0
  161.1670  208.9730  154.8790 C   0  0  0  0  0  3  0  0  0  0  0  0
  160.7520  207.4950  156.8490 C   0  0  0  0  0  1  0  0  0  0  0  0
  161.7250  210.6030  151.7000 N   0  0  0  0  0  0  0  0  0  0  0  0
  160.9760  206.7860  153.1400 C   0  0  0  0  0  3  0  0  0  0  0  0
  160.7750  204.7820  148.8580 C   0  0  0  0  0  2  0  0  0  0  0  0
  160.8210  206.6030  154.5180 C   0  0  0  0  0  3  0  0  0  0  0  0
  161.9630  204.5320  147.9390 C   0  0  0  0  0  2  0  0  0  0  0  0
  161.2330  208.0640  152.6220 C   0  0  0  0  0  0  0  0  0  0  0  0
  161.9650  209.8640  149.4130 N   0  0  0  0  0  0  0  0  0  0  0  0
  160.9180  207.6940  155.3860 C   0  0  0  0  0  0  0  0  0  0  0  0
  161.3250  209.1590  153.5030 C   0  0  0  0  0  0  0  0  0  0  0  0
  161.7730  207.8630  147.9990 C   0  0  1  0  0  3  0  0  0  0  0  0
  161.3750  208.2810  151.2440 C   0  0  0  0  0  0  0  0  0  0  0  0
  160.0010  206.0480  148.4850 C   0  0  0  0  0  2  0  0  0  0  0  0
  161.5570  210.3990  153.0060 N   0  0  0  0  0  0  0  0  0  0  0  0
  163.0080  205.6330  148.0450 C   0  0  0  0  0  2  0  0  0  0  0  0
  162.5690  206.8220  147.2060 C   0  0  0  0  0  2  0  0  0  0  0  0
  160.6980  207.3260  148.9660 C   0  0  1  0  0  3  0  0  0  0  0  0
  162.1520  213.4460  147.2120 C   0  0  0  0  0  2  0  0  0  0  0  0
  161.8450  211.2310  148.9110 C   0  0  2  0  0  3  0  0  0  0  0  0
  160.8770  211.2990  147.7270 C   0  0  0  0  0  2  0  0  0  0  0  0
  160.8000  212.7200  147.1620 C   0  0  0  0  0  2  0  0  0  0  0  0
  163.2550  212.4900  147.2720 N   0  0  0  0  0  2  0  0  0  0  0  0
  163.2300  211.8190  148.5750 C   0  0  0  0  0  2  0  0  0  0  0  0
  1 12  1  0  0  0  0
  2 16  2  0  0  0  0
  2  6  1  0  0  0  0
  3 16  1  0  0  0  0
  4 13  1  0  0  0  0
  6 18  2  0  0  0  0
  7  9  1  0  0  0  0
  9 13  2  0  0  0  0
 10 19  1  0  0  0  0
 10  8  1  0  0  0  0
 11  7  2  0  0  0  0
 11 14  1  0  0  0  0
 12  2  1  0  0  0  0
 13  5  1  0  0  0  0
 14  4  2  0  0  0  0
 15 20  1  1  0  0  0
 15  1  1  0  0  0  0
 15 21  1  0  0  0  0
 16 11  1  0  0  0  0
 17  8  1  0  0  0  0
 18 14  1  0  0  0  0
 20 19  1  0  0  0  0
 21 17  1  6  0  0  0
 21  3  1  0  0  0  0
 22 26  1  0  0  0  0
 23 24  1  6  0  0  0
 23 12  1  0  0  0  0
 25 22  1  0  0  0  0
 25 24  1  0  0  0  0
 26 27  1  0  0  0  0
 27 23  1  0  0  0  0
M  END
>  <MODEL>
4

>  <REMARK>
 VINA RESULT:      -6.9      1.947      5.312
  Name = 
  1 active torsions:
  status: ('A' for Active; 'I' for Inactive)
    1  A    between atoms: C_9  and  N_15
                            x       y       z     vdW  Elec       q    Type
                         _______ _______ _______ _____ _____    ______ ____

>  <TORSDO>
F 1

$$$$
=
 OpenBabel11052423123D

 27 31  0  0  1  0  0  0  0  0999 V2000
  160.4440  211.0280  150.9460 C   0  0  0  0  0  2  0  0  0  0  0  0
  161.4510  208.8740  150.1620 C   0  0  0  0  0  0  0  0  0  0  0  0
  161.3150  208.9150  152.6540 N   0  0  0  0  0  2  0  0  0  0  0  0
  161.4010  204.7120  150.1750 C   0  0  0  0  0  3  0  0  0  0  0  0
  161.2320  202.5150  151.3500 C   0  0  0  0  0  1  0  0  0  0  0  0
  161.5800  208.1360  149.0240 N   0  0  0  0  0  0  0  0  0  0  0  0
  161.1550  206.0830  152.6040 C   0  0  0  0  0  3  0  0  0  0  0  0
  161.1940  209.9750  155.2960 C   0  0  0  0  0  2  0  0  0  0  0  0
  161.1340  204.6850  152.5820 C   0  0  0  0  0  3  0  0  0  0  0  0
  160.0680  210.9950  155.3960 C   0  0  0  0  0  2  0  0  0  0  0  0
  161.2950  206.8060  151.4100 C   0  0  0  0  0  0  0  0  0  0  0  0
  161.3550  210.3060  150.0600 N   0  0  0  0  0  0  0  0  0  0  0  0
  161.2550  204.0010  151.3690 C   0  0  0  0  0  0  0  0  0  0  0  0
  161.4200  206.1090  150.1930 C   0  0  0  0  0  0  0  0  0  0  0  0
  161.1310  211.3850  152.2570 C   0  0  1  0  0  3  0  0  0  0  0  0
  161.3370  208.2080  151.4030 C   0  0  0  0  0  0  0  0  0  0  0  0
  162.3060  210.4200  154.3450 C   0  0  0  0  0  2  0  0  0  0  0  0
  161.5710  206.8020  149.0380 N   0  0  0  0  0  0  0  0  0  0  0  0
  159.3480  211.1830  154.0680 C   0  0  0  0  0  2  0  0  0  0  0  0
  160.1600  212.1180  153.1870 C   0  0  0  0  0  2  0  0  0  0  0  0
  161.9350  210.2200  152.8710 C   0  0  1  0  0  3  0  0  0  0  0  0
  162.6140  213.0580  147.1370 C   0  0  0  0  0  2  0  0  0  0  0  0
  161.8780  210.9770  148.8720 C   0  0  2  0  0  3  0  0  0  0  0  0
  163.2260  211.6400  149.1640 C   0  0  0  0  0  2  0  0  0  0  0  0
  163.7430  212.3960  147.9370 C   0  0  0  0  0  2  0  0  0  0  0  0
  161.4350  213.2700  147.9740 N   0  0  0  0  0  2  0  0  0  0  0  0
  160.8450  211.9680  148.2990 C   0  0  0  0  0  2  0  0  0  0  0  0
  2 16  1  0  0  0  0
  3 21  1  0  0  0  0
  4 14  1  0  0  0  0
  4 13  2  0  0  0  0
  5 13  1  0  0  0  0
  6 18  1  0  0  0  0
  6  2  2  0  0  0  0
  8 10  1  0  0  0  0
  9  7  2  0  0  0  0
 11  7  1  0  0  0  0
 12  2  1  0  0  0  0
 12  1  1  0  0  0  0
 13  9  1  0  0  0  0
 14 11  1  0  0  0  0
 15  1  1  6  0  0  0
 15 21  1  0  0  0  0
 15 20  1  0  0  0  0
 16 11  2  0  0  0  0
 16  3  1  0  0  0  0
 17  8  1  0  0  0  0
 18 14  2  0  0  0  0
 19 10  1  0  0  0  0
 20 19  1  0  0  0  0
 21 17  1  1  0  0  0
 22 25  1  0  0  0  0
 22 26  1  0  0  0  0
 23 27  1  1  0  0  0
 23 24  1  0  0  0  0
 23 12  1  0  0  0  0
 25 24  1  0  0  0  0
 26 27  1  0  0  0  0
M  END
>  <MODEL>
5

>  <REMARK>
 VINA RESULT:      -6.5      1.100      1.373
  Name = 
  1 active torsions:
  status: ('A' for Active; 'I' for Inactive)
    1  A    between atoms: C_9  and  N_15
                            x       y       z     vdW  Elec       q    Type
                         _______ _______ _______ _____ _____    ______ ____

>  <TORSDO>
F 1

$$$$
=
 OpenBabel11052423123D

 27 31  0  0  1  0  0  0  0  0999 V2000
  161.2860  210.3640  140.8860 C   0  0  0  0  0  2  0  0  0  0  0  0
  159.3970  211.7820  140.0570 C   0  0  0  0  0  0  0  0  0  0  0  0
  159.8540  209.9210  138.4580 N   0  0  0  0  0  2  0  0  0  0  0  0
  155.4650  212.0390  138.7130 C   0  0  0  0  0  3  0  0  0  0  0  0
  153.5640  211.2480  137.3000 C   0  0  0  0  0  1  0  0  0  0  0  0
  158.5280  212.7310  140.5060 N   0  0  0  0  0  0  0  0  0  0  0  0
  157.1330  210.0490  137.6660 C   0  0  0  0  0  3  0  0  0  0  0  0
  161.3040  207.8900  137.0830 C   0  0  0  0  0  2  0  0  0  0  0  0
  155.8070  210.1500  137.2360 C   0  0  0  0  0  3  0  0  0  0  0  0
  161.9650  206.9540  138.0850 C   0  0  0  0  0  2  0  0  0  0  0  0
  157.6340  210.9390  138.6280 C   0  0  0  0  0  0  0  0  0  0  0  0
  160.6990  211.6830  140.6600 N   0  0  0  0  0  0  0  0  0  0  0  0
  154.9740  211.1430  137.7600 C   0  0  0  0  0  0  0  0  0  0  0  0
  156.7900  211.9390  139.1480 C   0  0  0  0  0  0  0  0  0  0  0  0
  162.0560  209.8940  139.6610 C   0  0  1  0  0  3  0  0  0  0  0  0
  158.9650  210.8720  139.0650 C   0  0  0  0  0  0  0  0  0  0  0  0
  161.8620  209.3120  137.1510 C   0  0  0  0  0  2  0  0  0  0  0  0
  157.2730  212.8120  140.0650 N   0  0  0  0  0  0  0  0  0  0  0  0
  161.6960  207.3730  139.5220 C   0  0  0  0  0  2  0  0  0  0  0  0
  162.6430  208.5000  139.9010 C   0  0  0  0  0  2  0  0  0  0  0  0
  161.2980  210.1080  138.3340 C   0  0  1  0  0  3  0  0  0  0  0  0
  162.9680  214.3590  142.9830 C   0  0  0  0  0  2  0  0  0  0  0  0
  161.2610  212.8430  141.3490 C   0  0  2  0  0  3  0  0  0  0  0  0
  162.5800  213.2780  140.7080 C   0  0  0  0  0  2  0  0  0  0  0  0
  163.1990  214.4530  141.4690 C   0  0  0  0  0  2  0  0  0  0  0  0
  162.7060  212.9790  143.3860 N   0  0  0  0  0  2  0  0  0  0  0  0
  161.4000  212.5720  142.8600 C   0  0  0  0  0  2  0  0  0  0  0  0
  2  6  1  0  0  0  0
  2 12  1  0  0  0  0
  3 16  1  0  0  0  0
  4 14  1  0  0  0  0
  5 13  1  0  0  0  0
  7 11  1  0  0  0  0
  8 17  1  0  0  0  0
  8 10  1  0  0  0  0
  9  7  2  0  0  0  0
  9 13  1  0  0  0  0
 10 19  1  0  0  0  0
 11 16  1  0  0  0  0
 11 14  2  0  0  0  0
 12  1  1  0  0  0  0
 13  4  2  0  0  0  0
 14 18  1  0  0  0  0
 15 20  1  1  0  0  0
 15  1  1  0  0  0  0
 16  2  2  0  0  0  0
 18  6  2  0  0  0  0
 19 20  1  0  0  0  0
 21 17  1  6  0  0  0
 21  3  1  0  0  0  0
 21 15  1  0  0  0  0
 22 26  1  0  0  0  0
 23 12  1  6  0  0  0
 23 27  1  0  0  0  0
 24 23  1  0  0  0  0
 24 25  1  0  0  0  0
 25 22  1  0  0  0  0
 27 26  1  0  0  0  0
M  END
>  <MODEL>
6

>  <REMARK>
 VINA RESULT:      -6.5     10.425     13.955
  Name = 
  1 active torsions:
  status: ('A' for Active; 'I' for Inactive)
    1  A    between atoms: C_9  and  N_15
                            x       y       z     vdW  Elec       q    Type
                         _______ _______ _______ _____ _____    ______ ____

>  <TORSDO>
F 1

$$$$
=
 OpenBabel11052423123D

 27 31  0  0  1  0  0  0  0  0999 V2000
  161.4650  210.9070  139.1470 C   0  0  0  0  0  2  0  0  0  0  0  0
  159.0480  210.2660  139.0370 C   0  0  0  0  0  0  0  0  0  0  0  0
  159.3670  212.1900  140.5930 N   0  0  0  0  0  2  0  0  0  0  0  0
  155.0950  211.3920  138.3730 C   0  0  0  0  0  3  0  0  0  0  0  0
  153.1640  212.9430  138.6910 C   0  0  0  0  0  1  0  0  0  0  0  0
  158.1960  209.5340  138.2650 N   0  0  0  0  0  0  0  0  0  0  0  0
  156.7090  212.9900  140.0110 C   0  0  0  0  0  3  0  0  0  0  0  0
  160.6690  213.9510  142.4160 C   0  0  0  0  0  2  0  0  0  0  0  0
  155.3800  213.3520  139.7670 C   0  0  0  0  0  3  0  0  0  0  0  0
  161.9740  214.4530  141.8130 C   0  0  0  0  0  2  0  0  0  0  0  0
  157.2420  211.8280  139.4330 C   0  0  0  0  0  0  0  0  0  0  0  0
  160.4300  209.8750  139.1170 N   0  0  0  0  0  0  0  0  0  0  0  0
  154.5750  212.5550  138.9480 C   0  0  0  0  0  0  0  0  0  0  0  0
  156.4240  211.0290  138.6120 C   0  0  0  0  0  0  0  0  0  0  0  0
  161.7360  211.3640  140.5730 C   0  0  1  0  0  3  0  0  0  0  0  0
  158.5650  211.4320  139.6740 C   0  0  0  0  0  0  0  0  0  0  0  0
  160.6820  212.4420  142.6710 C   0  0  0  0  0  2  0  0  0  0  0  0
  156.9290  209.8970  138.0640 N   0  0  0  0  0  0  0  0  0  0  0  0
  162.2300  213.8620  140.4350 C   0  0  0  0  0  2  0  0  0  0  0  0
  162.8030  212.4620  140.5890 C   0  0  0  0  0  2  0  0  0  0  0  0
  160.4550  211.6290  141.3920 C   0  0  1  0  0  3  0  0  0  0  0  0
  162.3310  206.3240  137.9010 C   0  0  0  0  0  2  0  0  0  0  0  0
  160.8040  208.4950  138.8170 C   0  0  2  0  0  3  0  0  0  0  0  0
  161.8960  208.0020  139.7690 C   0  0  0  0  0  2  0  0  0  0  0  0
  162.3320  206.5780  139.4140 C   0  0  0  0  0  2  0  0  0  0  0  0
  162.4400  207.5800  137.1610 N   0  0  0  0  0  2  0  0  0  0  0  0
  161.2000  208.3410  137.3350 C   0  0  0  0  0  2  0  0  0  0  0  0
  2 12  1  0  0  0  0
  2 16  1  0  0  0  0
  3 21  1  0  0  0  0
  4 14  1  0  0  0  0
  4 13  2  0  0  0  0
  5 13  1  0  0  0  0
  6  2  2  0  0  0  0
  8 17  1  0  0  0  0
  9  7  2  0  0  0  0
 10  8  1  0  0  0  0
 11 16  2  0  0  0  0
 11  7  1  0  0  0  0
 12  1  1  0  0  0  0
 13  9  1  0  0  0  0
 14 11  1  0  0  0  0
 15  1  1  6  0  0  0
 15 20  1  0  0  0  0
 15 21  1  0  0  0  0
 16  3  1  0  0  0  0
 18  6  1  0  0  0  0
 18 14  2  0  0  0  0
 19 20  1  0  0  0  0
 19 10  1  0  0  0  0
 21 17  1  1  0  0  0
 22 25  1  0  0  0  0
 23 27  1  6  0  0  0
 23 12  1  0  0  0  0
 23 24  1  0  0  0  0
 25 24  1  0  0  0  0
 26 27  1  0  0  0  0
 26 22  1  0  0  0  0
M  END
>  <MODEL>
7

>  <REMARK>
 VINA RESULT:      -6.4     10.915     13.832
  Name = 
  1 active torsions:
  status: ('A' for Active; 'I' for Inactive)
    1  A    between atoms: C_9  and  N_15
                            x       y       z     vdW  Elec       q    Type
                         _______ _______ _______ _____ _____    ______ ____

>  <TORSDO>
F 1

$$$$
=
 OpenBabel11052423123D

 27 31  0  0  1  0  0  0  0  0999 V2000
  158.7590  214.2490  141.4560 C   0  0  0  0  0  2  0  0  0  0  0  0
  161.2330  213.8690  141.4660 C   0  0  0  0  0  0  0  0  0  0  0  0
  160.2440  213.0960  139.3090 N   0  0  0  0  0  2  0  0  0  0  0  0
  164.9260  214.4330  139.6290 C   0  0  0  0  0  3  0  0  0  0  0  0
  166.4070  214.4430  137.6180 C   0  0  0  0  0  1  0  0  0  0  0  0
  162.3450  214.2510  142.1550 N   0  0  0  0  0  0  0  0  0  0  0  0
  162.7440  213.6160  138.0760 C   0  0  0  0  0  3  0  0  0  0  0  0
  158.2930  212.1270  137.4720 C   0  0  0  0  0  2  0  0  0  0  0  0
  163.9930  213.8190  137.4800 C   0  0  0  0  0  3  0  0  0  0  0  0
  157.0500  213.0050  137.5220 C   0  0  0  0  0  2  0  0  0  0  0  0
  162.5760  213.8250  139.4530 C   0  0  0  0  0  0  0  0  0  0  0  0
  159.9690  213.8160  142.1510 N   0  0  0  0  0  0  0  0  0  0  0  0
  165.0820  214.2280  138.2550 C   0  0  0  0  0  0  0  0  0  0  0  0
  163.6790  214.2340  140.2280 C   0  0  0  0  0  0  0  0  0  0  0  0
  158.1390  213.0990  140.6750 C   0  0  1  0  0  3  0  0  0  0  0  0
  161.3410  213.6130  140.0800 C   0  0  0  0  0  0  0  0  0  0  0  0
  158.5400  211.3830  138.7860 C   0  0  0  0  0  2  0  0  0  0  0  0
  163.5260  214.4210  141.5610 N   0  0  0  0  0  0  0  0  0  0  0  0
  157.1820  214.1230  138.5450 C   0  0  0  0  0  2  0  0  0  0  0  0
  156.8870  213.5710  139.9310 C   0  0  0  0  0  2  0  0  0  0  0  0
  159.1630  212.2810  139.8610 C   0  0  1  0  0  3  0  0  0  0  0  0
  159.0130  213.0100  146.1680 C   0  0  0  0  0  2  0  0  0  0  0  0
  159.9460  213.6740  143.6050 C   0  0  2  0  0  3  0  0  0  0  0  0
  160.1220  212.2110  144.0170 C   0  0  0  0  0  2  0  0  0  0  0  0
  160.0360  212.0550  145.5380 C   0  0  0  0  0  2  0  0  0  0  0  0
  158.0210  213.4360  145.1840 N   0  0  0  0  0  2  0  0  0  0  0  0
  158.6730  214.3060  144.2000 C   0  0  0  0  0  2  0  0  0  0  0  0
  1 12  1  0  0  0  0
  2 12  1  0  0  0  0
  2  6  1  0  0  0  0
  3 21  1  0  0  0  0
  3 16  1  0  0  0  0
  4 14  1  0  0  0  0
  5 13  1  0  0  0  0
  7 11  1  0  0  0  0
  8 10  1  0  0  0  0
  8 17  1  0  0  0  0
  9  7  2  0  0  0  0
  9 13  1  0  0  0  0
 10 19  1  0  0  0  0
 11 16  1  0  0  0  0
 11 14  2  0  0  0  0
 13  4  2  0  0  0  0
 14 18  1  0  0  0  0
 15 20  1  6  0  0  0
 15  1  1  0  0  0  0
 16  2  2  0  0  0  0
 18  6  2  0  0  0  0
 19 20  1  0  0  0  0
 21 17  1  6  0  0  0
 21 15  1  0  0  0  0
 23 12  1  6  0  0  0
 23 24  1  0  0  0  0
 23 27  1  0  0  0  0
 24 25  1  0  0  0  0
 25 22  1  0  0  0  0
 26 22  1  0  0  0  0
 27 26  1  0  0  0  0
M  END
>  <MODEL>
8

>  <REMARK>
 VINA RESULT:      -5.8      8.229     13.602
  Name = 
  1 active torsions:
  status: ('A' for Active; 'I' for Inactive)
    1  A    between atoms: C_9  and  N_15
                            x       y       z     vdW  Elec       q    Type
                         _______ _______ _______ _____ _____    ______ ____

>  <TORSDO>
F 1

$$$$
=
 OpenBabel11052423123D

 27 31  0  0  1  0  0  0  0  0999 V2000
  162.2900  204.5980  148.6490 C   0  0  0  0  0  2  0  0  0  0  0  0
  161.6360  206.9470  149.2140 C   0  0  0  0  0  0  0  0  0  0  0  0
  160.9530  205.3910  151.0410 N   0  0  0  0  0  2  0  0  0  0  0  0
  161.7600  210.1270  151.8980 C   0  0  0  0  0  3  0  0  0  0  0  0
  161.5800  211.0720  154.2030 C   0  0  0  0  0  1  0  0  0  0  0  0
  161.8990  208.2260  148.8250 N   0  0  0  0  0  0  0  0  0  0  0  0
  161.1750  207.5600  152.8540 C   0  0  0  0  0  3  0  0  0  0  0  0
  160.1870  202.9630  152.3220 C   0  0  0  0  0  2  0  0  0  0  0  0
  161.2300  208.6430  153.7380 C   0  0  0  0  0  3  0  0  0  0  0  0
  161.1990  201.8690  152.0110 C   0  0  0  0  0  2  0  0  0  0  0  0
  161.4180  207.7530  151.4860 C   0  0  0  0  0  0  0  0  0  0  0  0
  161.7330  205.8870  148.2460 N   0  0  0  0  0  0  0  0  0  0  0  0
  161.5230  209.9240  153.2610 C   0  0  0  0  0  0  0  0  0  0  0  0
  161.7090  209.0460  151.0120 C   0  0  0  0  0  0  0  0  0  0  0  0
  161.2080  203.6900  149.2140 C   0  0  1  0  0  3  0  0  0  0  0  0
  161.3520  206.6890  150.5740 C   0  0  0  0  0  0  0  0  0  0  0  0
  159.4360  203.4390  151.0770 C   0  0  0  0  0  2  0  0  0  0  0  0
  161.9290  209.2410  149.6890 N   0  0  0  0  0  0  0  0  0  0  0  0
  162.3070  202.3610  151.0920 C   0  0  0  0  0  2  0  0  0  0  0  0
  161.8090  202.3530  149.6560 C   0  0  0  0  0  2  0  0  0  0  0  0
  160.2710  204.3950  150.2170 C   0  0  1  0  0  3  0  0  0  0  0  0
  161.3520  205.8050  144.0560 C   0  0  0  0  0  2  0  0  0  0  0  0
  161.6110  206.2010  146.8240 C   0  0  2  0  0  3  0  0  0  0  0  0
  160.1910  205.9340  146.3210 C   0  0  0  0  0  2  0  0  0  0  0  0
  160.0810  206.2030  144.8180 C   0  0  0  0  0  2  0  0  0  0  0  0
  162.1210  204.8130  144.8050 N   0  0  0  0  0  2  0  0  0  0  0  0
  162.6780  205.4520  146.0020 C   0  0  0  0  0  2  0  0  0  0  0  0
  2 16  1  0  0  0  0
  4 13  2  0  0  0  0
  6  2  2  0  0  0  0
  6 18  1  0  0  0  0
  7  9  2  0  0  0  0
 10  8  1  0  0  0  0
 11  7  1  0  0  0  0
 12  1  1  0  0  0  0
 12  2  1  0  0  0  0
 13  9  1  0  0  0  0
 13  5  1  0  0  0  0
 14 11  1  0  0  0  0
 14  4  1  0  0  0  0
 15  1  1  1  0  0  0
 15 20  1  0  0  0  0
 15 21  1  0  0  0  0
 16  3  1  0  0  0  0
 16 11  2  0  0  0  0
 17  8  1  0  0  0  0
 18 14  2  0  0  0  0
 19 10  1  0  0  0  0
 20 19  1  0  0  0  0
 21  3  1  0  0  0  0
 21 17  1  1  0  0  0
 22 26  1  0  0  0  0
 22 25  1  0  0  0  0
 23 27  1  6  0  0  0
 23 12  1  0  0  0  0
 24 23  1  0  0  0  0
 25 24  1  0  0  0  0
 26 27  1  0  0  0  0
M  END
>  <MODEL>
9

>  <REMARK>
 VINA RESULT:      -5.3      2.867      6.692
  Name = 
  1 active torsions:
  status: ('A' for Active; 'I' for Inactive)
    1  A    between atoms: C_9  and  N_15
                            x       y       z     vdW  Elec       q    Type
                         _______ _______ _______ _____ _____    ______ ____

>  <TORSDO>
F 1

$$$$
