=
 OpenBabel11052421443D

 30 35  0  0  1  0  0  0  0  0999 V2000
  161.2140  210.4170  153.2710 C   0  0  1  0  0  3  0  0  0  0  0  0
  161.6490  209.1620  152.5370 C   0  0  1  0  0  0  0  0  0  0  0  0
  160.2900  211.2480  152.3840 C   0  0  0  0  0  2  0  0  0  0  0  0
  162.2000  211.0190  149.1380 C   0  0  0  0  0  2  0  0  0  0  0  0
  162.4470  206.7700  151.2130 C   0  0  1  0  0  3  0  0  0  0  0  0
  161.5760  210.4310  150.3880 C   0  0  2  0  0  3  0  0  0  0  0  0
  160.6470  212.6490  150.2330 C   0  0  0  0  0  2  0  0  0  0  0  0
  161.1010  206.7260  151.9200 C   0  0  2  0  0  3  0  0  0  0  0  0
  161.1910  211.6450  151.2240 C   0  0  1  0  0  3  0  0  0  0  0  0
  162.3750  209.3530  151.1710 C   0  0  2  0  0  3  0  0  0  0  0  0
  160.1640  205.9970  150.9900 C   0  0  0  0  0  2  0  0  0  0  0  0
  162.4870  205.4940  150.3830 C   0  0  0  0  0  2  0  0  0  0  0  0
  161.4820  213.0040  148.0250 O   0  0  0  0  0  0  0  0  0  0  0  0
  161.4470  212.3020  149.0210 C   0  0  0  0  0  0  0  0  0  0  0  0
  160.6950  209.5540  154.4280 C   0  0  1  0  0  0  0  0  0  0  0  0
  161.2480  208.2890  153.7190 C   0  0  1  0  0  3  0  0  0  0  0  0
  160.5670  208.0760  152.4000 C   0  0  1  0  0  3  0  0  0  0  0  0
  161.0490  204.9920  150.2710 C   0  0  0  0  0  2  0  0  0  0  0  0
  161.8170  207.9640  149.0430 C   0  0  0  0  0  1  0  0  0  0  0  0
  162.6080  208.0420  150.3550 C   0  0  2  0  0  3  0  0  0  0  0  0
  161.4440  209.8920  155.7430 C   0  0  2  0  0  3  0  0  0  0  0  0
  162.6660  210.7410  155.5360 C   0  0  0  0  0  3  0  0  0  0  0  0
  163.5140  210.8310  156.4090 O   0  0  0  0  0  0  0  0  0  0  0  0
  161.8240  208.6500  156.5360 C   0  0  0  0  0  2  0  0  0  0  0  0
  160.7210  208.2010  157.2610 O   0  0  0  0  0  1  0  0  0  0  0  0
  159.1560  209.6620  154.6000 C   0  0  0  0  0  2  0  0  0  0  0  0
  158.6670  210.5910  155.7120 C   0  0  0  0  0  2  0  0  0  0  0  0
  157.6160  211.5320  155.2380 C   0  0  0  0  0  0  0  0  0  0  0  0
  157.9400  212.7680  154.8900 C   0  0  0  0  0  2  0  0  0  0  0  0
  156.2910  211.1210  155.1750 O   0  0  0  0  0  1  0  0  0  0  0  0
  1  3  1  6  0  0  0
  1 15  1  0  0  0  0
  2  1  1  0  0  0  0
  2 16  1  0  0  0  0
  4  6  1  0  0  0  0
  5  8  1  0  0  0  0
  6 10  1  0  0  0  0
  6  9  1  0  0  0  0
  7  9  1  0  0  0  0
  8 17  1  0  0  0  0
  9  3  1  0  0  0  0
 10  2  1  0  0  0  0
 11  8  1  0  0  0  0
 12  5  1  0  0  0  0
 13 14  2  0  0  0  0
 14  4  1  0  0  0  0
 14  7  1  0  0  0  0
 15 26  1  0  0  0  0
 15 21  1  0  0  0  0
 16 15  1  0  0  0  0
 17  2  1  0  0  0  0
 17 16  1  0  0  0  0
 18 12  1  0  0  0  0
 18 11  1  0  0  0  0
 19 20  1  0  0  0  0
 20 10  1  0  0  0  0
 20  5  1  0  0  0  0
 21 24  1  0  0  0  0
 22 21  1  0  0  0  0
 22 23  2  0  0  0  0
 24 25  1  0  0  0  0
 26 27  1  0  0  0  0
 28 27  1  0  0  0  0
 29 28  2  0  0  0  0
 30 28  1  0  0  0  0
M  END
>  <MODEL>
1

>  <REMARK>
 VINA RESULT:      -4.5      0.000      0.000
  Name = 
  6 active torsions:
  status: ('A' for Active; 'I' for Inactive)
    1  A    between atoms: C_2  and  C_14
    2  A    between atoms: C_3  and  C_19
    3  A    between atoms: C_14  and  C_20
    4  A    between atoms: C_14  and  C_22
    5  A    between atoms: C_19  and  C_29
    6  A    between atoms: C_22  and  C_29
                            x       y       z     vdW  Elec       q    Type
                         _______ _______ _______ _____ _____    ______ ____

>  <TORSDO>
F 6

$$$$
=
 OpenBabel11052421443D

 30 35  0  0  1  0  0  0  0  0999 V2000
  160.5000  211.8620  152.8150 C   0  0  1  0  0  3  0  0  0  0  0  0
  161.1730  210.5680  152.3970 C   0  0  1  0  0  0  0  0  0  0  0  0
  159.6120  212.3780  151.6850 C   0  0  0  0  0  2  0  0  0  0  0  0
  161.9530  211.8280  148.7770 C   0  0  0  0  0  2  0  0  0  0  0  0
  162.4140  208.1100  151.6710 C   0  0  1  0  0  3  0  0  0  0  0  0
  161.2400  211.3980  150.0430 C   0  0  2  0  0  3  0  0  0  0  0  0
  160.0880  213.3970  149.3500 C   0  0  0  0  0  2  0  0  0  0  0  0
  161.0010  208.0060  152.2210 C   0  0  2  0  0  3  0  0  0  0  0  0
  160.6070  212.6790  150.5740 C   0  0  1  0  0  3  0  0  0  0  0  0
  162.0470  210.6050  151.1080 C   0  0  2  0  0  3  0  0  0  0  0  0
  160.2890  206.9960  151.3590 C   0  0  0  0  0  2  0  0  0  0  0  0
  162.7140  206.7210  151.1210 C   0  0  0  0  0  2  0  0  0  0  0  0
  161.1630  213.4560  147.2200 O   0  0  0  0  0  0  0  0  0  0  0  0
  161.0780  212.9490  148.3260 C   0  0  0  0  0  0  0  0  0  0  0  0
  159.9350  211.1610  154.0570 C   0  0  1  0  0  0  0  0  0  0  0  0
  160.7220  209.8790  153.6790 C   0  0  1  0  0  3  0  0  0  0  0  0
  160.2530  209.3330  152.3620 C   0  0  1  0  0  3  0  0  0  0  0  0
  161.3730  206.0100  150.9550 C   0  0  0  0  0  2  0  0  0  0  0  0
  161.9450  208.7840  149.2510 C   0  0  0  0  0  1  0  0  0  0  0  0
  162.5400  209.2120  150.5990 C   0  0  2  0  0  3  0  0  0  0  0  0
  160.4570  211.8360  155.3510 C   0  0  2  0  0  3  0  0  0  0  0  0
  160.4600  210.9220  156.5450 C   0  0  0  0  0  3  0  0  0  0  0  0
  161.5080  210.4690  156.9760 O   0  0  0  0  0  0  0  0  0  0  0  0
  159.6970  213.1090  155.6960 C   0  0  0  0  0  2  0  0  0  0  0  0
  159.4330  213.1410  157.0640 O   0  0  0  0  0  1  0  0  0  0  0  0
  158.3850  211.0820  154.0360 C   0  0  0  0  0  2  0  0  0  0  0  0
  157.7190  210.5910  155.3220 C   0  0  0  0  0  2  0  0  0  0  0  0
  156.3050  211.0410  155.4300 C   0  0  0  0  0  0  0  0  0  0  0  0
  156.0280  212.2570  155.8740 C   0  0  0  0  0  2  0  0  0  0  0  0
  155.2720  210.1810  155.0820 O   0  0  0  0  0  1  0  0  0  0  0  0
  1  3  1  6  0  0  0
  1 15  1  0  0  0  0
  2  1  1  0  0  0  0
  2 16  1  0  0  0  0
  4  6  1  0  0  0  0
  5  8  1  0  0  0  0
  6  9  1  0  0  0  0
  6 10  1  0  0  0  0
  7  9  1  0  0  0  0
  8 17  1  0  0  0  0
  9  3  1  0  0  0  0
 10  2  1  0  0  0  0
 11  8  1  0  0  0  0
 12  5  1  0  0  0  0
 13 14  2  0  0  0  0
 14  4  1  0  0  0  0
 14  7  1  0  0  0  0
 15 21  1  0  0  0  0
 16 15  1  0  0  0  0
 17  2  1  0  0  0  0
 17 16  1  0  0  0  0
 18 12  1  0  0  0  0
 18 11  1  0  0  0  0
 19 20  1  0  0  0  0
 20 10  1  0  0  0  0
 20  5  1  0  0  0  0
 21 24  1  0  0  0  0
 21 22  1  0  0  0  0
 22 23  2  0  0  0  0
 24 25  1  0  0  0  0
 26 15  1  0  0  0  0
 26 27  1  0  0  0  0
 27 28  1  0  0  0  0
 28 29  2  0  0  0  0
 30 28  1  0  0  0  0
M  END
>  <MODEL>
2

>  <REMARK>
 VINA RESULT:      -4.4      1.468      1.952
  Name = 
  6 active torsions:
  status: ('A' for Active; 'I' for Inactive)
    1  A    between atoms: C_2  and  C_14
    2  A    between atoms: C_3  and  C_19
    3  A    between atoms: C_14  and  C_20
    4  A    between atoms: C_14  and  C_22
    5  A    between atoms: C_19  and  C_29
    6  A    between atoms: C_22  and  C_29
                            x       y       z     vdW  Elec       q    Type
                         _______ _______ _______ _____ _____    ______ ____

>  <TORSDO>
F 6

$$$$
=
 OpenBabel11052421443D

 30 35  0  0  1  0  0  0  0  0999 V2000
  160.0710  210.2170  153.2200 C   0  0  1  0  0  3  0  0  0  0  0  0
  159.0020  210.9730  153.9860 C   0  0  1  0  0  0  0  0  0  0  0  0
  160.9810  211.1990  152.4850 C   0  0  0  0  0  2  0  0  0  0  0  0
  158.3570  213.5270  151.0940 C   0  0  0  0  0  2  0  0  0  0  0  0
  157.0110  212.3570  155.4800 C   0  0  1  0  0  3  0  0  0  0  0  0
  159.0040  212.7210  152.2030 C   0  0  2  0  0  3  0  0  0  0  0  0
  160.6540  212.7680  150.4480 C   0  0  0  0  0  2  0  0  0  0  0  0
  158.3640  212.2010  156.1550 C   0  0  2  0  0  3  0  0  0  0  0  0
  160.0390  211.8610  151.4890 C   0  0  1  0  0  3  0  0  0  0  0  0
  158.0800  211.9260  153.1670 C   0  0  2  0  0  3  0  0  0  0  0  0
  158.6590  213.5260  156.8120 C   0  0  0  0  0  2  0  0  0  0  0  0
  156.2560  213.3470  156.3580 C   0  0  0  0  0  2  0  0  0  0  0  0
  159.4810  214.4200  149.1870 O   0  0  0  0  0  0  0  0  0  0  0  0
  159.4950  213.6570  150.1380 C   0  0  0  0  0  0  0  0  0  0  0  0
  160.4920  209.5100  154.5150 C   0  0  1  0  0  0  0  0  0  0  0  0
  159.3210  210.2030  155.2610 C   0  0  1  0  0  3  0  0  0  0  0  0
  159.4920  211.6940  155.2560 C   0  0  1  0  0  3  0  0  0  0  0  0
  157.2960  214.0590  157.2200 C   0  0  0  0  0  2  0  0  0  0  0  0
  157.4680  214.3370  153.9300 C   0  0  0  0  0  1  0  0  0  0  0  0
  157.1440  212.8400  154.0210 C   0  0  2  0  0  3  0  0  0  0  0  0
  160.3090  207.9760  154.3870 C   0  0  2  0  0  3  0  0  0  0  0  0
  159.6440  207.3500  155.5800 C   0  0  0  0  0  3  0  0  0  0  0  0
  160.3120  206.8980  156.4960 O   0  0  0  0  0  0  0  0  0  0  0  0
  161.6170  207.2520  154.1040 C   0  0  0  0  0  2  0  0  0  0  0  0
  161.3690  206.1250  153.3210 O   0  0  0  0  0  1  0  0  0  0  0  0
  161.9360  209.8820  154.9480 C   0  0  0  0  0  2  0  0  0  0  0  0
  162.2360  209.7800  156.4440 C   0  0  0  0  0  2  0  0  0  0  0  0
  162.7640  211.0550  156.9990 C   0  0  0  0  0  0  0  0  0  0  0  0
  164.0560  211.1810  157.2610 C   0  0  0  0  0  2  0  0  0  0  0  0
  161.9010  212.1110  157.2610 O   0  0  0  0  0  1  0  0  0  0  0  0
  1  3  1  1  0  0  0
  1  2  1  0  0  0  0
  1 15  1  0  0  0  0
  2 17  1  0  0  0  0
  2 16  1  0  0  0  0
  4  6  1  0  0  0  0
  5  8  1  0  0  0  0
  5 12  1  0  0  0  0
  6 10  1  0  0  0  0
  7  9  1  0  0  0  0
  8 11  1  0  0  0  0
  9  6  1  0  0  0  0
  9  3  1  0  0  0  0
 10  2  1  0  0  0  0
 10 20  1  0  0  0  0
 11 18  1  0  0  0  0
 12 18  1  0  0  0  0
 13 14  2  0  0  0  0
 14  7  1  0  0  0  0
 14  4  1  0  0  0  0
 15 26  1  0  0  0  0
 15 16  1  0  0  0  0
 17 16  1  0  0  0  0
 17  8  1  0  0  0  0
 19 20  1  0  0  0  0
 20  5  1  0  0  0  0
 21 15  1  0  0  0  0
 21 22  1  0  0  0  0
 22 23  2  0  0  0  0
 24 21  1  0  0  0  0
 25 24  1  0  0  0  0
 26 27  1  0  0  0  0
 27 28  1  0  0  0  0
 28 29  2  0  0  0  0
 28 30  1  0  0  0  0
M  END
>  <MODEL>
3

>  <REMARK>
 VINA RESULT:      -4.4      2.570      5.786
  Name = 
  6 active torsions:
  status: ('A' for Active; 'I' for Inactive)
    1  A    between atoms: C_2  and  C_14
    2  A    between atoms: C_3  and  C_19
    3  A    between atoms: C_14  and  C_20
    4  A    between atoms: C_14  and  C_22
    5  A    between atoms: C_19  and  C_29
    6  A    between atoms: C_22  and  C_29
                            x       y       z     vdW  Elec       q    Type
                         _______ _______ _______ _____ _____    ______ ____

>  <TORSDO>
F 6

$$$$
=
 OpenBabel11052421443D

 30 35  0  0  1  0  0  0  0  0999 V2000
  160.1720  210.0850  151.8170 C   0  0  1  0  0  3  0  0  0  0  0  0
  160.6340  209.8580  153.2440 C   0  0  1  0  0  0  0  0  0  0  0  0
  159.8060  211.5540  151.6140 C   0  0  0  0  0  2  0  0  0  0  0  0
  157.8530  212.1340  154.7910 C   0  0  0  0  0  2  0  0  0  0  0  0
  161.5560  209.4000  155.8990 C   0  0  1  0  0  3  0  0  0  0  0  0
  159.0490  211.6300  154.0070 C   0  0  2  0  0  3  0  0  0  0  0  0
  157.8710  213.0550  152.4630 C   0  0  0  0  0  2  0  0  0  0  0  0
  162.5910  209.9170  154.9130 C   0  0  2  0  0  3  0  0  0  0  0  0
  158.6210  211.7460  152.5490 C   0  0  1  0  0  3  0  0  0  0  0  0
  159.6420  210.2440  154.3820 C   0  0  2  0  0  3  0  0  0  0  0  0
  163.3910  210.9590  155.6540 C   0  0  0  0  0  2  0  0  0  0  0  0
  162.2330  209.5110  157.2600 C   0  0  0  0  0  2  0  0  0  0  0  0
  156.4280  213.9370  154.1470 O   0  0  0  0  0  0  0  0  0  0  0  0
  157.2880  213.1310  153.8350 C   0  0  0  0  0  0  0  0  0  0  0  0
  161.4850  209.4820  151.3010 C   0  0  1  0  0  0  0  0  0  0  0  0
  161.8940  209.1500  152.7610 C   0  0  1  0  0  3  0  0  0  0  0  0
  162.0360  210.4030  153.5740 C   0  0  1  0  0  3  0  0  0  0  0  0
  163.4090  210.4700  157.0930 C   0  0  0  0  0  2  0  0  0  0  0  0
  160.3440  211.5640  156.5120 C   0  0  0  0  0  1  0  0  0  0  0  0
  160.2370  210.1960  155.8260 C   0  0  2  0  0  3  0  0  0  0  0  0
  161.2090  208.2200  150.4450 C   0  0  2  0  0  3  0  0  0  0  0  0
  160.7900  207.0250  151.2540 C   0  0  0  0  0  3  0  0  0  0  0  0
  161.4580  206.0030  151.2420 O   0  0  0  0  0  0  0  0  0  0  0  0
  162.3900  207.8400  149.5640 C   0  0  0  0  0  2  0  0  0  0  0  0
  161.9310  207.4670  148.3010 O   0  0  0  0  0  1  0  0  0  0  0  0
  162.3500  210.5180  150.5340 C   0  0  0  0  0  2  0  0  0  0  0  0
  162.0260  210.6980  149.0510 C   0  0  0  0  0  2  0  0  0  0  0  0
  162.2500  212.0960  148.5920 C   0  0  0  0  0  0  0  0  0  0  0  0
  161.2510  212.9640  148.5970 C   0  0  0  0  0  2  0  0  0  0  0  0
  163.5040  212.4880  148.1410 O   0  0  0  0  0  1  0  0  0  0  0  0
  1  3  1  1  0  0  0
  1  2  1  0  0  0  0
  2 17  1  0  0  0  0
  2 10  1  0  0  0  0
  3  9  1  0  0  0  0
  5 12  1  0  0  0  0
  6 10  1  0  0  0  0
  6  4  1  0  0  0  0
  7  9  1  0  0  0  0
  7 14  1  0  0  0  0
  8 11  1  0  0  0  0
  8  5  1  0  0  0  0
  9  6  1  0  0  0  0
 10 20  1  0  0  0  0
 11 18  1  0  0  0  0
 14 13  2  0  0  0  0
 14  4  1  0  0  0  0
 15  1  1  0  0  0  0
 15 16  1  0  0  0  0
 16  2  1  0  0  0  0
 16 17  1  0  0  0  0
 17  8  1  0  0  0  0
 18 12  1  0  0  0  0
 20  5  1  0  0  0  0
 20 19  1  0  0  0  0
 21 22  1  0  0  0  0
 21 15  1  0  0  0  0
 23 22  2  0  0  0  0
 24 21  1  0  0  0  0
 25 24  1  0  0  0  0
 26 15  1  0  0  0  0
 27 26  1  0  0  0  0
 28 29  2  0  0  0  0
 28 27  1  0  0  0  0
 30 28  1  0  0  0  0
M  END
>  <MODEL>
4

>  <REMARK>
 VINA RESULT:      -3.9      2.221      6.234
  Name = 
  6 active torsions:
  status: ('A' for Active; 'I' for Inactive)
    1  A    between atoms: C_2  and  C_14
    2  A    between atoms: C_3  and  C_19
    3  A    between atoms: C_14  and  C_20
    4  A    between atoms: C_14  and  C_22
    5  A    between atoms: C_19  and  C_29
    6  A    between atoms: C_22  and  C_29
                            x       y       z     vdW  Elec       q    Type
                         _______ _______ _______ _____ _____    ______ ____

>  <TORSDO>
F 6

$$$$
=
 OpenBabel11052421443D

 30 35  0  0  1  0  0  0  0  0999 V2000
  161.5050  209.3860  153.5120 C   0  0  1  0  0  3  0  0  0  0  0  0
  161.7650  208.0470  152.8470 C   0  0  1  0  0  0  0  0  0  0  0  0
  160.6080  210.2440  152.6230 C   0  0  0  0  0  2  0  0  0  0  0  0
  162.2630  209.6030  149.2930 C   0  0  0  0  0  2  0  0  0  0  0  0
  162.2360  205.5020  151.6590 C   0  0  1  0  0  3  0  0  0  0  0  0
  161.6700  209.1680  150.6190 C   0  0  2  0  0  3  0  0  0  0  0  0
  160.9530  211.4530  150.3560 C   0  0  0  0  0  2  0  0  0  0  0  0
  160.9430  205.6420  152.4470 C   0  0  2  0  0  3  0  0  0  0  0  0
  161.4620  210.4690  151.3840 C   0  0  1  0  0  3  0  0  0  0  0  0
  162.4120  208.0700  151.4300 C   0  0  2  0  0  3  0  0  0  0  0  0
  159.8800  204.9510  151.6320 C   0  0  0  0  0  2  0  0  0  0  0  0
  162.0960  204.1750  150.9250 C   0  0  0  0  0  2  0  0  0  0  0  0
  161.6670  211.5720  148.0820 O   0  0  0  0  0  0  0  0  0  0  0  0
  161.6320  210.9450  149.1280 C   0  0  0  0  0  0  0  0  0  0  0  0
  160.9840  208.6610  154.7590 C   0  0  1  0  0  0  0  0  0  0  0  0
  161.3630  207.3010  154.1130 C   0  0  1  0  0  3  0  0  0  0  0  0
  160.5760  207.0690  152.8570 C   0  0  1  0  0  3  0  0  0  0  0  0
  160.6120  203.8150  150.9370 C   0  0  0  0  0  2  0  0  0  0  0  0
  161.5790  206.6040  149.4480 C   0  0  0  0  0  1  0  0  0  0  0  0
  162.4620  206.6890  150.7010 C   0  0  2  0  0  3  0  0  0  0  0  0
  161.8490  209.0090  155.9970 C   0  0  2  0  0  3  0  0  0  0  0  0
  161.3980  208.3230  157.2560 C   0  0  0  0  0  3  0  0  0  0  0  0
  161.0350  207.1580  157.2310 O   0  0  0  0  0  0  0  0  0  0  0  0
  161.9390  210.5070  156.2470 C   0  0  0  0  0  2  0  0  0  0  0  0
  163.0340  211.0320  155.5610 O   0  0  0  0  0  1  0  0  0  0  0  0
  159.4780  208.9360  155.0160 C   0  0  0  0  0  2  0  0  0  0  0  0
  159.1580  210.0910  155.9660 C   0  0  0  0  0  2  0  0  0  0  0  0
  158.1760  211.0440  155.3810 C   0  0  0  0  0  0  0  0  0  0  0  0
  158.5790  212.2300  154.9510 C   0  0  0  0  0  2  0  0  0  0  0  0
  156.8340  210.6990  155.3000 O   0  0  0  0  0  1  0  0  0  0  0  0
  1  3  1  6  0  0  0
  1 15  1  0  0  0  0
  2 17  1  0  0  0  0
  2  1  1  0  0  0  0
  2 16  1  0  0  0  0
  4  6  1  0  0  0  0
  5  8  1  0  0  0  0
  6  9  1  0  0  0  0
  6 10  1  0  0  0  0
  7  9  1  0  0  0  0
  8 17  1  0  0  0  0
  9  3  1  0  0  0  0
 10  2  1  0  0  0  0
 11  8  1  0  0  0  0
 12 18  1  0  0  0  0
 12  5  1  0  0  0  0
 13 14  2  0  0  0  0
 14  4  1  0  0  0  0
 14  7  1  0  0  0  0
 15 26  1  0  0  0  0
 15 21  1  0  0  0  0
 16 15  1  0  0  0  0
 17 16  1  0  0  0  0
 18 11  1  0  0  0  0
 19 20  1  0  0  0  0
 20 10  1  0  0  0  0
 20  5  1  0  0  0  0
 21 24  1  0  0  0  0
 21 22  1  0  0  0  0
 23 22  2  0  0  0  0
 25 24  1  0  0  0  0
 26 27  1  0  0  0  0
 28 27  1  0  0  0  0
 29 28  2  0  0  0  0
 30 28  1  0  0  0  0
M  END
>  <MODEL>
5

>  <REMARK>
 VINA RESULT:      -3.8      1.054      1.706
  Name = 
  6 active torsions:
  status: ('A' for Active; 'I' for Inactive)
    1  A    between atoms: C_2  and  C_14
    2  A    between atoms: C_3  and  C_19
    3  A    between atoms: C_14  and  C_20
    4  A    between atoms: C_14  and  C_22
    5  A    between atoms: C_19  and  C_29
    6  A    between atoms: C_22  and  C_29
                            x       y       z     vdW  Elec       q    Type
                         _______ _______ _______ _____ _____    ______ ____

>  <TORSDO>
F 6

$$$$
=
 OpenBabel11052421443D

 30 35  0  0  1  0  0  0  0  0999 V2000
  159.5600  210.8020  155.5170 C   0  0  1  0  0  3  0  0  0  0  0  0
  159.5960  211.8180  154.3910 C   0  0  1  0  0  0  0  0  0  0  0  0
  158.1160  210.4030  155.8140 C   0  0  0  0  0  2  0  0  0  0  0  0
  156.5150  213.8190  155.7360 C   0  0  0  0  0  2  0  0  0  0  0  0
  159.7110  213.6870  152.2450 C   0  0  1  0  0  3  0  0  0  0  0  0
  157.4090  212.7270  155.1810 C   0  0  2  0  0  3  0  0  0  0  0  0
  156.0960  211.6300  156.8770 C   0  0  0  0  0  2  0  0  0  0  0  0
  159.6340  212.2210  151.8500 C   0  0  2  0  0  3  0  0  0  0  0  0
  157.4930  211.7010  156.3050 C   0  0  1  0  0  3  0  0  0  0  0  0
  158.7890  213.1350  154.5950 C   0  0  2  0  0  3  0  0  0  0  0  0
  158.6640  212.1490  150.6970 C   0  0  0  0  0  2  0  0  0  0  0  0
  159.4840  214.4480  150.9450 C   0  0  0  0  0  2  0  0  0  0  0  0
  154.6100  213.4800  157.1330 O   0  0  0  0  0  0  0  0  0  0  0  0
  155.6280  213.0270  156.6370 C   0  0  0  0  0  0  0  0  0  0  0  0
  160.5220  209.9030  154.7300 C   0  0  1  0  0  0  0  0  0  0  0  0
  160.6400  211.0010  153.6400 C   0  0  1  0  0  3  0  0  0  0  0  0
  159.3120  211.2510  152.9880 C   0  0  1  0  0  3  0  0  0  0  0  0
  158.8520  213.4650  149.9610 C   0  0  0  0  0  2  0  0  0  0  0  0
  157.2590  214.1800  152.7680 C   0  0  0  0  0  1  0  0  0  0  0  0
  158.6800  214.0490  153.3330 C   0  0  2  0  0  3  0  0  0  0  0  0
  161.8370  209.6840  155.5200 C   0  0  2  0  0  3  0  0  0  0  0  0
  161.6190  209.2080  156.9290 C   0  0  0  0  0  3  0  0  0  0  0  0
  161.9410  208.0780  157.2580 O   0  0  0  0  0  0  0  0  0  0  0  0
  162.7210  210.9230  155.5400 C   0  0  0  0  0  2  0  0  0  0  0  0
  163.6020  210.8520  156.6190 O   0  0  0  0  0  1  0  0  0  0  0  0
  159.8680  208.5550  154.3200 C   0  0  0  0  0  2  0  0  0  0  0  0
  160.8270  207.3900  154.0750 C   0  0  0  0  0  2  0  0  0  0  0  0
  161.2310  207.2850  152.6460 C   0  0  0  0  0  0  0  0  0  0  0  0
  162.1270  206.3850  152.2740 C   0  0  0  0  0  2  0  0  0  0  0  0
  160.6800  208.1420  151.7030 O   0  0  0  0  0  1  0  0  0  0  0  0
  1  3  1  6  0  0  0
  2 10  1  0  0  0  0
  2  1  1  0  0  0  0
  3  9  1  0  0  0  0
  4 14  1  0  0  0  0
  5 20  1  0  0  0  0
  6  4  1  0  0  0  0
  6  9  1  0  0  0  0
  8  5  1  0  0  0  0
  8 17  1  0  0  0  0
  9  7  1  0  0  0  0
 10  6  1  0  0  0  0
 11  8  1  0  0  0  0
 12  5  1  0  0  0  0
 14  7  1  0  0  0  0
 14 13  2  0  0  0  0
 15  1  1  0  0  0  0
 15 21  1  0  0  0  0
 16  2  1  0  0  0  0
 16 15  1  0  0  0  0
 17 16  1  0  0  0  0
 17  2  1  0  0  0  0
 18 11  1  0  0  0  0
 18 12  1  0  0  0  0
 19 20  1  0  0  0  0
 20 10  1  0  0  0  0
 21 24  1  0  0  0  0
 21 22  1  0  0  0  0
 22 23  2  0  0  0  0
 24 25  1  0  0  0  0
 26 15  1  0  0  0  0
 27 26  1  0  0  0  0
 28 27  1  0  0  0  0
 29 28  2  0  0  0  0
 30 28  1  0  0  0  0
M  END
>  <MODEL>
6

>  <REMARK>
 VINA RESULT:      -3.5      2.249      6.289
  Name = 
  6 active torsions:
  status: ('A' for Active; 'I' for Inactive)
    1  A    between atoms: C_2  and  C_14
    2  A    between atoms: C_3  and  C_19
    3  A    between atoms: C_14  and  C_20
    4  A    between atoms: C_14  and  C_22
    5  A    between atoms: C_19  and  C_29
    6  A    between atoms: C_22  and  C_29
                            x       y       z     vdW  Elec       q    Type
                         _______ _______ _______ _____ _____    ______ ____

>  <TORSDO>
F 6

$$$$
=
 OpenBabel11052421443D

 30 35  0  0  1  0  0  0  0  0999 V2000
  159.2820  211.6420  154.4670 C   0  0  1  0  0  3  0  0  0  0  0  0
  159.7100  212.4430  153.2510 C   0  0  1  0  0  0  0  0  0  0  0  0
  157.8240  211.2100  154.3210 C   0  0  0  0  0  2  0  0  0  0  0  0
  156.3580  214.4500  153.0600 C   0  0  0  0  0  2  0  0  0  0  0  0
  160.5690  213.9080  150.9650 C   0  0  1  0  0  3  0  0  0  0  0  0
  157.3870  213.3370  153.0600 C   0  0  2  0  0  3  0  0  0  0  0  0
  155.5630  212.4760  154.3780 C   0  0  0  0  0  2  0  0  0  0  0  0
  160.6310  212.3930  150.8500 C   0  0  2  0  0  3  0  0  0  0  0  0
  157.0720  212.5330  154.3160 C   0  0  1  0  0  3  0  0  0  0  0  0
  158.8850  213.7220  152.9160 C   0  0  2  0  0  3  0  0  0  0  0  0
  160.1230  212.0570  149.4700 C   0  0  0  0  0  2  0  0  0  0  0  0
  160.8090  214.4110  149.5470 C   0  0  0  0  0  2  0  0  0  0  0  0
  154.0840  214.2440  153.7580 O   0  0  0  0  0  0  0  0  0  0  0  0
  155.2100  213.7760  153.7340 C   0  0  0  0  0  0  0  0  0  0  0  0
  160.4560  210.6810  154.2400 C   0  0  1  0  0  0  0  0  0  0  0  0
  160.9480  211.5740  153.0710 C   0  0  1  0  0  3  0  0  0  0  0  0
  159.9320  211.6200  151.9690 C   0  0  1  0  0  3  0  0  0  0  0  0
  160.5580  213.2320  148.6100 C   0  0  0  0  0  2  0  0  0  0  0  0
  158.0880  214.3280  150.5150 C   0  0  0  0  0  1  0  0  0  0  0  0
  159.2240  214.3900  151.5450 C   0  0  2  0  0  3  0  0  0  0  0  0
  161.4140  210.6890  155.4590 C   0  0  2  0  0  3  0  0  0  0  0  0
  162.8650  210.5910  155.0810 C   0  0  0  0  0  3  0  0  0  0  0  0
  163.7260  211.0830  155.7940 O   0  0  0  0  0  0  0  0  0  0  0  0
  161.0840  209.6020  156.4710 C   0  0  0  0  0  2  0  0  0  0  0  0
  160.0090  210.0070  157.2600 O   0  0  0  0  0  1  0  0  0  0  0  0
  159.9830  209.2430  153.8920 C   0  0  0  0  0  2  0  0  0  0  0  0
  160.8830  208.4520  152.9420 C   0  0  0  0  0  2  0  0  0  0  0  0
  161.1330  207.0670  153.4280 C   0  0  0  0  0  0  0  0  0  0  0  0
  161.8820  206.2400  152.7160 C   0  0  0  0  0  2  0  0  0  0  0  0
  160.5680  206.6360  154.6200 O   0  0  0  0  0  1  0  0  0  0  0  0
  1  3  1  6  0  0  0
  2  1  1  0  0  0  0
  4  6  1  0  0  0  0
  4 14  1  0  0  0  0
  5 20  1  0  0  0  0
  6  9  1  0  0  0  0
  8  5  1  0  0  0  0
  8 17  1  0  0  0  0
  9  3  1  0  0  0  0
  9  7  1  0  0  0  0
 10  6  1  0  0  0  0
 10  2  1  0  0  0  0
 11  8  1  0  0  0  0
 12  5  1  0  0  0  0
 14 13  2  0  0  0  0
 14  7  1  0  0  0  0
 15  1  1  0  0  0  0
 15 21  1  0  0  0  0
 16  2  1  0  0  0  0
 16 15  1  0  0  0  0
 17 16  1  0  0  0  0
 17  2  1  0  0  0  0
 18 11  1  0  0  0  0
 18 12  1  0  0  0  0
 19 20  1  0  0  0  0
 20 10  1  0  0  0  0
 21 24  1  0  0  0  0
 22 21  1  0  0  0  0
 22 23  2  0  0  0  0
 24 25  1  0  0  0  0
 26 15  1  0  0  0  0
 27 28  1  0  0  0  0
 27 26  1  0  0  0  0
 28 30  1  0  0  0  0
 29 28  2  0  0  0  0
M  END
>  <MODEL>
7

>  <REMARK>
 VINA RESULT:      -3.3      2.414      5.663
  Name = 
  6 active torsions:
  status: ('A' for Active; 'I' for Inactive)
    1  A    between atoms: C_2  and  C_14
    2  A    between atoms: C_3  and  C_19
    3  A    between atoms: C_14  and  C_20
    4  A    between atoms: C_14  and  C_22
    5  A    between atoms: C_19  and  C_29
    6  A    between atoms: C_22  and  C_29
                            x       y       z     vdW  Elec       q    Type
                         _______ _______ _______ _____ _____    ______ ____

>  <TORSDO>
F 6

$$$$
=
 OpenBabel11052421443D

 30 35  0  0  1  0  0  0  0  0999 V2000
  162.0330  210.4910  148.5000 C   0  0  1  0  0  3  0  0  0  0  0  0
  161.8740  210.6400  150.0020 C   0  0  1  0  0  0  0  0  0  0  0  0
  161.1780  209.3300  147.9970 C   0  0  0  0  0  2  0  0  0  0  0  0
  161.9810  206.7860  150.6660 C   0  0  0  0  0  2  0  0  0  0  0  0
  161.5630  210.9860  152.8110 C   0  0  1  0  0  3  0  0  0  0  0  0
  161.5810  208.1670  150.1860 C   0  0  2  0  0  3  0  0  0  0  0  0
  161.3180  206.7550  148.2520 C   0  0  0  0  0  2  0  0  0  0  0  0
  160.5070  211.6440  151.9370 C   0  0  2  0  0  3  0  0  0  0  0  0
  161.8020  208.1210  148.6790 C   0  0  1  0  0  3  0  0  0  0  0  0
  162.2220  209.4010  150.8800 C   0  0  2  0  0  3  0  0  0  0  0  0
  159.1840  211.3880  152.6150 C   0  0  0  0  0  2  0  0  0  0  0  0
  161.0090  211.0920  154.2270 C   0  0  0  0  0  2  0  0  0  0  0  0
  161.5840  204.7400  149.5040 O   0  0  0  0  0  0  0  0  0  0  0  0
  161.6230  205.9590  149.4780 C   0  0  0  0  0  0  0  0  0  0  0  0
  161.6260  211.9590  148.3160 C   0  0  1  0  0  0  0  0  0  0  0  0
  161.5790  212.1280  149.8580 C   0  0  1  0  0  3  0  0  0  0  0  0
  160.5320  211.2400  150.4620 C   0  0  1  0  0  3  0  0  0  0  0  0
  159.5150  211.3770  154.0980 C   0  0  0  0  0  2  0  0  0  0  0  0
  160.7320  208.5700  152.8450 C   0  0  0  0  0  1  0  0  0  0  0  0
  161.8400  209.5290  152.3890 C   0  0  2  0  0  3  0  0  0  0  0  0
  162.7690  212.7650  147.6490 C   0  0  2  0  0  3  0  0  0  0  0  0
  162.9920  214.1150  148.2700 C   0  0  0  0  0  3  0  0  0  0  0  0
  164.1070  214.4530  148.6340 O   0  0  0  0  0  0  0  0  0  0  0  0
  162.5720  212.9290  146.1490 C   0  0  0  0  0  2  0  0  0  0  0  0
  162.9960  214.1990  145.7570 O   0  0  0  0  0  1  0  0  0  0  0  0
  160.2890  212.1080  147.5400 C   0  0  0  0  0  2  0  0  0  0  0  0
  159.4480  213.3380  147.8810 C   0  0  0  0  0  2  0  0  0  0  0  0
  157.9890  213.0420  147.8700 C   0  0  0  0  0  0  0  0  0  0  0  0
  157.2580  213.2720  148.9500 C   0  0  0  0  0  2  0  0  0  0  0  0
  157.3950  212.5090  146.7340 O   0  0  0  0  0  1  0  0  0  0  0  0
  1  3  1  6  0  0  0
  1  2  1  0  0  0  0
  2 17  1  0  0  0  0
  2 10  1  0  0  0  0
  3  9  1  0  0  0  0
  5 12  1  0  0  0  0
  6  4  1  0  0  0  0
  6 10  1  0  0  0  0
  7  9  1  0  0  0  0
  7 14  1  0  0  0  0
  8 11  1  0  0  0  0
  8  5  1  0  0  0  0
  9  6  1  0  0  0  0
 10 20  1  0  0  0  0
 11 18  1  0  0  0  0
 14 13  2  0  0  0  0
 14  4  1  0  0  0  0
 15  1  1  0  0  0  0
 15 16  1  0  0  0  0
 16  2  1  0  0  0  0
 16 17  1  0  0  0  0
 17  8  1  0  0  0  0
 18 12  1  0  0  0  0
 20  5  1  0  0  0  0
 20 19  1  0  0  0  0
 21 22  1  0  0  0  0
 21 15  1  0  0  0  0
 22 23  2  0  0  0  0
 24 21  1  0  0  0  0
 25 24  1  0  0  0  0
 26 27  1  0  0  0  0
 26 15  1  0  0  0  0
 28 27  1  0  0  0  0
 28 29  2  0  0  0  0
 30 28  1  0  0  0  0
M  END
>  <MODEL>
8

>  <REMARK>
 VINA RESULT:      -3.2      3.103      6.716
  Name = 
  6 active torsions:
  status: ('A' for Active; 'I' for Inactive)
    1  A    between atoms: C_2  and  C_14
    2  A    between atoms: C_3  and  C_19
    3  A    between atoms: C_14  and  C_20
    4  A    between atoms: C_14  and  C_22
    5  A    between atoms: C_19  and  C_29
    6  A    between atoms: C_22  and  C_29
                            x       y       z     vdW  Elec       q    Type
                         _______ _______ _______ _____ _____    ______ ____

>  <TORSDO>
F 6

$$$$
=
 OpenBabel11052421443D

 30 35  0  0  1  0  0  0  0  0999 V2000
  160.8750  210.0490  152.0120 C   0  0  1  0  0  3  0  0  0  0  0  0
  159.7710  210.9670  152.5020 C   0  0  1  0  0  0  0  0  0  0  0  0
  162.0160  210.8750  151.4200 C   0  0  0  0  0  2  0  0  0  0  0  0
  159.9940  213.3360  149.3970 C   0  0  0  0  0  2  0  0  0  0  0  0
  157.6970  212.6560  153.4810 C   0  0  1  0  0  3  0  0  0  0  0  0
  160.3170  212.5590  150.6580 C   0  0  2  0  0  3  0  0  0  0  0  0
  162.2710  212.3030  149.2730 C   0  0  0  0  0  2  0  0  0  0  0  0
  158.8670  212.4190  154.4240 C   0  0  2  0  0  3  0  0  0  0  0  0
  161.3670  211.5460  150.2190 C   0  0  1  0  0  3  0  0  0  0  0  0
  159.1400  211.9390  151.4610 C   0  0  2  0  0  3  0  0  0  0  0  0
  159.1770  213.7560  155.0490 C   0  0  0  0  0  2  0  0  0  0  0  0
  156.9030  213.7820  154.1300 C   0  0  0  0  0  2  0  0  0  0  0  0
  161.5600  213.9580  147.7070 O   0  0  0  0  0  0  0  0  0  0  0  0
  161.3030  213.2750  148.6840 C   0  0  0  0  0  0  0  0  0  0  0  0
  160.9540  209.4090  153.4040 C   0  0  1  0  0  0  0  0  0  0  0  0
  159.7470  210.2720  153.8580 C   0  0  1  0  0  3  0  0  0  0  0  0
  160.0830  211.7330  153.8010 C   0  0  1  0  0  3  0  0  0  0  0  0
  157.8290  214.4530  155.1420 C   0  0  0  0  0  2  0  0  0  0  0  0
  158.6680  214.4520  151.9440 C   0  0  0  0  0  1  0  0  0  0  0  0
  158.1650  213.0060  152.0540 C   0  0  2  0  0  3  0  0  0  0  0  0
  160.6270  207.8960  153.3300 C   0  0  2  0  0  3  0  0  0  0  0  0
  161.0780  207.1250  154.5390 C   0  0  0  0  0  3  0  0  0  0  0  0
  160.2840  206.8320  155.4190 O   0  0  0  0  0  0  0  0  0  0  0  0
  161.1860  207.2360  152.0780 C   0  0  0  0  0  2  0  0  0  0  0  0
  160.6890  205.9380  151.9710 O   0  0  0  0  0  1  0  0  0  0  0  0
  162.3190  209.6680  154.0970 C   0  0  0  0  0  2  0  0  0  0  0  0
  162.3020  210.6520  155.2680 C   0  0  0  0  0  2  0  0  0  0  0  0
  161.9340  209.9930  156.5510 C   0  0  0  0  0  0  0  0  0  0  0  0
  160.9130  210.4480  157.2610 C   0  0  0  0  0  2  0  0  0  0  0  0
  162.6700  208.9100  157.0140 O   0  0  0  0  0  1  0  0  0  0  0  0
  1  3  1  1  0  0  0
  1  2  1  0  0  0  0
  1 15  1  0  0  0  0
  2 17  1  0  0  0  0
  2 16  1  0  0  0  0
  4  6  1  0  0  0  0
  5 12  1  0  0  0  0
  5  8  1  0  0  0  0
  6 10  1  0  0  0  0
  7  9  1  0  0  0  0
  8 11  1  0  0  0  0
  9  6  1  0  0  0  0
  9  3  1  0  0  0  0
 10 20  1  0  0  0  0
 10  2  1  0  0  0  0
 11 18  1  0  0  0  0
 12 18  1  0  0  0  0
 13 14  2  0  0  0  0
 14  7  1  0  0  0  0
 14  4  1  0  0  0  0
 15 16  1  0  0  0  0
 15 26  1  0  0  0  0
 17 16  1  0  0  0  0
 17  8  1  0  0  0  0
 19 20  1  0  0  0  0
 20  5  1  0  0  0  0
 21 15  1  0  0  0  0
 21 22  1  0  0  0  0
 22 23  2  0  0  0  0
 24 21  1  0  0  0  0
 25 24  1  0  0  0  0
 26 27  1  0  0  0  0
 27 28  1  0  0  0  0
 28 30  1  0  0  0  0
 28 29  2  0  0  0  0
M  END
>  <MODEL>
9

>  <REMARK>
 VINA RESULT:      -3.1      1.906      5.260
  Name = 
  6 active torsions:
  status: ('A' for Active; 'I' for Inactive)
    1  A    between atoms: C_2  and  C_14
    2  A    between atoms: C_3  and  C_19
    3  A    between atoms: C_14  and  C_20
    4  A    between atoms: C_14  and  C_22
    5  A    between atoms: C_19  and  C_29
    6  A    between atoms: C_22  and  C_29
                            x       y       z     vdW  Elec       q    Type
                         _______ _______ _______ _____ _____    ______ ____

>  <TORSDO>
F 6

$$$$
