=
 OpenBabel11062408213D

 32 37  0  0  1  0  0  0  0  0999 V2000
  161.1730  205.3230  150.9040 C   0  0  0  0  0  0  0  0  0  0  0  0
  161.0200  204.0730  148.8340 C   0  0  0  0  0  0  0  0  0  0  0  0
  161.3400  205.3450  152.4060 C   0  0  0  0  0  2  0  0  0  0  0  0
  161.0980  204.0920  150.2220 C   0  0  0  0  0  0  0  0  0  0  0  0
  160.9590  202.7740  148.1420 C   0  0  0  0  0  0  0  0  0  0  0  0
  161.0080  206.2250  144.3770 C   0  0  0  0  0  2  0  0  0  0  0  0
  160.9790  205.2720  148.1180 C   0  0  0  0  0  0  0  0  0  0  0  0
  160.9270  203.8220  144.6780 O   0  0  0  0  0  0  0  0  0  0  0  0
  161.3400  203.9570  146.0140 C   0  0  2  0  0  3  0  0  0  0  0  0
  160.9060  202.7800  150.9540 C   0  0  1  0  0  3  0  0  0  0  0  0
  161.0450  202.7120  146.8090 C   0  0  0  0  0  3  0  0  0  0  0  0
  161.4780  201.6940  150.2430 O   0  0  0  0  0  0  0  0  0  0  0  0
  161.4650  202.8440  152.3690 C   0  0  0  0  0  2  0  0  0  0  0  0
  161.0310  206.4560  148.7880 N   0  0  0  0  0  0  0  0  0  0  0  0
  161.1570  206.5200  150.1460 C   0  0  0  0  0  0  0  0  0  0  0  0
  160.7040  205.2150  146.6370 C   0  0  2  0  0  3  0  0  0  0  0  0
  160.8320  201.5340  148.9830 C   0  0  1  0  0  3  0  0  0  0  0  0
  160.8720  204.0540  153.0790 C   0  0  0  0  0  2  0  0  0  0  0  0
  161.5650  204.8560  143.9620 C   0  0  0  0  0  2  0  0  0  0  0  0
  161.2230  206.4330  145.8770 C   0  0  0  0  0  2  0  0  0  0  0  0
  161.9150  210.1960  150.7540 C   0  0  0  0  0  0  0  0  0  0  0  0
  162.4380  211.3030  150.0950 O   0  0  0  0  0  1  0  0  0  0  0  0
  161.2600  207.8520  150.7820 C   0  0  0  0  0  0  0  0  0  0  0  0
  161.4970  210.3280  152.0800 C   0  0  0  0  0  3  0  0  0  0  0  0
  160.8510  208.0010  152.1140 C   0  0  0  0  0  3  0  0  0  0  0  0
  161.8030  208.9610  150.0970 C   0  0  0  0  0  0  0  0  0  0  0  0
  162.3010  208.8440  148.4080 Cl  0  0  0  0  0  0  0  0  0  0  0  0
  160.9620  209.2300  152.7670 C   0  0  0  0  0  0  0  0  0  0  0  0
  160.8690  208.3680  155.0840 C   0  0  0  0  0  1  0  0  0  0  0  0
  160.5360  209.3320  154.0950 O   0  0  0  0  0  0  0  0  0  0  0  0
  159.3790  201.0900  149.1240 C   0  0  0  0  0  2  0  0  0  0  0  0
  159.2110  200.3890  150.3170 O   0  0  0  0  0  1  0  0  0  0  0  0
  1  3  1  0  0  0  0
  2  4  2  0  0  0  0
  3 18  1  0  0  0  0
  4  1  1  0  0  0  0
  4 10  1  0  0  0  0
  5  2  1  0  0  0  0
  5 17  1  0  0  0  0
  6 20  1  0  0  0  0
  7 14  2  0  0  0  0
  7  2  1  0  0  0  0
  8  9  1  0  0  0  0
  9 16  1  0  0  0  0
  9 11  1  1  0  0  0
 10 13  1  1  0  0  0
 11  5  2  0  0  0  0
 12 10  1  0  0  0  0
 13 18  1  0  0  0  0
 14 15  1  0  0  0  0
 15 23  1  0  0  0  0
 15  1  2  0  0  0  0
 16 20  1  6  0  0  0
 16  7  1  0  0  0  0
 17 31  1  1  0  0  0
 17 12  1  0  0  0  0
 19  6  1  0  0  0  0
 19  8  1  0  0  0  0
 21 24  1  0  0  0  0
 22 21  1  0  0  0  0
 23 25  2  0  0  0  0
 24 28  2  0  0  0  0
 25 28  1  0  0  0  0
 26 21  2  0  0  0  0
 26 23  1  0  0  0  0
 27 26  1  0  0  0  0
 28 30  1  0  0  0  0
 30 29  1  0  0  0  0
 31 32  1  0  0  0  0
M  END
>  <MODEL>
1

>  <REMARK>
 VINA RESULT:      -8.4      0.000      0.000
  Name = 
  3 active torsions:
  status: ('A' for Active; 'I' for Inactive)
    1  A    between atoms: C_13  and  C_29
    2  A    between atoms: O_15  and  C_26
    3  A    between atoms: C_16  and  C_27
                            x       y       z     vdW  Elec       q    Type
                         _______ _______ _______ _____ _____    ______ ____

>  <TORSDO>
F 3

$$$$
=
 OpenBabel11062408213D

 32 37  0  0  1  0  0  0  0  0999 V2000
  161.1630  206.8910  151.6690 C   0  0  0  0  0  0  0  0  0  0  0  0
  161.1770  209.3120  151.7770 C   0  0  0  0  0  0  0  0  0  0  0  0
  160.9650  205.5560  152.3500 C   0  0  0  0  0  2  0  0  0  0  0  0
  161.0700  208.0820  152.4170 C   0  0  0  0  0  0  0  0  0  0  0  0
  161.0600  210.5440  152.5760 C   0  0  0  0  0  0  0  0  0  0  0  0
  161.6120  212.1870  147.7700 C   0  0  0  0  0  2  0  0  0  0  0  0
  161.4120  209.3670  150.4000 C   0  0  0  0  0  0  0  0  0  0  0  0
  161.3270  213.0790  150.0060 O   0  0  0  0  0  0  0  0  0  0  0  0
  160.9080  211.8220  150.4740 C   0  0  2  0  0  3  0  0  0  0  0  0
  161.0470  208.0800  153.9310 C   0  0  1  0  0  3  0  0  0  0  0  0
  160.9960  211.7370  151.9750 C   0  0  0  0  0  3  0  0  0  0  0  0
  160.3370  209.1940  154.4480 O   0  0  0  0  0  0  0  0  0  0  0  0
  160.4710  206.7810  154.4780 C   0  0  0  0  0  2  0  0  0  0  0  0
  161.5210  208.2100  149.6910 N   0  0  0  0  0  0  0  0  0  0  0  0
  161.3740  206.9830  150.2710 C   0  0  0  0  0  0  0  0  0  0  0  0
  161.7100  210.7060  149.7750 C   0  0  2  0  0  3  0  0  0  0  0  0
  160.9800  210.4070  154.0710 C   0  0  1  0  0  3  0  0  0  0  0  0
  161.2210  205.6090  153.8570 C   0  0  0  0  0  2  0  0  0  0  0  0
  160.8670  213.1770  148.6770 C   0  0  0  0  0  2  0  0  0  0  0  0
  161.3960  210.7620  148.2820 C   0  0  0  0  0  2  0  0  0  0  0  0
  161.9330  204.6960  147.2850 C   0  0  0  0  0  0  0  0  0  0  0  0
  162.3830  204.7450  145.9710 O   0  0  0  0  0  1  0  0  0  0  0  0
  161.4560  205.7820  149.4110 C   0  0  0  0  0  0  0  0  0  0  0  0
  161.5070  203.4760  147.8140 C   0  0  0  0  0  3  0  0  0  0  0  0
  161.0270  204.5500  149.9230 C   0  0  0  0  0  3  0  0  0  0  0  0
  161.9080  205.8560  148.0750 C   0  0  0  0  0  0  0  0  0  0  0  0
  162.4950  207.3710  147.3870 Cl  0  0  0  0  0  0  0  0  0  0  0  0
  161.0520  203.3970  149.1370 C   0  0  0  0  0  0  0  0  0  0  0  0
  160.9480  200.9250  149.1320 C   0  0  0  0  0  1  0  0  0  0  0  0
  160.6200  202.1890  149.6930 O   0  0  0  0  0  0  0  0  0  0  0  0
  162.3480  210.5710  154.7280 C   0  0  0  0  0  2  0  0  0  0  0  0
  162.1920  210.9840  156.0500 O   0  0  0  0  0  1  0  0  0  0  0  0
  1  3  1  0  0  0  0
  1  4  1  0  0  0  0
  2  4  2  0  0  0  0
  2  5  1  0  0  0  0
  3 18  1  0  0  0  0
  4 10  1  0  0  0  0
  5 17  1  0  0  0  0
  6 20  1  0  0  0  0
  6 19  1  0  0  0  0
  7  2  1  0  0  0  0
  8  9  1  0  0  0  0
  9 11  1  1  0  0  0
 10 12  1  0  0  0  0
 10 13  1  6  0  0  0
 11  5  2  0  0  0  0
 14 15  1  0  0  0  0
 14  7  2  0  0  0  0
 15  1  2  0  0  0  0
 16 20  1  6  0  0  0
 16  7  1  0  0  0  0
 16  9  1  0  0  0  0
 17 12  1  0  0  0  0
 17 31  1  1  0  0  0
 18 13  1  0  0  0  0
 19  8  1  0  0  0  0
 21 24  2  0  0  0  0
 21 26  1  0  0  0  0
 22 21  1  0  0  0  0
 23 25  1  0  0  0  0
 23 15  1  0  0  0  0
 24 28  1  0  0  0  0
 26 23  2  0  0  0  0
 27 26  1  0  0  0  0
 28 30  1  0  0  0  0
 28 25  2  0  0  0  0
 29 30  1  0  0  0  0
 31 32  1  0  0  0  0
M  END
>  <MODEL>
2

>  <REMARK>
 VINA RESULT:      -7.8      1.731      7.108
  Name = 
  3 active torsions:
  status: ('A' for Active; 'I' for Inactive)
    1  A    between atoms: C_13  and  C_29
    2  A    between atoms: O_15  and  C_26
    3  A    between atoms: C_16  and  C_27
                            x       y       z     vdW  Elec       q    Type
                         _______ _______ _______ _____ _____    ______ ____

>  <TORSDO>
F 3

$$$$
=
 OpenBabel11062408213D

 32 37  0  0  1  0  0  0  0  0999 V2000
  161.4070  207.3530  150.1050 C   0  0  0  0  0  0  0  0  0  0  0  0
  161.1970  208.6970  152.1110 C   0  0  0  0  0  0  0  0  0  0  0  0
  161.7620  207.2420  148.6400 C   0  0  0  0  0  2  0  0  0  0  0  0
  161.4510  208.6070  150.7470 C   0  0  0  0  0  0  0  0  0  0  0  0
  161.2660  210.0150  152.7630 C   0  0  0  0  0  0  0  0  0  0  0  0
  160.2460  206.7610  156.5660 C   0  0  0  0  0  2  0  0  0  0  0  0
  160.8630  207.5500  152.8380 C   0  0  0  0  0  0  0  0  0  0  0  0
  160.6090  209.1300  156.2110 O   0  0  0  0  0  0  0  0  0  0  0  0
  161.1640  208.8750  154.9460 C   0  0  2  0  0  3  0  0  0  0  0  0
  161.5790  209.9020  149.9710 C   0  0  1  0  0  3  0  0  0  0  0  0
  161.1870  210.1180  154.0950 C   0  0  0  0  0  3  0  0  0  0  0  0
  162.2270  210.9080  150.7310 O   0  0  0  0  0  0  0  0  0  0  0  0
  162.2990  209.6890  148.6460 C   0  0  0  0  0  2  0  0  0  0  0  0
  160.8030  206.3480  152.2030 N   0  0  0  0  0  0  0  0  0  0  0  0
  161.0920  206.2080  150.8770 C   0  0  0  0  0  0  0  0  0  0  0  0
  160.4110  207.7130  154.2670 C   0  0  2  0  0  3  0  0  0  0  0  0
  161.4590  211.2230  151.8890 C   0  0  1  0  0  3  0  0  0  0  0  0
  161.6080  208.5640  147.8850 C   0  0  0  0  0  2  0  0  0  0  0  0
  160.9660  208.0360  157.0260 C   0  0  0  0  0  2  0  0  0  0  0  0
  160.6160  206.4590  155.1130 C   0  0  0  0  0  2  0  0  0  0  0  0
  160.9500  202.4280  150.4870 C   0  0  0  0  0  0  0  0  0  0  0  0
  160.8370  201.2770  151.2580 O   0  0  0  0  0  1  0  0  0  0  0  0
  161.0520  204.8520  150.2860 C   0  0  0  0  0  0  0  0  0  0  0  0
  161.0640  202.3090  149.1000 C   0  0  0  0  0  3  0  0  0  0  0  0
  161.1710  204.7130  148.8960 C   0  0  0  0  0  3  0  0  0  0  0  0
  160.9460  203.6950  151.0890 C   0  0  0  0  0  0  0  0  0  0  0  0
  160.7570  203.8080  152.8400 Cl  0  0  0  0  0  0  0  0  0  0  0  0
  161.1740  203.4530  148.2970 C   0  0  0  0  0  0  0  0  0  0  0  0
  161.9680  204.3420  146.1290 C   0  0  0  0  0  1  0  0  0  0  0  0
  161.2900  203.3640  146.9060 O   0  0  0  0  0  0  0  0  0  0  0  0
  160.1310  211.8930  151.5450 C   0  0  0  0  0  2  0  0  0  0  0  0
  159.8360  212.8730  152.4900 O   0  0  0  0  0  1  0  0  0  0  0  0
  1  4  2  0  0  0  0
  1 15  1  0  0  0  0
  2  5  1  0  0  0  0
  2  7  2  0  0  0  0
  3  1  1  0  0  0  0
  4  2  1  0  0  0  0
  5 11  2  0  0  0  0
  6 19  1  0  0  0  0
  7 16  1  0  0  0  0
  8 19  1  0  0  0  0
  9 11  1  6  0  0  0
  9  8  1  0  0  0  0
 10 13  1  6  0  0  0
 10 12  1  0  0  0  0
 10  4  1  0  0  0  0
 12 17  1  0  0  0  0
 14  7  1  0  0  0  0
 15 14  2  0  0  0  0
 16  9  1  0  0  0  0
 16 20  1  1  0  0  0
 17 31  1  6  0  0  0
 17  5  1  0  0  0  0
 18  3  1  0  0  0  0
 18 13  1  0  0  0  0
 20  6  1  0  0  0  0
 21 26  1  0  0  0  0
 21 22  1  0  0  0  0
 23 15  1  0  0  0  0
 23 26  2  0  0  0  0
 24 21  2  0  0  0  0
 25 23  1  0  0  0  0
 26 27  1  0  0  0  0
 28 25  2  0  0  0  0
 28 24  1  0  0  0  0
 29 30  1  0  0  0  0
 30 28  1  0  0  0  0
 31 32  1  0  0  0  0
M  END
>  <MODEL>
3

>  <REMARK>
 VINA RESULT:      -7.6      2.003      8.409
  Name = 
  3 active torsions:
  status: ('A' for Active; 'I' for Inactive)
    1  A    between atoms: C_13  and  C_29
    2  A    between atoms: O_15  and  C_26
    3  A    between atoms: C_16  and  C_27
                            x       y       z     vdW  Elec       q    Type
                         _______ _______ _______ _____ _____    ______ ____

>  <TORSDO>
F 3

$$$$
=
 OpenBabel11062408213D

 32 37  0  0  1  0  0  0  0  0999 V2000
  160.7700  208.1070  153.6140 C   0  0  0  0  0  0  0  0  0  0  0  0
  160.1280  210.3740  154.1820 C   0  0  0  0  0  0  0  0  0  0  0  0
  161.0160  206.6770  154.0350 C   0  0  0  0  0  2  0  0  0  0  0  0
  160.4290  209.0760  154.5800 C   0  0  0  0  0  0  0  0  0  0  0  0
  159.7590  211.3650  155.2070 C   0  0  0  0  0  0  0  0  0  0  0  0
  159.3500  213.8890  150.7840 C   0  0  0  0  0  2  0  0  0  0  0  0
  160.1990  210.7280  152.8320 C   0  0  0  0  0  0  0  0  0  0  0  0
  159.0580  214.2670  153.1600 O   0  0  0  0  0  0  0  0  0  0  0  0
  159.0500  212.8830  153.3990 C   0  0  2  0  0  3  0  0  0  0  0  0
  160.5610  208.8100  156.0650 C   0  0  1  0  0  3  0  0  0  0  0  0
  159.3090  212.5740  154.8500 C   0  0  0  0  0  3  0  0  0  0  0  0
  159.6270  209.5670  156.8190 O   0  0  0  0  0  0  0  0  0  0  0  0
  160.4220  207.3270  156.3790 C   0  0  0  0  0  2  0  0  0  0  0  0
  160.5500  209.7890  151.9100 N   0  0  0  0  0  0  0  0  0  0  0  0
  160.8050  208.4930  152.2510 C   0  0  0  0  0  0  0  0  0  0  0  0
  160.0530  212.1820  152.4610 C   0  0  2  0  0  3  0  0  0  0  0  0
  159.8710  210.9600  156.6510 C   0  0  1  0  0  3  0  0  0  0  0  0
  161.3990  206.5450  155.5100 C   0  0  0  0  0  2  0  0  0  0  0  0
  158.4570  214.4530  151.8990 C   0  0  0  0  0  2  0  0  0  0  0  0
  159.5860  212.3970  151.0240 C   0  0  0  0  0  2  0  0  0  0  0  0
  161.8680  207.0110  148.9140 C   0  0  0  0  0  0  0  0  0  0  0  0
  162.3550  207.4100  147.6740 O   0  0  0  0  0  1  0  0  0  0  0  0
  161.1260  207.5310  151.1740 C   0  0  0  0  0  0  0  0  0  0  0  0
  161.6370  205.6550  149.1510 C   0  0  0  0  0  3  0  0  0  0  0  0
  160.8960  206.1650  151.3920 C   0  0  0  0  0  3  0  0  0  0  0  0
  161.6130  207.9580  149.9180 C   0  0  0  0  0  0  0  0  0  0  0  0
  161.9570  209.6580  149.5970 Cl  0  0  0  0  0  0  0  0  0  0  0  0
  161.1510  205.2240  150.3930 C   0  0  0  0  0  0  0  0  0  0  0  0
  160.8310  203.3520  151.9780 C   0  0  0  0  0  1  0  0  0  0  0  0
  160.9100  203.8730  150.6580 O   0  0  0  0  0  0  0  0  0  0  0  0
  161.2010  211.3980  157.2600 C   0  0  0  0  0  2  0  0  0  0  0  0
  161.2850  212.7890  157.2610 O   0  0  0  0  0  1  0  0  0  0  0  0
  1  3  1  0  0  0  0
  1  4  1  0  0  0  0
  2  4  2  0  0  0  0
  2  5  1  0  0  0  0
  3 18  1  0  0  0  0
  4 10  1  0  0  0  0
  5 17  1  0  0  0  0
  6 20  1  0  0  0  0
  6 19  1  0  0  0  0
  7  2  1  0  0  0  0
  8  9  1  0  0  0  0
  9 11  1  1  0  0  0
 10 13  1  6  0  0  0
 10 12  1  0  0  0  0
 11  5  2  0  0  0  0
 14 15  1  0  0  0  0
 14  7  2  0  0  0  0
 15  1  2  0  0  0  0
 16 20  1  6  0  0  0
 16  7  1  0  0  0  0
 16  9  1  0  0  0  0
 17 12  1  0  0  0  0
 17 31  1  6  0  0  0
 18 13  1  0  0  0  0
 19  8  1  0  0  0  0
 21 24  2  0  0  0  0
 21 26  1  0  0  0  0
 22 21  1  0  0  0  0
 23 25  1  0  0  0  0
 23 15  1  0  0  0  0
 24 28  1  0  0  0  0
 26 23  2  0  0  0  0
 27 26  1  0  0  0  0
 28 30  1  0  0  0  0
 28 25  2  0  0  0  0
 30 29  1  0  0  0  0
 31 32  1  0  0  0  0
M  END
>  <MODEL>
4

>  <REMARK>
 VINA RESULT:      -7.3      2.866      8.228
  Name = 
  3 active torsions:
  status: ('A' for Active; 'I' for Inactive)
    1  A    between atoms: C_13  and  C_29
    2  A    between atoms: O_15  and  C_26
    3  A    between atoms: C_16  and  C_27
                            x       y       z     vdW  Elec       q    Type
                         _______ _______ _______ _____ _____    ______ ____

>  <TORSDO>
F 3

$$$$
=
 OpenBabel11062408213D

 32 37  0  0  1  0  0  0  0  0999 V2000
  161.4470  207.6490  150.3970 C   0  0  0  0  0  0  0  0  0  0  0  0
  161.3990  205.5500  149.1880 C   0  0  0  0  0  0  0  0  0  0  0  0
  161.5000  209.1590  150.3870 C   0  0  0  0  0  2  0  0  0  0  0  0
  161.5240  206.9340  149.1850 C   0  0  0  0  0  0  0  0  0  0  0  0
  161.4660  204.8250  147.9070 C   0  0  0  0  0  0  0  0  0  0  0  0
  160.5760  201.1900  151.3830 C   0  0  0  0  0  2  0  0  0  0  0  0
  161.2340  204.8630  150.3940 C   0  0  0  0  0  0  0  0  0  0  0  0
  160.9010  201.4190  148.9920 O   0  0  0  0  0  0  0  0  0  0  0  0
  160.6790  202.8040  149.0760 C   0  0  2  0  0  3  0  0  0  0  0  0
  161.9300  207.5990  147.8860 C   0  0  1  0  0  3  0  0  0  0  0  0
  161.1910  203.5180  147.8520 C   0  0  0  0  0  3  0  0  0  0  0  0
  161.3530  206.9530  146.7620 O   0  0  0  0  0  0  0  0  0  0  0  0
  161.5810  209.0810  147.8860 C   0  0  0  0  0  2  0  0  0  0  0  0
  161.1820  205.5620  151.5610 N   0  0  0  0  0  0  0  0  0  0  0  0
  161.2520  206.9250  151.5990 C   0  0  0  0  0  0  0  0  0  0  0  0
  161.2920  203.3570  150.3780 C   0  0  2  0  0  3  0  0  0  0  0  0
  161.8180  205.6100  146.6730 C   0  0  1  0  0  3  0  0  0  0  0  0
  162.1690  209.7270  149.1340 C   0  0  0  0  0  2  0  0  0  0  0  0
  160.0810  200.8280  149.9760 C   0  0  0  0  0  2  0  0  0  0  0  0
  160.5670  202.7100  151.5550 C   0  0  0  0  0  2  0  0  0  0  0  0
  160.7540  207.5640  155.3150 C   0  0  0  0  0  0  0  0  0  0  0  0
  160.5320  206.8690  156.4980 O   0  0  0  0  0  1  0  0  0  0  0  0
  161.1320  207.6010  152.9100 C   0  0  0  0  0  0  0  0  0  0  0  0
  160.8360  208.9570  155.3470 C   0  0  0  0  0  3  0  0  0  0  0  0
  161.2060  208.9990  152.9620 C   0  0  0  0  0  3  0  0  0  0  0  0
  160.8980  206.8760  154.1000 C   0  0  0  0  0  0  0  0  0  0  0  0
  160.8310  205.1130  154.1030 Cl  0  0  0  0  0  0  0  0  0  0  0  0
  161.0640  209.6830  154.1700 C   0  0  0  0  0  0  0  0  0  0  0  0
  160.0890  211.9140  153.7310 C   0  0  0  0  0  1  0  0  0  0  0  0
  161.1500  211.0780  154.1740 O   0  0  0  0  0  0  0  0  0  0  0  0
  163.3090  205.5270  146.3550 C   0  0  0  0  0  2  0  0  0  0  0  0
  163.5750  204.3640  145.6350 O   0  0  0  0  0  1  0  0  0  0  0  0
  1 15  1  0  0  0  0
  2  7  2  0  0  0  0
  3  1  1  0  0  0  0
  4  2  1  0  0  0  0
  4  1  2  0  0  0  0
  5  2  1  0  0  0  0
  6 20  1  0  0  0  0
  7 14  1  0  0  0  0
  8  9  1  0  0  0  0
  8 19  1  0  0  0  0
  9 11  1  6  0  0  0
  9 16  1  0  0  0  0
 10 13  1  1  0  0  0
 10  4  1  0  0  0  0
 11  5  2  0  0  0  0
 12 10  1  0  0  0  0
 13 18  1  0  0  0  0
 14 15  2  0  0  0  0
 15 23  1  0  0  0  0
 16  7  1  0  0  0  0
 16 20  1  1  0  0  0
 17 31  1  1  0  0  0
 17 12  1  0  0  0  0
 17  5  1  0  0  0  0
 18  3  1  0  0  0  0
 19  6  1  0  0  0  0
 21 24  1  0  0  0  0
 21 22  1  0  0  0  0
 23 25  2  0  0  0  0
 23 26  1  0  0  0  0
 25 28  1  0  0  0  0
 26 27  1  0  0  0  0
 26 21  2  0  0  0  0
 28 30  1  0  0  0  0
 28 24  2  0  0  0  0
 29 30  1  0  0  0  0
 32 31  1  0  0  0  0
M  END
>  <MODEL>
5

>  <REMARK>
 VINA RESULT:      -7.0      2.116      4.985
  Name = 
  3 active torsions:
  status: ('A' for Active; 'I' for Inactive)
    1  A    between atoms: C_13  and  C_29
    2  A    between atoms: O_15  and  C_26
    3  A    between atoms: C_16  and  C_27
                            x       y       z     vdW  Elec       q    Type
                         _______ _______ _______ _____ _____    ______ ____

>  <TORSDO>
F 3

$$$$
=
 OpenBabel11062408213D

 32 37  0  0  1  0  0  0  0  0999 V2000
  161.1690  209.0150  152.5620 C   0  0  0  0  0  0  0  0  0  0  0  0
  161.5840  209.5450  150.2340 C   0  0  0  0  0  0  0  0  0  0  0  0
  161.1880  208.0160  153.6950 C   0  0  0  0  0  2  0  0  0  0  0  0
  161.5290  208.6090  151.2610 C   0  0  0  0  0  0  0  0  0  0  0  0
  161.9800  209.1020  148.8860 C   0  0  0  0  0  0  0  0  0  0  0  0
  161.3220  214.1470  148.4270 C   0  0  0  0  0  2  0  0  0  0  0  0
  161.2480  210.8790  150.4820 C   0  0  0  0  0  0  0  0  0  0  0  0
  161.9430  212.2340  147.0740 O   0  0  0  0  0  0  0  0  0  0  0  0
  162.1750  211.4690  148.2290 C   0  0  2  0  0  3  0  0  0  0  0  0
  161.6770  207.1490  150.8870 C   0  0  1  0  0  3  0  0  0  0  0  0
  162.1990  209.9960  147.9150 C   0  0  0  0  0  3  0  0  0  0  0  0
  162.6110  206.9680  149.8350 O   0  0  0  0  0  0  0  0  0  0  0  0
  162.0630  206.3020  152.0930 C   0  0  0  0  0  2  0  0  0  0  0  0
  160.8810  211.2550  151.7380 N   0  0  0  0  0  0  0  0  0  0  0  0
  160.8600  210.3800  152.7850 C   0  0  0  0  0  0  0  0  0  0  0  0
  161.1360  211.8220  149.3110 C   0  0  2  0  0  3  0  0  0  0  0  0
  162.1580  207.6270  148.6550 C   0  0  1  0  0  3  0  0  0  0  0  0
  161.0720  206.5670  153.2190 C   0  0  0  0  0  2  0  0  0  0  0  0
  162.3000  213.5590  147.4010 C   0  0  0  0  0  2  0  0  0  0  0  0
  161.3300  213.2870  149.6930 C   0  0  0  0  0  2  0  0  0  0  0  0
  158.8850  211.7620  155.7250 C   0  0  0  0  0  0  0  0  0  0  0  0
  157.5840  212.1080  156.0710 O   0  0  0  0  0  1  0  0  0  0  0  0
  160.5000  210.8920  154.1250 C   0  0  0  0  0  0  0  0  0  0  0  0
  159.9070  211.9320  156.6620 C   0  0  0  0  0  3  0  0  0  0  0  0
  161.5130  211.0750  155.0770 C   0  0  0  0  0  3  0  0  0  0  0  0
  159.1730  211.2450  154.4530 C   0  0  0  0  0  0  0  0  0  0  0  0
  157.8500  211.0040  153.3100 Cl  0  0  0  0  0  0  0  0  0  0  0  0
  161.2270  211.5880  156.3430 C   0  0  0  0  0  0  0  0  0  0  0  0
  163.4480  210.9550  157.2300 C   0  0  0  0  0  1  0  0  0  0  0  0
  162.2690  211.7480  157.2610 O   0  0  0  0  0  0  0  0  0  0  0  0
  160.8990  206.9870  148.0760 C   0  0  0  0  0  2  0  0  0  0  0  0
  161.2110  206.3150  146.8950 O   0  0  0  0  0  1  0  0  0  0  0  0
  1 15  1  0  0  0  0
  1  3  1  0  0  0  0
  2  7  2  0  0  0  0
  2  4  1  0  0  0  0
  4  1  2  0  0  0  0
  5  2  1  0  0  0  0
  6 20  1  0  0  0  0
  7 14  1  0  0  0  0
  8 19  1  0  0  0  0
  8  9  1  0  0  0  0
  9 11  1  6  0  0  0
  9 16  1  0  0  0  0
 10  4  1  0  0  0  0
 10 13  1  1  0  0  0
 11  5  2  0  0  0  0
 12 10  1  0  0  0  0
 13 18  1  0  0  0  0
 14 15  2  0  0  0  0
 15 23  1  0  0  0  0
 16 20  1  1  0  0  0
 16  7  1  0  0  0  0
 17 31  1  1  0  0  0
 17  5  1  0  0  0  0
 17 12  1  0  0  0  0
 18  3  1  0  0  0  0
 19  6  1  0  0  0  0
 21 22  1  0  0  0  0
 21 24  1  0  0  0  0
 23 26  1  0  0  0  0
 23 25  2  0  0  0  0
 25 28  1  0  0  0  0
 26 21  2  0  0  0  0
 27 26  1  0  0  0  0
 28 24  2  0  0  0  0
 28 30  1  0  0  0  0
 29 30  1  0  0  0  0
 32 31  1  0  0  0  0
M  END
>  <MODEL>
6

>  <REMARK>
 VINA RESULT:      -6.8      3.686      6.070
  Name = 
  3 active torsions:
  status: ('A' for Active; 'I' for Inactive)
    1  A    between atoms: C_13  and  C_29
    2  A    between atoms: O_15  and  C_26
    3  A    between atoms: C_16  and  C_27
                            x       y       z     vdW  Elec       q    Type
                         _______ _______ _______ _____ _____    ______ ____

>  <TORSDO>
F 3

$$$$
=
 OpenBabel11062408213D

 32 37  0  0  1  0  0  0  0  0999 V2000
  160.8970  209.2270  152.3160 C   0  0  0  0  0  0  0  0  0  0  0  0
  161.6590  209.8280  150.0950 C   0  0  0  0  0  0  0  0  0  0  0  0
  160.7940  208.2110  153.4290 C   0  0  0  0  0  2  0  0  0  0  0  0
  161.4970  208.8710  151.0910 C   0  0  0  0  0  0  0  0  0  0  0  0
  162.3030  209.4360  148.8290 C   0  0  0  0  0  0  0  0  0  0  0  0
  161.3910  214.4350  148.3050 C   0  0  0  0  0  2  0  0  0  0  0  0
  161.1960  211.1320  150.2940 C   0  0  0  0  0  0  0  0  0  0  0  0
  162.3570  212.5930  147.0600 O   0  0  0  0  0  0  0  0  0  0  0  0
  162.4450  211.8230  148.2320 C   0  0  2  0  0  3  0  0  0  0  0  0
  161.8040  207.4310  150.7370 C   0  0  1  0  0  3  0  0  0  0  0  0
  162.6200  210.3610  147.9160 C   0  0  0  0  0  3  0  0  0  0  0  0
  162.9100  207.3310  149.8550 O   0  0  0  0  0  0  0  0  0  0  0  0
  162.0390  206.5890  151.9830 C   0  0  0  0  0  2  0  0  0  0  0  0
  160.6000  211.4590  151.4730 N   0  0  0  0  0  0  0  0  0  0  0  0
  160.4640  210.5650  152.4940 C   0  0  0  0  0  0  0  0  0  0  0  0
  161.2180  212.0870  149.1280 C   0  0  2  0  0  3  0  0  0  0  0  0
  162.6170  207.9810  148.6210 C   0  0  1  0  0  3  0  0  0  0  0  0
  160.8580  206.7670  152.9290 C   0  0  0  0  0  2  0  0  0  0  0  0
  162.5640  213.9320  147.4530 C   0  0  0  0  0  2  0  0  0  0  0  0
  161.2450  213.5540  149.5470 C   0  0  0  0  0  2  0  0  0  0  0  0
  159.9940  211.6490  156.1090 C   0  0  0  0  0  0  0  0  0  0  0  0
  160.7370  211.8790  157.2610 O   0  0  0  0  0  1  0  0  0  0  0  0
  159.8520  211.0270  153.7600 C   0  0  0  0  0  0  0  0  0  0  0  0
  158.6090  211.8260  156.1440 C   0  0  0  0  0  3  0  0  0  0  0  0
  158.4620  211.2050  153.8160 C   0  0  0  0  0  3  0  0  0  0  0  0
  160.6240  211.2470  154.9210 C   0  0  0  0  0  0  0  0  0  0  0  0
  162.3800  211.0740  154.9020 Cl  0  0  0  0  0  0  0  0  0  0  0  0
  157.8360  211.6060  154.9970 C   0  0  0  0  0  0  0  0  0  0  0  0
  155.5420  210.6810  155.0140 C   0  0  0  0  0  1  0  0  0  0  0  0
  156.4480  211.7750  155.0040 O   0  0  0  0  0  0  0  0  0  0  0  0
  161.5190  207.2710  147.8330 C   0  0  0  0  0  2  0  0  0  0  0  0
  162.0540  206.1770  147.1550 O   0  0  0  0  0  1  0  0  0  0  0  0
  1 15  1  0  0  0  0
  1  3  1  0  0  0  0
  2  7  2  0  0  0  0
  2  4  1  0  0  0  0
  4  1  2  0  0  0  0
  5  2  1  0  0  0  0
  6 20  1  0  0  0  0
  7 14  1  0  0  0  0
  8 19  1  0  0  0  0
  8  9  1  0  0  0  0
  9 11  1  6  0  0  0
  9 16  1  0  0  0  0
 10  4  1  0  0  0  0
 10 13  1  1  0  0  0
 11  5  2  0  0  0  0
 12 10  1  0  0  0  0
 13 18  1  0  0  0  0
 14 15  2  0  0  0  0
 15 23  1  0  0  0  0
 16 20  1  1  0  0  0
 16  7  1  0  0  0  0
 17 31  1  1  0  0  0
 17  5  1  0  0  0  0
 17 12  1  0  0  0  0
 18  3  1  0  0  0  0
 19  6  1  0  0  0  0
 21 24  1  0  0  0  0
 21 22  1  0  0  0  0
 23 25  2  0  0  0  0
 23 26  1  0  0  0  0
 25 28  1  0  0  0  0
 26 21  2  0  0  0  0
 27 26  1  0  0  0  0
 28 30  1  0  0  0  0
 28 24  2  0  0  0  0
 30 29  1  0  0  0  0
 32 31  1  0  0  0  0
M  END
>  <MODEL>
7

>  <REMARK>
 VINA RESULT:      -6.7      3.802      6.294
  Name = 
  3 active torsions:
  status: ('A' for Active; 'I' for Inactive)
    1  A    between atoms: C_13  and  C_29
    2  A    between atoms: O_15  and  C_26
    3  A    between atoms: C_16  and  C_27
                            x       y       z     vdW  Elec       q    Type
                         _______ _______ _______ _____ _____    ______ ____

>  <TORSDO>
F 3

$$$$
=
 OpenBabel11062408213D

 32 37  0  0  1  0  0  0  0  0999 V2000
  161.0560  205.1970  150.5820 C   0  0  0  0  0  0  0  0  0  0  0  0
  161.2090  207.4580  151.4400 C   0  0  0  0  0  0  0  0  0  0  0  0
  160.7340  203.7370  150.8030 C   0  0  0  0  0  2  0  0  0  0  0  0
  160.9860  206.1030  151.6590 C   0  0  0  0  0  0  0  0  0  0  0  0
  161.1150  208.3890  152.5780 C   0  0  0  0  0  0  0  0  0  0  0  0
  162.0810  211.3850  148.5540 C   0  0  0  0  0  2  0  0  0  0  0  0
  161.5380  207.9160  150.1610 C   0  0  0  0  0  0  0  0  0  0  0  0
  161.7040  211.5630  150.9420 O   0  0  0  0  0  0  0  0  0  0  0  0
  161.1790  210.2610  150.9750 C   0  0  2  0  0  3  0  0  0  0  0  0
  160.8640  205.6360  153.0950 C   0  0  1  0  0  3  0  0  0  0  0  0
  161.1630  209.7110  152.3780 C   0  0  0  0  0  3  0  0  0  0  0  0
  160.1900  206.5890  153.9020 O   0  0  0  0  0  0  0  0  0  0  0  0
  160.1750  204.2810  153.1830 C   0  0  0  0  0  2  0  0  0  0  0  0
  161.6230  207.0290  149.1320 N   0  0  0  0  0  0  0  0  0  0  0  0
  161.3650  205.6990  149.2940 C   0  0  0  0  0  0  0  0  0  0  0  0
  161.9570  209.3550  149.9990 C   0  0  2  0  0  3  0  0  0  0  0  0
  160.9290  207.8050  153.9510 C   0  0  1  0  0  3  0  0  0  0  0  0
  160.8920  203.3030  152.2610 C   0  0  0  0  0  2  0  0  0  0  0  0
  161.3390  212.1030  149.6910 C   0  0  0  0  0  2  0  0  0  0  0  0
  161.7450  209.8930  148.5860 C   0  0  0  0  0  2  0  0  0  0  0  0
  161.5990  204.4700  145.7020 C   0  0  0  0  0  0  0  0  0  0  0  0
  161.7550  204.9630  144.4120 O   0  0  0  0  0  1  0  0  0  0  0  0
  161.4290  204.8190  148.1060 C   0  0  0  0  0  0  0  0  0  0  0  0
  161.4640  203.0940  145.8940 C   0  0  0  0  0  3  0  0  0  0  0  0
  161.2900  203.4350  148.2780 C   0  0  0  0  0  3  0  0  0  0  0  0
  161.5800  205.3410  146.8020 C   0  0  0  0  0  0  0  0  0  0  0  0
  161.7970  207.0710  146.5270 Cl  0  0  0  0  0  0  0  0  0  0  0  0
  161.3100  202.5680  147.1840 C   0  0  0  0  0  0  0  0  0  0  0  0
  161.2800  200.6100  148.6950 C   0  0  0  0  0  1  0  0  0  0  0  0
  161.1720  201.1950  147.4050 O   0  0  0  0  0  0  0  0  0  0  0  0
  162.2580  207.6520  154.6860 C   0  0  0  0  0  2  0  0  0  0  0  0
  162.1020  208.0060  156.0250 O   0  0  0  0  0  1  0  0  0  0  0  0
  1  3  1  0  0  0  0
  1  4  1  0  0  0  0
  2  4  2  0  0  0  0
  2  5  1  0  0  0  0
  3 18  1  0  0  0  0
  4 10  1  0  0  0  0
  5 17  1  0  0  0  0
  6 20  1  0  0  0  0
  6 19  1  0  0  0  0
  7  2  1  0  0  0  0
  8  9  1  0  0  0  0
  9 11  1  1  0  0  0
 10 13  1  6  0  0  0
 10 12  1  0  0  0  0
 11  5  2  0  0  0  0
 12 17  1  0  0  0  0
 14 15  1  0  0  0  0
 14  7  2  0  0  0  0
 15  1  2  0  0  0  0
 16 20  1  6  0  0  0
 16  7  1  0  0  0  0
 16  9  1  0  0  0  0
 17 31  1  6  0  0  0
 18 13  1  0  0  0  0
 19  8  1  0  0  0  0
 21 24  2  0  0  0  0
 21 26  1  0  0  0  0
 22 21  1  0  0  0  0
 23 25  1  0  0  0  0
 23 15  1  0  0  0  0
 24 28  1  0  0  0  0
 26 23  2  0  0  0  0
 27 26  1  0  0  0  0
 28 30  1  0  0  0  0
 28 25  2  0  0  0  0
 30 29  1  0  0  0  0
 31 32  1  0  0  0  0
M  END
>  <MODEL>
8

>  <REMARK>
 VINA RESULT:      -6.6      1.462      6.650
  Name = 
  3 active torsions:
  status: ('A' for Active; 'I' for Inactive)
    1  A    between atoms: C_13  and  C_29
    2  A    between atoms: O_15  and  C_26
    3  A    between atoms: C_16  and  C_27
                            x       y       z     vdW  Elec       q    Type
                         _______ _______ _______ _____ _____    ______ ____

>  <TORSDO>
F 3

$$$$
=
 OpenBabel11062408213D

 32 37  0  0  1  0  0  0  0  0999 V2000
  161.4320  208.4460  149.7630 C   0  0  0  0  0  0  0  0  0  0  0  0
  161.2250  207.3290  151.9040 C   0  0  0  0  0  0  0  0  0  0  0  0
  161.3770  208.3940  148.2540 C   0  0  0  0  0  2  0  0  0  0  0  0
  161.2500  207.2680  150.5150 C   0  0  0  0  0  0  0  0  0  0  0  0
  161.0170  206.0880  152.6680 C   0  0  0  0  0  0  0  0  0  0  0  0
  161.2820  209.7460  156.2240 C   0  0  0  0  0  2  0  0  0  0  0  0
  161.4160  208.5510  152.5550 C   0  0  0  0  0  0  0  0  0  0  0  0
  160.9790  207.3470  156.0610 O   0  0  0  0  0  0  0  0  0  0  0  0
  160.6900  207.4570  154.6910 C   0  0  2  0  0  3  0  0  0  0  0  0
  161.2700  205.8960  149.8740 C   0  0  1  0  0  3  0  0  0  0  0  0
  160.8270  206.1300  153.9920 C   0  0  0  0  0  3  0  0  0  0  0  0
  160.4740  204.9680  150.5940 O   0  0  0  0  0  0  0  0  0  0  0  0
  160.8310  205.9560  148.4170 C   0  0  0  0  0  2  0  0  0  0  0  0
  161.6120  209.6800  151.8190 N   0  0  0  0  0  0  0  0  0  0  0  0
  161.5950  209.6720  150.4550 C   0  0  0  0  0  0  0  0  0  0  0  0
  161.5720  208.5500  154.0540 C   0  0  2  0  0  3  0  0  0  0  0  0
  160.9920  204.7900  151.9090 C   0  0  1  0  0  3  0  0  0  0  0  0
  161.6690  207.0020  147.6920 C   0  0  0  0  0  2  0  0  0  0  0  0
  160.4750  208.5170  156.6660 C   0  0  0  0  0  2  0  0  0  0  0  0
  161.2130  209.8850  154.7020 C   0  0  0  0  0  2  0  0  0  0  0  0
  161.2070  213.3000  149.3830 C   0  0  0  0  0  0  0  0  0  0  0  0
  160.5140  214.4510  149.7390 O   0  0  0  0  0  1  0  0  0  0  0  0
  161.7630  210.9570  149.7400 C   0  0  0  0  0  0  0  0  0  0  0  0
  162.0740  213.3380  148.2890 C   0  0  0  0  0  3  0  0  0  0  0  0
  162.6250  211.0130  148.6360 C   0  0  0  0  0  3  0  0  0  0  0  0
  161.0430  212.1130  150.1130 C   0  0  0  0  0  0  0  0  0  0  0  0
  159.9710  212.1140  151.5160 Cl  0  0  0  0  0  0  0  0  0  0  0  0
  162.7890  212.1940  147.9110 C   0  0  0  0  0  0  0  0  0  0  0  0
  163.4110  212.9530  145.6400 C   0  0  0  0  0  1  0  0  0  0  0  0
  163.6630  212.2030  146.8200 O   0  0  0  0  0  0  0  0  0  0  0  0
  162.3570  204.1060  151.9110 C   0  0  0  0  0  2  0  0  0  0  0  0
  162.2060  202.7480  151.6350 O   0  0  0  0  0  1  0  0  0  0  0  0
  1 15  2  0  0  0  0
  1  4  1  0  0  0  0
  2  7  1  0  0  0  0
  2  5  1  0  0  0  0
  3  1  1  0  0  0  0
  4  2  2  0  0  0  0
  5 11  2  0  0  0  0
  6 19  1  0  0  0  0
  7 16  1  0  0  0  0
  8 19  1  0  0  0  0
  9 11  1  6  0  0  0
  9  8  1  0  0  0  0
 10 13  1  6  0  0  0
 10  4  1  0  0  0  0
 10 12  1  0  0  0  0
 12 17  1  0  0  0  0
 14  7  2  0  0  0  0
 15 14  1  0  0  0  0
 16  9  1  0  0  0  0
 16 20  1  1  0  0  0
 17 31  1  6  0  0  0
 17  5  1  0  0  0  0
 18  3  1  0  0  0  0
 18 13  1  0  0  0  0
 20  6  1  0  0  0  0
 21 22  1  0  0  0  0
 21 26  1  0  0  0  0
 23 26  2  0  0  0  0
 23 15  1  0  0  0  0
 24 21  2  0  0  0  0
 25 23  1  0  0  0  0
 26 27  1  0  0  0  0
 28 24  1  0  0  0  0
 28 25  2  0  0  0  0
 29 30  1  0  0  0  0
 30 28  1  0  0  0  0
 32 31  1  0  0  0  0
M  END
>  <MODEL>
9

>  <REMARK>
 VINA RESULT:      -6.5      2.864      6.688
  Name = 
  3 active torsions:
  status: ('A' for Active; 'I' for Inactive)
    1  A    between atoms: C_13  and  C_29
    2  A    between atoms: O_15  and  C_26
    3  A    between atoms: C_16  and  C_27
                            x       y       z     vdW  Elec       q    Type
                         _______ _______ _______ _____ _____    ______ ____

>  <TORSDO>
F 3

$$$$
