=
 OpenBabel11062408103D

 34 39  0  0  1  0  0  0  0  0999 V2000
  161.1210  204.1530  151.3640 C   0  0  0  0  0  0  0  0  0  0  0  0
  160.9010  205.0150  149.0980 C   0  0  0  0  0  0  0  0  0  0  0  0
  161.1340  206.5780  151.0680 C   0  0  0  0  0  0  0  0  0  0  0  0
  161.1220  209.1200  151.0160 C   0  0  2  0  0  3  0  0  0  0  0  0
  161.2070  202.8550  150.8580 C   0  0  0  0  0  3  0  0  0  0  0  0
  160.9810  203.7050  148.6160 C   0  0  0  0  0  3  0  0  0  0  0  0
  162.3880  207.7930  149.3200 C   0  0  0  0  0  3  0  0  0  0  0  0
  161.0700  205.2730  150.4880 C   0  0  0  0  0  0  0  0  0  0  0  0
  162.9120  209.0440  148.6830 C   0  0  0  0  0  2  0  0  0  0  0  0
  161.6810  210.3850  150.3450 C   0  0  0  0  0  2  0  0  0  0  0  0
  161.1660  202.6330  149.4850 C   0  0  0  0  0  3  0  0  0  0  0  0
  160.9670  206.7280  152.4640 C   0  0  0  0  0  0  0  0  0  0  0  0
  161.0360  204.3230  152.7430 C   0  0  0  0  0  3  0  0  0  0  0  0
  160.2910  206.1980  147.9440 Cl  0  0  0  0  0  0  0  0  0  0  0  0
  161.5480  209.0900  152.3560 O   0  0  0  0  0  0  0  0  0  0  0  0
  160.7700  208.1290  153.0360 C   0  0  2  0  0  3  0  0  0  0  0  0
  161.9130  210.1820  148.8540 C   0  0  1  0  0  3  0  0  0  0  0  0
  161.5270  207.8170  150.3490 C   0  0  0  0  0  0  0  0  0  0  0  0
  160.9160  205.5960  153.2870 C   0  0  0  0  0  3  0  0  0  0  0  0
  162.1060  209.3430  156.3710 C   0  0  0  0  0  0  0  0  0  0  0  0
  161.5190  208.4370  157.2590 C   0  0  0  0  0  3  0  0  0  0  0  0
  161.0330  208.2190  154.5110 C   0  0  0  0  0  0  0  0  0  0  0  0
  160.6860  207.4220  156.7760 C   0  0  0  0  0  3  0  0  0  0  0  0
  161.8620  209.2350  154.9990 C   0  0  0  0  0  3  0  0  0  0  0  0
  160.4420  207.3140  155.4050 C   0  0  0  0  0  3  0  0  0  0  0  0
  163.1450  210.6130  156.9770 Cl  0  0  0  0  0  0  0  0  0  0  0  0
  162.4520  211.4010  148.2790 N   0  0  0  0  0  2  0  0  0  0  0  0
  161.4530  212.3800  148.3870 N   0  0  0  0  0  2  0  0  0  0  0  0
  161.6290  212.9760  146.0270 C   0  0  0  0  0  2  0  0  0  0  0  0
  158.5240  213.1310  147.8270 N   0  0  0  0  0  2  0  0  0  0  0  0
  159.6250  213.3650  147.1960 C   0  0  0  0  0  0  0  0  0  0  0  0
  161.0330  214.3290  145.6170 C   0  0  0  0  0  3  0  0  0  0  0  0
  160.7350  212.3930  147.1220 C   0  0  2  0  0  3  0  0  0  0  0  0
  159.7610  214.4470  146.3020 N   0  0  0  0  0  0  0  0  0  0  0  0
  1 13  1  0  0  0  0
  2  8  1  0  0  0  0
  3 12  2  0  0  0  0
  4 10  1  6  0  0  0
  4 15  1  0  0  0  0
  5  1  1  0  0  0  0
  6  2  2  0  0  0  0
  6 11  1  0  0  0  0
  7 18  2  0  0  0  0
  8  3  1  0  0  0  0
  8  1  2  0  0  0  0
  9 17  1  0  0  0  0
  9  7  1  0  0  0  0
 11  5  2  0  0  0  0
 12 16  1  0  0  0  0
 12 19  1  0  0  0  0
 13 19  2  0  0  0  0
 14  2  1  0  0  0  0
 15 16  1  0  0  0  0
 16 22  1  1  0  0  0
 17 27  1  1  0  0  0
 17 10  1  0  0  0  0
 18  4  1  0  0  0  0
 18  3  1  0  0  0  0
 20 26  1  0  0  0  0
 20 21  1  0  0  0  0
 22 24  1  0  0  0  0
 22 25  2  0  0  0  0
 23 21  2  0  0  0  0
 24 20  2  0  0  0  0
 25 23  1  0  0  0  0
 27 28  1  0  0  0  0
 29 33  1  0  0  0  0
 31 30  2  0  0  0  0
 32 29  1  0  0  0  0
 32 34  2  0  0  0  0
 33 31  1  0  0  0  0
 33 28  1  1  0  0  0
 34 31  1  0  0  0  0
M  END
>  <MODEL>
1

>  <REMARK>
 VINA RESULT:      -9.6      0.000      0.000
  Name = 
  4 active torsions:
  status: ('A' for Active; 'I' for Inactive)
    1  A    between atoms: N_3  and  N_13
    2  A    between atoms: N_3  and  C_29
    3  A    between atoms: C_12  and  C_28
    4  A    between atoms: N_13  and  C_33
                            x       y       z     vdW  Elec       q    Type
                         _______ _______ _______ _____ _____    ______ ____

>  <TORSDO>
F 4

$$$$
=
 OpenBabel11062408103D

 34 39  0  0  1  0  0  0  0  0999 V2000
  160.6330  207.0580  154.7760 C   0  0  0  0  0  0  0  0  0  0  0  0
  161.3420  209.3860  154.8570 C   0  0  0  0  0  0  0  0  0  0  0  0
  161.3440  208.0990  152.6840 C   0  0  0  0  0  0  0  0  0  0  0  0
  162.0850  208.9450  150.4030 C   0  0  2  0  0  3  0  0  0  0  0  0
  160.2390  207.1350  156.1130 C   0  0  0  0  0  3  0  0  0  0  0  0
  160.9470  209.4360  156.1970 C   0  0  0  0  0  3  0  0  0  0  0  0
  160.6920  210.3560  151.9220 C   0  0  0  0  0  3  0  0  0  0  0  0
  161.0980  208.2130  154.0870 C   0  0  0  0  0  0  0  0  0  0  0  0
  160.6210  211.4480  150.8970 C   0  0  0  0  0  2  0  0  0  0  0  0
  161.9880  210.0780  149.3700 C   0  0  0  0  0  2  0  0  0  0  0  0
  160.3690  208.3300  156.8150 C   0  0  0  0  0  3  0  0  0  0  0  0
  161.3880  206.8170  152.0870 C   0  0  0  0  0  0  0  0  0  0  0  0
  160.6080  205.8150  154.1480 C   0  0  0  0  0  3  0  0  0  0  0  0
  162.3890  210.7030  154.3370 Cl  0  0  0  0  0  0  0  0  0  0  0  0
  161.5200  207.7790  149.8530 O   0  0  0  0  0  0  0  0  0  0  0  0
  161.9110  206.6880  150.6590 C   0  0  2  0  0  3  0  0  0  0  0  0
  161.8760  211.4440  150.0340 C   0  0  1  0  0  3  0  0  0  0  0  0
  161.4030  209.2350  151.7290 C   0  0  0  0  0  0  0  0  0  0  0  0
  161.0230  205.6880  152.8290 C   0  0  0  0  0  3  0  0  0  0  0  0
  161.2510  204.1100  147.9570 C   0  0  0  0  0  0  0  0  0  0  0  0
  160.8310  203.0100  148.7110 C   0  0  0  0  0  3  0  0  0  0  0  0
  161.5200  205.4030  149.9890 C   0  0  0  0  0  0  0  0  0  0  0  0
  160.7570  203.1030  150.1040 C   0  0  0  0  0  3  0  0  0  0  0  0
  161.5970  205.3040  148.5950 C   0  0  0  0  0  3  0  0  0  0  0  0
  161.1020  204.2960  150.7430 C   0  0  0  0  0  3  0  0  0  0  0  0
  161.3460  203.9910  146.2140 Cl  0  0  0  0  0  0  0  0  0  0  0  0
  161.7750  212.4710  149.0130 N   0  0  0  0  0  2  0  0  0  0  0  0
  161.2360  211.8600  147.8710 N   0  0  0  0  0  2  0  0  0  0  0  0
  159.2910  212.5770  146.5840 C   0  0  0  0  0  2  0  0  0  0  0  0
  162.6490  213.4420  145.6450 N   0  0  0  0  0  2  0  0  0  0  0  0
  161.4580  212.9530  145.7540 C   0  0  0  0  0  0  0  0  0  0  0  0
  159.3320  212.3070  145.0750 C   0  0  0  0  0  3  0  0  0  0  0  0
  160.7130  212.9230  147.0280 C   0  0  2  0  0  3  0  0  0  0  0  0
  160.6660  212.6540  144.6270 N   0  0  0  0  0  0  0  0  0  0  0  0
  1  5  2  0  0  0  0
  2  6  1  0  0  0  0
  3  8  1  0  0  0  0
  4 10  1  6  0  0  0
  4 18  1  0  0  0  0
  5 11  1  0  0  0  0
  6 11  2  0  0  0  0
  8  1  1  0  0  0  0
  8  2  2  0  0  0  0
  9  7  1  0  0  0  0
 10 17  1  0  0  0  0
 12  3  2  0  0  0  0
 12 19  1  0  0  0  0
 13  1  1  0  0  0  0
 14  2  1  0  0  0  0
 15  4  1  0  0  0  0
 15 16  1  0  0  0  0
 16 22  1  6  0  0  0
 16 12  1  0  0  0  0
 17 27  1  6  0  0  0
 17  9  1  0  0  0  0
 18  7  2  0  0  0  0
 18  3  1  0  0  0  0
 19 13  2  0  0  0  0
 20 24  2  0  0  0  0
 20 21  1  0  0  0  0
 21 23  2  0  0  0  0
 22 25  2  0  0  0  0
 23 25  1  0  0  0  0
 24 22  1  0  0  0  0
 26 20  1  0  0  0  0
 28 27  1  0  0  0  0
 29 33  1  0  0  0  0
 30 31  2  0  0  0  0
 31 33  1  0  0  0  0
 32 29  1  0  0  0  0
 33 28  1  1  0  0  0
 34 32  2  0  0  0  0
 34 31  1  0  0  0  0
M  END
>  <MODEL>
2

>  <REMARK>
 VINA RESULT:      -9.0      1.416      5.550
  Name = 
  4 active torsions:
  status: ('A' for Active; 'I' for Inactive)
    1  A    between atoms: N_3  and  N_13
    2  A    between atoms: N_3  and  C_29
    3  A    between atoms: C_12  and  C_28
    4  A    between atoms: N_13  and  C_33
                            x       y       z     vdW  Elec       q    Type
                         _______ _______ _______ _____ _____    ______ ____

>  <TORSDO>
F 4

$$$$
=
 OpenBabel11062408103D

 34 39  0  0  1  0  0  0  0  0999 V2000
  161.6030  210.4380  150.4420 C   0  0  0  0  0  0  0  0  0  0  0  0
  162.2580  208.8650  148.7030 C   0  0  0  0  0  0  0  0  0  0  0  0
  161.6550  208.0650  151.0210 C   0  0  0  0  0  0  0  0  0  0  0  0
  161.6850  205.6690  151.8710 C   0  0  2  0  0  3  0  0  0  0  0  0
  161.6120  211.4730  149.5050 C   0  0  0  0  0  3  0  0  0  0  0  0
  162.2680  209.9190  147.7850 C   0  0  0  0  0  3  0  0  0  0  0  0
  160.7650  206.2370  149.6190 C   0  0  0  0  0  3  0  0  0  0  0  0
  161.8250  209.0910  150.0410 C   0  0  0  0  0  0  0  0  0  0  0  0
  160.3780  204.8090  149.3810 C   0  0  0  0  0  2  0  0  0  0  0  0
  161.2700  204.2140  151.6000 C   0  0  0  0  0  2  0  0  0  0  0  0
  161.9150  211.2100  148.1730 C   0  0  0  0  0  3  0  0  0  0  0  0
  161.5500  208.4190  152.3860 C   0  0  0  0  0  0  0  0  0  0  0  0
  161.4210  210.7600  151.7850 C   0  0  0  0  0  3  0  0  0  0  0  0
  163.0820  207.4030  148.1690 Cl  0  0  0  0  0  0  0  0  0  0  0  0
  161.0090  206.1290  153.0150 O   0  0  0  0  0  0  0  0  0  0  0  0
  161.6390  207.3190  153.4410 C   0  0  2  0  0  3  0  0  0  0  0  0
  161.3290  203.8740  150.1170 C   0  0  1  0  0  3  0  0  0  0  0  0
  161.4120  206.6300  150.7270 C   0  0  0  0  0  0  0  0  0  0  0  0
  161.4390  209.7650  152.7530 C   0  0  0  0  0  3  0  0  0  0  0  0
  160.9420  209.3670  156.5550 C   0  0  0  0  0  0  0  0  0  0  0  0
  160.0770  208.5260  157.2610 C   0  0  0  0  0  3  0  0  0  0  0  0
  161.0970  207.7240  154.7800 C   0  0  0  0  0  0  0  0  0  0  0  0
  159.7180  207.2840  156.7280 C   0  0  0  0  0  3  0  0  0  0  0  0
  161.4500  208.9680  155.3160 C   0  0  0  0  0  3  0  0  0  0  0  0
  160.2260  206.8830  155.4890 C   0  0  0  0  0  3  0  0  0  0  0  0
  161.3880  210.9220  157.2220 Cl  0  0  0  0  0  0  0  0  0  0  0  0
  160.9140  202.4960  149.9220 N   0  0  0  0  0  2  0  0  0  0  0  0
  160.2730  202.4350  148.6760 N   0  0  0  0  0  2  0  0  0  0  0  0
  161.1730  203.3400  146.5960 C   0  0  0  0  0  2  0  0  0  0  0  0
  161.3270  199.8420  147.4010 N   0  0  0  0  0  2  0  0  0  0  0  0
  161.0690  201.0140  146.9220 C   0  0  0  0  0  0  0  0  0  0  0  0
  160.7340  202.6450  145.3010 C   0  0  0  0  0  3  0  0  0  0  0  0
  161.3110  202.2620  147.6720 C   0  0  2  0  0  3  0  0  0  0  0  0
  160.7900  201.2200  145.5560 N   0  0  0  0  0  0  0  0  0  0  0  0
  1 13  1  0  0  0  0
  2  8  1  0  0  0  0
  3 12  2  0  0  0  0
  4 10  1  6  0  0  0
  4 15  1  0  0  0  0
  5  1  1  0  0  0  0
  6 11  1  0  0  0  0
  6  2  2  0  0  0  0
  7 18  2  0  0  0  0
  8  1  2  0  0  0  0
  8  3  1  0  0  0  0
  9  7  1  0  0  0  0
  9 17  1  0  0  0  0
 11  5  2  0  0  0  0
 12 19  1  0  0  0  0
 12 16  1  0  0  0  0
 13 19  2  0  0  0  0
 14  2  1  0  0  0  0
 15 16  1  0  0  0  0
 16 22  1  1  0  0  0
 17 27  1  1  0  0  0
 17 10  1  0  0  0  0
 18  3  1  0  0  0  0
 18  4  1  0  0  0  0
 20 26  1  0  0  0  0
 20 21  1  0  0  0  0
 22 24  1  0  0  0  0
 22 25  2  0  0  0  0
 23 21  2  0  0  0  0
 24 20  2  0  0  0  0
 25 23  1  0  0  0  0
 28 27  1  0  0  0  0
 29 33  1  0  0  0  0
 31 30  2  0  0  0  0
 31 33  1  0  0  0  0
 32 34  2  0  0  0  0
 32 29  1  0  0  0  0
 33 28  1  1  0  0  0
 34 31  1  0  0  0  0
M  END
>  <MODEL>
3

>  <REMARK>
 VINA RESULT:      -7.3      3.985      6.688
  Name = 
  4 active torsions:
  status: ('A' for Active; 'I' for Inactive)
    1  A    between atoms: N_3  and  N_13
    2  A    between atoms: N_3  and  C_29
    3  A    between atoms: C_12  and  C_28
    4  A    between atoms: N_13  and  C_33
                            x       y       z     vdW  Elec       q    Type
                         _______ _______ _______ _____ _____    ______ ____

>  <TORSDO>
F 4

$$$$
=
 OpenBabel11062408103D

 34 39  0  0  1  0  0  0  0  0999 V2000
  161.5420  209.9250  155.0860 C   0  0  0  0  0  0  0  0  0  0  0  0
  160.9700  207.5700  155.3160 C   0  0  0  0  0  0  0  0  0  0  0  0
  161.1680  208.6440  153.0390 C   0  0  0  0  0  0  0  0  0  0  0  0
  160.7780  207.5360  150.7840 C   0  0  2  0  0  3  0  0  0  0  0  0
  161.7660  210.0020  156.4610 C   0  0  0  0  0  3  0  0  0  0  0  0
  161.1930  207.6740  156.6920 C   0  0  0  0  0  3  0  0  0  0  0  0
  162.0480  206.3780  152.5970 C   0  0  0  0  0  3  0  0  0  0  0  0
  161.2390  208.6800  154.4660 C   0  0  0  0  0  0  0  0  0  0  0  0
  162.3150  205.2040  151.7050 C   0  0  0  0  0  2  0  0  0  0  0  0
  161.0740  206.3210  149.8920 C   0  0  0  0  0  2  0  0  0  0  0  0
  161.6200  208.8720  157.2600 C   0  0  0  0  0  3  0  0  0  0  0  0
  161.1230  209.8570  152.3140 C   0  0  0  0  0  0  0  0  0  0  0  0
  161.5720  211.1020  154.3420 C   0  0  0  0  0  3  0  0  0  0  0  0
  160.0800  206.1360  154.8110 Cl  0  0  0  0  0  0  0  0  0  0  0  0
  161.3360  208.6830  150.1910 O   0  0  0  0  0  0  0  0  0  0  0  0
  160.7810  209.8140  150.8270 C   0  0  2  0  0  3  0  0  0  0  0  0
  161.1820  205.0360  150.7000 C   0  0  1  0  0  3  0  0  0  0  0  0
  161.3000  207.4220  152.2060 C   0  0  0  0  0  0  0  0  0  0  0  0
  161.3210  211.0750  152.9760 C   0  0  0  0  0  3  0  0  0  0  0  0
  162.6370  212.1570  148.4950 C   0  0  0  0  0  0  0  0  0  0  0  0
  161.9170  213.3450  148.6530 C   0  0  0  0  0  3  0  0  0  0  0  0
  161.1750  211.0560  150.0830 C   0  0  0  0  0  0  0  0  0  0  0  0
  160.8240  213.3900  149.5230 C   0  0  0  0  0  3  0  0  0  0  0  0
  162.2660  211.0140  149.2080 C   0  0  0  0  0  3  0  0  0  0  0  0
  160.4520  212.2480  150.2360 C   0  0  0  0  0  3  0  0  0  0  0  0
  164.0040  212.1010  147.4030 Cl  0  0  0  0  0  0  0  0  0  0  0  0
  161.4760  203.9280  149.8080 N   0  0  0  0  0  2  0  0  0  0  0  0
  160.9440  204.2610  148.5540 N   0  0  0  0  0  2  0  0  0  0  0  0
  162.3660  204.9210  146.6850 C   0  0  0  0  0  2  0  0  0  0  0  0
  160.7780  201.7030  146.8550 N   0  0  0  0  0  2  0  0  0  0  0  0
  161.1500  202.9110  146.5890 C   0  0  0  0  0  0  0  0  0  0  0  0
  161.7850  204.7230  145.2800 C   0  0  0  0  0  3  0  0  0  0  0  0
  161.8740  203.7630  147.5530 C   0  0  2  0  0  3  0  0  0  0  0  0
  161.1390  203.4260  145.2760 N   0  0  0  0  0  0  0  0  0  0  0  0
  1  5  2  0  0  0  0
  2  6  1  0  0  0  0
  3  8  1  0  0  0  0
  4 10  1  6  0  0  0
  4 18  1  0  0  0  0
  5 11  1  0  0  0  0
  6 11  2  0  0  0  0
  8  1  1  0  0  0  0
  8  2  2  0  0  0  0
  9  7  1  0  0  0  0
 10 17  1  0  0  0  0
 12 19  1  0  0  0  0
 12  3  2  0  0  0  0
 13  1  1  0  0  0  0
 14  2  1  0  0  0  0
 15  4  1  0  0  0  0
 15 16  1  0  0  0  0
 16 22  1  6  0  0  0
 16 12  1  0  0  0  0
 17 27  1  6  0  0  0
 17  9  1  0  0  0  0
 18  7  2  0  0  0  0
 18  3  1  0  0  0  0
 19 13  2  0  0  0  0
 20 21  2  0  0  0  0
 20 24  1  0  0  0  0
 21 23  1  0  0  0  0
 22 25  1  0  0  0  0
 23 25  2  0  0  0  0
 24 22  2  0  0  0  0
 26 20  1  0  0  0  0
 28 27  1  0  0  0  0
 29 33  1  0  0  0  0
 31 30  2  0  0  0  0
 31 33  1  0  0  0  0
 32 29  1  0  0  0  0
 33 28  1  1  0  0  0
 34 32  2  0  0  0  0
 34 31  1  0  0  0  0
M  END
>  <MODEL>
4

>  <REMARK>
 VINA RESULT:      -6.6      3.714      7.339
  Name = 
  4 active torsions:
  status: ('A' for Active; 'I' for Inactive)
    1  A    between atoms: N_3  and  N_13
    2  A    between atoms: N_3  and  C_29
    3  A    between atoms: C_12  and  C_28
    4  A    between atoms: N_13  and  C_33
                            x       y       z     vdW  Elec       q    Type
                         _______ _______ _______ _____ _____    ______ ____

>  <TORSDO>
F 4

$$$$
