=
 OpenBabel11062410403D

 32 38  0  0  1  0  0  0  0  0999 V2000
  161.2200  202.3270  150.9030 S   0  0  0  0  0  0  0  0  0  0  0  0
  162.2440  207.3250  151.6290 N   0  0  0  0  0  0  0  0  0  0  0  0
  159.6120  207.8440  155.7220 C   0  0  0  0  0  3  0  0  0  0  0  0
  159.4620  209.2050  155.4470 C   0  0  0  0  0  3  0  0  0  0  0  0
  162.6710  209.4070  150.3160 C   0  0  2  0  0  3  0  0  0  0  0  0
  161.9830  208.6690  149.1970 C   0  0  0  0  0  0  0  0  0  0  0  0
  161.6010  205.1470  150.5340 C   0  0  1  0  0  3  0  0  0  0  0  0
  161.6670  205.2430  152.9060 C   0  0  0  0  0  2  0  0  0  0  0  0
  161.6100  211.4780  149.3830 C   0  0  0  0  0  0  0  0  0  0  0  0
  160.3440  203.5530  151.9420 C   0  0  0  0  0  2  0  0  0  0  0  0
  160.4200  207.0450  154.9080 C   0  0  0  0  0  3  0  0  0  0  0  0
  162.0250  206.7410  152.9630 C   0  0  2  0  0  3  0  0  0  0  0  0
  161.0770  207.5960  153.7980 C   0  0  0  0  0  0  0  0  0  0  0  0
  161.6390  209.5540  152.3760 C   0  0  0  0  0  0  0  0  0  0  0  0
  161.3330  210.8340  148.2430 C   0  0  0  0  0  3  0  0  0  0  0  0
  160.8110  204.9380  151.7620 N   0  0  2  0  0  0  0  0  0  0  0  0
  161.4270  209.3560  148.1890 C   0  0  0  0  0  3  0  0  0  0  0  0
  160.8730  204.6080  149.2950 C   0  0  0  0  0  2  0  0  0  0  0  0
  160.6010  203.1030  149.3670 C   0  0  1  0  0  3  0  0  0  0  0  0
  160.1260  209.7760  154.3590 C   0  0  0  0  0  3  0  0  0  0  0  0
  160.9450  208.9870  153.5420 C   0  0  0  0  0  0  0  0  0  0  0  0
  161.3980  210.7140  151.7820 C   0  0  0  0  0  3  0  0  0  0  0  0
  161.9280  206.6100  150.4190 C   0  0  0  0  0  0  0  0  0  0  0  0
  161.8070  207.2480  149.2860 N   0  0  0  0  0  0  0  0  0  0  0  0
  161.4240  212.9510  149.4800 C   0  0  0  0  0  1  0  0  0  0  0  0
  162.4260  208.7120  151.5590 N   0  0  0  0  0  0  0  0  0  0  0  0
  162.0580  210.7190  150.5130 N   0  0  0  0  0  0  0  0  0  0  0  0
  161.1880  202.4430  148.2140 N   0  0  0  0  0  2  0  0  0  0  0  0
  161.6030  203.4890  147.2940 C   0  0  0  0  0  2  0  0  0  0  0  0
  161.1810  203.1360  145.9120 C   0  0  0  0  0  0  0  0  0  0  0  0
  161.2670  204.0770  144.8950 O   0  0  0  0  0  0  0  0  0  0  0  0
  160.7790  201.9710  145.6570 O   0  0  0  0  0  1  0  0  0  0  0  0
  1 10  1  0  0  0  0
  2 12  1  0  0  0  0
  4  3  1  0  0  0  0
  5  6  1  6  0  0  0
  5 27  1  0  0  0  0
  5 26  1  0  0  0  0
  6 24  1  0  0  0  0
  7 18  1  6  0  0  0
  7 16  1  0  0  0  0
  9 25  1  0  0  0  0
  9 27  1  0  0  0  0
 11  3  2  0  0  0  0
 12  8  1  6  0  0  0
 12 13  1  0  0  0  0
 13 11  1  0  0  0  0
 14 21  1  0  0  0  0
 15  9  2  0  0  0  0
 16 10  1  1  0  0  0
 16  8  1  0  0  0  0
 17 15  1  0  0  0  0
 17  6  2  0  0  0  0
 18 19  1  0  0  0  0
 19 28  1  6  0  0  0
 19  1  1  0  0  0  0
 20  4  2  0  0  0  0
 21 13  2  0  0  0  0
 21 20  1  0  0  0  0
 22 14  2  0  0  0  0
 23  7  1  0  0  0  0
 23  2  1  0  0  0  0
 24 23  2  0  0  0  0
 26  2  1  0  0  0  0
 26 14  1  0  0  0  0
 27 22  1  0  0  0  0
 29 28  1  0  0  0  0
 30 29  1  0  0  0  0
 31 30  2  0  0  0  0
 32 30  1  0  0  0  0
M  END
>  <MODEL>
1

>  <REMARK>
 VINA RESULT:      -7.3      0.000      0.000
  Name = 
  3 active torsions:
  status: ('A' for Active; 'I' for Inactive)
    1  A    between atoms: C_1  and  C_10
    2  A    between atoms: C_10  and  N_19
    3  A    between atoms: N_19  and  C_24
                            x       y       z     vdW  Elec       q    Type
                         _______ _______ _______ _____ _____    ______ ____

>  <TORSDO>
F 3

$$$$
=
 OpenBabel11062410403D

 32 38  0  0  1  0  0  0  0  0999 V2000
  161.5960  203.7510  150.3150 S   0  0  0  0  0  0  0  0  0  0  0  0
  162.1390  208.8300  150.9920 N   0  0  0  0  0  0  0  0  0  0  0  0
  159.5570  209.1180  155.1390 C   0  0  0  0  0  3  0  0  0  0  0  0
  159.2680  210.4550  154.8600 C   0  0  0  0  0  3  0  0  0  0  0  0
  162.3320  210.9340  149.6590 C   0  0  2  0  0  3  0  0  0  0  0  0
  161.6950  210.1240  148.5590 C   0  0  0  0  0  0  0  0  0  0  0  0
  161.6900  206.5920  149.9230 C   0  0  1  0  0  3  0  0  0  0  0  0
  161.7970  206.7110  152.2930 C   0  0  0  0  0  2  0  0  0  0  0  0
  161.0520  212.8840  148.7390 C   0  0  0  0  0  0  0  0  0  0  0  0
  160.6260  204.8920  151.3670 C   0  0  0  0  0  2  0  0  0  0  0  0
  160.4230  208.3970  154.3120 C   0  0  0  0  0  3  0  0  0  0  0  0
  162.0070  208.2380  152.3330 C   0  0  2  0  0  3  0  0  0  0  0  0
  160.9980  209.0010  153.1850 C   0  0  0  0  0  0  0  0  0  0  0  0
  161.3350  210.9940  151.7400 C   0  0  0  0  0  0  0  0  0  0  0  0
  160.8160  212.2080  147.6090 C   0  0  0  0  0  3  0  0  0  0  0  0
  160.9520  206.3150  151.1690 N   0  0  2  0  0  0  0  0  0  0  0  0
  161.0540  210.7460  147.5600 C   0  0  0  0  0  3  0  0  0  0  0  0
  160.9930  205.9750  148.7030 C   0  0  0  0  0  2  0  0  0  0  0  0
  160.8720  204.4510  148.7890 C   0  0  1  0  0  3  0  0  0  0  0  0
  159.8490  211.0820  153.7560 C   0  0  0  0  0  3  0  0  0  0  0  0
  160.7240  210.3700  152.9250 C   0  0  0  0  0  0  0  0  0  0  0  0
  160.9680  212.1210  151.1460 C   0  0  0  0  0  3  0  0  0  0  0  0
  161.8700  208.0780  149.7930 C   0  0  0  0  0  0  0  0  0  0  0  0
  161.6620  208.6930  148.6600 N   0  0  0  0  0  0  0  0  0  0  0  0
  160.7240  214.3320  148.8320 C   0  0  0  0  0  1  0  0  0  0  0  0
  162.1830  210.2270  150.9110 N   0  0  0  0  0  0  0  0  0  0  0  0
  161.5970  212.1810  149.8630 N   0  0  0  0  0  0  0  0  0  0  0  0
  161.4960  203.8430  147.6260 N   0  0  0  0  0  2  0  0  0  0  0  0
  161.5790  204.8730  146.6050 C   0  0  0  0  0  2  0  0  0  0  0  0
  161.2520  204.2870  145.2770 C   0  0  0  0  0  0  0  0  0  0  0  0
  160.9200  202.9440  145.1700 O   0  0  0  0  0  1  0  0  0  0  0  0
  161.2430  205.0200  144.2540 O   0  0  0  0  0  0  0  0  0  0  0  0
  1 10  1  0  0  0  0
  2 12  1  0  0  0  0
  4  3  1  0  0  0  0
  5  6  1  6  0  0  0
  5 27  1  0  0  0  0
  5 26  1  0  0  0  0
  6 24  1  0  0  0  0
  7 18  1  6  0  0  0
  7 16  1  0  0  0  0
  9 25  1  0  0  0  0
  9 27  1  0  0  0  0
 11  3  2  0  0  0  0
 12  8  1  6  0  0  0
 12 13  1  0  0  0  0
 13 11  1  0  0  0  0
 14 21  1  0  0  0  0
 15  9  2  0  0  0  0
 16 10  1  1  0  0  0
 16  8  1  0  0  0  0
 17 15  1  0  0  0  0
 17  6  2  0  0  0  0
 18 19  1  0  0  0  0
 19 28  1  6  0  0  0
 19  1  1  0  0  0  0
 20  4  2  0  0  0  0
 21 13  2  0  0  0  0
 21 20  1  0  0  0  0
 22 14  2  0  0  0  0
 23  7  1  0  0  0  0
 23  2  1  0  0  0  0
 24 23  2  0  0  0  0
 26  2  1  0  0  0  0
 26 14  1  0  0  0  0
 27 22  1  0  0  0  0
 29 28  1  0  0  0  0
 30 29  1  0  0  0  0
 31 30  1  0  0  0  0
 32 30  2  0  0  0  0
M  END
>  <MODEL>
2

>  <REMARK>
 VINA RESULT:      -6.3      1.190      1.639
  Name = 
  3 active torsions:
  status: ('A' for Active; 'I' for Inactive)
    1  A    between atoms: C_1  and  C_10
    2  A    between atoms: C_10  and  N_19
    3  A    between atoms: N_19  and  C_24
                            x       y       z     vdW  Elec       q    Type
                         _______ _______ _______ _____ _____    ______ ____

>  <TORSDO>
F 3

$$$$
=
 OpenBabel11062410403D

 32 38  0  0  1  0  0  0  0  0999 V2000
  161.7240  203.9810  148.1500 S   0  0  0  0  0  0  0  0  0  0  0  0
  162.2460  208.6410  150.2860 N   0  0  0  0  0  0  0  0  0  0  0  0
  160.1650  207.5240  154.5730 C   0  0  0  0  0  3  0  0  0  0  0  0
  159.8200  208.8660  154.7480 C   0  0  0  0  0  3  0  0  0  0  0  0
  162.2400  211.0560  149.6490 C   0  0  2  0  0  3  0  0  0  0  0  0
  161.4940  210.5820  148.4270 C   0  0  0  0  0  0  0  0  0  0  0  0
  161.7170  206.8080  148.6380 C   0  0  1  0  0  3  0  0  0  0  0  0
  162.1000  206.2130  150.9050 C   0  0  0  0  0  2  0  0  0  0  0  0
  160.8230  213.1210  149.5110 C   0  0  0  0  0  0  0  0  0  0  0  0
  160.8630  204.6970  149.5970 C   0  0  0  0  0  2  0  0  0  0  0  0
  160.9400  207.1340  153.4770 C   0  0  0  0  0  3  0  0  0  0  0  0
  162.2840  207.6650  151.3880 C   0  0  2  0  0  3  0  0  0  0  0  0
  161.3680  208.0810  152.5350 C   0  0  0  0  0  0  0  0  0  0  0  0
  161.4930  210.4320  151.7410 C   0  0  0  0  0  0  0  0  0  0  0  0
  160.4690  212.8050  148.2590 C   0  0  0  0  0  3  0  0  0  0  0  0
  161.1350  206.1290  149.8110 N   0  0  2  0  0  0  0  0  0  0  0  0
  160.7270  211.4410  147.7410 C   0  0  0  0  0  3  0  0  0  0  0  0
  160.8930  206.5520  147.3690 C   0  0  0  0  0  2  0  0  0  0  0  0
  160.8110  205.0680  146.9970 C   0  0  1  0  0  3  0  0  0  0  0  0
  160.2550  209.8270  153.8330 C   0  0  0  0  0  3  0  0  0  0  0  0
  161.0390  209.4480  152.7370 C   0  0  0  0  0  0  0  0  0  0  0  0
  161.0380  211.6630  151.5630 C   0  0  0  0  0  3  0  0  0  0  0  0
  161.8510  208.2720  148.9510 C   0  0  0  0  0  0  0  0  0  0  0  0
  161.5000  209.1880  148.0890 N   0  0  0  0  0  0  0  0  0  0  0  0
  160.4810  214.4530  150.0760 C   0  0  0  0  0  1  0  0  0  0  0  0
  162.2520  209.9980  150.6320 N   0  0  0  0  0  0  0  0  0  0  0  0
  161.5100  212.1420  150.3010 N   0  0  0  0  0  0  0  0  0  0  0  0
  161.3060  204.8740  145.6450 N   0  0  0  0  0  2  0  0  0  0  0  0
  161.6520  203.4690  145.5190 C   0  0  0  0  0  2  0  0  0  0  0  0
  160.4680  202.7030  145.0450 C   0  0  0  0  0  0  0  0  0  0  0  0
  160.2830  201.3870  145.4460 O   0  0  0  0  0  1  0  0  0  0  0  0
  159.6150  203.2610  144.3060 O   0  0  0  0  0  0  0  0  0  0  0  0
  1 10  1  0  0  0  0
  2 26  1  0  0  0  0
  2 12  1  0  0  0  0
  3  4  1  0  0  0  0
  5  6  1  6  0  0  0
  5 27  1  0  0  0  0
  5 26  1  0  0  0  0
  7 18  1  6  0  0  0
  7 23  1  0  0  0  0
  7 16  1  0  0  0  0
  9 25  1  0  0  0  0
  9 27  1  0  0  0  0
 11  3  2  0  0  0  0
 12  8  1  6  0  0  0
 12 13  1  0  0  0  0
 13 21  2  0  0  0  0
 13 11  1  0  0  0  0
 14 21  1  0  0  0  0
 15  9  2  0  0  0  0
 16 10  1  6  0  0  0
 16  8  1  0  0  0  0
 17 15  1  0  0  0  0
 17  6  2  0  0  0  0
 19 28  1  6  0  0  0
 19 18  1  0  0  0  0
 19  1  1  0  0  0  0
 20  4  2  0  0  0  0
 21 20  1  0  0  0  0
 22 14  2  0  0  0  0
 23  2  1  0  0  0  0
 24  6  1  0  0  0  0
 24 23  2  0  0  0  0
 26 14  1  0  0  0  0
 27 22  1  0  0  0  0
 29 28  1  0  0  0  0
 30 31  1  0  0  0  0
 30 29  1  0  0  0  0
 32 30  2  0  0  0  0
M  END
>  <MODEL>
3

>  <REMARK>
 VINA RESULT:      -6.1      1.513      2.081
  Name = 
  3 active torsions:
  status: ('A' for Active; 'I' for Inactive)
    1  A    between atoms: C_1  and  C_10
    2  A    between atoms: C_10  and  N_19
    3  A    between atoms: N_19  and  C_24
                            x       y       z     vdW  Elec       q    Type
                         _______ _______ _______ _____ _____    ______ ____

>  <TORSDO>
F 3

$$$$
=
 OpenBabel11062410403D

 32 38  0  0  1  0  0  0  0  0999 V2000
  157.3140  214.0910  154.4910 S   0  0  0  0  0  0  0  0  0  0  0  0
  160.8180  212.1010  151.2780 N   0  0  0  0  0  0  0  0  0  0  0  0
  159.2950  214.4530  147.2670 C   0  0  0  0  0  3  0  0  0  0  0  0
  159.8300  213.4360  146.4740 C   0  0  0  0  0  3  0  0  0  0  0  0
  162.0980  209.9880  150.9040 C   0  0  2  0  0  3  0  0  0  0  0  0
  161.0090  209.3530  151.7310 C   0  0  0  0  0  0  0  0  0  0  0  0
  159.0360  212.3030  153.0510 C   0  0  1  0  0  3  0  0  0  0  0  0
  159.4060  214.1510  151.6040 C   0  0  0  0  0  2  0  0  0  0  0  0
  162.1450  207.8390  149.6140 C   0  0  0  0  0  0  0  0  0  0  0  0
  157.3080  214.0260  152.6620 C   0  0  0  0  0  2  0  0  0  0  0  0
  159.4860  214.4420  148.6510 C   0  0  0  0  0  3  0  0  0  0  0  0
  160.4820  213.4380  150.7610 C   0  0  2  0  0  3  0  0  0  0  0  0
  160.2030  213.4030  149.2610 C   0  0  0  0  0  0  0  0  0  0  0  0
  161.5230  211.3040  149.0970 C   0  0  0  0  0  0  0  0  0  0  0  0
  161.4530  207.2300  150.5850 C   0  0  0  0  0  3  0  0  0  0  0  0
  158.3930  213.2140  152.0850 N   0  0  2  0  0  0  0  0  0  0  0  0
  160.7740  208.0380  151.6240 C   0  0  0  0  0  3  0  0  0  0  0  0
  158.0030  211.4530  153.8010 C   0  0  0  0  0  2  0  0  0  0  0  0
  157.0110  212.2910  154.6120 C   0  0  1  0  0  3  0  0  0  0  0  0
  160.5670  212.4050  147.0600 C   0  0  0  0  0  3  0  0  0  0  0  0
  160.7710  212.3880  148.4450 C   0  0  0  0  0  0  0  0  0  0  0  0
  161.8420  210.1250  148.5820 C   0  0  0  0  0  3  0  0  0  0  0  0
  160.0490  211.4680  152.3190 C   0  0  0  0  0  0  0  0  0  0  0  0
  160.1450  210.1810  152.5220 N   0  0  0  0  0  0  0  0  0  0  0  0
  162.7480  207.0470  148.5090 C   0  0  0  0  0  1  0  0  0  0  0  0
  161.6730  211.3090  150.5020 N   0  0  0  0  0  0  0  0  0  0  0  0
  162.2660  209.2670  149.6450 N   0  0  0  0  0  0  0  0  0  0  0  0
  157.0460  211.8810  156.0050 N   0  0  0  0  0  2  0  0  0  0  0  0
  157.9520  212.7880  156.6890 C   0  0  0  0  0  2  0  0  0  0  0  0
  159.2350  212.0910  156.9760 C   0  0  0  0  0  0  0  0  0  0  0  0
  159.2440  210.7270  157.2350 O   0  0  0  0  0  1  0  0  0  0  0  0
  160.3170  212.7330  156.9500 O   0  0  0  0  0  0  0  0  0  0  0  0
  1 19  1  0  0  0  0
  2 23  1  0  0  0  0
  3 11  1  0  0  0  0
  4 20  1  0  0  0  0
  4  3  2  0  0  0  0
  5  6  1  1  0  0  0
  6 24  1  0  0  0  0
  7 18  1  6  0  0  0
  9 27  1  0  0  0  0
  9 15  2  0  0  0  0
 10  1  1  0  0  0  0
 11 13  2  0  0  0  0
 12  2  1  0  0  0  0
 12  8  1  1  0  0  0
 13 12  1  0  0  0  0
 14 26  1  0  0  0  0
 15 17  1  0  0  0  0
 16  8  1  1  0  0  0
 16 10  1  0  0  0  0
 16  7  1  0  0  0  0
 17  6  2  0  0  0  0
 18 19  1  0  0  0  0
 19 28  1  1  0  0  0
 20 21  2  0  0  0  0
 21 14  1  0  0  0  0
 21 13  1  0  0  0  0
 22 14  2  0  0  0  0
 22 27  1  0  0  0  0
 23 24  2  0  0  0  0
 23  7  1  0  0  0  0
 25  9  1  0  0  0  0
 26  5  1  0  0  0  0
 26  2  1  0  0  0  0
 27  5  1  0  0  0  0
 28 29  1  0  0  0  0
 29 30  1  0  0  0  0
 30 31  1  0  0  0  0
 32 30  2  0  0  0  0
M  END
>  <MODEL>
4

>  <REMARK>
 VINA RESULT:      -5.3      5.122      8.725
  Name = 
  3 active torsions:
  status: ('A' for Active; 'I' for Inactive)
    1  A    between atoms: C_1  and  C_10
    2  A    between atoms: C_10  and  N_19
    3  A    between atoms: N_19  and  C_24
                            x       y       z     vdW  Elec       q    Type
                         _______ _______ _______ _____ _____    ______ ____

>  <TORSDO>
F 3

$$$$
=
 OpenBabel11062410403D

 32 38  0  0  1  0  0  0  0  0999 V2000
  162.5290  211.8530  148.2730 S   0  0  0  0  0  0  0  0  0  0  0  0
  161.0010  211.3540  153.1690 N   0  0  0  0  0  0  0  0  0  0  0  0
  161.4650  206.4880  153.4040 C   0  0  0  0  0  3  0  0  0  0  0  0
  160.5050  206.4510  154.4170 C   0  0  0  0  0  3  0  0  0  0  0  0
  159.4250  212.3960  154.8040 C   0  0  2  0  0  3  0  0  0  0  0  0
  158.7250  212.9180  153.5750 C   0  0  0  0  0  0  0  0  0  0  0  0
  161.0900  212.0510  150.7480 C   0  0  1  0  0  3  0  0  0  0  0  0
  162.4630  210.2460  151.4560 C   0  0  0  0  0  2  0  0  0  0  0  0
  157.1430  212.2170  155.8270 C   0  0  0  0  0  0  0  0  0  0  0  0
  161.9490  210.3610  149.1620 C   0  0  0  0  0  2  0  0  0  0  0  0
  161.9120  207.7130  152.9010 C   0  0  0  0  0  3  0  0  0  0  0  0
  161.9430  210.2530  152.9070 C   0  0  2  0  0  3  0  0  0  0  0  0
  161.3920  208.9170  153.3970 C   0  0  0  0  0  0  0  0  0  0  0  0
  159.9010  210.1430  154.9620 C   0  0  0  0  0  0  0  0  0  0  0  0
  156.6410  213.0020  154.8660 C   0  0  0  0  0  3  0  0  0  0  0  0
  161.4190  210.6330  150.5090 N   0  0  2  0  0  0  0  0  0  0  0  0
  157.4350  213.2720  153.6440 C   0  0  0  0  0  3  0  0  0  0  0  0
  160.1930  212.6180  149.6400 C   0  0  0  0  0  2  0  0  0  0  0  0
  160.8450  212.5660  148.2550 C   0  0  1  0  0  3  0  0  0  0  0  0
  159.9920  207.6390  154.9400 C   0  0  0  0  0  3  0  0  0  0  0  0
  160.4390  208.8720  154.4490 C   0  0  0  0  0  0  0  0  0  0  0  0
  158.8030  210.3180  155.6830 C   0  0  0  0  0  3  0  0  0  0  0  0
  160.4700  212.1750  152.1110 C   0  0  0  0  0  0  0  0  0  0  0  0
  159.4040  212.9020  152.3110 N   0  0  0  0  0  0  0  0  0  0  0  0
  156.3190  211.8570  157.0120 C   0  0  0  0  0  1  0  0  0  0  0  0
  160.3550  211.3620  154.4120 N   0  0  0  0  0  0  0  0  0  0  0  0
  158.4750  211.7100  155.6770 N   0  0  0  0  0  0  0  0  0  0  0  0
  160.8840  213.9000  147.6810 N   0  0  0  0  0  2  0  0  0  0  0  0
  159.8840  213.9360  146.6280 C   0  0  0  0  0  2  0  0  0  0  0  0
  160.3690  213.1630  145.4520 C   0  0  0  0  0  0  0  0  0  0  0  0
  161.6320  213.4070  144.9300 O   0  0  0  0  0  0  0  0  0  0  0  0
  159.6450  212.2630  144.9520 O   0  0  0  0  0  1  0  0  0  0  0  0
  1 10  1  0  0  0  0
  2 26  1  0  0  0  0
  3  4  1  0  0  0  0
  4 20  2  0  0  0  0
  5  6  1  6  0  0  0
  5 27  1  0  0  0  0
  6 17  2  0  0  0  0
  7 18  1  6  0  0  0
  7 23  1  0  0  0  0
  9 25  1  0  0  0  0
 11 13  1  0  0  0  0
 11  3  2  0  0  0  0
 12  8  1  6  0  0  0
 12  2  1  0  0  0  0
 12 13  1  0  0  0  0
 13 21  2  0  0  0  0
 14 22  2  0  0  0  0
 15  9  2  0  0  0  0
 16 10  1  6  0  0  0
 16  7  1  0  0  0  0
 16  8  1  0  0  0  0
 17 15  1  0  0  0  0
 19 28  1  1  0  0  0
 19  1  1  0  0  0  0
 19 18  1  0  0  0  0
 21 20  1  0  0  0  0
 21 14  1  0  0  0  0
 23 24  2  0  0  0  0
 23  2  1  0  0  0  0
 24  6  1  0  0  0  0
 26  5  1  0  0  0  0
 26 14  1  0  0  0  0
 27 22  1  0  0  0  0
 27  9  1  0  0  0  0
 29 28  1  0  0  0  0
 30 29  1  0  0  0  0
 31 30  2  0  0  0  0
 32 30  1  0  0  0  0
M  END
>  <MODEL>
5

>  <REMARK>
 VINA RESULT:      -4.7      4.421      7.004
  Name = 
  3 active torsions:
  status: ('A' for Active; 'I' for Inactive)
    1  A    between atoms: C_1  and  C_10
    2  A    between atoms: C_10  and  N_19
    3  A    between atoms: N_19  and  C_24
                            x       y       z     vdW  Elec       q    Type
                         _______ _______ _______ _____ _____    ______ ____

>  <TORSDO>
F 3

$$$$
