=
 OpenBabel11052422473D

 28 31  0  0  1  0  0  0  0  0999 V2000
  160.2930  209.4100  155.4710 C   0  0  2  0  0  3  0  0  0  0  0  0
  160.9260  205.0000  152.7700 C   0  0  0  0  0  3  0  0  0  0  0  0
  161.5220  210.7610  150.9210 O   0  0  0  0  0  0  0  0  0  0  0  0
  161.2740  205.7490  150.4840 C   0  0  0  0  0  0  0  0  0  0  0  0
  161.1570  207.3940  152.2880 C   0  0  0  0  0  0  0  0  0  0  0  0
  161.0390  203.3860  150.9680 C   0  0  0  0  0  0  0  0  0  0  0  0
  161.1200  206.0510  151.8600 C   0  0  0  0  0  0  0  0  0  0  0  0
  161.5130  208.1010  149.9840 C   0  0  0  0  0  3  0  0  0  0  0  0
  161.2310  204.4210  150.0490 C   0  0  0  0  0  3  0  0  0  0  0  0
  161.2430  210.1910  153.2180 C   0  0  2  0  0  3  0  0  0  0  0  0
  161.0480  207.7310  153.7550 C   0  0  0  0  0  2  0  0  0  0  0  0
  161.4680  206.7740  149.5590 C   0  0  0  0  0  3  0  0  0  0  0  0
  162.6660  210.2330  155.3580 C   0  0  0  0  0  2  0  0  0  0  0  0
  161.3800  209.8390  151.7680 C   0  0  0  0  0  0  0  0  0  0  0  0
  162.6280  210.4380  153.8390 C   0  0  0  0  0  2  0  0  0  0  0  0
  160.9930  201.9770  150.5010 C   0  0  0  0  0  1  0  0  0  0  0  0
  160.8870  203.6750  152.3270 C   0  0  0  0  0  3  0  0  0  0  0  0
  161.3660  208.4230  151.3400 C   0  0  0  0  0  0  0  0  0  0  0  0
  161.2960  210.4470  155.9880 C   0  0  0  0  0  2  0  0  0  0  0  0
  160.4350  209.1140  153.9660 C   0  0  1  0  0  3  0  0  0  0  0  0
  158.8830  209.8910  155.7830 C   0  0  0  0  0  2  0  0  0  0  0  0
  158.8610  211.3780  156.1220 C   0  0  0  0  0  2  0  0  0  0  0  0
  157.5650  212.7440  154.4460 C   0  0  0  0  0  0  0  0  0  0  0  0
  157.6190  211.9960  155.6730 N   0  0  0  0  0  0  0  0  0  0  0  0
  156.4800  213.2590  154.0650 O   0  0  0  0  0  0  0  0  0  0  0  0
  156.4370  211.8920  156.5160 C   0  0  0  0  0  1  0  0  0  0  0  0
  158.5920  212.3530  152.2390 C   0  0  0  0  0  1  0  0  0  0  0  0
  158.7890  212.9540  153.6170 C   0  0  0  0  0  2  0  0  0  0  0  0
  1 21  1  6  0  0  0
  1 19  1  0  0  0  0
  3 14  2  0  0  0  0
  4  7  1  0  0  0  0
  5 11  1  0  0  0  0
  6 17  2  0  0  0  0
  7  5  1  0  0  0  0
  7  2  2  0  0  0  0
  8 18  1  0  0  0  0
  9  4  2  0  0  0  0
  9  6  1  0  0  0  0
 10 15  1  1  0  0  0
 10 20  1  0  0  0  0
 12  8  2  0  0  0  0
 12  4  1  0  0  0  0
 13 19  1  0  0  0  0
 14 10  1  0  0  0  0
 15 13  1  0  0  0  0
 16  6  1  0  0  0  0
 17  2  1  0  0  0  0
 18 14  1  0  0  0  0
 18  5  2  0  0  0  0
 20 11  1  1  0  0  0
 20  1  1  0  0  0  0
 21 22  1  0  0  0  0
 23 24  1  0  0  0  0
 24 22  1  0  0  0  0
 24 26  1  0  0  0  0
 25 23  2  0  0  0  0
 27 28  1  0  0  0  0
 28 23  1  0  0  0  0
M  END
>  <MODEL>
1

>  <REMARK>
 VINA RESULT:      -8.0      0.000      0.000
  Name = 
  4 active torsions:
  status: ('A' for Active; 'I' for Inactive)
    1  A    between atoms: C_1  and  C_2
    2  A    between atoms: C_2  and  C_3
    3  A    between atoms: C_3  and  N_7
    4  A    between atoms: C_6  and  C_11
                            x       y       z     vdW  Elec       q    Type
                         _______ _______ _______ _____ _____    ______ ____

>  <TORSDO>
F 4

$$$$
=
 OpenBabel11052422473D

 28 31  0  0  1  0  0  0  0  0999 V2000
  160.3710  209.6720  153.4810 C   0  0  2  0  0  3  0  0  0  0  0  0
  160.7080  204.9140  151.3820 C   0  0  0  0  0  3  0  0  0  0  0  0
  162.1210  210.3020  148.9440 O   0  0  0  0  0  0  0  0  0  0  0  0
  161.3280  205.3290  149.0690 C   0  0  0  0  0  0  0  0  0  0  0  0
  161.2550  207.1910  150.6510 C   0  0  0  0  0  0  0  0  0  0  0  0
  160.7800  203.0850  149.7980 C   0  0  0  0  0  0  0  0  0  0  0  0
  161.0970  205.8160  150.3790 C   0  0  0  0  0  0  0  0  0  0  0  0
  161.8800  207.5610  148.3250 C   0  0  0  0  0  3  0  0  0  0  0  0
  161.1670  203.9690  148.7890 C   0  0  0  0  0  3  0  0  0  0  0  0
  161.5890  210.0580  151.2540 C   0  0  2  0  0  3  0  0  0  0  0  0
  161.0660  207.7200  152.0510 C   0  0  0  0  0  2  0  0  0  0  0  0
  161.7160  206.2030  148.0540 C   0  0  0  0  0  3  0  0  0  0  0  0
  162.8260  210.2190  153.5020 C   0  0  0  0  0  2  0  0  0  0  0  0
  161.8040  209.5140  149.8740 C   0  0  0  0  0  0  0  0  0  0  0  0
  162.9370  210.2340  151.9720 C   0  0  0  0  0  2  0  0  0  0  0  0
  160.6090  201.6410  149.4950 C   0  0  0  0  0  1  0  0  0  0  0  0
  160.5510  203.5560  151.0940 C   0  0  0  0  0  3  0  0  0  0  0  0
  161.6600  208.0650  149.6140 C   0  0  0  0  0  0  0  0  0  0  0  0
  161.4430  210.6540  153.9680 C   0  0  0  0  0  2  0  0  0  0  0  0
  160.6020  209.1760  152.0410 C   0  0  1  0  0  3  0  0  0  0  0  0
  159.0070  210.3340  153.5980 C   0  0  0  0  0  2  0  0  0  0  0  0
  159.1260  211.7880  154.0420 C   0  0  0  0  0  2  0  0  0  0  0  0
  158.4410  213.2540  152.1100 C   0  0  0  0  0  0  0  0  0  0  0  0
  158.1400  212.6220  153.3650 N   0  0  0  0  0  0  0  0  0  0  0  0
  157.5710  213.9600  151.5310 O   0  0  0  0  0  0  0  0  0  0  0  0
  156.8540  212.8540  154.0100 C   0  0  0  0  0  1  0  0  0  0  0  0
  159.7450  213.6120  150.0490 C   0  0  0  0  0  1  0  0  0  0  0  0
  159.7880  213.1180  151.4810 C   0  0  0  0  0  2  0  0  0  0  0  0
  1 21  1  6  0  0  0
  1 19  1  0  0  0  0
  3 14  2  0  0  0  0
  4  7  1  0  0  0  0
  5 11  1  0  0  0  0
  6 17  2  0  0  0  0
  7  5  1  0  0  0  0
  7  2  2  0  0  0  0
  8 18  1  0  0  0  0
  9  4  2  0  0  0  0
  9  6  1  0  0  0  0
 10 15  1  1  0  0  0
 10 20  1  0  0  0  0
 12  8  2  0  0  0  0
 12  4  1  0  0  0  0
 13 19  1  0  0  0  0
 14 10  1  0  0  0  0
 15 13  1  0  0  0  0
 16  6  1  0  0  0  0
 17  2  1  0  0  0  0
 18 14  1  0  0  0  0
 18  5  2  0  0  0  0
 20 11  1  1  0  0  0
 20  1  1  0  0  0  0
 21 22  1  0  0  0  0
 23 24  1  0  0  0  0
 24 26  1  0  0  0  0
 24 22  1  0  0  0  0
 25 23  2  0  0  0  0
 27 28  1  0  0  0  0
 28 23  1  0  0  0  0
M  END
>  <MODEL>
2

>  <REMARK>
 VINA RESULT:      -7.8      1.544      1.977
  Name = 
  4 active torsions:
  status: ('A' for Active; 'I' for Inactive)
    1  A    between atoms: C_1  and  C_2
    2  A    between atoms: C_2  and  C_3
    3  A    between atoms: C_3  and  N_7
    4  A    between atoms: C_6  and  C_11
                            x       y       z     vdW  Elec       q    Type
                         _______ _______ _______ _____ _____    ______ ____

>  <TORSDO>
F 4

$$$$
=
 OpenBabel11052422473D

 28 31  0  0  1  0  0  0  0  0999 V2000
  160.3090  209.6660  153.3510 C   0  0  2  0  0  3  0  0  0  0  0  0
  160.7010  204.9190  151.2390 C   0  0  0  0  0  3  0  0  0  0  0  0
  162.1990  210.3150  148.8730 O   0  0  0  0  0  0  0  0  0  0  0  0
  161.3920  205.3440  148.9480 C   0  0  0  0  0  0  0  0  0  0  0  0
  161.2750  207.1980  150.5360 C   0  0  0  0  0  0  0  0  0  0  0  0
  160.8190  203.0970  149.6490 C   0  0  0  0  0  0  0  0  0  0  0  0
  161.1220  205.8250  150.2530 C   0  0  0  0  0  0  0  0  0  0  0  0
  161.9710  207.5780  148.2330 C   0  0  0  0  0  3  0  0  0  0  0  0
  161.2380  203.9850  148.6560 C   0  0  0  0  0  3  0  0  0  0  0  0
  161.5950  210.0610  151.1640 C   0  0  2  0  0  3  0  0  0  0  0  0
  161.0430  207.7200  151.9330 C   0  0  0  0  0  2  0  0  0  0  0  0
  161.8140  206.2220  147.9500 C   0  0  0  0  0  3  0  0  0  0  0  0
  162.7620  210.2080  153.4500 C   0  0  0  0  0  2  0  0  0  0  0  0
  161.8510  209.5240  149.7890 C   0  0  0  0  0  0  0  0  0  0  0  0
  162.9210  210.2300  151.9240 C   0  0  0  0  0  2  0  0  0  0  0  0
  160.6540  201.6550  149.3330 C   0  0  0  0  0  1  0  0  0  0  0  0
  160.5500  203.5620  150.9390 C   0  0  0  0  0  3  0  0  0  0  0  0
  161.7130  208.0760  149.5170 C   0  0  0  0  0  0  0  0  0  0  0  0
  161.3660  210.6440  153.8750 C   0  0  0  0  0  2  0  0  0  0  0  0
  160.5830  209.1770  151.9160 C   0  0  1  0  0  3  0  0  0  0  0  0
  158.9420  210.3310  153.4290 C   0  0  0  0  0  2  0  0  0  0  0  0
  158.9910  211.6160  154.2490 C   0  0  0  0  0  2  0  0  0  0  0  0
  156.6190  212.3910  154.6050 C   0  0  0  0  0  0  0  0  0  0  0  0
  157.8740  212.4910  153.9120 N   0  0  0  0  0  0  0  0  0  0  0  0
  155.6700  213.1660  154.3110 O   0  0  0  0  0  0  0  0  0  0  0  0
  158.0300  213.4400  152.8170 C   0  0  0  0  0  1  0  0  0  0  0  0
  155.3870  210.3350  155.1820 C   0  0  0  0  0  1  0  0  0  0  0  0
  156.4010  211.3570  155.6590 C   0  0  0  0  0  2  0  0  0  0  0  0
  1 21  1  6  0  0  0
  1 19  1  0  0  0  0
  3 14  2  0  0  0  0
  4  7  1  0  0  0  0
  5 11  1  0  0  0  0
  6 17  2  0  0  0  0
  7  5  1  0  0  0  0
  7  2  2  0  0  0  0
  8 18  1  0  0  0  0
  9  4  2  0  0  0  0
  9  6  1  0  0  0  0
 10 20  1  0  0  0  0
 10 15  1  1  0  0  0
 12  8  2  0  0  0  0
 12  4  1  0  0  0  0
 13 19  1  0  0  0  0
 14 10  1  0  0  0  0
 15 13  1  0  0  0  0
 16  6  1  0  0  0  0
 17  2  1  0  0  0  0
 18 14  1  0  0  0  0
 18  5  2  0  0  0  0
 20 11  1  1  0  0  0
 20  1  1  0  0  0  0
 21 22  1  0  0  0  0
 23 28  1  0  0  0  0
 24 22  1  0  0  0  0
 24 23  1  0  0  0  0
 25 23  2  0  0  0  0
 26 24  1  0  0  0  0
 27 28  1  0  0  0  0
M  END
>  <MODEL>
3

>  <REMARK>
 VINA RESULT:      -7.7      1.390      2.192
  Name = 
  4 active torsions:
  status: ('A' for Active; 'I' for Inactive)
    1  A    between atoms: C_1  and  C_2
    2  A    between atoms: C_2  and  C_3
    3  A    between atoms: C_3  and  N_7
    4  A    between atoms: C_6  and  C_11
                            x       y       z     vdW  Elec       q    Type
                         _______ _______ _______ _____ _____    ______ ____

>  <TORSDO>
F 4

$$$$
=
 OpenBabel11052422473D

 28 31  0  0  1  0  0  0  0  0999 V2000
  159.7270  212.9590  151.2790 C   0  0  2  0  0  3  0  0  0  0  0  0
  160.7440  207.8490  151.3550 C   0  0  0  0  0  3  0  0  0  0  0  0
  160.2930  211.7490  155.9970 O   0  0  0  0  0  0  0  0  0  0  0  0
  161.2660  207.3820  153.6830 C   0  0  0  0  0  0  0  0  0  0  0  0
  160.4560  209.6000  153.0490 C   0  0  0  0  0  0  0  0  0  0  0  0
  161.5530  205.6600  152.0020 C   0  0  0  0  0  0  0  0  0  0  0  0
  160.8160  208.2850  152.6880 C   0  0  0  0  0  0  0  0  0  0  0  0
  160.9820  209.0870  155.3720 C   0  0  0  0  0  3  0  0  0  0  0  0
  161.6320  206.0790  153.3330 C   0  0  0  0  0  3  0  0  0  0  0  0
  159.6840  212.3520  153.7730 C   0  0  2  0  0  3  0  0  0  0  0  0
  159.9250  210.5580  152.0120 C   0  0  0  0  0  2  0  0  0  0  0  0
  161.3460  207.7890  155.0140 C   0  0  0  0  0  3  0  0  0  0  0  0
  157.5240  212.8940  152.4900 C   0  0  0  0  0  2  0  0  0  0  0  0
  160.1850  211.3790  154.7980 C   0  0  0  0  0  0  0  0  0  0  0  0
  158.1480  212.4160  153.8070 C   0  0  0  0  0  2  0  0  0  0  0  0
  161.9440  204.2750  151.6360 C   0  0  0  0  0  1  0  0  0  0  0  0
  161.1100  206.5440  151.0140 C   0  0  0  0  0  3  0  0  0  0  0  0
  160.5320  209.9960  154.4050 C   0  0  0  0  0  0  0  0  0  0  0  0
  158.4890  213.7620  151.6930 C   0  0  0  0  0  2  0  0  0  0  0  0
  160.2390  212.0080  152.3780 C   0  0  1  0  0  3  0  0  0  0  0  0
  160.8260  213.9260  150.8650 C   0  0  0  0  0  2  0  0  0  0  0  0
  160.6400  214.4030  149.4280 C   0  0  0  0  0  2  0  0  0  0  0  0
  159.8390  212.9910  147.5000 C   0  0  0  0  0  0  0  0  0  0  0  0
  160.8360  213.3070  148.4860 N   0  0  0  0  0  0  0  0  0  0  0  0
  160.0310  212.0500  146.6840 O   0  0  0  0  0  0  0  0  0  0  0  0
  162.0400  212.4950  148.5930 C   0  0  0  0  0  1  0  0  0  0  0  0
  157.4570  212.9530  148.1340 C   0  0  0  0  0  1  0  0  0  0  0  0
  158.5500  213.7410  147.4390 C   0  0  0  0  0  2  0  0  0  0  0  0
  1 21  1  1  0  0  0
  1 19  1  0  0  0  0
  1 20  1  0  0  0  0
  2  7  1  0  0  0  0
  4 12  1  0  0  0  0
  5 18  2  0  0  0  0
  6  9  2  0  0  0  0
  7  5  1  0  0  0  0
  7  4  2  0  0  0  0
  9  4  1  0  0  0  0
 10 15  1  6  0  0  0
 10 14  1  0  0  0  0
 11  5  1  0  0  0  0
 12  8  2  0  0  0  0
 13 15  1  0  0  0  0
 14  3  2  0  0  0  0
 16  6  1  0  0  0  0
 17  2  2  0  0  0  0
 17  6  1  0  0  0  0
 18 14  1  0  0  0  0
 18  8  1  0  0  0  0
 19 13  1  0  0  0  0
 20 11  1  6  0  0  0
 20 10  1  0  0  0  0
 22 21  1  0  0  0  0
 23 24  1  0  0  0  0
 24 26  1  0  0  0  0
 24 22  1  0  0  0  0
 25 23  2  0  0  0  0
 28 23  1  0  0  0  0
 28 27  1  0  0  0  0
M  END
>  <MODEL>
4

>  <REMARK>
 VINA RESULT:      -6.1      2.964      5.313
  Name = 
  4 active torsions:
  status: ('A' for Active; 'I' for Inactive)
    1  A    between atoms: C_1  and  C_2
    2  A    between atoms: C_2  and  C_3
    3  A    between atoms: C_3  and  N_7
    4  A    between atoms: C_6  and  C_11
                            x       y       z     vdW  Elec       q    Type
                         _______ _______ _______ _____ _____    ______ ____

>  <TORSDO>
F 4

$$$$
=
 OpenBabel11052422473D

 28 31  0  0  1  0  0  0  0  0999 V2000
  160.8300  207.8550  152.3380 C   0  0  2  0  0  3  0  0  0  0  0  0
  157.3030  210.7030  154.9080 C   0  0  0  0  0  3  0  0  0  0  0  0
  163.3610  210.7030  155.4240 O   0  0  0  0  0  0  0  0  0  0  0  0
  158.6050  211.8870  156.5850 C   0  0  0  0  0  0  0  0  0  0  0  0
  159.7520  210.5560  154.8860 C   0  0  0  0  0  0  0  0  0  0  0  0
  156.1860  212.0230  156.6030 C   0  0  0  0  0  0  0  0  0  0  0  0
  158.5540  211.0430  155.4490 C   0  0  0  0  0  0  0  0  0  0  0  0
  161.0180  211.7650  156.5800 C   0  0  0  0  0  3  0  0  0  0  0  0
  157.4220  212.3690  157.1530 C   0  0  0  0  0  3  0  0  0  0  0  0
  162.2390  209.5300  153.6790 C   0  0  2  0  0  3  0  0  0  0  0  0
  159.7200  209.6990  153.6440 C   0  0  0  0  0  2  0  0  0  0  0  0
  159.8330  212.2410  157.1410 C   0  0  0  0  0  3  0  0  0  0  0  0
  161.9830  209.7350  151.1300 C   0  0  0  0  0  2  0  0  0  0  0  0
  162.2570  210.4070  154.8950 C   0  0  0  0  0  0  0  0  0  0  0  0
  162.5280  210.3620  152.4190 C   0  0  0  0  0  2  0  0  0  0  0  0
  154.9320  212.5370  157.2110 C   0  0  0  0  0  1  0  0  0  0  0  0
  156.1260  211.1910  155.4810 C   0  0  0  0  0  3  0  0  0  0  0  0
  160.9920  210.9310  155.4550 C   0  0  0  0  0  0  0  0  0  0  0  0
  161.8490  208.2230  151.2540 C   0  0  0  0  0  2  0  0  0  0  0  0
  160.9150  208.7490  153.5900 C   0  0  1  0  0  3  0  0  0  0  0  0
  161.0210  206.3950  152.7190 C   0  0  0  0  0  2  0  0  0  0  0  0
  161.9660  205.6840  151.7550 C   0  0  0  0  0  2  0  0  0  0  0  0
  161.2060  204.2850  149.8020 C   0  0  0  0  0  0  0  0  0  0  0  0
  161.3510  204.4750  151.2190 N   0  0  0  0  0  0  0  0  0  0  0  0
  160.6860  203.2270  149.3550 O   0  0  0  0  0  0  0  0  0  0  0  0
  160.8310  203.4800  152.1470 C   0  0  0  0  0  1  0  0  0  0  0  0
  160.4520  206.2040  148.4500 C   0  0  0  0  0  1  0  0  0  0  0  0
  161.6350  205.3370  148.8340 C   0  0  0  0  0  2  0  0  0  0  0  0
  1 21  1  1  0  0  0
  1 20  1  0  0  0  0
  2  7  2  0  0  0  0
  2 17  1  0  0  0  0
  4 12  1  0  0  0  0
  4  9  2  0  0  0  0
  5  7  1  0  0  0  0
  5 18  2  0  0  0  0
  6  9  1  0  0  0  0
  6 16  1  0  0  0  0
  7  4  1  0  0  0  0
  8 12  2  0  0  0  0
 10 15  1  6  0  0  0
 10 14  1  0  0  0  0
 11  5  1  0  0  0  0
 13 19  1  0  0  0  0
 13 15  1  0  0  0  0
 14  3  2  0  0  0  0
 14 18  1  0  0  0  0
 17  6  2  0  0  0  0
 18  8  1  0  0  0  0
 19  1  1  0  0  0  0
 20 11  1  6  0  0  0
 20 10  1  0  0  0  0
 22 21  1  0  0  0  0
 23 24  1  0  0  0  0
 24 22  1  0  0  0  0
 24 26  1  0  0  0  0
 25 23  2  0  0  0  0
 27 28  1  0  0  0  0
 28 23  1  0  0  0  0
M  END
>  <MODEL>
5

>  <REMARK>
 VINA RESULT:      -6.1      2.791      7.764
  Name = 
  4 active torsions:
  status: ('A' for Active; 'I' for Inactive)
    1  A    between atoms: C_1  and  C_2
    2  A    between atoms: C_2  and  C_3
    3  A    between atoms: C_3  and  N_7
    4  A    between atoms: C_6  and  C_11
                            x       y       z     vdW  Elec       q    Type
                         _______ _______ _______ _____ _____    ______ ____

>  <TORSDO>
F 4

$$$$
=
 OpenBabel11052422473D

 28 31  0  0  1  0  0  0  0  0999 V2000
  161.3940  208.9860  153.0260 C   0  0  2  0  0  3  0  0  0  0  0  0
  161.9930  212.2460  149.0050 C   0  0  0  0  0  3  0  0  0  0  0  0
  157.7930  212.2920  153.4010 O   0  0  0  0  0  0  0  0  0  0  0  0
  160.0360  213.6840  149.1110 C   0  0  0  0  0  0  0  0  0  0  0  0
  160.4540  212.0810  150.9080 C   0  0  0  0  0  0  0  0  0  0  0  0
  161.5590  213.8370  147.2320 C   0  0  0  0  0  0  0  0  0  0  0  0
  160.8350  212.6620  149.6810 C   0  0  0  0  0  0  0  0  0  0  0  0
  158.5090  213.5470  150.9790 C   0  0  0  0  0  3  0  0  0  0  0  0
  160.4030  214.2620  147.8920 C   0  0  0  0  0  3  0  0  0  0  0  0
  159.6890  210.8520  153.4780 C   0  0  2  0  0  3  0  0  0  0  0  0
  161.3200  211.0290  151.5570 C   0  0  0  0  0  2  0  0  0  0  0  0
  158.8820  214.1180  149.7620 C   0  0  0  0  0  3  0  0  0  0  0  0
  161.8340  210.6310  154.8780 C   0  0  0  0  0  2  0  0  0  0  0  0
  158.8550  211.9190  152.8360 C   0  0  0  0  0  0  0  0  0  0  0  0
  160.5800  211.4610  154.5730 C   0  0  0  0  0  2  0  0  0  0  0  0
  161.9430  214.4530  145.9370 C   0  0  0  0  0  1  0  0  0  0  0  0
  162.3530  212.8300  147.7880 C   0  0  0  0  0  3  0  0  0  0  0  0
  159.2850  212.5370  151.5630 C   0  0  0  0  0  0  0  0  0  0  0  0
  161.6320  209.1610  154.5300 C   0  0  0  0  0  2  0  0  0  0  0  0
  160.4910  210.0750  152.4160 C   0  0  1  0  0  3  0  0  0  0  0  0
  160.7980  207.6080  152.7800 C   0  0  0  0  0  2  0  0  0  0  0  0
  161.7940  206.6840  152.0870 C   0  0  0  0  0  2  0  0  0  0  0  0
  160.9530  205.3200  150.1410 C   0  0  0  0  0  0  0  0  0  0  0  0
  161.4800  206.5490  150.6690 N   0  0  0  0  0  0  0  0  0  0  0  0
  160.6730  205.2250  148.9160 O   0  0  0  0  0  0  0  0  0  0  0  0
  161.7610  207.6650  149.7780 C   0  0  0  0  0  1  0  0  0  0  0  0
  160.6520  202.8730  150.1700 C   0  0  0  0  0  1  0  0  0  0  0  0
  160.7550  204.1260  151.0160 C   0  0  0  0  0  2  0  0  0  0  0  0
  1 21  1  1  0  0  0
  1 19  1  0  0  0  0
  2  7  1  0  0  0  0
  4  7  2  0  0  0  0
  4 12  1  0  0  0  0
  5 11  1  0  0  0  0
  5 18  2  0  0  0  0
  6 17  1  0  0  0  0
  6  9  2  0  0  0  0
  7  5  1  0  0  0  0
  8 18  1  0  0  0  0
  9  4  1  0  0  0  0
 10 15  1  1  0  0  0
 12  8  2  0  0  0  0
 14  3  2  0  0  0  0
 14 10  1  0  0  0  0
 15 13  1  0  0  0  0
 16  6  1  0  0  0  0
 17  2  2  0  0  0  0
 18 14  1  0  0  0  0
 19 13  1  0  0  0  0
 20 11  1  1  0  0  0
 20  1  1  0  0  0  0
 20 10  1  0  0  0  0
 22 21  1  0  0  0  0
 23 24  1  0  0  0  0
 23 28  1  0  0  0  0
 24 22  1  0  0  0  0
 25 23  2  0  0  0  0
 26 24  1  0  0  0  0
 27 28  1  0  0  0  0
M  END
>  <MODEL>
6

>  <REMARK>
 VINA RESULT:      -6.1      3.415      7.367
  Name = 
  4 active torsions:
  status: ('A' for Active; 'I' for Inactive)
    1  A    between atoms: C_1  and  C_2
    2  A    between atoms: C_2  and  C_3
    3  A    between atoms: C_3  and  N_7
    4  A    between atoms: C_6  and  C_11
                            x       y       z     vdW  Elec       q    Type
                         _______ _______ _______ _____ _____    ______ ____

>  <TORSDO>
F 4

$$$$
=
 OpenBabel11052422473D

 28 31  0  0  1  0  0  0  0  0999 V2000
  161.5860  205.4960  150.5800 C   0  0  2  0  0  3  0  0  0  0  0  0
  162.1380  210.4340  149.0120 C   0  0  0  0  0  3  0  0  0  0  0  0
  159.8790  208.2860  154.2320 O   0  0  0  0  0  0  0  0  0  0  0  0
  161.0390  211.7330  150.7470 C   0  0  0  0  0  0  0  0  0  0  0  0
  161.3290  209.3250  151.0450 C   0  0  0  0  0  0  0  0  0  0  0  0
  161.8360  212.8200  148.7340 C   0  0  0  0  0  0  0  0  0  0  0  0
  161.5070  210.4860  150.2650 C   0  0  0  0  0  0  0  0  0  0  0  0
  160.2420  210.6660  152.7640 C   0  0  0  0  0  3  0  0  0  0  0  0
  161.2060  212.8890  149.9790 C   0  0  0  0  0  3  0  0  0  0  0  0
  160.9810  206.8800  152.6560 C   0  0  2  0  0  3  0  0  0  0  0  0
  161.8680  207.9970  150.5720 C   0  0  0  0  0  2  0  0  0  0  0  0
  160.4120  211.8140  151.9900 C   0  0  0  0  0  3  0  0  0  0  0  0
  163.1860  205.5640  152.5200 C   0  0  0  0  0  2  0  0  0  0  0  0
  160.4780  208.2100  153.1270 C   0  0  0  0  0  0  0  0  0  0  0  0
  162.3310  206.5570  153.3180 C   0  0  0  0  0  2  0  0  0  0  0  0
  162.0090  214.0510  147.9200 C   0  0  0  0  0  1  0  0  0  0  0  0
  162.3010  211.5940  148.2500 C   0  0  0  0  0  3  0  0  0  0  0  0
  160.6990  209.4230  152.3080 C   0  0  0  0  0  0  0  0  0  0  0  0
  162.3270  204.6680  151.6360 C   0  0  0  0  0  2  0  0  0  0  0  0
  161.0420  206.8330  151.1180 C   0  0  1  0  0  3  0  0  0  0  0  0
  160.4540  204.6580  150.0050 C   0  0  0  0  0  2  0  0  0  0  0  0
  160.8310  204.0570  148.6560 C   0  0  0  0  0  2  0  0  0  0  0  0
  161.1040  201.8030  147.5610 C   0  0  0  0  0  0  0  0  0  0  0  0
  160.9220  202.6040  148.7400 N   0  0  0  0  0  0  0  0  0  0  0  0
  161.1960  200.5500  147.6530 O   0  0  0  0  0  0  0  0  0  0  0  0
  160.7690  201.9640  150.0400 C   0  0  0  0  0  1  0  0  0  0  0  0
  160.2190  201.7030  145.2620 C   0  0  0  0  0  1  0  0  0  0  0  0
  161.1580  202.4270  146.2060 C   0  0  0  0  0  2  0  0  0  0  0  0
  1 21  1  1  0  0  0
  1 20  1  0  0  0  0
  1 19  1  0  0  0  0
  2  7  1  0  0  0  0
  4 12  1  0  0  0  0
  5 18  2  0  0  0  0
  6  9  2  0  0  0  0
  7  4  2  0  0  0  0
  7  5  1  0  0  0  0
  9  4  1  0  0  0  0
 10 14  1  0  0  0  0
 10 15  1  1  0  0  0
 11  5  1  0  0  0  0
 12  8  2  0  0  0  0
 13 15  1  0  0  0  0
 14  3  2  0  0  0  0
 16  6  1  0  0  0  0
 17  6  1  0  0  0  0
 17  2  2  0  0  0  0
 18  8  1  0  0  0  0
 18 14  1  0  0  0  0
 19 13  1  0  0  0  0
 20 11  1  1  0  0  0
 20 10  1  0  0  0  0
 22 24  1  0  0  0  0
 22 21  1  0  0  0  0
 23 25  2  0  0  0  0
 23 24  1  0  0  0  0
 24 26  1  0  0  0  0
 27 28  1  0  0  0  0
 28 23  1  0  0  0  0
M  END
>  <MODEL>
7

>  <REMARK>
 VINA RESULT:      -5.2      4.034      8.420
  Name = 
  4 active torsions:
  status: ('A' for Active; 'I' for Inactive)
    1  A    between atoms: C_1  and  C_2
    2  A    between atoms: C_2  and  C_3
    3  A    between atoms: C_3  and  N_7
    4  A    between atoms: C_6  and  C_11
                            x       y       z     vdW  Elec       q    Type
                         _______ _______ _______ _____ _____    ______ ____

>  <TORSDO>
F 4

$$$$
