=
 OpenBabel11052421573D

 30 33  0  0  0  0  0  0  0  0999 V2000
  161.0160  204.5630  148.6910 N   0  0  0  0  0  0  0  0  0  0  0  0
  160.9150  202.1790  148.5830 C   0  0  0  0  0  0  0  0  0  0  0  0
  161.1890  204.5160  152.8670 C   0  0  0  0  0  3  0  0  0  0  0  0
  161.0780  205.7490  149.3550 C   0  0  0  0  0  0  0  0  0  0  0  0
  161.3000  205.7150  153.5720 C   0  0  0  0  0  3  0  0  0  0  0  0
  160.8810  200.9440  149.2370 C   0  0  0  0  0  3  0  0  0  0  0  0
  160.8740  202.2190  147.2290 F   0  0  0  0  0  0  0  0  0  0  0  0
  161.1190  204.5150  151.4630 C   0  0  0  0  0  0  0  0  0  0  0  0
  160.9230  200.8850  150.6320 C   0  0  0  0  0  3  0  0  0  0  0  0
  160.9890  203.3640  149.3280 C   0  0  0  0  0  0  0  0  0  0  0  0
  161.1510  205.7500  150.7670 C   0  0  0  0  0  0  0  0  0  0  0  0
  161.3470  206.9280  152.8850 C   0  0  0  0  0  3  0  0  0  0  0  0
  161.2780  206.9440  151.4920 C   0  0  0  0  0  3  0  0  0  0  0  0
  160.9980  202.0620  151.3800 C   0  0  0  0  0  3  0  0  0  0  0  0
  161.0320  203.3130  150.7390 C   0  0  0  0  0  0  0  0  0  0  0  0
  161.4930  205.7730  144.9710 C   0  0  0  0  0  2  0  0  0  0  0  0
  160.5860  207.9690  146.5450 O   0  0  0  0  0  0  0  0  0  0  0  0
  161.1040  206.9930  147.1530 C   0  0  0  0  0  0  0  0  0  0  0  0
  162.7070  205.0260  146.9230 C   0  0  0  0  0  2  0  0  0  0  0  0
  161.7070  205.9330  146.3940 N   0  0  0  0  0  0  0  0  0  0  0  0
  161.0900  206.9720  148.5940 N   0  0  0  0  0  0  0  0  0  0  0  0
  162.2960  204.5500  144.5720 C   0  0  0  0  0  2  0  0  0  0  0  0
  163.2410  204.2600  145.7280 C   0  0  0  0  0  2  0  0  0  0  0  0
  161.1700  208.2350  149.3160 C   0  0  0  0  0  2  0  0  0  0  0  0
  162.3110  209.0780  148.7680 C   0  0  0  0  0  2  0  0  0  0  0  0
  162.1570  210.5200  149.2110 C   0  0  0  0  0  2  0  0  0  0  0  0
  161.6160  211.3180  148.1230 N   0  0  0  0  0  2  0  0  0  0  0  0
  163.4730  212.7300  147.9970 O   0  0  0  0  0  0  0  0  0  0  0  0
  162.3320  212.4160  147.5610 C   0  0  0  0  0  0  0  0  0  0  0  0
  161.7540  213.1640  146.4980 N   0  0  0  0  0  1  0  0  0  0  0  0
  1 10  2  0  0  0  0
  1  4  1  0  0  0  0
  2  6  2  0  0  0  0
  2 10  1  0  0  0  0
  3  5  2  0  0  0  0
  4 11  2  0  0  0  0
  6  9  1  0  0  0  0
  7  2  1  0  0  0  0
  8  3  1  0  0  0  0
  9 14  2  0  0  0  0
 10 15  1  0  0  0  0
 11  8  1  0  0  0  0
 11 13  1  0  0  0  0
 12  5  1  0  0  0  0
 13 12  2  0  0  0  0
 15 14  1  0  0  0  0
 15  8  2  0  0  0  0
 16 20  1  0  0  0  0
 17 18  2  0  0  0  0
 18 21  1  0  0  0  0
 20 19  1  0  0  0  0
 20 18  1  0  0  0  0
 21 24  1  0  0  0  0
 21  4  1  0  0  0  0
 22 16  1  0  0  0  0
 22 23  1  0  0  0  0
 23 19  1  0  0  0  0
 25 26  1  0  0  0  0
 25 24  1  0  0  0  0
 27 26  1  0  0  0  0
 29 28  2  0  0  0  0
 29 27  1  0  0  0  0
 30 29  1  0  0  0  0
M  END
>  <MODEL>
1

>  <REMARK>
 VINA RESULT:      -7.9      0.000      0.000
  Name = 
  5 active torsions:
  status: ('A' for Active; 'I' for Inactive)
    1  A    between atoms: C_4  and  N_13
    2  A    between atoms: N_7  and  C_16
    3  A    between atoms: N_13  and  C_27
    4  A    between atoms: C_16  and  C_30
    5  A    between atoms: C_27  and  C_30
                            x       y       z     vdW  Elec       q    Type
                         _______ _______ _______ _____ _____    ______ ____

>  <TORSDO>
F 5

$$$$
=
 OpenBabel11052421573D

 30 33  0  0  0  0  0  0  0  0999 V2000
  160.3500  210.0630  152.3190 N   0  0  0  0  0  0  0  0  0  0  0  0
  160.8310  207.7930  151.7510 C   0  0  0  0  0  0  0  0  0  0  0  0
  161.2400  209.3990  156.3480 C   0  0  0  0  0  3  0  0  0  0  0  0
  160.2260  211.0980  153.1940 C   0  0  0  0  0  0  0  0  0  0  0  0
  161.1660  210.4530  157.2600 C   0  0  0  0  0  3  0  0  0  0  0  0
  161.2200  206.5090  152.1440 C   0  0  0  0  0  3  0  0  0  0  0  0
  160.5510  208.0360  150.4470 F   0  0  0  0  0  0  0  0  0  0  0  0
  160.9330  209.6030  154.9920 C   0  0  0  0  0  0  0  0  0  0  0  0
  161.5120  206.2420  153.4830 C   0  0  0  0  0  3  0  0  0  0  0  0
  160.7330  208.8180  152.7020 C   0  0  0  0  0  0  0  0  0  0  0  0
  160.5360  210.8930  154.5580 C   0  0  0  0  0  0  0  0  0  0  0  0
  160.7910  211.7250  156.8290 C   0  0  0  0  0  3  0  0  0  0  0  0
  160.4820  211.9440  155.4850 C   0  0  0  0  0  3  0  0  0  0  0  0
  161.4180  207.2590  154.4360 C   0  0  0  0  0  3  0  0  0  0  0  0
  161.0280  208.5550  154.0580 C   0  0  0  0  0  0  0  0  0  0  0  0
  156.9150  213.3430  155.0350 C   0  0  0  0  0  2  0  0  0  0  0  0
  158.8440  214.4370  153.2430 O   0  0  0  0  0  0  0  0  0  0  0  0
  158.8020  213.1820  153.3570 C   0  0  0  0  0  0  0  0  0  0  0  0
  157.3160  211.2080  153.9770 C   0  0  0  0  0  2  0  0  0  0  0  0
  157.7530  212.5810  154.1330 N   0  0  0  0  0  0  0  0  0  0  0  0
  159.8020  212.3810  152.6960 N   0  0  0  0  0  0  0  0  0  0  0  0
  155.9550  212.3420  155.6450 C   0  0  0  0  0  2  0  0  0  0  0  0
  156.0430  211.0860  154.7910 C   0  0  0  0  0  2  0  0  0  0  0  0
  160.3510  212.8480  151.4300 C   0  0  0  0  0  2  0  0  0  0  0  0
  159.2300  213.0890  150.4310 C   0  0  0  0  0  2  0  0  0  0  0  0
  159.7830  213.7030  149.1600 C   0  0  0  0  0  2  0  0  0  0  0  0
  161.1900  213.3650  149.0180 N   0  0  0  0  0  2  0  0  0  0  0  0
  160.8570  212.0080  147.1460 O   0  0  0  0  0  0  0  0  0  0  0  0
  161.6590  212.5050  147.9810 C   0  0  0  0  0  0  0  0  0  0  0  0
  163.0470  212.2060  147.8880 N   0  0  0  0  0  1  0  0  0  0  0  0
  1 10  2  0  0  0  0
  1  4  1  0  0  0  0
  2  6  2  0  0  0  0
  2 10  1  0  0  0  0
  3  5  2  0  0  0  0
  4 11  2  0  0  0  0
  6  9  1  0  0  0  0
  7  2  1  0  0  0  0
  8  3  1  0  0  0  0
  9 14  2  0  0  0  0
 10 15  1  0  0  0  0
 11  8  1  0  0  0  0
 11 13  1  0  0  0  0
 12  5  1  0  0  0  0
 13 12  2  0  0  0  0
 15 14  1  0  0  0  0
 15  8  2  0  0  0  0
 16 22  1  0  0  0  0
 17 18  2  0  0  0  0
 18 20  1  0  0  0  0
 19 20  1  0  0  0  0
 19 23  1  0  0  0  0
 20 16  1  0  0  0  0
 21  4  1  0  0  0  0
 21 18  1  0  0  0  0
 23 22  1  0  0  0  0
 24 21  1  0  0  0  0
 25 24  1  0  0  0  0
 26 25  1  0  0  0  0
 27 26  1  0  0  0  0
 28 29  2  0  0  0  0
 29 27  1  0  0  0  0
 30 29  1  0  0  0  0
M  END
>  <MODEL>
2

>  <REMARK>
 VINA RESULT:      -7.7      4.789      7.589
  Name = 
  5 active torsions:
  status: ('A' for Active; 'I' for Inactive)
    1  A    between atoms: C_4  and  N_13
    2  A    between atoms: N_7  and  C_16
    3  A    between atoms: N_13  and  C_27
    4  A    between atoms: C_16  and  C_30
    5  A    between atoms: C_27  and  C_30
                            x       y       z     vdW  Elec       q    Type
                         _______ _______ _______ _____ _____    ______ ____

>  <TORSDO>
F 5

$$$$
=
 OpenBabel11052421573D

 30 33  0  0  0  0  0  0  0  0999 V2000
  160.9650  204.3940  148.5590 N   0  0  0  0  0  0  0  0  0  0  0  0
  160.8550  202.0250  148.2700 C   0  0  0  0  0  0  0  0  0  0  0  0
  161.0950  204.0280  152.7210 C   0  0  0  0  0  3  0  0  0  0  0  0
  161.0250  205.5260  149.3130 C   0  0  0  0  0  0  0  0  0  0  0  0
  161.2040  205.1690  153.5170 C   0  0  0  0  0  3  0  0  0  0  0  0
  160.8090  200.7440  148.8270 C   0  0  0  0  0  3  0  0  0  0  0  0
  160.8280  202.1680  146.9220 F   0  0  0  0  0  0  0  0  0  0  0  0
  161.0390  204.1350  151.3210 C   0  0  0  0  0  0  0  0  0  0  0  0
  160.8360  200.5790  150.2130 C   0  0  0  0  0  3  0  0  0  0  0  0
  160.9270  203.1500  149.1030 C   0  0  0  0  0  0  0  0  0  0  0  0
  161.0840  205.4180  150.7210 C   0  0  0  0  0  0  0  0  0  0  0  0
  161.2640  206.4310  152.9250 C   0  0  0  0  0  3  0  0  0  0  0  0
  161.2080  206.5540  151.5360 C   0  0  0  0  0  3  0  0  0  0  0  0
  160.9090  201.6960  151.0500 C   0  0  0  0  0  3  0  0  0  0  0  0
  160.9550  202.9910  150.5060 C   0  0  0  0  0  0  0  0  0  0  0  0
  161.5750  205.8840  144.9580 C   0  0  0  0  0  2  0  0  0  0  0  0
  160.6020  207.9490  146.6650 O   0  0  0  0  0  0  0  0  0  0  0  0
  161.1090  206.9330  147.2130 C   0  0  0  0  0  0  0  0  0  0  0  0
  162.7340  204.9990  146.8840 C   0  0  0  0  0  2  0  0  0  0  0  0
  161.7440  205.9370  146.3950 N   0  0  0  0  0  0  0  0  0  0  0  0
  161.0500  206.8020  148.6470 N   0  0  0  0  0  0  0  0  0  0  0  0
  162.3990  204.7000  144.4930 C   0  0  0  0  0  2  0  0  0  0  0  0
  163.3110  204.3290  145.6530 C   0  0  0  0  0  2  0  0  0  0  0  0
  161.0980  208.0080  149.4640 C   0  0  0  0  0  2  0  0  0  0  0  0
  162.2960  208.8580  149.0720 C   0  0  0  0  0  2  0  0  0  0  0  0
  162.3300  210.1290  149.8990 C   0  0  0  0  0  2  0  0  0  0  0  0
  162.3890  209.7980  151.3140 N   0  0  0  0  0  2  0  0  0  0  0  0
  160.5790  211.1570  151.8890 O   0  0  0  0  0  0  0  0  0  0  0  0
  161.4760  210.3530  152.2590 C   0  0  0  0  0  0  0  0  0  0  0  0
  161.5800  209.9960  153.6330 N   0  0  0  0  0  1  0  0  0  0  0  0
  1 10  2  0  0  0  0
  1  4  1  0  0  0  0
  2  6  2  0  0  0  0
  2 10  1  0  0  0  0
  3  5  2  0  0  0  0
  4 11  2  0  0  0  0
  6  9  1  0  0  0  0
  7  2  1  0  0  0  0
  8  3  1  0  0  0  0
  9 14  2  0  0  0  0
 10 15  1  0  0  0  0
 11  8  1  0  0  0  0
 11 13  1  0  0  0  0
 12  5  1  0  0  0  0
 13 12  2  0  0  0  0
 15 14  1  0  0  0  0
 15  8  2  0  0  0  0
 16 20  1  0  0  0  0
 17 18  2  0  0  0  0
 18 21  1  0  0  0  0
 20 19  1  0  0  0  0
 20 18  1  0  0  0  0
 21  4  1  0  0  0  0
 21 24  1  0  0  0  0
 22 16  1  0  0  0  0
 22 23  1  0  0  0  0
 23 19  1  0  0  0  0
 25 24  1  0  0  0  0
 25 26  1  0  0  0  0
 26 27  1  0  0  0  0
 27 29  1  0  0  0  0
 28 29  2  0  0  0  0
 29 30  1  0  0  0  0
M  END
>  <MODEL>
3

>  <REMARK>
 VINA RESULT:      -7.6      1.716      2.088
  Name = 
  5 active torsions:
  status: ('A' for Active; 'I' for Inactive)
    1  A    between atoms: C_4  and  N_13
    2  A    between atoms: N_7  and  C_16
    3  A    between atoms: N_13  and  C_27
    4  A    between atoms: C_16  and  C_30
    5  A    between atoms: C_27  and  C_30
                            x       y       z     vdW  Elec       q    Type
                         _______ _______ _______ _____ _____    ______ ____

>  <TORSDO>
F 5

$$$$
=
 OpenBabel11052421573D

 30 33  0  0  0  0  0  0  0  0999 V2000
  161.8880  210.1460  152.2400 N   0  0  0  0  0  0  0  0  0  0  0  0
  162.0420  210.1860  149.8570 C   0  0  0  0  0  0  0  0  0  0  0  0
  161.0670  206.0470  152.2670 C   0  0  0  0  0  3  0  0  0  0  0  0
  161.6770  209.5300  153.4360 C   0  0  0  0  0  0  0  0  0  0  0  0
  160.8930  205.3800  153.4800 C   0  0  0  0  0  3  0  0  0  0  0  0
  161.9720  209.5140  148.6340 C   0  0  0  0  0  3  0  0  0  0  0  0
  162.3200  211.5130  149.8740 F   0  0  0  0  0  0  0  0  0  0  0  0
  161.3330  207.4270  152.2400 C   0  0  0  0  0  0  0  0  0  0  0  0
  161.6860  208.1470  148.5980 C   0  0  0  0  0  3  0  0  0  0  0  0
  161.8250  209.4900  151.0540 C   0  0  0  0  0  0  0  0  0  0  0  0
  161.4120  208.1420  153.4620 C   0  0  0  0  0  0  0  0  0  0  0  0
  160.9860  206.0810  154.6830 C   0  0  0  0  0  3  0  0  0  0  0  0
  161.2490  207.4520  154.6730 C   0  0  0  0  0  3  0  0  0  0  0  0
  161.4700  207.4460  149.7870 C   0  0  0  0  0  3  0  0  0  0  0  0
  161.5360  208.1070  151.0250 C   0  0  0  0  0  0  0  0  0  0  0  0
  158.0940  211.2240  155.3560 C   0  0  0  0  0  2  0  0  0  0  0  0
  160.6460  210.9510  156.5950 O   0  0  0  0  0  0  0  0  0  0  0  0
  160.5830  210.7720  155.3490 C   0  0  0  0  0  0  0  0  0  0  0  0
  159.2610  211.3250  153.2420 C   0  0  0  0  0  2  0  0  0  0  0  0
  159.3510  211.0430  154.6610 N   0  0  0  0  0  0  0  0  0  0  0  0
  161.7530  210.3120  154.6430 N   0  0  0  0  0  0  0  0  0  0  0  0
  157.0630  211.4830  154.2750 C   0  0  0  0  0  2  0  0  0  0  0  0
  157.8410  211.8000  153.0060 C   0  0  0  0  0  2  0  0  0  0  0  0
  163.0680  210.7180  155.1220 C   0  0  0  0  0  2  0  0  0  0  0  0
  163.0780  210.7670  156.6420 C   0  0  0  0  0  2  0  0  0  0  0  0
  164.3220  211.4790  157.1350 C   0  0  0  0  0  2  0  0  0  0  0  0
  165.1870  211.8010  156.0120 N   0  0  0  0  0  2  0  0  0  0  0  0
  166.5820  213.2010  157.2580 O   0  0  0  0  0  0  0  0  0  0  0  0
  166.3060  212.6760  156.1460 C   0  0  0  0  0  0  0  0  0  0  0  0
  167.1190  212.9590  155.0130 N   0  0  0  0  0  1  0  0  0  0  0  0
  1  4  1  0  0  0  0
  2  7  1  0  0  0  0
  2 10  1  0  0  0  0
  3  5  2  0  0  0  0
  4 11  2  0  0  0  0
  4 21  1  0  0  0  0
  5 12  1  0  0  0  0
  6  2  2  0  0  0  0
  8  3  1  0  0  0  0
  8 11  1  0  0  0  0
  9  6  1  0  0  0  0
  9 14  2  0  0  0  0
 10  1  2  0  0  0  0
 11 13  1  0  0  0  0
 13 12  2  0  0  0  0
 14 15  1  0  0  0  0
 15 10  1  0  0  0  0
 15  8  2  0  0  0  0
 18 17  2  0  0  0  0
 19 20  1  0  0  0  0
 20 18  1  0  0  0  0
 20 16  1  0  0  0  0
 21 24  1  0  0  0  0
 21 18  1  0  0  0  0
 22 16  1  0  0  0  0
 23 19  1  0  0  0  0
 23 22  1  0  0  0  0
 24 25  1  0  0  0  0
 25 26  1  0  0  0  0
 27 29  1  0  0  0  0
 27 26  1  0  0  0  0
 29 28  2  0  0  0  0
 30 29  1  0  0  0  0
M  END
>  <MODEL>
4

>  <REMARK>
 VINA RESULT:      -7.5      5.455      8.031
  Name = 
  5 active torsions:
  status: ('A' for Active; 'I' for Inactive)
    1  A    between atoms: C_4  and  N_13
    2  A    between atoms: N_7  and  C_16
    3  A    between atoms: N_13  and  C_27
    4  A    between atoms: C_16  and  C_30
    5  A    between atoms: C_27  and  C_30
                            x       y       z     vdW  Elec       q    Type
                         _______ _______ _______ _____ _____    ______ ____

>  <TORSDO>
F 5

$$$$
=
 OpenBabel11052421573D

 30 33  0  0  0  0  0  0  0  0999 V2000
  161.4700  209.3570  153.5110 N   0  0  0  0  0  0  0  0  0  0  0  0
  161.0970  209.6700  155.8500 C   0  0  0  0  0  0  0  0  0  0  0  0
  160.9190  205.2260  153.8250 C   0  0  0  0  0  3  0  0  0  0  0  0
  161.5890  208.5950  152.3890 C   0  0  0  0  0  0  0  0  0  0  0  0
  160.9890  204.4250  152.6840 C   0  0  0  0  0  3  0  0  0  0  0  0
  160.8220  209.1290  157.1090 C   0  0  0  0  0  3  0  0  0  0  0  0
  161.2660  211.0090  155.7210 F   0  0  0  0  0  0  0  0  0  0  0  0
  161.1120  206.6150  153.7380 C   0  0  0  0  0  0  0  0  0  0  0  0
  160.6450  207.7520  157.2590 C   0  0  0  0  0  3  0  0  0  0  0  0
  161.1970  208.8300  154.7320 C   0  0  0  0  0  0  0  0  0  0  0  0
  161.3920  207.1980  152.4770 C   0  0  0  0  0  0  0  0  0  0  0  0
  161.2490  205.0020  151.4410 C   0  0  0  0  0  3  0  0  0  0  0  0
  161.4450  206.3800  151.3380 C   0  0  0  0  0  3  0  0  0  0  0  0
  160.7420  206.9090  156.1500 C   0  0  0  0  0  3  0  0  0  0  0  0
  161.0190  207.4360  154.8760 C   0  0  0  0  0  0  0  0  0  0  0  0
  160.4640  212.7760  151.5860 C   0  0  0  0  0  2  0  0  0  0  0  0
  162.3640  211.2710  150.0860 O   0  0  0  0  0  0  0  0  0  0  0  0
  161.6390  210.6420  150.9040 C   0  0  0  0  0  0  0  0  0  0  0  0
  159.4170  210.6730  152.1490 C   0  0  0  0  0  2  0  0  0  0  0  0
  160.5710  211.3320  151.5720 N   0  0  0  0  0  0  0  0  0  0  0  0
  161.8920  209.2430  151.1390 N   0  0  0  0  0  0  0  0  0  0  0  0
  159.2160  213.0860  152.3880 C   0  0  0  0  0  2  0  0  0  0  0  0
  158.4440  211.7800  152.5040 C   0  0  0  0  0  2  0  0  0  0  0  0
  162.4030  208.4280  150.0440 C   0  0  0  0  0  2  0  0  0  0  0  0
  161.5890  208.6770  148.7840 C   0  0  0  0  0  2  0  0  0  0  0  0
  161.1180  207.3610  148.1960 C   0  0  0  0  0  2  0  0  0  0  0  0
  162.1770  206.7680  147.3960 N   0  0  0  0  0  2  0  0  0  0  0  0
  161.2730  204.6150  147.4730 O   0  0  0  0  0  0  0  0  0  0  0  0
  162.1910  205.3790  147.0710 C   0  0  0  0  0  0  0  0  0  0  0  0
  163.2540  204.8500  146.2860 N   0  0  0  0  0  1  0  0  0  0  0  0
  1 10  1  0  0  0  0
  2  6  1  0  0  0  0
  4 11  1  0  0  0  0
  4  1  2  0  0  0  0
  5  3  2  0  0  0  0
  6  9  2  0  0  0  0
  7  2  1  0  0  0  0
  8  3  1  0  0  0  0
  8 15  1  0  0  0  0
 10 15  1  0  0  0  0
 10  2  2  0  0  0  0
 11  8  2  0  0  0  0
 12  5  1  0  0  0  0
 13 12  2  0  0  0  0
 13 11  1  0  0  0  0
 14  9  1  0  0  0  0
 15 14  2  0  0  0  0
 16 22  1  0  0  0  0
 17 18  2  0  0  0  0
 18 21  1  0  0  0  0
 18 20  1  0  0  0  0
 19 23  1  0  0  0  0
 20 16  1  0  0  0  0
 20 19  1  0  0  0  0
 21  4  1  0  0  0  0
 22 23  1  0  0  0  0
 24 21  1  0  0  0  0
 25 24  1  0  0  0  0
 26 25  1  0  0  0  0
 27 26  1  0  0  0  0
 29 27  1  0  0  0  0
 29 28  2  0  0  0  0
 30 29  1  0  0  0  0
M  END
>  <MODEL>
5

>  <REMARK>
 VINA RESULT:      -7.2      3.661      7.053
  Name = 
  5 active torsions:
  status: ('A' for Active; 'I' for Inactive)
    1  A    between atoms: C_4  and  N_13
    2  A    between atoms: N_7  and  C_16
    3  A    between atoms: N_13  and  C_27
    4  A    between atoms: C_16  and  C_30
    5  A    between atoms: C_27  and  C_30
                            x       y       z     vdW  Elec       q    Type
                         _______ _______ _______ _____ _____    ______ ____

>  <TORSDO>
F 5

$$$$
=
 OpenBabel11052421573D

 30 33  0  0  0  0  0  0  0  0999 V2000
  160.8430  210.5680  151.7030 N   0  0  0  0  0  0  0  0  0  0  0  0
  161.0890  212.3080  150.0850 C   0  0  0  0  0  0  0  0  0  0  0  0
  158.2360  212.8810  154.0110 C   0  0  0  0  0  3  0  0  0  0  0  0
  160.3490  210.0410  152.8570 C   0  0  0  0  0  0  0  0  0  0  0  0
  157.6780  212.3490  155.1750 C   0  0  0  0  0  3  0  0  0  0  0  0
  160.7820  213.6000  149.6490 C   0  0  0  0  0  3  0  0  0  0  0  0
  161.9210  211.5340  149.3460 F   0  0  0  0  0  0  0  0  0  0  0  0
  159.1220  212.1200  153.2300 C   0  0  0  0  0  0  0  0  0  0  0  0
  159.9270  214.4100  150.3980 C   0  0  0  0  0  3  0  0  0  0  0  0
  160.5380  211.8220  151.2790 C   0  0  0  0  0  0  0  0  0  0  0  0
  159.4560  210.8060  153.6420 C   0  0  0  0  0  0  0  0  0  0  0  0
  157.9950  211.0490  155.5710 C   0  0  0  0  0  3  0  0  0  0  0  0
  158.8740  210.2820  154.8060 C   0  0  0  0  0  3  0  0  0  0  0  0
  159.3730  213.9320  151.5880 C   0  0  0  0  0  3  0  0  0  0  0  0
  159.6720  212.6350  152.0420 C   0  0  0  0  0  0  0  0  0  0  0  0
  162.1210  209.1360  156.7850 C   0  0  0  0  0  2  0  0  0  0  0  0
  161.0200  207.2070  154.9980 O   0  0  0  0  0  0  0  0  0  0  0  0
  161.2070  208.3720  154.5530 C   0  0  0  0  0  0  0  0  0  0  0  0
  162.5670  210.5070  154.8460 C   0  0  0  0  0  2  0  0  0  0  0  0
  161.8940  209.3350  155.3690 N   0  0  0  0  0  0  0  0  0  0  0  0
  160.7380  208.7060  153.2320 N   0  0  0  0  0  0  0  0  0  0  0  0
  162.8650  210.3700  157.2570 C   0  0  0  0  0  2  0  0  0  0  0  0
  163.3590  211.0790  156.0050 C   0  0  0  0  0  2  0  0  0  0  0  0
  160.7300  207.6700  152.2070 C   0  0  0  0  0  2  0  0  0  0  0  0
  162.0210  207.7160  151.4070 C   0  0  0  0  0  2  0  0  0  0  0  0
  161.8220  207.0650  150.0520 C   0  0  0  0  0  2  0  0  0  0  0  0
  161.4570  205.6680  150.2230 N   0  0  0  0  0  2  0  0  0  0  0  0
  161.2570  205.2560  147.9320 O   0  0  0  0  0  0  0  0  0  0  0  0
  161.1850  204.8160  149.1110 C   0  0  0  0  0  0  0  0  0  0  0  0
  160.8310  203.4560  149.3350 N   0  0  0  0  0  1  0  0  0  0  0  0
  1  4  1  0  0  0  0
  2 10  1  0  0  0  0
  3  5  2  0  0  0  0
  4 21  1  0  0  0  0
  4 11  2  0  0  0  0
  5 12  1  0  0  0  0
  6  2  2  0  0  0  0
  6  9  1  0  0  0  0
  7  2  1  0  0  0  0
  8 11  1  0  0  0  0
  8  3  1  0  0  0  0
  9 14  2  0  0  0  0
 10  1  2  0  0  0  0
 10 15  1  0  0  0  0
 11 13  1  0  0  0  0
 13 12  2  0  0  0  0
 14 15  1  0  0  0  0
 15  8  2  0  0  0  0
 16 22  1  0  0  0  0
 18 17  2  0  0  0  0
 18 20  1  0  0  0  0
 19 20  1  0  0  0  0
 19 23  1  0  0  0  0
 20 16  1  0  0  0  0
 21 18  1  0  0  0  0
 23 22  1  0  0  0  0
 24 21  1  0  0  0  0
 25 24  1  0  0  0  0
 26 27  1  0  0  0  0
 26 25  1  0  0  0  0
 28 29  2  0  0  0  0
 29 30  1  0  0  0  0
 29 27  1  0  0  0  0
M  END
>  <MODEL>
6

>  <REMARK>
 VINA RESULT:      -7.2      4.740      8.872
  Name = 
  5 active torsions:
  status: ('A' for Active; 'I' for Inactive)
    1  A    between atoms: C_4  and  N_13
    2  A    between atoms: N_7  and  C_16
    3  A    between atoms: N_13  and  C_27
    4  A    between atoms: C_16  and  C_30
    5  A    between atoms: C_27  and  C_30
                            x       y       z     vdW  Elec       q    Type
                         _______ _______ _______ _____ _____    ______ ____

>  <TORSDO>
F 5

$$$$
=
 OpenBabel11052421573D

 30 33  0  0  0  0  0  0  0  0999 V2000
  161.6460  206.8490  151.2610 N   0  0  0  0  0  0  0  0  0  0  0  0
  161.2060  204.9510  152.6430 C   0  0  0  0  0  0  0  0  0  0  0  0
  161.1890  204.5970  147.7690 C   0  0  0  0  0  3  0  0  0  0  0  0
  161.8130  207.4660  150.0590 C   0  0  0  0  0  0  0  0  0  0  0  0
  161.3090  205.2130  146.5230 C   0  0  0  0  0  3  0  0  0  0  0  0
  160.9130  203.5890  152.7630 C   0  0  0  0  0  3  0  0  0  0  0  0
  161.3450  205.7040  153.7610 F   0  0  0  0  0  0  0  0  0  0  0  0
  161.3510  205.3370  148.9520 C   0  0  0  0  0  0  0  0  0  0  0  0
  160.7660  202.7990  151.6210 C   0  0  0  0  0  3  0  0  0  0  0  0
  161.3550  205.5270  151.3740 C   0  0  0  0  0  0  0  0  0  0  0  0
  161.6480  206.7210  148.8690 C   0  0  0  0  0  0  0  0  0  0  0  0
  161.5860  206.5780  146.4420 C   0  0  0  0  0  3  0  0  0  0  0  0
  161.7500  207.3270  147.6080 C   0  0  0  0  0  3  0  0  0  0  0  0
  160.9120  203.3660  150.3530 C   0  0  0  0  0  3  0  0  0  0  0  0
  161.2080  204.7340  150.2150 C   0  0  0  0  0  0  0  0  0  0  0  0
  162.0550  209.8660  153.7430 C   0  0  0  0  0  2  0  0  0  0  0  0
  163.0990  210.6420  151.2070 O   0  0  0  0  0  0  0  0  0  0  0  0
  162.3320  209.6420  151.2390 C   0  0  0  0  0  0  0  0  0  0  0  0
  160.4550  208.5130  152.5400 C   0  0  0  0  0  2  0  0  0  0  0  0
  161.6670  209.3050  152.4660 N   0  0  0  0  0  0  0  0  0  0  0  0
  162.1310  208.8700  150.0380 N   0  0  0  0  0  0  0  0  0  0  0  0
  161.1140  209.2540  154.7620 C   0  0  0  0  0  2  0  0  0  0  0  0
  159.9730  208.6290  153.9720 C   0  0  0  0  0  2  0  0  0  0  0  0
  162.1730  209.5500  148.7500 C   0  0  0  0  0  2  0  0  0  0  0  0
  161.5720  210.9420  148.8750 C   0  0  0  0  0  2  0  0  0  0  0  0
  162.2280  211.8860  147.8850 C   0  0  0  0  0  2  0  0  0  0  0  0
  161.2100  212.5800  147.1140 N   0  0  0  0  0  2  0  0  0  0  0  0
  162.7060  213.3360  145.4870 O   0  0  0  0  0  0  0  0  0  0  0  0
  161.5220  213.2900  145.9170 C   0  0  0  0  0  0  0  0  0  0  0  0
  160.4860  213.9540  145.2000 N   0  0  0  0  0  1  0  0  0  0  0  0
  1 10  1  0  0  0  0
  2  6  1  0  0  0  0
  2  7  1  0  0  0  0
  3  8  1  0  0  0  0
  4  1  2  0  0  0  0
  5  3  2  0  0  0  0
  8 15  1  0  0  0  0
  9  6  2  0  0  0  0
 10  2  2  0  0  0  0
 11  8  2  0  0  0  0
 11  4  1  0  0  0  0
 12  5  1  0  0  0  0
 12 13  2  0  0  0  0
 13 11  1  0  0  0  0
 14  9  1  0  0  0  0
 15 14  2  0  0  0  0
 15 10  1  0  0  0  0
 16 22  1  0  0  0  0
 17 18  2  0  0  0  0
 18 20  1  0  0  0  0
 19 23  1  0  0  0  0
 20 19  1  0  0  0  0
 20 16  1  0  0  0  0
 21  4  1  0  0  0  0
 21 18  1  0  0  0  0
 23 22  1  0  0  0  0
 24 25  1  0  0  0  0
 24 21  1  0  0  0  0
 26 25  1  0  0  0  0
 27 26  1  0  0  0  0
 28 29  2  0  0  0  0
 29 27  1  0  0  0  0
 30 29  1  0  0  0  0
M  END
>  <MODEL>
7

>  <REMARK>
 VINA RESULT:      -7.1      2.502      5.134
  Name = 
  5 active torsions:
  status: ('A' for Active; 'I' for Inactive)
    1  A    between atoms: C_4  and  N_13
    2  A    between atoms: N_7  and  C_16
    3  A    between atoms: N_13  and  C_27
    4  A    between atoms: C_16  and  C_30
    5  A    between atoms: C_27  and  C_30
                            x       y       z     vdW  Elec       q    Type
                         _______ _______ _______ _____ _____    ______ ____

>  <TORSDO>
F 5

$$$$
=
 OpenBabel11052421573D

 30 33  0  0  0  0  0  0  0  0999 V2000
  160.8130  210.5470  140.3140 N   0  0  0  0  0  0  0  0  0  0  0  0
  160.8340  208.7260  138.7680 C   0  0  0  0  0  0  0  0  0  0  0  0
  157.3050  212.1050  138.6570 C   0  0  0  0  0  3  0  0  0  0  0  0
  160.2970  211.6940  140.8360 C   0  0  0  0  0  0  0  0  0  0  0  0
  156.7280  213.2530  139.2020 C   0  0  0  0  0  3  0  0  0  0  0  0
  160.2560  208.0580  137.6850 C   0  0  0  0  0  3  0  0  0  0  0  0
  161.9640  208.2320  139.3310 F   0  0  0  0  0  0  0  0  0  0  0  0
  158.4900  211.5740  139.1960 C   0  0  0  0  0  0  0  0  0  0  0  0
  159.0920  208.5530  137.0940 C   0  0  0  0  0  3  0  0  0  0  0  0
  160.2460  209.8970  139.2650 C   0  0  0  0  0  0  0  0  0  0  0  0
  159.1040  212.2250  140.2950 C   0  0  0  0  0  0  0  0  0  0  0  0
  157.3240  213.8840  140.2940 C   0  0  0  0  0  3  0  0  0  0  0  0
  158.5020  213.3700  140.8400 C   0  0  0  0  0  3  0  0  0  0  0  0
  158.4990  209.7190  137.5840 C   0  0  0  0  0  3  0  0  0  0  0  0
  159.0680  210.4040  138.6720 C   0  0  0  0  0  0  0  0  0  0  0  0
  163.6780  214.4530  140.2500 C   0  0  0  0  0  2  0  0  0  0  0  0
  162.1730  214.1900  142.6560 O   0  0  0  0  0  0  0  0  0  0  0  0
  162.0020  213.3140  141.7650 C   0  0  0  0  0  0  0  0  0  0  0  0
  163.0740  212.1660  139.7590 C   0  0  0  0  0  2  0  0  0  0  0  0
  162.8440  213.3230  140.6000 N   0  0  0  0  0  0  0  0  0  0  0  0
  160.9750  212.3190  141.9410 N   0  0  0  0  0  0  0  0  0  0  0  0
  164.3890  214.0550  138.9710 C   0  0  0  0  0  2  0  0  0  0  0  0
  164.2060  212.5510  138.8270 C   0  0  0  0  0  2  0  0  0  0  0  0
  160.6600  211.8670  143.2910 C   0  0  0  0  0  2  0  0  0  0  0  0
  159.4740  212.6440  143.8390 C   0  0  0  0  0  2  0  0  0  0  0  0
  159.5110  212.6570  145.3550 C   0  0  0  0  0  2  0  0  0  0  0  0
  160.7740  213.2120  145.8150 N   0  0  0  0  0  2  0  0  0  0  0  0
  161.0010  211.6970  147.5790 O   0  0  0  0  0  0  0  0  0  0  0  0
  161.4680  212.6790  146.9410 C   0  0  0  0  0  0  0  0  0  0  0  0
  162.7010  213.2610  147.3490 N   0  0  0  0  0  1  0  0  0  0  0  0
  1  4  1  0  0  0  0
  2 10  1  0  0  0  0
  2  7  1  0  0  0  0
  3  8  1  0  0  0  0
  3  5  2  0  0  0  0
  4 21  1  0  0  0  0
  5 12  1  0  0  0  0
  6  2  2  0  0  0  0
  8 11  1  0  0  0  0
  9 14  2  0  0  0  0
  9  6  1  0  0  0  0
 10  1  2  0  0  0  0
 11  4  2  0  0  0  0
 11 13  1  0  0  0  0
 12 13  2  0  0  0  0
 14 15  1  0  0  0  0
 15  8  2  0  0  0  0
 15 10  1  0  0  0  0
 16 20  1  0  0  0  0
 18 21  1  0  0  0  0
 18 17  2  0  0  0  0
 19 20  1  0  0  0  0
 20 18  1  0  0  0  0
 21 24  1  0  0  0  0
 22 16  1  0  0  0  0
 23 22  1  0  0  0  0
 23 19  1  0  0  0  0
 24 25  1  0  0  0  0
 25 26  1  0  0  0  0
 26 27  1  0  0  0  0
 27 29  1  0  0  0  0
 29 30  1  0  0  0  0
 29 28  2  0  0  0  0
M  END
>  <MODEL>
8

>  <REMARK>
 VINA RESULT:      -7.0      7.907     11.057
  Name = 
  5 active torsions:
  status: ('A' for Active; 'I' for Inactive)
    1  A    between atoms: C_4  and  N_13
    2  A    between atoms: N_7  and  C_16
    3  A    between atoms: N_13  and  C_27
    4  A    between atoms: C_16  and  C_30
    5  A    between atoms: C_27  and  C_30
                            x       y       z     vdW  Elec       q    Type
                         _______ _______ _______ _____ _____    ______ ____

>  <TORSDO>
F 5

$$$$
=
 OpenBabel11052421573D

 30 33  0  0  0  0  0  0  0  0999 V2000
  159.5370  210.3530  153.2040 N   0  0  0  0  0  0  0  0  0  0  0  0
  157.8190  211.7750  154.0590 C   0  0  0  0  0  0  0  0  0  0  0  0
  160.3990  213.0140  150.0970 C   0  0  0  0  0  3  0  0  0  0  0  0
  160.5140  210.0240  152.3140 C   0  0  0  0  0  0  0  0  0  0  0  0
  161.4260  212.7250  149.1980 C   0  0  0  0  0  3  0  0  0  0  0  0
  157.0730  212.9530  153.9660 C   0  0  0  0  0  3  0  0  0  0  0  0
  157.5670  210.9030  155.0660 F   0  0  0  0  0  0  0  0  0  0  0  0
  160.0890  212.1250  151.1410 C   0  0  0  0  0  0  0  0  0  0  0  0
  157.3200  213.8620  152.9350 C   0  0  0  0  0  3  0  0  0  0  0  0
  158.8180  211.5010  153.1150 C   0  0  0  0  0  0  0  0  0  0  0  0
  160.8260  210.9200  151.2660 C   0  0  0  0  0  0  0  0  0  0  0  0
  162.1600  211.5460  149.3320 C   0  0  0  0  0  3  0  0  0  0  0  0
  161.8650  210.6530  150.3620 C   0  0  0  0  0  3  0  0  0  0  0  0
  158.3150  213.5970  151.9910 C   0  0  0  0  0  3  0  0  0  0  0  0
  159.0740  212.4160  152.0690 C   0  0  0  0  0  0  0  0  0  0  0  0
  161.5540  208.4430  156.2910 C   0  0  0  0  0  2  0  0  0  0  0  0
  161.5600  206.9350  153.8720 O   0  0  0  0  0  0  0  0  0  0  0  0
  161.4580  208.1880  153.7750 C   0  0  0  0  0  0  0  0  0  0  0  0
  161.9590  210.4010  154.9340 C   0  0  0  0  0  2  0  0  0  0  0  0
  161.5980  208.9980  154.9540 N   0  0  0  0  0  0  0  0  0  0  0  0
  161.2160  208.7780  152.4830 N   0  0  0  0  0  0  0  0  0  0  0  0
  161.7360  209.6210  157.2280 C   0  0  0  0  0  2  0  0  0  0  0  0
  162.2440  210.7740  156.3750 C   0  0  0  0  0  2  0  0  0  0  0  0
  161.7700  208.1320  151.3010 C   0  0  0  0  0  2  0  0  0  0  0  0
  160.8340  207.0350  150.8170 C   0  0  0  0  0  2  0  0  0  0  0  0
  160.8620  206.9520  149.3030 C   0  0  0  0  0  2  0  0  0  0  0  0
  160.8670  205.5600  148.8840 N   0  0  0  0  0  2  0  0  0  0  0  0
  162.2670  205.9320  147.0510 O   0  0  0  0  0  0  0  0  0  0  0  0
  161.5960  205.1170  147.7400 C   0  0  0  0  0  0  0  0  0  0  0  0
  161.5650  203.7430  147.3730 N   0  0  0  0  0  1  0  0  0  0  0  0
  2  7  1  0  0  0  0
  3  8  1  0  0  0  0
  4 21  1  0  0  0  0
  4  1  2  0  0  0  0
  5 12  1  0  0  0  0
  5  3  2  0  0  0  0
  6  2  1  0  0  0  0
  8 11  2  0  0  0  0
  8 15  1  0  0  0  0
  9  6  2  0  0  0  0
 10  1  1  0  0  0  0
 10  2  2  0  0  0  0
 11  4  1  0  0  0  0
 12 13  2  0  0  0  0
 13 11  1  0  0  0  0
 14 15  2  0  0  0  0
 14  9  1  0  0  0  0
 15 10  1  0  0  0  0
 16 22  1  0  0  0  0
 18 17  2  0  0  0  0
 18 20  1  0  0  0  0
 19 20  1  0  0  0  0
 19 23  1  0  0  0  0
 20 16  1  0  0  0  0
 21 18  1  0  0  0  0
 23 22  1  0  0  0  0
 24 21  1  0  0  0  0
 25 24  1  0  0  0  0
 26 25  1  0  0  0  0
 27 26  1  0  0  0  0
 28 29  2  0  0  0  0
 29 27  1  0  0  0  0
 30 29  1  0  0  0  0
M  END
>  <MODEL>
9

>  <REMARK>
 VINA RESULT:      -7.0      4.711      8.869
  Name = 
  5 active torsions:
  status: ('A' for Active; 'I' for Inactive)
    1  A    between atoms: C_4  and  N_13
    2  A    between atoms: N_7  and  C_16
    3  A    between atoms: N_13  and  C_27
    4  A    between atoms: C_16  and  C_30
    5  A    between atoms: C_27  and  C_30
                            x       y       z     vdW  Elec       q    Type
                         _______ _______ _______ _____ _____    ______ ____

>  <TORSDO>
F 5

$$$$
