=
 OpenBabel11052422363D

 31 35  0  0  1  0  0  0  0  0999 V2000
  161.3000  205.3630  145.7810 N   0  0  0  0  0  0  0  0  0  0  0  0
  161.2740  204.3920  149.4620 C   0  0  0  0  0  0  0  0  0  0  0  0
  161.1820  202.9780  149.5560 C   0  0  0  0  0  0  0  0  0  0  0  0
  161.3140  209.5230  150.9350 O   0  0  0  0  0  0  0  0  0  0  0  0
  160.9870  208.8010  151.9150 C   0  0  0  0  0  0  0  0  0  0  0  0
  161.1780  200.7550  148.5880 C   0  0  0  0  0  0  0  0  0  0  0  0
  161.4330  205.1490  148.1880 C   0  0  0  0  0  0  0  0  0  0  0  0
  161.9490  206.6700  145.7800 C   0  0  0  0  0  2  0  0  0  0  0  0
  161.2690  202.1390  148.4350 C   0  0  0  0  0  3  0  0  0  0  0  0
  161.2950  206.6200  150.6090 C   0  0  0  0  0  0  0  0  0  0  0  0
  160.9020  204.7670  144.5210 C   0  0  0  0  0  1  0  0  0  0  0  0
  160.9490  203.1760  151.9630 C   0  0  0  0  0  3  0  0  0  0  0  0
  161.2660  199.8710  147.3970 C   0  0  0  0  0  1  0  0  0  0  0  0
  161.6020  207.2330  149.5010 N   0  0  0  0  0  0  0  0  0  0  0  0
  161.2190  205.1460  150.6550 C   0  0  0  0  0  0  0  0  0  0  0  0
  160.9740  207.3700  151.7900 N   0  0  0  0  0  2  0  0  0  0  0  0
  161.1270  204.6200  146.9950 C   0  0  0  0  0  3  0  0  0  0  0  0
  161.0080  200.2130  149.8240 N   0  0  0  0  0  0  0  0  0  0  0  0
  162.0010  206.5540  148.2690 C   0  0  2  0  0  3  0  0  0  0  0  0
  161.6150  207.4130  147.0670 C   0  0  0  0  0  2  0  0  0  0  0  0
  161.0500  204.5240  151.8540 N   0  0  0  0  0  0  0  0  0  0  0  0
  161.0160  202.3800  150.8250 C   0  0  0  0  0  0  0  0  0  0  0  0
  160.9280  200.9910  150.9350 C   0  0  0  0  0  3  0  0  0  0  0  0
  160.5820  210.9100  155.6440 C   0  0  1  0  0  3  0  0  0  0  0  0
  160.9760  208.8250  154.3430 C   0  0  0  0  0  3  0  0  0  0  0  0
  158.9170  210.8640  152.3480 F   0  0  0  0  0  0  0  0  0  0  0  0
  160.0590  211.5430  157.2610 S   0  0  0  0  0  1  0  0  0  0  0  0
  160.6670  209.3920  155.6980 C   0  0  0  0  0  2  0  0  0  0  0  0
  160.0000  210.8160  153.2060 C   0  0  2  0  0  3  0  0  0  0  0  0
  160.6230  209.4310  153.2000 C   0  0  0  0  0  0  0  0  0  0  0  0
  159.5540  211.2940  154.5910 C   0  0  0  0  0  2  0  0  0  0  0  0
  1 17  1  0  0  0  0
  2  3  2  0  0  0  0
  2 15  1  0  0  0  0
  3 22  1  0  0  0  0
  4  5  2  0  0  0  0
  5 30  1  0  0  0  0
  6 18  1  0  0  0  0
  7 19  1  0  0  0  0
  7  2  1  0  0  0  0
  8  1  1  0  0  0  0
  8 20  1  0  0  0  0
  9  6  2  0  0  0  0
  9  3  1  0  0  0  0
 10 15  1  0  0  0  0
 10 16  1  0  0  0  0
 11  1  1  0  0  0  0
 13  6  1  0  0  0  0
 14 10  2  0  0  0  0
 15 21  2  0  0  0  0
 16  5  1  0  0  0  0
 17  7  2  0  0  0  0
 18 23  2  0  0  0  0
 19 20  1  6  0  0  0
 19 14  1  0  0  0  0
 21 12  1  0  0  0  0
 22 23  1  0  0  0  0
 22 12  2  0  0  0  0
 24 28  1  0  0  0  0
 24 27  1  1  0  0  0
 25 28  1  0  0  0  0
 29 26  1  6  0  0  0
 29 31  1  0  0  0  0
 30 29  1  0  0  0  0
 30 25  2  0  0  0  0
 31 24  1  0  0  0  0
M  END
>  <MODEL>
1

>  <REMARK>
 VINA RESULT:      -8.3      0.000      0.000
  Name = 
  1 active torsions:
  status: ('A' for Active; 'I' for Inactive)
    1  A    between atoms: C_9  and  C_22
                            x       y       z     vdW  Elec       q    Type
                         _______ _______ _______ _____ _____    ______ ____

>  <TORSDO>
F 1

$$$$
=
 OpenBabel11052422363D

 31 35  0  0  1  0  0  0  0  0999 V2000
  161.2650  207.7040  154.3050 N   0  0  0  0  0  0  0  0  0  0  0  0
  161.1990  207.2010  150.5320 C   0  0  0  0  0  0  0  0  0  0  0  0
  161.1710  205.8070  150.2620 C   0  0  0  0  0  0  0  0  0  0  0  0
  161.5880  212.4620  149.7090 O   0  0  0  0  0  0  0  0  0  0  0  0
  161.8500  211.8420  148.6420 C   0  0  0  0  0  0  0  0  0  0  0  0
  160.9900  203.4880  150.9460 C   0  0  0  0  0  0  0  0  0  0  0  0
  161.1090  207.8040  151.8930 C   0  0  0  0  0  0  0  0  0  0  0  0
  160.7290  209.0500  154.4770 C   0  0  0  0  0  2  0  0  0  0  0  0
  161.0170  204.8450  151.2710 C   0  0  0  0  0  3  0  0  0  0  0  0
  161.3630  209.5490  149.6710 C   0  0  0  0  0  0  0  0  0  0  0  0
  161.6150  206.9230  155.4760 C   0  0  0  0  0  1  0  0  0  0  0  0
  161.4130  206.2840  147.8950 C   0  0  0  0  0  3  0  0  0  0  0  0
  160.8310  202.4730  152.0190 C   0  0  0  0  0  1  0  0  0  0  0  0
  161.1120  210.0420  150.8510 N   0  0  0  0  0  0  0  0  0  0  0  0
  161.3140  208.0910  149.4410 C   0  0  0  0  0  0  0  0  0  0  0  0
  161.7430  210.4110  148.5890 N   0  0  0  0  0  2  0  0  0  0  0  0
  161.3720  207.1060  153.0060 C   0  0  0  0  0  3  0  0  0  0  0  0
  161.1100  203.0930  149.6510 N   0  0  0  0  0  0  0  0  0  0  0  0
  160.6610  209.2500  151.9940 C   0  0  2  0  0  3  0  0  0  0  0  0
  161.1210  209.9170  153.2880 C   0  0  0  0  0  2  0  0  0  0  0  0
  161.4260  207.6120  148.1720 N   0  0  0  0  0  0  0  0  0  0  0  0
  161.2830  205.3600  148.9270 C   0  0  0  0  0  0  0  0  0  0  0  0
  161.2520  203.9940  148.6430 C   0  0  0  0  0  3  0  0  0  0  0  0
  162.7920  213.4850  144.7770 C   0  0  1  0  0  3  0  0  0  0  0  0
  163.4480  212.3200  146.8770 C   0  0  0  0  0  3  0  0  0  0  0  0
  160.7530  214.4230  147.7110 F   0  0  0  0  0  0  0  0  0  0  0  0
  163.4350  214.4520  143.3850 S   0  0  0  0  0  1  0  0  0  0  0  0
  163.9500  213.0180  145.6470 C   0  0  0  0  0  2  0  0  0  0  0  0
  161.2820  213.5480  146.7790 C   0  0  2  0  0  3  0  0  0  0  0  0
  162.2620  212.5950  147.4410 C   0  0  0  0  0  0  0  0  0  0  0  0
  161.8800  214.3570  145.6250 C   0  0  0  0  0  2  0  0  0  0  0  0
  1  8  1  0  0  0  0
  1 11  1  0  0  0  0
  2  7  1  0  0  0  0
  3  2  1  0  0  0  0
  3  9  1  0  0  0  0
  5  4  2  0  0  0  0
  6  9  2  0  0  0  0
  6 13  1  0  0  0  0
  7 19  1  0  0  0  0
  7 17  2  0  0  0  0
 10 14  2  0  0  0  0
 12 21  2  0  0  0  0
 12 22  1  0  0  0  0
 14 19  1  0  0  0  0
 15 10  1  0  0  0  0
 15  2  2  0  0  0  0
 16  5  1  0  0  0  0
 16 10  1  0  0  0  0
 17  1  1  0  0  0  0
 18  6  1  0  0  0  0
 19 20  1  1  0  0  0
 20  8  1  0  0  0  0
 21 15  1  0  0  0  0
 22  3  2  0  0  0  0
 23 22  1  0  0  0  0
 23 18  2  0  0  0  0
 24 27  1  6  0  0  0
 24 31  1  0  0  0  0
 24 28  1  0  0  0  0
 25 30  2  0  0  0  0
 28 25  1  0  0  0  0
 29 30  1  0  0  0  0
 29 26  1  1  0  0  0
 30  5  1  0  0  0  0
 31 29  1  0  0  0  0
M  END
>  <MODEL>
2

>  <REMARK>
 VINA RESULT:      -6.5      4.275      6.786
  Name = 
  1 active torsions:
  status: ('A' for Active; 'I' for Inactive)
    1  A    between atoms: C_9  and  C_22
                            x       y       z     vdW  Elec       q    Type
                         _______ _______ _______ _____ _____    ______ ____

>  <TORSDO>
F 1

$$$$
=
 OpenBabel11052422363D

 31 35  0  0  1  0  0  0  0  0999 V2000
  160.0410  209.6290  155.1270 N   0  0  0  0  0  0  0  0  0  0  0  0
  158.5180  212.5060  153.1550 C   0  0  0  0  0  0  0  0  0  0  0  0
  157.3800  212.9840  153.8580 C   0  0  0  0  0  0  0  0  0  0  0  0
  162.0780  211.8530  149.2300 O   0  0  0  0  0  0  0  0  0  0  0  0
  161.1240  212.5720  148.8250 C   0  0  0  0  0  0  0  0  0  0  0  0
  155.9160  213.0450  155.7900 C   0  0  0  0  0  0  0  0  0  0  0  0
  159.4550  211.4650  153.6640 C   0  0  0  0  0  0  0  0  0  0  0  0
  161.4280  209.6040  154.6740 C   0  0  0  0  0  2  0  0  0  0  0  0
  157.0430  212.5350  155.1430 C   0  0  0  0  0  3  0  0  0  0  0  0
  159.9580  212.5790  151.1050 C   0  0  0  0  0  0  0  0  0  0  0  0
  159.6120  208.6950  156.1490 C   0  0  0  0  0  1  0  0  0  0  0  0
  156.8730  214.4520  151.9940 C   0  0  0  0  0  3  0  0  0  0  0  0
  155.5610  212.5630  157.1490 C   0  0  0  0  0  1  0  0  0  0  0  0
  160.8450  211.7960  151.6510 N   0  0  0  0  0  0  0  0  0  0  0  0
  158.7960  213.0540  151.8830 C   0  0  0  0  0  0  0  0  0  0  0  0
  160.0690  212.9510  149.7240 N   0  0  0  0  0  2  0  0  0  0  0  0
  159.1190  210.6140  154.6440 C   0  0  0  0  0  3  0  0  0  0  0  0
  155.1420  213.9810  155.1780 N   0  0  0  0  0  0  0  0  0  0  0  0
  160.8470  211.4140  153.0630 C   0  0  2  0  0  3  0  0  0  0  0  0
  161.5030  210.0440  153.2180 C   0  0  0  0  0  2  0  0  0  0  0  0
  157.9700  213.9910  151.3430 N   0  0  0  0  0  0  0  0  0  0  0  0
  156.5590  213.9640  153.2580 C   0  0  0  0  0  0  0  0  0  0  0  0
  155.4400  214.4480  153.9370 C   0  0  0  0  0  3  0  0  0  0  0  0
  161.4810  213.3590  144.6100 C   0  0  1  0  0  3  0  0  0  0  0  0
  162.0760  213.8300  146.9800 C   0  0  0  0  0  3  0  0  0  0  0  0
  158.7890  212.5760  147.0140 F   0  0  0  0  0  0  0  0  0  0  0  0
  161.4520  214.0750  142.9440 S   0  0  0  0  0  1  0  0  0  0  0  0
  162.1460  214.3360  145.5690 C   0  0  0  0  0  2  0  0  0  0  0  0
  160.0560  212.4640  146.4690 C   0  0  2  0  0  3  0  0  0  0  0  0
  161.0960  213.0290  147.4210 C   0  0  0  0  0  0  0  0  0  0  0  0
  160.0570  213.1180  145.0850 C   0  0  0  0  0  2  0  0  0  0  0  0
  1 11  1  0  0  0  0
  2  7  1  0  0  0  0
  2  3  1  0  0  0  0
  3  9  1  0  0  0  0
  5  4  2  0  0  0  0
  5 16  1  0  0  0  0
  6 13  1  0  0  0  0
  7 17  2  0  0  0  0
  8  1  1  0  0  0  0
  9  6  2  0  0  0  0
 10 14  2  0  0  0  0
 10 15  1  0  0  0  0
 12 22  1  0  0  0  0
 14 19  1  0  0  0  0
 15  2  2  0  0  0  0
 16 10  1  0  0  0  0
 17  1  1  0  0  0  0
 18  6  1  0  0  0  0
 19 20  1  6  0  0  0
 19  7  1  0  0  0  0
 20  8  1  0  0  0  0
 21 15  1  0  0  0  0
 21 12  2  0  0  0  0
 22  3  2  0  0  0  0
 22 23  1  0  0  0  0
 23 18  2  0  0  0  0
 24 27  1  6  0  0  0
 24 31  1  0  0  0  0
 24 28  1  0  0  0  0
 25 30  2  0  0  0  0
 28 25  1  0  0  0  0
 29 26  1  1  0  0  0
 29 30  1  0  0  0  0
 30  5  1  0  0  0  0
 31 29  1  0  0  0  0
M  END
>  <MODEL>
3

>  <REMARK>
 VINA RESULT:      -5.5      6.975     10.431
  Name = 
  1 active torsions:
  status: ('A' for Active; 'I' for Inactive)
    1  A    between atoms: C_9  and  C_22
                            x       y       z     vdW  Elec       q    Type
                         _______ _______ _______ _____ _____    ______ ____

>  <TORSDO>
F 1

$$$$
=
 OpenBabel11052422363D

 31 35  0  0  1  0  0  0  0  0999 V2000
  160.1130  210.3280  154.3140 N   0  0  0  0  0  0  0  0  0  0  0  0
  161.2430  209.4660  150.7830 C   0  0  0  0  0  0  0  0  0  0  0  0
  161.3480  210.6690  150.0350 C   0  0  0  0  0  0  0  0  0  0  0  0
  161.0920  204.2440  151.8860 O   0  0  0  0  0  0  0  0  0  0  0  0
  161.1440  204.4150  150.6370 C   0  0  0  0  0  0  0  0  0  0  0  0
  161.3330  213.0850  149.8380 C   0  0  0  0  0  0  0  0  0  0  0  0
  160.9440  209.3960  152.2420 C   0  0  0  0  0  0  0  0  0  0  0  0
  160.5760  209.1920  155.1050 C   0  0  0  0  0  2  0  0  0  0  0  0
  161.2130  211.9360  150.6210 C   0  0  0  0  0  3  0  0  0  0  0  0
  161.3240  206.9610  150.8380 C   0  0  0  0  0  0  0  0  0  0  0  0
  159.4480  211.4320  154.9790 C   0  0  0  0  0  1  0  0  0  0  0  0
  161.7840  209.3620  148.0380 C   0  0  0  0  0  3  0  0  0  0  0  0
  161.1840  214.4250  150.4620 C   0  0  0  0  0  1  0  0  0  0  0  0
  161.2310  206.9460  152.1370 N   0  0  0  0  0  0  0  0  0  0  0  0
  161.4390  208.2410  150.1080 C   0  0  0  0  0  0  0  0  0  0  0  0
  161.2640  205.7380  150.0900 N   0  0  0  0  0  2  0  0  0  0  0  0
  160.3790  210.4120  152.9080 C   0  0  0  0  0  3  0  0  0  0  0  0
  161.5840  212.9820  148.5060 N   0  0  0  0  0  0  0  0  0  0  0  0
  161.3430  208.1340  152.9830 C   0  0  2  0  0  3  0  0  0  0  0  0
  160.5340  207.9250  154.2620 C   0  0  0  0  0  2  0  0  0  0  0  0
  161.6900  208.2250  148.7710 N   0  0  0  0  0  0  0  0  0  0  0  0
  161.6190  210.6000  148.6510 C   0  0  0  0  0  0  0  0  0  0  0  0
  161.7310  211.7730  147.9030 C   0  0  0  0  0  3  0  0  0  0  0  0
  161.6850  201.0480  148.0130 C   0  0  1  0  0  3  0  0  0  0  0  0
  161.1530  203.4470  148.4110 C   0  0  0  0  0  3  0  0  0  0  0  0
  160.1460  201.7150  151.3030 F   0  0  0  0  0  0  0  0  0  0  0  0
  161.4860  199.6870  146.8320 S   0  0  0  0  0  1  0  0  0  0  0  0
  161.1180  202.3260  147.4130 C   0  0  0  0  0  2  0  0  0  0  0  0
  161.1090  201.8460  150.3200 C   0  0  2  0  0  3  0  0  0  0  0  0
  161.0860  203.2480  149.7350 C   0  0  0  0  0  0  0  0  0  0  0  0
  160.9140  200.7350  149.2850 C   0  0  0  0  0  2  0  0  0  0  0  0
  1 11  1  0  0  0  0
  1  8  1  0  0  0  0
  2  7  1  0  0  0  0
  3  9  1  0  0  0  0
  3  2  2  0  0  0  0
  5  4  2  0  0  0  0
  6 13  1  0  0  0  0
  6  9  2  0  0  0  0
  7 17  2  0  0  0  0
  7 19  1  0  0  0  0
 10 14  2  0  0  0  0
 12 22  2  0  0  0  0
 12 21  1  0  0  0  0
 14 19  1  0  0  0  0
 15  2  1  0  0  0  0
 15 10  1  0  0  0  0
 16  5  1  0  0  0  0
 16 10  1  0  0  0  0
 17  1  1  0  0  0  0
 18  6  1  0  0  0  0
 19 20  1  1  0  0  0
 20  8  1  0  0  0  0
 21 15  2  0  0  0  0
 22  3  1  0  0  0  0
 23 18  2  0  0  0  0
 23 22  1  0  0  0  0
 24 27  1  6  0  0  0
 24 31  1  0  0  0  0
 25 30  2  0  0  0  0
 28 24  1  0  0  0  0
 28 25  1  0  0  0  0
 29 26  1  1  0  0  0
 30 29  1  0  0  0  0
 30  5  1  0  0  0  0
 31 29  1  0  0  0  0
M  END
>  <MODEL>
4

>  <REMARK>
 VINA RESULT:      -5.5      4.131      9.102
  Name = 
  1 active torsions:
  status: ('A' for Active; 'I' for Inactive)
    1  A    between atoms: C_9  and  C_22
                            x       y       z     vdW  Elec       q    Type
                         _______ _______ _______ _____ _____    ______ ____

>  <TORSDO>
F 1

$$$$
