=
 OpenBabel11062410283D

 43 48  0  0  1  0  0  0  0  0999 V2000
  161.6430  208.9180  147.9640 N   0  0  0  0  0  2  0  0  0  0  0  0
  161.1350  201.4320  148.1570 C   0  0  0  0  0  0  0  0  0  0  0  0
  161.5520  206.4590  148.5020 C   0  0  0  0  0  0  0  0  0  0  0  0
  160.7080  205.8660  150.7900 C   0  0  0  0  0  2  0  0  0  0  0  0
  161.5280  203.7750  147.6850 C   0  0  0  0  0  0  0  0  0  0  0  0
  160.7620  201.7540  149.4650 C   0  0  0  0  0  3  0  0  0  0  0  0
  161.1240  200.1090  147.7380 O   0  0  0  0  0  1  0  0  0  0  0  0
  161.1530  204.1090  149.0100 C   0  0  0  0  0  0  0  0  0  0  0  0
  161.5160  202.4410  147.2690 C   0  0  0  0  0  3  0  0  0  0  0  0
  160.7710  203.0840  149.8900 C   0  0  0  0  0  3  0  0  0  0  0  0
  161.4700  207.1160  151.2510 C   0  0  1  0  0  3  0  0  0  0  0  0
  161.1720  205.4560  149.4180 C   0  0  0  0  0  0  0  0  0  0  0  0
  161.9110  206.1130  147.1940 C   0  0  0  0  0  3  0  0  0  0  0  0
  161.5680  207.8710  148.9430 C   0  0  0  0  0  0  0  0  0  0  0  0
  161.4790  208.1490  150.2120 N   0  0  0  0  0  0  0  0  0  0  0  0
  161.9010  204.7780  146.7880 C   0  0  0  0  0  3  0  0  0  0  0  0
  162.5030  212.2940  149.3520 C   0  0  0  0  0  3  0  0  0  0  0  0
  161.9990  213.1550  148.2240 C   0  0  1  0  0  3  0  0  0  0  0  0
  160.8610  211.0950  147.3830 C   0  0  0  0  0  3  0  0  0  0  0  0
  162.3440  210.9680  149.3100 C   0  0  0  0  0  3  0  0  0  0  0  0
  161.6000  210.3320  148.1970 C   0  0  0  0  0  0  0  0  0  0  0  0
  160.7100  212.5720  147.6330 C   0  0  0  0  0  2  0  0  0  0  0  0
  160.5100  214.4030  149.2850 C   0  0  0  0  0  1  0  0  0  0  0  0
  161.7690  214.4530  148.6820 O   0  0  0  0  0  0  0  0  0  0  0  0
  160.9510  207.6870  152.5730 C   0  0  1  0  0  3  0  0  0  0  0  0
  161.0360  206.6700  153.7010 C   0  0  0  0  0  1  0  0  0  0  0  0
  161.6940  208.9560  152.9690 C   0  0  0  0  0  2  0  0  0  0  0  0
  159.1480  209.8300  153.0830 O   0  0  0  0  0  0  0  0  0  0  0  0
  160.5570  210.2840  153.3400 S   0  0  0  0  0  0  0  0  0  0  0  0
  160.8830  211.4480  152.4480 O   0  0  0  0  0  0  0  0  0  0  0  0
  160.7170  210.7570  155.0100 N   0  0  0  0  0  0  0  0  0  0  0  0
  160.3280  212.0760  155.4350 C   0  0  0  0  0  0  0  0  0  0  0  0
  160.8020  212.5650  156.4960 O   0  0  0  0  0  0  0  0  0  0  0  0
  160.5880  209.6800  157.2040 C   0  0  0  0  0  2  0  0  0  0  0  0
  161.4140  209.8670  155.9410 C   0  0  0  0  0  3  0  0  0  0  0  0
  160.6130  208.5940  156.1570 C   0  0  0  0  0  2  0  0  0  0  0  0
  159.3160  212.8690  154.6700 C   0  0  0  0  0  2  0  0  0  0  0  0
  157.9840  212.7910  155.3350 C   0  0  0  0  0  0  0  0  0  0  0  0
  156.2570  213.8090  156.6970 C   0  0  0  0  0  3  0  0  0  0  0  0
  155.9920  211.5360  155.9060 C   0  0  0  0  0  3  0  0  0  0  0  0
  155.5040  212.6320  156.6210 C   0  0  0  0  0  3  0  0  0  0  0  0
  157.2320  211.6140  155.2640 C   0  0  0  0  0  3  0  0  0  0  0  0
  157.4970  213.8880  156.0560 C   0  0  0  0  0  3  0  0  0  0  0  0
  1 21  1  0  0  0  0
  1 14  1  0  0  0  0
  2  6  1  0  0  0  0
  3 14  1  0  0  0  0
  3 12  1  0  0  0  0
  4 11  1  0  0  0  0
  5  8  1  0  0  0  0
  6 10  2  0  0  0  0
  7  2  1  0  0  0  0
  8 12  2  0  0  0  0
  8 10  1  0  0  0  0
  9  5  1  0  0  0  0
  9  2  2  0  0  0  0
 11 25  1  1  0  0  0
 12  4  1  0  0  0  0
 13  3  2  0  0  0  0
 14 15  2  0  0  0  0
 15 11  1  0  0  0  0
 16 13  1  0  0  0  0
 16  5  2  0  0  0  0
 18 24  1  1  0  0  0
 18 17  1  0  0  0  0
 19 22  1  0  0  0  0
 19 21  2  0  0  0  0
 20 17  2  0  0  0  0
 21 20  1  0  0  0  0
 22 18  1  0  0  0  0
 24 23  1  0  0  0  0
 25 27  1  0  0  0  0
 25 26  1  1  0  0  0
 27 29  1  0  0  0  0
 28 29  2  0  0  0  0
 29 31  1  0  0  0  0
 30 29  2  0  0  0  0
 31 32  1  0  0  0  0
 31 35  1  0  0  0  0
 32 33  2  0  0  0  0
 35 36  1  0  0  0  0
 35 34  1  0  0  0  0
 36 34  1  0  0  0  0
 37 38  1  0  0  0  0
 37 32  1  0  0  0  0
 38 43  1  0  0  0  0
 40 41  2  0  0  0  0
 41 39  1  0  0  0  0
 42 38  2  0  0  0  0
 42 40  1  0  0  0  0
 43 39  2  0  0  0  0
M  END
>  <MODEL>
1

>  <REMARK>
 VINA RESULT:      -7.7      0.000      0.000
  Name = 
  9 active torsions:
  status: ('A' for Active; 'I' for Inactive)
    1  A    between atoms: N_1  and  C_35
    2  A    between atoms: C_2  and  C_6
    3  A    between atoms: C_2  and  C_27
    4  A    between atoms: N_4  and  S_12
    5  A    between atoms: N_4  and  C_15
    6  A    between atoms: C_6  and  S_12
    7  A    between atoms: C_11  and  C_14
    8  A    between atoms: C_14  and  C_22
    9  A    between atoms: C_19  and  O_37
                            x       y       z     vdW  Elec       q    Type
                         _______ _______ _______ _____ _____    ______ ____

>  <TORSDO>
F 9

$$$$
=
 OpenBabel11062410283D

 43 48  0  0  1  0  0  0  0  0999 V2000
  159.3850  213.7940  149.7940 N   0  0  0  0  0  2  0  0  0  0  0  0
  155.6030  213.2720  156.2560 C   0  0  0  0  0  0  0  0  0  0  0  0
  158.2950  213.1700  151.9780 C   0  0  0  0  0  0  0  0  0  0  0  0
  159.5440  211.5190  153.3960 C   0  0  0  0  0  2  0  0  0  0  0  0
  156.4450  213.6850  154.0230 C   0  0  0  0  0  0  0  0  0  0  0  0
  156.6120  212.3290  156.4660 C   0  0  0  0  0  3  0  0  0  0  0  0
  154.6840  213.5400  157.2610 O   0  0  0  0  0  1  0  0  0  0  0  0
  157.4690  212.7290  154.2270 C   0  0  0  0  0  0  0  0  0  0  0  0
  155.5200  213.9500  155.0370 C   0  0  0  0  0  3  0  0  0  0  0  0
  157.5410  212.0580  155.4580 C   0  0  0  0  0  3  0  0  0  0  0  0
  159.9110  210.8520  152.0640 C   0  0  1  0  0  3  0  0  0  0  0  0
  158.3930  212.4690  153.1970 C   0  0  0  0  0  0  0  0  0  0  0  0
  157.2820  214.1190  151.7950 C   0  0  0  0  0  3  0  0  0  0  0  0
  159.2710  212.8880  150.9020 C   0  0  0  0  0  0  0  0  0  0  0  0
  160.0390  211.8410  150.9900 N   0  0  0  0  0  0  0  0  0  0  0  0
  156.3600  214.3730  152.8110 C   0  0  0  0  0  3  0  0  0  0  0  0
  162.6380  213.6630  147.9310 C   0  0  0  0  0  3  0  0  0  0  0  0
  162.1770  212.9430  146.6910 C   0  0  1  0  0  3  0  0  0  0  0  0
  159.8540  213.4040  147.4890 C   0  0  0  0  0  3  0  0  0  0  0  0
  161.7610  213.9890  148.8850 C   0  0  0  0  0  3  0  0  0  0  0  0
  160.3150  213.7220  148.7040 C   0  0  0  0  0  0  0  0  0  0  0  0
  160.7690  213.3990  146.2930 C   0  0  0  0  0  2  0  0  0  0  0  0
  162.3090  213.0260  144.4830 C   0  0  0  0  0  1  0  0  0  0  0  0
  163.0690  213.1800  145.6440 O   0  0  0  0  0  0  0  0  0  0  0  0
  161.1700  209.9850  152.1490 C   0  0  1  0  0  3  0  0  0  0  0  0
  161.9790  210.2840  153.4020 C   0  0  0  0  0  1  0  0  0  0  0  0
  160.8360  208.5010  152.0960 C   0  0  0  0  0  2  0  0  0  0  0  0
  163.1320  207.7760  150.8850 O   0  0  0  0  0  0  0  0  0  0  0  0
  161.6410  207.7040  150.7130 S   0  0  0  0  0  0  0  0  0  0  0  0
  161.2430  208.4230  149.4560 O   0  0  0  0  0  0  0  0  0  0  0  0
  161.1510  206.0340  150.6190 N   0  0  0  0  0  0  0  0  0  0  0  0
  161.2330  205.3190  149.3720 C   0  0  0  0  0  0  0  0  0  0  0  0
  160.5260  204.2920  149.1830 O   0  0  0  0  0  0  0  0  0  0  0  0
  161.3110  204.2460  152.2820 C   0  0  0  0  0  2  0  0  0  0  0  0
  160.4880  205.4170  151.7700 C   0  0  0  0  0  3  0  0  0  0  0  0
  161.3470  205.5640  153.0160 C   0  0  0  0  0  2  0  0  0  0  0  0
  162.1930  205.7340  148.3040 C   0  0  0  0  0  2  0  0  0  0  0  0
  161.6560  205.3880  146.9580 C   0  0  0  0  0  0  0  0  0  0  0  0
  160.2400  205.9200  145.0630 C   0  0  0  0  0  3  0  0  0  0  0  0
  161.4970  203.8510  145.0910 C   0  0  0  0  0  3  0  0  0  0  0  0
  160.6080  204.7180  144.4500 C   0  0  0  0  0  3  0  0  0  0  0  0
  162.0190  204.1840  146.3440 C   0  0  0  0  0  3  0  0  0  0  0  0
  160.7610  206.2540  146.3170 C   0  0  0  0  0  3  0  0  0  0  0  0
  1 14  1  0  0  0  0
  2  6  1  0  0  0  0
  2  7  1  0  0  0  0
  3 12  1  0  0  0  0
  5  8  1  0  0  0  0
  5  9  1  0  0  0  0
  8 10  1  0  0  0  0
  9  2  2  0  0  0  0
 10  6  2  0  0  0  0
 11 25  1  1  0  0  0
 11  4  1  0  0  0  0
 12  4  1  0  0  0  0
 12  8  2  0  0  0  0
 13  3  2  0  0  0  0
 13 16  1  0  0  0  0
 14 15  2  0  0  0  0
 14  3  1  0  0  0  0
 15 11  1  0  0  0  0
 16  5  2  0  0  0  0
 17 20  2  0  0  0  0
 18 24  1  6  0  0  0
 18 17  1  0  0  0  0
 19 21  2  0  0  0  0
 21 20  1  0  0  0  0
 21  1  1  0  0  0  0
 22 18  1  0  0  0  0
 22 19  1  0  0  0  0
 23 24  1  0  0  0  0
 25 26  1  1  0  0  0
 27 25  1  0  0  0  0
 29 28  2  0  0  0  0
 29 27  1  0  0  0  0
 30 29  2  0  0  0  0
 31 29  1  0  0  0  0
 31 35  1  0  0  0  0
 32 31  1  0  0  0  0
 33 32  2  0  0  0  0
 34 36  1  0  0  0  0
 35 34  1  0  0  0  0
 35 36  1  0  0  0  0
 37 32  1  0  0  0  0
 38 37  1  0  0  0  0
 39 43  1  0  0  0  0
 40 42  2  0  0  0  0
 41 39  2  0  0  0  0
 41 40  1  0  0  0  0
 42 38  1  0  0  0  0
 43 38  2  0  0  0  0
M  END
>  <MODEL>
2

>  <REMARK>
 VINA RESULT:      -7.5      2.652      9.194
  Name = 
  9 active torsions:
  status: ('A' for Active; 'I' for Inactive)
    1  A    between atoms: N_1  and  C_35
    2  A    between atoms: C_2  and  C_6
    3  A    between atoms: C_2  and  C_27
    4  A    between atoms: N_4  and  S_12
    5  A    between atoms: N_4  and  C_15
    6  A    between atoms: C_6  and  S_12
    7  A    between atoms: C_11  and  C_14
    8  A    between atoms: C_14  and  C_22
    9  A    between atoms: C_19  and  O_37
                            x       y       z     vdW  Elec       q    Type
                         _______ _______ _______ _____ _____    ______ ____

>  <TORSDO>
F 9

$$$$
=
 OpenBabel11062410283D

 43 48  0  0  1  0  0  0  0  0999 V2000
  161.5330  208.8720  148.2540 N   0  0  0  0  0  2  0  0  0  0  0  0
  160.8280  201.6680  150.2410 C   0  0  0  0  0  0  0  0  0  0  0  0
  161.4790  206.6010  149.3440 C   0  0  0  0  0  0  0  0  0  0  0  0
  161.1320  206.5840  151.8290 C   0  0  0  0  0  2  0  0  0  0  0  0
  161.1870  203.8160  149.1800 C   0  0  0  0  0  0  0  0  0  0  0  0
  160.7590  202.2920  151.4900 C   0  0  0  0  0  3  0  0  0  0  0  0
  160.6820  200.2920  150.1450 O   0  0  0  0  0  1  0  0  0  0  0  0
  161.1210  204.4560  150.4410 C   0  0  0  0  0  0  0  0  0  0  0  0
  161.0410  202.4280  149.0890 C   0  0  0  0  0  3  0  0  0  0  0  0
  160.9050  203.6780  151.5910 C   0  0  0  0  0  3  0  0  0  0  0  0
  162.0180  207.8370  151.8280 C   0  0  1  0  0  3  0  0  0  0  0  0
  161.2730  205.8530  150.5210 C   0  0  0  0  0  0  0  0  0  0  0  0
  161.5330  205.9540  148.1030 C   0  0  0  0  0  3  0  0  0  0  0  0
  161.6380  208.0690  149.4400 C   0  0  0  0  0  0  0  0  0  0  0  0
  161.8360  208.6200  150.6020 N   0  0  0  0  0  0  0  0  0  0  0  0
  161.3900  204.5690  148.0220 C   0  0  0  0  0  3  0  0  0  0  0  0
  160.6840  212.3820  147.2390 C   0  0  0  0  0  3  0  0  0  0  0  0
  161.2280  213.1170  148.4350 C   0  0  1  0  0  3  0  0  0  0  0  0
  162.3580  210.9690  149.0330 C   0  0  0  0  0  3  0  0  0  0  0  0
  160.8250  211.0560  147.1420 C   0  0  0  0  0  3  0  0  0  0  0  0
  161.5890  210.3020  148.1640 C   0  0  0  0  0  0  0  0  0  0  0  0
  162.5230  212.4620  148.9300 C   0  0  0  0  0  2  0  0  0  0  0  0
  162.3320  214.4040  147.0130 C   0  0  0  0  0  1  0  0  0  0  0  0
  161.4630  214.4530  148.1060 O   0  0  0  0  0  0  0  0  0  0  0  0
  161.8190  208.7190  153.0630 C   0  0  1  0  0  3  0  0  0  0  0  0
  162.0660  210.1880  152.7570 C   0  0  0  0  0  1  0  0  0  0  0  0
  160.4290  208.5460  153.6600 C   0  0  0  0  0  2  0  0  0  0  0  0
  161.7280  207.5050  155.7800 O   0  0  0  0  0  0  0  0  0  0  0  0
  160.5070  208.3090  155.4300 S   0  0  0  0  0  0  0  0  0  0  0  0
  159.2740  207.5680  155.8630 O   0  0  0  0  0  0  0  0  0  0  0  0
  160.5820  209.8540  156.2360 N   0  0  0  0  0  0  0  0  0  0  0  0
  159.7120  210.9280  155.8340 C   0  0  0  0  0  0  0  0  0  0  0  0
  160.0180  212.1220  156.0960 O   0  0  0  0  0  0  0  0  0  0  0  0
  162.9520  210.4180  156.4680 C   0  0  0  0  0  2  0  0  0  0  0  0
  161.6560  210.1070  157.1990 C   0  0  0  0  0  3  0  0  0  0  0  0
  162.1480  211.5400  157.0770 C   0  0  0  0  0  2  0  0  0  0  0  0
  158.4070  210.6550  155.1560 C   0  0  0  0  0  2  0  0  0  0  0  0
  158.1290  211.6950  154.1250 C   0  0  0  0  0  0  0  0  0  0  0  0
  156.8780  213.6360  153.3880 C   0  0  0  0  0  3  0  0  0  0  0  0
  158.5400  212.6440  151.9340 C   0  0  0  0  0  3  0  0  0  0  0  0
  157.5710  213.6220  152.1730 C   0  0  0  0  0  3  0  0  0  0  0  0
  158.8180  211.6800  152.9080 C   0  0  0  0  0  3  0  0  0  0  0  0
  157.1540  212.6730  154.3620 C   0  0  0  0  0  3  0  0  0  0  0  0
  1 14  1  0  0  0  0
  2  6  1  0  0  0  0
  3 14  1  0  0  0  0
  3 12  1  0  0  0  0
  5  8  1  0  0  0  0
  6 10  2  0  0  0  0
  7  2  1  0  0  0  0
  8 12  2  0  0  0  0
  8 10  1  0  0  0  0
  9  5  1  0  0  0  0
  9  2  2  0  0  0  0
 11  4  1  0  0  0  0
 11 25  1  1  0  0  0
 12  4  1  0  0  0  0
 13  3  2  0  0  0  0
 14 15  2  0  0  0  0
 15 11  1  0  0  0  0
 16 13  1  0  0  0  0
 16  5  2  0  0  0  0
 17 18  1  0  0  0  0
 18 24  1  6  0  0  0
 18 22  1  0  0  0  0
 20 17  2  0  0  0  0
 20 21  1  0  0  0  0
 21  1  1  0  0  0  0
 21 19  2  0  0  0  0
 22 19  1  0  0  0  0
 23 24  1  0  0  0  0
 25 26  1  6  0  0  0
 25 27  1  0  0  0  0
 27 29  1  0  0  0  0
 29 28  2  0  0  0  0
 29 30  2  0  0  0  0
 29 31  1  0  0  0  0
 31 35  1  0  0  0  0
 32 33  2  0  0  0  0
 32 31  1  0  0  0  0
 34 36  1  0  0  0  0
 34 35  1  0  0  0  0
 36 35  1  0  0  0  0
 37 32  1  0  0  0  0
 38 43  1  0  0  0  0
 38 37  1  0  0  0  0
 39 43  2  0  0  0  0
 40 41  2  0  0  0  0
 40 42  1  0  0  0  0
 41 39  1  0  0  0  0
 42 38  2  0  0  0  0
M  END
>  <MODEL>
3

>  <REMARK>
 VINA RESULT:      -7.3      1.662      2.418
  Name = 
  9 active torsions:
  status: ('A' for Active; 'I' for Inactive)
    1  A    between atoms: N_1  and  C_35
    2  A    between atoms: C_2  and  C_6
    3  A    between atoms: C_2  and  C_27
    4  A    between atoms: N_4  and  S_12
    5  A    between atoms: N_4  and  C_15
    6  A    between atoms: C_6  and  S_12
    7  A    between atoms: C_11  and  C_14
    8  A    between atoms: C_14  and  C_22
    9  A    between atoms: C_19  and  O_37
                            x       y       z     vdW  Elec       q    Type
                         _______ _______ _______ _____ _____    ______ ____

>  <TORSDO>
F 9

$$$$
=
 OpenBabel11062410283D

 43 48  0  0  1  0  0  0  0  0999 V2000
  161.0850  207.4750  153.2440 N   0  0  0  0  0  2  0  0  0  0  0  0
  161.5090  203.6540  146.7980 C   0  0  0  0  0  0  0  0  0  0  0  0
  161.1440  206.6220  150.8740 C   0  0  0  0  0  0  0  0  0  0  0  0
  161.9640  208.2440  149.1430 C   0  0  0  0  0  2  0  0  0  0  0  0
  161.1460  204.5020  149.0370 C   0  0  0  0  0  0  0  0  0  0  0  0
  161.8750  204.9320  146.3690 C   0  0  0  0  0  3  0  0  0  0  0  0
  161.5090  202.5950  145.9000 O   0  0  0  0  0  1  0  0  0  0  0  0
  161.5140  205.8000  148.6100 C   0  0  0  0  0  0  0  0  0  0  0  0
  161.1460  203.4380  148.1290 C   0  0  0  0  0  3  0  0  0  0  0  0
  161.8780  206.0010  147.2690 C   0  0  0  0  0  3  0  0  0  0  0  0
  161.2120  209.2980  149.9660 C   0  0  1  0  0  3  0  0  0  0  0  0
  161.5060  206.8630  149.5330 C   0  0  0  0  0  0  0  0  0  0  0  0
  160.7920  205.3300  151.2820 C   0  0  0  0  0  3  0  0  0  0  0  0
  161.1400  207.7470  151.8350 C   0  0  0  0  0  0  0  0  0  0  0  0
  161.2220  208.9690  151.3940 N   0  0  0  0  0  0  0  0  0  0  0  0
  160.7910  204.2760  150.3690 C   0  0  0  0  0  3  0  0  0  0  0  0
  161.7920  210.6480  155.1140 C   0  0  0  0  0  3  0  0  0  0  0  0
  160.7150  210.5540  156.1640 C   0  0  1  0  0  3  0  0  0  0  0  0
  160.4350  208.1830  155.4260 C   0  0  0  0  0  3  0  0  0  0  0  0
  161.9560  209.6610  154.2290 C   0  0  0  0  0  3  0  0  0  0  0  0
  161.1410  208.4250  154.3160 C   0  0  0  0  0  0  0  0  0  0  0  0
  160.5250  209.1020  156.6150 C   0  0  0  0  0  2  0  0  0  0  0  0
  160.0900  212.3730  157.2600 C   0  0  0  0  0  1  0  0  0  0  0  0
  161.0470  211.3550  157.2580 O   0  0  0  0  0  0  0  0  0  0  0  0
  161.7260  210.7220  149.7390 C   0  0  1  0  0  3  0  0  0  0  0  0
  162.9900  211.0010  150.5360 C   0  0  0  0  0  1  0  0  0  0  0  0
  161.9780  211.0010  148.2630 C   0  0  0  0  0  2  0  0  0  0  0  0
  162.3600  213.1050  146.6240 O   0  0  0  0  0  0  0  0  0  0  0  0
  161.5920  212.6960  147.8480 S   0  0  0  0  0  0  0  0  0  0  0  0
  161.9870  213.5680  149.0070 O   0  0  0  0  0  0  0  0  0  0  0  0
  159.8840  212.8600  147.5410 N   0  0  0  0  0  0  0  0  0  0  0  0
  159.0030  213.3580  148.5650 C   0  0  0  0  0  0  0  0  0  0  0  0
  157.7700  213.1020  148.5200 O   0  0  0  0  0  0  0  0  0  0  0  0
  159.0460  213.4480  145.3180 C   0  0  0  0  0  2  0  0  0  0  0  0
  159.3250  212.3210  146.3000 C   0  0  0  0  0  3  0  0  0  0  0  0
  160.2690  212.5830  145.1380 C   0  0  0  0  0  2  0  0  0  0  0  0
  159.5130  214.2350  149.6650 C   0  0  0  0  0  2  0  0  0  0  0  0
  159.0700  213.7160  150.9910 C   0  0  0  0  0  0  0  0  0  0  0  0
  157.5820  213.8400  152.9010 C   0  0  0  0  0  3  0  0  0  0  0  0
  159.3490  212.1840  152.8470 C   0  0  0  0  0  3  0  0  0  0  0  0
  158.2640  212.7750  153.5000 C   0  0  0  0  0  3  0  0  0  0  0  0
  159.7520  212.6550  151.5940 C   0  0  0  0  0  3  0  0  0  0  0  0
  157.9860  214.3110  151.6480 C   0  0  0  0  0  3  0  0  0  0  0  0
  1 21  1  0  0  0  0
  2  9  1  0  0  0  0
  3 13  1  0  0  0  0
  3 14  1  0  0  0  0
  4 12  1  0  0  0  0
  4 11  1  0  0  0  0
  5 16  1  0  0  0  0
  6  2  2  0  0  0  0
  6 10  1  0  0  0  0
  7  2  1  0  0  0  0
  8  5  1  0  0  0  0
  8 12  1  0  0  0  0
  9  5  2  0  0  0  0
 10  8  2  0  0  0  0
 11 25  1  1  0  0  0
 11 15  1  0  0  0  0
 12  3  2  0  0  0  0
 14  1  1  0  0  0  0
 15 14  2  0  0  0  0
 16 13  2  0  0  0  0
 17 18  1  0  0  0  0
 18 22  1  0  0  0  0
 18 24  1  1  0  0  0
 19 22  1  0  0  0  0
 20 21  1  0  0  0  0
 20 17  2  0  0  0  0
 21 19  2  0  0  0  0
 24 23  1  0  0  0  0
 25 26  1  1  0  0  0
 27 25  1  0  0  0  0
 28 29  2  0  0  0  0
 29 27  1  0  0  0  0
 29 30  2  0  0  0  0
 31 29  1  0  0  0  0
 31 32  1  0  0  0  0
 32 37  1  0  0  0  0
 33 32  2  0  0  0  0
 34 35  1  0  0  0  0
 35 31  1  0  0  0  0
 36 34  1  0  0  0  0
 36 35  1  0  0  0  0
 37 38  1  0  0  0  0
 38 42  2  0  0  0  0
 38 43  1  0  0  0  0
 39 41  1  0  0  0  0
 40 41  2  0  0  0  0
 42 40  1  0  0  0  0
 43 39  2  0  0  0  0
M  END
>  <MODEL>
4

>  <REMARK>
 VINA RESULT:      -7.1      2.297      6.049
  Name = 
  9 active torsions:
  status: ('A' for Active; 'I' for Inactive)
    1  A    between atoms: N_1  and  C_35
    2  A    between atoms: C_2  and  C_6
    3  A    between atoms: C_2  and  C_27
    4  A    between atoms: N_4  and  S_12
    5  A    between atoms: N_4  and  C_15
    6  A    between atoms: C_6  and  S_12
    7  A    between atoms: C_11  and  C_14
    8  A    between atoms: C_14  and  C_22
    9  A    between atoms: C_19  and  O_37
                            x       y       z     vdW  Elec       q    Type
                         _______ _______ _______ _____ _____    ______ ____

>  <TORSDO>
F 9

$$$$
=
 OpenBabel11062410283D

 43 48  0  0  1  0  0  0  0  0999 V2000
  161.0320  207.3850  152.9740 N   0  0  0  0  0  2  0  0  0  0  0  0
  161.6250  204.0380  146.2830 C   0  0  0  0  0  0  0  0  0  0  0  0
  161.1510  206.7050  150.5510 C   0  0  0  0  0  0  0  0  0  0  0  0
  162.0030  208.4490  148.9610 C   0  0  0  0  0  2  0  0  0  0  0  0
  161.2060  204.7220  148.5680 C   0  0  0  0  0  0  0  0  0  0  0  0
  161.9950  205.3450  145.9550 C   0  0  0  0  0  3  0  0  0  0  0  0
  161.6510  203.0460  145.3120 O   0  0  0  0  0  1  0  0  0  0  0  0
  161.5770  206.0490  148.2440 C   0  0  0  0  0  0  0  0  0  0  0  0
  161.2320  203.7260  147.5860 C   0  0  0  0  0  3  0  0  0  0  0  0
  161.9720  206.3460  146.9290 C   0  0  0  0  0  3  0  0  0  0  0  0
  161.2270  209.4400  149.8400 C   0  0  1  0  0  3  0  0  0  0  0  0
  161.5430  207.0430  149.2400 C   0  0  0  0  0  0  0  0  0  0  0  0
  160.7950  205.3860  150.8580 C   0  0  0  0  0  3  0  0  0  0  0  0
  161.1190  207.7580  151.5900 C   0  0  0  0  0  0  0  0  0  0  0  0
  161.2060  209.0090  151.2400 N   0  0  0  0  0  0  0  0  0  0  0  0
  160.8200  204.4000  149.8710 C   0  0  0  0  0  3  0  0  0  0  0  0
  161.6300  210.4380  155.0700 C   0  0  0  0  0  3  0  0  0  0  0  0
  160.5640  210.2280  156.1120 C   0  0  1  0  0  3  0  0  0  0  0  0
  160.3680  207.9080  155.2040 C   0  0  0  0  0  3  0  0  0  0  0  0
  161.8260  209.5250  154.1140 C   0  0  0  0  0  3  0  0  0  0  0  0
  161.0590  208.2570  154.1130 C   0  0  0  0  0  0  0  0  0  0  0  0
  160.4300  208.7400  156.4570 C   0  0  0  0  0  2  0  0  0  0  0  0
  160.9220  212.2880  156.8360 C   0  0  0  0  0  1  0  0  0  0  0  0
  160.8710  210.9590  157.2610 O   0  0  0  0  0  0  0  0  0  0  0  0
  161.7400  210.8770  149.7270 C   0  0  1  0  0  3  0  0  0  0  0  0
  163.1910  210.9960  150.1650 C   0  0  0  0  0  1  0  0  0  0  0  0
  161.5830  211.4220  148.3140 C   0  0  0  0  0  2  0  0  0  0  0  0
  162.7010  213.8620  148.0710 O   0  0  0  0  0  0  0  0  0  0  0  0
  161.3770  213.1980  148.3230 S   0  0  0  0  0  0  0  0  0  0  0  0
  160.8560  213.6070  149.6710 O   0  0  0  0  0  0  0  0  0  0  0  0
  160.2470  213.6730  147.0830 N   0  0  0  0  0  0  0  0  0  0  0  0
  160.6540  213.7150  145.7030 C   0  0  0  0  0  0  0  0  0  0  0  0
  160.0190  214.4240  144.8760 O   0  0  0  0  0  0  0  0  0  0  0  0
  157.8370  213.2580  147.0140 C   0  0  0  0  0  2  0  0  0  0  0  0
  158.9380  214.2010  147.4730 C   0  0  0  0  0  3  0  0  0  0  0  0
  158.2640  213.2630  148.4610 C   0  0  0  0  0  2  0  0  0  0  0  0
  161.7920  212.8800  145.2050 C   0  0  0  0  0  2  0  0  0  0  0  0
  161.7510  212.7780  143.7190 C   0  0  0  0  0  0  0  0  0  0  0  0
  160.7280  211.9040  141.7030 C   0  0  0  0  0  3  0  0  0  0  0  0
  162.6970  213.3040  141.5510 C   0  0  0  0  0  3  0  0  0  0  0  0
  161.6990  212.5480  140.9300 C   0  0  0  0  0  3  0  0  0  0  0  0
  162.7240  213.4180  142.9440 C   0  0  0  0  0  3  0  0  0  0  0  0
  160.7540  212.0170  143.0960 C   0  0  0  0  0  3  0  0  0  0  0  0
  1 21  1  0  0  0  0
  2  9  1  0  0  0  0
  3 13  1  0  0  0  0
  3 14  1  0  0  0  0
  4 12  1  0  0  0  0
  4 11  1  0  0  0  0
  5 16  1  0  0  0  0
  6  2  2  0  0  0  0
  6 10  1  0  0  0  0
  7  2  1  0  0  0  0
  8  5  1  0  0  0  0
  8 12  1  0  0  0  0
  9  5  2  0  0  0  0
 10  8  2  0  0  0  0
 11 25  1  1  0  0  0
 11 15  1  0  0  0  0
 12  3  2  0  0  0  0
 14  1  1  0  0  0  0
 15 14  2  0  0  0  0
 16 13  2  0  0  0  0
 17 18  1  0  0  0  0
 18 22  1  0  0  0  0
 18 24  1  1  0  0  0
 19 22  1  0  0  0  0
 20 17  2  0  0  0  0
 21 20  1  0  0  0  0
 21 19  2  0  0  0  0
 23 24  1  0  0  0  0
 25 26  1  6  0  0  0
 27 29  1  0  0  0  0
 27 25  1  0  0  0  0
 28 29  2  0  0  0  0
 29 30  2  0  0  0  0
 31 35  1  0  0  0  0
 31 29  1  0  0  0  0
 32 31  1  0  0  0  0
 33 32  2  0  0  0  0
 34 35  1  0  0  0  0
 34 36  1  0  0  0  0
 35 36  1  0  0  0  0
 37 32  1  0  0  0  0
 38 37  1  0  0  0  0
 39 43  2  0  0  0  0
 40 42  1  0  0  0  0
 41 40  2  0  0  0  0
 41 39  1  0  0  0  0
 42 38  2  0  0  0  0
 43 38  1  0  0  0  0
M  END
>  <MODEL>
5

>  <REMARK>
 VINA RESULT:      -6.9      2.846      8.149
  Name = 
  9 active torsions:
  status: ('A' for Active; 'I' for Inactive)
    1  A    between atoms: N_1  and  C_35
    2  A    between atoms: C_2  and  C_6
    3  A    between atoms: C_2  and  C_27
    4  A    between atoms: N_4  and  S_12
    5  A    between atoms: N_4  and  C_15
    6  A    between atoms: C_6  and  S_12
    7  A    between atoms: C_11  and  C_14
    8  A    between atoms: C_14  and  C_22
    9  A    between atoms: C_19  and  O_37
                            x       y       z     vdW  Elec       q    Type
                         _______ _______ _______ _____ _____    ______ ____

>  <TORSDO>
F 9

$$$$
=
 OpenBabel11062410283D

 43 48  0  0  1  0  0  0  0  0999 V2000
  161.1840  205.9290  149.2010 N   0  0  0  0  0  2  0  0  0  0  0  0
  161.0000  209.3310  155.8890 C   0  0  0  0  0  0  0  0  0  0  0  0
  161.3480  207.4320  151.2160 C   0  0  0  0  0  0  0  0  0  0  0  0
  161.2970  209.8990  150.7540 C   0  0  0  0  0  2  0  0  0  0  0  0
  161.1480  207.8430  153.9840 C   0  0  0  0  0  0  0  0  0  0  0  0
  161.0540  210.4360  155.0340 C   0  0  0  0  0  3  0  0  0  0  0  0
  160.8980  209.5200  157.2600 O   0  0  0  0  0  1  0  0  0  0  0  0
  161.2050  208.9570  153.1120 C   0  0  0  0  0  0  0  0  0  0  0  0
  161.0460  208.0370  155.3650 C   0  0  0  0  0  3  0  0  0  0  0  0
  161.1560  210.2510  153.6530 C   0  0  0  0  0  3  0  0  0  0  0  0
  162.1270  209.5490  149.5110 C   0  0  1  0  0  3  0  0  0  0  0  0
  161.3110  208.7480  151.7240 C   0  0  0  0  0  0  0  0  0  0  0  0
  161.2810  206.3420  152.0910 C   0  0  0  0  0  3  0  0  0  0  0  0
  161.4590  207.2250  149.7550 C   0  0  0  0  0  0  0  0  0  0  0  0
  161.7710  208.2280  148.9850 N   0  0  0  0  0  0  0  0  0  0  0  0
  161.1830  206.5460  153.4680 C   0  0  0  0  0  3  0  0  0  0  0  0
  160.7070  206.1690  145.4880 C   0  0  0  0  0  3  0  0  0  0  0  0
  161.7230  205.1470  145.0480 C   0  0  1  0  0  3  0  0  0  0  0  0
  161.8040  204.4400  147.4440 C   0  0  0  0  0  3  0  0  0  0  0  0
  160.4870  206.3810  146.7890 C   0  0  0  0  0  3  0  0  0  0  0  0
  161.1730  205.5610  147.8150 C   0  0  0  0  0  0  0  0  0  0  0  0
  161.7510  203.9610  146.0180 C   0  0  0  0  0  2  0  0  0  0  0  0
  161.5740  205.8300  142.9480 C   0  0  0  0  0  1  0  0  0  0  0  0
  161.4230  204.7030  143.7590 O   0  0  0  0  0  0  0  0  0  0  0  0
  162.0390  210.6070  148.4090 C   0  0  1  0  0  3  0  0  0  0  0  0
  160.9600  210.2760  147.3900 C   0  0  0  0  0  1  0  0  0  0  0  0
  161.7960  211.9970  148.9800 C   0  0  0  0  0  2  0  0  0  0  0  0
  163.3040  212.7520  146.8780 O   0  0  0  0  0  0  0  0  0  0  0  0
  162.2410  213.2690  147.8060 S   0  0  0  0  0  0  0  0  0  0  0  0
  162.7680  214.4520  148.5680 O   0  0  0  0  0  0  0  0  0  0  0  0
  160.8420  213.7390  146.8780 N   0  0  0  0  0  0  0  0  0  0  0  0
  160.8330  213.5900  145.4460 C   0  0  0  0  0  0  0  0  0  0  0  0
  160.0450  214.2780  144.7420 O   0  0  0  0  0  0  0  0  0  0  0  0
  158.5010  213.5830  147.5750 C   0  0  0  0  0  2  0  0  0  0  0  0
  159.7490  214.4520  147.5430 C   0  0  0  0  0  3  0  0  0  0  0  0
  159.3450  213.7280  148.8170 C   0  0  0  0  0  2  0  0  0  0  0  0
  161.7060  212.5830  144.7670 C   0  0  0  0  0  2  0  0  0  0  0  0
  161.4740  212.6010  143.2950 C   0  0  0  0  0  0  0  0  0  0  0  0
  160.1890  211.8960  141.3650 C   0  0  0  0  0  3  0  0  0  0  0  0
  162.1430  213.2960  141.0720 C   0  0  0  0  0  3  0  0  0  0  0  0
  161.0630  212.5970  140.5270 C   0  0  0  0  0  3  0  0  0  0  0  0
  162.3490  213.2970  142.4550 C   0  0  0  0  0  3  0  0  0  0  0  0
  160.3950  211.8970  142.7470 C   0  0  0  0  0  3  0  0  0  0  0  0
  1 14  1  0  0  0  0
  2  7  1  0  0  0  0
  3 12  2  0  0  0  0
  3 13  1  0  0  0  0
  4 12  1  0  0  0  0
  5  9  2  0  0  0  0
  6  2  2  0  0  0  0
  8 10  2  0  0  0  0
  8  5  1  0  0  0  0
  9  2  1  0  0  0  0
 10  6  1  0  0  0  0
 11 25  1  6  0  0  0
 11  4  1  0  0  0  0
 12  8  1  0  0  0  0
 13 16  2  0  0  0  0
 14  3  1  0  0  0  0
 15 11  1  0  0  0  0
 15 14  2  0  0  0  0
 16  5  1  0  0  0  0
 17 20  2  0  0  0  0
 18 24  1  6  0  0  0
 18 17  1  0  0  0  0
 18 22  1  0  0  0  0
 19 21  2  0  0  0  0
 20 21  1  0  0  0  0
 21  1  1  0  0  0  0
 22 19  1  0  0  0  0
 23 24  1  0  0  0  0
 25 26  1  6  0  0  0
 25 27  1  0  0  0  0
 28 29  2  0  0  0  0
 29 30  2  0  0  0  0
 29 27  1  0  0  0  0
 31 35  1  0  0  0  0
 31 29  1  0  0  0  0
 32 31  1  0  0  0  0
 33 32  2  0  0  0  0
 34 36  1  0  0  0  0
 35 34  1  0  0  0  0
 35 36  1  0  0  0  0
 37 32  1  0  0  0  0
 38 37  1  0  0  0  0
 39 43  2  0  0  0  0
 40 42  1  0  0  0  0
 41 40  2  0  0  0  0
 41 39  1  0  0  0  0
 42 38  2  0  0  0  0
 43 38  1  0  0  0  0
M  END
>  <MODEL>
6

>  <REMARK>
 VINA RESULT:      -6.7      3.158      9.202
  Name = 
  9 active torsions:
  status: ('A' for Active; 'I' for Inactive)
    1  A    between atoms: N_1  and  C_35
    2  A    between atoms: C_2  and  C_6
    3  A    between atoms: C_2  and  C_27
    4  A    between atoms: N_4  and  S_12
    5  A    between atoms: N_4  and  C_15
    6  A    between atoms: C_6  and  S_12
    7  A    between atoms: C_11  and  C_14
    8  A    between atoms: C_14  and  C_22
    9  A    between atoms: C_19  and  O_37
                            x       y       z     vdW  Elec       q    Type
                         _______ _______ _______ _____ _____    ______ ____

>  <TORSDO>
F 9

$$$$
=
 OpenBabel11062410283D

 43 48  0  0  1  0  0  0  0  0999 V2000
  161.4650  205.6380  148.9000 N   0  0  0  0  0  2  0  0  0  0  0  0
  160.9190  208.3300  155.8840 C   0  0  0  0  0  0  0  0  0  0  0  0
  161.5150  206.9250  151.0650 C   0  0  0  0  0  0  0  0  0  0  0  0
  161.4650  209.4260  150.8570 C   0  0  0  0  0  2  0  0  0  0  0  0
  161.1740  207.0470  153.8460 C   0  0  0  0  0  0  0  0  0  0  0  0
  161.0050  209.5170  155.1520 C   0  0  0  0  0  3  0  0  0  0  0  0
  160.7460  208.3760  157.2610 O   0  0  0  0  0  1  0  0  0  0  0  0
  161.2650  208.2450  153.0980 C   0  0  0  0  0  0  0  0  0  0  0  0
  161.0020  207.0970  155.2330 C   0  0  0  0  0  3  0  0  0  0  0  0
  161.1770  209.4760  153.7660 C   0  0  0  0  0  3  0  0  0  0  0  0
  162.3580  209.2100  149.6280 C   0  0  1  0  0  3  0  0  0  0  0  0
  161.4410  208.1810  151.7030 C   0  0  0  0  0  0  0  0  0  0  0  0
  161.4150  205.7500  151.8180 C   0  0  0  0  0  3  0  0  0  0  0  0
  161.7010  206.8710  149.5980 C   0  0  0  0  0  0  0  0  0  0  0  0
  162.0410  207.9480  148.9520 N   0  0  0  0  0  0  0  0  0  0  0  0
  161.2470  205.8100  153.2020 C   0  0  0  0  0  3  0  0  0  0  0  0
  162.6170  204.3260  145.5790 C   0  0  0  0  0  3  0  0  0  0  0  0
  161.3210  204.4260  144.8180 C   0  0  1  0  0  3  0  0  0  0  0  0
  160.5000  205.8160  146.7260 C   0  0  0  0  0  3  0  0  0  0  0  0
  162.6900  204.7580  146.8420 C   0  0  0  0  0  3  0  0  0  0  0  0
  161.5270  205.4150  147.4840 C   0  0  0  0  0  0  0  0  0  0  0  0
  160.5490  205.6850  145.2270 C   0  0  0  0  0  2  0  0  0  0  0  0
  161.9570  205.7620  143.1720 C   0  0  0  0  0  1  0  0  0  0  0  0
  161.5760  204.4470  143.4460 O   0  0  0  0  0  0  0  0  0  0  0  0
  162.3160  210.3760  148.6380 C   0  0  1  0  0  3  0  0  0  0  0  0
  161.3550  210.1100  147.4900 C   0  0  0  0  0  1  0  0  0  0  0  0
  161.9470  211.6840  149.3230 C   0  0  0  0  0  2  0  0  0  0  0  0
  162.4730  212.6540  146.8650 O   0  0  0  0  0  0  0  0  0  0  0  0
  161.7550  213.0070  148.1370 S   0  0  0  0  0  0  0  0  0  0  0  0
  162.3490  214.2570  148.7220 O   0  0  0  0  0  0  0  0  0  0  0  0
  160.0640  213.2600  147.7960 N   0  0  0  0  0  0  0  0  0  0  0  0
  159.1660  213.6870  148.8370 C   0  0  0  0  0  0  0  0  0  0  0  0
  157.9270  213.4790  148.7290 O   0  0  0  0  0  0  0  0  0  0  0  0
  159.3070  214.0930  145.6230 C   0  0  0  0  0  2  0  0  0  0  0  0
  159.5300  212.8650  146.4900 C   0  0  0  0  0  3  0  0  0  0  0  0
  160.5150  213.2200  145.3880 C   0  0  0  0  0  2  0  0  0  0  0  0
  159.6660  214.4320  150.0330 C   0  0  0  0  0  2  0  0  0  0  0  0
  159.1820  213.7890  151.2870 C   0  0  0  0  0  0  0  0  0  0  0  0
  159.3160  211.9960  152.9130 C   0  0  0  0  0  3  0  0  0  0  0  0
  157.6400  213.7260  153.1560 C   0  0  0  0  0  3  0  0  0  0  0  0
  158.2440  212.5540  153.6170 C   0  0  0  0  0  3  0  0  0  0  0  0
  158.1070  214.3430  151.9910 C   0  0  0  0  0  3  0  0  0  0  0  0
  159.7840  212.6120  151.7480 C   0  0  0  0  0  3  0  0  0  0  0  0
  1 14  1  0  0  0  0
  2  7  1  0  0  0  0
  3 12  2  0  0  0  0
  3 13  1  0  0  0  0
  4 12  1  0  0  0  0
  5  9  2  0  0  0  0
  6  2  2  0  0  0  0
  8 10  2  0  0  0  0
  8  5  1  0  0  0  0
  9  2  1  0  0  0  0
 10  6  1  0  0  0  0
 11 25  1  6  0  0  0
 11  4  1  0  0  0  0
 12  8  1  0  0  0  0
 13 16  2  0  0  0  0
 14  3  1  0  0  0  0
 15 14  2  0  0  0  0
 15 11  1  0  0  0  0
 16  5  1  0  0  0  0
 17 20  2  0  0  0  0
 18 24  1  6  0  0  0
 18 22  1  0  0  0  0
 18 17  1  0  0  0  0
 19 21  2  0  0  0  0
 20 21  1  0  0  0  0
 21  1  1  0  0  0  0
 22 19  1  0  0  0  0
 23 24  1  0  0  0  0
 25 26  1  6  0  0  0
 25 27  1  0  0  0  0
 28 29  2  0  0  0  0
 29 30  2  0  0  0  0
 29 27  1  0  0  0  0
 31 29  1  0  0  0  0
 31 32  1  0  0  0  0
 32 37  1  0  0  0  0
 33 32  2  0  0  0  0
 34 35  1  0  0  0  0
 35 31  1  0  0  0  0
 36 34  1  0  0  0  0
 36 35  1  0  0  0  0
 37 38  1  0  0  0  0
 38 43  2  0  0  0  0
 38 42  1  0  0  0  0
 39 41  2  0  0  0  0
 40 41  1  0  0  0  0
 42 40  2  0  0  0  0
 43 39  1  0  0  0  0
M  END
>  <MODEL>
7

>  <REMARK>
 VINA RESULT:      -6.1      2.810      7.139
  Name = 
  9 active torsions:
  status: ('A' for Active; 'I' for Inactive)
    1  A    between atoms: N_1  and  C_35
    2  A    between atoms: C_2  and  C_6
    3  A    between atoms: C_2  and  C_27
    4  A    between atoms: N_4  and  S_12
    5  A    between atoms: N_4  and  C_15
    6  A    between atoms: C_6  and  S_12
    7  A    between atoms: C_11  and  C_14
    8  A    between atoms: C_14  and  C_22
    9  A    between atoms: C_19  and  O_37
                            x       y       z     vdW  Elec       q    Type
                         _______ _______ _______ _____ _____    ______ ____

>  <TORSDO>
F 9

$$$$
=
 OpenBabel11062410283D

 43 48  0  0  1  0  0  0  0  0999 V2000
  160.8850  206.0150  153.4940 N   0  0  0  0  0  2  0  0  0  0  0  0
  161.0980  201.3340  147.6310 C   0  0  0  0  0  0  0  0  0  0  0  0
  160.9170  204.8470  151.2620 C   0  0  0  0  0  0  0  0  0  0  0  0
  161.9150  206.1430  149.3580 C   0  0  0  0  0  2  0  0  0  0  0  0
  160.7660  202.5060  149.7250 C   0  0  0  0  0  0  0  0  0  0  0  0
  161.5870  202.5060  147.0480 C   0  0  0  0  0  3  0  0  0  0  0  0
  161.0220  200.1670  146.8830 O   0  0  0  0  0  1  0  0  0  0  0  0
  161.2580  203.6980  149.1400 C   0  0  0  0  0  0  0  0  0  0  0  0
  160.6900  201.3330  148.9670 C   0  0  0  0  0  3  0  0  0  0  0  0
  161.6670  203.6830  147.7970 C   0  0  0  0  0  3  0  0  0  0  0  0
  161.2430  207.3600  150.0080 C   0  0  1  0  0  3  0  0  0  0  0  0
  161.3270  204.8730  149.9130 C   0  0  0  0  0  0  0  0  0  0  0  0
  160.4410  203.6580  151.8270 C   0  0  0  0  0  3  0  0  0  0  0  0
  160.9940  206.0880  152.0640 C   0  0  0  0  0  0  0  0  0  0  0  0
  161.1950  207.2280  151.4670 N   0  0  0  0  0  0  0  0  0  0  0  0
  160.3650  202.4940  151.0620 C   0  0  0  0  0  3  0  0  0  0  0  0
  161.5850  209.4330  154.8720 C   0  0  0  0  0  3  0  0  0  0  0  0
  160.6570  209.4090  156.0580 C   0  0  1  0  0  3  0  0  0  0  0  0
  160.4600  206.9520  155.6450 C   0  0  0  0  0  3  0  0  0  0  0  0
  161.7100  208.3540  154.0940 C   0  0  0  0  0  3  0  0  0  0  0  0
  161.0040  207.0940  154.4310 C   0  0  0  0  0  0  0  0  0  0  0  0
  160.6300  208.0160  156.6970 C   0  0  0  0  0  2  0  0  0  0  0  0
  160.0580  211.3290  156.9830 C   0  0  0  0  0  1  0  0  0  0  0  0
  161.0620  210.3580  156.9980 O   0  0  0  0  0  0  0  0  0  0  0  0
  161.8880  208.6900  149.6100 C   0  0  1  0  0  3  0  0  0  0  0  0
  162.5860  208.6000  148.2620 C   0  0  0  0  0  1  0  0  0  0  0  0
  160.8730  209.8250  149.5880 C   0  0  0  0  0  2  0  0  0  0  0  0
  162.6200  210.9240  151.3210 O   0  0  0  0  0  0  0  0  0  0  0  0
  161.1770  210.9940  150.9060 S   0  0  0  0  0  0  0  0  0  0  0  0
  160.2990  210.6330  152.0700 O   0  0  0  0  0  0  0  0  0  0  0  0
  160.8080  212.6100  150.3660 N   0  0  0  0  0  0  0  0  0  0  0  0
  161.5340  213.1950  149.2690 C   0  0  0  0  0  0  0  0  0  0  0  0
  161.5800  214.4480  149.1370 O   0  0  0  0  0  0  0  0  0  0  0  0
  158.6420  213.7480  150.3260 C   0  0  0  0  0  2  0  0  0  0  0  0
  159.8820  213.4310  151.1480 C   0  0  0  0  0  3  0  0  0  0  0  0
  158.5840  212.6790  151.3890 C   0  0  0  0  0  2  0  0  0  0  0  0
  162.1940  212.3410  148.2340 C   0  0  0  0  0  2  0  0  0  0  0  0
  161.5840  212.5800  146.8950 C   0  0  0  0  0  0  0  0  0  0  0  0
  161.7480  213.4520  144.6400 C   0  0  0  0  0  3  0  0  0  0  0  0
  159.6810  212.4480  145.4010 C   0  0  0  0  0  3  0  0  0  0  0  0
  160.4250  213.0720  144.3960 C   0  0  0  0  0  3  0  0  0  0  0  0
  160.2590  212.2040  146.6500 C   0  0  0  0  0  3  0  0  0  0  0  0
  162.3270  213.2090  145.8880 C   0  0  0  0  0  3  0  0  0  0  0  0
  1 21  1  0  0  0  0
  2  9  1  0  0  0  0
  3 13  1  0  0  0  0
  3 14  1  0  0  0  0
  4 12  1  0  0  0  0
  4 11  1  0  0  0  0
  5 16  1  0  0  0  0
  6  2  2  0  0  0  0
  6 10  1  0  0  0  0
  7  2  1  0  0  0  0
  8  5  1  0  0  0  0
  8 12  1  0  0  0  0
  9  5  2  0  0  0  0
 10  8  2  0  0  0  0
 11 25  1  1  0  0  0
 11 15  1  0  0  0  0
 12  3  2  0  0  0  0
 14  1  1  0  0  0  0
 15 14  2  0  0  0  0
 16 13  2  0  0  0  0
 17 18  1  0  0  0  0
 18 22  1  0  0  0  0
 18 24  1  1  0  0  0
 19 22  1  0  0  0  0
 20 21  1  0  0  0  0
 20 17  2  0  0  0  0
 21 19  2  0  0  0  0
 23 24  1  0  0  0  0
 25 26  1  6  0  0  0
 27 25  1  0  0  0  0
 27 29  1  0  0  0  0
 29 28  2  0  0  0  0
 29 30  2  0  0  0  0
 31 29  1  0  0  0  0
 31 35  1  0  0  0  0
 32 31  1  0  0  0  0
 33 32  2  0  0  0  0
 34 35  1  0  0  0  0
 34 36  1  0  0  0  0
 35 36  1  0  0  0  0
 37 32  1  0  0  0  0
 38 37  1  0  0  0  0
 39 43  1  0  0  0  0
 40 42  2  0  0  0  0
 41 39  2  0  0  0  0
 41 40  1  0  0  0  0
 42 38  1  0  0  0  0
 43 38  2  0  0  0  0
M  END
>  <MODEL>
8

>  <REMARK>
 VINA RESULT:      -6.1      2.168      6.593
  Name = 
  9 active torsions:
  status: ('A' for Active; 'I' for Inactive)
    1  A    between atoms: N_1  and  C_35
    2  A    between atoms: C_2  and  C_6
    3  A    between atoms: C_2  and  C_27
    4  A    between atoms: N_4  and  S_12
    5  A    between atoms: N_4  and  C_15
    6  A    between atoms: C_6  and  S_12
    7  A    between atoms: C_11  and  C_14
    8  A    between atoms: C_14  and  C_22
    9  A    between atoms: C_19  and  O_37
                            x       y       z     vdW  Elec       q    Type
                         _______ _______ _______ _____ _____    ______ ____

>  <TORSDO>
F 9

$$$$
=
 OpenBabel11062410283D

 43 48  0  0  1  0  0  0  0  0999 V2000
  161.6890  212.0510  149.6180 N   0  0  0  0  0  2  0  0  0  0  0  0
  160.7870  207.4370  155.4690 C   0  0  0  0  0  0  0  0  0  0  0  0
  161.2810  210.1710  151.2450 C   0  0  0  0  0  0  0  0  0  0  0  0
  161.8240  207.8650  150.4170 C   0  0  0  0  0  2  0  0  0  0  0  0
  160.8720  209.2480  153.8620 C   0  0  0  0  0  0  0  0  0  0  0  0
  161.1120  206.5240  154.4620 C   0  0  0  0  0  3  0  0  0  0  0  0
  160.5850  206.9940  156.7680 O   0  0  0  0  0  1  0  0  0  0  0  0
  161.1990  208.3280  152.8360 C   0  0  0  0  0  0  0  0  0  0  0  0
  160.6680  208.7970  155.1690 C   0  0  0  0  0  3  0  0  0  0  0  0
  161.3170  206.9650  153.1530 C   0  0  0  0  0  3  0  0  0  0  0  0
  161.2730  208.3610  149.0730 C   0  0  1  0  0  3  0  0  0  0  0  0
  161.3990  208.7940  151.5230 C   0  0  0  0  0  0  0  0  0  0  0  0
  160.9660  211.0690  152.2720 C   0  0  0  0  0  3  0  0  0  0  0  0
  161.4940  210.6490  149.8610 C   0  0  0  0  0  0  0  0  0  0  0  0
  161.5350  209.7910  148.8830 N   0  0  0  0  0  0  0  0  0  0  0  0
  160.7610  210.6090  153.5730 C   0  0  0  0  0  3  0  0  0  0  0  0
  163.4680  212.9460  146.4390 C   0  0  0  0  0  3  0  0  0  0  0  0
  162.2870  213.3960  145.6200 C   0  0  1  0  0  3  0  0  0  0  0  0
  161.0080  213.3930  147.7670 C   0  0  0  0  0  3  0  0  0  0  0  0
  163.3030  212.5780  147.7130 C   0  0  0  0  0  3  0  0  0  0  0  0
  161.9750  212.6840  148.3630 C   0  0  0  0  0  0  0  0  0  0  0  0
  161.2790  214.1500  146.4940 C   0  0  0  0  0  2  0  0  0  0  0  0
  163.0810  213.3310  143.5550 C   0  0  0  0  0  1  0  0  0  0  0  0
  162.7180  214.2140  144.5740 O   0  0  0  0  0  0  0  0  0  0  0  0
  161.7850  207.5570  147.8760 C   0  0  1  0  0  3  0  0  0  0  0  0
  162.9520  206.6590  148.2560 C   0  0  0  0  0  1  0  0  0  0  0  0
  160.6800  206.7230  147.2430 C   0  0  0  0  0  2  0  0  0  0  0  0
  162.7200  206.1730  145.5700 O   0  0  0  0  0  0  0  0  0  0  0  0
  161.2800  205.8250  145.8180 S   0  0  0  0  0  0  0  0  0  0  0  0
  160.4530  206.2220  144.6280 O   0  0  0  0  0  0  0  0  0  0  0  0
  161.1370  204.1090  146.0910 N   0  0  0  0  0  0  0  0  0  0  0  0
  161.2090  203.5750  147.4260 C   0  0  0  0  0  0  0  0  0  0  0  0
  161.5180  202.3670  147.6090 O   0  0  0  0  0  0  0  0  0  0  0  0
  160.3120  201.9580  145.2670 C   0  0  0  0  0  2  0  0  0  0  0  0
  161.1250  203.2010  144.9420 C   0  0  0  0  0  3  0  0  0  0  0  0
  159.7110  203.0430  144.4090 C   0  0  0  0  0  2  0  0  0  0  0  0
  160.8610  204.4140  148.6150 C   0  0  0  0  0  2  0  0  0  0  0  0
  160.9290  203.6010  149.8620 C   0  0  0  0  0  0  0  0  0  0  0  0
  161.2040  203.4670  152.2670 C   0  0  0  0  0  3  0  0  0  0  0  0
  160.9160  201.4440  150.9670 C   0  0  0  0  0  3  0  0  0  0  0  0
  161.1010  202.0740  152.2010 C   0  0  0  0  0  3  0  0  0  0  0  0
  160.8310  202.2070  149.7990 C   0  0  0  0  0  3  0  0  0  0  0  0
  161.1190  204.2300  151.0990 C   0  0  0  0  0  3  0  0  0  0  0  0
  1 14  1  0  0  0  0
  2  7  1  0  0  0  0
  3 12  2  0  0  0  0
  3 13  1  0  0  0  0
  4 12  1  0  0  0  0
  5  9  2  0  0  0  0
  6  2  2  0  0  0  0
  8 10  2  0  0  0  0
  8  5  1  0  0  0  0
  9  2  1  0  0  0  0
 10  6  1  0  0  0  0
 11 25  1  6  0  0  0
 11  4  1  0  0  0  0
 12  8  1  0  0  0  0
 13 16  2  0  0  0  0
 14  3  1  0  0  0  0
 15 11  1  0  0  0  0
 15 14  2  0  0  0  0
 16  5  1  0  0  0  0
 17 20  2  0  0  0  0
 18 24  1  6  0  0  0
 18 17  1  0  0  0  0
 18 22  1  0  0  0  0
 19 21  2  0  0  0  0
 20 21  1  0  0  0  0
 21  1  1  0  0  0  0
 22 19  1  0  0  0  0
 23 24  1  0  0  0  0
 25 26  1  1  0  0  0
 27 25  1  0  0  0  0
 28 29  2  0  0  0  0
 29 31  1  0  0  0  0
 29 27  1  0  0  0  0
 30 29  2  0  0  0  0
 31 32  1  0  0  0  0
 32 33  2  0  0  0  0
 32 37  1  0  0  0  0
 35 34  1  0  0  0  0
 35 31  1  0  0  0  0
 36 35  1  0  0  0  0
 36 34  1  0  0  0  0
 37 38  1  0  0  0  0
 38 43  1  0  0  0  0
 40 41  2  0  0  0  0
 41 39  1  0  0  0  0
 42 38  2  0  0  0  0
 42 40  1  0  0  0  0
 43 39  2  0  0  0  0
M  END
>  <MODEL>
9

>  <REMARK>
 VINA RESULT:      -6.0      3.265      8.471
  Name = 
  9 active torsions:
  status: ('A' for Active; 'I' for Inactive)
    1  A    between atoms: N_1  and  C_35
    2  A    between atoms: C_2  and  C_6
    3  A    between atoms: C_2  and  C_27
    4  A    between atoms: N_4  and  S_12
    5  A    between atoms: N_4  and  C_15
    6  A    between atoms: C_6  and  S_12
    7  A    between atoms: C_11  and  C_14
    8  A    between atoms: C_14  and  C_22
    9  A    between atoms: C_19  and  O_37
                            x       y       z     vdW  Elec       q    Type
                         _______ _______ _______ _____ _____    ______ ____

>  <TORSDO>
F 9

$$$$
