=
 OpenBabel11062408523D

 55 63  0  0  1  0  0  0  0  0999 V2000
  159.8480  212.1510  140.1080 C   0  0  0  0  0  0  0  0  0  0  0  0
  158.7690  213.1770  144.3680 C   0  0  0  0  0  3  0  0  0  0  0  0
  155.4880  214.3820  142.4290 C   0  0  0  0  0  2  0  0  0  0  0  0
  161.4230  214.3570  146.1140 C   0  0  0  0  0  2  0  0  0  0  0  0
  160.2440  213.3910  146.3320 C   0  0  2  0  0  3  0  0  0  0  0  0
  153.8520  213.9070  139.9890 C   0  0  0  0  0  2  0  0  0  0  0  0
  158.3140  209.6190  137.6520 C   0  0  0  0  0  2  0  0  0  0  0  0
  152.5220  213.2360  139.6620 C   0  0  0  0  0  2  0  0  0  0  0  0
  154.9420  211.9370  138.8360 C   0  0  0  0  0  0  0  0  0  0  0  0
  153.6250  211.5120  138.2450 C   0  0  0  0  0  2  0  0  0  0  0  0
  156.4270  214.4530  141.3470 C   0  0  1  0  0  3  0  0  0  0  0  0
  152.5980  212.6410  138.2620 C   0  0  0  0  0  2  0  0  0  0  0  0
  162.2800  212.7550  139.9340 C   0  0  0  0  0  3  0  0  0  0  0  0
  155.0420  212.9980  139.7640 C   0  0  0  0  0  0  0  0  0  0  0  0
  162.4320  213.0470  142.7160 C   0  0  0  0  0  0  0  0  0  0  0  0
  158.7040  212.8620  140.4860 C   0  0  0  0  0  3  0  0  0  0  0  0
  161.2230  212.6840  142.1160 C   0  0  0  0  0  3  0  0  0  0  0  0
  160.7760  209.3630  137.6460 C   0  0  2  0  0  3  0  0  0  0  0  0
  157.3200  211.4830  139.0570 C   0  0  0  0  0  0  0  0  0  0  0  0
  159.7310  211.0790  139.1950 C   0  0  0  0  0  0  0  0  0  0  0  0
  158.9800  213.9050  145.6530 C   0  0  0  0  0  2  0  0  0  0  0  0
  156.0670  211.1840  138.5130 C   0  0  0  0  0  3  0  0  0  0  0  0
  157.8400  213.5660  143.5470 C   0  0  0  0  0  0  0  0  0  0  0  0
  160.9370  210.2160  138.9020 C   0  0  0  0  0  2  0  0  0  0  0  0
  156.9160  213.9770  142.7270 C   0  0  0  0  0  0  0  0  0  0  0  0
  163.4890  213.1260  140.5330 C   0  0  0  0  0  3  0  0  0  0  0  0
  161.1380  212.5290  140.7240 C   0  0  0  0  0  0  0  0  0  0  0  0
  156.2910  213.2870  140.3770 C   0  0  0  0  0  0  0  0  0  0  0  0
  159.4510  208.6150  137.7120 C   0  0  0  0  0  2  0  0  0  0  0  0
  157.4380  212.5480  139.9820 C   0  0  0  0  0  0  0  0  0  0  0  0
  161.8050  214.4530  144.6430 C   0  0  0  0  0  2  0  0  0  0  0  0
  158.4560  210.7310  138.6810 C   0  0  0  0  0  0  0  0  0  0  0  0
  162.5090  213.1860  144.1980 C   0  0  0  0  0  2  0  0  0  0  0  0
  163.5650  213.2720  141.9240 C   0  0  0  0  0  3  0  0  0  0  0  0
  161.9550  208.4440  137.4890 C   0  0  0  0  0  0  0  0  0  0  0  0
  163.1860  208.9560  137.4800 C   0  0  0  0  0  2  0  0  0  0  0  0
  161.7920  206.9610  137.3130 C   0  0  0  0  0  1  0  0  0  0  0  0
  161.0540  212.2810  148.5150 C   0  0  0  0  0  2  0  0  0  0  0  0
  160.8540  213.7670  148.7600 C   0  0  1  0  0  3  0  0  0  0  0  0
  159.9350  213.0210  147.7990 C   0  0  1  0  0  3  0  0  0  0  0  0
  160.1800  213.9690  150.1120 C   0  0  0  0  0  2  0  0  0  0  0  0
  157.4560  211.3910  153.2480 C   0  0  0  0  0  1  0  0  0  0  0  0
  159.5560  212.6930  150.6740 C   0  0  2  0  0  3  0  0  0  0  0  0
  157.4620  213.6260  151.3550 O   0  0  0  0  0  0  0  0  0  0  0  0
  158.4530  212.9650  151.6410 C   0  0  0  0  0  0  0  0  0  0  0  0
  158.6390  212.3130  152.9700 C   0  0  2  0  0  0  0  0  0  0  0  0
  160.6070  211.9620  151.5010 C   0  0  0  0  0  2  0  0  0  0  0  0
  159.8950  211.4440  152.7550 C   0  0  1  0  0  3  0  0  0  0  0  0
  158.2670  213.1360  155.3630 N   0  0  0  0  0  2  0  0  0  0  0  0
  158.3600  214.1180  156.4230 C   0  0  0  0  0  1  0  0  0  0  0  0
  158.7950  213.3670  154.0530 C   0  0  0  0  0  0  0  0  0  0  0  0
  159.4380  214.4280  153.8160 O   0  0  0  0  0  0  0  0  0  0  0  0
  160.8500  211.3280  153.9510 C   0  0  0  0  0  3  0  0  0  0  0  0
  162.0270  210.6670  153.5710 O   0  0  0  0  0  1  0  0  0  0  0  0
  160.2330  210.6130  154.9810 O   0  0  0  0  0  1  0  0  0  0  0  0
  1 16  1  0  0  0  0
  1 27  1  0  0  0  0
  2 21  1  0  0  0  0
  3 25  1  0  0  0  0
  4  5  1  0  0  0  0
  5 21  1  1  0  0  0
  5 40  1  0  0  0  0
  7 29  1  0  0  0  0
  7 32  1  0  0  0  0
  8  6  1  0  0  0  0
  9 14  1  0  0  0  0
 10 12  1  0  0  0  0
 10  9  1  0  0  0  0
 11  3  1  1  0  0  0
 11 25  1  0  0  0  0
 12  8  1  0  0  0  0
 13 26  2  0  0  0  0
 13 27  1  0  0  0  0
 14  6  1  0  0  0  0
 14 28  2  0  0  0  0
 15 33  1  0  0  0  0
 17 15  1  0  0  0  0
 18 35  1  1  0  0  0
 18 29  1  0  0  0  0
 18 24  1  0  0  0  0
 19 30  1  0  0  0  0
 20  1  2  0  0  0  0
 22  9  2  0  0  0  0
 22 19  1  0  0  0  0
 23  2  2  0  0  0  0
 24 20  1  0  0  0  0
 25 23  2  0  0  0  0
 26 34  1  0  0  0  0
 27 17  2  0  0  0  0
 28 11  1  0  0  0  0
 30 28  1  0  0  0  0
 30 16  2  0  0  0  0
 31  4  1  0  0  0  0
 32 19  2  0  0  0  0
 32 20  1  0  0  0  0
 33 31  1  0  0  0  0
 34 15  2  0  0  0  0
 36 35  2  0  0  0  0
 37 35  1  0  0  0  0
 38 39  1  0  0  0  0
 39 41  1  1  0  0  0
 40 38  1  6  0  0  0
 40 39  1  0  0  0  0
 43 41  1  1  0  0  0
 43 47  1  0  0  0  0
 43 45  1  0  0  0  0
 44 45  2  0  0  0  0
 45 46  1  0  0  0  0
 46 42  1  1  0  0  0
 46 51  1  0  0  0  0
 47 48  1  0  0  0  0
 48 46  1  0  0  0  0
 48 53  1  1  0  0  0
 49 50  1  0  0  0  0
 51 49  1  0  0  0  0
 52 51  2  0  0  0  0
 53 55  1  0  0  0  0
 54 53  1  0  0  0  0
M  END
>  <MODEL>
1

>  <REMARK>
 VINA RESULT:      -1.2      0.000      0.000
  Name = 
  6 active torsions:
  status: ('A' for Active; 'I' for Inactive)
    1  A    between atoms: C_1  and  C_53
    2  A    between atoms: C_6  and  C_20
    3  A    between atoms: C_8  and  C_43
    4  A    between atoms: C_10  and  C_32
    5  A    between atoms: C_20  and  C_42
    6  A    between atoms: C_29  and  C_38
                            x       y       z     vdW  Elec       q    Type
                         _______ _______ _______ _____ _____    ______ ____

>  <TORSDO>
F 6

$$$$
=
 OpenBabel11062408523D

 55 63  0  0  1  0  0  0  0  0999 V2000
  160.4820  213.3730  141.7090 C   0  0  0  0  0  0  0  0  0  0  0  0
  159.6260  212.2120  145.9850 C   0  0  0  0  0  3  0  0  0  0  0  0
  156.1180  213.7870  144.8950 C   0  0  0  0  0  2  0  0  0  0  0  0
  162.2820  212.7580  148.0180 C   0  0  0  0  0  2  0  0  0  0  0  0
  161.2140  211.6720  147.7920 C   0  0  2  0  0  3  0  0  0  0  0  0
  154.3600  214.2950  142.5490 C   0  0  0  0  0  2  0  0  0  0  0  0
  159.0100  212.0840  138.3970 C   0  0  0  0  0  2  0  0  0  0  0  0
  153.0760  213.7020  141.9800 C   0  0  0  0  0  2  0  0  0  0  0  0
  155.5370  213.2070  140.5920 C   0  0  0  0  0  0  0  0  0  0  0  0
  154.2240  212.9520  139.9020 C   0  0  0  0  0  2  0  0  0  0  0  0
  156.9660  214.4500  143.9470 C   0  0  1  0  0  3  0  0  0  0  0  0
  153.1030  213.8240  140.4610 C   0  0  0  0  0  2  0  0  0  0  0  0
  162.8310  214.2610  141.7780 C   0  0  0  0  0  3  0  0  0  0  0  0
  155.6070  213.7310  141.9020 C   0  0  0  0  0  0  0  0  0  0  0  0
  163.1560  213.2670  144.3770 C   0  0  0  0  0  0  0  0  0  0  0  0
  159.3090  213.6980  142.3970 C   0  0  0  0  0  3  0  0  0  0  0  0
  161.9450  213.0830  143.7040 C   0  0  0  0  0  3  0  0  0  0  0  0
  161.4780  212.1410  138.2170 C   0  0  2  0  0  3  0  0  0  0  0  0
  157.9550  212.9750  140.5250 C   0  0  0  0  0  0  0  0  0  0  0  0
  160.3970  212.8290  140.4070 C   0  0  0  0  0  0  0  0  0  0  0  0
  159.8630  212.2920  147.4550 C   0  0  0  0  0  2  0  0  0  0  0  0
  156.6990  212.8170  139.9340 C   0  0  0  0  0  3  0  0  0  0  0  0
  158.6090  212.8240  145.4560 C   0  0  0  0  0  0  0  0  0  0  0  0
  161.6510  212.3380  139.7210 C   0  0  0  0  0  2  0  0  0  0  0  0
  157.5950  213.4560  144.9400 C   0  0  0  0  0  0  0  0  0  0  0  0
  164.0420  214.4530  142.4530 C   0  0  0  0  0  3  0  0  0  0  0  0
  161.7740  213.5710  142.4000 C   0  0  0  0  0  0  0  0  0  0  0  0
  156.8660  213.8480  142.5520 C   0  0  0  0  0  0  0  0  0  0  0  0
  160.2340  211.3000  137.9610 C   0  0  0  0  0  2  0  0  0  0  0  0
  158.0430  213.5060  141.8340 C   0  0  0  0  0  0  0  0  0  0  0  0
  162.5470  213.5570  146.7490 C   0  0  0  0  0  2  0  0  0  0  0  0
  159.1250  212.6120  139.8190 C   0  0  0  0  0  0  0  0  0  0  0  0
  163.3270  212.7220  145.7530 C   0  0  0  0  0  2  0  0  0  0  0  0
  164.2040  213.9550  143.7520 C   0  0  0  0  0  3  0  0  0  0  0  0
  162.7210  211.5350  137.6280 C   0  0  0  0  0  0  0  0  0  0  0  0
  162.6450  210.3560  137.0110 C   0  0  0  0  0  2  0  0  0  0  0  0
  164.0620  212.2060  137.7340 C   0  0  0  0  0  1  0  0  0  0  0  0
  162.3500  210.1670  149.5520 C   0  0  0  0  0  2  0  0  0  0  0  0
  161.5090  211.2140  150.2640 C   0  0  1  0  0  3  0  0  0  0  0  0
  161.0470  210.6410  148.9290 C   0  0  1  0  0  3  0  0  0  0  0  0
  160.7680  210.5610  151.4240 C   0  0  0  0  0  2  0  0  0  0  0  0
  161.5690  211.1680  156.2090 C   0  0  0  0  0  1  0  0  0  0  0  0
  160.8440  211.3660  152.7210 C   0  0  2  0  0  3  0  0  0  0  0  0
  162.7350  210.2590  153.6810 O   0  0  0  0  0  0  0  0  0  0  0  0
  161.5810  210.6500  153.8030 C   0  0  0  0  0  0  0  0  0  0  0  0
  160.8030  210.5040  155.0690 C   0  0  2  0  0  0  0  0  0  0  0  0
  159.4340  211.5310  153.2740 C   0  0  0  0  0  2  0  0  0  0  0  0
  159.5300  211.3290  154.7890 C   0  0  1  0  0  3  0  0  0  0  0  0
  160.0300  208.6290  156.6270 N   0  0  0  0  0  2  0  0  0  0  0  0
  159.7870  207.2410  156.9620 C   0  0  0  0  0  1  0  0  0  0  0  0
  160.5370  209.0350  155.3520 C   0  0  0  0  0  0  0  0  0  0  0  0
  160.7110  208.1740  154.4450 O   0  0  0  0  0  0  0  0  0  0  0  0
  158.2250  210.7790  155.3800 C   0  0  0  0  0  3  0  0  0  0  0  0
  157.1260  211.2440  154.6430 O   0  0  0  0  0  1  0  0  0  0  0  0
  158.0960  211.1940  156.7080 O   0  0  0  0  0  1  0  0  0  0  0  0
  1 16  1  0  0  0  0
  1 27  1  0  0  0  0
  2 21  1  0  0  0  0
  3 25  1  0  0  0  0
  5 21  1  1  0  0  0
  5  4  1  0  0  0  0
  5 40  1  0  0  0  0
  7 32  1  0  0  0  0
  8  6  1  0  0  0  0
  9 14  1  0  0  0  0
 10 12  1  0  0  0  0
 10  9  1  0  0  0  0
 11  3  1  1  0  0  0
 11 25  1  0  0  0  0
 12  8  1  0  0  0  0
 13 27  2  0  0  0  0
 13 26  1  0  0  0  0
 14  6  1  0  0  0  0
 14 28  2  0  0  0  0
 15 33  1  0  0  0  0
 17 15  2  0  0  0  0
 18 35  1  1  0  0  0
 18 24  1  0  0  0  0
 19 30  1  0  0  0  0
 20  1  2  0  0  0  0
 22 19  1  0  0  0  0
 22  9  2  0  0  0  0
 23  2  2  0  0  0  0
 24 20  1  0  0  0  0
 25 23  2  0  0  0  0
 26 34  2  0  0  0  0
 27 17  1  0  0  0  0
 28 11  1  0  0  0  0
 29 18  1  0  0  0  0
 29  7  1  0  0  0  0
 30 16  2  0  0  0  0
 30 28  1  0  0  0  0
 31  4  1  0  0  0  0
 32 20  1  0  0  0  0
 32 19  2  0  0  0  0
 33 31  1  0  0  0  0
 34 15  1  0  0  0  0
 35 37  1  0  0  0  0
 36 35  2  0  0  0  0
 38 39  1  0  0  0  0
 39 41  1  1  0  0  0
 40 38  1  6  0  0  0
 40 39  1  0  0  0  0
 43 41  1  6  0  0  0
 43 47  1  0  0  0  0
 43 45  1  0  0  0  0
 44 45  2  0  0  0  0
 45 46  1  0  0  0  0
 46 51  1  0  0  0  0
 46 42  1  1  0  0  0
 47 48  1  0  0  0  0
 48 46  1  0  0  0  0
 48 53  1  6  0  0  0
 49 50  1  0  0  0  0
 51 49  1  0  0  0  0
 52 51  2  0  0  0  0
 53 55  1  0  0  0  0
 54 53  1  0  0  0  0
M  END
>  <MODEL>
2

>  <REMARK>
 VINA RESULT:      -0.7      1.952      3.226
  Name = 
  6 active torsions:
  status: ('A' for Active; 'I' for Inactive)
    1  A    between atoms: C_1  and  C_53
    2  A    between atoms: C_6  and  C_20
    3  A    between atoms: C_8  and  C_43
    4  A    between atoms: C_10  and  C_32
    5  A    between atoms: C_20  and  C_42
    6  A    between atoms: C_29  and  C_38
                            x       y       z     vdW  Elec       q    Type
                         _______ _______ _______ _____ _____    ______ ____

>  <TORSDO>
F 6

$$$$
=
 OpenBabel11062408523D

 55 63  0  0  1  0  0  0  0  0999 V2000
  158.6110  213.1980  150.2220 C   0  0  0  0  0  0  0  0  0  0  0  0
  160.3940  209.5960  152.2740 C   0  0  0  0  0  3  0  0  0  0  0  0
  158.8250  211.5590  155.3830 C   0  0  0  0  0  2  0  0  0  0  0  0
  163.3610  208.6840  150.9150 C   0  0  0  0  0  2  0  0  0  0  0  0
  162.0780  208.0060  151.4290 C   0  0  2  0  0  3  0  0  0  0  0  0
  156.6800  213.4700  156.1580 C   0  0  0  0  0  2  0  0  0  0  0  0
  154.9570  214.3330  149.8300 C   0  0  0  0  0  2  0  0  0  0  0  0
  155.3370  213.3940  156.8760 C   0  0  0  0  0  2  0  0  0  0  0  0
  155.3440  213.8570  154.0450 C   0  0  0  0  0  0  0  0  0  0  0  0
  154.0950  214.1190  154.8440 C   0  0  0  0  0  2  0  0  0  0  0  0
  158.9800  212.6600  154.4780 C   0  0  1  0  0  3  0  0  0  0  0  0
  154.4060  214.4530  156.3000 C   0  0  0  0  0  2  0  0  0  0  0  0
  160.3090  213.8040  148.4720 C   0  0  0  0  0  3  0  0  0  0  0  0
  156.5460  213.4270  154.6500 C   0  0  0  0  0  0  0  0  0  0  0  0
  161.6460  211.3780  148.8960 C   0  0  0  0  0  0  0  0  0  0  0  0
  158.6770  213.0300  151.6090 C   0  0  0  0  0  3  0  0  0  0  0  0
  160.4990  211.6830  149.6340 C   0  0  0  0  0  3  0  0  0  0  0  0
  156.0810  214.4530  147.6290 C   0  0  2  0  0  3  0  0  0  0  0  0
  156.3570  213.6840  151.8430 C   0  0  0  0  0  0  0  0  0  0  0  0
  157.3970  213.6080  149.6270 C   0  0  0  0  0  0  0  0  0  0  0  0
  161.5360  208.7200  152.6620 C   0  0  0  0  0  2  0  0  0  0  0  0
  155.2570  213.9570  152.6610 C   0  0  0  0  0  3  0  0  0  0  0  0
  159.8840  210.4200  153.1410 C   0  0  0  0  0  0  0  0  0  0  0  0
  157.2800  213.6470  148.1210 C   0  0  0  0  0  2  0  0  0  0  0  0
  159.3950  211.2520  154.0140 C   0  0  0  0  0  0  0  0  0  0  0  0
  161.4610  213.5040  147.7370 C   0  0  0  0  0  3  0  0  0  0  0  0
  159.8180  212.8920  149.4250 C   0  0  0  0  0  0  0  0  0  0  0  0
  157.6630  213.0850  153.8410 C   0  0  0  0  0  0  0  0  0  0  0  0
  154.8290  213.9860  148.3580 C   0  0  0  0  0  2  0  0  0  0  0  0
  157.5710  213.2590  152.4350 C   0  0  0  0  0  0  0  0  0  0  0  0
  163.0920  210.1040  150.4340 C   0  0  0  0  0  2  0  0  0  0  0  0
  156.2580  213.8340  150.4420 C   0  0  0  0  0  0  0  0  0  0  0  0
  162.3440  210.0800  149.1160 C   0  0  0  0  0  2  0  0  0  0  0  0
  162.1300  212.2910  147.9490 C   0  0  0  0  0  3  0  0  0  0  0  0
  155.9600  214.3420  146.1350 C   0  0  0  0  0  0  0  0  0  0  0  0
  154.7590  214.4520  145.5660 C   0  0  0  0  0  2  0  0  0  0  0  0
  157.1500  214.0810  145.2560 C   0  0  0  0  0  1  0  0  0  0  0  0
  161.4240  206.0200  152.9380 C   0  0  0  0  0  2  0  0  0  0  0  0
  160.8170  205.8150  151.5600 C   0  0  1  0  0  3  0  0  0  0  0  0
  162.1770  206.4900  151.7040 C   0  0  1  0  0  3  0  0  0  0  0  0
  160.9720  204.3560  151.1520 C   0  0  0  0  0  2  0  0  0  0  0  0
  160.4530  202.6660  146.5930 C   0  0  0  0  0  1  0  0  0  0  0  0
  160.1830  203.9920  149.8950 C   0  0  2  0  0  3  0  0  0  0  0  0
  161.4250  202.0400  149.2850 O   0  0  0  0  0  0  0  0  0  0  0  0
  160.9550  203.1240  148.9580 C   0  0  0  0  0  0  0  0  0  0  0  0
  161.0550  203.6690  147.5730 C   0  0  2  0  0  0  0  0  0  0  0  0
  159.9240  205.2640  149.0990 C   0  0  0  0  0  2  0  0  0  0  0  0
  160.1410  204.9110  147.6240 C   0  0  1  0  0  3  0  0  0  0  0  0
  162.9490  203.9470  145.8770 N   0  0  0  0  0  2  0  0  0  0  0  0
  164.3240  204.2060  145.5030 C   0  0  0  0  0  1  0  0  0  0  0  0
  162.5030  203.9810  147.2360 C   0  0  0  0  0  0  0  0  0  0  0  0
  163.3050  204.3250  148.1500 O   0  0  0  0  0  0  0  0  0  0  0  0
  160.6020  206.1230  146.8040 C   0  0  0  0  0  3  0  0  0  0  0  0
  160.5240  207.2900  147.5780 O   0  0  0  0  0  1  0  0  0  0  0  0
  159.7920  206.2660  145.6740 O   0  0  0  0  0  1  0  0  0  0  0  0
  1 16  1  0  0  0  0
  2 21  1  0  0  0  0
  2 23  2  0  0  0  0
  5  4  1  1  0  0  0
  5 40  1  0  0  0  0
  5 21  1  0  0  0  0
  6  8  1  0  0  0  0
  7 32  1  0  0  0  0
  9 14  1  0  0  0  0
  9 10  1  0  0  0  0
 10 12  1  0  0  0  0
 11  3  1  1  0  0  0
 12  8  1  0  0  0  0
 13 27  1  0  0  0  0
 14  6  1  0  0  0  0
 15 33  1  0  0  0  0
 15 17  1  0  0  0  0
 16 30  2  0  0  0  0
 18 35  1  6  0  0  0
 18 24  1  0  0  0  0
 18 29  1  0  0  0  0
 19 30  1  0  0  0  0
 19 22  1  0  0  0  0
 20  1  2  0  0  0  0
 20 32  1  0  0  0  0
 22  9  2  0  0  0  0
 23 25  2  0  0  0  0
 24 20  1  0  0  0  0
 25 11  1  0  0  0  0
 25  3  1  0  0  0  0
 26 34  1  0  0  0  0
 26 13  2  0  0  0  0
 27 17  2  0  0  0  0
 27  1  1  0  0  0  0
 28 11  1  0  0  0  0
 28 14  2  0  0  0  0
 29  7  1  0  0  0  0
 30 28  1  0  0  0  0
 31  4  1  0  0  0  0
 32 19  2  0  0  0  0
 33 31  1  0  0  0  0
 34 15  2  0  0  0  0
 36 35  2  0  0  0  0
 37 35  1  0  0  0  0
 39 41  1  6  0  0  0
 39 40  1  0  0  0  0
 39 38  1  0  0  0  0
 40 38  1  1  0  0  0
 43 41  1  1  0  0  0
 45 44  2  0  0  0  0
 45 43  1  0  0  0  0
 46 42  1  6  0  0  0
 46 48  1  0  0  0  0
 46 45  1  0  0  0  0
 47 43  1  0  0  0  0
 48 53  1  6  0  0  0
 48 47  1  0  0  0  0
 49 51  1  0  0  0  0
 50 49  1  0  0  0  0
 51 46  1  0  0  0  0
 51 52  2  0  0  0  0
 53 54  1  0  0  0  0
 55 53  1  0  0  0  0
M  END
>  <MODEL>
3

>  <REMARK>
 VINA RESULT:       0.5      6.048     11.455
  Name = 
  6 active torsions:
  status: ('A' for Active; 'I' for Inactive)
    1  A    between atoms: C_1  and  C_53
    2  A    between atoms: C_6  and  C_20
    3  A    between atoms: C_8  and  C_43
    4  A    between atoms: C_10  and  C_32
    5  A    between atoms: C_20  and  C_42
    6  A    between atoms: C_29  and  C_38
                            x       y       z     vdW  Elec       q    Type
                         _______ _______ _______ _____ _____    ______ ____

>  <TORSDO>
F 6

$$$$
=
 OpenBabel11062408523D

 55 63  0  0  1  0  0  0  0  0999 V2000
  159.9040  212.0240  140.0560 C   0  0  0  0  0  0  0  0  0  0  0  0
  159.0490  213.1650  144.3370 C   0  0  0  0  0  3  0  0  0  0  0  0
  155.7120  214.4120  142.5240 C   0  0  0  0  0  2  0  0  0  0  0  0
  161.8090  214.3140  145.9330 C   0  0  0  0  0  2  0  0  0  0  0  0
  160.6190  213.3830  146.2260 C   0  0  2  0  0  3  0  0  0  0  0  0
  153.9540  213.9280  140.1730 C   0  0  0  0  0  2  0  0  0  0  0  0
  158.1970  209.4800  137.7290 C   0  0  0  0  0  2  0  0  0  0  0  0
  152.5940  213.2840  139.9220 C   0  0  0  0  0  2  0  0  0  0  0  0
  154.9410  211.9070  139.0140 C   0  0  0  0  0  0  0  0  0  0  0  0
  153.5880  211.5040  138.4940 C   0  0  0  0  0  2  0  0  0  0  0  0
  156.6010  214.4370  141.3990 C   0  0  1  0  0  3  0  0  0  0  0  0
  152.5900  212.6580  138.5330 C   0  0  0  0  0  2  0  0  0  0  0  0
  162.3390  212.5620  139.7570 C   0  0  0  0  0  3  0  0  0  0  0  0
  155.1090  212.9840  139.9130 C   0  0  0  0  0  0  0  0  0  0  0  0
  162.6270  212.9080  142.5220 C   0  0  0  0  0  0  0  0  0  0  0  0
  158.7970  212.7710  140.4690 C   0  0  0  0  0  3  0  0  0  0  0  0
  161.3830  212.5630  141.9860 C   0  0  0  0  0  3  0  0  0  0  0  0
  160.6480  209.1620  137.6150 C   0  0  2  0  0  3  0  0  0  0  0  0
  157.3140  211.3980  139.1360 C   0  0  0  0  0  0  0  0  0  0  0  0
  159.7190  210.9360  139.1720 C   0  0  0  0  0  0  0  0  0  0  0  0
  159.3370  213.9140  145.5940 C   0  0  0  0  0  2  0  0  0  0  0  0
  156.0310  211.1200  138.6570 C   0  0  0  0  0  3  0  0  0  0  0  0
  158.0920  213.5600  143.5500 C   0  0  0  0  0  0  0  0  0  0  0  0
  160.8880  210.0360  138.8430 C   0  0  0  0  0  2  0  0  0  0  0  0
  157.1420  213.9770  142.7650 C   0  0  0  0  0  0  0  0  0  0  0  0
  163.5840  212.9140  140.2910 C   0  0  0  0  0  3  0  0  0  0  0  0
  161.2300  212.3810  140.6030 C   0  0  0  0  0  0  0  0  0  0  0  0
  156.3920  213.2550  140.4620 C   0  0  0  0  0  0  0  0  0  0  0  0
  159.3100  208.4490  137.7590 C   0  0  0  0  0  2  0  0  0  0  0  0
  157.5010  212.4780  140.0310 C   0  0  0  0  0  0  0  0  0  0  0  0
  162.1250  214.3690  144.4440 C   0  0  0  0  0  2  0  0  0  0  0  0
  158.4130  210.6100  138.7250 C   0  0  0  0  0  0  0  0  0  0  0  0
  162.7760  213.0760  143.9950 C   0  0  0  0  0  2  0  0  0  0  0  0
  163.7270  213.0870  141.6730 C   0  0  0  0  0  3  0  0  0  0  0  0
  161.7970  208.2110  137.4240 C   0  0  0  0  0  0  0  0  0  0  0  0
  162.9950  208.6910  137.0940 C   0  0  0  0  0  2  0  0  0  0  0  0
  161.6310  206.7240  137.5680 C   0  0  0  0  0  1  0  0  0  0  0  0
  159.8010  211.6630  147.9650 C   0  0  0  0  0  2  0  0  0  0  0  0
  161.2810  211.9240  148.1860 C   0  0  1  0  0  3  0  0  0  0  0  0
  160.3690  213.0510  147.7130 C   0  0  1  0  0  3  0  0  0  0  0  0
  161.5570  212.0370  149.6800 C   0  0  0  0  0  2  0  0  0  0  0  0
  159.8080  210.2430  153.8790 C   0  0  0  0  0  1  0  0  0  0  0  0
  160.6170  211.1870  150.5340 C   0  0  2  0  0  3  0  0  0  0  0  0
  160.4120  212.6890  152.3850 O   0  0  0  0  0  0  0  0  0  0  0  0
  160.6540  211.5590  151.9790 C   0  0  0  0  0  0  0  0  0  0  0  0
  160.9560  210.4160  152.8900 C   0  0  2  0  0  0  0  0  0  0  0  0
  161.1040  209.7450  150.5060 C   0  0  0  0  0  2  0  0  0  0  0  0
  160.9630  209.2050  151.9330 C   0  0  1  0  0  3  0  0  0  0  0  0
  162.3340  210.6600  155.0300 N   0  0  0  0  0  2  0  0  0  0  0  0
  163.5610  210.9070  155.7590 C   0  0  0  0  0  1  0  0  0  0  0  0
  162.2790  210.6480  153.6000 C   0  0  0  0  0  0  0  0  0  0  0  0
  163.3420  210.7790  152.9310 O   0  0  0  0  0  0  0  0  0  0  0  0
  161.9920  208.1080  152.2380 C   0  0  0  0  0  3  0  0  0  0  0  0
  162.7490  207.8210  151.0930 O   0  0  0  0  0  1  0  0  0  0  0  0
  161.3350  206.9480  152.6580 O   0  0  0  0  0  1  0  0  0  0  0  0
  1 16  1  0  0  0  0
  1 27  1  0  0  0  0
  2 21  1  0  0  0  0
  3 25  1  0  0  0  0
  4  5  1  0  0  0  0
  5 21  1  1  0  0  0
  5 40  1  0  0  0  0
  7 29  1  0  0  0  0
  7 32  1  0  0  0  0
  8  6  1  0  0  0  0
  9 14  1  0  0  0  0
 10 12  1  0  0  0  0
 10  9  1  0  0  0  0
 11  3  1  1  0  0  0
 11 25  1  0  0  0  0
 12  8  1  0  0  0  0
 13 26  2  0  0  0  0
 13 27  1  0  0  0  0
 14  6  1  0  0  0  0
 14 28  2  0  0  0  0
 15 33  1  0  0  0  0
 17 15  1  0  0  0  0
 18 35  1  1  0  0  0
 18 29  1  0  0  0  0
 18 24  1  0  0  0  0
 19 30  1  0  0  0  0
 20  1  2  0  0  0  0
 22  9  2  0  0  0  0
 22 19  1  0  0  0  0
 23  2  2  0  0  0  0
 24 20  1  0  0  0  0
 25 23  2  0  0  0  0
 26 34  1  0  0  0  0
 27 17  2  0  0  0  0
 28 11  1  0  0  0  0
 30 28  1  0  0  0  0
 30 16  2  0  0  0  0
 31  4  1  0  0  0  0
 32 19  2  0  0  0  0
 32 20  1  0  0  0  0
 33 31  1  0  0  0  0
 34 15  2  0  0  0  0
 35 37  1  0  0  0  0
 36 35  2  0  0  0  0
 38 39  1  0  0  0  0
 39 41  1  1  0  0  0
 40 38  1  6  0  0  0
 40 39  1  0  0  0  0
 43 41  1  6  0  0  0
 43 45  1  0  0  0  0
 45 44  2  0  0  0  0
 45 46  1  0  0  0  0
 46 51  1  0  0  0  0
 46 42  1  1  0  0  0
 47 43  1  0  0  0  0
 47 48  1  0  0  0  0
 48 53  1  1  0  0  0
 48 46  1  0  0  0  0
 49 50  1  0  0  0  0
 51 49  1  0  0  0  0
 52 51  2  0  0  0  0
 53 55  1  0  0  0  0
 54 53  1  0  0  0  0
M  END
>  <MODEL>
4

>  <REMARK>
 VINA RESULT:       0.6      1.505      2.018
  Name = 
  6 active torsions:
  status: ('A' for Active; 'I' for Inactive)
    1  A    between atoms: C_1  and  C_53
    2  A    between atoms: C_6  and  C_20
    3  A    between atoms: C_8  and  C_43
    4  A    between atoms: C_10  and  C_32
    5  A    between atoms: C_20  and  C_42
    6  A    between atoms: C_29  and  C_38
                            x       y       z     vdW  Elec       q    Type
                         _______ _______ _______ _____ _____    ______ ____

>  <TORSDO>
F 6

$$$$
