=
 OpenBabel11062410153D

 43 48  0  0  1  0  0  0  0  0999 V2000
  160.8790  207.5240  155.2670 C   0  0  1  0  0  3  0  0  0  0  0  0
  162.0600  207.4400  150.2500 C   0  0  0  0  0  0  0  0  0  0  0  0
  161.5690  210.0550  149.1690 C   0  0  2  0  0  3  0  0  0  0  0  0
  161.4730  206.8230  152.9230 C   0  0  0  0  0  0  0  0  0  0  0  0
  160.1520  208.6930  154.6130 C   0  0  0  0  0  2  0  0  0  0  0  0
  160.0970  206.9960  156.2930 O   0  0  0  0  0  1  0  0  0  0  0  0
  161.3650  208.1550  152.4770 C   0  0  0  0  0  0  0  0  0  0  0  0
  161.1530  206.4880  154.2760 N   0  0  0  0  0  2  0  0  0  0  0  0
  160.9970  209.2380  153.4620 C   0  0  0  0  0  2  0  0  0  0  0  0
  161.6560  209.9110  150.6900 C   0  0  0  0  0  2  0  0  0  0  0  0
  161.6610  208.4700  151.1360 C   0  0  0  0  0  0  0  0  0  0  0  0
  162.1370  206.1220  150.7070 C   0  0  0  0  0  3  0  0  0  0  0  0
  162.3120  207.7010  148.7870 C   0  0  2  0  0  3  0  0  0  0  0  0
  162.6180  209.1730  148.5040 C   0  0  0  0  0  2  0  0  0  0  0  0
  161.8480  205.8140  152.0350 C   0  0  0  0  0  3  0  0  0  0  0  0
  161.6930  211.5120  148.7180 C   0  0  2  0  0  3  0  0  0  0  0  0
  163.1120  211.8580  148.2770 C   0  0  0  0  0  1  0  0  0  0  0  0
  161.2740  212.3940  149.7990 N   0  0  0  0  0  2  0  0  0  0  0  0
  160.1850  213.3120  149.6900 C   0  0  0  0  0  0  0  0  0  0  0  0
  159.4870  213.3600  148.6420 O   0  0  0  0  0  0  0  0  0  0  0  0
  159.8930  214.2440  150.8180 C   0  0  0  0  0  2  0  0  0  0  0  0
  158.6600  213.7940  151.6030 C   0  0  2  0  0  0  0  0  0  0  0  0
  158.8680  213.0090  152.8490 C   0  0  1  0  0  0  0  0  0  0  0  0
  158.5450  212.3880  151.6240 O   0  0  0  0  0  0  0  0  0  0  0  0
  160.1820  212.7170  153.2250 O   0  0  0  0  0  1  0  0  0  0  0  0
  157.7900  212.8270  153.8770 C   0  0  0  0  0  0  0  0  0  0  0  0
  156.1140  213.7570  155.5400 C   0  0  0  0  0  2  0  0  0  0  0  0
  156.3000  211.3110  155.1980 C   0  0  0  0  0  2  0  0  0  0  0  0
  156.2390  212.4150  156.2460 C   0  0  0  0  0  2  0  0  0  0  0  0
  157.3670  211.5830  154.1700 C   0  0  0  0  0  3  0  0  0  0  0  0
  157.3670  214.0210  154.7040 C   0  0  0  0  0  2  0  0  0  0  0  0
  157.3050  214.4530  151.3460 C   0  0  0  0  0  2  0  0  0  0  0  0
  155.1870  214.1610  150.2770 O   0  0  0  0  0  1  0  0  0  0  0  0
  156.4960  213.6810  150.3160 C   0  0  0  0  0  2  0  0  0  0  0  0
  161.1810  207.2810  148.0280 O   0  0  0  0  0  0  0  0  0  0  0  0
  161.4300  203.6800  147.1360 C   0  0  0  0  0  3  0  0  0  0  0  0
  161.0500  203.7200  145.7850 C   0  0  0  0  0  0  0  0  0  0  0  0
  160.7670  206.1240  145.9560 C   0  0  0  0  0  3  0  0  0  0  0  0
  161.4780  204.8560  147.8900 C   0  0  0  0  0  3  0  0  0  0  0  0
  161.1460  206.0870  147.3010 C   0  0  0  0  0  0  0  0  0  0  0  0
  160.7200  204.9480  145.2020 C   0  0  0  0  0  3  0  0  0  0  0  0
  160.9920  202.5640  145.0030 O   0  0  0  0  0  0  0  0  0  0  0  0
  160.3010  201.3920  145.4180 C   0  0  0  0  0  1  0  0  0  0  0  0
  1  6  1  1  0  0  0
  2 12  2  0  0  0  0
  2 11  1  0  0  0  0
  3 16  1  1  0  0  0
  3 10  1  0  0  0  0
  4  8  1  0  0  0  0
  5  1  1  0  0  0  0
  7  4  1  0  0  0  0
  7  9  1  0  0  0  0
  8  1  1  0  0  0  0
  9  5  1  0  0  0  0
 10 11  1  0  0  0  0
 11  7  2  0  0  0  0
 12 15  1  0  0  0  0
 13 35  1  6  0  0  0
 13  2  1  0  0  0  0
 14 13  1  0  0  0  0
 14  3  1  0  0  0  0
 15  4  2  0  0  0  0
 16 17  1  1  0  0  0
 16 18  1  0  0  0  0
 19 18  1  0  0  0  0
 19 21  1  0  0  0  0
 20 19  2  0  0  0  0
 22 21  1  6  0  0  0
 22 24  1  0  0  0  0
 22 23  1  0  0  0  0
 23 25  1  1  0  0  0
 23 26  1  0  0  0  0
 24 23  1  0  0  0  0
 26 30  2  0  0  0  0
 26 31  1  0  0  0  0
 27 29  1  0  0  0  0
 28 29  1  0  0  0  0
 30 28  1  0  0  0  0
 31 27  1  0  0  0  0
 32 22  1  0  0  0  0
 33 34  1  0  0  0  0
 34 32  1  0  0  0  0
 36 39  1  0  0  0  0
 37 36  2  0  0  0  0
 38 40  1  0  0  0  0
 40 39  2  0  0  0  0
 40 35  1  0  0  0  0
 41 37  1  0  0  0  0
 41 38  2  0  0  0  0
 42 43  1  0  0  0  0
 42 37  1  0  0  0  0
M  END
>  <MODEL>
1

>  <REMARK>
 VINA RESULT:      -7.7      0.000      0.000
  Name = 
  10 active torsions:
  status: ('A' for Active; 'I' for Inactive)
    1  A    between atoms: O_1  and  C_34
    2  A    between atoms: O_1  and  C_35
    3  A    between atoms: C_2  and  N_6
    4  A    between atoms: C_2  and  C_13
    5  A    between atoms: C_3  and  C_4
    6  A    between atoms: C_3  and  C_12
    7  A    between atoms: C_4  and  C_15
    8  A    between atoms: C_11  and  C_14
    9  A    between atoms: C_15  and  C_42
   10  A    between atoms: C_19  and  O_25
                            x       y       z     vdW  Elec       q    Type
                         _______ _______ _______ _____ _____    ______ ____

>  <TORSDO>
F 10

$$$$
=
 OpenBabel11062410153D

 43 48  0  0  1  0  0  0  0  0999 V2000
  160.7640  207.9490  155.0770 C   0  0  1  0  0  3  0  0  0  0  0  0
  162.0830  207.6770  150.1010 C   0  0  0  0  0  0  0  0  0  0  0  0
  161.7530  210.2840  148.9410 C   0  0  2  0  0  3  0  0  0  0  0  0
  161.3900  207.1580  152.7690 C   0  0  0  0  0  0  0  0  0  0  0  0
  160.1140  209.1340  154.3720 C   0  0  0  0  0  2  0  0  0  0  0  0
  159.9280  207.4860  156.0910 O   0  0  0  0  0  1  0  0  0  0  0  0
  161.3610  208.4820  152.2880 C   0  0  0  0  0  0  0  0  0  0  0  0
  161.0150  206.8750  154.1200 N   0  0  0  0  0  2  0  0  0  0  0  0
  161.0180  209.6080  153.2340 C   0  0  0  0  0  2  0  0  0  0  0  0
  161.7890  210.1750  150.4670 C   0  0  0  0  0  2  0  0  0  0  0  0
  161.7110  208.7480  150.9490 C   0  0  0  0  0  0  0  0  0  0  0  0
  162.0820  206.3690  150.5920 C   0  0  0  0  0  3  0  0  0  0  0  0
  162.3900  207.8870  148.6400 C   0  0  2  0  0  3  0  0  0  0  0  0
  162.7760  209.3350  148.3300 C   0  0  0  0  0  2  0  0  0  0  0  0
  161.7400  206.1100  151.9180 C   0  0  0  0  0  3  0  0  0  0  0  0
  161.9610  211.7200  148.4590 C   0  0  2  0  0  3  0  0  0  0  0  0
  161.5480  212.7460  149.5100 C   0  0  0  0  0  1  0  0  0  0  0  0
  161.2120  211.9340  147.2280 N   0  0  0  0  0  2  0  0  0  0  0  0
  161.1980  213.1740  146.5190 C   0  0  0  0  0  0  0  0  0  0  0  0
  161.8980  214.1460  146.9110 O   0  0  0  0  0  0  0  0  0  0  0  0
  160.3230  213.3260  145.3210 C   0  0  0  0  0  2  0  0  0  0  0  0
  161.0150  212.8080  144.0600 C   0  0  2  0  0  0  0  0  0  0  0  0
  160.1950  212.6320  142.8300 C   0  0  1  0  0  0  0  0  0  0  0  0
  160.5120  211.5470  143.6760 O   0  0  0  0  0  0  0  0  0  0  0  0
  158.8340  212.9390  142.9040 O   0  0  0  0  0  1  0  0  0  0  0  0
  160.8060  212.4840  141.4670 C   0  0  0  0  0  0  0  0  0  0  0  0
  161.5460  213.4470  139.2400 C   0  0  0  0  0  2  0  0  0  0  0  0
  161.8800  211.0420  139.7270 C   0  0  0  0  0  2  0  0  0  0  0  0
  161.3620  212.0380  138.6960 C   0  0  0  0  0  2  0  0  0  0  0  0
  161.2660  211.2800  141.0820 C   0  0  0  0  0  3  0  0  0  0  0  0
  160.6900  213.6350  140.4930 C   0  0  0  0  0  2  0  0  0  0  0  0
  162.5380  212.8510  143.9480 C   0  0  0  0  0  2  0  0  0  0  0  0
  163.5420  214.3800  142.4080 O   0  0  0  0  0  1  0  0  0  0  0  0
  163.0400  214.2650  143.7040 C   0  0  0  0  0  2  0  0  0  0  0  0
  161.2620  207.5030  147.8580 O   0  0  0  0  0  0  0  0  0  0  0  0
  161.6550  203.9290  146.9080 C   0  0  0  0  0  3  0  0  0  0  0  0
  161.0360  203.9260  145.6490 C   0  0  0  0  0  0  0  0  0  0  0  0
  160.5830  206.2980  145.8850 C   0  0  0  0  0  3  0  0  0  0  0  0
  161.7370  205.1110  147.6500 C   0  0  0  0  0  3  0  0  0  0  0  0
  161.2000  206.3040  147.1400 C   0  0  0  0  0  0  0  0  0  0  0  0
  160.5020  205.1150  145.1430 C   0  0  0  0  0  3  0  0  0  0  0  0
  160.9370  202.7620  144.8820 O   0  0  0  0  0  0  0  0  0  0  0  0
  159.8430  201.8610  144.9930 C   0  0  0  0  0  1  0  0  0  0  0  0
  1  6  1  1  0  0  0
  2 12  2  0  0  0  0
  2 11  1  0  0  0  0
  3 16  1  1  0  0  0
  3 10  1  0  0  0  0
  4  8  1  0  0  0  0
  5  1  1  0  0  0  0
  7  4  1  0  0  0  0
  7  9  1  0  0  0  0
  8  1  1  0  0  0  0
  9  5  1  0  0  0  0
 10 11  1  0  0  0  0
 11  7  2  0  0  0  0
 12 15  1  0  0  0  0
 13 35  1  6  0  0  0
 13  2  1  0  0  0  0
 14 13  1  0  0  0  0
 14  3  1  0  0  0  0
 15  4  2  0  0  0  0
 16 17  1  1  0  0  0
 18 16  1  0  0  0  0
 19 20  2  0  0  0  0
 19 18  1  0  0  0  0
 21 19  1  0  0  0  0
 22 32  1  6  0  0  0
 22 21  1  0  0  0  0
 23 25  1  1  0  0  0
 23 24  1  0  0  0  0
 23 22  1  0  0  0  0
 24 22  1  0  0  0  0
 26 23  1  0  0  0  0
 27 31  1  0  0  0  0
 28 30  1  0  0  0  0
 29 27  1  0  0  0  0
 29 28  1  0  0  0  0
 30 26  2  0  0  0  0
 31 26  1  0  0  0  0
 33 34  1  0  0  0  0
 34 32  1  0  0  0  0
 36 39  1  0  0  0  0
 37 36  2  0  0  0  0
 38 40  1  0  0  0  0
 40 39  2  0  0  0  0
 40 35  1  0  0  0  0
 41 37  1  0  0  0  0
 41 38  2  0  0  0  0
 42 43  1  0  0  0  0
 42 37  1  0  0  0  0
M  END
>  <MODEL>
2

>  <REMARK>
 VINA RESULT:      -7.2      3.991      7.113
  Name = 
  10 active torsions:
  status: ('A' for Active; 'I' for Inactive)
    1  A    between atoms: O_1  and  C_34
    2  A    between atoms: O_1  and  C_35
    3  A    between atoms: C_2  and  N_6
    4  A    between atoms: C_2  and  C_13
    5  A    between atoms: C_3  and  C_4
    6  A    between atoms: C_3  and  C_12
    7  A    between atoms: C_4  and  C_15
    8  A    between atoms: C_11  and  C_14
    9  A    between atoms: C_15  and  C_42
   10  A    between atoms: C_19  and  O_25
                            x       y       z     vdW  Elec       q    Type
                         _______ _______ _______ _____ _____    ______ ____

>  <TORSDO>
F 10

$$$$
=
 OpenBabel11062410153D

 43 48  0  0  1  0  0  0  0  0999 V2000
  162.1620  212.8700  146.9840 C   0  0  1  0  0  3  0  0  0  0  0  0
  160.2210  212.8260  151.7590 C   0  0  0  0  0  0  0  0  0  0  0  0
  160.2060  210.1110  152.6970 C   0  0  2  0  0  3  0  0  0  0  0  0
  161.0450  213.4760  149.1580 C   0  0  0  0  0  0  0  0  0  0  0  0
  161.6810  211.4500  147.2630 C   0  0  0  0  0  2  0  0  0  0  0  0
  161.9570  213.1830  145.6420 O   0  0  0  0  0  1  0  0  0  0  0  0
  161.2020  212.1570  149.6280 C   0  0  0  0  0  0  0  0  0  0  0  0
  161.4380  213.8170  147.8250 N   0  0  0  0  0  2  0  0  0  0  0  0
  161.8710  211.1310  148.7450 C   0  0  0  0  0  2  0  0  0  0  0  0
  161.0650  210.4450  151.4750 C   0  0  0  0  0  2  0  0  0  0  0  0
  160.7920  211.8260  150.9340 C   0  0  0  0  0  0  0  0  0  0  0  0
  160.0520  214.1220  151.2650 C   0  0  0  0  0  3  0  0  0  0  0  0
  159.6900  212.5160  153.1360 C   0  0  2  0  0  3  0  0  0  0  0  0
  160.2970  211.2380  153.7180 C   0  0  0  0  0  2  0  0  0  0  0  0
  160.4630  214.4470  149.9730 C   0  0  0  0  0  3  0  0  0  0  0  0
  160.5780  208.7620  153.3150 C   0  0  2  0  0  3  0  0  0  0  0  0
  161.3100  208.9220  154.6440 C   0  0  0  0  0  1  0  0  0  0  0  0
  161.3990  208.0080  152.3780 N   0  0  0  0  0  2  0  0  0  0  0  0
  161.2670  206.6000  152.1700 C   0  0  0  0  0  0  0  0  0  0  0  0
  160.3710  205.9450  152.7660 O   0  0  0  0  0  0  0  0  0  0  0  0
  162.2180  205.8980  151.2610 C   0  0  0  0  0  2  0  0  0  0  0  0
  161.5510  205.5330  149.9350 C   0  0  2  0  0  0  0  0  0  0  0  0
  161.8710  206.3550  148.7370 C   0  0  1  0  0  0  0  0  0  0  0  0
  160.6940  206.5600  149.4880 O   0  0  0  0  0  0  0  0  0  0  0  0
  162.7570  207.4240  148.8980 O   0  0  0  0  0  1  0  0  0  0  0  0
  161.5780  205.8940  147.3390 C   0  0  0  0  0  0  0  0  0  0  0  0
  162.1290  204.5070  145.2880 C   0  0  0  0  0  2  0  0  0  0  0  0
  160.1130  205.9460  145.3110 C   0  0  0  0  0  2  0  0  0  0  0  0
  161.3480  205.5540  144.5080 C   0  0  0  0  0  2  0  0  0  0  0  0
  160.4740  206.3470  146.7170 C   0  0  0  0  0  3  0  0  0  0  0  0
  162.6370  205.1090  146.5980 C   0  0  0  0  0  2  0  0  0  0  0  0
  160.9050  204.1600  149.7530 C   0  0  0  0  0  2  0  0  0  0  0  0
  161.2350  201.9730  150.6620 O   0  0  0  0  0  1  0  0  0  0  0  0
  161.0400  203.3100  151.0070 C   0  0  0  0  0  2  0  0  0  0  0  0
  158.2700  212.4030  153.0820 O   0  0  0  0  0  0  0  0  0  0  0  0
  156.4370  212.4450  156.3170 C   0  0  0  0  0  3  0  0  0  0  0  0
  155.7300  213.6510  156.2000 C   0  0  0  0  0  0  0  0  0  0  0  0
  156.7250  214.0000  154.0140 C   0  0  0  0  0  3  0  0  0  0  0  0
  157.2820  212.0200  155.2880 C   0  0  0  0  0  3  0  0  0  0  0  0
  157.4300  212.7980  154.1290 C   0  0  0  0  0  0  0  0  0  0  0  0
  155.8790  214.4240  155.0440 C   0  0  0  0  0  3  0  0  0  0  0  0
  154.8770  214.1050  157.2090 O   0  0  0  0  0  0  0  0  0  0  0  0
  153.4640  213.9650  157.1400 C   0  0  0  0  0  1  0  0  0  0  0  0
  1  6  1  6  0  0  0
  1  5  1  0  0  0  0
  1  8  1  0  0  0  0
  2 13  1  0  0  0  0
  3 16  1  1  0  0  0
  3 14  1  0  0  0  0
  4  7  2  0  0  0  0
  4 15  1  0  0  0  0
  5  9  1  0  0  0  0
  7 11  1  0  0  0  0
  8  4  1  0  0  0  0
  9  7  1  0  0  0  0
 10  3  1  0  0  0  0
 11 10  1  0  0  0  0
 11  2  2  0  0  0  0
 12  2  1  0  0  0  0
 13 35  1  6  0  0  0
 13 14  1  0  0  0  0
 15 12  2  0  0  0  0
 16 17  1  1  0  0  0
 18 16  1  0  0  0  0
 19 18  1  0  0  0  0
 19 20  2  0  0  0  0
 21 19  1  0  0  0  0
 22 32  1  6  0  0  0
 22 21  1  0  0  0  0
 23 25  1  1  0  0  0
 23 24  1  0  0  0  0
 23 22  1  0  0  0  0
 24 22  1  0  0  0  0
 26 23  1  0  0  0  0
 27 31  1  0  0  0  0
 28 30  1  0  0  0  0
 29 27  1  0  0  0  0
 29 28  1  0  0  0  0
 30 26  2  0  0  0  0
 31 26  1  0  0  0  0
 32 34  1  0  0  0  0
 33 34  1  0  0  0  0
 35 40  1  0  0  0  0
 37 36  1  0  0  0  0
 37 42  1  0  0  0  0
 38 40  2  0  0  0  0
 38 41  1  0  0  0  0
 39 36  2  0  0  0  0
 40 39  1  0  0  0  0
 41 37  2  0  0  0  0
 43 42  1  0  0  0  0
M  END
>  <MODEL>
3

>  <REMARK>
 VINA RESULT:      -6.9      2.119     10.214
  Name = 
  10 active torsions:
  status: ('A' for Active; 'I' for Inactive)
    1  A    between atoms: O_1  and  C_34
    2  A    between atoms: O_1  and  C_35
    3  A    between atoms: C_2  and  N_6
    4  A    between atoms: C_2  and  C_13
    5  A    between atoms: C_3  and  C_4
    6  A    between atoms: C_3  and  C_12
    7  A    between atoms: C_4  and  C_15
    8  A    between atoms: C_11  and  C_14
    9  A    between atoms: C_15  and  C_42
   10  A    between atoms: C_19  and  O_25
                            x       y       z     vdW  Elec       q    Type
                         _______ _______ _______ _____ _____    ______ ____

>  <TORSDO>
F 10

$$$$
=
 OpenBabel11062410153D

 43 48  0  0  1  0  0  0  0  0999 V2000
  160.0110  210.6210  155.9260 C   0  0  1  0  0  3  0  0  0  0  0  0
  161.4900  206.9780  152.5920 C   0  0  0  0  0  0  0  0  0  0  0  0
  161.4490  208.1080  149.9520 C   0  0  2  0  0  3  0  0  0  0  0  0
  160.6490  208.4460  154.8300 C   0  0  0  0  0  0  0  0  0  0  0  0
  159.5020  211.0350  154.5490 C   0  0  0  0  0  2  0  0  0  0  0  0
  159.0970  211.0090  156.9030 O   0  0  0  0  0  1  0  0  0  0  0  0
  160.7620  209.0870  153.5810 C   0  0  0  0  0  0  0  0  0  0  0  0
  160.1970  209.1750  155.9750 N   0  0  0  0  0  2  0  0  0  0  0  0
  160.4900  210.5690  153.4800 C   0  0  0  0  0  2  0  0  0  0  0  0
  161.4160  209.0660  151.1450 C   0  0  0  0  0  2  0  0  0  0  0  0
  161.1870  208.3550  152.4540 C   0  0  0  0  0  0  0  0  0  0  0  0
  161.3480  206.3560  153.8350 C   0  0  0  0  0  3  0  0  0  0  0  0
  161.8710  206.1240  151.4100 C   0  0  2  0  0  3  0  0  0  0  0  0
  162.4020  206.9550  150.2400 C   0  0  0  0  0  2  0  0  0  0  0  0
  160.9320  207.0850  154.9480 C   0  0  0  0  0  3  0  0  0  0  0  0
  161.8090  208.8200  148.6470 C   0  0  2  0  0  3  0  0  0  0  0  0
  163.3040  208.7500  148.3470 C   0  0  0  0  0  1  0  0  0  0  0  0
  161.3760  210.2090  148.7150 N   0  0  0  0  0  2  0  0  0  0  0  0
  162.2170  211.3150  148.3790 C   0  0  0  0  0  0  0  0  0  0  0  0
  163.3840  211.1250  147.9450 O   0  0  0  0  0  0  0  0  0  0  0  0
  161.7150  212.7060  148.5730 C   0  0  0  0  0  2  0  0  0  0  0  0
  160.6900  213.0800  147.5020 C   0  0  2  0  0  0  0  0  0  0  0  0
  161.1900  213.4480  146.1500 C   0  0  1  0  0  0  0  0  0  0  0  0
  160.8290  214.4250  147.1010 O   0  0  0  0  0  0  0  0  0  0  0  0
  162.5710  213.4420  145.9410 O   0  0  0  0  0  1  0  0  0  0  0  0
  160.3000  213.4790  144.9410 C   0  0  0  0  0  0  0  0  0  0  0  0
  159.6240  212.6300  142.6480 C   0  0  0  0  0  2  0  0  0  0  0  0
  158.3310  214.4430  143.7340 C   0  0  0  0  0  2  0  0  0  0  0  0
  159.0120  214.0080  142.4410 C   0  0  0  0  0  2  0  0  0  0  0  0
  159.2640  214.3380  144.9120 C   0  0  0  0  0  3  0  0  0  0  0  0
  160.7190  212.7030  143.7130 C   0  0  0  0  0  2  0  0  0  0  0  0
  159.2190  212.7090  147.6850 C   0  0  0  0  0  2  0  0  0  0  0  0
  157.2160  213.2390  148.8790 O   0  0  0  0  0  1  0  0  0  0  0  0
  158.5060  213.6900  148.6030 C   0  0  0  0  0  2  0  0  0  0  0  0
  160.7430  205.3580  150.9950 O   0  0  0  0  0  0  0  0  0  0  0  0
  160.7140  201.9570  149.4910 C   0  0  0  0  0  3  0  0  0  0  0  0
  160.9960  202.2640  148.1510 C   0  0  0  0  0  0  0  0  0  0  0  0
  161.1050  204.6170  148.7310 C   0  0  0  0  0  3  0  0  0  0  0  0
  160.6290  202.9760  150.4440 C   0  0  0  0  0  3  0  0  0  0  0  0
  160.8250  204.3150  150.0670 C   0  0  0  0  0  0  0  0  0  0  0  0
  161.1910  203.5970  147.7780 C   0  0  0  0  0  3  0  0  0  0  0  0
  161.0880  201.2690  147.1730 O   0  0  0  0  0  0  0  0  0  0  0  0
  160.5950  201.4460  145.8510 C   0  0  0  0  0  1  0  0  0  0  0  0
  1  8  1  0  0  0  0
  1  6  1  1  0  0  0
  2 12  1  0  0  0  0
  3 16  1  6  0  0  0
  3 14  1  0  0  0  0
  3 10  1  0  0  0  0
  4 15  1  0  0  0  0
  4  8  1  0  0  0  0
  5  1  1  0  0  0  0
  7  4  2  0  0  0  0
  9  7  1  0  0  0  0
  9  5  1  0  0  0  0
 10 11  1  0  0  0  0
 11  2  2  0  0  0  0
 11  7  1  0  0  0  0
 12 15  2  0  0  0  0
 13 35  1  6  0  0  0
 13  2  1  0  0  0  0
 14 13  1  0  0  0  0
 16 17  1  1  0  0  0
 16 18  1  0  0  0  0
 19 21  1  0  0  0  0
 19 18  1  0  0  0  0
 20 19  2  0  0  0  0
 22 32  1  1  0  0  0
 22 21  1  0  0  0  0
 23 25  1  6  0  0  0
 23 24  1  0  0  0  0
 23 22  1  0  0  0  0
 24 22  1  0  0  0  0
 26 23  1  0  0  0  0
 27 31  1  0  0  0  0
 28 30  1  0  0  0  0
 29 27  1  0  0  0  0
 29 28  1  0  0  0  0
 30 26  2  0  0  0  0
 31 26  1  0  0  0  0
 32 34  1  0  0  0  0
 34 33  1  0  0  0  0
 36 39  1  0  0  0  0
 37 36  2  0  0  0  0
 38 40  1  0  0  0  0
 40 39  2  0  0  0  0
 40 35  1  0  0  0  0
 41 37  1  0  0  0  0
 41 38  2  0  0  0  0
 42 37  1  0  0  0  0
 43 42  1  0  0  0  0
M  END
>  <MODEL>
4

>  <REMARK>
 VINA RESULT:      -6.3      2.985      5.473
  Name = 
  10 active torsions:
  status: ('A' for Active; 'I' for Inactive)
    1  A    between atoms: O_1  and  C_34
    2  A    between atoms: O_1  and  C_35
    3  A    between atoms: C_2  and  N_6
    4  A    between atoms: C_2  and  C_13
    5  A    between atoms: C_3  and  C_4
    6  A    between atoms: C_3  and  C_12
    7  A    between atoms: C_4  and  C_15
    8  A    between atoms: C_11  and  C_14
    9  A    between atoms: C_15  and  C_42
   10  A    between atoms: C_19  and  O_25
                            x       y       z     vdW  Elec       q    Type
                         _______ _______ _______ _____ _____    ______ ____

>  <TORSDO>
F 10

$$$$
=
 OpenBabel11062410153D

 43 48  0  0  1  0  0  0  0  0999 V2000
  159.3230  211.1460  156.1550 C   0  0  1  0  0  3  0  0  0  0  0  0
  161.2270  207.9040  152.6280 C   0  0  0  0  0  0  0  0  0  0  0  0
  161.6990  209.3830  150.2110 C   0  0  2  0  0  3  0  0  0  0  0  0
  160.0610  209.1040  154.8800 C   0  0  0  0  0  0  0  0  0  0  0  0
  159.0830  211.7750  154.7870 C   0  0  0  0  0  2  0  0  0  0  0  0
  158.2660  211.4550  157.0080 O   0  0  0  0  0  1  0  0  0  0  0  0
  160.4180  209.9000  153.7740 C   0  0  0  0  0  0  0  0  0  0  0  0
  159.4420  209.6980  156.0250 N   0  0  0  0  0  2  0  0  0  0  0  0
  160.2250  211.3960  153.8450 C   0  0  0  0  0  2  0  0  0  0  0  0
  161.4920  210.1700  151.5070 C   0  0  0  0  0  2  0  0  0  0  0  0
  161.0070  209.3030  152.6420 C   0  0  0  0  0  0  0  0  0  0  0  0
  160.8430  207.1290  153.7260 C   0  0  0  0  0  3  0  0  0  0  0  0
  161.7780  207.1960  151.4170 C   0  0  2  0  0  3  0  0  0  0  0  0
  162.5400  208.1430  150.4870 C   0  0  0  0  0  2  0  0  0  0  0  0
  160.2660  207.7240  154.8460 C   0  0  0  0  0  3  0  0  0  0  0  0
  162.3110  210.2420  149.1040 C   0  0  2  0  0  3  0  0  0  0  0  0
  163.6020  210.9210  149.5510 C   0  0  0  0  0  1  0  0  0  0  0  0
  161.3430  211.2400  148.6700 N   0  0  0  0  0  2  0  0  0  0  0  0
  161.6790  212.3570  147.8440 C   0  0  0  0  0  0  0  0  0  0  0  0
  162.8490  212.4980  147.3990 O   0  0  0  0  0  0  0  0  0  0  0  0
  160.6390  213.3800  147.5330 C   0  0  0  0  0  2  0  0  0  0  0  0
  160.0170  213.1360  146.1570 C   0  0  2  0  0  0  0  0  0  0  0  0
  160.7010  213.7070  144.9660 C   0  0  1  0  0  0  0  0  0  0  0  0
  159.5910  214.3420  145.5620 O   0  0  0  0  0  0  0  0  0  0  0  0
  161.8690  214.4450  145.1750 O   0  0  0  0  0  1  0  0  0  0  0  0
  160.4070  213.2470  143.5680 C   0  0  0  0  0  0  0  0  0  0  0  0
  159.0090  213.3020  141.4510 C   0  0  0  0  0  2  0  0  0  0  0  0
  160.9980  211.8320  141.5900 C   0  0  0  0  0  2  0  0  0  0  0  0
  159.5240  211.8900  141.2080 C   0  0  0  0  0  2  0  0  0  0  0  0
  161.2280  212.3560  142.9840 C   0  0  0  0  0  3  0  0  0  0  0  0
  159.0840  213.6310  142.9420 C   0  0  0  0  0  2  0  0  0  0  0  0
  158.9770  212.0320  145.9700 C   0  0  0  0  0  2  0  0  0  0  0  0
  157.1440  212.2910  147.4830 O   0  0  0  0  0  1  0  0  0  0  0  0
  157.5650  212.5550  146.1800 C   0  0  0  0  0  2  0  0  0  0  0  0
  160.7130  206.5660  150.7090 O   0  0  0  0  0  0  0  0  0  0  0  0
  160.9300  206.0680  147.0310 C   0  0  0  0  0  3  0  0  0  0  0  0
  161.2180  204.6960  146.9710 C   0  0  0  0  0  0  0  0  0  0  0  0
  161.1620  204.5980  149.3950 C   0  0  0  0  0  3  0  0  0  0  0  0
  160.7600  206.7000  148.2660 C   0  0  0  0  0  3  0  0  0  0  0  0
  160.8750  205.9650  149.4570 C   0  0  0  0  0  0  0  0  0  0  0  0
  161.3310  203.9670  148.1590 C   0  0  0  0  0  3  0  0  0  0  0  0
  161.3940  204.0340  145.7530 O   0  0  0  0  0  0  0  0  0  0  0  0
  162.0270  204.6430  144.6350 C   0  0  0  0  0  1  0  0  0  0  0  0
  1  6  1  1  0  0  0
  2 11  2  0  0  0  0
  2 12  1  0  0  0  0
  3 16  1  6  0  0  0
  3 14  1  0  0  0  0
  3 10  1  0  0  0  0
  4  8  1  0  0  0  0
  5  1  1  0  0  0  0
  7  9  1  0  0  0  0
  7  4  2  0  0  0  0
  8  1  1  0  0  0  0
  9  5  1  0  0  0  0
 10 11  1  0  0  0  0
 11  7  1  0  0  0  0
 12 15  2  0  0  0  0
 13 35  1  6  0  0  0
 13  2  1  0  0  0  0
 14 13  1  0  0  0  0
 15  4  1  0  0  0  0
 16 17  1  1  0  0  0
 18 16  1  0  0  0  0
 19 18  1  0  0  0  0
 20 19  2  0  0  0  0
 21 19  1  0  0  0  0
 22 32  1  6  0  0  0
 22 21  1  0  0  0  0
 23 25  1  1  0  0  0
 23 24  1  0  0  0  0
 23 22  1  0  0  0  0
 24 22  1  0  0  0  0
 26 23  1  0  0  0  0
 27 31  1  0  0  0  0
 28 30  1  0  0  0  0
 29 27  1  0  0  0  0
 29 28  1  0  0  0  0
 30 26  2  0  0  0  0
 31 26  1  0  0  0  0
 32 34  1  0  0  0  0
 34 33  1  0  0  0  0
 36 39  1  0  0  0  0
 37 36  2  0  0  0  0
 37 41  1  0  0  0  0
 38 40  1  0  0  0  0
 39 40  2  0  0  0  0
 40 35  1  0  0  0  0
 41 38  2  0  0  0  0
 42 37  1  0  0  0  0
 43 42  1  0  0  0  0
M  END
>  <MODEL>
5

>  <REMARK>
 VINA RESULT:      -5.3      3.372      6.053
  Name = 
  10 active torsions:
  status: ('A' for Active; 'I' for Inactive)
    1  A    between atoms: O_1  and  C_34
    2  A    between atoms: O_1  and  C_35
    3  A    between atoms: C_2  and  N_6
    4  A    between atoms: C_2  and  C_13
    5  A    between atoms: C_3  and  C_4
    6  A    between atoms: C_3  and  C_12
    7  A    between atoms: C_4  and  C_15
    8  A    between atoms: C_11  and  C_14
    9  A    between atoms: C_15  and  C_42
   10  A    between atoms: C_19  and  O_25
                            x       y       z     vdW  Elec       q    Type
                         _______ _______ _______ _____ _____    ______ ____

>  <TORSDO>
F 10

$$$$
=
 OpenBabel11062410153D

 43 48  0  0  1  0  0  0  0  0999 V2000
  159.7820  211.7520  154.6770 C   0  0  1  0  0  3  0  0  0  0  0  0
  161.7480  209.7500  150.3520 C   0  0  0  0  0  0  0  0  0  0  0  0
  161.2210  211.5750  148.1980 C   0  0  2  0  0  3  0  0  0  0  0  0
  160.7970  210.2290  152.9480 C   0  0  0  0  0  0  0  0  0  0  0  0
  159.0740  212.4240  153.5060 C   0  0  0  0  0  2  0  0  0  0  0  0
  158.8940  211.5950  155.7390 O   0  0  0  0  0  1  0  0  0  0  0  0
  160.6520  211.2220  151.9600 C   0  0  0  0  0  0  0  0  0  0  0  0
  160.2940  210.4480  154.2690 N   0  0  0  0  0  2  0  0  0  0  0  0
  160.0430  212.5530  152.3320 C   0  0  0  0  0  2  0  0  0  0  0  0
  161.0760  212.0930  149.6310 C   0  0  0  0  0  2  0  0  0  0  0  0
  161.1300  210.9880  150.6560 C   0  0  0  0  0  0  0  0  0  0  0  0
  161.8600  208.7690  151.3410 C   0  0  0  0  0  3  0  0  0  0  0  0
  162.2070  209.4090  148.9580 C   0  0  2  0  0  3  0  0  0  0  0  0
  162.4310  210.6560  148.0990 C   0  0  0  0  0  2  0  0  0  0  0  0
  161.3900  209.0060  152.6310 C   0  0  0  0  0  3  0  0  0  0  0  0
  161.2940  212.7110  147.1770 C   0  0  2  0  0  3  0  0  0  0  0  0
  160.9530  214.0640  147.7960 C   0  0  0  0  0  1  0  0  0  0  0  0
  160.3940  212.4270  146.0670 N   0  0  0  0  0  2  0  0  0  0  0  0
  160.2780  213.2610  144.9130 C   0  0  0  0  0  0  0  0  0  0  0  0
  161.0110  214.2780  144.7780 O   0  0  0  0  0  0  0  0  0  0  0  0
  159.2590  212.9400  143.8730 C   0  0  0  0  0  2  0  0  0  0  0  0
  159.8230  213.1350  142.4650 C   0  0  2  0  0  0  0  0  0  0  0  0
  160.4210  211.9580  141.7780 C   0  0  1  0  0  0  0  0  0  0  0  0
  161.2170  212.9220  142.4330 O   0  0  0  0  0  0  0  0  0  0  0  0
  160.4430  210.7430  142.4670 O   0  0  0  0  0  1  0  0  0  0  0  0
  160.6710  211.9280  140.2990 C   0  0  0  0  0  0  0  0  0  0  0  0
  162.2110  212.1410  138.2930 C   0  0  0  0  0  2  0  0  0  0  0  0
  159.8170  211.5920  137.9710 C   0  0  0  0  0  2  0  0  0  0  0  0
  160.9560  212.4930  137.5080 C   0  0  0  0  0  2  0  0  0  0  0  0
  159.6550  211.6310  139.4680 C   0  0  0  0  0  3  0  0  0  0  0  0
  161.9950  212.4410  139.7770 C   0  0  0  0  0  2  0  0  0  0  0  0
  159.4350  214.3660  141.6470 C   0  0  0  0  0  2  0  0  0  0  0  0
  157.5170  213.5270  140.4920 O   0  0  0  0  0  1  0  0  0  0  0  0
  157.9290  214.4530  141.4500 C   0  0  0  0  0  2  0  0  0  0  0  0
  161.2500  208.5540  148.3390 O   0  0  0  0  0  0  0  0  0  0  0  0
  162.2970  205.1840  147.1680 C   0  0  0  0  0  3  0  0  0  0  0  0
  161.6830  204.3710  148.1330 C   0  0  0  0  0  0  0  0  0  0  0  0
  160.7950  206.3550  149.2120 C   0  0  0  0  0  3  0  0  0  0  0  0
  162.1590  206.5740  147.2250 C   0  0  0  0  0  3  0  0  0  0  0  0
  161.4050  207.1670  148.2510 C   0  0  0  0  0  0  0  0  0  0  0  0
  160.9320  204.9650  149.1530 C   0  0  0  0  0  3  0  0  0  0  0  0
  161.8010  202.9790  148.1050 O   0  0  0  0  0  0  0  0  0  0  0  0
  160.6730  202.1140  148.0820 C   0  0  0  0  0  1  0  0  0  0  0  0
  1  6  1  1  0  0  0
  2 11  2  0  0  0  0
  2 12  1  0  0  0  0
  3 16  1  6  0  0  0
  3 10  1  0  0  0  0
  4  8  1  0  0  0  0
  5  1  1  0  0  0  0
  7  9  1  0  0  0  0
  7  4  2  0  0  0  0
  8  1  1  0  0  0  0
  9  5  1  0  0  0  0
 10 11  1  0  0  0  0
 11  7  1  0  0  0  0
 12 15  2  0  0  0  0
 13 35  1  6  0  0  0
 13  2  1  0  0  0  0
 14  3  1  0  0  0  0
 14 13  1  0  0  0  0
 15  4  1  0  0  0  0
 16 17  1  1  0  0  0
 18 16  1  0  0  0  0
 19 18  1  0  0  0  0
 20 19  2  0  0  0  0
 21 19  1  0  0  0  0
 22 32  1  6  0  0  0
 22 21  1  0  0  0  0
 23 24  1  0  0  0  0
 23 22  1  0  0  0  0
 23 25  1  1  0  0  0
 24 22  1  0  0  0  0
 26 23  1  0  0  0  0
 27 31  1  0  0  0  0
 28 30  1  0  0  0  0
 29 28  1  0  0  0  0
 29 27  1  0  0  0  0
 30 26  2  0  0  0  0
 31 26  1  0  0  0  0
 33 34  1  0  0  0  0
 34 32  1  0  0  0  0
 36 39  2  0  0  0  0
 36 37  1  0  0  0  0
 37 41  2  0  0  0  0
 39 40  1  0  0  0  0
 40 35  1  0  0  0  0
 40 38  2  0  0  0  0
 41 38  1  0  0  0  0
 42 37  1  0  0  0  0
 43 42  1  0  0  0  0
M  END
>  <MODEL>
6

>  <REMARK>
 VINA RESULT:      -5.1      4.987      7.958
  Name = 
  10 active torsions:
  status: ('A' for Active; 'I' for Inactive)
    1  A    between atoms: O_1  and  C_34
    2  A    between atoms: O_1  and  C_35
    3  A    between atoms: C_2  and  N_6
    4  A    between atoms: C_2  and  C_13
    5  A    between atoms: C_3  and  C_4
    6  A    between atoms: C_3  and  C_12
    7  A    between atoms: C_4  and  C_15
    8  A    between atoms: C_11  and  C_14
    9  A    between atoms: C_15  and  C_42
   10  A    between atoms: C_19  and  O_25
                            x       y       z     vdW  Elec       q    Type
                         _______ _______ _______ _____ _____    ______ ____

>  <TORSDO>
F 10

$$$$
