=
 OpenBabel11052422233D

 31 34  0  0  1  0  0  0  0  0999 V2000
  160.9480  204.7970  149.3290 C   0  0  0  0  0  0  0  0  0  0  0  0
  161.4050  208.2260  150.7470 C   0  0  0  0  0  0  0  0  0  0  0  0
  161.0880  208.0340  152.2280 C   0  0  1  0  0  3  0  0  0  0  0  0
  161.3270  206.0890  153.8590 C   0  0  0  0  0  2  0  0  0  0  0  0
  161.3670  207.1410  149.8370 C   0  0  0  0  0  0  0  0  0  0  0  0
  161.3230  205.0100  148.0010 C   0  0  0  0  0  3  0  0  0  0  0  0
  162.0230  206.9880  152.8340 C   0  0  0  0  0  2  0  0  0  0  0  0
  162.0950  209.7050  148.9210 C   0  0  0  0  0  0  0  0  0  0  0  0
  160.4560  203.2030  149.8550 Cl  0  0  0  0  0  0  0  0  0  0  0  0
  160.8550  210.5580  152.3010 C   0  0  0  0  0  2  0  0  0  0  0  0
  160.3620  206.8040  154.8080 C   0  0  0  0  0  2  0  0  0  0  0  0
  162.1030  208.6150  148.0460 C   0  0  0  0  0  3  0  0  0  0  0  0
  161.7080  209.5160  150.2560 C   0  0  0  0  0  0  0  0  0  0  0  0
  160.9690  205.8560  150.2400 C   0  0  0  0  0  3  0  0  0  0  0  0
  160.8900  208.1440  155.2970 C   0  0  0  0  0  2  0  0  0  0  0  0
  161.7310  207.3480  148.4850 C   0  0  0  0  0  0  0  0  0  0  0  0
  161.7130  206.2830  147.5800 C   0  0  0  0  0  3  0  0  0  0  0  0
  161.6040  210.6260  151.0980 O   0  0  0  0  0  0  0  0  0  0  0  0
  161.2490  209.3140  153.0770 C   0  0  1  0  0  3  0  0  0  0  0  0
  160.4260  209.2530  154.3600 C   0  0  0  0  0  2  0  0  0  0  0  0
  160.2670  211.9260  148.1060 N   0  0  0  0  0  2  0  0  0  0  0  0
  161.5500  212.0840  148.0840 C   0  0  0  0  0  0  0  0  0  0  0  0
  162.4400  211.0270  148.4780 N   0  0  0  0  0  2  0  0  0  0  0  0
  161.3880  214.4460  148.3020 F   0  0  0  0  0  0  0  0  0  0  0  0
  162.1130  213.4210  147.7180 C   0  0  2  0  0  3  0  0  0  0  0  0
  163.2900  212.8120  145.7010 O   0  0  0  0  0  1  0  0  0  0  0  0
  162.2870  213.6440  146.2040 C   0  0  1  0  0  3  0  0  0  0  0  0
  161.0250  213.5900  145.3170 C   0  0  0  0  0  0  0  0  0  0  0  0
  159.8980  214.4400  145.8800 C   0  0  0  0  0  1  0  0  0  0  0  0
  161.3220  214.0350  143.8960 C   0  0  0  0  0  1  0  0  0  0  0  0
  160.5860  212.2800  145.2670 F   0  0  0  0  0  0  0  0  0  0  0  0
  1  9  1  0  0  0  0
  1 14  1  0  0  0  0
  2  3  1  0  0  0  0
  3  7  1  1  0  0  0
  3 19  1  0  0  0  0
  4 11  1  0  0  0  0
  5 14  2  0  0  0  0
  5  2  1  0  0  0  0
  6  1  2  0  0  0  0
  7  4  1  0  0  0  0
  8 13  1  0  0  0  0
 11 15  1  0  0  0  0
 12 16  1  0  0  0  0
 12  8  2  0  0  0  0
 13  2  2  0  0  0  0
 13 18  1  0  0  0  0
 16  5  1  0  0  0  0
 17  6  1  0  0  0  0
 17 16  2  0  0  0  0
 18 10  1  0  0  0  0
 19 10  1  6  0  0  0
 19 20  1  0  0  0  0
 20 15  1  0  0  0  0
 22 21  2  0  0  0  0
 22 23  1  0  0  0  0
 23  8  1  0  0  0  0
 25 22  1  0  0  0  0
 25 24  1  6  0  0  0
 27 26  1  6  0  0  0
 27 25  1  0  0  0  0
 28 29  1  0  0  0  0
 28 27  1  0  0  0  0
 30 28  1  0  0  0  0
 31 28  1  0  0  0  0
M  END
>  <MODEL>
1

>  <REMARK>
 VINA RESULT:      -7.9      0.000      0.000
  Name = 
  4 active torsions:
  status: ('A' for Active; 'I' for Inactive)
    1  A    between atoms: C_1  and  C_19
    2  A    between atoms: C_9  and  C_22
    3  A    between atoms: C_15  and  N_23
    4  A    between atoms: C_19  and  C_22
                            x       y       z     vdW  Elec       q    Type
                         _______ _______ _______ _____ _____    ______ ____

>  <TORSDO>
F 4

$$$$
=
 OpenBabel11052422233D

 31 34  0  0  1  0  0  0  0  0999 V2000
  161.1960  204.3360  152.2720 C   0  0  0  0  0  0  0  0  0  0  0  0
  161.5420  205.6800  148.8010 C   0  0  0  0  0  0  0  0  0  0  0  0
  161.4640  204.4260  147.9340 C   0  0  1  0  0  3  0  0  0  0  0  0
  160.2930  202.1730  148.1690 C   0  0  0  0  0  2  0  0  0  0  0  0
  161.4310  205.6110  150.2120 C   0  0  0  0  0  0  0  0  0  0  0  0
  161.1940  205.5190  153.0140 C   0  0  0  0  0  3  0  0  0  0  0  0
  160.1450  203.6960  148.1830 C   0  0  0  0  0  2  0  0  0  0  0  0
  161.7470  208.1150  148.9590 C   0  0  0  0  0  0  0  0  0  0  0  0
  161.0450  202.7940  153.0850 Cl  0  0  0  0  0  0  0  0  0  0  0  0
  162.4500  205.8730  146.1000 C   0  0  0  0  0  2  0  0  0  0  0  0
  161.2110  201.6160  147.0770 C   0  0  0  0  0  2  0  0  0  0  0  0
  161.5840  208.0360  150.3450 C   0  0  0  0  0  3  0  0  0  0  0  0
  161.7660  206.9380  148.1970 C   0  0  0  0  0  0  0  0  0  0  0  0
  161.3150  204.3820  150.8820 C   0  0  0  0  0  3  0  0  0  0  0  0
  161.0360  202.3140  145.7370 C   0  0  0  0  0  2  0  0  0  0  0  0
  161.4420  206.8030  150.9740 C   0  0  0  0  0  0  0  0  0  0  0  0
  161.3180  206.7500  152.3660 C   0  0  0  0  0  3  0  0  0  0  0  0
  162.0310  207.0170  146.8280 O   0  0  0  0  0  0  0  0  0  0  0  0
  161.5340  204.7040  146.4170 C   0  0  1  0  0  3  0  0  0  0  0  0
  162.0080  203.4820  145.6350 C   0  0  0  0  0  2  0  0  0  0  0  0
  161.9190  210.8440  150.1680 N   0  0  0  0  0  2  0  0  0  0  0  0
  162.0080  210.6810  148.8890 C   0  0  0  0  0  0  0  0  0  0  0  0
  161.9330  209.3760  148.2950 N   0  0  0  0  0  2  0  0  0  0  0  0
  163.6310  212.1400  147.9450 F   0  0  0  0  0  0  0  0  0  0  0  0
  162.2760  211.8700  148.0200 C   0  0  2  0  0  3  0  0  0  0  0  0
  162.2880  214.2600  148.3610 O   0  0  0  0  0  1  0  0  0  0  0  0
  161.4700  213.1270  148.3980 C   0  0  1  0  0  3  0  0  0  0  0  0
  160.1400  213.3800  147.6570 C   0  0  0  0  0  0  0  0  0  0  0  0
  159.0250  213.7780  148.6110 C   0  0  0  0  0  1  0  0  0  0  0  0
  160.2890  214.4530  146.5930 C   0  0  0  0  0  1  0  0  0  0  0  0
  159.7640  212.2080  147.0280 F   0  0  0  0  0  0  0  0  0  0  0  0
  1  6  1  0  0  0  0
  1  9  1  0  0  0  0
  2  5  1  0  0  0  0
  3  7  1  6  0  0  0
  3  2  1  0  0  0  0
  4  7  1  0  0  0  0
  5 14  1  0  0  0  0
  5 16  2  0  0  0  0
  8 12  2  0  0  0  0
 10 19  1  0  0  0  0
 10 18  1  0  0  0  0
 11  4  1  0  0  0  0
 12 16  1  0  0  0  0
 13  2  2  0  0  0  0
 13  8  1  0  0  0  0
 14  1  2  0  0  0  0
 15 11  1  0  0  0  0
 16 17  1  0  0  0  0
 17  6  2  0  0  0  0
 18 13  1  0  0  0  0
 19 20  1  6  0  0  0
 19  3  1  0  0  0  0
 20 15  1  0  0  0  0
 22 21  2  0  0  0  0
 23 22  1  0  0  0  0
 23  8  1  0  0  0  0
 25 24  1  1  0  0  0
 25 27  1  0  0  0  0
 25 22  1  0  0  0  0
 27 26  1  6  0  0  0
 28 27  1  0  0  0  0
 28 29  1  0  0  0  0
 30 28  1  0  0  0  0
 31 28  1  0  0  0  0
M  END
>  <MODEL>
2

>  <REMARK>
 VINA RESULT:      -7.3      2.228      5.021
  Name = 
  4 active torsions:
  status: ('A' for Active; 'I' for Inactive)
    1  A    between atoms: C_1  and  C_19
    2  A    between atoms: C_9  and  C_22
    3  A    between atoms: C_15  and  N_23
    4  A    between atoms: C_19  and  C_22
                            x       y       z     vdW  Elec       q    Type
                         _______ _______ _______ _____ _____    ______ ____

>  <TORSDO>
F 4

$$$$
=
 OpenBabel11052422233D

 31 34  0  0  1  0  0  0  0  0999 V2000
  161.1030  202.0490  150.6860 C   0  0  0  0  0  0  0  0  0  0  0  0
  161.4370  205.5110  149.3140 C   0  0  0  0  0  0  0  0  0  0  0  0
  161.6390  205.2740  147.8200 C   0  0  1  0  0  3  0  0  0  0  0  0
  160.8710  203.4750  146.1860 C   0  0  0  0  0  2  0  0  0  0  0  0
  161.2460  204.4330  150.2140 C   0  0  0  0  0  0  0  0  0  0  0  0
  160.8430  202.3220  152.0300 C   0  0  0  0  0  3  0  0  0  0  0  0
  160.4560  204.4970  147.2460 C   0  0  0  0  0  2  0  0  0  0  0  0
  161.1990  207.0800  151.1790 C   0  0  0  0  0  0  0  0  0  0  0  0
  161.1720  200.3930  150.1270 Cl  0  0  0  0  0  0  0  0  0  0  0  0
  162.4750  207.6670  147.7560 C   0  0  0  0  0  2  0  0  0  0  0  0
  161.9440  203.9510  145.2020 C   0  0  0  0  0  2  0  0  0  0  0  0
  160.9600  206.0090  152.0460 C   0  0  0  0  0  3  0  0  0  0  0  0
  161.4760  206.8270  149.8280 C   0  0  0  0  0  0  0  0  0  0  0  0
  161.3040  203.0970  149.7850 C   0  0  0  0  0  3  0  0  0  0  0  0
  161.7380  205.3880  144.7460 C   0  0  0  0  0  2  0  0  0  0  0  0
  160.9960  204.6980  151.5820 C   0  0  0  0  0  0  0  0  0  0  0  0
  160.7900  203.6440  152.4770 C   0  0  0  0  0  3  0  0  0  0  0  0
  161.8130  207.8930  148.9910 O   0  0  0  0  0  0  0  0  0  0  0  0
  161.7610  206.5700  146.9880 C   0  0  1  0  0  3  0  0  0  0  0  0
  162.4940  206.3340  145.6710 C   0  0  0  0  0  2  0  0  0  0  0  0
  160.8300  208.0850  153.9710 N   0  0  0  0  0  2  0  0  0  0  0  0
  161.0190  208.9080  152.9920 C   0  0  0  0  0  0  0  0  0  0  0  0
  161.2030  208.4390  151.6470 N   0  0  0  0  0  2  0  0  0  0  0  0
  162.4030  210.7030  153.7090 F   0  0  0  0  0  0  0  0  0  0  0  0
  161.1290  210.3720  153.2820 C   0  0  2  0  0  3  0  0  0  0  0  0
  160.6400  211.6880  155.2460 O   0  0  0  0  0  1  0  0  0  0  0  0
  160.0520  210.9120  154.2430 C   0  0  1  0  0  3  0  0  0  0  0  0
  158.8320  211.6300  153.6290 C   0  0  0  0  0  0  0  0  0  0  0  0
  157.5830  211.4530  154.4760 C   0  0  0  0  0  1  0  0  0  0  0  0
  159.0960  213.1120  153.4360 C   0  0  0  0  0  1  0  0  0  0  0  0
  158.5850  211.0780  152.3860 F   0  0  0  0  0  0  0  0  0  0  0  0
  1  6  1  0  0  0  0
  2 13  2  0  0  0  0
  2  5  1  0  0  0  0
  3  7  1  6  0  0  0
  3  2  1  0  0  0  0
  4  7  1  0  0  0  0
  5 16  2  0  0  0  0
  6 17  2  0  0  0  0
  8 23  1  0  0  0  0
  8 12  2  0  0  0  0
  9  1  1  0  0  0  0
 10 18  1  0  0  0  0
 11  4  1  0  0  0  0
 13  8  1  0  0  0  0
 14  5  1  0  0  0  0
 14  1  2  0  0  0  0
 15 11  1  0  0  0  0
 15 20  1  0  0  0  0
 16 12  1  0  0  0  0
 16 17  1  0  0  0  0
 18 13  1  0  0  0  0
 19 20  1  6  0  0  0
 19 10  1  0  0  0  0
 19  3  1  0  0  0  0
 22 25  1  0  0  0  0
 22 21  2  0  0  0  0
 23 22  1  0  0  0  0
 25 24  1  1  0  0  0
 25 27  1  0  0  0  0
 27 26  1  1  0  0  0
 28 27  1  0  0  0  0
 28 29  1  0  0  0  0
 30 28  1  0  0  0  0
 31 28  1  0  0  0  0
M  END
>  <MODEL>
3

>  <REMARK>
 VINA RESULT:      -7.2      3.959      6.661
  Name = 
  4 active torsions:
  status: ('A' for Active; 'I' for Inactive)
    1  A    between atoms: C_1  and  C_19
    2  A    between atoms: C_9  and  C_22
    3  A    between atoms: C_15  and  N_23
    4  A    between atoms: C_19  and  C_22
                            x       y       z     vdW  Elec       q    Type
                         _______ _______ _______ _____ _____    ______ ____

>  <TORSDO>
F 4

$$$$
=
 OpenBabel11052422233D

 31 34  0  0  1  0  0  0  0  0999 V2000
  160.9150  206.6380  146.8790 C   0  0  0  0  0  0  0  0  0  0  0  0
  161.1010  204.9070  150.1870 C   0  0  0  0  0  0  0  0  0  0  0  0
  160.8860  203.4400  149.8240 C   0  0  1  0  0  3  0  0  0  0  0  0
  161.4070  202.0230  147.7700 C   0  0  0  0  0  2  0  0  0  0  0  0
  161.1230  205.9180  149.1950 C   0  0  0  0  0  0  0  0  0  0  0  0
  161.1950  207.9530  147.2540 C   0  0  0  0  0  3  0  0  0  0  0  0
  161.9520  202.9830  148.8300 C   0  0  0  0  0  2  0  0  0  0  0  0
  161.5390  206.6050  151.8960 C   0  0  0  0  0  0  0  0  0  0  0  0
  160.6150  206.2520  145.1990 Cl  0  0  0  0  0  0  0  0  0  0  0  0
  160.4040  203.1050  152.2910 C   0  0  0  0  0  2  0  0  0  0  0  0
  160.4270  200.9660  148.2860 C   0  0  0  0  0  2  0  0  0  0  0  0
  161.6100  207.5840  150.9010 C   0  0  0  0  0  3  0  0  0  0  0  0
  161.2460  205.2800  151.5430 C   0  0  0  0  0  0  0  0  0  0  0  0
  160.8790  205.6280  147.8430 C   0  0  0  0  0  3  0  0  0  0  0  0
  160.8440  200.3690  149.6220 C   0  0  0  0  0  2  0  0  0  0  0  0
  161.3920  207.2570  149.5660 C   0  0  0  0  0  0  0  0  0  0  0  0
  161.4310  208.2620  148.5950 C   0  0  0  0  0  3  0  0  0  0  0  0
  161.0770  204.3280  152.5500 O   0  0  0  0  0  0  0  0  0  0  0  0
  160.9630  202.4760  151.0270 C   0  0  1  0  0  3  0  0  0  0  0  0
  160.2210  201.1700  150.7590 C   0  0  0  0  0  2  0  0  0  0  0  0
  160.4700  208.9470  153.4160 N   0  0  0  0  0  2  0  0  0  0  0  0
  161.2090  208.0620  154.0000 C   0  0  0  0  0  0  0  0  0  0  0  0
  161.7250  206.9290  153.2840 N   0  0  0  0  0  2  0  0  0  0  0  0
  161.0330  207.0510  156.1450 F   0  0  0  0  0  0  0  0  0  0  0  0
  161.4620  208.1810  155.4700 C   0  0  2  0  0  3  0  0  0  0  0  0
  160.1510  209.1580  157.2450 O   0  0  0  0  0  1  0  0  0  0  0  0
  160.9050  209.4670  156.1100 C   0  0  1  0  0  3  0  0  0  0  0  0
  161.8930  210.6170  156.3950 C   0  0  0  0  0  0  0  0  0  0  0  0
  161.2110  211.7980  157.0660 C   0  0  0  0  0  1  0  0  0  0  0  0
  163.0520  210.1550  157.2610 C   0  0  0  0  0  1  0  0  0  0  0  0
  162.4110  211.0520  155.1900 F   0  0  0  0  0  0  0  0  0  0  0  0
  1  6  2  0  0  0  0
  1 14  1  0  0  0  0
  2 13  2  0  0  0  0
  3  7  1  6  0  0  0
  3  2  1  0  0  0  0
  3 19  1  0  0  0  0
  4 11  1  0  0  0  0
  4  7  1  0  0  0  0
  5 16  1  0  0  0  0
  5  2  1  0  0  0  0
  6 17  1  0  0  0  0
  8 23  1  0  0  0  0
  9  1  1  0  0  0  0
 10 18  1  0  0  0  0
 11 15  1  0  0  0  0
 12  8  2  0  0  0  0
 13  8  1  0  0  0  0
 13 18  1  0  0  0  0
 14  5  2  0  0  0  0
 15 20  1  0  0  0  0
 16 12  1  0  0  0  0
 17 16  2  0  0  0  0
 19 20  1  6  0  0  0
 19 10  1  0  0  0  0
 21 22  2  0  0  0  0
 22 25  1  0  0  0  0
 23 22  1  0  0  0  0
 25 27  1  0  0  0  0
 25 24  1  1  0  0  0
 27 28  1  0  0  0  0
 27 26  1  1  0  0  0
 28 29  1  0  0  0  0
 28 30  1  0  0  0  0
 31 28  1  0  0  0  0
M  END
>  <MODEL>
4

>  <REMARK>
 VINA RESULT:      -7.2      4.663      7.631
  Name = 
  4 active torsions:
  status: ('A' for Active; 'I' for Inactive)
    1  A    between atoms: C_1  and  C_19
    2  A    between atoms: C_9  and  C_22
    3  A    between atoms: C_15  and  N_23
    4  A    between atoms: C_19  and  C_22
                            x       y       z     vdW  Elec       q    Type
                         _______ _______ _______ _____ _____    ______ ____

>  <TORSDO>
F 4

$$$$
=
 OpenBabel11052422233D

 31 34  0  0  1  0  0  0  0  0999 V2000
  161.2980  212.7920  149.7480 C   0  0  0  0  0  0  0  0  0  0  0  0
  161.3290  209.3790  151.2730 C   0  0  0  0  0  0  0  0  0  0  0  0
  160.9340  209.6440  152.7240 C   0  0  1  0  0  3  0  0  0  0  0  0
  159.4820  211.3920  153.8800 C   0  0  0  0  0  2  0  0  0  0  0  0
  161.4180  210.4310  150.3280 C   0  0  0  0  0  0  0  0  0  0  0  0
  161.5850  212.4880  148.4160 C   0  0  0  0  0  3  0  0  0  0  0  0
  159.5700  210.3310  152.7800 C   0  0  0  0  0  2  0  0  0  0  0  0
  161.9230  207.7800  149.5160 C   0  0  0  0  0  0  0  0  0  0  0  0
  161.0360  214.4530  150.2290 Cl  0  0  0  0  0  0  0  0  0  0  0  0
  161.8470  207.3240  153.1880 C   0  0  0  0  0  2  0  0  0  0  0  0
  160.1330  211.0090  155.2120 C   0  0  0  0  0  2  0  0  0  0  0  0
  161.9560  208.8210  148.5840 C   0  0  0  0  0  3  0  0  0  0  0  0
  161.6500  208.0660  150.8620 C   0  0  0  0  0  0  0  0  0  0  0  0
  161.2160  211.7710  150.6970 C   0  0  0  0  0  3  0  0  0  0  0  0
  159.8700  209.5650  155.6110 C   0  0  0  0  0  2  0  0  0  0  0  0
  161.7220  210.1350  148.9780 C   0  0  0  0  0  0  0  0  0  0  0  0
  161.7980  211.1620  148.0320 C   0  0  0  0  0  3  0  0  0  0  0  0
  161.7190  207.0370  151.8040 O   0  0  0  0  0  0  0  0  0  0  0  0
  160.8210  208.3690  153.5880 C   0  0  1  0  0  3  0  0  0  0  0  0
  160.9830  208.6730  155.0750 C   0  0  0  0  0  2  0  0  0  0  0  0
  160.4080  206.0410  147.6140 N   0  0  0  0  0  2  0  0  0  0  0  0
  161.4570  205.5960  148.2240 C   0  0  0  0  0  0  0  0  0  0  0  0
  162.1980  206.4220  149.1360 N   0  0  0  0  0  2  0  0  0  0  0  0
  162.8120  204.2330  146.8230 F   0  0  0  0  0  0  0  0  0  0  0  0
  161.9540  204.2190  147.9090 C   0  0  2  0  0  3  0  0  0  0  0  0
  160.9740  202.5150  146.5090 O   0  0  0  0  0  1  0  0  0  0  0  0
  160.8420  203.1670  147.7380 C   0  0  1  0  0  3  0  0  0  0  0  0
  160.6260  202.1540  148.8820 C   0  0  0  0  0  0  0  0  0  0  0  0
  161.5420  200.9480  148.7550 C   0  0  0  0  0  1  0  0  0  0  0  0
  160.8350  202.7960  150.2420 C   0  0  0  0  0  1  0  0  0  0  0  0
  159.3200  201.7050  148.8220 F   0  0  0  0  0  0  0  0  0  0  0  0
  1  9  1  0  0  0  0
  1 14  1  0  0  0  0
  2  3  1  0  0  0  0
  3  7  1  6  0  0  0
  3 19  1  0  0  0  0
  4 11  1  0  0  0  0
  5 14  2  0  0  0  0
  5  2  1  0  0  0  0
  6  1  2  0  0  0  0
  7  4  1  0  0  0  0
  8 13  1  0  0  0  0
 11 15  1  0  0  0  0
 12 16  1  0  0  0  0
 12  8  2  0  0  0  0
 13  2  2  0  0  0  0
 13 18  1  0  0  0  0
 16  5  1  0  0  0  0
 17  6  1  0  0  0  0
 17 16  2  0  0  0  0
 18 10  1  0  0  0  0
 19 10  1  6  0  0  0
 19 20  1  0  0  0  0
 20 15  1  0  0  0  0
 21 22  2  0  0  0  0
 22 23  1  0  0  0  0
 23  8  1  0  0  0  0
 25 24  1  6  0  0  0
 25 22  1  0  0  0  0
 27 26  1  6  0  0  0
 27 25  1  0  0  0  0
 27 28  1  0  0  0  0
 28 30  1  0  0  0  0
 29 28  1  0  0  0  0
 31 28  1  0  0  0  0
M  END
>  <MODEL>
5

>  <REMARK>
 VINA RESULT:      -7.1      4.165      7.146
  Name = 
  4 active torsions:
  status: ('A' for Active; 'I' for Inactive)
    1  A    between atoms: C_1  and  C_19
    2  A    between atoms: C_9  and  C_22
    3  A    between atoms: C_15  and  N_23
    4  A    between atoms: C_19  and  C_22
                            x       y       z     vdW  Elec       q    Type
                         _______ _______ _______ _____ _____    ______ ____

>  <TORSDO>
F 4

$$$$
=
 OpenBabel11052422233D

 31 34  0  0  1  0  0  0  0  0999 V2000
  161.1620  205.3880  150.1970 C   0  0  0  0  0  0  0  0  0  0  0  0
  161.0590  208.8630  151.5720 C   0  0  0  0  0  0  0  0  0  0  0  0
  160.6810  208.6460  153.0350 C   0  0  1  0  0  3  0  0  0  0  0  0
  161.0810  206.7710  154.7150 C   0  0  0  0  0  2  0  0  0  0  0  0
  161.2250  207.7730  150.6830 C   0  0  0  0  0  0  0  0  0  0  0  0
  161.5860  205.6350  148.8900 C   0  0  0  0  0  3  0  0  0  0  0  0
  161.7100  207.7450  153.7160 C   0  0  0  0  0  2  0  0  0  0  0  0
  161.6520  210.4010  149.7620 C   0  0  0  0  0  0  0  0  0  0  0  0
  160.8600  203.7480  150.7240 Cl  0  0  0  0  0  0  0  0  0  0  0  0
  160.1010  211.1140  153.0450 C   0  0  0  0  0  2  0  0  0  0  0  0
  159.9710  207.3580  155.5910 C   0  0  0  0  0  2  0  0  0  0  0  0
  161.8630  209.3130  148.9100 C   0  0  0  0  0  3  0  0  0  0  0  0
  161.2130  210.1770  151.0750 C   0  0  0  0  0  0  0  0  0  0  0  0
  160.9820  206.4490  151.0860 C   0  0  0  0  0  3  0  0  0  0  0  0
  160.2810  208.7630  156.0840 C   0  0  0  0  0  2  0  0  0  0  0  0
  161.6410  208.0120  149.3510 C   0  0  0  0  0  0  0  0  0  0  0  0
  161.8240  206.9450  148.4680 C   0  0  0  0  0  3  0  0  0  0  0  0
  160.9070  211.2710  151.8870 O   0  0  0  0  0  0  0  0  0  0  0  0
  160.6130  209.9450  153.8670 C   0  0  1  0  0  3  0  0  0  0  0  0
  159.7280  209.7860  155.1000 C   0  0  0  0  0  2  0  0  0  0  0  0
  163.5150  211.4180  147.6560 N   0  0  0  0  0  2  0  0  0  0  0  0
  162.7440  212.2290  148.3040 C   0  0  0  0  0  0  0  0  0  0  0  0
  161.8400  211.7540  149.3140 N   0  0  0  0  0  2  0  0  0  0  0  0
  162.1830  214.4500  148.9420 F   0  0  0  0  0  0  0  0  0  0  0  0
  162.7370  213.6800  147.9340 C   0  0  2  0  0  3  0  0  0  0  0  0
  162.8050  213.3600  145.5430 O   0  0  0  0  0  1  0  0  0  0  0  0
  162.0920  213.9850  146.5690 C   0  0  1  0  0  3  0  0  0  0  0  0
  160.5750  213.7420  146.4180 C   0  0  0  0  0  0  0  0  0  0  0  0
  160.2550  212.2740  146.1870 C   0  0  0  0  0  1  0  0  0  0  0  0
  159.8080  214.2320  147.6330 C   0  0  0  0  0  1  0  0  0  0  0  0
  160.1300  214.4530  145.3200 F   0  0  0  0  0  0  0  0  0  0  0  0
  1  9  1  0  0  0  0
  1 14  1  0  0  0  0
  2  3  1  0  0  0  0
  3  7  1  1  0  0  0
  3 19  1  0  0  0  0
  4 11  1  0  0  0  0
  5 14  2  0  0  0  0
  5  2  1  0  0  0  0
  6  1  2  0  0  0  0
  7  4  1  0  0  0  0
  8 13  1  0  0  0  0
 11 15  1  0  0  0  0
 12 16  1  0  0  0  0
 12  8  2  0  0  0  0
 13  2  2  0  0  0  0
 13 18  1  0  0  0  0
 16  5  1  0  0  0  0
 17  6  1  0  0  0  0
 17 16  2  0  0  0  0
 18 10  1  0  0  0  0
 19 10  1  6  0  0  0
 19 20  1  0  0  0  0
 20 15  1  0  0  0  0
 21 22  2  0  0  0  0
 22 23  1  0  0  0  0
 23  8  1  0  0  0  0
 25 22  1  0  0  0  0
 25 24  1  1  0  0  0
 27 26  1  6  0  0  0
 27 25  1  0  0  0  0
 28 27  1  0  0  0  0
 28 30  1  0  0  0  0
 29 28  1  0  0  0  0
 31 28  1  0  0  0  0
M  END
>  <MODEL>
6

>  <REMARK>
 VINA RESULT:      -6.5      1.183      1.498
  Name = 
  4 active torsions:
  status: ('A' for Active; 'I' for Inactive)
    1  A    between atoms: C_1  and  C_19
    2  A    between atoms: C_9  and  C_22
    3  A    between atoms: C_15  and  N_23
    4  A    between atoms: C_19  and  C_22
                            x       y       z     vdW  Elec       q    Type
                         _______ _______ _______ _____ _____    ______ ____

>  <TORSDO>
F 4

$$$$
=
 OpenBabel11052422233D

 31 34  0  0  1  0  0  0  0  0999 V2000
  162.1640  210.6510  149.4920 C   0  0  0  0  0  0  0  0  0  0  0  0
  161.2740  207.6210  151.4940 C   0  0  0  0  0  0  0  0  0  0  0  0
  161.2250  208.1530  152.9240 C   0  0  1  0  0  3  0  0  0  0  0  0
  160.6530  210.4090  153.9630 C   0  0  0  0  0  2  0  0  0  0  0  0
  161.5650  208.4720  150.3990 C   0  0  0  0  0  0  0  0  0  0  0  0
  162.1170  210.1330  148.1960 C   0  0  0  0  0  3  0  0  0  0  0  0
  160.2020  209.2820  153.0310 C   0  0  0  0  0  2  0  0  0  0  0  0
  161.0070  205.7490  149.9380 C   0  0  0  0  0  0  0  0  0  0  0  0
  162.5590  212.3350  149.7480 Cl  0  0  0  0  0  0  0  0  0  0  0  0
  161.3590  205.7180  153.6210 C   0  0  0  0  0  2  0  0  0  0  0  0
  161.3360  209.9540  155.2560 C   0  0  0  0  0  2  0  0  0  0  0  0
  161.2440  206.6110  148.8640 C   0  0  0  0  0  3  0  0  0  0  0  0
  161.0620  206.2450  151.2490 C   0  0  0  0  0  0  0  0  0  0  0  0
  161.8900  209.8260  150.5850 C   0  0  0  0  0  3  0  0  0  0  0  0
  160.6650  208.7460  155.8910 C   0  0  0  0  0  2  0  0  0  0  0  0
  161.5350  207.9550  149.0820 C   0  0  0  0  0  0  0  0  0  0  0  0
  161.8050  208.7870  147.9920 C   0  0  0  0  0  3  0  0  0  0  0  0
  160.9250  205.3590  152.3190 O   0  0  0  0  0  0  0  0  0  0  0  0
  160.8240  207.0940  153.9750 C   0  0  1  0  0  3  0  0  0  0  0  0
  161.3110  207.4670  155.3720 C   0  0  0  0  0  2  0  0  0  0  0  0
  161.8280  204.0170  147.6440 N   0  0  0  0  0  2  0  0  0  0  0  0
  161.1390  203.5320  148.6240 C   0  0  0  0  0  0  0  0  0  0  0  0
  160.7420  204.3510  149.7350 N   0  0  0  0  0  2  0  0  0  0  0  0
  161.2430  201.4750  149.8120 F   0  0  0  0  0  0  0  0  0  0  0  0
  160.8190  202.0700  148.6370 C   0  0  2  0  0  3  0  0  0  0  0  0
  161.6750  199.9940  147.7520 O   0  0  0  0  0  1  0  0  0  0  0  0
  161.3200  201.2990  147.4010 C   0  0  1  0  0  3  0  0  0  0  0  0
  160.4360  201.3120  146.1360 C   0  0  0  0  0  0  0  0  0  0  0  0
  160.7150  202.5220  145.2600 C   0  0  0  0  0  1  0  0  0  0  0  0
  160.6210  200.0500  145.3130 C   0  0  0  0  0  1  0  0  0  0  0  0
  159.1130  201.3690  146.5330 F   0  0  0  0  0  0  0  0  0  0  0  0
  1  9  1  0  0  0  0
  1 14  1  0  0  0  0
  2  3  1  0  0  0  0
  3  7  1  6  0  0  0
  3 19  1  0  0  0  0
  4 11  1  0  0  0  0
  5 14  2  0  0  0  0
  5  2  1  0  0  0  0
  6  1  2  0  0  0  0
  7  4  1  0  0  0  0
  8 13  1  0  0  0  0
 11 15  1  0  0  0  0
 12 16  1  0  0  0  0
 12  8  2  0  0  0  0
 13  2  2  0  0  0  0
 13 18  1  0  0  0  0
 16  5  1  0  0  0  0
 17  6  1  0  0  0  0
 17 16  2  0  0  0  0
 18 10  1  0  0  0  0
 19 10  1  6  0  0  0
 19 20  1  0  0  0  0
 20 15  1  0  0  0  0
 21 22  2  0  0  0  0
 22 25  1  0  0  0  0
 22 23  1  0  0  0  0
 23  8  1  0  0  0  0
 25 24  1  1  0  0  0
 27 26  1  1  0  0  0
 27 25  1  0  0  0  0
 28 31  1  0  0  0  0
 28 27  1  0  0  0  0
 29 28  1  0  0  0  0
 30 28  1  0  0  0  0
M  END
>  <MODEL>
7

>  <REMARK>
 VINA RESULT:      -6.3      4.951      7.514
  Name = 
  4 active torsions:
  status: ('A' for Active; 'I' for Inactive)
    1  A    between atoms: C_1  and  C_19
    2  A    between atoms: C_9  and  C_22
    3  A    between atoms: C_15  and  N_23
    4  A    between atoms: C_19  and  C_22
                            x       y       z     vdW  Elec       q    Type
                         _______ _______ _______ _____ _____    ______ ____

>  <TORSDO>
F 4

$$$$
=
 OpenBabel11052422233D

 31 34  0  0  1  0  0  0  0  0999 V2000
  161.2920  200.9600  148.8690 C   0  0  0  0  0  0  0  0  0  0  0  0
  161.0540  204.6700  148.4780 C   0  0  0  0  0  0  0  0  0  0  0  0
  161.2360  204.8730  146.9760 C   0  0  1  0  0  3  0  0  0  0  0  0
  160.6890  203.4770  144.9150 C   0  0  0  0  0  2  0  0  0  0  0  0
  161.0590  203.3760  149.0550 C   0  0  0  0  0  0  0  0  0  0  0  0
  161.0420  200.8220  150.2350 C   0  0  0  0  0  3  0  0  0  0  0  0
  160.1630  204.1040  146.2080 C   0  0  0  0  0  2  0  0  0  0  0  0
  160.6490  205.6310  150.6940 C   0  0  0  0  0  0  0  0  0  0  0  0
  161.5890  199.5430  147.8870 Cl  0  0  0  0  0  0  0  0  0  0  0  0
  161.7000  207.2960  147.5620 C   0  0  0  0  0  2  0  0  0  0  0  0
  161.6420  204.3570  144.1020 C   0  0  0  0  0  2  0  0  0  0  0  0
  160.6050  204.3450  151.2400 C   0  0  0  0  0  3  0  0  0  0  0  0
  160.9130  205.7920  149.3260 C   0  0  0  0  0  0  0  0  0  0  0  0
  161.3010  202.2270  148.2830 C   0  0  0  0  0  3  0  0  0  0  0  0
  161.2060  205.8140  144.0460 C   0  0  0  0  0  2  0  0  0  0  0  0
  160.8200  203.2260  150.4420 C   0  0  0  0  0  0  0  0  0  0  0  0
  160.8070  201.9530  151.0200 C   0  0  0  0  0  3  0  0  0  0  0  0
  161.0560  207.0810  148.8080 O   0  0  0  0  0  0  0  0  0  0  0  0
  161.1310  206.3460  146.5230 C   0  0  1  0  0  3  0  0  0  0  0  0
  161.8440  206.5850  145.1950 C   0  0  0  0  0  2  0  0  0  0  0  0
  162.6670  207.7040  151.4470 N   0  0  0  0  0  2  0  0  0  0  0  0
  161.4480  207.7860  151.8670 C   0  0  0  0  0  0  0  0  0  0  0  0
  160.4660  206.8000  151.5090 N   0  0  0  0  0  2  0  0  0  0  0  0
  161.2780  210.1540  151.9920 F   0  0  0  0  0  0  0  0  0  0  0  0
  161.0340  208.9760  152.6750 C   0  0  2  0  0  3  0  0  0  0  0  0
  162.1230  210.2880  154.3830 O   0  0  0  0  0  1  0  0  0  0  0  0
  161.6250  209.0140  154.0970 C   0  0  1  0  0  3  0  0  0  0  0  0
  160.7520  208.4870  155.2560 C   0  0  0  0  0  0  0  0  0  0  0  0
  161.5820  208.1360  156.4790 C   0  0  0  0  0  1  0  0  0  0  0  0
  159.6840  209.4910  155.6510 C   0  0  0  0  0  1  0  0  0  0  0  0
  160.1150  207.3370  154.8290 F   0  0  0  0  0  0  0  0  0  0  0  0
  1  6  1  0  0  0  0
  2  5  2  0  0  0  0
  2 13  1  0  0  0  0
  3  7  1  6  0  0  0
  3  2  1  0  0  0  0
  4  7  1  0  0  0  0
  5 16  1  0  0  0  0
  6 17  2  0  0  0  0
  8 12  1  0  0  0  0
  8 23  1  0  0  0  0
  9  1  1  0  0  0  0
 10 18  1  0  0  0  0
 11  4  1  0  0  0  0
 13  8  2  0  0  0  0
 14  1  2  0  0  0  0
 14  5  1  0  0  0  0
 15 11  1  0  0  0  0
 15 20  1  0  0  0  0
 16 17  1  0  0  0  0
 16 12  2  0  0  0  0
 18 13  1  0  0  0  0
 19 20  1  6  0  0  0
 19  3  1  0  0  0  0
 19 10  1  0  0  0  0
 21 22  2  0  0  0  0
 22 25  1  0  0  0  0
 23 22  1  0  0  0  0
 25 24  1  6  0  0  0
 25 27  1  0  0  0  0
 27 26  1  1  0  0  0
 27 28  1  0  0  0  0
 28 30  1  0  0  0  0
 28 29  1  0  0  0  0
 31 28  1  0  0  0  0
M  END
>  <MODEL>
8

>  <REMARK>
 VINA RESULT:      -6.0      4.083      7.534
  Name = 
  4 active torsions:
  status: ('A' for Active; 'I' for Inactive)
    1  A    between atoms: C_1  and  C_19
    2  A    between atoms: C_9  and  C_22
    3  A    between atoms: C_15  and  N_23
    4  A    between atoms: C_19  and  C_22
                            x       y       z     vdW  Elec       q    Type
                         _______ _______ _______ _____ _____    ______ ____

>  <TORSDO>
F 4

$$$$
=
 OpenBabel11052422233D

 31 34  0  0  1  0  0  0  0  0999 V2000
  160.5170  208.9720  154.9050 C   0  0  0  0  0  0  0  0  0  0  0  0
  161.3460  207.3660  151.6320 C   0  0  0  0  0  0  0  0  0  0  0  0
  161.5200  208.5580  150.6950 C   0  0  1  0  0  3  0  0  0  0  0  0
  162.2980  210.9650  151.0080 C   0  0  0  0  0  2  0  0  0  0  0  0
  161.0370  207.5430  153.0040 C   0  0  0  0  0  0  0  0  0  0  0  0
  160.4470  207.8530  155.7370 C   0  0  0  0  0  3  0  0  0  0  0  0
  162.6160  209.4840  151.2210 C   0  0  0  0  0  2  0  0  0  0  0  0
  161.3940  204.9420  151.9800 C   0  0  0  0  0  0  0  0  0  0  0  0
  160.2450  210.5690  155.5620 Cl  0  0  0  0  0  0  0  0  0  0  0  0
  161.2810  206.8660  148.8210 C   0  0  0  0  0  2  0  0  0  0  0  0
  161.6730  211.3120  149.6530 C   0  0  0  0  0  2  0  0  0  0  0  0
  161.1420  205.1350  153.3410 C   0  0  0  0  0  3  0  0  0  0  0  0
  161.4550  206.0510  151.1240 C   0  0  0  0  0  0  0  0  0  0  0  0
  160.8100  208.8170  153.5480 C   0  0  0  0  0  3  0  0  0  0  0  0
  162.3080  210.5590  148.4940 C   0  0  0  0  0  2  0  0  0  0  0  0
  160.9500  206.4140  153.8540 C   0  0  0  0  0  0  0  0  0  0  0  0
  160.6620  206.5770  155.2120 C   0  0  0  0  0  3  0  0  0  0  0  0
  161.6070  205.8450  149.7510 O   0  0  0  0  0  0  0  0  0  0  0  0
  161.9220  208.1720  149.2550 C   0  0  1  0  0  3  0  0  0  0  0  0
  161.5510  209.2590  148.2500 C   0  0  0  0  0  2  0  0  0  0  0  0
  159.4110  203.3120  150.4480 N   0  0  0  0  0  2  0  0  0  0  0  0
  160.5930  202.8530  150.6950 C   0  0  0  0  0  0  0  0  0  0  0  0
  161.5580  203.6270  151.4250 N   0  0  0  0  0  2  0  0  0  0  0  0
  161.7900  200.8250  151.0260 F   0  0  0  0  0  0  0  0  0  0  0  0
  160.9890  201.5210  150.1380 C   0  0  2  0  0  3  0  0  0  0  0  0
  162.1720  200.3430  148.3950 O   0  0  0  0  0  1  0  0  0  0  0  0
  161.6210  201.5810  148.7350 C   0  0  1  0  0  3  0  0  0  0  0  0
  160.7620  202.1410  147.5800 C   0  0  0  0  0  0  0  0  0  0  0  0
  161.0940  203.5930  147.2780 C   0  0  0  0  0  1  0  0  0  0  0  0
  160.9260  201.3200  146.3140 C   0  0  0  0  0  1  0  0  0  0  0  0
  159.4340  202.0770  147.9580 F   0  0  0  0  0  0  0  0  0  0  0  0
  1  9  1  0  0  0  0
  1  6  1  0  0  0  0
  2  5  1  0  0  0  0
  3  7  1  1  0  0  0
  3  2  1  0  0  0  0
  4  7  1  0  0  0  0
  5 14  1  0  0  0  0
  5 16  2  0  0  0  0
  8 12  2  0  0  0  0
 10 19  1  0  0  0  0
 10 18  1  0  0  0  0
 11  4  1  0  0  0  0
 12 16  1  0  0  0  0
 13  2  2  0  0  0  0
 13  8  1  0  0  0  0
 14  1  2  0  0  0  0
 15 11  1  0  0  0  0
 16 17  1  0  0  0  0
 17  6  2  0  0  0  0
 18 13  1  0  0  0  0
 19 20  1  6  0  0  0
 19  3  1  0  0  0  0
 20 15  1  0  0  0  0
 21 22  2  0  0  0  0
 22 23  1  0  0  0  0
 23  8  1  0  0  0  0
 25 22  1  0  0  0  0
 25 24  1  1  0  0  0
 27 26  1  6  0  0  0
 27 25  1  0  0  0  0
 28 31  1  0  0  0  0
 28 27  1  0  0  0  0
 29 28  1  0  0  0  0
 30 28  1  0  0  0  0
M  END
>  <MODEL>
9

>  <REMARK>
 VINA RESULT:      -6.0      4.837      8.228
  Name = 
  4 active torsions:
  status: ('A' for Active; 'I' for Inactive)
    1  A    between atoms: C_1  and  C_19
    2  A    between atoms: C_9  and  C_22
    3  A    between atoms: C_15  and  N_23
    4  A    between atoms: C_19  and  C_22
                            x       y       z     vdW  Elec       q    Type
                         _______ _______ _______ _____ _____    ______ ____

>  <TORSDO>
F 4

$$$$
