=
 OpenBabel11062407413D

 27 29  0  0  1  0  0  0  0  0999 V2000
  160.7960  205.4870  151.0300 C   0  0  2  0  0  3  0  0  0  0  0  0
  160.4480  204.0020  150.8480 C   0  0  0  0  0  2  0  0  0  0  0  0
  160.8730  205.6070  148.5230 C   0  0  2  0  0  3  0  0  0  0  0  0
  161.5030  208.1960  148.5690 N   0  0  0  0  0  0  0  0  0  0  0  0
  162.7010  205.1950  147.0140 O   0  0  0  0  0  1  0  0  0  0  0  0
  161.9450  209.5830  148.5800 C   0  0  0  0  0  1  0  0  0  0  0  0
  160.9680  203.4690  149.4970 C   0  0  2  0  0  3  0  0  0  0  0  0
  161.5640  206.0420  149.8310 C   0  0  1  0  0  3  0  0  0  0  0  0
  160.4650  204.2460  148.4240 O   0  0  0  0  0  0  0  0  0  0  0  0
  162.2380  207.4890  147.5150 C   0  0  0  0  0  2  0  0  0  0  0  0
  163.0540  207.8380  150.3390 O   0  0  0  0  0  1  0  0  0  0  0  0
  161.7570  207.5670  149.8840 C   0  0  1  0  0  3  0  0  0  0  0  0
  161.6590  206.0810  147.2950 C   0  0  2  0  0  3  0  0  0  0  0  0
  161.2570  201.1710  150.4630 C   0  0  0  0  0  1  0  0  0  0  0  0
  160.7080  201.9600  149.2750 C   0  0  2  0  0  0  0  0  0  0  0  0
  161.6240  200.1040  148.0070 O   0  0  0  0  0  1  0  0  0  0  0  0
  160.8220  201.8930  146.8460 O   0  0  0  0  0  1  0  0  0  0  0  0
  161.4690  201.4940  148.0180 C   0  0  0  0  0  3  0  0  0  0  0  0
  158.7870  200.6390  149.9610 O   0  0  0  0  0  1  0  0  0  0  0  0
  159.2100  201.6600  149.1070 C   0  0  0  0  0  2  0  0  0  0  0  0
  161.4970  205.7080  152.2590 O   0  0  0  0  0  0  0  0  0  0  0  0
  160.4190  208.4560  155.2080 N   0  0  0  0  0  0  0  0  0  0  0  0
  161.1400  206.6530  153.2340 C   0  0  0  0  0  0  0  0  0  0  0  0
  160.7790  206.2020  154.5050 C   0  0  0  0  0  3  0  0  0  0  0  0
  160.4190  207.1250  155.4890 C   0  0  0  0  0  3  0  0  0  0  0  0
  160.7640  208.9230  153.9780 C   0  0  0  0  0  3  0  0  0  0  0  0
  161.1310  208.0310  152.9690 C   0  0  0  0  0  3  0  0  0  0  0  0
  1 21  1  1  0  0  0
  2  1  1  0  0  0  0
  3  9  1  1  0  0  0
  3  8  1  0  0  0  0
  4  6  1  0  0  0  0
  4 12  1  0  0  0  0
  5 13  1  0  0  0  0
  7 15  1  6  0  0  0
  7  2  1  0  0  0  0
  8 12  1  0  0  0  0
  8  1  1  0  0  0  0
  9  7  1  0  0  0  0
 10  4  1  0  0  0  0
 12 11  1  0  0  0  0
 13 10  1  0  0  0  0
 13  3  1  0  0  0  0
 15 14  1  0  0  0  0
 16 18  1  0  0  0  0
 17 18  1  0  0  0  0
 18 15  1  0  0  0  0
 20 15  1  0  0  0  0
 20 19  1  0  0  0  0
 21 23  1  0  0  0  0
 22 25  1  0  0  0  0
 23 24  1  0  0  0  0
 24 25  2  0  0  0  0
 26 22  2  0  0  0  0
 27 23  2  0  0  0  0
 27 26  1  0  0  0  0
M  END
>  <MODEL>
1

>  <REMARK>
 VINA RESULT:      -7.0      0.000      0.000
  Name = 
  5 active torsions:
  status: ('A' for Active; 'I' for Inactive)
    1  A    between atoms: C_1  and  O_15
    2  A    between atoms: C_9  and  O_15
    3  A    between atoms: C_14  and  C_17
    4  A    between atoms: C_16  and  C_17
    5  A    between atoms: C_17  and  C_21
                            x       y       z     vdW  Elec       q    Type
                         _______ _______ _______ _____ _____    ______ ____

>  <TORSDO>
F 5

$$$$
=
 OpenBabel11062407413D

 27 29  0  0  1  0  0  0  0  0999 V2000
  161.2420  206.1330  152.3320 C   0  0  2  0  0  3  0  0  0  0  0  0
  161.0560  206.5390  153.8010 C   0  0  0  0  0  2  0  0  0  0  0  0
  162.0990  208.4660  151.9680 C   0  0  2  0  0  3  0  0  0  0  0  0
  162.4980  208.0180  149.3710 N   0  0  0  0  0  0  0  0  0  0  0  0
  160.9030  210.4820  151.4300 O   0  0  0  0  0  1  0  0  0  0  0  0
  162.6270  207.8210  147.9350 C   0  0  0  0  0  1  0  0  0  0  0  0
  160.8860  208.0660  153.9410 C   0  0  2  0  0  3  0  0  0  0  0  0
  161.2070  207.3440  151.4000 C   0  0  1  0  0  3  0  0  0  0  0  0
  161.9810  208.7490  153.3590 O   0  0  0  0  0  0  0  0  0  0  0  0
  161.9740  209.3680  149.6040 C   0  0  0  0  0  2  0  0  0  0  0  0
  160.4110  206.8870  149.1950 O   0  0  0  0  0  1  0  0  0  0  0  0
  161.5860  207.0050  149.9480 C   0  0  1  0  0  3  0  0  0  0  0  0
  162.0280  209.7260  151.0990 C   0  0  2  0  0  3  0  0  0  0  0  0
  160.1740  207.3510  156.2400 C   0  0  0  0  0  1  0  0  0  0  0  0
  160.6290  208.5380  155.3920 C   0  0  2  0  0  0  0  0  0  0  0  0
  159.3150  210.1370  156.6610 O   0  0  0  0  0  1  0  0  0  0  0  0
  159.7100  210.5900  154.4640 O   0  0  0  0  0  1  0  0  0  0  0  0
  159.4850  209.5720  155.3930 C   0  0  0  0  0  3  0  0  0  0  0  0
  162.2290  208.5460  157.2220 O   0  0  0  0  0  1  0  0  0  0  0  0
  161.8860  209.1650  156.0170 C   0  0  0  0  0  2  0  0  0  0  0  0
  160.2900  205.1360  151.9450 O   0  0  0  0  0  0  0  0  0  0  0  0
  161.2590  201.4950  150.1510 N   0  0  0  0  0  0  0  0  0  0  0  0
  160.6040  203.9200  151.3190 C   0  0  0  0  0  0  0  0  0  0  0  0
  161.2380  202.9240  152.0660 C   0  0  0  0  0  3  0  0  0  0  0  0
  161.5610  201.7080  151.4610 C   0  0  0  0  0  3  0  0  0  0  0  0
  160.6440  202.4470  149.4000 C   0  0  0  0  0  3  0  0  0  0  0  0
  160.3050  203.6760  149.9700 C   0  0  0  0  0  3  0  0  0  0  0  0
  1 21  1  6  0  0  0
  1  2  1  0  0  0  0
  2  7  1  0  0  0  0
  3  9  1  1  0  0  0
  4 10  1  0  0  0  0
  4 12  1  0  0  0  0
  6  4  1  0  0  0  0
  7 15  1  1  0  0  0
  8  3  1  0  0  0  0
  8  1  1  0  0  0  0
  9  7  1  0  0  0  0
 10 13  1  0  0  0  0
 11 12  1  0  0  0  0
 12  8  1  0  0  0  0
 13  5  1  0  0  0  0
 13  3  1  0  0  0  0
 15 18  1  0  0  0  0
 15 20  1  0  0  0  0
 15 14  1  0  0  0  0
 17 18  1  0  0  0  0
 18 16  1  0  0  0  0
 20 19  1  0  0  0  0
 22 25  1  0  0  0  0
 23 21  1  0  0  0  0
 23 24  1  0  0  0  0
 25 24  2  0  0  0  0
 26 27  1  0  0  0  0
 26 22  2  0  0  0  0
 27 23  2  0  0  0  0
M  END
>  <MODEL>
2

>  <REMARK>
 VINA RESULT:      -6.7      2.881      6.960
  Name = 
  5 active torsions:
  status: ('A' for Active; 'I' for Inactive)
    1  A    between atoms: C_1  and  O_15
    2  A    between atoms: C_9  and  O_15
    3  A    between atoms: C_14  and  C_17
    4  A    between atoms: C_16  and  C_17
    5  A    between atoms: C_17  and  C_21
                            x       y       z     vdW  Elec       q    Type
                         _______ _______ _______ _____ _____    ______ ____

>  <TORSDO>
F 5

$$$$
=
 OpenBabel11062407413D

 27 29  0  0  1  0  0  0  0  0999 V2000
  161.3360  209.9580  150.9030 C   0  0  2  0  0  3  0  0  0  0  0  0
  161.2330  210.4660  152.3490 C   0  0  0  0  0  2  0  0  0  0  0  0
  160.7270  207.7030  151.8260 C   0  0  2  0  0  3  0  0  0  0  0  0
  160.8570  206.5740  149.4140 N   0  0  0  0  0  0  0  0  0  0  0  0
  162.1370  205.9660  152.7090 O   0  0  0  0  0  1  0  0  0  0  0  0
  161.0220  205.9240  148.1230 C   0  0  0  0  0  1  0  0  0  0  0  0
  161.4680  209.3240  153.3590 C   0  0  2  0  0  3  0  0  0  0  0  0
  161.6440  208.4630  150.8470 C   0  0  1  0  0  3  0  0  0  0  0  0
  160.5660  208.2560  153.1280 O   0  0  0  0  0  0  0  0  0  0  0  0
  161.4070  205.6890  150.4470 C   0  0  0  0  0  2  0  0  0  0  0  0
  162.8570  207.7630  148.9110 O   0  0  0  0  0  1  0  0  0  0  0  0
  161.5600  207.8770  149.4270 C   0  0  1  0  0  3  0  0  0  0  0  0
  161.0610  206.2080  151.8530 C   0  0  2  0  0  3  0  0  0  0  0  0
  161.3930  208.5510  155.7460 C   0  0  0  0  0  1  0  0  0  0  0  0
  161.4420  209.7790  154.8380 C   0  0  2  0  0  0  0  0  0  0  0  0
  159.3450  209.9730  156.0450 O   0  0  0  0  0  1  0  0  0  0  0  0
  160.4520  211.8930  155.5200 O   0  0  0  0  0  1  0  0  0  0  0  0
  160.1600  210.5960  155.0940 C   0  0  0  0  0  3  0  0  0  0  0  0
  163.1470  210.3470  156.4740 O   0  0  0  0  0  1  0  0  0  0  0  0
  162.6710  210.6320  155.1920 C   0  0  0  0  0  2  0  0  0  0  0  0
  162.2810  210.7260  150.1510 O   0  0  0  0  0  0  0  0  0  0  0  0
  161.3700  213.7130  147.3830 N   0  0  0  0  0  0  0  0  0  0  0  0
  161.9530  211.7390  149.2350 C   0  0  0  0  0  0  0  0  0  0  0  0
  162.7100  211.8570  148.0670 C   0  0  0  0  0  3  0  0  0  0  0  0
  162.4020  212.8590  147.1440 C   0  0  0  0  0  3  0  0  0  0  0  0
  160.6180  213.6210  148.5120 C   0  0  0  0  0  3  0  0  0  0  0  0
  160.8950  212.6330  149.4580 C   0  0  0  0  0  3  0  0  0  0  0  0
  1 21  1  6  0  0  0
  1  2  1  0  0  0  0
  2  7  1  0  0  0  0
  3 13  1  0  0  0  0
  3  9  1  1  0  0  0
  4 12  1  0  0  0  0
  4 10  1  0  0  0  0
  6  4  1  0  0  0  0
  7 15  1  1  0  0  0
  8  1  1  0  0  0  0
  8  3  1  0  0  0  0
  9  7  1  0  0  0  0
 10 13  1  0  0  0  0
 11 12  1  0  0  0  0
 12  8  1  0  0  0  0
 13  5  1  0  0  0  0
 15 18  1  0  0  0  0
 15 20  1  0  0  0  0
 15 14  1  0  0  0  0
 18 17  1  0  0  0  0
 18 16  1  0  0  0  0
 20 19  1  0  0  0  0
 22 26  1  0  0  0  0
 23 27  1  0  0  0  0
 23 21  1  0  0  0  0
 24 23  2  0  0  0  0
 25 22  2  0  0  0  0
 25 24  1  0  0  0  0
 26 27  2  0  0  0  0
M  END
>  <MODEL>
3

>  <REMARK>
 VINA RESULT:      -6.6      3.515      7.773
  Name = 
  5 active torsions:
  status: ('A' for Active; 'I' for Inactive)
    1  A    between atoms: C_1  and  O_15
    2  A    between atoms: C_9  and  O_15
    3  A    between atoms: C_14  and  C_17
    4  A    between atoms: C_16  and  C_17
    5  A    between atoms: C_17  and  C_21
                            x       y       z     vdW  Elec       q    Type
                         _______ _______ _______ _____ _____    ______ ____

>  <TORSDO>
F 5

$$$$
=
 OpenBabel11062407413D

 27 29  0  0  1  0  0  0  0  0999 V2000
  161.2970  209.9810  150.9970 C   0  0  2  0  0  3  0  0  0  0  0  0
  161.1910  210.5160  152.4320 C   0  0  0  0  0  2  0  0  0  0  0  0
  160.7170  207.7380  151.9660 C   0  0  2  0  0  3  0  0  0  0  0  0
  160.8550  206.5620  149.5770 N   0  0  0  0  0  0  0  0  0  0  0  0
  162.1510  206.0350  152.8790 O   0  0  0  0  0  1  0  0  0  0  0  0
  161.0240  205.8890  148.2990 C   0  0  0  0  0  1  0  0  0  0  0  0
  161.4430  209.3970  153.4650 C   0  0  2  0  0  3  0  0  0  0  0  0
  161.6230  208.4880  150.9700 C   0  0  1  0  0  3  0  0  0  0  0  0
  160.5540  208.3140  153.2580 O   0  0  0  0  0  0  0  0  0  0  0  0
  161.4170  205.7050  150.6260 C   0  0  0  0  0  2  0  0  0  0  0  0
  162.8390  207.7650  149.0450 O   0  0  0  0  0  1  0  0  0  0  0  0
  161.5410  207.8730  149.5620 C   0  0  1  0  0  3  0  0  0  0  0  0
  161.0690  206.2470  152.0230 C   0  0  2  0  0  3  0  0  0  0  0  0
  162.7150  210.6230  155.2480 C   0  0  0  0  0  1  0  0  0  0  0  0
  161.4160  209.8810  154.9340 C   0  0  2  0  0  0  0  0  0  0  0  0
  162.3160  208.7300  156.8720 O   0  0  0  0  0  1  0  0  0  0  0  0
  160.0850  208.5320  156.4590 O   0  0  0  0  0  1  0  0  0  0  0  0
  161.3440  208.6580  155.8690 C   0  0  0  0  0  3  0  0  0  0  0  0
  160.6230  212.0480  155.6970 O   0  0  0  0  0  1  0  0  0  0  0  0
  160.2180  210.8040  155.2070 C   0  0  0  0  0  2  0  0  0  0  0  0
  162.2300  210.7450  150.2260 O   0  0  0  0  0  0  0  0  0  0  0  0
  161.2770  213.6800  147.4180 N   0  0  0  0  0  0  0  0  0  0  0  0
  161.8880  211.7400  149.2970 C   0  0  0  0  0  0  0  0  0  0  0  0
  162.6350  211.8450  148.1220 C   0  0  0  0  0  3  0  0  0  0  0  0
  162.3130  212.8300  147.1850 C   0  0  0  0  0  3  0  0  0  0  0  0
  160.5340  213.6010  148.5540 C   0  0  0  0  0  3  0  0  0  0  0  0
  160.8260  212.6300  149.5140 C   0  0  0  0  0  3  0  0  0  0  0  0
  1 21  1  6  0  0  0
  1  2  1  0  0  0  0
  2  7  1  0  0  0  0
  3 13  1  0  0  0  0
  3  9  1  1  0  0  0
  4 10  1  0  0  0  0
  6  4  1  0  0  0  0
  7 15  1  1  0  0  0
  8  1  1  0  0  0  0
  8  3  1  0  0  0  0
  9  7  1  0  0  0  0
 10 13  1  0  0  0  0
 11 12  1  0  0  0  0
 12  4  1  0  0  0  0
 12  8  1  0  0  0  0
 13  5  1  0  0  0  0
 15 20  1  0  0  0  0
 15 14  1  0  0  0  0
 15 18  1  0  0  0  0
 18 17  1  0  0  0  0
 18 16  1  0  0  0  0
 20 19  1  0  0  0  0
 22 26  1  0  0  0  0
 23 27  1  0  0  0  0
 23 21  1  0  0  0  0
 24 23  2  0  0  0  0
 25 22  2  0  0  0  0
 25 24  1  0  0  0  0
 26 27  2  0  0  0  0
M  END
>  <MODEL>
4

>  <REMARK>
 VINA RESULT:      -6.6      3.533      7.700
  Name = 
  5 active torsions:
  status: ('A' for Active; 'I' for Inactive)
    1  A    between atoms: C_1  and  O_15
    2  A    between atoms: C_9  and  O_15
    3  A    between atoms: C_14  and  C_17
    4  A    between atoms: C_16  and  C_17
    5  A    between atoms: C_17  and  C_21
                            x       y       z     vdW  Elec       q    Type
                         _______ _______ _______ _____ _____    ______ ____

>  <TORSDO>
F 5

$$$$
=
 OpenBabel11062407413D

 27 29  0  0  1  0  0  0  0  0999 V2000
  162.0030  209.8080  149.8390 C   0  0  2  0  0  3  0  0  0  0  0  0
  162.0400  208.6870  148.7890 C   0  0  0  0  0  2  0  0  0  0  0  0
  162.1680  207.9810  151.5540 C   0  0  2  0  0  3  0  0  0  0  0  0
  162.1050  209.7300  153.5650 N   0  0  0  0  0  0  0  0  0  0  0  0
  160.4310  206.7030  152.6190 O   0  0  0  0  0  1  0  0  0  0  0  0
  161.9700  210.6630  154.6730 C   0  0  0  0  0  1  0  0  0  0  0  0
  161.5360  207.3540  149.3790 C   0  0  2  0  0  3  0  0  0  0  0  0
  161.4780  209.3080  151.1840 C   0  0  1  0  0  3  0  0  0  0  0  0
  162.2830  206.9990  150.5290 O   0  0  0  0  0  0  0  0  0  0  0  0
  161.3280  208.5260  153.8820 C   0  0  0  0  0  2  0  0  0  0  0  0
  160.3680  210.9630  152.5020 O   0  0  0  0  0  1  0  0  0  0  0  0
  161.6110  210.3450  152.3120 C   0  0  1  0  0  3  0  0  0  0  0  0
  161.6100  207.4090  152.8620 C   0  0  2  0  0  3  0  0  0  0  0  0
  160.2070  206.3050  147.5260 C   0  0  0  0  0  1  0  0  0  0  0  0
  161.4860  206.1940  148.3550 C   0  0  2  0  0  0  0  0  0  0  0  0
  160.2770  204.7610  149.8970 O   0  0  0  0  0  1  0  0  0  0  0  0
  161.4790  203.7650  148.2380 O   0  0  0  0  0  1  0  0  0  0  0  0
  161.4310  204.8520  149.1120 C   0  0  0  0  0  3  0  0  0  0  0  0
  162.3330  206.1220  146.0790 O   0  0  0  0  0  1  0  0  0  0  0  0
  162.7070  206.2060  147.4230 C   0  0  0  0  0  2  0  0  0  0  0  0
  161.2640  210.9380  149.3650 O   0  0  0  0  0  0  0  0  0  0  0  0
  162.4100  213.3210  146.1370 N   0  0  0  0  0  0  0  0  0  0  0  0
  161.6250  211.7370  148.2680 C   0  0  0  0  0  0  0  0  0  0  0  0
  162.9330  212.2190  148.1910 C   0  0  0  0  0  3  0  0  0  0  0  0
  163.3120  213.0180  147.1090 C   0  0  0  0  0  3  0  0  0  0  0  0
  161.1300  212.8660  146.1870 C   0  0  0  0  0  3  0  0  0  0  0  0
  160.7140  212.0650  147.2530 C   0  0  0  0  0  3  0  0  0  0  0  0
  1 21  1  6  0  0  0
  1  8  1  0  0  0  0
  2  7  1  0  0  0  0
  2  1  1  0  0  0  0
  3  9  1  6  0  0  0
  3 13  1  0  0  0  0
  4 10  1  0  0  0  0
  4  6  1  0  0  0  0
  5 13  1  0  0  0  0
  7 15  1  6  0  0  0
  7  9  1  0  0  0  0
  8  3  1  0  0  0  0
  8 12  1  0  0  0  0
 12 11  1  0  0  0  0
 12  4  1  0  0  0  0
 13 10  1  0  0  0  0
 14 15  1  0  0  0  0
 15 18  1  0  0  0  0
 17 18  1  0  0  0  0
 18 16  1  0  0  0  0
 19 20  1  0  0  0  0
 20 15  1  0  0  0  0
 22 26  2  0  0  0  0
 22 25  1  0  0  0  0
 23 21  1  0  0  0  0
 24 23  1  0  0  0  0
 25 24  2  0  0  0  0
 26 27  1  0  0  0  0
 27 23  2  0  0  0  0
M  END
>  <MODEL>
5

>  <REMARK>
 VINA RESULT:      -6.2      2.491      6.193
  Name = 
  5 active torsions:
  status: ('A' for Active; 'I' for Inactive)
    1  A    between atoms: C_1  and  O_15
    2  A    between atoms: C_9  and  O_15
    3  A    between atoms: C_14  and  C_17
    4  A    between atoms: C_16  and  C_17
    5  A    between atoms: C_17  and  C_21
                            x       y       z     vdW  Elec       q    Type
                         _______ _______ _______ _____ _____    ______ ____

>  <TORSDO>
F 5

$$$$
=
 OpenBabel11062407413D

 27 29  0  0  1  0  0  0  0  0999 V2000
  162.1070  209.4090  149.1380 C   0  0  2  0  0  3  0  0  0  0  0  0
  162.2020  208.2800  148.1020 C   0  0  0  0  0  2  0  0  0  0  0  0
  162.3180  207.6090  150.8760 C   0  0  2  0  0  3  0  0  0  0  0  0
  162.1590  209.3760  152.8660 N   0  0  0  0  0  0  0  0  0  0  0  0
  160.6170  206.2760  151.9320 O   0  0  0  0  0  1  0  0  0  0  0  0
  161.9730  210.3150  153.9610 C   0  0  0  0  0  1  0  0  0  0  0  0
  161.7410  206.9340  148.7000 C   0  0  2  0  0  3  0  0  0  0  0  0
  161.5820  208.9050  150.4820 C   0  0  1  0  0  3  0  0  0  0  0  0
  162.4850  206.6210  149.8640 O   0  0  0  0  0  0  0  0  0  0  0  0
  161.4250  208.1470  153.1860 C   0  0  0  0  0  2  0  0  0  0  0  0
  160.3910  210.5290  151.7650 O   0  0  0  0  0  1  0  0  0  0  0  0
  161.6590  209.9580  151.6000 C   0  0  1  0  0  3  0  0  0  0  0  0
  161.7640  207.0300  152.1830 C   0  0  2  0  0  3  0  0  0  0  0  0
  163.1850  205.2770  147.4880 C   0  0  0  0  0  1  0  0  0  0  0  0
  161.7500  205.7620  147.6890 C   0  0  2  0  0  0  0  0  0  0  0  0
  161.9510  205.6890  145.2710 O   0  0  0  0  0  1  0  0  0  0  0  0
  159.8760  206.0020  146.1570 O   0  0  0  0  0  1  0  0  0  0  0  0
  161.2370  206.2660  146.3250 C   0  0  0  0  0  3  0  0  0  0  0  0
  161.5050  203.3620  147.9770 O   0  0  0  0  0  1  0  0  0  0  0  0
  160.8730  204.5940  148.1650 C   0  0  0  0  0  2  0  0  0  0  0  0
  161.3310  210.5050  148.6410 O   0  0  0  0  0  0  0  0  0  0  0  0
  162.6300  214.4510  148.2510 N   0  0  0  0  0  0  0  0  0  0  0  0
  161.7930  211.8230  148.5010 C   0  0  0  0  0  0  0  0  0  0  0  0
  160.9530  212.8720  148.8830 C   0  0  0  0  0  3  0  0  0  0  0  0
  161.3920  214.1910  148.7500 C   0  0  0  0  0  3  0  0  0  0  0  0
  163.4680  213.4500  147.8700 C   0  0  0  0  0  3  0  0  0  0  0  0
  163.0650  212.1180  147.9880 C   0  0  0  0  0  3  0  0  0  0  0  0
  1 21  1  6  0  0  0
  1  8  1  0  0  0  0
  2  7  1  0  0  0  0
  2  1  1  0  0  0  0
  3  9  1  6  0  0  0
  3 13  1  0  0  0  0
  4 10  1  0  0  0  0
  4  6  1  0  0  0  0
  5 13  1  0  0  0  0
  7 15  1  6  0  0  0
  7  9  1  0  0  0  0
  8  3  1  0  0  0  0
  8 12  1  0  0  0  0
 12 11  1  0  0  0  0
 12  4  1  0  0  0  0
 13 10  1  0  0  0  0
 14 15  1  0  0  0  0
 15 20  1  0  0  0  0
 16 18  1  0  0  0  0
 17 18  1  0  0  0  0
 18 15  1  0  0  0  0
 19 20  1  0  0  0  0
 22 25  1  0  0  0  0
 23 21  1  0  0  0  0
 23 24  1  0  0  0  0
 25 24  2  0  0  0  0
 26 27  1  0  0  0  0
 26 22  2  0  0  0  0
 27 23  2  0  0  0  0
M  END
>  <MODEL>
6

>  <REMARK>
 VINA RESULT:      -5.7      2.614      5.697
  Name = 
  5 active torsions:
  status: ('A' for Active; 'I' for Inactive)
    1  A    between atoms: C_1  and  O_15
    2  A    between atoms: C_9  and  O_15
    3  A    between atoms: C_14  and  C_17
    4  A    between atoms: C_16  and  C_17
    5  A    between atoms: C_17  and  C_21
                            x       y       z     vdW  Elec       q    Type
                         _______ _______ _______ _____ _____    ______ ____

>  <TORSDO>
F 5

$$$$
=
 OpenBabel11062407413D

 27 29  0  0  1  0  0  0  0  0999 V2000
  161.5670  205.7640  148.9330 C   0  0  2  0  0  3  0  0  0  0  0  0
  161.8070  205.7570  147.4160 C   0  0  0  0  0  2  0  0  0  0  0  0
  161.6280  203.2580  148.7870 C   0  0  2  0  0  3  0  0  0  0  0  0
  161.2020  202.9990  151.4060 N   0  0  0  0  0  0  0  0  0  0  0  0
  159.8540  201.6940  148.3500 O   0  0  0  0  0  1  0  0  0  0  0  0
  160.8700  202.8400  152.8130 C   0  0  0  0  0  1  0  0  0  0  0  0
  161.3170  204.4400  146.7800 C   0  0  2  0  0  3  0  0  0  0  0  0
  160.9080  204.4710  149.4090 C   0  0  1  0  0  3  0  0  0  0  0  0
  161.9330  203.3240  147.3980 O   0  0  0  0  0  0  0  0  0  0  0  0
  160.4690  201.9820  150.6440 C   0  0  0  0  0  2  0  0  0  0  0  0
  159.5400  204.7020  151.3530 O   0  0  0  0  0  1  0  0  0  0  0  0
  160.8320  204.3550  150.9410 C   0  0  1  0  0  3  0  0  0  0  0  0
  160.9460  201.9430  149.1820 C   0  0  2  0  0  3  0  0  0  0  0  0
  162.8890  203.9530  144.8840 C   0  0  0  0  0  1  0  0  0  0  0  0
  161.4690  204.3920  145.2400 C   0  0  2  0  0  0  0  0  0  0  0  0
  161.5390  205.8430  143.2960 O   0  0  0  0  0  1  0  0  0  0  0  0
  159.9650  206.2700  144.8860 O   0  0  0  0  0  1  0  0  0  0  0  0
  161.2640  205.8080  144.6670 C   0  0  0  0  0  3  0  0  0  0  0  0
  160.5150  202.1580  145.1760 O   0  0  0  0  0  1  0  0  0  0  0  0
  160.4570  203.4290  144.5990 C   0  0  0  0  0  2  0  0  0  0  0  0
  160.8250  206.9200  149.3350 O   0  0  0  0  0  0  0  0  0  0  0  0
  162.1900  209.8560  151.9670 N   0  0  0  0  0  0  0  0  0  0  0  0
  161.2740  207.8930  150.2410 C   0  0  0  0  0  0  0  0  0  0  0  0
  161.9060  209.0340  149.7420 C   0  0  0  0  0  3  0  0  0  0  0  0
  162.3620  210.0140  150.6270 C   0  0  0  0  0  3  0  0  0  0  0  0
  161.5780  208.7550  152.4800 C   0  0  0  0  0  3  0  0  0  0  0  0
  161.1090  207.7540  151.6270 C   0  0  0  0  0  3  0  0  0  0  0  0
  1 21  1  6  0  0  0
  1  8  1  0  0  0  0
  2  1  1  0  0  0  0
  3  9  1  6  0  0  0
  3 13  1  0  0  0  0
  3  8  1  0  0  0  0
  4  6  1  0  0  0  0
  5 13  1  0  0  0  0
  7 15  1  6  0  0  0
  7  9  1  0  0  0  0
  7  2  1  0  0  0  0
  8 12  1  0  0  0  0
 10  4  1  0  0  0  0
 12 11  1  0  0  0  0
 12  4  1  0  0  0  0
 13 10  1  0  0  0  0
 14 15  1  0  0  0  0
 16 18  1  0  0  0  0
 18 17  1  0  0  0  0
 18 15  1  0  0  0  0
 20 19  1  0  0  0  0
 20 15  1  0  0  0  0
 21 23  1  0  0  0  0
 22 26  1  0  0  0  0
 23 27  1  0  0  0  0
 24 23  2  0  0  0  0
 24 25  1  0  0  0  0
 25 22  2  0  0  0  0
 27 26  2  0  0  0  0
M  END
>  <MODEL>
7

>  <REMARK>
 VINA RESULT:      -5.6      2.474      4.717
  Name = 
  5 active torsions:
  status: ('A' for Active; 'I' for Inactive)
    1  A    between atoms: C_1  and  O_15
    2  A    between atoms: C_9  and  O_15
    3  A    between atoms: C_14  and  C_17
    4  A    between atoms: C_16  and  C_17
    5  A    between atoms: C_17  and  C_21
                            x       y       z     vdW  Elec       q    Type
                         _______ _______ _______ _____ _____    ______ ____

>  <TORSDO>
F 5

$$$$
=
 OpenBabel11062407413D

 27 29  0  0  1  0  0  0  0  0999 V2000
  161.6580  208.0590  148.9850 C   0  0  2  0  0  3  0  0  0  0  0  0
  161.6090  209.4100  148.2560 C   0  0  0  0  0  2  0  0  0  0  0  0
  161.1190  209.3520  151.0700 C   0  0  2  0  0  3  0  0  0  0  0  0
  161.1630  207.1450  152.5650 N   0  0  0  0  0  0  0  0  0  0  0  0
  162.5880  210.4350  152.6360 O   0  0  0  0  0  1  0  0  0  0  0  0
  161.2820  205.9670  153.4100 C   0  0  0  0  0  1  0  0  0  0  0  0
  161.9020  210.5770  149.2230 C   0  0  2  0  0  3  0  0  0  0  0  0
  161.9840  208.2260  150.4690 C   0  0  1  0  0  3  0  0  0  0  0  0
  161.0060  210.5570  150.3200 O   0  0  0  0  0  0  0  0  0  0  0  0
  161.7670  208.2800  153.2720 C   0  0  0  0  0  2  0  0  0  0  0  0
  163.1240  206.3740  151.4580 O   0  0  0  0  0  1  0  0  0  0  0  0
  161.8480  206.9220  151.2720 C   0  0  1  0  0  3  0  0  0  0  0  0
  161.4740  209.6000  152.5400 C   0  0  2  0  0  3  0  0  0  0  0  0
  161.3710  213.0140  149.4980 C   0  0  0  0  0  1  0  0  0  0  0  0
  161.9330  211.9650  148.5400 C   0  0  2  0  0  0  0  0  0  0  0  0
  159.7700  212.4970  147.5740 O   0  0  0  0  0  1  0  0  0  0  0  0
  161.5980  212.6150  146.2200 O   0  0  0  0  0  1  0  0  0  0  0  0
  161.0220  211.9380  147.2970 C   0  0  0  0  0  3  0  0  0  0  0  0
  163.5380  213.7460  148.1440 O   0  0  0  0  0  1  0  0  0  0  0  0
  163.3580  212.3610  148.1210 C   0  0  0  0  0  2  0  0  0  0  0  0
  162.5610  207.1550  148.3400 O   0  0  0  0  0  0  0  0  0  0  0  0
  161.4570  203.7320  146.2230 N   0  0  0  0  0  0  0  0  0  0  0  0
  162.1830  205.9910  147.6510 C   0  0  0  0  0  0  0  0  0  0  0  0
  162.3320  205.9550  146.2630 C   0  0  0  0  0  3  0  0  0  0  0  0
  161.9610  204.8070  145.5580 C   0  0  0  0  0  3  0  0  0  0  0  0
  161.3000  203.7410  147.5730 C   0  0  0  0  0  3  0  0  0  0  0  0
  161.6600  204.8700  148.3120 C   0  0  0  0  0  3  0  0  0  0  0  0
  1 21  1  6  0  0  0
  1  8  1  0  0  0  0
  2  1  1  0  0  0  0
  2  7  1  0  0  0  0
  3  9  1  6  0  0  0
  3 13  1  0  0  0  0
  4 10  1  0  0  0  0
  4  6  1  0  0  0  0
  7 15  1  6  0  0  0
  7  9  1  0  0  0  0
  8  3  1  0  0  0  0
  8 12  1  0  0  0  0
 12 11  1  0  0  0  0
 12  4  1  0  0  0  0
 13  5  1  0  0  0  0
 13 10  1  0  0  0  0
 15 14  1  0  0  0  0
 17 18  1  0  0  0  0
 18 16  1  0  0  0  0
 18 15  1  0  0  0  0
 20 19  1  0  0  0  0
 20 15  1  0  0  0  0
 22 26  1  0  0  0  0
 23 27  1  0  0  0  0
 23 21  1  0  0  0  0
 24 23  2  0  0  0  0
 25 22  2  0  0  0  0
 25 24  1  0  0  0  0
 26 27  2  0  0  0  0
M  END
>  <MODEL>
8

>  <REMARK>
 VINA RESULT:      -5.5      3.114      8.055
  Name = 
  5 active torsions:
  status: ('A' for Active; 'I' for Inactive)
    1  A    between atoms: C_1  and  O_15
    2  A    between atoms: C_9  and  O_15
    3  A    between atoms: C_14  and  C_17
    4  A    between atoms: C_16  and  C_17
    5  A    between atoms: C_17  and  C_21
                            x       y       z     vdW  Elec       q    Type
                         _______ _______ _______ _____ _____    ______ ____

>  <TORSDO>
F 5

$$$$
=
 OpenBabel11062407413D

 27 29  0  0  1  0  0  0  0  0999 V2000
  161.9210  209.6430  151.5590 C   0  0  2  0  0  3  0  0  0  0  0  0
  162.0150  210.9290  150.7250 C   0  0  0  0  0  2  0  0  0  0  0  0
  162.3470  208.4140  149.4100 C   0  0  2  0  0  3  0  0  0  0  0  0
  162.2130  206.0450  150.6260 N   0  0  0  0  0  0  0  0  0  0  0  0
  160.7960  207.6390  147.7430 O   0  0  0  0  0  1  0  0  0  0  0  0
  162.0440  204.7440  151.2550 C   0  0  0  0  0  1  0  0  0  0  0  0
  161.6720  210.6600  149.2450 C   0  0  2  0  0  3  0  0  0  0  0  0
  161.5140  208.4410  150.7070 C   0  0  1  0  0  3  0  0  0  0  0  0
  162.5050  209.6450  148.7130 O   0  0  0  0  0  0  0  0  0  0  0  0
  161.5740  206.0030  149.3060 C   0  0  0  0  0  2  0  0  0  0  0  0
  160.3150  206.7420  151.8820 O   0  0  0  0  0  1  0  0  0  0  0  0
  161.6010  207.1030  151.4600 C   0  0  1  0  0  3  0  0  0  0  0  0
  161.9110  207.2650  148.4940 C   0  0  2  0  0  3  0  0  0  0  0  0
  163.1160  212.2230  147.9140 C   0  0  0  0  0  1  0  0  0  0  0  0
  161.6840  211.9270  148.3570 C   0  0  2  0  0  0  0  0  0  0  0  0
  161.8710  214.3030  148.8220 O   0  0  0  0  0  1  0  0  0  0  0  0
  159.8240  213.3310  149.0550 O   0  0  0  0  0  1  0  0  0  0  0  0
  161.1990  213.1320  149.1890 C   0  0  0  0  0  3  0  0  0  0  0  0
  161.1820  212.6060  146.0790 O   0  0  0  0  0  1  0  0  0  0  0  0
  160.7850  211.7650  147.1210 C   0  0  0  0  0  2  0  0  0  0  0  0
  161.0540  209.8170  152.6840 O   0  0  0  0  0  0  0  0  0  0  0  0
  162.1560  209.3700  156.6840 N   0  0  0  0  0  0  0  0  0  0  0  0
  161.4380  209.6900  154.0280 C   0  0  0  0  0  0  0  0  0  0  0  0
  161.0520  208.5480  154.7320 C   0  0  0  0  0  3  0  0  0  0  0  0
  161.4220  208.4030  156.0710 C   0  0  0  0  0  3  0  0  0  0  0  0
  162.5450  210.4930  156.0230 C   0  0  0  0  0  3  0  0  0  0  0  0
  162.1940  210.6740  154.6840 C   0  0  0  0  0  3  0  0  0  0  0  0
  1 21  1  1  0  0  0
  2  1  1  0  0  0  0
  3  9  1  6  0  0  0
  3  8  1  0  0  0  0
  4  6  1  0  0  0  0
  4 12  1  0  0  0  0
  5 13  1  0  0  0  0
  7 15  1  6  0  0  0
  7  2  1  0  0  0  0
  8 12  1  0  0  0  0
  8  1  1  0  0  0  0
  9  7  1  0  0  0  0
 10  4  1  0  0  0  0
 12 11  1  0  0  0  0
 13 10  1  0  0  0  0
 13  3  1  0  0  0  0
 14 15  1  0  0  0  0
 15 18  1  0  0  0  0
 16 18  1  0  0  0  0
 17 18  1  0  0  0  0
 19 20  1  0  0  0  0
 20 15  1  0  0  0  0
 21 23  1  0  0  0  0
 23 27  2  0  0  0  0
 23 24  1  0  0  0  0
 24 25  2  0  0  0  0
 25 22  1  0  0  0  0
 26 22  2  0  0  0  0
 27 26  1  0  0  0  0
M  END
>  <MODEL>
9

>  <REMARK>
 VINA RESULT:      -5.4      3.267      6.910
  Name = 
  5 active torsions:
  status: ('A' for Active; 'I' for Inactive)
    1  A    between atoms: C_1  and  O_15
    2  A    between atoms: C_9  and  O_15
    3  A    between atoms: C_14  and  C_17
    4  A    between atoms: C_16  and  C_17
    5  A    between atoms: C_17  and  C_21
                            x       y       z     vdW  Elec       q    Type
                         _______ _______ _______ _____ _____    ______ ____

>  <TORSDO>
F 5

$$$$
