=
 OpenBabel11052423143D

 27 31  0  0  1  0  0  0  0  0999 V2000
  161.9200  208.7390  152.5730 N   0  0  0  0  0  2  0  0  0  0  0  0
  161.2220  206.4190  152.2830 C   0  0  0  0  0  0  0  0  0  0  0  0
  161.0080  207.4750  150.0820 N   0  0  0  0  0  2  0  0  0  0  0  0
  160.8950  202.5650  150.5240 C   0  0  0  0  0  3  0  0  0  0  0  0
  160.9890  201.1750  148.5550 O   0  0  0  0  0  1  0  0  0  0  0  0
  161.5270  205.1820  153.1000 C   0  0  0  0  0  2  0  0  0  0  0  0
  161.2190  204.8390  148.9240 C   0  0  0  0  0  3  0  0  0  0  0  0
  162.0770  210.7130  149.0310 C   0  0  0  0  0  0  0  0  0  0  0  0
  161.1850  203.5700  148.3400 C   0  0  0  0  0  3  0  0  0  0  0  0
  162.0640  211.5340  147.7910 C   0  0  0  0  0  1  0  0  0  0  0  0
  161.0970  204.9810  150.3140 C   0  0  0  0  0  0  0  0  0  0  0  0
  160.9480  207.7270  152.9540 C   0  0  1  0  0  3  0  0  0  0  0  0
  161.0240  202.4340  149.1390 C   0  0  0  0  0  0  0  0  0  0  0  0
  160.9420  203.8310  151.1150 C   0  0  0  0  0  0  0  0  0  0  0  0
  162.0760  209.2200  151.3780 C   0  0  0  0  0  0  0  0  0  0  0  0
  161.1260  206.3260  150.9440 C   0  0  0  0  0  0  0  0  0  0  0  0
  161.4010  209.4950  149.0660 C   0  0  0  0  0  3  0  0  0  0  0  0
  160.7430  203.9750  152.5910 C   0  0  0  0  0  2  0  0  0  0  0  0
  162.7960  211.1210  150.1060 N   0  0  0  0  0  0  0  0  0  0  0  0
  162.8010  210.4110  151.2640 C   0  0  0  0  0  3  0  0  0  0  0  0
  161.4270  208.7050  150.2190 C   0  0  0  0  0  0  0  0  0  0  0  0
  160.5850  207.5680  157.2380 C   0  0  0  0  0  3  0  0  0  0  0  0
  160.8170  207.6490  154.4470 C   0  0  0  0  0  0  0  0  0  0  0  0
  161.7510  208.3120  155.2490 C   0  0  0  0  0  3  0  0  0  0  0  0
  161.6370  208.2710  156.6420 C   0  0  0  0  0  3  0  0  0  0  0  0
  159.6450  206.9080  156.4400 C   0  0  0  0  0  3  0  0  0  0  0  0
  159.7590  206.9490  155.0470 C   0  0  0  0  0  3  0  0  0  0  0  0
  1 12  1  0  0  0  0
  2 12  1  0  0  0  0
  2  6  1  0  0  0  0
  3 21  1  0  0  0  0
  3 16  1  0  0  0  0
  4 14  1  0  0  0  0
  5 13  1  0  0  0  0
  7 11  1  0  0  0  0
  8 17  2  0  0  0  0
  8 19  1  0  0  0  0
  9  7  2  0  0  0  0
  9 13  1  0  0  0  0
 10  8  1  0  0  0  0
 11 16  1  0  0  0  0
 11 14  2  0  0  0  0
 12 23  1  1  0  0  0
 13  4  2  0  0  0  0
 14 18  1  0  0  0  0
 15  1  1  0  0  0  0
 16  2  2  0  0  0  0
 17 21  1  0  0  0  0
 18  6  1  0  0  0  0
 19 20  2  0  0  0  0
 20 15  1  0  0  0  0
 21 15  2  0  0  0  0
 23 27  2  0  0  0  0
 23 24  1  0  0  0  0
 24 25  2  0  0  0  0
 25 22  1  0  0  0  0
 26 22  2  0  0  0  0
 27 26  1  0  0  0  0
M  END
>  <MODEL>
1

>  <REMARK>
 VINA RESULT:      -8.2      0.000      0.000
  Name = 
  1 active torsions:
  status: ('A' for Active; 'I' for Inactive)
    1  A    between atoms: C_9  and  C_15
                            x       y       z     vdW  Elec       q    Type
                         _______ _______ _______ _____ _____    ______ ____

>  <TORSDO>
F 1

$$$$
=
 OpenBabel11052423143D

 27 31  0  0  1  0  0  0  0  0999 V2000
  162.3680  208.6630  148.5830 N   0  0  0  0  0  2  0  0  0  0  0  0
  161.7480  209.3470  150.8420 C   0  0  0  0  0  0  0  0  0  0  0  0
  160.8800  207.0730  150.5550 N   0  0  0  0  0  2  0  0  0  0  0  0
  161.1660  209.0960  155.0430 C   0  0  0  0  0  3  0  0  0  0  0  0
  160.7930  207.7390  157.0030 O   0  0  0  0  0  1  0  0  0  0  0  0
  162.3340  210.4020  151.7550 C   0  0  0  0  0  2  0  0  0  0  0  0
  160.9110  206.8220  153.4310 C   0  0  0  0  0  3  0  0  0  0  0  0
  161.4370  204.7760  147.8820 C   0  0  0  0  0  0  0  0  0  0  0  0
  160.7890  206.7140  154.8190 C   0  0  0  0  0  3  0  0  0  0  0  0
  161.0400  203.3920  147.5120 C   0  0  0  0  0  1  0  0  0  0  0  0
  161.1680  208.0660  152.8380 C   0  0  0  0  0  0  0  0  0  0  0  0
  161.5950  209.6050  149.3770 C   0  0  1  0  0  3  0  0  0  0  0  0
  160.9170  207.8490  155.6250 C   0  0  0  0  0  0  0  0  0  0  0  0
  161.3020  209.2060  153.6570 C   0  0  0  0  0  0  0  0  0  0  0  0
  162.1640  207.3830  148.5260 C   0  0  0  0  0  0  0  0  0  0  0  0
  161.2940  208.1920  151.3640 C   0  0  0  0  0  0  0  0  0  0  0  0
  160.8660  205.3900  148.9950 C   0  0  0  0  0  3  0  0  0  0  0  0
  161.5080  210.5500  153.0310 C   0  0  0  0  0  2  0  0  0  0  0  0
  162.4000  205.4170  147.1730 N   0  0  0  0  0  0  0  0  0  0  0  0
  162.7620  206.6930  147.4660 C   0  0  0  0  0  3  0  0  0  0  0  0
  161.2510  206.6820  149.3660 C   0  0  0  0  0  0  0  0  0  0  0  0
  162.4380  213.6310  148.1160 C   0  0  0  0  0  3  0  0  0  0  0  0
  161.8840  211.0170  148.9580 C   0  0  0  0  0  0  0  0  0  0  0  0
  163.0410  211.2870  148.2200 C   0  0  0  0  0  3  0  0  0  0  0  0
  163.3190  212.5920  147.8010 C   0  0  0  0  0  3  0  0  0  0  0  0
  161.2770  213.3660  148.8480 C   0  0  0  0  0  3  0  0  0  0  0  0
  160.9980  212.0620  149.2680 C   0  0  0  0  0  3  0  0  0  0  0  0
  1 12  1  0  0  0  0
  2 16  2  0  0  0  0
  2  6  1  0  0  0  0
  3 16  1  0  0  0  0
  4 13  1  0  0  0  0
  6 18  1  0  0  0  0
  7  9  1  0  0  0  0
  8 17  1  0  0  0  0
  9 13  2  0  0  0  0
 10  8  1  0  0  0  0
 11  7  2  0  0  0  0
 11 14  1  0  0  0  0
 12 23  1  1  0  0  0
 12  2  1  0  0  0  0
 13  5  1  0  0  0  0
 14  4  2  0  0  0  0
 15  1  1  0  0  0  0
 15 21  1  0  0  0  0
 16 11  1  0  0  0  0
 17 21  2  0  0  0  0
 18 14  1  0  0  0  0
 19 20  1  0  0  0  0
 19  8  2  0  0  0  0
 20 15  2  0  0  0  0
 21  3  1  0  0  0  0
 22 26  1  0  0  0  0
 23 27  1  0  0  0  0
 24 23  2  0  0  0  0
 25 22  2  0  0  0  0
 25 24  1  0  0  0  0
 26 27  2  0  0  0  0
M  END
>  <MODEL>
2

>  <REMARK>
 VINA RESULT:      -8.1      2.620      6.651
  Name = 
  1 active torsions:
  status: ('A' for Active; 'I' for Inactive)
    1  A    between atoms: C_9  and  C_15
                            x       y       z     vdW  Elec       q    Type
                         _______ _______ _______ _____ _____    ______ ____

>  <TORSDO>
F 1

$$$$
=
 OpenBabel11052423143D

 27 31  0  0  1  0  0  0  0  0999 V2000
  160.7590  209.0190  152.1190 N   0  0  0  0  0  2  0  0  0  0  0  0
  161.2140  207.3160  150.4320 C   0  0  0  0  0  0  0  0  0  0  0  0
  161.4340  206.2000  152.6030 N   0  0  0  0  0  2  0  0  0  0  0  0
  161.0860  203.5580  148.4540 C   0  0  0  0  0  3  0  0  0  0  0  0
  160.7720  201.1690  148.5690 O   0  0  0  0  0  1  0  0  0  0  0  0
  160.8260  207.2380  148.9710 C   0  0  0  0  0  2  0  0  0  0  0  0
  160.9170  203.7060  151.2440 C   0  0  0  0  0  3  0  0  0  0  0  0
  160.6410  207.4370  155.8550 C   0  0  0  0  0  0  0  0  0  0  0  0
  160.8010  202.4710  150.5990 C   0  0  0  0  0  3  0  0  0  0  0  0
  160.6790  206.9560  157.2610 C   0  0  0  0  0  1  0  0  0  0  0  0
  161.1120  204.8770  150.4980 C   0  0  0  0  0  0  0  0  0  0  0  0
  161.6440  208.6130  151.0390 C   0  0  1  0  0  3  0  0  0  0  0  0
  160.8850  202.3970  149.2070 C   0  0  0  0  0  0  0  0  0  0  0  0
  161.1890  204.7960  149.0930 C   0  0  0  0  0  0  0  0  0  0  0  0
  160.5980  208.3820  153.2390 C   0  0  0  0  0  0  0  0  0  0  0  0
  161.2420  206.1940  151.1740 C   0  0  0  0  0  0  0  0  0  0  0  0
  161.1950  206.6610  154.8380 C   0  0  0  0  0  3  0  0  0  0  0  0
  161.4660  206.0300  148.2920 C   0  0  0  0  0  2  0  0  0  0  0  0
  160.0130  208.6010  155.5530 N   0  0  0  0  0  0  0  0  0  0  0  0
  159.9890  209.0840  154.2840 C   0  0  0  0  0  3  0  0  0  0  0  0
  161.1430  207.0940  153.5100 C   0  0  0  0  0  0  0  0  0  0  0  0
  162.2090  211.8560  148.2680 C   0  0  0  0  0  3  0  0  0  0  0  0
  161.8310  209.7320  150.0550 C   0  0  0  0  0  0  0  0  0  0  0  0
  161.5010  211.0370  150.4350 C   0  0  0  0  0  3  0  0  0  0  0  0
  161.6880  212.0970  149.5430 C   0  0  0  0  0  3  0  0  0  0  0  0
  162.5460  210.5540  147.8850 C   0  0  0  0  0  3  0  0  0  0  0  0
  162.3600  209.4930  148.7770 C   0  0  0  0  0  3  0  0  0  0  0  0
  1 15  1  0  0  0  0
  2 12  1  0  0  0  0
  2 16  2  0  0  0  0
  3 21  1  0  0  0  0
  4 14  2  0  0  0  0
  4 13  1  0  0  0  0
  5 13  1  0  0  0  0
  6  2  1  0  0  0  0
  8 10  1  0  0  0  0
  9  7  1  0  0  0  0
 11 16  1  0  0  0  0
 11  7  2  0  0  0  0
 12 23  1  6  0  0  0
 12  1  1  0  0  0  0
 13  9  2  0  0  0  0
 14 11  1  0  0  0  0
 15 21  2  0  0  0  0
 15 20  1  0  0  0  0
 16  3  1  0  0  0  0
 17  8  2  0  0  0  0
 18  6  1  0  0  0  0
 18 14  1  0  0  0  0
 19  8  1  0  0  0  0
 20 19  2  0  0  0  0
 21 17  1  0  0  0  0
 22 25  1  0  0  0  0
 23 24  1  0  0  0  0
 25 24  2  0  0  0  0
 26 22  2  0  0  0  0
 26 27  1  0  0  0  0
 27 23  2  0  0  0  0
M  END
>  <MODEL>
3

>  <REMARK>
 VINA RESULT:      -7.9      1.300      5.280
  Name = 
  1 active torsions:
  status: ('A' for Active; 'I' for Inactive)
    1  A    between atoms: C_9  and  C_15
                            x       y       z     vdW  Elec       q    Type
                         _______ _______ _______ _____ _____    ______ ____

>  <TORSDO>
F 1

$$$$
=
 OpenBabel11052423143D

 27 31  0  0  1  0  0  0  0  0999 V2000
  161.3080  206.7750  153.3370 N   0  0  0  0  0  2  0  0  0  0  0  0
  161.4660  207.6920  151.0820 C   0  0  0  0  0  0  0  0  0  0  0  0
  160.5880  209.4950  152.4910 N   0  0  0  0  0  2  0  0  0  0  0  0
  162.3220  210.4640  147.9780 C   0  0  0  0  0  3  0  0  0  0  0  0
  162.6460  212.7490  147.2760 O   0  0  0  0  0  1  0  0  0  0  0  0
  162.3050  207.2700  149.8960 C   0  0  0  0  0  2  0  0  0  0  0  0
  161.5810  211.3600  150.5240 C   0  0  0  0  0  3  0  0  0  0  0  0
  160.2600  209.6130  156.0430 C   0  0  0  0  0  0  0  0  0  0  0  0
  161.9310  212.2800  149.5320 C   0  0  0  0  0  3  0  0  0  0  0  0
  159.7840  210.5670  157.0780 C   0  0  0  0  0  1  0  0  0  0  0  0
  161.6050  209.9850  150.2530 C   0  0  0  0  0  0  0  0  0  0  0  0
  160.8290  206.6700  151.9690 C   0  0  1  0  0  3  0  0  0  0  0  0
  162.3020  211.8330  148.2610 C   0  0  0  0  0  0  0  0  0  0  0  0
  161.9860  209.5400  148.9710 C   0  0  0  0  0  0  0  0  0  0  0  0
  161.1170  207.7880  154.1250 C   0  0  0  0  0  0  0  0  0  0  0  0
  161.2300  208.9990  151.2990 C   0  0  0  0  0  0  0  0  0  0  0  0
  160.0820  209.9060  154.6920 C   0  0  0  0  0  3  0  0  0  0  0  0
  161.9500  208.0780  148.6500 C   0  0  0  0  0  2  0  0  0  0  0  0
  160.9200  208.4860  156.4110 N   0  0  0  0  0  0  0  0  0  0  0  0
  161.3390  207.5790  155.4910 C   0  0  0  0  0  3  0  0  0  0  0  0
  160.5480  209.0270  153.7100 C   0  0  0  0  0  0  0  0  0  0  0  0
  161.1050  202.6010  150.5970 C   0  0  0  0  0  3  0  0  0  0  0  0
  160.9390  205.2570  151.4720 C   0  0  0  0  0  0  0  0  0  0  0  0
  161.2060  204.2320  152.3860 C   0  0  0  0  0  3  0  0  0  0  0  0
  161.2910  202.9070  151.9490 C   0  0  0  0  0  3  0  0  0  0  0  0
  160.8310  203.6210  149.6810 C   0  0  0  0  0  3  0  0  0  0  0  0
  160.7460  204.9470  150.1170 C   0  0  0  0  0  3  0  0  0  0  0  0
  1 15  1  0  0  0  0
  2 16  2  0  0  0  0
  2 12  1  0  0  0  0
  3 21  1  0  0  0  0
  4 13  2  0  0  0  0
  4 14  1  0  0  0  0
  5 13  1  0  0  0  0
  6  2  1  0  0  0  0
  8 19  1  0  0  0  0
  8 10  1  0  0  0  0
  9  7  2  0  0  0  0
 11  7  1  0  0  0  0
 11 16  1  0  0  0  0
 12 23  1  6  0  0  0
 12  1  1  0  0  0  0
 13  9  1  0  0  0  0
 14 11  2  0  0  0  0
 15 20  1  0  0  0  0
 16  3  1  0  0  0  0
 17  8  2  0  0  0  0
 18 14  1  0  0  0  0
 18  6  1  0  0  0  0
 20 19  2  0  0  0  0
 21 15  2  0  0  0  0
 21 17  1  0  0  0  0
 22 25  1  0  0  0  0
 23 24  1  0  0  0  0
 25 24  2  0  0  0  0
 26 27  1  0  0  0  0
 26 22  2  0  0  0  0
 27 23  2  0  0  0  0
M  END
>  <MODEL>
4

>  <REMARK>
 VINA RESULT:      -7.5      2.763      6.358
  Name = 
  1 active torsions:
  status: ('A' for Active; 'I' for Inactive)
    1  A    between atoms: C_9  and  C_15
                            x       y       z     vdW  Elec       q    Type
                         _______ _______ _______ _____ _____    ______ ____

>  <TORSDO>
F 1

$$$$
=
 OpenBabel11052423143D

 27 31  0  0  1  0  0  0  0  0999 V2000
  161.2290  208.9200  147.6380 N   0  0  0  0  0  2  0  0  0  0  0  0
  161.3710  207.5440  149.6480 C   0  0  0  0  0  0  0  0  0  0  0  0
  162.0770  209.7950  150.3120 N   0  0  0  0  0  2  0  0  0  0  0  0
  160.9460  206.4180  153.7230 C   0  0  0  0  0  3  0  0  0  0  0  0
  160.7370  207.0650  156.0370 O   0  0  0  0  0  1  0  0  0  0  0  0
  160.6860  206.2440  150.0100 C   0  0  0  0  0  2  0  0  0  0  0  0
  161.3630  209.0950  153.0200 C   0  0  0  0  0  3  0  0  0  0  0  0
  161.9480  212.8330  148.4440 C   0  0  0  0  0  0  0  0  0  0  0  0
  161.1520  208.7460  154.3570 C   0  0  0  0  0  3  0  0  0  0  0  0
  162.2960  214.2650  148.6360 C   0  0  0  0  0  1  0  0  0  0  0  0
  161.3610  208.1100  152.0230 C   0  0  0  0  0  0  0  0  0  0  0  0
  161.8780  207.7780  148.2610 C   0  0  1  0  0  3  0  0  0  0  0  0
  160.9430  207.4100  154.7080 C   0  0  0  0  0  0  0  0  0  0  0  0
  161.1430  206.7640  152.3830 C   0  0  0  0  0  0  0  0  0  0  0  0
  161.3270  210.1510  148.0370 C   0  0  0  0  0  0  0  0  0  0  0  0
  161.5890  208.4690  150.6000 C   0  0  0  0  0  0  0  0  0  0  0  0
  162.3000  211.8950  149.4120 C   0  0  0  0  0  3  0  0  0  0  0  0
  161.2060  205.6960  151.3370 C   0  0  0  0  0  2  0  0  0  0  0  0
  161.2350  212.4480  147.3560 N   0  0  0  0  0  0  0  0  0  0  0  0
  160.9300  211.1440  147.1350 C   0  0  0  0  0  3  0  0  0  0  0  0
  161.9560  210.5490  149.2530 C   0  0  0  0  0  0  0  0  0  0  0  0
  161.7030  204.3750  145.6340 C   0  0  0  0  0  3  0  0  0  0  0  0
  161.8200  206.5770  147.3630 C   0  0  0  0  0  0  0  0  0  0  0  0
  160.8310  206.5110  146.3760 C   0  0  0  0  0  3  0  0  0  0  0  0
  160.7710  205.4110  145.5140 C   0  0  0  0  0  3  0  0  0  0  0  0
  162.6970  204.4400  146.6150 C   0  0  0  0  0  3  0  0  0  0  0  0
  162.7580  205.5390  147.4770 C   0  0  0  0  0  3  0  0  0  0  0  0
  1 15  1  0  0  0  0
  1 12  1  0  0  0  0
  2  6  1  0  0  0  0
  2 16  2  0  0  0  0
  3 16  1  0  0  0  0
  4 13  1  0  0  0  0
  6 18  1  0  0  0  0
  7  9  1  0  0  0  0
  8 10  1  0  0  0  0
  8 17  1  0  0  0  0
  9 13  2  0  0  0  0
 11 14  1  0  0  0  0
 11  7  2  0  0  0  0
 12 23  1  6  0  0  0
 12  2  1  0  0  0  0
 13  5  1  0  0  0  0
 14  4  2  0  0  0  0
 15 21  1  0  0  0  0
 16 11  1  0  0  0  0
 18 14  1  0  0  0  0
 19  8  2  0  0  0  0
 20 19  1  0  0  0  0
 20 15  2  0  0  0  0
 21 17  2  0  0  0  0
 21  3  1  0  0  0  0
 22 26  1  0  0  0  0
 23 27  1  0  0  0  0
 24 23  2  0  0  0  0
 25 22  2  0  0  0  0
 25 24  1  0  0  0  0
 26 27  2  0  0  0  0
M  END
>  <MODEL>
5

>  <REMARK>
 VINA RESULT:      -6.7      2.643      6.207
  Name = 
  1 active torsions:
  status: ('A' for Active; 'I' for Inactive)
    1  A    between atoms: C_9  and  C_15
                            x       y       z     vdW  Elec       q    Type
                         _______ _______ _______ _____ _____    ______ ____

>  <TORSDO>
F 1

$$$$
=
 OpenBabel11052423143D

 27 31  0  0  1  0  0  0  0  0999 V2000
  162.0290  209.1830  151.3180 N   0  0  0  0  0  2  0  0  0  0  0  0
  161.3970  206.9050  150.7130 C   0  0  0  0  0  0  0  0  0  0  0  0
  161.2010  208.2330  148.6630 N   0  0  0  0  0  2  0  0  0  0  0  0
  161.2060  203.3060  148.4630 C   0  0  0  0  0  3  0  0  0  0  0  0
  161.3760  202.1870  146.3330 O   0  0  0  0  0  1  0  0  0  0  0  0
  161.7170  205.5790  151.3700 C   0  0  0  0  0  2  0  0  0  0  0  0
  161.5040  205.7760  147.1790 C   0  0  0  0  0  3  0  0  0  0  0  0
  162.2080  211.6040  148.0650 C   0  0  0  0  0  0  0  0  0  0  0  0
  161.5150  204.5930  146.4350 C   0  0  0  0  0  3  0  0  0  0  0  0
  162.2000  212.5780  146.9430 C   0  0  0  0  0  1  0  0  0  0  0  0
  161.3500  205.7330  148.5720 C   0  0  0  0  0  0  0  0  0  0  0  0
  161.0750  208.1080  151.5410 C   0  0  1  0  0  3  0  0  0  0  0  0
  161.3670  203.3600  147.0750 C   0  0  0  0  0  0  0  0  0  0  0  0
  161.2080  204.4850  149.2130 C   0  0  0  0  0  0  0  0  0  0  0  0
  162.1980  209.8180  150.1990 C   0  0  0  0  0  0  0  0  0  0  0  0
  161.3310  206.9840  149.3720 C   0  0  0  0  0  0  0  0  0  0  0  0
  161.5630  210.3760  147.9270 C   0  0  0  0  0  3  0  0  0  0  0  0
  160.9750  204.4320  150.6910 C   0  0  0  0  0  2  0  0  0  0  0  0
  162.8940  211.8850  149.2020 N   0  0  0  0  0  0  0  0  0  0  0  0
  162.8930  211.0300  150.2570 C   0  0  0  0  0  3  0  0  0  0  0  0
  161.5860  209.4440  148.9680 C   0  0  0  0  0  0  0  0  0  0  0  0
  160.5710  207.3660  155.7490 C   0  0  0  0  0  3  0  0  0  0  0  0
  160.9160  207.8330  153.0080 C   0  0  0  0  0  0  0  0  0  0  0  0
  160.8190  208.9090  153.8970 C   0  0  0  0  0  3  0  0  0  0  0  0
  160.6490  208.6760  155.2660 C   0  0  0  0  0  3  0  0  0  0  0  0
  160.6610  206.2880  154.8630 C   0  0  0  0  0  3  0  0  0  0  0  0
  160.8310  206.5190  153.4950 C   0  0  0  0  0  3  0  0  0  0  0  0
  1 12  1  0  0  0  0
  2  6  1  0  0  0  0
  2 12  1  0  0  0  0
  3 21  1  0  0  0  0
  3 16  1  0  0  0  0
  4 14  1  0  0  0  0
  5 13  1  0  0  0  0
  7 11  1  0  0  0  0
  8 19  1  0  0  0  0
  9 13  1  0  0  0  0
  9  7  2  0  0  0  0
 10  8  1  0  0  0  0
 11 14  2  0  0  0  0
 11 16  1  0  0  0  0
 12 23  1  1  0  0  0
 13  4  2  0  0  0  0
 14 18  1  0  0  0  0
 15 20  1  0  0  0  0
 15  1  1  0  0  0  0
 16  2  2  0  0  0  0
 17  8  2  0  0  0  0
 17 21  1  0  0  0  0
 18  6  1  0  0  0  0
 19 20  2  0  0  0  0
 21 15  2  0  0  0  0
 23 27  2  0  0  0  0
 23 24  1  0  0  0  0
 24 25  2  0  0  0  0
 25 22  1  0  0  0  0
 26 22  2  0  0  0  0
 27 26  1  0  0  0  0
M  END
>  <MODEL>
6

>  <REMARK>
 VINA RESULT:      -6.5      1.291      1.749
  Name = 
  1 active torsions:
  status: ('A' for Active; 'I' for Inactive)
    1  A    between atoms: C_9  and  C_15
                            x       y       z     vdW  Elec       q    Type
                         _______ _______ _______ _____ _____    ______ ____

>  <TORSDO>
F 1

$$$$
=
 OpenBabel11052423143D

 27 31  0  0  1  0  0  0  0  0999 V2000
  160.9980  209.7300  153.6350 N   0  0  0  0  0  2  0  0  0  0  0  0
  161.2770  210.1230  151.2430 C   0  0  0  0  0  0  0  0  0  0  0  0
  160.0720  212.0690  152.1160 N   0  0  0  0  0  2  0  0  0  0  0  0
  162.1300  212.2030  147.6380 C   0  0  0  0  0  3  0  0  0  0  0  0
  162.2700  214.2900  146.4370 O   0  0  0  0  0  1  0  0  0  0  0  0
  162.2720  209.5540  150.2540 C   0  0  0  0  0  2  0  0  0  0  0  0
  161.0450  213.5510  149.8380 C   0  0  0  0  0  3  0  0  0  0  0  0
  159.3810  212.9480  155.5050 C   0  0  0  0  0  0  0  0  0  0  0  0
  161.3890  214.2580  148.6820 C   0  0  0  0  0  3  0  0  0  0  0  0
  158.7020  214.0430  156.2480 C   0  0  0  0  0  1  0  0  0  0  0  0
  161.2470  212.1650  149.9050 C   0  0  0  0  0  0  0  0  0  0  0  0
  160.6710  209.2550  152.3000 C   0  0  1  0  0  3  0  0  0  0  0  0
  161.9310  213.5860  147.5840 C   0  0  0  0  0  0  0  0  0  0  0  0
  161.8000  211.4930  148.7960 C   0  0  0  0  0  0  0  0  0  0  0  0
  160.6190  210.8630  154.1430 C   0  0  0  0  0  0  0  0  0  0  0  0
  160.8790  211.4030  151.1260 C   0  0  0  0  0  0  0  0  0  0  0  0
  159.3070  212.9010  154.1140 C   0  0  0  0  0  3  0  0  0  0  0  0
  161.9560  210.0050  148.8300 C   0  0  0  0  0  2  0  0  0  0  0  0
  160.1210  212.0310  156.1770 N   0  0  0  0  0  0  0  0  0  0  0  0
  160.7250  211.0000  155.5310 C   0  0  0  0  0  3  0  0  0  0  0  0
  159.9620  211.8890  153.4060 C   0  0  0  0  0  0  0  0  0  0  0  0
  161.5280  205.0520  151.9600 C   0  0  0  0  0  3  0  0  0  0  0  0
  160.9840  207.7930  152.1630 C   0  0  0  0  0  0  0  0  0  0  0  0
  161.3070  207.0550  153.3060 C   0  0  0  0  0  3  0  0  0  0  0  0
  161.5810  205.6870  153.2050 C   0  0  0  0  0  3  0  0  0  0  0  0
  161.1990  205.7850  150.8160 C   0  0  0  0  0  3  0  0  0  0  0  0
  160.9260  207.1520  150.9160 C   0  0  0  0  0  3  0  0  0  0  0  0
  1 15  1  0  0  0  0
  2 12  1  0  0  0  0
  3 21  1  0  0  0  0
  4 14  1  0  0  0  0
  5 13  1  0  0  0  0
  6  2  1  0  0  0  0
  7 11  1  0  0  0  0
  8 19  1  0  0  0  0
  8 10  1  0  0  0  0
  9  7  2  0  0  0  0
 11 16  1  0  0  0  0
 12 23  1  1  0  0  0
 12  1  1  0  0  0  0
 13  4  2  0  0  0  0
 13  9  1  0  0  0  0
 14 18  1  0  0  0  0
 14 11  2  0  0  0  0
 15 20  1  0  0  0  0
 16  2  2  0  0  0  0
 16  3  1  0  0  0  0
 17  8  2  0  0  0  0
 18  6  1  0  0  0  0
 20 19  2  0  0  0  0
 21 17  1  0  0  0  0
 21 15  2  0  0  0  0
 22 25  1  0  0  0  0
 23 24  1  0  0  0  0
 25 24  2  0  0  0  0
 26 27  1  0  0  0  0
 26 22  2  0  0  0  0
 27 23  2  0  0  0  0
M  END
>  <MODEL>
7

>  <REMARK>
 VINA RESULT:      -6.5      3.803      6.870
  Name = 
  1 active torsions:
  status: ('A' for Active; 'I' for Inactive)
    1  A    between atoms: C_9  and  C_15
                            x       y       z     vdW  Elec       q    Type
                         _______ _______ _______ _____ _____    ______ ____

>  <TORSDO>
F 1

$$$$
=
 OpenBabel11052423143D

 27 31  0  0  1  0  0  0  0  0999 V2000
  160.8120  212.0400  139.4000 N   0  0  0  0  0  2  0  0  0  0  0  0
  161.4070  212.7240  141.6660 C   0  0  0  0  0  0  0  0  0  0  0  0
  158.9730  212.9490  141.5040 N   0  0  0  0  0  2  0  0  0  0  0  0
  161.2070  213.0310  145.8990 C   0  0  0  0  0  3  0  0  0  0  0  0
  159.8940  212.9330  147.9200 O   0  0  0  0  0  1  0  0  0  0  0  0
  162.6240  212.4100  142.5090 C   0  0  0  0  0  2  0  0  0  0  0  0
  158.8750  212.7250  144.3800 C   0  0  0  0  0  3  0  0  0  0  0  0
  156.7890  211.9020  138.8830 C   0  0  0  0  0  0  0  0  0  0  0  0
  158.8050  212.7520  145.7760 C   0  0  0  0  0  3  0  0  0  0  0  0
  155.3340  211.9220  138.5810 C   0  0  0  0  0  1  0  0  0  0  0  0
  160.1130  212.8440  143.7330 C   0  0  0  0  0  0  0  0  0  0  0  0
  161.5450  213.0050  140.2030 C   0  0  1  0  0  3  0  0  0  0  0  0
  159.9680  212.9040  146.5340 C   0  0  0  0  0  0  0  0  0  0  0  0
  161.2840  212.9910  144.5040 C   0  0  0  0  0  0  0  0  0  0  0  0
  159.5230  211.8890  139.3970 C   0  0  0  0  0  0  0  0  0  0  0  0
  160.1990  212.8220  142.2500 C   0  0  0  0  0  0  0  0  0  0  0  0
  157.2770  212.5700  140.0040 C   0  0  0  0  0  3  0  0  0  0  0  0
  162.6030  213.1880  143.8230 C   0  0  0  0  0  2  0  0  0  0  0  0
  157.6330  211.1840  138.1010 N   0  0  0  0  0  0  0  0  0  0  0  0
  158.9720  211.1720  138.3300 C   0  0  0  0  0  3  0  0  0  0  0  0
  158.6410  212.5370  140.3090 C   0  0  0  0  0  0  0  0  0  0  0  0
  165.5880  213.3380  138.7680 C   0  0  0  0  0  3  0  0  0  0  0  0
  162.9610  213.1330  139.7220 C   0  0  0  0  0  0  0  0  0  0  0  0
  163.5880  212.0230  139.1460 C   0  0  0  0  0  3  0  0  0  0  0  0
  164.9000  212.1240  138.6710 C   0  0  0  0  0  3  0  0  0  0  0  0
  164.9630  214.4520  139.3380 C   0  0  0  0  0  3  0  0  0  0  0  0
  163.6520  214.3510  139.8130 C   0  0  0  0  0  3  0  0  0  0  0  0
  1 12  1  0  0  0  0
  2 16  2  0  0  0  0
  2  6  1  0  0  0  0
  3 16  1  0  0  0  0
  4 13  1  0  0  0  0
  6 18  1  0  0  0  0
  7  9  1  0  0  0  0
  8 17  1  0  0  0  0
  9 13  2  0  0  0  0
 10  8  1  0  0  0  0
 11  7  2  0  0  0  0
 11 14  1  0  0  0  0
 12 23  1  6  0  0  0
 12  2  1  0  0  0  0
 13  5  1  0  0  0  0
 14  4  2  0  0  0  0
 15  1  1  0  0  0  0
 15 21  1  0  0  0  0
 16 11  1  0  0  0  0
 17 21  2  0  0  0  0
 18 14  1  0  0  0  0
 19 20  1  0  0  0  0
 19  8  2  0  0  0  0
 20 15  2  0  0  0  0
 21  3  1  0  0  0  0
 22 26  1  0  0  0  0
 23 27  1  0  0  0  0
 24 23  2  0  0  0  0
 25 22  2  0  0  0  0
 25 24  1  0  0  0  0
 26 27  2  0  0  0  0
M  END
>  <MODEL>
8

>  <REMARK>
 VINA RESULT:      -5.4      9.359     13.404
  Name = 
  1 active torsions:
  status: ('A' for Active; 'I' for Inactive)
    1  A    between atoms: C_9  and  C_15
                            x       y       z     vdW  Elec       q    Type
                         _______ _______ _______ _____ _____    ______ ____

>  <TORSDO>
F 1

$$$$
=
 OpenBabel11052423143D

 27 31  0  0  1  0  0  0  0  0999 V2000
  161.1420  207.4680  148.6390 N   0  0  0  0  0  2  0  0  0  0  0  0
  161.2060  206.6190  150.9260 C   0  0  0  0  0  0  0  0  0  0  0  0
  162.0550  208.9150  151.0280 N   0  0  0  0  0  2  0  0  0  0  0  0
  160.7290  206.5510  155.1470 C   0  0  0  0  0  3  0  0  0  0  0  0
  160.5700  207.7570  157.2300 O   0  0  0  0  0  1  0  0  0  0  0  0
  160.4430  205.4910  151.5870 C   0  0  0  0  0  2  0  0  0  0  0  0
  161.3100  208.9450  153.8160 C   0  0  0  0  0  3  0  0  0  0  0  0
  162.1090  211.4060  148.4730 C   0  0  0  0  0  0  0  0  0  0  0  0
  161.0830  208.9460  155.1960 C   0  0  0  0  0  3  0  0  0  0  0  0
  162.5470  212.8170  148.3130 C   0  0  0  0  0  1  0  0  0  0  0  0
  161.2410  207.7470  153.0900 C   0  0  0  0  0  0  0  0  0  0  0  0
  161.7220  206.4750  149.5290 C   0  0  1  0  0  3  0  0  0  0  0  0
  160.7920  207.7520  155.8600 C   0  0  0  0  0  0  0  0  0  0  0  0
  160.9410  206.5460  153.7650 C   0  0  0  0  0  0  0  0  0  0  0  0
  161.3190  208.7500  148.7260 C   0  0  0  0  0  0  0  0  0  0  0  0
  161.4860  207.7330  151.6250 C   0  0  0  0  0  0  0  0  0  0  0  0
  162.4050  210.7130  149.6450 C   0  0  0  0  0  3  0  0  0  0  0  0
  160.9330  205.2530  153.0130 C   0  0  0  0  0  2  0  0  0  0  0  0
  161.3680  210.8120  147.5030 N   0  0  0  0  0  0  0  0  0  0  0  0
  160.9810  209.5140  147.6040 C   0  0  0  0  0  3  0  0  0  0  0  0
  161.9770  209.3930  149.8150 C   0  0  0  0  0  0  0  0  0  0  0  0
  161.2710  202.5150  147.9080 C   0  0  0  0  0  3  0  0  0  0  0  0
  161.5840  205.0960  148.9510 C   0  0  0  0  0  0  0  0  0  0  0  0
  161.2640  204.0300  149.7990 C   0  0  0  0  0  3  0  0  0  0  0  0
  161.1100  202.7410  149.2790 C   0  0  0  0  0  3  0  0  0  0  0  0
  161.5850  203.5780  147.0560 C   0  0  0  0  0  3  0  0  0  0  0  0
  161.7390  204.8670  147.5750 C   0  0  0  0  0  3  0  0  0  0  0  0
  1 15  1  0  0  0  0
  1 12  1  0  0  0  0
  2  6  1  0  0  0  0
  2 16  2  0  0  0  0
  3 16  1  0  0  0  0
  4 13  1  0  0  0  0
  6 18  1  0  0  0  0
  7  9  1  0  0  0  0
  8 17  1  0  0  0  0
  9 13  2  0  0  0  0
 10  8  1  0  0  0  0
 11 14  1  0  0  0  0
 11  7  2  0  0  0  0
 12 23  1  6  0  0  0
 12  2  1  0  0  0  0
 13  5  1  0  0  0  0
 14  4  2  0  0  0  0
 15 21  1  0  0  0  0
 16 11  1  0  0  0  0
 17 21  2  0  0  0  0
 18 14  1  0  0  0  0
 19 20  1  0  0  0  0
 19  8  2  0  0  0  0
 20 15  2  0  0  0  0
 21  3  1  0  0  0  0
 22 25  1  0  0  0  0
 23 24  1  0  0  0  0
 25 24  2  0  0  0  0
 26 27  1  0  0  0  0
 26 22  2  0  0  0  0
 27 23  2  0  0  0  0
M  END
>  <MODEL>
9

>  <REMARK>
 VINA RESULT:      -5.3      2.435      5.816
  Name = 
  1 active torsions:
  status: ('A' for Active; 'I' for Inactive)
    1  A    between atoms: C_9  and  C_15
                            x       y       z     vdW  Elec       q    Type
                         _______ _______ _______ _____ _____    ______ ____

>  <TORSDO>
F 1

$$$$
